# generated using pymatgen
data_AlNi
_symmetry_space_group_name_H-M   'P 1'
_cell_length_a   8.66370600
_cell_length_b   8.66370600
_cell_length_c   28.87902000
_cell_angle_alpha   90.00000000
_cell_angle_beta   90.00000000
_cell_angle_gamma   90.00000000
_symmetry_Int_Tables_number   1
_chemical_formula_structural   AlNi
_chemical_formula_sum   'Al36 Ni36'
_cell_volume   2167.65351317
_cell_formula_units_Z   36
loop_
 _symmetry_equiv_pos_site_id
 _symmetry_equiv_pos_as_xyz
  1  'x, y, z'
loop_
 _atom_site_type_symbol
 _atom_site_label
 _atom_site_symmetry_multiplicity
 _atom_site_fract_x
 _atom_site_fract_y
 _atom_site_fract_z
 _atom_site_occupancy
  Al  Al0  1  0.00000000  0.00000000  0.07500000  1.0
  Al  Al1  1  0.00000000  0.33333333  0.07500000  1.0
  Al  Al2  1  0.00000000  0.66666667  0.07500000  1.0
  Al  Al3  1  0.33333333  0.00000000  0.07500000  1.0
  Al  Al4  1  0.33333333  0.33333333  0.07500000  1.0
  Al  Al5  1  0.33333333  0.66666667  0.07500000  1.0
  Al  Al6  1  0.66666667  0.00000000  0.07500000  1.0
  Al  Al7  1  0.66666667  0.33333333  0.07500000  1.0
  Al  Al8  1  0.66666667  0.66666667  0.07500000  1.0
  Ni  Ni9  1  0.16666667  0.16666667  0.02500000  1.0
  Ni  Ni10  1  0.16666667  0.50000000  0.02500000  1.0
  Ni  Ni11  1  0.16666667  0.83333333  0.02500000  1.0
  Ni  Ni12  1  0.50000000  0.16666667  0.02500000  1.0
  Ni  Ni13  1  0.50000000  0.50000000  0.02500000  1.0
  Ni  Ni14  1  0.50000000  0.83333333  0.02500000  1.0
  Ni  Ni15  1  0.83333333  0.16666667  0.02500000  1.0
  Ni  Ni16  1  0.83333333  0.50000000  0.02500000  1.0
  Ni  Ni17  1  0.83333333  0.83333333  0.02500000  1.0
  Al  Al18  1  0.00000000  0.00000000  0.17500000  1.0
  Al  Al19  1  0.00000000  0.33333333  0.17500000  1.0
  Al  Al20  1  0.00000000  0.66666667  0.17500000  1.0
  Al  Al21  1  0.33333333  0.00000000  0.17500000  1.0
  Al  Al22  1  0.33333333  0.33333333  0.17500000  1.0
  Al  Al23  1  0.33333333  0.66666667  0.17500000  1.0
  Al  Al24  1  0.66666667  0.00000000  0.17500000  1.0
  Al  Al25  1  0.66666667  0.33333333  0.17500000  1.0
  Al  Al26  1  0.66666667  0.66666667  0.17500000  1.0
  Ni  Ni27  1  0.16666667  0.16666667  0.12500000  1.0
  Ni  Ni28  1  0.16666667  0.50000000  0.12500000  1.0
  Ni  Ni29  1  0.16666667  0.83333333  0.12500000  1.0
  Ni  Ni30  1  0.50000000  0.16666667  0.12500000  1.0
  Ni  Ni31  1  0.50000000  0.50000000  0.12500000  1.0
  Ni  Ni32  1  0.50000000  0.83333333  0.12500000  1.0
  Ni  Ni33  1  0.83333333  0.16666667  0.12500000  1.0
  Ni  Ni34  1  0.83333333  0.50000000  0.12500000  1.0
  Ni  Ni35  1  0.83333333  0.83333333  0.12500000  1.0
  Al  Al36  1  0.00000000  0.00000000  0.27500000  1.0
  Al  Al37  1  0.00000000  0.33333333  0.27500000  1.0
  Al  Al38  1  0.00000000  0.66666667  0.27500000  1.0
  Al  Al39  1  0.33333333  0.00000000  0.27500000  1.0
  Al  Al40  1  0.33333333  0.33333333  0.27500000  1.0
  Al  Al41  1  0.33333333  0.66666667  0.27500000  1.0
  Al  Al42  1  0.66666667  0.00000000  0.27500000  1.0
  Al  Al43  1  0.66666667  0.33333333  0.27500000  1.0
  Al  Al44  1  0.66666667  0.66666667  0.27500000  1.0
  Ni  Ni45  1  0.16666667  0.16666667  0.22500000  1.0
  Ni  Ni46  1  0.16666667  0.50000000  0.22500000  1.0
  Ni  Ni47  1  0.16666667  0.83333333  0.22500000  1.0
  Ni  Ni48  1  0.50000000  0.16666667  0.22500000  1.0
  Ni  Ni49  1  0.50000000  0.50000000  0.22500000  1.0
  Ni  Ni50  1  0.50000000  0.83333333  0.22500000  1.0
  Ni  Ni51  1  0.83333333  0.16666667  0.22500000  1.0
  Ni  Ni52  1  0.83333333  0.50000000  0.22500000  1.0
  Ni  Ni53  1  0.83333333  0.83333333  0.22500000  1.0
  Al  Al54  1  0.00000000  0.00000000  0.37500000  1.0
  Al  Al55  1  0.00000000  0.33333333  0.37500000  1.0
  Al  Al56  1  0.00000000  0.66666667  0.37500000  1.0
  Al  Al57  1  0.33333333  0.00000000  0.37500000  1.0
  Al  Al58  1  0.33333333  0.33333333  0.37500000  1.0
  Al  Al59  1  0.33333333  0.66666667  0.37500000  1.0
  Al  Al60  1  0.66666667  0.00000000  0.37500000  1.0
  Al  Al61  1  0.66666667  0.33333333  0.37500000  1.0
  Al  Al62  1  0.66666667  0.66666667  0.37500000  1.0
  Ni  Ni63  1  0.16666667  0.16666667  0.32500000  1.0
  Ni  Ni64  1  0.16666667  0.50000000  0.32500000  1.0
  Ni  Ni65  1  0.16666667  0.83333333  0.32500000  1.0
  Ni  Ni66  1  0.50000000  0.16666667  0.32500000  1.0
  Ni  Ni67  1  0.50000000  0.50000000  0.32500000  1.0
  Ni  Ni68  1  0.50000000  0.83333333  0.32500000  1.0
  Ni  Ni69  1  0.83333333  0.16666667  0.32500000  1.0
  Ni  Ni70  1  0.83333333  0.50000000  0.32500000  1.0
  Ni  Ni71  1  0.83333333  0.83333333  0.32500000  1.0
