# generated using pymatgen
data_AlNi3
_symmetry_space_group_name_H-M   'P 1'
_cell_length_a   10.68325200
_cell_length_b   10.68325200
_cell_length_c   28.48867200
_cell_angle_alpha   90.00000000
_cell_angle_beta   90.00000000
_cell_angle_gamma   90.00000000
_symmetry_Int_Tables_number   1
_chemical_formula_structural   AlNi3
_chemical_formula_sum   'Al27 Ni81'
_cell_volume   3251.46550306
_cell_formula_units_Z   27
loop_
 _symmetry_equiv_pos_site_id
 _symmetry_equiv_pos_as_xyz
  1  'x, y, z'
loop_
 _atom_site_type_symbol
 _atom_site_label
 _atom_site_symmetry_multiplicity
 _atom_site_fract_x
 _atom_site_fract_y
 _atom_site_fract_z
 _atom_site_occupancy
  Al  Al0  1  0.00000000  0.00000000  0.09375000  1.0
  Al  Al1  1  0.00000000  0.33333333  0.09375000  1.0
  Al  Al2  1  0.00000000  0.66666667  0.09375000  1.0
  Al  Al3  1  0.33333333  0.00000000  0.09375000  1.0
  Al  Al4  1  0.33333333  0.33333333  0.09375000  1.0
  Al  Al5  1  0.33333333  0.66666667  0.09375000  1.0
  Al  Al6  1  0.66666667  0.00000000  0.09375000  1.0
  Al  Al7  1  0.66666667  0.33333333  0.09375000  1.0
  Al  Al8  1  0.66666667  0.66666667  0.09375000  1.0
  Ni  Ni9  1  0.16666667  0.00000000  0.03125000  1.0
  Ni  Ni10  1  0.16666667  0.33333333  0.03125000  1.0
  Ni  Ni11  1  0.16666667  0.66666667  0.03125000  1.0
  Ni  Ni12  1  0.50000000  0.00000000  0.03125000  1.0
  Ni  Ni13  1  0.50000000  0.33333333  0.03125000  1.0
  Ni  Ni14  1  0.50000000  0.66666667  0.03125000  1.0
  Ni  Ni15  1  0.83333333  0.00000000  0.03125000  1.0
  Ni  Ni16  1  0.83333333  0.33333333  0.03125000  1.0
  Ni  Ni17  1  0.83333333  0.66666667  0.03125000  1.0
  Ni  Ni18  1  0.00000000  0.16666667  0.03125000  1.0
  Ni  Ni19  1  0.00000000  0.50000000  0.03125000  1.0
  Ni  Ni20  1  0.00000000  0.83333333  0.03125000  1.0
  Ni  Ni21  1  0.33333333  0.16666667  0.03125000  1.0
  Ni  Ni22  1  0.33333333  0.50000000  0.03125000  1.0
  Ni  Ni23  1  0.33333333  0.83333333  0.03125000  1.0
  Ni  Ni24  1  0.66666667  0.16666667  0.03125000  1.0
  Ni  Ni25  1  0.66666667  0.50000000  0.03125000  1.0
  Ni  Ni26  1  0.66666667  0.83333333  0.03125000  1.0
  Ni  Ni27  1  0.16666667  0.16666667  0.09375000  1.0
  Ni  Ni28  1  0.16666667  0.50000000  0.09375000  1.0
  Ni  Ni29  1  0.16666667  0.83333333  0.09375000  1.0
  Ni  Ni30  1  0.50000000  0.16666667  0.09375000  1.0
  Ni  Ni31  1  0.50000000  0.50000000  0.09375000  1.0
  Ni  Ni32  1  0.50000000  0.83333333  0.09375000  1.0
  Ni  Ni33  1  0.83333333  0.16666667  0.09375000  1.0
  Ni  Ni34  1  0.83333333  0.50000000  0.09375000  1.0
  Ni  Ni35  1  0.83333333  0.83333333  0.09375000  1.0
  Al  Al36  1  0.00000000  0.00000000  0.21875000  1.0
  Al  Al37  1  0.00000000  0.33333333  0.21875000  1.0
  Al  Al38  1  0.00000000  0.66666667  0.21875000  1.0
  Al  Al39  1  0.33333333  0.00000000  0.21875000  1.0
  Al  Al40  1  0.33333333  0.33333333  0.21875000  1.0
  Al  Al41  1  0.33333333  0.66666667  0.21875000  1.0
  Al  Al42  1  0.66666667  0.00000000  0.21875000  1.0
  Al  Al43  1  0.66666667  0.33333333  0.21875000  1.0
  Al  Al44  1  0.66666667  0.66666667  0.21875000  1.0
  Ni  Ni45  1  0.16666667  0.00000000  0.15625000  1.0
  Ni  Ni46  1  0.16666667  0.33333333  0.15625000  1.0
  Ni  Ni47  1  0.16666667  0.66666667  0.15625000  1.0
  Ni  Ni48  1  0.50000000  0.00000000  0.15625000  1.0
  Ni  Ni49  1  0.50000000  0.33333333  0.15625000  1.0
  Ni  Ni50  1  0.50000000  0.66666667  0.15625000  1.0
  Ni  Ni51  1  0.83333333  0.00000000  0.15625000  1.0
  Ni  Ni52  1  0.83333333  0.33333333  0.15625000  1.0
  Ni  Ni53  1  0.83333333  0.66666667  0.15625000  1.0
  Ni  Ni54  1  0.00000000  0.16666667  0.15625000  1.0
  Ni  Ni55  1  0.00000000  0.50000000  0.15625000  1.0
  Ni  Ni56  1  0.00000000  0.83333333  0.15625000  1.0
  Ni  Ni57  1  0.33333333  0.16666667  0.15625000  1.0
  Ni  Ni58  1  0.33333333  0.50000000  0.15625000  1.0
  Ni  Ni59  1  0.33333333  0.83333333  0.15625000  1.0
  Ni  Ni60  1  0.66666667  0.16666667  0.15625000  1.0
  Ni  Ni61  1  0.66666667  0.50000000  0.15625000  1.0
  Ni  Ni62  1  0.66666667  0.83333333  0.15625000  1.0
  Ni  Ni63  1  0.16666667  0.16666667  0.21875000  1.0
  Ni  Ni64  1  0.16666667  0.50000000  0.21875000  1.0
  Ni  Ni65  1  0.16666667  0.83333333  0.21875000  1.0
  Ni  Ni66  1  0.50000000  0.16666667  0.21875000  1.0
  Ni  Ni67  1  0.50000000  0.50000000  0.21875000  1.0
  Ni  Ni68  1  0.50000000  0.83333333  0.21875000  1.0
  Ni  Ni69  1  0.83333333  0.16666667  0.21875000  1.0
  Ni  Ni70  1  0.83333333  0.50000000  0.21875000  1.0
  Ni  Ni71  1  0.83333333  0.83333333  0.21875000  1.0
  Al  Al72  1  0.00000000  0.00000000  0.34375000  1.0
  Al  Al73  1  0.00000000  0.33333333  0.34375000  1.0
  Al  Al74  1  0.00000000  0.66666667  0.34375000  1.0
  Al  Al75  1  0.33333333  0.00000000  0.34375000  1.0
  Al  Al76  1  0.33333333  0.33333333  0.34375000  1.0
  Al  Al77  1  0.33333333  0.66666667  0.34375000  1.0
  Al  Al78  1  0.66666667  0.00000000  0.34375000  1.0
  Al  Al79  1  0.66666667  0.33333333  0.34375000  1.0
  Al  Al80  1  0.66666667  0.66666667  0.34375000  1.0
  Ni  Ni81  1  0.16666667  0.00000000  0.28125000  1.0
  Ni  Ni82  1  0.16666667  0.33333333  0.28125000  1.0
  Ni  Ni83  1  0.16666667  0.66666667  0.28125000  1.0
  Ni  Ni84  1  0.50000000  0.00000000  0.28125000  1.0
  Ni  Ni85  1  0.50000000  0.33333333  0.28125000  1.0
  Ni  Ni86  1  0.50000000  0.66666667  0.28125000  1.0
  Ni  Ni87  1  0.83333333  0.00000000  0.28125000  1.0
  Ni  Ni88  1  0.83333333  0.33333333  0.28125000  1.0
  Ni  Ni89  1  0.83333333  0.66666667  0.28125000  1.0
  Ni  Ni90  1  0.00000000  0.16666667  0.28125000  1.0
  Ni  Ni91  1  0.00000000  0.50000000  0.28125000  1.0
  Ni  Ni92  1  0.00000000  0.83333333  0.28125000  1.0
  Ni  Ni93  1  0.33333333  0.16666667  0.28125000  1.0
  Ni  Ni94  1  0.33333333  0.50000000  0.28125000  1.0
  Ni  Ni95  1  0.33333333  0.83333333  0.28125000  1.0
  Ni  Ni96  1  0.66666667  0.16666667  0.28125000  1.0
  Ni  Ni97  1  0.66666667  0.50000000  0.28125000  1.0
  Ni  Ni98  1  0.66666667  0.83333333  0.28125000  1.0
  Ni  Ni99  1  0.16666667  0.16666667  0.34375000  1.0
  Ni  Ni100  1  0.16666667  0.50000000  0.34375000  1.0
  Ni  Ni101  1  0.16666667  0.83333333  0.34375000  1.0
  Ni  Ni102  1  0.50000000  0.16666667  0.34375000  1.0
  Ni  Ni103  1  0.50000000  0.50000000  0.34375000  1.0
  Ni  Ni104  1  0.50000000  0.83333333  0.34375000  1.0
  Ni  Ni105  1  0.83333333  0.16666667  0.34375000  1.0
  Ni  Ni106  1  0.83333333  0.50000000  0.34375000  1.0
  Ni  Ni107  1  0.83333333  0.83333333  0.34375000  1.0
