# generated using pymatgen
data_AlNi3
_symmetry_space_group_name_H-M   'P 1'
_cell_length_a   10.68325200
_cell_length_b   23.88847769
_cell_length_c   32.04975600
_cell_angle_alpha   116.56505118
_cell_angle_beta   90.00000000
_cell_angle_gamma   90.00000000
_symmetry_Int_Tables_number   1
_chemical_formula_structural   AlNi3
_chemical_formula_sum   'Al72 Ni216'
_cell_volume   7315.79738189
_cell_formula_units_Z   72
loop_
 _symmetry_equiv_pos_site_id
 _symmetry_equiv_pos_as_xyz
  1  'x, y, z'
loop_
 _atom_site_type_symbol
 _atom_site_label
 _atom_site_symmetry_multiplicity
 _atom_site_fract_x
 _atom_site_fract_y
 _atom_site_fract_z
 _atom_site_occupancy
  Al  Al0  1  0.00000000  0.16666667  0.04166667  1.0
  Al  Al1  1  0.00000000  0.50000000  0.04166667  1.0
  Al  Al2  1  0.00000000  0.83333333  0.04166667  1.0
  Al  Al3  1  0.33333333  0.16666667  0.04166667  1.0
  Al  Al4  1  0.33333333  0.50000000  0.04166667  1.0
  Al  Al5  1  0.33333333  0.83333333  0.04166667  1.0
  Al  Al6  1  0.66666667  0.16666667  0.04166667  1.0
  Al  Al7  1  0.66666667  0.50000000  0.04166667  1.0
  Al  Al8  1  0.66666667  0.83333333  0.04166667  1.0
  Al  Al9  1  0.00000000  0.00000000  0.09722222  1.0
  Al  Al10  1  0.00000000  0.33333333  0.09722222  1.0
  Al  Al11  1  0.00000000  0.66666667  0.09722222  1.0
  Al  Al12  1  0.33333333  0.00000000  0.09722222  1.0
  Al  Al13  1  0.33333333  0.33333333  0.09722222  1.0
  Al  Al14  1  0.33333333  0.66666667  0.09722222  1.0
  Al  Al15  1  0.66666667  0.00000000  0.09722222  1.0
  Al  Al16  1  0.66666667  0.33333333  0.09722222  1.0
  Al  Al17  1  0.66666667  0.66666667  0.09722222  1.0
  Ni  Ni18  1  0.00000000  0.08333333  0.06944444  1.0
  Ni  Ni19  1  0.00000000  0.41666667  0.06944444  1.0
  Ni  Ni20  1  0.00000000  0.75000000  0.06944444  1.0
  Ni  Ni21  1  0.33333333  0.08333333  0.06944444  1.0
  Ni  Ni22  1  0.33333333  0.41666667  0.06944444  1.0
  Ni  Ni23  1  0.33333333  0.75000000  0.06944444  1.0
  Ni  Ni24  1  0.66666667  0.08333333  0.06944444  1.0
  Ni  Ni25  1  0.66666667  0.41666667  0.06944444  1.0
  Ni  Ni26  1  0.66666667  0.75000000  0.06944444  1.0
  Ni  Ni27  1  0.00000000  0.25000000  0.01388889  1.0
  Ni  Ni28  1  0.00000000  0.58333333  0.01388889  1.0
  Ni  Ni29  1  0.00000000  0.91666667  0.01388889  1.0
  Ni  Ni30  1  0.33333333  0.25000000  0.01388889  1.0
  Ni  Ni31  1  0.33333333  0.58333333  0.01388889  1.0
  Ni  Ni32  1  0.33333333  0.91666667  0.01388889  1.0
  Ni  Ni33  1  0.66666667  0.25000000  0.01388889  1.0
  Ni  Ni34  1  0.66666667  0.58333333  0.01388889  1.0
  Ni  Ni35  1  0.66666667  0.91666667  0.01388889  1.0
  Ni  Ni36  1  0.16666667  0.16666667  0.09722222  1.0
  Ni  Ni37  1  0.16666667  0.50000000  0.09722222  1.0
  Ni  Ni38  1  0.16666667  0.83333333  0.09722222  1.0
  Ni  Ni39  1  0.50000000  0.16666667  0.09722222  1.0
  Ni  Ni40  1  0.50000000  0.50000000  0.09722222  1.0
  Ni  Ni41  1  0.50000000  0.83333333  0.09722222  1.0
  Ni  Ni42  1  0.83333333  0.16666667  0.09722222  1.0
  Ni  Ni43  1  0.83333333  0.50000000  0.09722222  1.0
  Ni  Ni44  1  0.83333333  0.83333333  0.09722222  1.0
  Ni  Ni45  1  0.16666667  0.00000000  0.04166667  1.0
  Ni  Ni46  1  0.16666667  0.33333333  0.04166667  1.0
  Ni  Ni47  1  0.16666667  0.66666667  0.04166667  1.0
  Ni  Ni48  1  0.50000000  0.00000000  0.04166667  1.0
  Ni  Ni49  1  0.50000000  0.33333333  0.04166667  1.0
  Ni  Ni50  1  0.50000000  0.66666667  0.04166667  1.0
  Ni  Ni51  1  0.83333333  0.00000000  0.04166667  1.0
  Ni  Ni52  1  0.83333333  0.33333333  0.04166667  1.0
  Ni  Ni53  1  0.83333333  0.66666667  0.04166667  1.0
  Ni  Ni54  1  0.16666667  0.08333333  0.01388889  1.0
  Ni  Ni55  1  0.16666667  0.41666667  0.01388889  1.0
  Ni  Ni56  1  0.16666667  0.75000000  0.01388889  1.0
  Ni  Ni57  1  0.50000000  0.08333333  0.01388889  1.0
  Ni  Ni58  1  0.50000000  0.41666667  0.01388889  1.0
  Ni  Ni59  1  0.50000000  0.75000000  0.01388889  1.0
  Ni  Ni60  1  0.83333333  0.08333333  0.01388889  1.0
  Ni  Ni61  1  0.83333333  0.41666667  0.01388889  1.0
  Ni  Ni62  1  0.83333333  0.75000000  0.01388889  1.0
  Ni  Ni63  1  0.16666667  0.25000000  0.06944444  1.0
  Ni  Ni64  1  0.16666667  0.58333333  0.06944444  1.0
  Ni  Ni65  1  0.16666667  0.91666667  0.06944444  1.0
  Ni  Ni66  1  0.50000000  0.25000000  0.06944444  1.0
  Ni  Ni67  1  0.50000000  0.58333333  0.06944444  1.0
  Ni  Ni68  1  0.50000000  0.91666667  0.06944444  1.0
  Ni  Ni69  1  0.83333333  0.25000000  0.06944444  1.0
  Ni  Ni70  1  0.83333333  0.58333333  0.06944444  1.0
  Ni  Ni71  1  0.83333333  0.91666667  0.06944444  1.0
  Al  Al72  1  0.00000000  0.16666667  0.15277778  1.0
  Al  Al73  1  0.00000000  0.50000000  0.15277778  1.0
  Al  Al74  1  0.00000000  0.83333333  0.15277778  1.0
  Al  Al75  1  0.33333333  0.16666667  0.15277778  1.0
  Al  Al76  1  0.33333333  0.50000000  0.15277778  1.0
  Al  Al77  1  0.33333333  0.83333333  0.15277778  1.0
  Al  Al78  1  0.66666667  0.16666667  0.15277778  1.0
  Al  Al79  1  0.66666667  0.50000000  0.15277778  1.0
  Al  Al80  1  0.66666667  0.83333333  0.15277778  1.0
  Al  Al81  1  0.00000000  0.00000000  0.20833333  1.0
  Al  Al82  1  0.00000000  0.33333333  0.20833333  1.0
  Al  Al83  1  0.00000000  0.66666667  0.20833333  1.0
  Al  Al84  1  0.33333333  0.00000000  0.20833333  1.0
  Al  Al85  1  0.33333333  0.33333333  0.20833333  1.0
  Al  Al86  1  0.33333333  0.66666667  0.20833333  1.0
  Al  Al87  1  0.66666667  0.00000000  0.20833333  1.0
  Al  Al88  1  0.66666667  0.33333333  0.20833333  1.0
  Al  Al89  1  0.66666667  0.66666667  0.20833333  1.0
  Ni  Ni90  1  0.00000000  0.08333333  0.18055556  1.0
  Ni  Ni91  1  0.00000000  0.41666667  0.18055556  1.0
  Ni  Ni92  1  0.00000000  0.75000000  0.18055556  1.0
  Ni  Ni93  1  0.33333333  0.08333333  0.18055556  1.0
  Ni  Ni94  1  0.33333333  0.41666667  0.18055556  1.0
  Ni  Ni95  1  0.33333333  0.75000000  0.18055556  1.0
  Ni  Ni96  1  0.66666667  0.08333333  0.18055556  1.0
  Ni  Ni97  1  0.66666667  0.41666667  0.18055556  1.0
  Ni  Ni98  1  0.66666667  0.75000000  0.18055556  1.0
  Ni  Ni99  1  0.00000000  0.25000000  0.12500000  1.0
  Ni  Ni100  1  0.00000000  0.58333333  0.12500000  1.0
  Ni  Ni101  1  0.00000000  0.91666667  0.12500000  1.0
  Ni  Ni102  1  0.33333333  0.25000000  0.12500000  1.0
  Ni  Ni103  1  0.33333333  0.58333333  0.12500000  1.0
  Ni  Ni104  1  0.33333333  0.91666667  0.12500000  1.0
  Ni  Ni105  1  0.66666667  0.25000000  0.12500000  1.0
  Ni  Ni106  1  0.66666667  0.58333333  0.12500000  1.0
  Ni  Ni107  1  0.66666667  0.91666667  0.12500000  1.0
  Ni  Ni108  1  0.16666667  0.16666667  0.20833333  1.0
  Ni  Ni109  1  0.16666667  0.50000000  0.20833333  1.0
  Ni  Ni110  1  0.16666667  0.83333333  0.20833333  1.0
  Ni  Ni111  1  0.50000000  0.16666667  0.20833333  1.0
  Ni  Ni112  1  0.50000000  0.50000000  0.20833333  1.0
  Ni  Ni113  1  0.50000000  0.83333333  0.20833333  1.0
  Ni  Ni114  1  0.83333333  0.16666667  0.20833333  1.0
  Ni  Ni115  1  0.83333333  0.50000000  0.20833333  1.0
  Ni  Ni116  1  0.83333333  0.83333333  0.20833333  1.0
  Ni  Ni117  1  0.16666667  0.00000000  0.15277778  1.0
  Ni  Ni118  1  0.16666667  0.33333333  0.15277778  1.0
  Ni  Ni119  1  0.16666667  0.66666667  0.15277778  1.0
  Ni  Ni120  1  0.50000000  0.00000000  0.15277778  1.0
  Ni  Ni121  1  0.50000000  0.33333333  0.15277778  1.0
  Ni  Ni122  1  0.50000000  0.66666667  0.15277778  1.0
  Ni  Ni123  1  0.83333333  0.00000000  0.15277778  1.0
  Ni  Ni124  1  0.83333333  0.33333333  0.15277778  1.0
  Ni  Ni125  1  0.83333333  0.66666667  0.15277778  1.0
  Ni  Ni126  1  0.16666667  0.08333333  0.12500000  1.0
  Ni  Ni127  1  0.16666667  0.41666667  0.12500000  1.0
  Ni  Ni128  1  0.16666667  0.75000000  0.12500000  1.0
  Ni  Ni129  1  0.50000000  0.08333333  0.12500000  1.0
  Ni  Ni130  1  0.50000000  0.41666667  0.12500000  1.0
  Ni  Ni131  1  0.50000000  0.75000000  0.12500000  1.0
  Ni  Ni132  1  0.83333333  0.08333333  0.12500000  1.0
  Ni  Ni133  1  0.83333333  0.41666667  0.12500000  1.0
  Ni  Ni134  1  0.83333333  0.75000000  0.12500000  1.0
  Ni  Ni135  1  0.16666667  0.25000000  0.18055556  1.0
  Ni  Ni136  1  0.16666667  0.58333333  0.18055556  1.0
  Ni  Ni137  1  0.16666667  0.91666667  0.18055556  1.0
  Ni  Ni138  1  0.50000000  0.25000000  0.18055556  1.0
  Ni  Ni139  1  0.50000000  0.58333333  0.18055556  1.0
  Ni  Ni140  1  0.50000000  0.91666667  0.18055556  1.0
  Ni  Ni141  1  0.83333333  0.25000000  0.18055556  1.0
  Ni  Ni142  1  0.83333333  0.58333333  0.18055556  1.0
  Ni  Ni143  1  0.83333333  0.91666667  0.18055556  1.0
  Al  Al144  1  0.00000000  0.16666667  0.26388889  1.0
  Al  Al145  1  0.00000000  0.50000000  0.26388889  1.0
  Al  Al146  1  0.00000000  0.83333333  0.26388889  1.0
  Al  Al147  1  0.33333333  0.16666667  0.26388889  1.0
  Al  Al148  1  0.33333333  0.50000000  0.26388889  1.0
  Al  Al149  1  0.33333333  0.83333333  0.26388889  1.0
  Al  Al150  1  0.66666667  0.16666667  0.26388889  1.0
  Al  Al151  1  0.66666667  0.50000000  0.26388889  1.0
  Al  Al152  1  0.66666667  0.83333333  0.26388889  1.0
  Al  Al153  1  0.00000000  0.00000000  0.31944444  1.0
  Al  Al154  1  0.00000000  0.33333333  0.31944444  1.0
  Al  Al155  1  0.00000000  0.66666667  0.31944444  1.0
  Al  Al156  1  0.33333333  0.00000000  0.31944444  1.0
  Al  Al157  1  0.33333333  0.33333333  0.31944444  1.0
  Al  Al158  1  0.33333333  0.66666667  0.31944444  1.0
  Al  Al159  1  0.66666667  0.00000000  0.31944444  1.0
  Al  Al160  1  0.66666667  0.33333333  0.31944444  1.0
  Al  Al161  1  0.66666667  0.66666667  0.31944444  1.0
  Ni  Ni162  1  0.00000000  0.08333333  0.29166667  1.0
  Ni  Ni163  1  0.00000000  0.41666667  0.29166667  1.0
  Ni  Ni164  1  0.00000000  0.75000000  0.29166667  1.0
  Ni  Ni165  1  0.33333333  0.08333333  0.29166667  1.0
  Ni  Ni166  1  0.33333333  0.41666667  0.29166667  1.0
  Ni  Ni167  1  0.33333333  0.75000000  0.29166667  1.0
  Ni  Ni168  1  0.66666667  0.08333333  0.29166667  1.0
  Ni  Ni169  1  0.66666667  0.41666667  0.29166667  1.0
  Ni  Ni170  1  0.66666667  0.75000000  0.29166667  1.0
  Ni  Ni171  1  0.00000000  0.25000000  0.23611111  1.0
  Ni  Ni172  1  0.00000000  0.58333333  0.23611111  1.0
  Ni  Ni173  1  0.00000000  0.91666667  0.23611111  1.0
  Ni  Ni174  1  0.33333333  0.25000000  0.23611111  1.0
  Ni  Ni175  1  0.33333333  0.58333333  0.23611111  1.0
  Ni  Ni176  1  0.33333333  0.91666667  0.23611111  1.0
  Ni  Ni177  1  0.66666667  0.25000000  0.23611111  1.0
  Ni  Ni178  1  0.66666667  0.58333333  0.23611111  1.0
  Ni  Ni179  1  0.66666667  0.91666667  0.23611111  1.0
  Ni  Ni180  1  0.16666667  0.16666667  0.31944444  1.0
  Ni  Ni181  1  0.16666667  0.50000000  0.31944444  1.0
  Ni  Ni182  1  0.16666667  0.83333333  0.31944444  1.0
  Ni  Ni183  1  0.50000000  0.16666667  0.31944444  1.0
  Ni  Ni184  1  0.50000000  0.50000000  0.31944444  1.0
  Ni  Ni185  1  0.50000000  0.83333333  0.31944444  1.0
  Ni  Ni186  1  0.83333333  0.16666667  0.31944444  1.0
  Ni  Ni187  1  0.83333333  0.50000000  0.31944444  1.0
  Ni  Ni188  1  0.83333333  0.83333333  0.31944444  1.0
  Ni  Ni189  1  0.16666667  0.00000000  0.26388889  1.0
  Ni  Ni190  1  0.16666667  0.33333333  0.26388889  1.0
  Ni  Ni191  1  0.16666667  0.66666667  0.26388889  1.0
  Ni  Ni192  1  0.50000000  0.00000000  0.26388889  1.0
  Ni  Ni193  1  0.50000000  0.33333333  0.26388889  1.0
  Ni  Ni194  1  0.50000000  0.66666667  0.26388889  1.0
  Ni  Ni195  1  0.83333333  0.00000000  0.26388889  1.0
  Ni  Ni196  1  0.83333333  0.33333333  0.26388889  1.0
  Ni  Ni197  1  0.83333333  0.66666667  0.26388889  1.0
  Ni  Ni198  1  0.16666667  0.08333333  0.23611111  1.0
  Ni  Ni199  1  0.16666667  0.41666667  0.23611111  1.0
  Ni  Ni200  1  0.16666667  0.75000000  0.23611111  1.0
  Ni  Ni201  1  0.50000000  0.08333333  0.23611111  1.0
  Ni  Ni202  1  0.50000000  0.41666667  0.23611111  1.0
  Ni  Ni203  1  0.50000000  0.75000000  0.23611111  1.0
  Ni  Ni204  1  0.83333333  0.08333333  0.23611111  1.0
  Ni  Ni205  1  0.83333333  0.41666667  0.23611111  1.0
  Ni  Ni206  1  0.83333333  0.75000000  0.23611111  1.0
  Ni  Ni207  1  0.16666667  0.25000000  0.29166667  1.0
  Ni  Ni208  1  0.16666667  0.58333333  0.29166667  1.0
  Ni  Ni209  1  0.16666667  0.91666667  0.29166667  1.0
  Ni  Ni210  1  0.50000000  0.25000000  0.29166667  1.0
  Ni  Ni211  1  0.50000000  0.58333333  0.29166667  1.0
  Ni  Ni212  1  0.50000000  0.91666667  0.29166667  1.0
  Ni  Ni213  1  0.83333333  0.25000000  0.29166667  1.0
  Ni  Ni214  1  0.83333333  0.58333333  0.29166667  1.0
  Ni  Ni215  1  0.83333333  0.91666667  0.29166667  1.0
  Al  Al216  1  0.00000000  0.16666667  0.37500000  1.0
  Al  Al217  1  0.00000000  0.50000000  0.37500000  1.0
  Al  Al218  1  0.00000000  0.83333333  0.37500000  1.0
  Al  Al219  1  0.33333333  0.16666667  0.37500000  1.0
  Al  Al220  1  0.33333333  0.50000000  0.37500000  1.0
  Al  Al221  1  0.33333333  0.83333333  0.37500000  1.0
  Al  Al222  1  0.66666667  0.16666667  0.37500000  1.0
  Al  Al223  1  0.66666667  0.50000000  0.37500000  1.0
  Al  Al224  1  0.66666667  0.83333333  0.37500000  1.0
  Al  Al225  1  0.00000000  0.00000000  0.43055556  1.0
  Al  Al226  1  0.00000000  0.33333333  0.43055556  1.0
  Al  Al227  1  0.00000000  0.66666667  0.43055556  1.0
  Al  Al228  1  0.33333333  0.00000000  0.43055556  1.0
  Al  Al229  1  0.33333333  0.33333333  0.43055556  1.0
  Al  Al230  1  0.33333333  0.66666667  0.43055556  1.0
  Al  Al231  1  0.66666667  0.00000000  0.43055556  1.0
  Al  Al232  1  0.66666667  0.33333333  0.43055556  1.0
  Al  Al233  1  0.66666667  0.66666667  0.43055556  1.0
  Ni  Ni234  1  0.00000000  0.08333333  0.40277778  1.0
  Ni  Ni235  1  0.00000000  0.41666667  0.40277778  1.0
  Ni  Ni236  1  0.00000000  0.75000000  0.40277778  1.0
  Ni  Ni237  1  0.33333333  0.08333333  0.40277778  1.0
  Ni  Ni238  1  0.33333333  0.41666667  0.40277778  1.0
  Ni  Ni239  1  0.33333333  0.75000000  0.40277778  1.0
  Ni  Ni240  1  0.66666667  0.08333333  0.40277778  1.0
  Ni  Ni241  1  0.66666667  0.41666667  0.40277778  1.0
  Ni  Ni242  1  0.66666667  0.75000000  0.40277778  1.0
  Ni  Ni243  1  0.00000000  0.25000000  0.34722222  1.0
  Ni  Ni244  1  0.00000000  0.58333333  0.34722222  1.0
  Ni  Ni245  1  0.00000000  0.91666667  0.34722222  1.0
  Ni  Ni246  1  0.33333333  0.25000000  0.34722222  1.0
  Ni  Ni247  1  0.33333333  0.58333333  0.34722222  1.0
  Ni  Ni248  1  0.33333333  0.91666667  0.34722222  1.0
  Ni  Ni249  1  0.66666667  0.25000000  0.34722222  1.0
  Ni  Ni250  1  0.66666667  0.58333333  0.34722222  1.0
  Ni  Ni251  1  0.66666667  0.91666667  0.34722222  1.0
  Ni  Ni252  1  0.16666667  0.16666667  0.43055556  1.0
  Ni  Ni253  1  0.16666667  0.50000000  0.43055556  1.0
  Ni  Ni254  1  0.16666667  0.83333333  0.43055556  1.0
  Ni  Ni255  1  0.50000000  0.16666667  0.43055556  1.0
  Ni  Ni256  1  0.50000000  0.50000000  0.43055556  1.0
  Ni  Ni257  1  0.50000000  0.83333333  0.43055556  1.0
  Ni  Ni258  1  0.83333333  0.16666667  0.43055556  1.0
  Ni  Ni259  1  0.83333333  0.50000000  0.43055556  1.0
  Ni  Ni260  1  0.83333333  0.83333333  0.43055556  1.0
  Ni  Ni261  1  0.16666667  0.00000000  0.37500000  1.0
  Ni  Ni262  1  0.16666667  0.33333333  0.37500000  1.0
  Ni  Ni263  1  0.16666667  0.66666667  0.37500000  1.0
  Ni  Ni264  1  0.50000000  0.00000000  0.37500000  1.0
  Ni  Ni265  1  0.50000000  0.33333333  0.37500000  1.0
  Ni  Ni266  1  0.50000000  0.66666667  0.37500000  1.0
  Ni  Ni267  1  0.83333333  0.00000000  0.37500000  1.0
  Ni  Ni268  1  0.83333333  0.33333333  0.37500000  1.0
  Ni  Ni269  1  0.83333333  0.66666667  0.37500000  1.0
  Ni  Ni270  1  0.16666667  0.08333333  0.34722222  1.0
  Ni  Ni271  1  0.16666667  0.41666667  0.34722222  1.0
  Ni  Ni272  1  0.16666667  0.75000000  0.34722222  1.0
  Ni  Ni273  1  0.50000000  0.08333333  0.34722222  1.0
  Ni  Ni274  1  0.50000000  0.41666667  0.34722222  1.0
  Ni  Ni275  1  0.50000000  0.75000000  0.34722222  1.0
  Ni  Ni276  1  0.83333333  0.08333333  0.34722222  1.0
  Ni  Ni277  1  0.83333333  0.41666667  0.34722222  1.0
  Ni  Ni278  1  0.83333333  0.75000000  0.34722222  1.0
  Ni  Ni279  1  0.16666667  0.25000000  0.40277778  1.0
  Ni  Ni280  1  0.16666667  0.58333333  0.40277778  1.0
  Ni  Ni281  1  0.16666667  0.91666667  0.40277778  1.0
  Ni  Ni282  1  0.50000000  0.25000000  0.40277778  1.0
  Ni  Ni283  1  0.50000000  0.58333333  0.40277778  1.0
  Ni  Ni284  1  0.50000000  0.91666667  0.40277778  1.0
  Ni  Ni285  1  0.83333333  0.25000000  0.40277778  1.0
  Ni  Ni286  1  0.83333333  0.58333333  0.40277778  1.0
  Ni  Ni287  1  0.83333333  0.91666667  0.40277778  1.0
