# generated using pymatgen
data_AlNi
_symmetry_space_group_name_H-M   'P 1'
_cell_length_a   12.25233053
_cell_length_b   19.37263555
_cell_length_c   40.43062800
_cell_angle_alpha   116.56505118
_cell_angle_beta   135.00000000
_cell_angle_gamma   71.56505118
_symmetry_Int_Tables_number   1
_chemical_formula_structural   AlNi
_chemical_formula_sum   'Al108 Ni108'
_cell_volume   6069.42983689
_cell_formula_units_Z   108
loop_
 _symmetry_equiv_pos_site_id
 _symmetry_equiv_pos_as_xyz
  1  'x, y, z'
loop_
 _atom_site_type_symbol
 _atom_site_label
 _atom_site_symmetry_multiplicity
 _atom_site_fract_x
 _atom_site_fract_y
 _atom_site_fract_z
 _atom_site_occupancy
  Al  Al0  1  0.00000000  0.00000000  0.06250000  1.0
  Al  Al1  1  0.00000000  0.33333333  0.06250000  1.0
  Al  Al2  1  0.00000000  0.66666667  0.06250000  1.0
  Al  Al3  1  0.33333333  0.00000000  0.06250000  1.0
  Al  Al4  1  0.33333333  0.33333333  0.06250000  1.0
  Al  Al5  1  0.33333333  0.66666667  0.06250000  1.0
  Al  Al6  1  0.66666667  0.00000000  0.06250000  1.0
  Al  Al7  1  0.66666667  0.33333333  0.06250000  1.0
  Al  Al8  1  0.66666667  0.66666667  0.06250000  1.0
  Al  Al9  1  0.00000000  0.16666667  0.02678571  1.0
  Al  Al10  1  0.00000000  0.50000000  0.02678571  1.0
  Al  Al11  1  0.00000000  0.83333333  0.02678571  1.0
  Al  Al12  1  0.33333333  0.16666667  0.02678571  1.0
  Al  Al13  1  0.33333333  0.50000000  0.02678571  1.0
  Al  Al14  1  0.33333333  0.83333333  0.02678571  1.0
  Al  Al15  1  0.66666667  0.16666667  0.02678571  1.0
  Al  Al16  1  0.66666667  0.50000000  0.02678571  1.0
  Al  Al17  1  0.66666667  0.83333333  0.02678571  1.0
  Ni  Ni18  1  0.16666667  0.08333333  0.00892857  1.0
  Ni  Ni19  1  0.16666667  0.41666667  0.00892857  1.0
  Ni  Ni20  1  0.16666667  0.75000000  0.00892857  1.0
  Ni  Ni21  1  0.50000000  0.08333333  0.00892857  1.0
  Ni  Ni22  1  0.50000000  0.41666667  0.00892857  1.0
  Ni  Ni23  1  0.50000000  0.75000000  0.00892857  1.0
  Ni  Ni24  1  0.83333333  0.08333333  0.00892857  1.0
  Ni  Ni25  1  0.83333333  0.41666667  0.00892857  1.0
  Ni  Ni26  1  0.83333333  0.75000000  0.00892857  1.0
  Ni  Ni27  1  0.16666667  0.25000000  0.04464286  1.0
  Ni  Ni28  1  0.16666667  0.58333333  0.04464286  1.0
  Ni  Ni29  1  0.16666667  0.91666667  0.04464286  1.0
  Ni  Ni30  1  0.50000000  0.25000000  0.04464286  1.0
  Ni  Ni31  1  0.50000000  0.58333333  0.04464286  1.0
  Ni  Ni32  1  0.50000000  0.91666667  0.04464286  1.0
  Ni  Ni33  1  0.83333333  0.25000000  0.04464286  1.0
  Ni  Ni34  1  0.83333333  0.58333333  0.04464286  1.0
  Ni  Ni35  1  0.83333333  0.91666667  0.04464286  1.0
  Al  Al36  1  0.00000000  0.00000000  0.13392857  1.0
  Al  Al37  1  0.00000000  0.33333333  0.13392857  1.0
  Al  Al38  1  0.00000000  0.66666667  0.13392857  1.0
  Al  Al39  1  0.33333333  0.00000000  0.13392857  1.0
  Al  Al40  1  0.33333333  0.33333333  0.13392857  1.0
  Al  Al41  1  0.33333333  0.66666667  0.13392857  1.0
  Al  Al42  1  0.66666667  0.00000000  0.13392857  1.0
  Al  Al43  1  0.66666667  0.33333333  0.13392857  1.0
  Al  Al44  1  0.66666667  0.66666667  0.13392857  1.0
  Al  Al45  1  0.00000000  0.16666667  0.09821429  1.0
  Al  Al46  1  0.00000000  0.50000000  0.09821429  1.0
  Al  Al47  1  0.00000000  0.83333333  0.09821429  1.0
  Al  Al48  1  0.33333333  0.16666667  0.09821429  1.0
  Al  Al49  1  0.33333333  0.50000000  0.09821429  1.0
  Al  Al50  1  0.33333333  0.83333333  0.09821429  1.0
  Al  Al51  1  0.66666667  0.16666667  0.09821429  1.0
  Al  Al52  1  0.66666667  0.50000000  0.09821429  1.0
  Al  Al53  1  0.66666667  0.83333333  0.09821429  1.0
  Ni  Ni54  1  0.16666667  0.08333333  0.08035714  1.0
  Ni  Ni55  1  0.16666667  0.41666667  0.08035714  1.0
  Ni  Ni56  1  0.16666667  0.75000000  0.08035714  1.0
  Ni  Ni57  1  0.50000000  0.08333333  0.08035714  1.0
  Ni  Ni58  1  0.50000000  0.41666667  0.08035714  1.0
  Ni  Ni59  1  0.50000000  0.75000000  0.08035714  1.0
  Ni  Ni60  1  0.83333333  0.08333333  0.08035714  1.0
  Ni  Ni61  1  0.83333333  0.41666667  0.08035714  1.0
  Ni  Ni62  1  0.83333333  0.75000000  0.08035714  1.0
  Ni  Ni63  1  0.16666667  0.25000000  0.11607143  1.0
  Ni  Ni64  1  0.16666667  0.58333333  0.11607143  1.0
  Ni  Ni65  1  0.16666667  0.91666667  0.11607143  1.0
  Ni  Ni66  1  0.50000000  0.25000000  0.11607143  1.0
  Ni  Ni67  1  0.50000000  0.58333333  0.11607143  1.0
  Ni  Ni68  1  0.50000000  0.91666667  0.11607143  1.0
  Ni  Ni69  1  0.83333333  0.25000000  0.11607143  1.0
  Ni  Ni70  1  0.83333333  0.58333333  0.11607143  1.0
  Ni  Ni71  1  0.83333333  0.91666667  0.11607143  1.0
  Al  Al72  1  0.00000000  0.00000000  0.20535714  1.0
  Al  Al73  1  0.00000000  0.33333333  0.20535714  1.0
  Al  Al74  1  0.00000000  0.66666667  0.20535714  1.0
  Al  Al75  1  0.33333333  0.00000000  0.20535714  1.0
  Al  Al76  1  0.33333333  0.33333333  0.20535714  1.0
  Al  Al77  1  0.33333333  0.66666667  0.20535714  1.0
  Al  Al78  1  0.66666667  0.00000000  0.20535714  1.0
  Al  Al79  1  0.66666667  0.33333333  0.20535714  1.0
  Al  Al80  1  0.66666667  0.66666667  0.20535714  1.0
  Al  Al81  1  0.00000000  0.16666667  0.16964286  1.0
  Al  Al82  1  0.00000000  0.50000000  0.16964286  1.0
  Al  Al83  1  0.00000000  0.83333333  0.16964286  1.0
  Al  Al84  1  0.33333333  0.16666667  0.16964286  1.0
  Al  Al85  1  0.33333333  0.50000000  0.16964286  1.0
  Al  Al86  1  0.33333333  0.83333333  0.16964286  1.0
  Al  Al87  1  0.66666667  0.16666667  0.16964286  1.0
  Al  Al88  1  0.66666667  0.50000000  0.16964286  1.0
  Al  Al89  1  0.66666667  0.83333333  0.16964286  1.0
  Ni  Ni90  1  0.16666667  0.08333333  0.15178571  1.0
  Ni  Ni91  1  0.16666667  0.41666667  0.15178571  1.0
  Ni  Ni92  1  0.16666667  0.75000000  0.15178571  1.0
  Ni  Ni93  1  0.50000000  0.08333333  0.15178571  1.0
  Ni  Ni94  1  0.50000000  0.41666667  0.15178571  1.0
  Ni  Ni95  1  0.50000000  0.75000000  0.15178571  1.0
  Ni  Ni96  1  0.83333333  0.08333333  0.15178571  1.0
  Ni  Ni97  1  0.83333333  0.41666667  0.15178571  1.0
  Ni  Ni98  1  0.83333333  0.75000000  0.15178571  1.0
  Ni  Ni99  1  0.16666667  0.25000000  0.18750000  1.0
  Ni  Ni100  1  0.16666667  0.58333333  0.18750000  1.0
  Ni  Ni101  1  0.16666667  0.91666667  0.18750000  1.0
  Ni  Ni102  1  0.50000000  0.25000000  0.18750000  1.0
  Ni  Ni103  1  0.50000000  0.58333333  0.18750000  1.0
  Ni  Ni104  1  0.50000000  0.91666667  0.18750000  1.0
  Ni  Ni105  1  0.83333333  0.25000000  0.18750000  1.0
  Ni  Ni106  1  0.83333333  0.58333333  0.18750000  1.0
  Ni  Ni107  1  0.83333333  0.91666667  0.18750000  1.0
  Al  Al108  1  0.00000000  0.00000000  0.27678571  1.0
  Al  Al109  1  0.00000000  0.33333333  0.27678571  1.0
  Al  Al110  1  0.00000000  0.66666667  0.27678571  1.0
  Al  Al111  1  0.33333333  0.00000000  0.27678571  1.0
  Al  Al112  1  0.33333333  0.33333333  0.27678571  1.0
  Al  Al113  1  0.33333333  0.66666667  0.27678571  1.0
  Al  Al114  1  0.66666667  0.00000000  0.27678571  1.0
  Al  Al115  1  0.66666667  0.33333333  0.27678571  1.0
  Al  Al116  1  0.66666667  0.66666667  0.27678571  1.0
  Al  Al117  1  0.00000000  0.16666667  0.24107143  1.0
  Al  Al118  1  0.00000000  0.50000000  0.24107143  1.0
  Al  Al119  1  0.00000000  0.83333333  0.24107143  1.0
  Al  Al120  1  0.33333333  0.16666667  0.24107143  1.0
  Al  Al121  1  0.33333333  0.50000000  0.24107143  1.0
  Al  Al122  1  0.33333333  0.83333333  0.24107143  1.0
  Al  Al123  1  0.66666667  0.16666667  0.24107143  1.0
  Al  Al124  1  0.66666667  0.50000000  0.24107143  1.0
  Al  Al125  1  0.66666667  0.83333333  0.24107143  1.0
  Ni  Ni126  1  0.16666667  0.08333333  0.22321429  1.0
  Ni  Ni127  1  0.16666667  0.41666667  0.22321429  1.0
  Ni  Ni128  1  0.16666667  0.75000000  0.22321429  1.0
  Ni  Ni129  1  0.50000000  0.08333333  0.22321429  1.0
  Ni  Ni130  1  0.50000000  0.41666667  0.22321429  1.0
  Ni  Ni131  1  0.50000000  0.75000000  0.22321429  1.0
  Ni  Ni132  1  0.83333333  0.08333333  0.22321429  1.0
  Ni  Ni133  1  0.83333333  0.41666667  0.22321429  1.0
  Ni  Ni134  1  0.83333333  0.75000000  0.22321429  1.0
  Ni  Ni135  1  0.16666667  0.25000000  0.25892857  1.0
  Ni  Ni136  1  0.16666667  0.58333333  0.25892857  1.0
  Ni  Ni137  1  0.16666667  0.91666667  0.25892857  1.0
  Ni  Ni138  1  0.50000000  0.25000000  0.25892857  1.0
  Ni  Ni139  1  0.50000000  0.58333333  0.25892857  1.0
  Ni  Ni140  1  0.50000000  0.91666667  0.25892857  1.0
  Ni  Ni141  1  0.83333333  0.25000000  0.25892857  1.0
  Ni  Ni142  1  0.83333333  0.58333333  0.25892857  1.0
  Ni  Ni143  1  0.83333333  0.91666667  0.25892857  1.0
  Al  Al144  1  0.00000000  0.00000000  0.34821429  1.0
  Al  Al145  1  0.00000000  0.33333333  0.34821429  1.0
  Al  Al146  1  0.00000000  0.66666667  0.34821429  1.0
  Al  Al147  1  0.33333333  0.00000000  0.34821429  1.0
  Al  Al148  1  0.33333333  0.33333333  0.34821429  1.0
  Al  Al149  1  0.33333333  0.66666667  0.34821429  1.0
  Al  Al150  1  0.66666667  0.00000000  0.34821429  1.0
  Al  Al151  1  0.66666667  0.33333333  0.34821429  1.0
  Al  Al152  1  0.66666667  0.66666667  0.34821429  1.0
  Al  Al153  1  0.00000000  0.16666667  0.31250000  1.0
  Al  Al154  1  0.00000000  0.50000000  0.31250000  1.0
  Al  Al155  1  0.00000000  0.83333333  0.31250000  1.0
  Al  Al156  1  0.33333333  0.16666667  0.31250000  1.0
  Al  Al157  1  0.33333333  0.50000000  0.31250000  1.0
  Al  Al158  1  0.33333333  0.83333333  0.31250000  1.0
  Al  Al159  1  0.66666667  0.16666667  0.31250000  1.0
  Al  Al160  1  0.66666667  0.50000000  0.31250000  1.0
  Al  Al161  1  0.66666667  0.83333333  0.31250000  1.0
  Ni  Ni162  1  0.16666667  0.08333333  0.29464286  1.0
  Ni  Ni163  1  0.16666667  0.41666667  0.29464286  1.0
  Ni  Ni164  1  0.16666667  0.75000000  0.29464286  1.0
  Ni  Ni165  1  0.50000000  0.08333333  0.29464286  1.0
  Ni  Ni166  1  0.50000000  0.41666667  0.29464286  1.0
  Ni  Ni167  1  0.50000000  0.75000000  0.29464286  1.0
  Ni  Ni168  1  0.83333333  0.08333333  0.29464286  1.0
  Ni  Ni169  1  0.83333333  0.41666667  0.29464286  1.0
  Ni  Ni170  1  0.83333333  0.75000000  0.29464286  1.0
  Ni  Ni171  1  0.16666667  0.25000000  0.33035714  1.0
  Ni  Ni172  1  0.16666667  0.58333333  0.33035714  1.0
  Ni  Ni173  1  0.16666667  0.91666667  0.33035714  1.0
  Ni  Ni174  1  0.50000000  0.25000000  0.33035714  1.0
  Ni  Ni175  1  0.50000000  0.58333333  0.33035714  1.0
  Ni  Ni176  1  0.50000000  0.91666667  0.33035714  1.0
  Ni  Ni177  1  0.83333333  0.25000000  0.33035714  1.0
  Ni  Ni178  1  0.83333333  0.58333333  0.33035714  1.0
  Ni  Ni179  1  0.83333333  0.91666667  0.33035714  1.0
  Al  Al180  1  0.00000000  0.00000000  0.41964286  1.0
  Al  Al181  1  0.00000000  0.33333333  0.41964286  1.0
  Al  Al182  1  0.00000000  0.66666667  0.41964286  1.0
  Al  Al183  1  0.33333333  0.00000000  0.41964286  1.0
  Al  Al184  1  0.33333333  0.33333333  0.41964286  1.0
  Al  Al185  1  0.33333333  0.66666667  0.41964286  1.0
  Al  Al186  1  0.66666667  0.00000000  0.41964286  1.0
  Al  Al187  1  0.66666667  0.33333333  0.41964286  1.0
  Al  Al188  1  0.66666667  0.66666667  0.41964286  1.0
  Al  Al189  1  0.00000000  0.16666667  0.38392857  1.0
  Al  Al190  1  0.00000000  0.50000000  0.38392857  1.0
  Al  Al191  1  0.00000000  0.83333333  0.38392857  1.0
  Al  Al192  1  0.33333333  0.16666667  0.38392857  1.0
  Al  Al193  1  0.33333333  0.50000000  0.38392857  1.0
  Al  Al194  1  0.33333333  0.83333333  0.38392857  1.0
  Al  Al195  1  0.66666667  0.16666667  0.38392857  1.0
  Al  Al196  1  0.66666667  0.50000000  0.38392857  1.0
  Al  Al197  1  0.66666667  0.83333333  0.38392857  1.0
  Ni  Ni198  1  0.16666667  0.08333333  0.36607143  1.0
  Ni  Ni199  1  0.16666667  0.41666667  0.36607143  1.0
  Ni  Ni200  1  0.16666667  0.75000000  0.36607143  1.0
  Ni  Ni201  1  0.50000000  0.08333333  0.36607143  1.0
  Ni  Ni202  1  0.50000000  0.41666667  0.36607143  1.0
  Ni  Ni203  1  0.50000000  0.75000000  0.36607143  1.0
  Ni  Ni204  1  0.83333333  0.08333333  0.36607143  1.0
  Ni  Ni205  1  0.83333333  0.41666667  0.36607143  1.0
  Ni  Ni206  1  0.83333333  0.75000000  0.36607143  1.0
  Ni  Ni207  1  0.16666667  0.25000000  0.40178571  1.0
  Ni  Ni208  1  0.16666667  0.58333333  0.40178571  1.0
  Ni  Ni209  1  0.16666667  0.91666667  0.40178571  1.0
  Ni  Ni210  1  0.50000000  0.25000000  0.40178571  1.0
  Ni  Ni211  1  0.50000000  0.58333333  0.40178571  1.0
  Ni  Ni212  1  0.50000000  0.91666667  0.40178571  1.0
  Ni  Ni213  1  0.83333333  0.25000000  0.40178571  1.0
  Ni  Ni214  1  0.83333333  0.58333333  0.40178571  1.0
  Ni  Ni215  1  0.83333333  0.91666667  0.40178571  1.0
