# generated using pymatgen
data_Ca4Ni
_symmetry_space_group_name_H-M   'P 1'
_cell_length_a   24.11089308
_cell_length_b   59.05938529
_cell_length_c   33.13725297
_cell_angle_alpha   101.42175366
_cell_angle_beta   90.00000000
_cell_angle_gamma   90.00000000
_symmetry_Int_Tables_number   1
_chemical_formula_structural   Ca4Ni
_chemical_formula_sum   'Ca432 Ni108'
_cell_volume   46252.12329012
_cell_formula_units_Z   108
loop_
 _symmetry_equiv_pos_site_id
 _symmetry_equiv_pos_as_xyz
  1  'x, y, z'
loop_
 _atom_site_type_symbol
 _atom_site_label
 _atom_site_symmetry_multiplicity
 _atom_site_fract_x
 _atom_site_fract_y
 _atom_site_fract_z
 _atom_site_occupancy
  Ca  Ca0  1  0.33333333  0.28970167  0.12565500  1.0
  Ca  Ca1  1  0.33333333  0.62303500  0.12565500  1.0
  Ca  Ca2  1  0.33333333  0.95636833  0.12565500  1.0
  Ca  Ca3  1  0.66666667  0.28970167  0.12565500  1.0
  Ca  Ca4  1  0.66666667  0.62303500  0.12565500  1.0
  Ca  Ca5  1  0.66666667  0.95636833  0.12565500  1.0
  Ca  Ca6  1  0.00000000  0.28970167  0.12565500  1.0
  Ca  Ca7  1  1.00000000  0.62303500  0.12565500  1.0
  Ca  Ca8  1  0.00000000  0.95636833  0.12565500  1.0
  Ca  Ca9  1  0.16666667  0.17065405  0.05422643  1.0
  Ca  Ca10  1  0.16666667  0.50398738  0.05422643  1.0
  Ca  Ca11  1  0.16666667  0.83732071  0.05422643  1.0
  Ca  Ca12  1  0.50000000  0.17065405  0.05422643  1.0
  Ca  Ca13  1  0.50000000  0.50398738  0.05422643  1.0
  Ca  Ca14  1  0.50000000  0.83732071  0.05422643  1.0
  Ca  Ca15  1  0.83333333  0.17065405  0.05422643  1.0
  Ca  Ca16  1  0.83333333  0.50398738  0.05422643  1.0
  Ca  Ca17  1  0.83333333  0.83732071  0.05422643  1.0
  Ca  Ca18  1  0.24694333  0.11331357  0.01982214  1.0
  Ca  Ca19  1  0.24694333  0.44664690  0.01982214  1.0
  Ca  Ca20  1  0.24694333  0.77998024  0.01982214  1.0
  Ca  Ca21  1  0.58027667  0.11331357  0.01982214  1.0
  Ca  Ca22  1  0.58027667  0.44664690  0.01982214  1.0
  Ca  Ca23  1  0.58027667  0.77998024  0.01982214  1.0
  Ca  Ca24  1  0.91361000  0.11331357  0.01982214  1.0
  Ca  Ca25  1  0.91361000  0.44664690  0.01982214  1.0
  Ca  Ca26  1  0.91361000  0.77998024  0.01982214  1.0
  Ca  Ca27  1  0.08027667  0.23236119  0.09125071  1.0
  Ca  Ca28  1  0.08027667  0.56569452  0.09125071  1.0
  Ca  Ca29  1  0.08027667  0.89902786  0.09125071  1.0
  Ca  Ca30  1  0.41361000  0.23236119  0.09125071  1.0
  Ca  Ca31  1  0.41361000  0.56569452  0.09125071  1.0
  Ca  Ca32  1  0.41361000  0.89902786  0.09125071  1.0
  Ca  Ca33  1  0.74694333  0.23236119  0.09125071  1.0
  Ca  Ca34  1  0.74694333  0.56569452  0.09125071  1.0
  Ca  Ca35  1  0.74694333  0.89902786  0.09125071  1.0
  Ca  Ca36  1  0.08639000  0.11331357  0.01982214  1.0
  Ca  Ca37  1  0.08639000  0.44664690  0.01982214  1.0
  Ca  Ca38  1  0.08639000  0.77998024  0.01982214  1.0
  Ca  Ca39  1  0.41972333  0.11331357  0.01982214  1.0
  Ca  Ca40  1  0.41972333  0.44664690  0.01982214  1.0
  Ca  Ca41  1  0.41972333  0.77998024  0.01982214  1.0
  Ca  Ca42  1  0.75305667  0.11331357  0.01982214  1.0
  Ca  Ca43  1  0.75305667  0.44664690  0.01982214  1.0
  Ca  Ca44  1  0.75305667  0.77998024  0.01982214  1.0
  Ca  Ca45  1  0.25305667  0.23236119  0.09125071  1.0
  Ca  Ca46  1  0.25305667  0.56569452  0.09125071  1.0
  Ca  Ca47  1  0.25305667  0.89902786  0.09125071  1.0
  Ca  Ca48  1  0.58639000  0.23236119  0.09125071  1.0
  Ca  Ca49  1  0.58639000  0.56569452  0.09125071  1.0
  Ca  Ca50  1  0.58639000  0.89902786  0.09125071  1.0
  Ca  Ca51  1  0.91972333  0.23236119  0.09125071  1.0
  Ca  Ca52  1  0.91972333  0.56569452  0.09125071  1.0
  Ca  Ca53  1  0.91972333  0.89902786  0.09125071  1.0
  Ca  Ca54  1  0.08639000  0.06438452  0.08863071  1.0
  Ca  Ca55  1  0.08639000  0.39771786  0.08863071  1.0
  Ca  Ca56  1  0.08639000  0.73105119  0.08863071  1.0
  Ca  Ca57  1  0.41972333  0.06438452  0.08863071  1.0
  Ca  Ca58  1  0.41972333  0.39771786  0.08863071  1.0
  Ca  Ca59  1  0.41972333  0.73105119  0.08863071  1.0
  Ca  Ca60  1  0.75305667  0.06438452  0.08863071  1.0
  Ca  Ca61  1  0.75305667  0.39771786  0.08863071  1.0
  Ca  Ca62  1  0.75305667  0.73105119  0.08863071  1.0
  Ca  Ca63  1  0.25305667  0.27867024  0.01720214  1.0
  Ca  Ca64  1  0.25305667  0.61200357  0.01720214  1.0
  Ca  Ca65  1  0.25305667  0.94533690  0.01720214  1.0
  Ca  Ca66  1  0.58639000  0.27867024  0.01720214  1.0
  Ca  Ca67  1  0.58639000  0.61200357  0.01720214  1.0
  Ca  Ca68  1  0.58639000  0.94533690  0.01720214  1.0
  Ca  Ca69  1  0.91972333  0.27867024  0.01720214  1.0
  Ca  Ca70  1  0.91972333  0.61200357  0.01720214  1.0
  Ca  Ca71  1  0.91972333  0.94533690  0.01720214  1.0
  Ca  Ca72  1  0.00000000  0.12609167  0.12565500  1.0
  Ca  Ca73  1  0.00000000  0.45942500  0.12565500  1.0
  Ca  Ca74  1  0.00000000  0.79275833  0.12565500  1.0
  Ca  Ca75  1  0.33333333  0.12609167  0.12565500  1.0
  Ca  Ca76  1  0.33333333  0.45942500  0.12565500  1.0
  Ca  Ca77  1  0.33333333  0.79275833  0.12565500  1.0
  Ca  Ca78  1  0.66666667  0.12609167  0.12565500  1.0
  Ca  Ca79  1  0.66666667  0.45942500  0.12565500  1.0
  Ca  Ca80  1  0.66666667  0.79275833  0.12565500  1.0
  Ca  Ca81  1  0.16666667  0.00704405  0.05422643  1.0
  Ca  Ca82  1  0.16666667  0.34037738  0.05422643  1.0
  Ca  Ca83  1  0.16666667  0.67371071  0.05422643  1.0
  Ca  Ca84  1  0.50000000  0.00704405  0.05422643  1.0
  Ca  Ca85  1  0.50000000  0.34037738  0.05422643  1.0
  Ca  Ca86  1  0.50000000  0.67371071  0.05422643  1.0
  Ca  Ca87  1  0.83333333  0.00704405  0.05422643  1.0
  Ca  Ca88  1  0.83333333  0.34037738  0.05422643  1.0
  Ca  Ca89  1  0.83333333  0.67371071  0.05422643  1.0
  Ca  Ca90  1  0.33333333  0.00573405  0.05160643  1.0
  Ca  Ca91  1  0.33333333  0.33906738  0.05160643  1.0
  Ca  Ca92  1  0.33333333  0.67240071  0.05160643  1.0
  Ca  Ca93  1  0.66666667  0.00573405  0.05160643  1.0
  Ca  Ca94  1  0.66666667  0.33906738  0.05160643  1.0
  Ca  Ca95  1  0.66666667  0.67240071  0.05160643  1.0
  Ca  Ca96  1  0.00000000  0.00573405  0.05160643  1.0
  Ca  Ca97  1  0.00000000  0.33906738  0.05160643  1.0
  Ca  Ca98  1  0.00000000  0.67240071  0.05160643  1.0
  Ca  Ca99  1  0.16666667  0.12478167  0.12303500  1.0
  Ca  Ca100  1  0.16666667  0.45811500  0.12303500  1.0
  Ca  Ca101  1  0.16666667  0.79144833  0.12303500  1.0
  Ca  Ca102  1  0.50000000  0.12478167  0.12303500  1.0
  Ca  Ca103  1  0.50000000  0.45811500  0.12303500  1.0
  Ca  Ca104  1  0.50000000  0.79144833  0.12303500  1.0
  Ca  Ca105  1  0.83333333  0.12478167  0.12303500  1.0
  Ca  Ca106  1  0.83333333  0.45811500  0.12303500  1.0
  Ca  Ca107  1  0.83333333  0.79144833  0.12303500  1.0
  Ca  Ca108  1  0.24694333  0.06438452  0.08863071  1.0
  Ca  Ca109  1  0.24694333  0.39771786  0.08863071  1.0
  Ca  Ca110  1  0.24694333  0.73105119  0.08863071  1.0
  Ca  Ca111  1  0.58027667  0.06438452  0.08863071  1.0
  Ca  Ca112  1  0.58027667  0.39771786  0.08863071  1.0
  Ca  Ca113  1  0.58027667  0.73105119  0.08863071  1.0
  Ca  Ca114  1  0.91361000  0.06438452  0.08863071  1.0
  Ca  Ca115  1  0.91361000  0.39771786  0.08863071  1.0
  Ca  Ca116  1  0.91361000  0.73105119  0.08863071  1.0
  Ca  Ca117  1  0.08027667  0.27867024  0.01720214  1.0
  Ca  Ca118  1  0.08027667  0.61200357  0.01720214  1.0
  Ca  Ca119  1  0.08027667  0.94533690  0.01720214  1.0
  Ca  Ca120  1  0.41361000  0.27867024  0.01720214  1.0
  Ca  Ca121  1  0.41361000  0.61200357  0.01720214  1.0
  Ca  Ca122  1  0.41361000  0.94533690  0.01720214  1.0
  Ca  Ca123  1  0.74694333  0.27867024  0.01720214  1.0
  Ca  Ca124  1  0.74694333  0.61200357  0.01720214  1.0
  Ca  Ca125  1  0.74694333  0.94533690  0.01720214  1.0
  Ca  Ca126  1  0.33333333  0.17196405  0.05684643  1.0
  Ca  Ca127  1  0.33333333  0.50529738  0.05684643  1.0
  Ca  Ca128  1  0.33333333  0.83863071  0.05684643  1.0
  Ca  Ca129  1  0.66666667  0.17196405  0.05684643  1.0
  Ca  Ca130  1  0.66666667  0.50529738  0.05684643  1.0
  Ca  Ca131  1  0.66666667  0.83863071  0.05684643  1.0
  Ca  Ca132  1  1.00000000  0.17196405  0.05684643  1.0
  Ca  Ca133  1  1.00000000  0.50529738  0.05684643  1.0
  Ca  Ca134  1  0.00000000  0.83863071  0.05684643  1.0
  Ca  Ca135  1  0.16666667  0.29101167  0.12827500  1.0
  Ca  Ca136  1  0.16666667  0.62434500  0.12827500  1.0
  Ca  Ca137  1  0.16666667  0.95767833  0.12827500  1.0
  Ca  Ca138  1  0.50000000  0.29101167  0.12827500  1.0
  Ca  Ca139  1  0.50000000  0.62434500  0.12827500  1.0
  Ca  Ca140  1  0.50000000  0.95767833  0.12827500  1.0
  Ca  Ca141  1  0.83333333  0.29101167  0.12827500  1.0
  Ca  Ca142  1  0.83333333  0.62434500  0.12827500  1.0
  Ca  Ca143  1  0.83333333  0.95767833  0.12827500  1.0
  Ca  Ca144  1  0.33333333  0.19446357  0.26851214  1.0
  Ca  Ca145  1  0.33333333  0.52779690  0.26851214  1.0
  Ca  Ca146  1  0.33333333  0.86113024  0.26851214  1.0
  Ca  Ca147  1  0.66666667  0.19446357  0.26851214  1.0
  Ca  Ca148  1  0.66666667  0.52779690  0.26851214  1.0
  Ca  Ca149  1  0.66666667  0.86113024  0.26851214  1.0
  Ca  Ca150  1  1.00000000  0.19446357  0.26851214  1.0
  Ca  Ca151  1  1.00000000  0.52779690  0.26851214  1.0
  Ca  Ca152  1  0.00000000  0.86113024  0.26851214  1.0
  Ca  Ca153  1  0.16666667  0.07541595  0.19708357  1.0
  Ca  Ca154  1  0.16666667  0.40874929  0.19708357  1.0
  Ca  Ca155  1  0.16666667  0.74208262  0.19708357  1.0
  Ca  Ca156  1  0.50000000  0.07541595  0.19708357  1.0
  Ca  Ca157  1  0.50000000  0.40874929  0.19708357  1.0
  Ca  Ca158  1  0.50000000  0.74208262  0.19708357  1.0
  Ca  Ca159  1  0.83333333  0.07541595  0.19708357  1.0
  Ca  Ca160  1  0.83333333  0.40874929  0.19708357  1.0
  Ca  Ca161  1  0.83333333  0.74208262  0.19708357  1.0
  Ca  Ca162  1  0.24694333  0.01807548  0.16267929  1.0
  Ca  Ca163  1  0.24694333  0.35140881  0.16267929  1.0
  Ca  Ca164  1  0.24694333  0.68474214  0.16267929  1.0
  Ca  Ca165  1  0.58027667  0.01807548  0.16267929  1.0
  Ca  Ca166  1  0.58027667  0.35140881  0.16267929  1.0
  Ca  Ca167  1  0.58027667  0.68474214  0.16267929  1.0
  Ca  Ca168  1  0.91361000  0.01807548  0.16267929  1.0
  Ca  Ca169  1  0.91361000  0.35140881  0.16267929  1.0
  Ca  Ca170  1  0.91361000  0.68474214  0.16267929  1.0
  Ca  Ca171  1  0.08027667  0.13712310  0.23410786  1.0
  Ca  Ca172  1  0.08027667  0.47045643  0.23410786  1.0
  Ca  Ca173  1  0.08027667  0.80378976  0.23410786  1.0
  Ca  Ca174  1  0.41361000  0.13712310  0.23410786  1.0
  Ca  Ca175  1  0.41361000  0.47045643  0.23410786  1.0
  Ca  Ca176  1  0.41361000  0.80378976  0.23410786  1.0
  Ca  Ca177  1  0.74694333  0.13712310  0.23410786  1.0
  Ca  Ca178  1  0.74694333  0.47045643  0.23410786  1.0
  Ca  Ca179  1  0.74694333  0.80378976  0.23410786  1.0
  Ca  Ca180  1  0.08639000  0.01807548  0.16267929  1.0
  Ca  Ca181  1  0.08639000  0.35140881  0.16267929  1.0
  Ca  Ca182  1  0.08639000  0.68474214  0.16267929  1.0
  Ca  Ca183  1  0.41972333  0.01807548  0.16267929  1.0
  Ca  Ca184  1  0.41972333  0.35140881  0.16267929  1.0
  Ca  Ca185  1  0.41972333  0.68474214  0.16267929  1.0
  Ca  Ca186  1  0.75305667  0.01807548  0.16267929  1.0
  Ca  Ca187  1  0.75305667  0.35140881  0.16267929  1.0
  Ca  Ca188  1  0.75305667  0.68474214  0.16267929  1.0
  Ca  Ca189  1  0.25305667  0.13712310  0.23410786  1.0
  Ca  Ca190  1  0.25305667  0.47045643  0.23410786  1.0
  Ca  Ca191  1  0.25305667  0.80378976  0.23410786  1.0
  Ca  Ca192  1  0.58639000  0.13712310  0.23410786  1.0
  Ca  Ca193  1  0.58639000  0.47045643  0.23410786  1.0
  Ca  Ca194  1  0.58639000  0.80378976  0.23410786  1.0
  Ca  Ca195  1  0.91972333  0.13712310  0.23410786  1.0
  Ca  Ca196  1  0.91972333  0.47045643  0.23410786  1.0
  Ca  Ca197  1  0.91972333  0.80378976  0.23410786  1.0
  Ca  Ca198  1  0.08639000  0.30247976  0.23148786  1.0
  Ca  Ca199  1  0.08639000  0.63581310  0.23148786  1.0
  Ca  Ca200  1  0.08639000  0.96914643  0.23148786  1.0
  Ca  Ca201  1  0.41972333  0.30247976  0.23148786  1.0
  Ca  Ca202  1  0.41972333  0.63581310  0.23148786  1.0
  Ca  Ca203  1  0.41972333  0.96914643  0.23148786  1.0
  Ca  Ca204  1  0.75305667  0.30247976  0.23148786  1.0
  Ca  Ca205  1  0.75305667  0.63581310  0.23148786  1.0
  Ca  Ca206  1  0.75305667  0.96914643  0.23148786  1.0
  Ca  Ca207  1  0.25305667  0.18343214  0.16005929  1.0
  Ca  Ca208  1  0.25305667  0.51676548  0.16005929  1.0
  Ca  Ca209  1  0.25305667  0.85009881  0.16005929  1.0
  Ca  Ca210  1  0.58639000  0.18343214  0.16005929  1.0
  Ca  Ca211  1  0.58639000  0.51676548  0.16005929  1.0
  Ca  Ca212  1  0.58639000  0.85009881  0.16005929  1.0
  Ca  Ca213  1  0.91972333  0.18343214  0.16005929  1.0
  Ca  Ca214  1  0.91972333  0.51676548  0.16005929  1.0
  Ca  Ca215  1  0.91972333  0.85009881  0.16005929  1.0
  Ca  Ca216  1  0.00000000  0.03085357  0.26851214  1.0
  Ca  Ca217  1  0.00000000  0.36418690  0.26851214  1.0
  Ca  Ca218  1  0.00000000  0.69752024  0.26851214  1.0
  Ca  Ca219  1  0.33333333  0.03085357  0.26851214  1.0
  Ca  Ca220  1  0.33333333  0.36418690  0.26851214  1.0
  Ca  Ca221  1  0.33333333  0.69752024  0.26851214  1.0
  Ca  Ca222  1  0.66666667  0.03085357  0.26851214  1.0
  Ca  Ca223  1  0.66666667  0.36418690  0.26851214  1.0
  Ca  Ca224  1  0.66666667  0.69752024  0.26851214  1.0
  Ca  Ca225  1  0.16666667  0.24513929  0.19708357  1.0
  Ca  Ca226  1  0.16666667  0.57847262  0.19708357  1.0
  Ca  Ca227  1  0.16666667  0.91180595  0.19708357  1.0
  Ca  Ca228  1  0.50000000  0.24513929  0.19708357  1.0
  Ca  Ca229  1  0.50000000  0.57847262  0.19708357  1.0
  Ca  Ca230  1  0.50000000  0.91180595  0.19708357  1.0
  Ca  Ca231  1  0.83333333  0.24513929  0.19708357  1.0
  Ca  Ca232  1  0.83333333  0.57847262  0.19708357  1.0
  Ca  Ca233  1  0.83333333  0.91180595  0.19708357  1.0
  Ca  Ca234  1  0.00000000  0.24382929  0.19446357  1.0
  Ca  Ca235  1  0.00000000  0.57716262  0.19446357  1.0
  Ca  Ca236  1  0.00000000  0.91049595  0.19446357  1.0
  Ca  Ca237  1  0.33333333  0.24382929  0.19446357  1.0
  Ca  Ca238  1  0.33333333  0.57716262  0.19446357  1.0
  Ca  Ca239  1  0.33333333  0.91049595  0.19446357  1.0
  Ca  Ca240  1  0.66666667  0.24382929  0.19446357  1.0
  Ca  Ca241  1  0.66666667  0.57716262  0.19446357  1.0
  Ca  Ca242  1  0.66666667  0.91049595  0.19446357  1.0
  Ca  Ca243  1  0.16666667  0.02954357  0.26589214  1.0
  Ca  Ca244  1  0.16666667  0.36287690  0.26589214  1.0
  Ca  Ca245  1  0.16666667  0.69621024  0.26589214  1.0
  Ca  Ca246  1  0.50000000  0.02954357  0.26589214  1.0
  Ca  Ca247  1  0.50000000  0.36287690  0.26589214  1.0
  Ca  Ca248  1  0.50000000  0.69621024  0.26589214  1.0
  Ca  Ca249  1  0.83333333  0.02954357  0.26589214  1.0
  Ca  Ca250  1  0.83333333  0.36287690  0.26589214  1.0
  Ca  Ca251  1  0.83333333  0.69621024  0.26589214  1.0
  Ca  Ca252  1  0.24694333  0.30247976  0.23148786  1.0
  Ca  Ca253  1  0.24694333  0.63581310  0.23148786  1.0
  Ca  Ca254  1  0.24694333  0.96914643  0.23148786  1.0
  Ca  Ca255  1  0.58027667  0.30247976  0.23148786  1.0
  Ca  Ca256  1  0.58027667  0.63581310  0.23148786  1.0
  Ca  Ca257  1  0.58027667  0.96914643  0.23148786  1.0
  Ca  Ca258  1  0.91361000  0.30247976  0.23148786  1.0
  Ca  Ca259  1  0.91361000  0.63581310  0.23148786  1.0
  Ca  Ca260  1  0.91361000  0.96914643  0.23148786  1.0
  Ca  Ca261  1  0.08027667  0.18343214  0.16005929  1.0
  Ca  Ca262  1  0.08027667  0.51676548  0.16005929  1.0
  Ca  Ca263  1  0.08027667  0.85009881  0.16005929  1.0
  Ca  Ca264  1  0.41361000  0.18343214  0.16005929  1.0
  Ca  Ca265  1  0.41361000  0.51676548  0.16005929  1.0
  Ca  Ca266  1  0.41361000  0.85009881  0.16005929  1.0
  Ca  Ca267  1  0.74694333  0.18343214  0.16005929  1.0
  Ca  Ca268  1  0.74694333  0.51676548  0.16005929  1.0
  Ca  Ca269  1  0.74694333  0.85009881  0.16005929  1.0
  Ca  Ca270  1  0.33333333  0.07672595  0.19970357  1.0
  Ca  Ca271  1  0.33333333  0.41005929  0.19970357  1.0
  Ca  Ca272  1  0.33333333  0.74339262  0.19970357  1.0
  Ca  Ca273  1  0.66666667  0.07672595  0.19970357  1.0
  Ca  Ca274  1  0.66666667  0.41005929  0.19970357  1.0
  Ca  Ca275  1  0.66666667  0.74339262  0.19970357  1.0
  Ca  Ca276  1  1.00000000  0.07672595  0.19970357  1.0
  Ca  Ca277  1  0.00000000  0.41005929  0.19970357  1.0
  Ca  Ca278  1  0.00000000  0.74339262  0.19970357  1.0
  Ca  Ca279  1  0.16666667  0.19577357  0.27113214  1.0
  Ca  Ca280  1  0.16666667  0.52910690  0.27113214  1.0
  Ca  Ca281  1  0.16666667  0.86244024  0.27113214  1.0
  Ca  Ca282  1  0.50000000  0.19577357  0.27113214  1.0
  Ca  Ca283  1  0.50000000  0.52910690  0.27113214  1.0
  Ca  Ca284  1  0.50000000  0.86244024  0.27113214  1.0
  Ca  Ca285  1  0.83333333  0.19577357  0.27113214  1.0
  Ca  Ca286  1  0.83333333  0.52910690  0.27113214  1.0
  Ca  Ca287  1  0.83333333  0.86244024  0.27113214  1.0
  Ca  Ca288  1  0.00000000  0.09922548  0.41136929  1.0
  Ca  Ca289  1  0.00000000  0.43255881  0.41136929  1.0
  Ca  Ca290  1  0.00000000  0.76589214  0.41136929  1.0
  Ca  Ca291  1  0.33333333  0.09922548  0.41136929  1.0
  Ca  Ca292  1  0.33333333  0.43255881  0.41136929  1.0
  Ca  Ca293  1  0.33333333  0.76589214  0.41136929  1.0
  Ca  Ca294  1  0.66666667  0.09922548  0.41136929  1.0
  Ca  Ca295  1  0.66666667  0.43255881  0.41136929  1.0
  Ca  Ca296  1  0.66666667  0.76589214  0.41136929  1.0
  Ca  Ca297  1  0.16666667  0.31351119  0.33994071  1.0
  Ca  Ca298  1  0.16666667  0.64684452  0.33994071  1.0
  Ca  Ca299  1  0.16666667  0.98017786  0.33994071  1.0
  Ca  Ca300  1  0.50000000  0.31351119  0.33994071  1.0
  Ca  Ca301  1  0.50000000  0.64684452  0.33994071  1.0
  Ca  Ca302  1  0.50000000  0.98017786  0.33994071  1.0
  Ca  Ca303  1  0.83333333  0.31351119  0.33994071  1.0
  Ca  Ca304  1  0.83333333  0.64684452  0.33994071  1.0
  Ca  Ca305  1  0.83333333  0.98017786  0.33994071  1.0
  Ca  Ca306  1  0.24694333  0.25617071  0.30553643  1.0
  Ca  Ca307  1  0.24694333  0.58950405  0.30553643  1.0
  Ca  Ca308  1  0.24694333  0.92283738  0.30553643  1.0
  Ca  Ca309  1  0.58027667  0.25617071  0.30553643  1.0
  Ca  Ca310  1  0.58027667  0.58950405  0.30553643  1.0
  Ca  Ca311  1  0.58027667  0.92283738  0.30553643  1.0
  Ca  Ca312  1  0.91361000  0.25617071  0.30553643  1.0
  Ca  Ca313  1  0.91361000  0.58950405  0.30553643  1.0
  Ca  Ca314  1  0.91361000  0.92283738  0.30553643  1.0
  Ca  Ca315  1  0.08027667  0.04188500  0.37696500  1.0
  Ca  Ca316  1  0.08027667  0.37521833  0.37696500  1.0
  Ca  Ca317  1  0.08027667  0.70855167  0.37696500  1.0
  Ca  Ca318  1  0.41361000  0.04188500  0.37696500  1.0
  Ca  Ca319  1  0.41361000  0.37521833  0.37696500  1.0
  Ca  Ca320  1  0.41361000  0.70855167  0.37696500  1.0
  Ca  Ca321  1  0.74694333  0.04188500  0.37696500  1.0
  Ca  Ca322  1  0.74694333  0.37521833  0.37696500  1.0
  Ca  Ca323  1  0.74694333  0.70855167  0.37696500  1.0
  Ca  Ca324  1  0.08639000  0.25617071  0.30553643  1.0
  Ca  Ca325  1  0.08639000  0.58950405  0.30553643  1.0
  Ca  Ca326  1  0.08639000  0.92283738  0.30553643  1.0
  Ca  Ca327  1  0.41972333  0.25617071  0.30553643  1.0
  Ca  Ca328  1  0.41972333  0.58950405  0.30553643  1.0
  Ca  Ca329  1  0.41972333  0.92283738  0.30553643  1.0
  Ca  Ca330  1  0.75305667  0.25617071  0.30553643  1.0
  Ca  Ca331  1  0.75305667  0.58950405  0.30553643  1.0
  Ca  Ca332  1  0.75305667  0.92283738  0.30553643  1.0
  Ca  Ca333  1  0.25305667  0.04188500  0.37696500  1.0
  Ca  Ca334  1  0.25305667  0.37521833  0.37696500  1.0
  Ca  Ca335  1  0.25305667  0.70855167  0.37696500  1.0
  Ca  Ca336  1  0.58639000  0.04188500  0.37696500  1.0
  Ca  Ca337  1  0.58639000  0.37521833  0.37696500  1.0
  Ca  Ca338  1  0.58639000  0.70855167  0.37696500  1.0
  Ca  Ca339  1  0.91972333  0.04188500  0.37696500  1.0
  Ca  Ca340  1  0.91972333  0.37521833  0.37696500  1.0
  Ca  Ca341  1  0.91972333  0.70855167  0.37696500  1.0
  Ca  Ca342  1  0.08639000  0.20724167  0.37434500  1.0
  Ca  Ca343  1  0.08639000  0.54057500  0.37434500  1.0
  Ca  Ca344  1  0.08639000  0.87390833  0.37434500  1.0
  Ca  Ca345  1  0.41972333  0.20724167  0.37434500  1.0
  Ca  Ca346  1  0.41972333  0.54057500  0.37434500  1.0
  Ca  Ca347  1  0.41972333  0.87390833  0.37434500  1.0
  Ca  Ca348  1  0.75305667  0.20724167  0.37434500  1.0
  Ca  Ca349  1  0.75305667  0.54057500  0.37434500  1.0
  Ca  Ca350  1  0.75305667  0.87390833  0.37434500  1.0
  Ca  Ca351  1  0.25305667  0.08819405  0.30291643  1.0
  Ca  Ca352  1  0.25305667  0.42152738  0.30291643  1.0
  Ca  Ca353  1  0.25305667  0.75486071  0.30291643  1.0
  Ca  Ca354  1  0.58639000  0.08819405  0.30291643  1.0
  Ca  Ca355  1  0.58639000  0.42152738  0.30291643  1.0
  Ca  Ca356  1  0.58639000  0.75486071  0.30291643  1.0
  Ca  Ca357  1  0.91972333  0.08819405  0.30291643  1.0
  Ca  Ca358  1  0.91972333  0.42152738  0.30291643  1.0
  Ca  Ca359  1  0.91972333  0.75486071  0.30291643  1.0
  Ca  Ca360  1  0.00000000  0.26894881  0.41136929  1.0
  Ca  Ca361  1  0.00000000  0.60228214  0.41136929  1.0
  Ca  Ca362  1  0.00000000  0.93561548  0.41136929  1.0
  Ca  Ca363  1  0.33333333  0.26894881  0.41136929  1.0
  Ca  Ca364  1  0.33333333  0.60228214  0.41136929  1.0
  Ca  Ca365  1  0.33333333  0.93561548  0.41136929  1.0
  Ca  Ca366  1  0.66666667  0.26894881  0.41136929  1.0
  Ca  Ca367  1  0.66666667  0.60228214  0.41136929  1.0
  Ca  Ca368  1  0.66666667  0.93561548  0.41136929  1.0
  Ca  Ca369  1  0.16666667  0.14990119  0.33994071  1.0
  Ca  Ca370  1  0.16666667  0.48323452  0.33994071  1.0
  Ca  Ca371  1  0.16666667  0.81656786  0.33994071  1.0
  Ca  Ca372  1  0.50000000  0.14990119  0.33994071  1.0
  Ca  Ca373  1  0.50000000  0.48323452  0.33994071  1.0
  Ca  Ca374  1  0.50000000  0.81656786  0.33994071  1.0
  Ca  Ca375  1  0.83333333  0.14990119  0.33994071  1.0
  Ca  Ca376  1  0.83333333  0.48323452  0.33994071  1.0
  Ca  Ca377  1  0.83333333  0.81656786  0.33994071  1.0
  Ca  Ca378  1  0.00000000  0.14859119  0.33732071  1.0
  Ca  Ca379  1  0.00000000  0.48192452  0.33732071  1.0
  Ca  Ca380  1  0.00000000  0.81525786  0.33732071  1.0
  Ca  Ca381  1  0.33333333  0.14859119  0.33732071  1.0
  Ca  Ca382  1  0.33333333  0.48192452  0.33732071  1.0
  Ca  Ca383  1  0.33333333  0.81525786  0.33732071  1.0
  Ca  Ca384  1  0.66666667  0.14859119  0.33732071  1.0
  Ca  Ca385  1  0.66666667  0.48192452  0.33732071  1.0
  Ca  Ca386  1  0.66666667  0.81525786  0.33732071  1.0
  Ca  Ca387  1  0.16666667  0.26763881  0.40874929  1.0
  Ca  Ca388  1  0.16666667  0.60097214  0.40874929  1.0
  Ca  Ca389  1  0.16666667  0.93430548  0.40874929  1.0
  Ca  Ca390  1  0.50000000  0.26763881  0.40874929  1.0
  Ca  Ca391  1  0.50000000  0.60097214  0.40874929  1.0
  Ca  Ca392  1  0.50000000  0.93430548  0.40874929  1.0
  Ca  Ca393  1  0.83333333  0.26763881  0.40874929  1.0
  Ca  Ca394  1  0.83333333  0.60097214  0.40874929  1.0
  Ca  Ca395  1  0.83333333  0.93430548  0.40874929  1.0
  Ca  Ca396  1  0.24694333  0.20724167  0.37434500  1.0
  Ca  Ca397  1  0.24694333  0.54057500  0.37434500  1.0
  Ca  Ca398  1  0.24694333  0.87390833  0.37434500  1.0
  Ca  Ca399  1  0.58027667  0.20724167  0.37434500  1.0
  Ca  Ca400  1  0.58027667  0.54057500  0.37434500  1.0
  Ca  Ca401  1  0.58027667  0.87390833  0.37434500  1.0
  Ca  Ca402  1  0.91361000  0.20724167  0.37434500  1.0
  Ca  Ca403  1  0.91361000  0.54057500  0.37434500  1.0
  Ca  Ca404  1  0.91361000  0.87390833  0.37434500  1.0
  Ca  Ca405  1  0.08027667  0.08819405  0.30291643  1.0
  Ca  Ca406  1  0.08027667  0.42152738  0.30291643  1.0
  Ca  Ca407  1  0.08027667  0.75486071  0.30291643  1.0
  Ca  Ca408  1  0.41361000  0.08819405  0.30291643  1.0
  Ca  Ca409  1  0.41361000  0.42152738  0.30291643  1.0
  Ca  Ca410  1  0.41361000  0.75486071  0.30291643  1.0
  Ca  Ca411  1  0.74694333  0.08819405  0.30291643  1.0
  Ca  Ca412  1  0.74694333  0.42152738  0.30291643  1.0
  Ca  Ca413  1  0.74694333  0.75486071  0.30291643  1.0
  Ca  Ca414  1  0.33333333  0.31482119  0.34256071  1.0
  Ca  Ca415  1  0.33333333  0.64815452  0.34256071  1.0
  Ca  Ca416  1  0.33333333  0.98148786  0.34256071  1.0
  Ca  Ca417  1  0.66666667  0.31482119  0.34256071  1.0
  Ca  Ca418  1  0.66666667  0.64815452  0.34256071  1.0
  Ca  Ca419  1  0.66666667  0.98148786  0.34256071  1.0
  Ca  Ca420  1  0.00000000  0.31482119  0.34256071  1.0
  Ca  Ca421  1  1.00000000  0.64815452  0.34256071  1.0
  Ca  Ca422  1  0.00000000  0.98148786  0.34256071  1.0
  Ca  Ca423  1  0.16666667  0.10053548  0.41398929  1.0
  Ca  Ca424  1  0.16666667  0.43386881  0.41398929  1.0
  Ca  Ca425  1  0.16666667  0.76720214  0.41398929  1.0
  Ca  Ca426  1  0.50000000  0.10053548  0.41398929  1.0
  Ca  Ca427  1  0.50000000  0.43386881  0.41398929  1.0
  Ca  Ca428  1  0.50000000  0.76720214  0.41398929  1.0
  Ca  Ca429  1  0.83333333  0.10053548  0.41398929  1.0
  Ca  Ca430  1  0.83333333  0.43386881  0.41398929  1.0
  Ca  Ca431  1  0.83333333  0.76720214  0.41398929  1.0
  Ni  Ni432  1  0.00000000  0.08289667  0.12565500  1.0
  Ni  Ni433  1  0.00000000  0.41623000  0.12565500  1.0
  Ni  Ni434  1  0.00000000  0.74956333  0.12565500  1.0
  Ni  Ni435  1  0.33333333  0.08289667  0.12565500  1.0
  Ni  Ni436  1  0.33333333  0.41623000  0.12565500  1.0
  Ni  Ni437  1  0.33333333  0.74956333  0.12565500  1.0
  Ni  Ni438  1  0.66666667  0.08289667  0.12565500  1.0
  Ni  Ni439  1  0.66666667  0.41623000  0.12565500  1.0
  Ni  Ni440  1  0.66666667  0.74956333  0.12565500  1.0
  Ni  Ni441  1  0.16666667  0.29718238  0.05422643  1.0
  Ni  Ni442  1  0.16666667  0.63051571  0.05422643  1.0
  Ni  Ni443  1  0.16666667  0.96384905  0.05422643  1.0
  Ni  Ni444  1  0.50000000  0.29718238  0.05422643  1.0
  Ni  Ni445  1  0.50000000  0.63051571  0.05422643  1.0
  Ni  Ni446  1  0.50000000  0.96384905  0.05422643  1.0
  Ni  Ni447  1  0.83333333  0.29718238  0.05422643  1.0
  Ni  Ni448  1  0.83333333  0.63051571  0.05422643  1.0
  Ni  Ni449  1  0.83333333  0.96384905  0.05422643  1.0
  Ni  Ni450  1  0.00000000  0.33289667  0.12565500  1.0
  Ni  Ni451  1  0.00000000  0.66623000  0.12565500  1.0
  Ni  Ni452  1  0.00000000  0.99956333  0.12565500  1.0
  Ni  Ni453  1  0.33333333  0.33289667  0.12565500  1.0
  Ni  Ni454  1  0.33333333  0.66623000  0.12565500  1.0
  Ni  Ni455  1  0.33333333  0.99956333  0.12565500  1.0
  Ni  Ni456  1  0.66666667  0.33289667  0.12565500  1.0
  Ni  Ni457  1  0.66666667  0.66623000  0.12565500  1.0
  Ni  Ni458  1  0.66666667  0.99956333  0.12565500  1.0
  Ni  Ni459  1  0.16666667  0.21384905  0.05422643  1.0
  Ni  Ni460  1  0.16666667  0.54718238  0.05422643  1.0
  Ni  Ni461  1  0.16666667  0.88051571  0.05422643  1.0
  Ni  Ni462  1  0.50000000  0.21384905  0.05422643  1.0
  Ni  Ni463  1  0.50000000  0.54718238  0.05422643  1.0
  Ni  Ni464  1  0.50000000  0.88051571  0.05422643  1.0
  Ni  Ni465  1  0.83333333  0.21384905  0.05422643  1.0
  Ni  Ni466  1  0.83333333  0.54718238  0.05422643  1.0
  Ni  Ni467  1  0.83333333  0.88051571  0.05422643  1.0
  Ni  Ni468  1  0.00000000  0.32099190  0.26851214  1.0
  Ni  Ni469  1  0.00000000  0.65432524  0.26851214  1.0
  Ni  Ni470  1  0.00000000  0.98765857  0.26851214  1.0
  Ni  Ni471  1  0.33333333  0.32099190  0.26851214  1.0
  Ni  Ni472  1  0.33333333  0.65432524  0.26851214  1.0
  Ni  Ni473  1  0.33333333  0.98765857  0.26851214  1.0
  Ni  Ni474  1  0.66666667  0.32099190  0.26851214  1.0
  Ni  Ni475  1  0.66666667  0.65432524  0.26851214  1.0
  Ni  Ni476  1  0.66666667  0.98765857  0.26851214  1.0
  Ni  Ni477  1  0.16666667  0.20194429  0.19708357  1.0
  Ni  Ni478  1  0.16666667  0.53527762  0.19708357  1.0
  Ni  Ni479  1  0.16666667  0.86861095  0.19708357  1.0
  Ni  Ni480  1  0.50000000  0.20194429  0.19708357  1.0
  Ni  Ni481  1  0.50000000  0.53527762  0.19708357  1.0
  Ni  Ni482  1  0.50000000  0.86861095  0.19708357  1.0
  Ni  Ni483  1  0.83333333  0.20194429  0.19708357  1.0
  Ni  Ni484  1  0.83333333  0.53527762  0.19708357  1.0
  Ni  Ni485  1  0.83333333  0.86861095  0.19708357  1.0
  Ni  Ni486  1  0.00000000  0.23765857  0.26851214  1.0
  Ni  Ni487  1  0.00000000  0.57099190  0.26851214  1.0
  Ni  Ni488  1  0.00000000  0.90432524  0.26851214  1.0
  Ni  Ni489  1  0.33333333  0.23765857  0.26851214  1.0
  Ni  Ni490  1  0.33333333  0.57099190  0.26851214  1.0
  Ni  Ni491  1  0.33333333  0.90432524  0.26851214  1.0
  Ni  Ni492  1  0.66666667  0.23765857  0.26851214  1.0
  Ni  Ni493  1  0.66666667  0.57099190  0.26851214  1.0
  Ni  Ni494  1  0.66666667  0.90432524  0.26851214  1.0
  Ni  Ni495  1  0.16666667  0.11861095  0.19708357  1.0
  Ni  Ni496  1  0.16666667  0.45194429  0.19708357  1.0
  Ni  Ni497  1  0.16666667  0.78527762  0.19708357  1.0
  Ni  Ni498  1  0.50000000  0.11861095  0.19708357  1.0
  Ni  Ni499  1  0.50000000  0.45194429  0.19708357  1.0
  Ni  Ni500  1  0.50000000  0.78527762  0.19708357  1.0
  Ni  Ni501  1  0.83333333  0.11861095  0.19708357  1.0
  Ni  Ni502  1  0.83333333  0.45194429  0.19708357  1.0
  Ni  Ni503  1  0.83333333  0.78527762  0.19708357  1.0
  Ni  Ni504  1  0.00000000  0.22575381  0.41136929  1.0
  Ni  Ni505  1  0.00000000  0.55908714  0.41136929  1.0
  Ni  Ni506  1  0.00000000  0.89242048  0.41136929  1.0
  Ni  Ni507  1  0.33333333  0.22575381  0.41136929  1.0
  Ni  Ni508  1  0.33333333  0.55908714  0.41136929  1.0
  Ni  Ni509  1  0.33333333  0.89242048  0.41136929  1.0
  Ni  Ni510  1  0.66666667  0.22575381  0.41136929  1.0
  Ni  Ni511  1  0.66666667  0.55908714  0.41136929  1.0
  Ni  Ni512  1  0.66666667  0.89242048  0.41136929  1.0
  Ni  Ni513  1  0.16666667  0.10670619  0.33994071  1.0
  Ni  Ni514  1  0.16666667  0.44003952  0.33994071  1.0
  Ni  Ni515  1  0.16666667  0.77337286  0.33994071  1.0
  Ni  Ni516  1  0.50000000  0.10670619  0.33994071  1.0
  Ni  Ni517  1  0.50000000  0.44003952  0.33994071  1.0
  Ni  Ni518  1  0.50000000  0.77337286  0.33994071  1.0
  Ni  Ni519  1  0.83333333  0.10670619  0.33994071  1.0
  Ni  Ni520  1  0.83333333  0.44003952  0.33994071  1.0
  Ni  Ni521  1  0.83333333  0.77337286  0.33994071  1.0
  Ni  Ni522  1  0.00000000  0.14242048  0.41136929  1.0
  Ni  Ni523  1  0.00000000  0.47575381  0.41136929  1.0
  Ni  Ni524  1  0.00000000  0.80908714  0.41136929  1.0
  Ni  Ni525  1  0.33333333  0.14242048  0.41136929  1.0
  Ni  Ni526  1  0.33333333  0.47575381  0.41136929  1.0
  Ni  Ni527  1  0.33333333  0.80908714  0.41136929  1.0
  Ni  Ni528  1  0.66666667  0.14242048  0.41136929  1.0
  Ni  Ni529  1  0.66666667  0.47575381  0.41136929  1.0
  Ni  Ni530  1  0.66666667  0.80908714  0.41136929  1.0
  Ni  Ni531  1  0.16666667  0.02337286  0.33994071  1.0
  Ni  Ni532  1  0.16666667  0.35670619  0.33994071  1.0
  Ni  Ni533  1  0.16666667  0.69003952  0.33994071  1.0
  Ni  Ni534  1  0.50000000  0.02337286  0.33994071  1.0
  Ni  Ni535  1  0.50000000  0.35670619  0.33994071  1.0
  Ni  Ni536  1  0.50000000  0.69003952  0.33994071  1.0
  Ni  Ni537  1  0.83333333  0.02337286  0.33994071  1.0
  Ni  Ni538  1  0.83333333  0.35670619  0.33994071  1.0
  Ni  Ni539  1  0.83333333  0.69003952  0.33994071  1.0
