# generated using pymatgen
data_Ca4Ni
_symmetry_space_group_name_H-M   'P 1'
_cell_length_a   24.11089308
_cell_length_b   24.11089308
_cell_length_c   40.18482180
_cell_angle_alpha   90.00000000
_cell_angle_beta   60.00000000
_cell_angle_gamma   60.00000000
_symmetry_Int_Tables_number   1
_chemical_formula_structural   Ca4Ni
_chemical_formula_sum   'Ca144 Ni36'
_cell_volume   16518.61546076
_cell_formula_units_Z   36
loop_
 _symmetry_equiv_pos_site_id
 _symmetry_equiv_pos_as_xyz
  1  'x, y, z'
loop_
 _atom_site_type_symbol
 _atom_site_label
 _atom_site_symmetry_multiplicity
 _atom_site_fract_x
 _atom_site_fract_y
 _atom_site_fract_z
 _atom_site_occupancy
  Ca  Ca0  1  0.08027667  0.29319500  0.09070950  1.0
  Ca  Ca1  1  0.08027667  0.62652833  0.09070950  1.0
  Ca  Ca2  1  0.08027667  0.95986167  0.09070950  1.0
  Ca  Ca3  1  0.41361000  0.29319500  0.09070950  1.0
  Ca  Ca4  1  0.41361000  0.62652833  0.09070950  1.0
  Ca  Ca5  1  0.41361000  0.95986167  0.09070950  1.0
  Ca  Ca6  1  0.74694333  0.29319500  0.09070950  1.0
  Ca  Ca7  1  0.74694333  0.62652833  0.09070950  1.0
  Ca  Ca8  1  0.74694333  0.95986167  0.09070950  1.0
  Ca  Ca9  1  0.25305667  0.12041500  0.18704150  1.0
  Ca  Ca10  1  0.25305667  0.45374833  0.18704150  1.0
  Ca  Ca11  1  0.25305667  0.78708167  0.18704150  1.0
  Ca  Ca12  1  0.58639000  0.12041500  0.18704150  1.0
  Ca  Ca13  1  0.58639000  0.45374833  0.18704150  1.0
  Ca  Ca14  1  0.58639000  0.78708167  0.18704150  1.0
  Ca  Ca15  1  0.91972333  0.12041500  0.18704150  1.0
  Ca  Ca16  1  0.91972333  0.45374833  0.18704150  1.0
  Ca  Ca17  1  0.91972333  0.78708167  0.18704150  1.0
  Ca  Ca18  1  0.08027667  0.29319500  0.18704150  1.0
  Ca  Ca19  1  0.08027667  0.62652833  0.18704150  1.0
  Ca  Ca20  1  0.08027667  0.95986167  0.18704150  1.0
  Ca  Ca21  1  0.41361000  0.29319500  0.18704150  1.0
  Ca  Ca22  1  0.41361000  0.62652833  0.18704150  1.0
  Ca  Ca23  1  0.41361000  0.95986167  0.18704150  1.0
  Ca  Ca24  1  0.74694333  0.29319500  0.18704150  1.0
  Ca  Ca25  1  0.74694333  0.62652833  0.18704150  1.0
  Ca  Ca26  1  0.74694333  0.95986167  0.18704150  1.0
  Ca  Ca27  1  0.24694333  0.29625167  0.08887550  1.0
  Ca  Ca28  1  0.24694333  0.62958500  0.08887550  1.0
  Ca  Ca29  1  0.24694333  0.96291833  0.08887550  1.0
  Ca  Ca30  1  0.58027667  0.29625167  0.08887550  1.0
  Ca  Ca31  1  0.58027667  0.62958500  0.08887550  1.0
  Ca  Ca32  1  0.58027667  0.96291833  0.08887550  1.0
  Ca  Ca33  1  0.91361000  0.29625167  0.08887550  1.0
  Ca  Ca34  1  0.91361000  0.62958500  0.08887550  1.0
  Ca  Ca35  1  0.91361000  0.96291833  0.08887550  1.0
  Ca  Ca36  1  0.08639000  0.12347167  0.18520750  1.0
  Ca  Ca37  1  0.08639000  0.45680500  0.18520750  1.0
  Ca  Ca38  1  0.08639000  0.79013833  0.18520750  1.0
  Ca  Ca39  1  0.41972333  0.12347167  0.18520750  1.0
  Ca  Ca40  1  0.41972333  0.45680500  0.18520750  1.0
  Ca  Ca41  1  0.41972333  0.79013833  0.18520750  1.0
  Ca  Ca42  1  0.75305667  0.12347167  0.18520750  1.0
  Ca  Ca43  1  0.75305667  0.45680500  0.18520750  1.0
  Ca  Ca44  1  0.75305667  0.79013833  0.18520750  1.0
  Ca  Ca45  1  0.25305667  0.29319500  0.18704150  1.0
  Ca  Ca46  1  0.25305667  0.62652833  0.18704150  1.0
  Ca  Ca47  1  0.25305667  0.95986167  0.18704150  1.0
  Ca  Ca48  1  0.58639000  0.29319500  0.18704150  1.0
  Ca  Ca49  1  0.58639000  0.62652833  0.18704150  1.0
  Ca  Ca50  1  0.58639000  0.95986167  0.18704150  1.0
  Ca  Ca51  1  0.91972333  0.29319500  0.18704150  1.0
  Ca  Ca52  1  0.91972333  0.62652833  0.18704150  1.0
  Ca  Ca53  1  0.91972333  0.95986167  0.18704150  1.0
  Ca  Ca54  1  0.08639000  0.12347167  0.08887550  1.0
  Ca  Ca55  1  0.08639000  0.45680500  0.08887550  1.0
  Ca  Ca56  1  0.08639000  0.79013833  0.08887550  1.0
  Ca  Ca57  1  0.41972333  0.12347167  0.08887550  1.0
  Ca  Ca58  1  0.41972333  0.45680500  0.08887550  1.0
  Ca  Ca59  1  0.41972333  0.79013833  0.08887550  1.0
  Ca  Ca60  1  0.75305667  0.12347167  0.08887550  1.0
  Ca  Ca61  1  0.75305667  0.45680500  0.08887550  1.0
  Ca  Ca62  1  0.75305667  0.79013833  0.08887550  1.0
  Ca  Ca63  1  0.24694333  0.12347167  0.08887550  1.0
  Ca  Ca64  1  0.24694333  0.45680500  0.08887550  1.0
  Ca  Ca65  1  0.24694333  0.79013833  0.08887550  1.0
  Ca  Ca66  1  0.58027667  0.12347167  0.08887550  1.0
  Ca  Ca67  1  0.58027667  0.45680500  0.08887550  1.0
  Ca  Ca68  1  0.58027667  0.79013833  0.08887550  1.0
  Ca  Ca69  1  0.91361000  0.12347167  0.08887550  1.0
  Ca  Ca70  1  0.91361000  0.45680500  0.08887550  1.0
  Ca  Ca71  1  0.91361000  0.79013833  0.08887550  1.0
  Ni  Ni72  1  0.00000000  0.16666667  0.06295850  1.0
  Ni  Ni73  1  0.00000000  0.50000000  0.06295850  1.0
  Ni  Ni74  1  0.00000000  0.83333333  0.06295850  1.0
  Ni  Ni75  1  0.33333333  0.16666667  0.06295850  1.0
  Ni  Ni76  1  0.33333333  0.50000000  0.06295850  1.0
  Ni  Ni77  1  0.33333333  0.83333333  0.06295850  1.0
  Ni  Ni78  1  0.66666667  0.16666667  0.06295850  1.0
  Ni  Ni79  1  0.66666667  0.50000000  0.06295850  1.0
  Ni  Ni80  1  0.66666667  0.83333333  0.06295850  1.0
  Ni  Ni81  1  0.16666667  0.25000000  0.01295850  1.0
  Ni  Ni82  1  0.16666667  0.58333333  0.01295850  1.0
  Ni  Ni83  1  0.16666667  0.91666667  0.01295850  1.0
  Ni  Ni84  1  0.50000000  0.25000000  0.01295850  1.0
  Ni  Ni85  1  0.50000000  0.58333333  0.01295850  1.0
  Ni  Ni86  1  0.50000000  0.91666667  0.01295850  1.0
  Ni  Ni87  1  0.83333333  0.25000000  0.01295850  1.0
  Ni  Ni88  1  0.83333333  0.58333333  0.01295850  1.0
  Ni  Ni89  1  0.83333333  0.91666667  0.01295850  1.0
  Ca  Ca90  1  0.08027667  0.29319500  0.29070950  1.0
  Ca  Ca91  1  0.08027667  0.62652833  0.29070950  1.0
  Ca  Ca92  1  0.08027667  0.95986167  0.29070950  1.0
  Ca  Ca93  1  0.41361000  0.29319500  0.29070950  1.0
  Ca  Ca94  1  0.41361000  0.62652833  0.29070950  1.0
  Ca  Ca95  1  0.41361000  0.95986167  0.29070950  1.0
  Ca  Ca96  1  0.74694333  0.29319500  0.29070950  1.0
  Ca  Ca97  1  0.74694333  0.62652833  0.29070950  1.0
  Ca  Ca98  1  0.74694333  0.95986167  0.29070950  1.0
  Ca  Ca99  1  0.25305667  0.12041500  0.38704150  1.0
  Ca  Ca100  1  0.25305667  0.45374833  0.38704150  1.0
  Ca  Ca101  1  0.25305667  0.78708167  0.38704150  1.0
  Ca  Ca102  1  0.58639000  0.12041500  0.38704150  1.0
  Ca  Ca103  1  0.58639000  0.45374833  0.38704150  1.0
  Ca  Ca104  1  0.58639000  0.78708167  0.38704150  1.0
  Ca  Ca105  1  0.91972333  0.12041500  0.38704150  1.0
  Ca  Ca106  1  0.91972333  0.45374833  0.38704150  1.0
  Ca  Ca107  1  0.91972333  0.78708167  0.38704150  1.0
  Ca  Ca108  1  0.08027667  0.29319500  0.38704150  1.0
  Ca  Ca109  1  0.08027667  0.62652833  0.38704150  1.0
  Ca  Ca110  1  0.08027667  0.95986167  0.38704150  1.0
  Ca  Ca111  1  0.41361000  0.29319500  0.38704150  1.0
  Ca  Ca112  1  0.41361000  0.62652833  0.38704150  1.0
  Ca  Ca113  1  0.41361000  0.95986167  0.38704150  1.0
  Ca  Ca114  1  0.74694333  0.29319500  0.38704150  1.0
  Ca  Ca115  1  0.74694333  0.62652833  0.38704150  1.0
  Ca  Ca116  1  0.74694333  0.95986167  0.38704150  1.0
  Ca  Ca117  1  0.24694333  0.29625167  0.28887550  1.0
  Ca  Ca118  1  0.24694333  0.62958500  0.28887550  1.0
  Ca  Ca119  1  0.24694333  0.96291833  0.28887550  1.0
  Ca  Ca120  1  0.58027667  0.29625167  0.28887550  1.0
  Ca  Ca121  1  0.58027667  0.62958500  0.28887550  1.0
  Ca  Ca122  1  0.58027667  0.96291833  0.28887550  1.0
  Ca  Ca123  1  0.91361000  0.29625167  0.28887550  1.0
  Ca  Ca124  1  0.91361000  0.62958500  0.28887550  1.0
  Ca  Ca125  1  0.91361000  0.96291833  0.28887550  1.0
  Ca  Ca126  1  0.08639000  0.12347167  0.38520750  1.0
  Ca  Ca127  1  0.08639000  0.45680500  0.38520750  1.0
  Ca  Ca128  1  0.08639000  0.79013833  0.38520750  1.0
  Ca  Ca129  1  0.41972333  0.12347167  0.38520750  1.0
  Ca  Ca130  1  0.41972333  0.45680500  0.38520750  1.0
  Ca  Ca131  1  0.41972333  0.79013833  0.38520750  1.0
  Ca  Ca132  1  0.75305667  0.12347167  0.38520750  1.0
  Ca  Ca133  1  0.75305667  0.45680500  0.38520750  1.0
  Ca  Ca134  1  0.75305667  0.79013833  0.38520750  1.0
  Ca  Ca135  1  0.25305667  0.29319500  0.38704150  1.0
  Ca  Ca136  1  0.25305667  0.62652833  0.38704150  1.0
  Ca  Ca137  1  0.25305667  0.95986167  0.38704150  1.0
  Ca  Ca138  1  0.58639000  0.29319500  0.38704150  1.0
  Ca  Ca139  1  0.58639000  0.62652833  0.38704150  1.0
  Ca  Ca140  1  0.58639000  0.95986167  0.38704150  1.0
  Ca  Ca141  1  0.91972333  0.29319500  0.38704150  1.0
  Ca  Ca142  1  0.91972333  0.62652833  0.38704150  1.0
  Ca  Ca143  1  0.91972333  0.95986167  0.38704150  1.0
  Ca  Ca144  1  0.08639000  0.12347167  0.28887550  1.0
  Ca  Ca145  1  0.08639000  0.45680500  0.28887550  1.0
  Ca  Ca146  1  0.08639000  0.79013833  0.28887550  1.0
  Ca  Ca147  1  0.41972333  0.12347167  0.28887550  1.0
  Ca  Ca148  1  0.41972333  0.45680500  0.28887550  1.0
  Ca  Ca149  1  0.41972333  0.79013833  0.28887550  1.0
  Ca  Ca150  1  0.75305667  0.12347167  0.28887550  1.0
  Ca  Ca151  1  0.75305667  0.45680500  0.28887550  1.0
  Ca  Ca152  1  0.75305667  0.79013833  0.28887550  1.0
  Ca  Ca153  1  0.24694333  0.12347167  0.28887550  1.0
  Ca  Ca154  1  0.24694333  0.45680500  0.28887550  1.0
  Ca  Ca155  1  0.24694333  0.79013833  0.28887550  1.0
  Ca  Ca156  1  0.58027667  0.12347167  0.28887550  1.0
  Ca  Ca157  1  0.58027667  0.45680500  0.28887550  1.0
  Ca  Ca158  1  0.58027667  0.79013833  0.28887550  1.0
  Ca  Ca159  1  0.91361000  0.12347167  0.28887550  1.0
  Ca  Ca160  1  0.91361000  0.45680500  0.28887550  1.0
  Ca  Ca161  1  0.91361000  0.79013833  0.28887550  1.0
  Ni  Ni162  1  0.00000000  0.16666667  0.26295850  1.0
  Ni  Ni163  1  0.00000000  0.50000000  0.26295850  1.0
  Ni  Ni164  1  0.00000000  0.83333333  0.26295850  1.0
  Ni  Ni165  1  0.33333333  0.16666667  0.26295850  1.0
  Ni  Ni166  1  0.33333333  0.50000000  0.26295850  1.0
  Ni  Ni167  1  0.33333333  0.83333333  0.26295850  1.0
  Ni  Ni168  1  0.66666667  0.16666667  0.26295850  1.0
  Ni  Ni169  1  0.66666667  0.50000000  0.26295850  1.0
  Ni  Ni170  1  0.66666667  0.83333333  0.26295850  1.0
  Ni  Ni171  1  0.16666667  0.25000000  0.21295850  1.0
  Ni  Ni172  1  0.16666667  0.58333333  0.21295850  1.0
  Ni  Ni173  1  0.16666667  0.91666667  0.21295850  1.0
  Ni  Ni174  1  0.50000000  0.25000000  0.21295850  1.0
  Ni  Ni175  1  0.50000000  0.58333333  0.21295850  1.0
  Ni  Ni176  1  0.50000000  0.91666667  0.21295850  1.0
  Ni  Ni177  1  0.83333333  0.25000000  0.21295850  1.0
  Ni  Ni178  1  0.83333333  0.58333333  0.21295850  1.0
  Ni  Ni179  1  0.83333333  0.91666667  0.21295850  1.0
