# generated using pymatgen
data_Ca4Ni
_symmetry_space_group_name_H-M   'P 1'
_cell_length_a   24.11089308
_cell_length_b   34.09795199
_cell_length_c   32.14785744
_cell_angle_alpha   90.00000000
_cell_angle_beta   90.00000000
_cell_angle_gamma   90.00000000
_symmetry_Int_Tables_number   1
_chemical_formula_structural   Ca4Ni
_chemical_formula_sum   'Ca288 Ni72'
_cell_volume   26429.78473721
_cell_formula_units_Z   72
loop_
 _symmetry_equiv_pos_site_id
 _symmetry_equiv_pos_as_xyz
  1  'x, y, z'
loop_
 _atom_site_type_symbol
 _atom_site_label
 _atom_site_symmetry_multiplicity
 _atom_site_fract_x
 _atom_site_fract_y
 _atom_site_fract_z
 _atom_site_occupancy
  Ca  Ca0  1  0.33333333  0.29319500  0.84031125  1.0
  Ca  Ca1  1  0.33333333  0.62652833  0.84031125  1.0
  Ca  Ca2  1  0.33333333  0.95986167  0.84031125  1.0
  Ca  Ca3  1  0.66666667  0.29319500  0.84031125  1.0
  Ca  Ca4  1  0.66666667  0.62652833  0.84031125  1.0
  Ca  Ca5  1  0.66666667  0.95986167  0.84031125  1.0
  Ca  Ca6  1  1.00000000  0.29319500  0.84031125  1.0
  Ca  Ca7  1  1.00000000  0.62652833  0.84031125  1.0
  Ca  Ca8  1  1.00000000  0.95986167  0.84031125  1.0
  Ca  Ca9  1  0.16666667  0.12652833  0.96531125  1.0
  Ca  Ca10  1  0.16666667  0.45986167  0.96531125  1.0
  Ca  Ca11  1  0.16666667  0.79319500  0.96531125  1.0
  Ca  Ca12  1  0.50000000  0.12652833  0.96531125  1.0
  Ca  Ca13  1  0.50000000  0.45986167  0.96531125  1.0
  Ca  Ca14  1  0.50000000  0.79319500  0.96531125  1.0
  Ca  Ca15  1  0.83333333  0.12652833  0.96531125  1.0
  Ca  Ca16  1  0.83333333  0.45986167  0.96531125  1.0
  Ca  Ca17  1  0.83333333  0.79319500  0.96531125  1.0
  Ca  Ca18  1  0.24694333  0.20680500  0.90510375  1.0
  Ca  Ca19  1  0.24694333  0.54013833  0.90510375  1.0
  Ca  Ca20  1  0.24694333  0.87347167  0.90510375  1.0
  Ca  Ca21  1  0.58027667  0.20680500  0.90510375  1.0
  Ca  Ca22  1  0.58027667  0.54013833  0.90510375  1.0
  Ca  Ca23  1  0.58027667  0.87347167  0.90510375  1.0
  Ca  Ca24  1  0.91361000  0.20680500  0.90510375  1.0
  Ca  Ca25  1  0.91361000  0.54013833  0.90510375  1.0
  Ca  Ca26  1  0.91361000  0.87347167  0.90510375  1.0
  Ca  Ca27  1  0.08027667  0.04013833  0.78010375  1.0
  Ca  Ca28  1  0.08027667  0.37347167  0.78010375  1.0
  Ca  Ca29  1  0.08027667  0.70680500  0.78010375  1.0
  Ca  Ca30  1  0.41361000  0.04013833  0.78010375  1.0
  Ca  Ca31  1  0.41361000  0.37347167  0.78010375  1.0
  Ca  Ca32  1  0.41361000  0.70680500  0.78010375  1.0
  Ca  Ca33  1  0.74694333  0.04013833  0.78010375  1.0
  Ca  Ca34  1  0.74694333  0.37347167  0.78010375  1.0
  Ca  Ca35  1  0.74694333  0.70680500  0.78010375  1.0
  Ca  Ca36  1  0.08639000  0.20680500  0.90510375  1.0
  Ca  Ca37  1  0.08639000  0.54013833  0.90510375  1.0
  Ca  Ca38  1  0.08639000  0.87347167  0.90510375  1.0
  Ca  Ca39  1  0.41972333  0.20680500  0.90510375  1.0
  Ca  Ca40  1  0.41972333  0.54013833  0.90510375  1.0
  Ca  Ca41  1  0.41972333  0.87347167  0.90510375  1.0
  Ca  Ca42  1  0.75305667  0.20680500  0.90510375  1.0
  Ca  Ca43  1  0.75305667  0.54013833  0.90510375  1.0
  Ca  Ca44  1  0.75305667  0.87347167  0.90510375  1.0
  Ca  Ca45  1  0.25305667  0.04013833  0.78010375  1.0
  Ca  Ca46  1  0.25305667  0.37347167  0.78010375  1.0
  Ca  Ca47  1  0.25305667  0.70680500  0.78010375  1.0
  Ca  Ca48  1  0.58639000  0.04013833  0.78010375  1.0
  Ca  Ca49  1  0.58639000  0.37347167  0.78010375  1.0
  Ca  Ca50  1  0.58639000  0.70680500  0.78010375  1.0
  Ca  Ca51  1  0.91972333  0.04013833  0.78010375  1.0
  Ca  Ca52  1  0.91972333  0.37347167  0.78010375  1.0
  Ca  Ca53  1  0.91972333  0.70680500  0.78010375  1.0
  Ca  Ca54  1  0.08639000  0.20986167  0.78010375  1.0
  Ca  Ca55  1  0.08639000  0.54319500  0.78010375  1.0
  Ca  Ca56  1  0.08639000  0.87652833  0.78010375  1.0
  Ca  Ca57  1  0.41972333  0.20986167  0.78010375  1.0
  Ca  Ca58  1  0.41972333  0.54319500  0.78010375  1.0
  Ca  Ca59  1  0.41972333  0.87652833  0.78010375  1.0
  Ca  Ca60  1  0.75305667  0.20986167  0.78010375  1.0
  Ca  Ca61  1  0.75305667  0.54319500  0.78010375  1.0
  Ca  Ca62  1  0.75305667  0.87652833  0.78010375  1.0
  Ca  Ca63  1  0.25305667  0.04319500  0.90510375  1.0
  Ca  Ca64  1  0.25305667  0.37652833  0.90510375  1.0
  Ca  Ca65  1  0.25305667  0.70986167  0.90510375  1.0
  Ca  Ca66  1  0.58639000  0.04319500  0.90510375  1.0
  Ca  Ca67  1  0.58639000  0.37652833  0.90510375  1.0
  Ca  Ca68  1  0.58639000  0.70986167  0.90510375  1.0
  Ca  Ca69  1  0.91972333  0.04319500  0.90510375  1.0
  Ca  Ca70  1  0.91972333  0.37652833  0.90510375  1.0
  Ca  Ca71  1  0.91972333  0.70986167  0.90510375  1.0
  Ca  Ca72  1  0.33333333  0.12347167  0.84489625  1.0
  Ca  Ca73  1  0.33333333  0.45680500  0.84489625  1.0
  Ca  Ca74  1  0.33333333  0.79013833  0.84489625  1.0
  Ca  Ca75  1  0.66666667  0.12347167  0.84489625  1.0
  Ca  Ca76  1  0.66666667  0.45680500  0.84489625  1.0
  Ca  Ca77  1  0.66666667  0.79013833  0.84489625  1.0
  Ca  Ca78  1  0.00000000  0.12347167  0.84489625  1.0
  Ca  Ca79  1  0.00000000  0.45680500  0.84489625  1.0
  Ca  Ca80  1  0.00000000  0.79013833  0.84489625  1.0
  Ca  Ca81  1  0.16666667  0.29013833  0.96989625  1.0
  Ca  Ca82  1  0.16666667  0.62347167  0.96989625  1.0
  Ca  Ca83  1  0.16666667  0.95680500  0.96989625  1.0
  Ca  Ca84  1  0.50000000  0.29013833  0.96989625  1.0
  Ca  Ca85  1  0.50000000  0.62347167  0.96989625  1.0
  Ca  Ca86  1  0.50000000  0.95680500  0.96989625  1.0
  Ca  Ca87  1  0.83333333  0.29013833  0.96989625  1.0
  Ca  Ca88  1  0.83333333  0.62347167  0.96989625  1.0
  Ca  Ca89  1  0.83333333  0.95680500  0.96989625  1.0
  Ca  Ca90  1  0.33333333  0.29319500  0.96989625  1.0
  Ca  Ca91  1  0.33333333  0.62652833  0.96989625  1.0
  Ca  Ca92  1  0.33333333  0.95986167  0.96989625  1.0
  Ca  Ca93  1  0.66666667  0.29319500  0.96989625  1.0
  Ca  Ca94  1  0.66666667  0.62652833  0.96989625  1.0
  Ca  Ca95  1  0.66666667  0.95986167  0.96989625  1.0
  Ca  Ca96  1  1.00000000  0.29319500  0.96989625  1.0
  Ca  Ca97  1  0.00000000  0.62652833  0.96989625  1.0
  Ca  Ca98  1  0.00000000  0.95986167  0.96989625  1.0
  Ca  Ca99  1  0.16666667  0.12652833  0.84489625  1.0
  Ca  Ca100  1  0.16666667  0.45986167  0.84489625  1.0
  Ca  Ca101  1  0.16666667  0.79319500  0.84489625  1.0
  Ca  Ca102  1  0.50000000  0.12652833  0.84489625  1.0
  Ca  Ca103  1  0.50000000  0.45986167  0.84489625  1.0
  Ca  Ca104  1  0.50000000  0.79319500  0.84489625  1.0
  Ca  Ca105  1  0.83333333  0.12652833  0.84489625  1.0
  Ca  Ca106  1  0.83333333  0.45986167  0.84489625  1.0
  Ca  Ca107  1  0.83333333  0.79319500  0.84489625  1.0
  Ca  Ca108  1  0.24694333  0.20986167  0.78010375  1.0
  Ca  Ca109  1  0.24694333  0.54319500  0.78010375  1.0
  Ca  Ca110  1  0.24694333  0.87652833  0.78010375  1.0
  Ca  Ca111  1  0.58027667  0.20986167  0.78010375  1.0
  Ca  Ca112  1  0.58027667  0.54319500  0.78010375  1.0
  Ca  Ca113  1  0.58027667  0.87652833  0.78010375  1.0
  Ca  Ca114  1  0.91361000  0.20986167  0.78010375  1.0
  Ca  Ca115  1  0.91361000  0.54319500  0.78010375  1.0
  Ca  Ca116  1  0.91361000  0.87652833  0.78010375  1.0
  Ca  Ca117  1  0.08027667  0.04319500  0.90510375  1.0
  Ca  Ca118  1  0.08027667  0.37652833  0.90510375  1.0
  Ca  Ca119  1  0.08027667  0.70986167  0.90510375  1.0
  Ca  Ca120  1  0.41361000  0.04319500  0.90510375  1.0
  Ca  Ca121  1  0.41361000  0.37652833  0.90510375  1.0
  Ca  Ca122  1  0.41361000  0.70986167  0.90510375  1.0
  Ca  Ca123  1  0.74694333  0.04319500  0.90510375  1.0
  Ca  Ca124  1  0.74694333  0.37652833  0.90510375  1.0
  Ca  Ca125  1  0.74694333  0.70986167  0.90510375  1.0
  Ca  Ca126  1  0.00000000  0.12347167  0.96531125  1.0
  Ca  Ca127  1  0.00000000  0.45680500  0.96531125  1.0
  Ca  Ca128  1  0.00000000  0.79013833  0.96531125  1.0
  Ca  Ca129  1  0.33333333  0.12347167  0.96531125  1.0
  Ca  Ca130  1  0.33333333  0.45680500  0.96531125  1.0
  Ca  Ca131  1  0.33333333  0.79013833  0.96531125  1.0
  Ca  Ca132  1  0.66666667  0.12347167  0.96531125  1.0
  Ca  Ca133  1  0.66666667  0.45680500  0.96531125  1.0
  Ca  Ca134  1  0.66666667  0.79013833  0.96531125  1.0
  Ca  Ca135  1  0.16666667  0.29013833  0.84031125  1.0
  Ca  Ca136  1  0.16666667  0.62347167  0.84031125  1.0
  Ca  Ca137  1  0.16666667  0.95680500  0.84031125  1.0
  Ca  Ca138  1  0.50000000  0.29013833  0.84031125  1.0
  Ca  Ca139  1  0.50000000  0.62347167  0.84031125  1.0
  Ca  Ca140  1  0.50000000  0.95680500  0.84031125  1.0
  Ca  Ca141  1  0.83333333  0.29013833  0.84031125  1.0
  Ca  Ca142  1  0.83333333  0.62347167  0.84031125  1.0
  Ca  Ca143  1  0.83333333  0.95680500  0.84031125  1.0
  Ca  Ca144  1  0.33333333  0.29319500  0.59031125  1.0
  Ca  Ca145  1  0.33333333  0.62652833  0.59031125  1.0
  Ca  Ca146  1  0.33333333  0.95986167  0.59031125  1.0
  Ca  Ca147  1  0.66666667  0.29319500  0.59031125  1.0
  Ca  Ca148  1  0.66666667  0.62652833  0.59031125  1.0
  Ca  Ca149  1  0.66666667  0.95986167  0.59031125  1.0
  Ca  Ca150  1  1.00000000  0.29319500  0.59031125  1.0
  Ca  Ca151  1  1.00000000  0.62652833  0.59031125  1.0
  Ca  Ca152  1  1.00000000  0.95986167  0.59031125  1.0
  Ca  Ca153  1  0.16666667  0.12652833  0.71531125  1.0
  Ca  Ca154  1  0.16666667  0.45986167  0.71531125  1.0
  Ca  Ca155  1  0.16666667  0.79319500  0.71531125  1.0
  Ca  Ca156  1  0.50000000  0.12652833  0.71531125  1.0
  Ca  Ca157  1  0.50000000  0.45986167  0.71531125  1.0
  Ca  Ca158  1  0.50000000  0.79319500  0.71531125  1.0
  Ca  Ca159  1  0.83333333  0.12652833  0.71531125  1.0
  Ca  Ca160  1  0.83333333  0.45986167  0.71531125  1.0
  Ca  Ca161  1  0.83333333  0.79319500  0.71531125  1.0
  Ca  Ca162  1  0.24694333  0.20680500  0.65510375  1.0
  Ca  Ca163  1  0.24694333  0.54013833  0.65510375  1.0
  Ca  Ca164  1  0.24694333  0.87347167  0.65510375  1.0
  Ca  Ca165  1  0.58027667  0.20680500  0.65510375  1.0
  Ca  Ca166  1  0.58027667  0.54013833  0.65510375  1.0
  Ca  Ca167  1  0.58027667  0.87347167  0.65510375  1.0
  Ca  Ca168  1  0.91361000  0.20680500  0.65510375  1.0
  Ca  Ca169  1  0.91361000  0.54013833  0.65510375  1.0
  Ca  Ca170  1  0.91361000  0.87347167  0.65510375  1.0
  Ca  Ca171  1  0.08027667  0.04013833  0.53010375  1.0
  Ca  Ca172  1  0.08027667  0.37347167  0.53010375  1.0
  Ca  Ca173  1  0.08027667  0.70680500  0.53010375  1.0
  Ca  Ca174  1  0.41361000  0.04013833  0.53010375  1.0
  Ca  Ca175  1  0.41361000  0.37347167  0.53010375  1.0
  Ca  Ca176  1  0.41361000  0.70680500  0.53010375  1.0
  Ca  Ca177  1  0.74694333  0.04013833  0.53010375  1.0
  Ca  Ca178  1  0.74694333  0.37347167  0.53010375  1.0
  Ca  Ca179  1  0.74694333  0.70680500  0.53010375  1.0
  Ca  Ca180  1  0.08639000  0.20680500  0.65510375  1.0
  Ca  Ca181  1  0.08639000  0.54013833  0.65510375  1.0
  Ca  Ca182  1  0.08639000  0.87347167  0.65510375  1.0
  Ca  Ca183  1  0.41972333  0.20680500  0.65510375  1.0
  Ca  Ca184  1  0.41972333  0.54013833  0.65510375  1.0
  Ca  Ca185  1  0.41972333  0.87347167  0.65510375  1.0
  Ca  Ca186  1  0.75305667  0.20680500  0.65510375  1.0
  Ca  Ca187  1  0.75305667  0.54013833  0.65510375  1.0
  Ca  Ca188  1  0.75305667  0.87347167  0.65510375  1.0
  Ca  Ca189  1  0.25305667  0.04013833  0.53010375  1.0
  Ca  Ca190  1  0.25305667  0.37347167  0.53010375  1.0
  Ca  Ca191  1  0.25305667  0.70680500  0.53010375  1.0
  Ca  Ca192  1  0.58639000  0.04013833  0.53010375  1.0
  Ca  Ca193  1  0.58639000  0.37347167  0.53010375  1.0
  Ca  Ca194  1  0.58639000  0.70680500  0.53010375  1.0
  Ca  Ca195  1  0.91972333  0.04013833  0.53010375  1.0
  Ca  Ca196  1  0.91972333  0.37347167  0.53010375  1.0
  Ca  Ca197  1  0.91972333  0.70680500  0.53010375  1.0
  Ca  Ca198  1  0.08639000  0.20986167  0.53010375  1.0
  Ca  Ca199  1  0.08639000  0.54319500  0.53010375  1.0
  Ca  Ca200  1  0.08639000  0.87652833  0.53010375  1.0
  Ca  Ca201  1  0.41972333  0.20986167  0.53010375  1.0
  Ca  Ca202  1  0.41972333  0.54319500  0.53010375  1.0
  Ca  Ca203  1  0.41972333  0.87652833  0.53010375  1.0
  Ca  Ca204  1  0.75305667  0.20986167  0.53010375  1.0
  Ca  Ca205  1  0.75305667  0.54319500  0.53010375  1.0
  Ca  Ca206  1  0.75305667  0.87652833  0.53010375  1.0
  Ca  Ca207  1  0.25305667  0.04319500  0.65510375  1.0
  Ca  Ca208  1  0.25305667  0.37652833  0.65510375  1.0
  Ca  Ca209  1  0.25305667  0.70986167  0.65510375  1.0
  Ca  Ca210  1  0.58639000  0.04319500  0.65510375  1.0
  Ca  Ca211  1  0.58639000  0.37652833  0.65510375  1.0
  Ca  Ca212  1  0.58639000  0.70986167  0.65510375  1.0
  Ca  Ca213  1  0.91972333  0.04319500  0.65510375  1.0
  Ca  Ca214  1  0.91972333  0.37652833  0.65510375  1.0
  Ca  Ca215  1  0.91972333  0.70986167  0.65510375  1.0
  Ca  Ca216  1  0.33333333  0.12347167  0.59489625  1.0
  Ca  Ca217  1  0.33333333  0.45680500  0.59489625  1.0
  Ca  Ca218  1  0.33333333  0.79013833  0.59489625  1.0
  Ca  Ca219  1  0.66666667  0.12347167  0.59489625  1.0
  Ca  Ca220  1  0.66666667  0.45680500  0.59489625  1.0
  Ca  Ca221  1  0.66666667  0.79013833  0.59489625  1.0
  Ca  Ca222  1  0.00000000  0.12347167  0.59489625  1.0
  Ca  Ca223  1  1.00000000  0.45680500  0.59489625  1.0
  Ca  Ca224  1  1.00000000  0.79013833  0.59489625  1.0
  Ca  Ca225  1  0.16666667  0.29013833  0.71989625  1.0
  Ca  Ca226  1  0.16666667  0.62347167  0.71989625  1.0
  Ca  Ca227  1  0.16666667  0.95680500  0.71989625  1.0
  Ca  Ca228  1  0.50000000  0.29013833  0.71989625  1.0
  Ca  Ca229  1  0.50000000  0.62347167  0.71989625  1.0
  Ca  Ca230  1  0.50000000  0.95680500  0.71989625  1.0
  Ca  Ca231  1  0.83333333  0.29013833  0.71989625  1.0
  Ca  Ca232  1  0.83333333  0.62347167  0.71989625  1.0
  Ca  Ca233  1  0.83333333  0.95680500  0.71989625  1.0
  Ca  Ca234  1  0.33333333  0.29319500  0.71989625  1.0
  Ca  Ca235  1  0.33333333  0.62652833  0.71989625  1.0
  Ca  Ca236  1  0.33333333  0.95986167  0.71989625  1.0
  Ca  Ca237  1  0.66666667  0.29319500  0.71989625  1.0
  Ca  Ca238  1  0.66666667  0.62652833  0.71989625  1.0
  Ca  Ca239  1  0.66666667  0.95986167  0.71989625  1.0
  Ca  Ca240  1  1.00000000  0.29319500  0.71989625  1.0
  Ca  Ca241  1  0.00000000  0.62652833  0.71989625  1.0
  Ca  Ca242  1  0.00000000  0.95986167  0.71989625  1.0
  Ca  Ca243  1  0.16666667  0.12652833  0.59489625  1.0
  Ca  Ca244  1  0.16666667  0.45986167  0.59489625  1.0
  Ca  Ca245  1  0.16666667  0.79319500  0.59489625  1.0
  Ca  Ca246  1  0.50000000  0.12652833  0.59489625  1.0
  Ca  Ca247  1  0.50000000  0.45986167  0.59489625  1.0
  Ca  Ca248  1  0.50000000  0.79319500  0.59489625  1.0
  Ca  Ca249  1  0.83333333  0.12652833  0.59489625  1.0
  Ca  Ca250  1  0.83333333  0.45986167  0.59489625  1.0
  Ca  Ca251  1  0.83333333  0.79319500  0.59489625  1.0
  Ca  Ca252  1  0.24694333  0.20986167  0.53010375  1.0
  Ca  Ca253  1  0.24694333  0.54319500  0.53010375  1.0
  Ca  Ca254  1  0.24694333  0.87652833  0.53010375  1.0
  Ca  Ca255  1  0.58027667  0.20986167  0.53010375  1.0
  Ca  Ca256  1  0.58027667  0.54319500  0.53010375  1.0
  Ca  Ca257  1  0.58027667  0.87652833  0.53010375  1.0
  Ca  Ca258  1  0.91361000  0.20986167  0.53010375  1.0
  Ca  Ca259  1  0.91361000  0.54319500  0.53010375  1.0
  Ca  Ca260  1  0.91361000  0.87652833  0.53010375  1.0
  Ca  Ca261  1  0.08027667  0.04319500  0.65510375  1.0
  Ca  Ca262  1  0.08027667  0.37652833  0.65510375  1.0
  Ca  Ca263  1  0.08027667  0.70986167  0.65510375  1.0
  Ca  Ca264  1  0.41361000  0.04319500  0.65510375  1.0
  Ca  Ca265  1  0.41361000  0.37652833  0.65510375  1.0
  Ca  Ca266  1  0.41361000  0.70986167  0.65510375  1.0
  Ca  Ca267  1  0.74694333  0.04319500  0.65510375  1.0
  Ca  Ca268  1  0.74694333  0.37652833  0.65510375  1.0
  Ca  Ca269  1  0.74694333  0.70986167  0.65510375  1.0
  Ca  Ca270  1  0.33333333  0.12347167  0.71531125  1.0
  Ca  Ca271  1  0.33333333  0.45680500  0.71531125  1.0
  Ca  Ca272  1  0.33333333  0.79013833  0.71531125  1.0
  Ca  Ca273  1  0.66666667  0.12347167  0.71531125  1.0
  Ca  Ca274  1  0.66666667  0.45680500  0.71531125  1.0
  Ca  Ca275  1  0.66666667  0.79013833  0.71531125  1.0
  Ca  Ca276  1  0.00000000  0.12347167  0.71531125  1.0
  Ca  Ca277  1  0.00000000  0.45680500  0.71531125  1.0
  Ca  Ca278  1  0.00000000  0.79013833  0.71531125  1.0
  Ca  Ca279  1  0.16666667  0.29013833  0.59031125  1.0
  Ca  Ca280  1  0.16666667  0.62347167  0.59031125  1.0
  Ca  Ca281  1  0.16666667  0.95680500  0.59031125  1.0
  Ca  Ca282  1  0.50000000  0.29013833  0.59031125  1.0
  Ca  Ca283  1  0.50000000  0.62347167  0.59031125  1.0
  Ca  Ca284  1  0.50000000  0.95680500  0.59031125  1.0
  Ca  Ca285  1  0.83333333  0.29013833  0.59031125  1.0
  Ca  Ca286  1  0.83333333  0.62347167  0.59031125  1.0
  Ca  Ca287  1  0.83333333  0.95680500  0.59031125  1.0
  Ni  Ni288  1  0.00000000  0.16666667  0.78010375  1.0
  Ni  Ni289  1  0.00000000  0.50000000  0.78010375  1.0
  Ni  Ni290  1  0.00000000  0.83333333  0.78010375  1.0
  Ni  Ni291  1  0.33333333  0.16666667  0.78010375  1.0
  Ni  Ni292  1  0.33333333  0.50000000  0.78010375  1.0
  Ni  Ni293  1  0.33333333  0.83333333  0.78010375  1.0
  Ni  Ni294  1  0.66666667  0.16666667  0.78010375  1.0
  Ni  Ni295  1  0.66666667  0.50000000  0.78010375  1.0
  Ni  Ni296  1  0.66666667  0.83333333  0.78010375  1.0
  Ni  Ni297  1  0.16666667  0.33333333  0.90510375  1.0
  Ni  Ni298  1  0.16666667  0.66666667  0.90510375  1.0
  Ni  Ni299  1  0.16666667  0.00000000  0.90510375  1.0
  Ni  Ni300  1  0.50000000  0.33333333  0.90510375  1.0
  Ni  Ni301  1  0.50000000  0.66666667  0.90510375  1.0
  Ni  Ni302  1  0.50000000  0.00000000  0.90510375  1.0
  Ni  Ni303  1  0.83333333  0.33333333  0.90510375  1.0
  Ni  Ni304  1  0.83333333  0.66666667  0.90510375  1.0
  Ni  Ni305  1  0.83333333  0.00000000  0.90510375  1.0
  Ni  Ni306  1  0.33333333  0.25000000  0.90510375  1.0
  Ni  Ni307  1  0.33333333  0.58333333  0.90510375  1.0
  Ni  Ni308  1  0.33333333  0.91666667  0.90510375  1.0
  Ni  Ni309  1  0.66666667  0.25000000  0.90510375  1.0
  Ni  Ni310  1  0.66666667  0.58333333  0.90510375  1.0
  Ni  Ni311  1  0.66666667  0.91666667  0.90510375  1.0
  Ni  Ni312  1  1.00000000  0.25000000  0.90510375  1.0
  Ni  Ni313  1  0.00000000  0.58333333  0.90510375  1.0
  Ni  Ni314  1  0.00000000  0.91666667  0.90510375  1.0
  Ni  Ni315  1  0.16666667  0.08333333  0.78010375  1.0
  Ni  Ni316  1  0.16666667  0.41666667  0.78010375  1.0
  Ni  Ni317  1  0.16666667  0.75000000  0.78010375  1.0
  Ni  Ni318  1  0.50000000  0.08333333  0.78010375  1.0
  Ni  Ni319  1  0.50000000  0.41666667  0.78010375  1.0
  Ni  Ni320  1  0.50000000  0.75000000  0.78010375  1.0
  Ni  Ni321  1  0.83333333  0.08333333  0.78010375  1.0
  Ni  Ni322  1  0.83333333  0.41666667  0.78010375  1.0
  Ni  Ni323  1  0.83333333  0.75000000  0.78010375  1.0
  Ni  Ni324  1  0.00000000  0.16666667  0.53010375  1.0
  Ni  Ni325  1  0.00000000  0.50000000  0.53010375  1.0
  Ni  Ni326  1  0.00000000  0.83333333  0.53010375  1.0
  Ni  Ni327  1  0.33333333  0.16666667  0.53010375  1.0
  Ni  Ni328  1  0.33333333  0.50000000  0.53010375  1.0
  Ni  Ni329  1  0.33333333  0.83333333  0.53010375  1.0
  Ni  Ni330  1  0.66666667  0.16666667  0.53010375  1.0
  Ni  Ni331  1  0.66666667  0.50000000  0.53010375  1.0
  Ni  Ni332  1  0.66666667  0.83333333  0.53010375  1.0
  Ni  Ni333  1  0.16666667  0.33333333  0.65510375  1.0
  Ni  Ni334  1  0.16666667  0.66666667  0.65510375  1.0
  Ni  Ni335  1  0.16666667  0.00000000  0.65510375  1.0
  Ni  Ni336  1  0.50000000  0.33333333  0.65510375  1.0
  Ni  Ni337  1  0.50000000  0.66666667  0.65510375  1.0
  Ni  Ni338  1  0.50000000  0.00000000  0.65510375  1.0
  Ni  Ni339  1  0.83333333  0.33333333  0.65510375  1.0
  Ni  Ni340  1  0.83333333  0.66666667  0.65510375  1.0
  Ni  Ni341  1  0.83333333  0.00000000  0.65510375  1.0
  Ni  Ni342  1  0.00000000  0.25000000  0.65510375  1.0
  Ni  Ni343  1  0.00000000  0.58333333  0.65510375  1.0
  Ni  Ni344  1  0.00000000  0.91666667  0.65510375  1.0
  Ni  Ni345  1  0.33333333  0.25000000  0.65510375  1.0
  Ni  Ni346  1  0.33333333  0.58333333  0.65510375  1.0
  Ni  Ni347  1  0.33333333  0.91666667  0.65510375  1.0
  Ni  Ni348  1  0.66666667  0.25000000  0.65510375  1.0
  Ni  Ni349  1  0.66666667  0.58333333  0.65510375  1.0
  Ni  Ni350  1  0.66666667  0.91666667  0.65510375  1.0
  Ni  Ni351  1  0.16666667  0.08333333  0.53010375  1.0
  Ni  Ni352  1  0.16666667  0.41666667  0.53010375  1.0
  Ni  Ni353  1  0.16666667  0.75000000  0.53010375  1.0
  Ni  Ni354  1  0.50000000  0.08333333  0.53010375  1.0
  Ni  Ni355  1  0.50000000  0.41666667  0.53010375  1.0
  Ni  Ni356  1  0.50000000  0.75000000  0.53010375  1.0
  Ni  Ni357  1  0.83333333  0.08333333  0.53010375  1.0
  Ni  Ni358  1  0.83333333  0.41666667  0.53010375  1.0
  Ni  Ni359  1  0.83333333  0.75000000  0.53010375  1.0
