# generated using pymatgen
data_Ca4Ni
_symmetry_space_group_name_H-M   'P 1'
_cell_length_a   34.09795199
_cell_length_b   41.76129183
_cell_length_c   25.41511285
_cell_angle_alpha   90.00000000
_cell_angle_beta   90.00000000
_cell_angle_gamma   114.09484255
_symmetry_Int_Tables_number   1
_chemical_formula_structural   Ca4Ni
_chemical_formula_sum   'Ca288 Ni72'
_cell_volume   33037.23092151
_cell_formula_units_Z   72
loop_
 _symmetry_equiv_pos_site_id
 _symmetry_equiv_pos_as_xyz
  1  'x, y, z'
loop_
 _atom_site_type_symbol
 _atom_site_label
 _atom_site_symmetry_multiplicity
 _atom_site_fract_x
 _atom_site_fract_y
 _atom_site_fract_z
 _atom_site_occupancy
  Ca  Ca0  1  0.15309683  0.24445783  0.11295850  1.0
  Ca  Ca1  1  0.15309683  0.57779117  0.11295850  1.0
  Ca  Ca2  1  0.15309683  0.91112450  0.11295850  1.0
  Ca  Ca3  1  0.48643017  0.24445783  0.11295850  1.0
  Ca  Ca4  1  0.48643017  0.57779117  0.11295850  1.0
  Ca  Ca5  1  0.48643017  0.91112450  0.11295850  1.0
  Ca  Ca6  1  0.81976350  0.24445783  0.11295850  1.0
  Ca  Ca7  1  0.81976350  0.57779117  0.11295850  1.0
  Ca  Ca8  1  0.81976350  0.91112450  0.11295850  1.0
  Ca  Ca9  1  0.05309683  0.04445783  0.01295850  1.0
  Ca  Ca10  1  0.05309683  0.37779117  0.01295850  1.0
  Ca  Ca11  1  0.05309683  0.71112450  0.01295850  1.0
  Ca  Ca12  1  0.38643017  0.04445783  0.01295850  1.0
  Ca  Ca13  1  0.38643017  0.37779117  0.01295850  1.0
  Ca  Ca14  1  0.38643017  0.71112450  0.01295850  1.0
  Ca  Ca15  1  0.71976350  0.04445783  0.01295850  1.0
  Ca  Ca16  1  0.71976350  0.37779117  0.01295850  1.0
  Ca  Ca17  1  0.71976350  0.71112450  0.01295850  1.0
  Ca  Ca18  1  0.27404283  0.31356983  0.06112450  1.0
  Ca  Ca19  1  0.27404283  0.64690317  0.06112450  1.0
  Ca  Ca20  1  0.27404283  0.98023650  0.06112450  1.0
  Ca  Ca21  1  0.60737617  0.31356983  0.06112450  1.0
  Ca  Ca22  1  0.60737617  0.64690317  0.06112450  1.0
  Ca  Ca23  1  0.60737617  0.98023650  0.06112450  1.0
  Ca  Ca24  1  0.94070950  0.31356983  0.06112450  1.0
  Ca  Ca25  1  0.94070950  0.64690317  0.06112450  1.0
  Ca  Ca26  1  0.94070950  0.98023650  0.06112450  1.0
  Ca  Ca27  1  0.04070950  0.18023650  0.16112450  1.0
  Ca  Ca28  1  0.04070950  0.51356983  0.16112450  1.0
  Ca  Ca29  1  0.04070950  0.84690317  0.16112450  1.0
  Ca  Ca30  1  0.37404283  0.18023650  0.16112450  1.0
  Ca  Ca31  1  0.37404283  0.51356983  0.16112450  1.0
  Ca  Ca32  1  0.37404283  0.84690317  0.16112450  1.0
  Ca  Ca33  1  0.70737617  0.18023650  0.16112450  1.0
  Ca  Ca34  1  0.70737617  0.51356983  0.16112450  1.0
  Ca  Ca35  1  0.70737617  0.84690317  0.16112450  1.0
  Ca  Ca36  1  0.20493083  0.01479250  0.16479250  1.0
  Ca  Ca37  1  0.20493083  0.34812583  0.16479250  1.0
  Ca  Ca38  1  0.20493083  0.68145917  0.16479250  1.0
  Ca  Ca39  1  0.53826417  0.01479250  0.16479250  1.0
  Ca  Ca40  1  0.53826417  0.34812583  0.16479250  1.0
  Ca  Ca41  1  0.53826417  0.68145917  0.16479250  1.0
  Ca  Ca42  1  0.87159750  0.01479250  0.16479250  1.0
  Ca  Ca43  1  0.87159750  0.34812583  0.16479250  1.0
  Ca  Ca44  1  0.87159750  0.68145917  0.16479250  1.0
  Ca  Ca45  1  0.10493083  0.14812583  0.06479250  1.0
  Ca  Ca46  1  0.10493083  0.48145917  0.06479250  1.0
  Ca  Ca47  1  0.10493083  0.81479250  0.06479250  1.0
  Ca  Ca48  1  0.43826417  0.14812583  0.06479250  1.0
  Ca  Ca49  1  0.43826417  0.48145917  0.06479250  1.0
  Ca  Ca50  1  0.43826417  0.81479250  0.06479250  1.0
  Ca  Ca51  1  0.77159750  0.14812583  0.06479250  1.0
  Ca  Ca52  1  0.77159750  0.48145917  0.06479250  1.0
  Ca  Ca53  1  0.77159750  0.81479250  0.06479250  1.0
  Ca  Ca54  1  0.10370817  0.31234717  0.06662650  1.0
  Ca  Ca55  1  0.10370817  0.64568050  0.06662650  1.0
  Ca  Ca56  1  0.10370817  0.97901383  0.06662650  1.0
  Ca  Ca57  1  0.43704150  0.31234717  0.06662650  1.0
  Ca  Ca58  1  0.43704150  0.64568050  0.06662650  1.0
  Ca  Ca59  1  0.43704150  0.97901383  0.06662650  1.0
  Ca  Ca60  1  0.77037483  0.31234717  0.06662650  1.0
  Ca  Ca61  1  0.77037483  0.64568050  0.06662650  1.0
  Ca  Ca62  1  0.77037483  0.97901383  0.06662650  1.0
  Ca  Ca63  1  0.20370817  0.17901383  0.16662650  1.0
  Ca  Ca64  1  0.20370817  0.51234717  0.16662650  1.0
  Ca  Ca65  1  0.20370817  0.84568050  0.16662650  1.0
  Ca  Ca66  1  0.53704150  0.17901383  0.16662650  1.0
  Ca  Ca67  1  0.53704150  0.51234717  0.16662650  1.0
  Ca  Ca68  1  0.53704150  0.84568050  0.16662650  1.0
  Ca  Ca69  1  0.87037483  0.17901383  0.16662650  1.0
  Ca  Ca70  1  0.87037483  0.51234717  0.16662650  1.0
  Ca  Ca71  1  0.87037483  0.84568050  0.16662650  1.0
  Ca  Ca72  1  0.22465417  0.04812583  0.01479250  1.0
  Ca  Ca73  1  0.22465417  0.38145917  0.01479250  1.0
  Ca  Ca74  1  0.22465417  0.71479250  0.01479250  1.0
  Ca  Ca75  1  0.55798750  0.04812583  0.01479250  1.0
  Ca  Ca76  1  0.55798750  0.38145917  0.01479250  1.0
  Ca  Ca77  1  0.55798750  0.71479250  0.01479250  1.0
  Ca  Ca78  1  0.89132083  0.04812583  0.01479250  1.0
  Ca  Ca79  1  0.89132083  0.38145917  0.01479250  1.0
  Ca  Ca80  1  0.89132083  0.71479250  0.01479250  1.0
  Ca  Ca81  1  0.32465417  0.24812583  0.11479250  1.0
  Ca  Ca82  1  0.32465417  0.58145917  0.11479250  1.0
  Ca  Ca83  1  0.32465417  0.91479250  0.11479250  1.0
  Ca  Ca84  1  0.65798750  0.24812583  0.11479250  1.0
  Ca  Ca85  1  0.65798750  0.58145917  0.11479250  1.0
  Ca  Ca86  1  0.65798750  0.91479250  0.11479250  1.0
  Ca  Ca87  1  0.99132083  0.24812583  0.11479250  1.0
  Ca  Ca88  1  0.99132083  0.58145917  0.11479250  1.0
  Ca  Ca89  1  0.99132083  0.91479250  0.11479250  1.0
  Ca  Ca90  1  0.05676483  0.21234717  0.01662650  1.0
  Ca  Ca91  1  0.05676483  0.54568050  0.01662650  1.0
  Ca  Ca92  1  0.05676483  0.87901383  0.01662650  1.0
  Ca  Ca93  1  0.39009817  0.21234717  0.01662650  1.0
  Ca  Ca94  1  0.39009817  0.54568050  0.01662650  1.0
  Ca  Ca95  1  0.39009817  0.87901383  0.01662650  1.0
  Ca  Ca96  1  0.72343150  0.21234717  0.01662650  1.0
  Ca  Ca97  1  0.72343150  0.54568050  0.01662650  1.0
  Ca  Ca98  1  0.72343150  0.87901383  0.01662650  1.0
  Ca  Ca99  1  0.15676483  0.07901383  0.11662650  1.0
  Ca  Ca100  1  0.15676483  0.41234717  0.11662650  1.0
  Ca  Ca101  1  0.15676483  0.74568050  0.11662650  1.0
  Ca  Ca102  1  0.49009817  0.07901383  0.11662650  1.0
  Ca  Ca103  1  0.49009817  0.41234717  0.11662650  1.0
  Ca  Ca104  1  0.49009817  0.74568050  0.11662650  1.0
  Ca  Ca105  1  0.82343150  0.07901383  0.11662650  1.0
  Ca  Ca106  1  0.82343150  0.41234717  0.11662650  1.0
  Ca  Ca107  1  0.82343150  0.74568050  0.11662650  1.0
  Ca  Ca108  1  0.03948683  0.01112450  0.16295850  1.0
  Ca  Ca109  1  0.03948683  0.34445783  0.16295850  1.0
  Ca  Ca110  1  0.03948683  0.67779117  0.16295850  1.0
  Ca  Ca111  1  0.37282017  0.01112450  0.16295850  1.0
  Ca  Ca112  1  0.37282017  0.34445783  0.16295850  1.0
  Ca  Ca113  1  0.37282017  0.67779117  0.16295850  1.0
  Ca  Ca114  1  0.70615350  0.01112450  0.16295850  1.0
  Ca  Ca115  1  0.70615350  0.34445783  0.16295850  1.0
  Ca  Ca116  1  0.70615350  0.67779117  0.16295850  1.0
  Ca  Ca117  1  0.27282017  0.14445783  0.06295850  1.0
  Ca  Ca118  1  0.27282017  0.47779117  0.06295850  1.0
  Ca  Ca119  1  0.27282017  0.81112450  0.06295850  1.0
  Ca  Ca120  1  0.60615350  0.14445783  0.06295850  1.0
  Ca  Ca121  1  0.60615350  0.47779117  0.06295850  1.0
  Ca  Ca122  1  0.60615350  0.81112450  0.06295850  1.0
  Ca  Ca123  1  0.93948683  0.14445783  0.06295850  1.0
  Ca  Ca124  1  0.93948683  0.47779117  0.06295850  1.0
  Ca  Ca125  1  0.93948683  0.81112450  0.06295850  1.0
  Ca  Ca126  1  0.32098617  0.08023650  0.11112450  1.0
  Ca  Ca127  1  0.32098617  0.41356983  0.11112450  1.0
  Ca  Ca128  1  0.32098617  0.74690317  0.11112450  1.0
  Ca  Ca129  1  0.65431950  0.08023650  0.11112450  1.0
  Ca  Ca130  1  0.65431950  0.41356983  0.11112450  1.0
  Ca  Ca131  1  0.65431950  0.74690317  0.11112450  1.0
  Ca  Ca132  1  0.98765283  0.08023650  0.11112450  1.0
  Ca  Ca133  1  0.98765283  0.41356983  0.11112450  1.0
  Ca  Ca134  1  0.98765283  0.74690317  0.11112450  1.0
  Ca  Ca135  1  0.22098617  0.21356983  0.01112450  1.0
  Ca  Ca136  1  0.22098617  0.54690317  0.01112450  1.0
  Ca  Ca137  1  0.22098617  0.88023650  0.01112450  1.0
  Ca  Ca138  1  0.55431950  0.21356983  0.01112450  1.0
  Ca  Ca139  1  0.55431950  0.54690317  0.01112450  1.0
  Ca  Ca140  1  0.55431950  0.88023650  0.01112450  1.0
  Ca  Ca141  1  0.88765283  0.21356983  0.01112450  1.0
  Ca  Ca142  1  0.88765283  0.54690317  0.01112450  1.0
  Ca  Ca143  1  0.88765283  0.88023650  0.01112450  1.0
  Ca  Ca144  1  0.01976350  0.31112450  0.31295850  1.0
  Ca  Ca145  1  0.01976350  0.64445783  0.31295850  1.0
  Ca  Ca146  1  0.01976350  0.97779117  0.31295850  1.0
  Ca  Ca147  1  0.35309683  0.31112450  0.31295850  1.0
  Ca  Ca148  1  0.35309683  0.64445783  0.31295850  1.0
  Ca  Ca149  1  0.35309683  0.97779117  0.31295850  1.0
  Ca  Ca150  1  0.68643017  0.31112450  0.31295850  1.0
  Ca  Ca151  1  0.68643017  0.64445783  0.31295850  1.0
  Ca  Ca152  1  0.68643017  0.97779117  0.31295850  1.0
  Ca  Ca153  1  0.25309683  0.11112450  0.21295850  1.0
  Ca  Ca154  1  0.25309683  0.44445783  0.21295850  1.0
  Ca  Ca155  1  0.25309683  0.77779117  0.21295850  1.0
  Ca  Ca156  1  0.58643017  0.11112450  0.21295850  1.0
  Ca  Ca157  1  0.58643017  0.44445783  0.21295850  1.0
  Ca  Ca158  1  0.58643017  0.77779117  0.21295850  1.0
  Ca  Ca159  1  0.91976350  0.11112450  0.21295850  1.0
  Ca  Ca160  1  0.91976350  0.44445783  0.21295850  1.0
  Ca  Ca161  1  0.91976350  0.77779117  0.21295850  1.0
  Ca  Ca162  1  0.14070950  0.04690317  0.26112450  1.0
  Ca  Ca163  1  0.14070950  0.38023650  0.26112450  1.0
  Ca  Ca164  1  0.14070950  0.71356983  0.26112450  1.0
  Ca  Ca165  1  0.47404283  0.04690317  0.26112450  1.0
  Ca  Ca166  1  0.47404283  0.38023650  0.26112450  1.0
  Ca  Ca167  1  0.47404283  0.71356983  0.26112450  1.0
  Ca  Ca168  1  0.80737617  0.04690317  0.26112450  1.0
  Ca  Ca169  1  0.80737617  0.38023650  0.26112450  1.0
  Ca  Ca170  1  0.80737617  0.71356983  0.26112450  1.0
  Ca  Ca171  1  0.24070950  0.24690317  0.36112450  1.0
  Ca  Ca172  1  0.24070950  0.58023650  0.36112450  1.0
  Ca  Ca173  1  0.24070950  0.91356983  0.36112450  1.0
  Ca  Ca174  1  0.57404283  0.24690317  0.36112450  1.0
  Ca  Ca175  1  0.57404283  0.58023650  0.36112450  1.0
  Ca  Ca176  1  0.57404283  0.91356983  0.36112450  1.0
  Ca  Ca177  1  0.90737617  0.24690317  0.36112450  1.0
  Ca  Ca178  1  0.90737617  0.58023650  0.36112450  1.0
  Ca  Ca179  1  0.90737617  0.91356983  0.36112450  1.0
  Ca  Ca180  1  0.07159750  0.08145917  0.36479250  1.0
  Ca  Ca181  1  0.07159750  0.41479250  0.36479250  1.0
  Ca  Ca182  1  0.07159750  0.74812583  0.36479250  1.0
  Ca  Ca183  1  0.40493083  0.08145917  0.36479250  1.0
  Ca  Ca184  1  0.40493083  0.41479250  0.36479250  1.0
  Ca  Ca185  1  0.40493083  0.74812583  0.36479250  1.0
  Ca  Ca186  1  0.73826417  0.08145917  0.36479250  1.0
  Ca  Ca187  1  0.73826417  0.41479250  0.36479250  1.0
  Ca  Ca188  1  0.73826417  0.74812583  0.36479250  1.0
  Ca  Ca189  1  0.30493083  0.21479250  0.26479250  1.0
  Ca  Ca190  1  0.30493083  0.54812583  0.26479250  1.0
  Ca  Ca191  1  0.30493083  0.88145917  0.26479250  1.0
  Ca  Ca192  1  0.63826417  0.21479250  0.26479250  1.0
  Ca  Ca193  1  0.63826417  0.54812583  0.26479250  1.0
  Ca  Ca194  1  0.63826417  0.88145917  0.26479250  1.0
  Ca  Ca195  1  0.97159750  0.21479250  0.26479250  1.0
  Ca  Ca196  1  0.97159750  0.54812583  0.26479250  1.0
  Ca  Ca197  1  0.97159750  0.88145917  0.26479250  1.0
  Ca  Ca198  1  0.30370817  0.04568050  0.26662650  1.0
  Ca  Ca199  1  0.30370817  0.37901383  0.26662650  1.0
  Ca  Ca200  1  0.30370817  0.71234717  0.26662650  1.0
  Ca  Ca201  1  0.63704150  0.04568050  0.26662650  1.0
  Ca  Ca202  1  0.63704150  0.37901383  0.26662650  1.0
  Ca  Ca203  1  0.63704150  0.71234717  0.26662650  1.0
  Ca  Ca204  1  0.97037483  0.04568050  0.26662650  1.0
  Ca  Ca205  1  0.97037483  0.37901383  0.26662650  1.0
  Ca  Ca206  1  0.97037483  0.71234717  0.26662650  1.0
  Ca  Ca207  1  0.07037483  0.24568050  0.36662650  1.0
  Ca  Ca208  1  0.07037483  0.57901383  0.36662650  1.0
  Ca  Ca209  1  0.07037483  0.91234717  0.36662650  1.0
  Ca  Ca210  1  0.40370817  0.24568050  0.36662650  1.0
  Ca  Ca211  1  0.40370817  0.57901383  0.36662650  1.0
  Ca  Ca212  1  0.40370817  0.91234717  0.36662650  1.0
  Ca  Ca213  1  0.73704150  0.24568050  0.36662650  1.0
  Ca  Ca214  1  0.73704150  0.57901383  0.36662650  1.0
  Ca  Ca215  1  0.73704150  0.91234717  0.36662650  1.0
  Ca  Ca216  1  0.09132083  0.11479250  0.21479250  1.0
  Ca  Ca217  1  0.09132083  0.44812583  0.21479250  1.0
  Ca  Ca218  1  0.09132083  0.78145917  0.21479250  1.0
  Ca  Ca219  1  0.42465417  0.11479250  0.21479250  1.0
  Ca  Ca220  1  0.42465417  0.44812583  0.21479250  1.0
  Ca  Ca221  1  0.42465417  0.78145917  0.21479250  1.0
  Ca  Ca222  1  0.75798750  0.11479250  0.21479250  1.0
  Ca  Ca223  1  0.75798750  0.44812583  0.21479250  1.0
  Ca  Ca224  1  0.75798750  0.78145917  0.21479250  1.0
  Ca  Ca225  1  0.19132083  0.31479250  0.31479250  1.0
  Ca  Ca226  1  0.19132083  0.64812583  0.31479250  1.0
  Ca  Ca227  1  0.19132083  0.98145917  0.31479250  1.0
  Ca  Ca228  1  0.52465417  0.31479250  0.31479250  1.0
  Ca  Ca229  1  0.52465417  0.64812583  0.31479250  1.0
  Ca  Ca230  1  0.52465417  0.98145917  0.31479250  1.0
  Ca  Ca231  1  0.85798750  0.31479250  0.31479250  1.0
  Ca  Ca232  1  0.85798750  0.64812583  0.31479250  1.0
  Ca  Ca233  1  0.85798750  0.98145917  0.31479250  1.0
  Ca  Ca234  1  0.25676483  0.27901383  0.21662650  1.0
  Ca  Ca235  1  0.25676483  0.61234717  0.21662650  1.0
  Ca  Ca236  1  0.25676483  0.94568050  0.21662650  1.0
  Ca  Ca237  1  0.59009817  0.27901383  0.21662650  1.0
  Ca  Ca238  1  0.59009817  0.61234717  0.21662650  1.0
  Ca  Ca239  1  0.59009817  0.94568050  0.21662650  1.0
  Ca  Ca240  1  0.92343150  0.27901383  0.21662650  1.0
  Ca  Ca241  1  0.92343150  0.61234717  0.21662650  1.0
  Ca  Ca242  1  0.92343150  0.94568050  0.21662650  1.0
  Ca  Ca243  1  0.02343150  0.14568050  0.31662650  1.0
  Ca  Ca244  1  0.02343150  0.47901383  0.31662650  1.0
  Ca  Ca245  1  0.02343150  0.81234717  0.31662650  1.0
  Ca  Ca246  1  0.35676483  0.14568050  0.31662650  1.0
  Ca  Ca247  1  0.35676483  0.47901383  0.31662650  1.0
  Ca  Ca248  1  0.35676483  0.81234717  0.31662650  1.0
  Ca  Ca249  1  0.69009817  0.14568050  0.31662650  1.0
  Ca  Ca250  1  0.69009817  0.47901383  0.31662650  1.0
  Ca  Ca251  1  0.69009817  0.81234717  0.31662650  1.0
  Ca  Ca252  1  0.23948683  0.07779117  0.36295850  1.0
  Ca  Ca253  1  0.23948683  0.41112450  0.36295850  1.0
  Ca  Ca254  1  0.23948683  0.74445783  0.36295850  1.0
  Ca  Ca255  1  0.57282017  0.07779117  0.36295850  1.0
  Ca  Ca256  1  0.57282017  0.41112450  0.36295850  1.0
  Ca  Ca257  1  0.57282017  0.74445783  0.36295850  1.0
  Ca  Ca258  1  0.90615350  0.07779117  0.36295850  1.0
  Ca  Ca259  1  0.90615350  0.41112450  0.36295850  1.0
  Ca  Ca260  1  0.90615350  0.74445783  0.36295850  1.0
  Ca  Ca261  1  0.13948683  0.21112450  0.26295850  1.0
  Ca  Ca262  1  0.13948683  0.54445783  0.26295850  1.0
  Ca  Ca263  1  0.13948683  0.87779117  0.26295850  1.0
  Ca  Ca264  1  0.47282017  0.21112450  0.26295850  1.0
  Ca  Ca265  1  0.47282017  0.54445783  0.26295850  1.0
  Ca  Ca266  1  0.47282017  0.87779117  0.26295850  1.0
  Ca  Ca267  1  0.80615350  0.21112450  0.26295850  1.0
  Ca  Ca268  1  0.80615350  0.54445783  0.26295850  1.0
  Ca  Ca269  1  0.80615350  0.87779117  0.26295850  1.0
  Ca  Ca270  1  0.18765283  0.14690317  0.31112450  1.0
  Ca  Ca271  1  0.18765283  0.48023650  0.31112450  1.0
  Ca  Ca272  1  0.18765283  0.81356983  0.31112450  1.0
  Ca  Ca273  1  0.52098617  0.14690317  0.31112450  1.0
  Ca  Ca274  1  0.52098617  0.48023650  0.31112450  1.0
  Ca  Ca275  1  0.52098617  0.81356983  0.31112450  1.0
  Ca  Ca276  1  0.85431950  0.14690317  0.31112450  1.0
  Ca  Ca277  1  0.85431950  0.48023650  0.31112450  1.0
  Ca  Ca278  1  0.85431950  0.81356983  0.31112450  1.0
  Ca  Ca279  1  0.08765283  0.28023650  0.21112450  1.0
  Ca  Ca280  1  0.08765283  0.61356983  0.21112450  1.0
  Ca  Ca281  1  0.08765283  0.94690317  0.21112450  1.0
  Ca  Ca282  1  0.42098617  0.28023650  0.21112450  1.0
  Ca  Ca283  1  0.42098617  0.61356983  0.21112450  1.0
  Ca  Ca284  1  0.42098617  0.94690317  0.21112450  1.0
  Ca  Ca285  1  0.75431950  0.28023650  0.21112450  1.0
  Ca  Ca286  1  0.75431950  0.61356983  0.21112450  1.0
  Ca  Ca287  1  0.75431950  0.94690317  0.21112450  1.0
  Ni  Ni288  1  0.02220883  0.06295850  0.18887550  1.0
  Ni  Ni289  1  0.02220883  0.39629183  0.18887550  1.0
  Ni  Ni290  1  0.02220883  0.72962517  0.18887550  1.0
  Ni  Ni291  1  0.35554217  0.06295850  0.18887550  1.0
  Ni  Ni292  1  0.35554217  0.39629183  0.18887550  1.0
  Ni  Ni293  1  0.35554217  0.72962517  0.18887550  1.0
  Ni  Ni294  1  0.68887550  0.06295850  0.18887550  1.0
  Ni  Ni295  1  0.68887550  0.39629183  0.18887550  1.0
  Ni  Ni296  1  0.68887550  0.72962517  0.18887550  1.0
  Ni  Ni297  1  0.25554217  0.19629183  0.08887550  1.0
  Ni  Ni298  1  0.25554217  0.52962517  0.08887550  1.0
  Ni  Ni299  1  0.25554217  0.86295850  0.08887550  1.0
  Ni  Ni300  1  0.58887550  0.19629183  0.08887550  1.0
  Ni  Ni301  1  0.58887550  0.52962517  0.08887550  1.0
  Ni  Ni302  1  0.58887550  0.86295850  0.08887550  1.0
  Ni  Ni303  1  0.92220883  0.19629183  0.08887550  1.0
  Ni  Ni304  1  0.92220883  0.52962517  0.08887550  1.0
  Ni  Ni305  1  0.92220883  0.86295850  0.08887550  1.0
  Ni  Ni306  1  0.22220883  0.29629183  0.13887550  1.0
  Ni  Ni307  1  0.22220883  0.62962517  0.13887550  1.0
  Ni  Ni308  1  0.22220883  0.96295850  0.13887550  1.0
  Ni  Ni309  1  0.55554217  0.29629183  0.13887550  1.0
  Ni  Ni310  1  0.55554217  0.62962517  0.13887550  1.0
  Ni  Ni311  1  0.55554217  0.96295850  0.13887550  1.0
  Ni  Ni312  1  0.88887550  0.29629183  0.13887550  1.0
  Ni  Ni313  1  0.88887550  0.62962517  0.13887550  1.0
  Ni  Ni314  1  0.88887550  0.96295850  0.13887550  1.0
  Ni  Ni315  1  0.12220883  0.09629183  0.03887550  1.0
  Ni  Ni316  1  0.12220883  0.42962517  0.03887550  1.0
  Ni  Ni317  1  0.12220883  0.76295850  0.03887550  1.0
  Ni  Ni318  1  0.45554217  0.09629183  0.03887550  1.0
  Ni  Ni319  1  0.45554217  0.42962517  0.03887550  1.0
  Ni  Ni320  1  0.45554217  0.76295850  0.03887550  1.0
  Ni  Ni321  1  0.78887550  0.09629183  0.03887550  1.0
  Ni  Ni322  1  0.78887550  0.42962517  0.03887550  1.0
  Ni  Ni323  1  0.78887550  0.76295850  0.03887550  1.0
  Ni  Ni324  1  0.22220883  0.12962517  0.38887550  1.0
  Ni  Ni325  1  0.22220883  0.46295850  0.38887550  1.0
  Ni  Ni326  1  0.22220883  0.79629183  0.38887550  1.0
  Ni  Ni327  1  0.55554217  0.12962517  0.38887550  1.0
  Ni  Ni328  1  0.55554217  0.46295850  0.38887550  1.0
  Ni  Ni329  1  0.55554217  0.79629183  0.38887550  1.0
  Ni  Ni330  1  0.88887550  0.12962517  0.38887550  1.0
  Ni  Ni331  1  0.88887550  0.46295850  0.38887550  1.0
  Ni  Ni332  1  0.88887550  0.79629183  0.38887550  1.0
  Ni  Ni333  1  0.12220883  0.26295850  0.28887550  1.0
  Ni  Ni334  1  0.12220883  0.59629183  0.28887550  1.0
  Ni  Ni335  1  0.12220883  0.92962517  0.28887550  1.0
  Ni  Ni336  1  0.45554217  0.26295850  0.28887550  1.0
  Ni  Ni337  1  0.45554217  0.59629183  0.28887550  1.0
  Ni  Ni338  1  0.45554217  0.92962517  0.28887550  1.0
  Ni  Ni339  1  0.78887550  0.26295850  0.28887550  1.0
  Ni  Ni340  1  0.78887550  0.59629183  0.28887550  1.0
  Ni  Ni341  1  0.78887550  0.92962517  0.28887550  1.0
  Ni  Ni342  1  0.08887550  0.02962517  0.33887550  1.0
  Ni  Ni343  1  0.08887550  0.36295850  0.33887550  1.0
  Ni  Ni344  1  0.08887550  0.69629183  0.33887550  1.0
  Ni  Ni345  1  0.42220883  0.02962517  0.33887550  1.0
  Ni  Ni346  1  0.42220883  0.36295850  0.33887550  1.0
  Ni  Ni347  1  0.42220883  0.69629183  0.33887550  1.0
  Ni  Ni348  1  0.75554217  0.02962517  0.33887550  1.0
  Ni  Ni349  1  0.75554217  0.36295850  0.33887550  1.0
  Ni  Ni350  1  0.75554217  0.69629183  0.33887550  1.0
  Ni  Ni351  1  0.32220883  0.16295850  0.23887550  1.0
  Ni  Ni352  1  0.32220883  0.49629183  0.23887550  1.0
  Ni  Ni353  1  0.32220883  0.82962517  0.23887550  1.0
  Ni  Ni354  1  0.65554217  0.16295850  0.23887550  1.0
  Ni  Ni355  1  0.65554217  0.49629183  0.23887550  1.0
  Ni  Ni356  1  0.65554217  0.82962517  0.23887550  1.0
  Ni  Ni357  1  0.98887550  0.16295850  0.23887550  1.0
  Ni  Ni358  1  0.98887550  0.49629183  0.23887550  1.0
  Ni  Ni359  1  0.98887550  0.82962517  0.23887550  1.0
