# generated using pymatgen
data_Ca4Ni
_symmetry_space_group_name_H-M   'P 1'
_cell_length_a   24.11089308
_cell_length_b   63.79142698
_cell_length_c   56.25875052
_cell_angle_alpha   40.89339465
_cell_angle_beta   60.00000000
_cell_angle_gamma   79.10660535
_symmetry_Int_Tables_number   1
_chemical_formula_structural   Ca4Ni
_chemical_formula_sum   'Ca432 Ni108'
_cell_volume   46252.12329012
_cell_formula_units_Z   108
loop_
 _symmetry_equiv_pos_site_id
 _symmetry_equiv_pos_as_xyz
  1  'x, y, z'
loop_
 _atom_site_type_symbol
 _atom_site_label
 _atom_site_symmetry_multiplicity
 _atom_site_fract_x
 _atom_site_fract_y
 _atom_site_fract_z
 _atom_site_occupancy
  Ca  Ca0  1  0.29319500  0.02006917  0.01687464  1.0
  Ca  Ca1  1  0.29319500  0.35340250  0.01687464  1.0
  Ca  Ca2  1  0.29319500  0.68673583  0.01687464  1.0
  Ca  Ca3  1  0.62652833  0.02006917  0.01687464  1.0
  Ca  Ca4  1  0.62652833  0.35340250  0.01687464  1.0
  Ca  Ca5  1  0.62652833  0.68673583  0.01687464  1.0
  Ca  Ca6  1  0.95986167  0.02006917  0.01687464  1.0
  Ca  Ca7  1  0.95986167  0.35340250  0.01687464  1.0
  Ca  Ca8  1  0.95986167  0.68673583  0.01687464  1.0
  Ca  Ca9  1  0.29319500  0.18673583  0.08830321  1.0
  Ca  Ca10  1  0.29319500  0.52006917  0.08830321  1.0
  Ca  Ca11  1  0.29319500  0.85340250  0.08830321  1.0
  Ca  Ca12  1  0.62652833  0.18673583  0.08830321  1.0
  Ca  Ca13  1  0.62652833  0.52006917  0.08830321  1.0
  Ca  Ca14  1  0.62652833  0.85340250  0.08830321  1.0
  Ca  Ca15  1  0.95986167  0.18673583  0.08830321  1.0
  Ca  Ca16  1  0.95986167  0.52006917  0.08830321  1.0
  Ca  Ca17  1  0.95986167  0.85340250  0.08830321  1.0
  Ca  Ca18  1  0.29319500  0.10645917  0.12270750  1.0
  Ca  Ca19  1  0.29319500  0.43979250  0.12270750  1.0
  Ca  Ca20  1  0.29319500  0.77312583  0.12270750  1.0
  Ca  Ca21  1  0.62652833  0.10645917  0.12270750  1.0
  Ca  Ca22  1  0.62652833  0.43979250  0.12270750  1.0
  Ca  Ca23  1  0.62652833  0.77312583  0.12270750  1.0
  Ca  Ca24  1  0.95986167  0.10645917  0.12270750  1.0
  Ca  Ca25  1  0.95986167  0.43979250  0.12270750  1.0
  Ca  Ca26  1  0.95986167  0.77312583  0.12270750  1.0
  Ca  Ca27  1  0.29319500  0.27312583  0.05127893  1.0
  Ca  Ca28  1  0.29319500  0.60645917  0.05127893  1.0
  Ca  Ca29  1  0.29319500  0.93979250  0.05127893  1.0
  Ca  Ca30  1  0.62652833  0.27312583  0.05127893  1.0
  Ca  Ca31  1  0.62652833  0.60645917  0.05127893  1.0
  Ca  Ca32  1  0.62652833  0.93979250  0.05127893  1.0
  Ca  Ca33  1  0.95986167  0.27312583  0.05127893  1.0
  Ca  Ca34  1  0.95986167  0.60645917  0.05127893  1.0
  Ca  Ca35  1  0.95986167  0.93979250  0.05127893  1.0
  Ca  Ca36  1  0.12041500  0.02006917  0.09092321  1.0
  Ca  Ca37  1  0.12041500  0.35340250  0.09092321  1.0
  Ca  Ca38  1  0.12041500  0.68673583  0.09092321  1.0
  Ca  Ca39  1  0.45374833  0.02006917  0.09092321  1.0
  Ca  Ca40  1  0.45374833  0.35340250  0.09092321  1.0
  Ca  Ca41  1  0.45374833  0.68673583  0.09092321  1.0
  Ca  Ca42  1  0.78708167  0.02006917  0.09092321  1.0
  Ca  Ca43  1  0.78708167  0.35340250  0.09092321  1.0
  Ca  Ca44  1  0.78708167  0.68673583  0.09092321  1.0
  Ca  Ca45  1  0.12041500  0.18673583  0.01949464  1.0
  Ca  Ca46  1  0.12041500  0.52006917  0.01949464  1.0
  Ca  Ca47  1  0.12041500  0.85340250  0.01949464  1.0
  Ca  Ca48  1  0.45374833  0.18673583  0.01949464  1.0
  Ca  Ca49  1  0.45374833  0.52006917  0.01949464  1.0
  Ca  Ca50  1  0.45374833  0.85340250  0.01949464  1.0
  Ca  Ca51  1  0.78708167  0.18673583  0.01949464  1.0
  Ca  Ca52  1  0.78708167  0.52006917  0.01949464  1.0
  Ca  Ca53  1  0.78708167  0.85340250  0.01949464  1.0
  Ca  Ca54  1  0.12347167  0.01854083  0.02014964  1.0
  Ca  Ca55  1  0.12347167  0.35187417  0.02014964  1.0
  Ca  Ca56  1  0.12347167  0.68520750  0.02014964  1.0
  Ca  Ca57  1  0.45680500  0.01854083  0.02014964  1.0
  Ca  Ca58  1  0.45680500  0.35187417  0.02014964  1.0
  Ca  Ca59  1  0.45680500  0.68520750  0.02014964  1.0
  Ca  Ca60  1  0.79013833  0.01854083  0.02014964  1.0
  Ca  Ca61  1  0.79013833  0.35187417  0.02014964  1.0
  Ca  Ca62  1  0.79013833  0.68520750  0.02014964  1.0
  Ca  Ca63  1  0.12347167  0.18520750  0.09157821  1.0
  Ca  Ca64  1  0.12347167  0.51854083  0.09157821  1.0
  Ca  Ca65  1  0.12347167  0.85187417  0.09157821  1.0
  Ca  Ca66  1  0.45680500  0.18520750  0.09157821  1.0
  Ca  Ca67  1  0.45680500  0.51854083  0.09157821  1.0
  Ca  Ca68  1  0.45680500  0.85187417  0.09157821  1.0
  Ca  Ca69  1  0.79013833  0.18520750  0.09157821  1.0
  Ca  Ca70  1  0.79013833  0.51854083  0.09157821  1.0
  Ca  Ca71  1  0.79013833  0.85187417  0.09157821  1.0
  Ca  Ca72  1  0.12347167  0.10493083  0.12598250  1.0
  Ca  Ca73  1  0.12347167  0.43826417  0.12598250  1.0
  Ca  Ca74  1  0.12347167  0.77159750  0.12598250  1.0
  Ca  Ca75  1  0.45680500  0.10493083  0.12598250  1.0
  Ca  Ca76  1  0.45680500  0.43826417  0.12598250  1.0
  Ca  Ca77  1  0.45680500  0.77159750  0.12598250  1.0
  Ca  Ca78  1  0.79013833  0.10493083  0.12598250  1.0
  Ca  Ca79  1  0.79013833  0.43826417  0.12598250  1.0
  Ca  Ca80  1  0.79013833  0.77159750  0.12598250  1.0
  Ca  Ca81  1  0.12347167  0.27159750  0.05455393  1.0
  Ca  Ca82  1  0.12347167  0.60493083  0.05455393  1.0
  Ca  Ca83  1  0.12347167  0.93826417  0.05455393  1.0
  Ca  Ca84  1  0.45680500  0.27159750  0.05455393  1.0
  Ca  Ca85  1  0.45680500  0.60493083  0.05455393  1.0
  Ca  Ca86  1  0.45680500  0.93826417  0.05455393  1.0
  Ca  Ca87  1  0.79013833  0.27159750  0.05455393  1.0
  Ca  Ca88  1  0.79013833  0.60493083  0.05455393  1.0
  Ca  Ca89  1  0.79013833  0.93826417  0.05455393  1.0
  Ca  Ca90  1  0.29319500  0.02006917  0.09092321  1.0
  Ca  Ca91  1  0.29319500  0.35340250  0.09092321  1.0
  Ca  Ca92  1  0.29319500  0.68673583  0.09092321  1.0
  Ca  Ca93  1  0.62652833  0.02006917  0.09092321  1.0
  Ca  Ca94  1  0.62652833  0.35340250  0.09092321  1.0
  Ca  Ca95  1  0.62652833  0.68673583  0.09092321  1.0
  Ca  Ca96  1  0.95986167  0.02006917  0.09092321  1.0
  Ca  Ca97  1  0.95986167  0.35340250  0.09092321  1.0
  Ca  Ca98  1  0.95986167  0.68673583  0.09092321  1.0
  Ca  Ca99  1  0.29319500  0.18673583  0.01949464  1.0
  Ca  Ca100  1  0.29319500  0.52006917  0.01949464  1.0
  Ca  Ca101  1  0.29319500  0.85340250  0.01949464  1.0
  Ca  Ca102  1  0.62652833  0.18673583  0.01949464  1.0
  Ca  Ca103  1  0.62652833  0.52006917  0.01949464  1.0
  Ca  Ca104  1  0.62652833  0.85340250  0.01949464  1.0
  Ca  Ca105  1  0.95986167  0.18673583  0.01949464  1.0
  Ca  Ca106  1  0.95986167  0.52006917  0.01949464  1.0
  Ca  Ca107  1  0.95986167  0.85340250  0.01949464  1.0
  Ca  Ca108  1  0.29625167  0.10493083  0.05193393  1.0
  Ca  Ca109  1  0.29625167  0.43826417  0.05193393  1.0
  Ca  Ca110  1  0.29625167  0.77159750  0.05193393  1.0
  Ca  Ca111  1  0.62958500  0.10493083  0.05193393  1.0
  Ca  Ca112  1  0.62958500  0.43826417  0.05193393  1.0
  Ca  Ca113  1  0.62958500  0.77159750  0.05193393  1.0
  Ca  Ca114  1  0.96291833  0.10493083  0.05193393  1.0
  Ca  Ca115  1  0.96291833  0.43826417  0.05193393  1.0
  Ca  Ca116  1  0.96291833  0.77159750  0.05193393  1.0
  Ca  Ca117  1  0.29625167  0.27159750  0.12336250  1.0
  Ca  Ca118  1  0.29625167  0.60493083  0.12336250  1.0
  Ca  Ca119  1  0.29625167  0.93826417  0.12336250  1.0
  Ca  Ca120  1  0.62958500  0.27159750  0.12336250  1.0
  Ca  Ca121  1  0.62958500  0.60493083  0.12336250  1.0
  Ca  Ca122  1  0.62958500  0.93826417  0.12336250  1.0
  Ca  Ca123  1  0.96291833  0.27159750  0.12336250  1.0
  Ca  Ca124  1  0.96291833  0.60493083  0.12336250  1.0
  Ca  Ca125  1  0.96291833  0.93826417  0.12336250  1.0
  Ca  Ca126  1  0.12347167  0.10493083  0.05193393  1.0
  Ca  Ca127  1  0.12347167  0.43826417  0.05193393  1.0
  Ca  Ca128  1  0.12347167  0.77159750  0.05193393  1.0
  Ca  Ca129  1  0.45680500  0.10493083  0.05193393  1.0
  Ca  Ca130  1  0.45680500  0.43826417  0.05193393  1.0
  Ca  Ca131  1  0.45680500  0.77159750  0.05193393  1.0
  Ca  Ca132  1  0.79013833  0.10493083  0.05193393  1.0
  Ca  Ca133  1  0.79013833  0.43826417  0.05193393  1.0
  Ca  Ca134  1  0.79013833  0.77159750  0.05193393  1.0
  Ca  Ca135  1  0.12347167  0.27159750  0.12336250  1.0
  Ca  Ca136  1  0.12347167  0.60493083  0.12336250  1.0
  Ca  Ca137  1  0.12347167  0.93826417  0.12336250  1.0
  Ca  Ca138  1  0.45680500  0.27159750  0.12336250  1.0
  Ca  Ca139  1  0.45680500  0.60493083  0.12336250  1.0
  Ca  Ca140  1  0.45680500  0.93826417  0.12336250  1.0
  Ca  Ca141  1  0.79013833  0.27159750  0.12336250  1.0
  Ca  Ca142  1  0.79013833  0.60493083  0.12336250  1.0
  Ca  Ca143  1  0.79013833  0.93826417  0.12336250  1.0
  Ni  Ni144  1  0.16666667  0.08333333  0.09821429  1.0
  Ni  Ni145  1  0.16666667  0.41666667  0.09821429  1.0
  Ni  Ni146  1  0.16666667  0.75000000  0.09821429  1.0
  Ni  Ni147  1  0.50000000  0.08333333  0.09821429  1.0
  Ni  Ni148  1  0.50000000  0.41666667  0.09821429  1.0
  Ni  Ni149  1  0.50000000  0.75000000  0.09821429  1.0
  Ni  Ni150  1  0.83333333  0.08333333  0.09821429  1.0
  Ni  Ni151  1  0.83333333  0.41666667  0.09821429  1.0
  Ni  Ni152  1  0.83333333  0.75000000  0.09821429  1.0
  Ni  Ni153  1  0.16666667  0.25000000  0.02678571  1.0
  Ni  Ni154  1  0.16666667  0.58333333  0.02678571  1.0
  Ni  Ni155  1  0.16666667  0.91666667  0.02678571  1.0
  Ni  Ni156  1  0.50000000  0.25000000  0.02678571  1.0
  Ni  Ni157  1  0.50000000  0.58333333  0.02678571  1.0
  Ni  Ni158  1  0.50000000  0.91666667  0.02678571  1.0
  Ni  Ni159  1  0.83333333  0.25000000  0.02678571  1.0
  Ni  Ni160  1  0.83333333  0.58333333  0.02678571  1.0
  Ni  Ni161  1  0.83333333  0.91666667  0.02678571  1.0
  Ni  Ni162  1  0.25000000  0.04166667  0.04464286  1.0
  Ni  Ni163  1  0.25000000  0.37500000  0.04464286  1.0
  Ni  Ni164  1  0.25000000  0.70833333  0.04464286  1.0
  Ni  Ni165  1  0.58333333  0.04166667  0.04464286  1.0
  Ni  Ni166  1  0.58333333  0.37500000  0.04464286  1.0
  Ni  Ni167  1  0.58333333  0.70833333  0.04464286  1.0
  Ni  Ni168  1  0.91666667  0.04166667  0.04464286  1.0
  Ni  Ni169  1  0.91666667  0.37500000  0.04464286  1.0
  Ni  Ni170  1  0.91666667  0.70833333  0.04464286  1.0
  Ni  Ni171  1  0.25000000  0.20833333  0.11607143  1.0
  Ni  Ni172  1  0.25000000  0.54166667  0.11607143  1.0
  Ni  Ni173  1  0.25000000  0.87500000  0.11607143  1.0
  Ni  Ni174  1  0.58333333  0.20833333  0.11607143  1.0
  Ni  Ni175  1  0.58333333  0.54166667  0.11607143  1.0
  Ni  Ni176  1  0.58333333  0.87500000  0.11607143  1.0
  Ni  Ni177  1  0.91666667  0.20833333  0.11607143  1.0
  Ni  Ni178  1  0.91666667  0.54166667  0.11607143  1.0
  Ni  Ni179  1  0.91666667  0.87500000  0.11607143  1.0
  Ca  Ca180  1  0.29319500  0.02006917  0.15973179  1.0
  Ca  Ca181  1  0.29319500  0.35340250  0.15973179  1.0
  Ca  Ca182  1  0.29319500  0.68673583  0.15973179  1.0
  Ca  Ca183  1  0.62652833  0.02006917  0.15973179  1.0
  Ca  Ca184  1  0.62652833  0.35340250  0.15973179  1.0
  Ca  Ca185  1  0.62652833  0.68673583  0.15973179  1.0
  Ca  Ca186  1  0.95986167  0.02006917  0.15973179  1.0
  Ca  Ca187  1  0.95986167  0.35340250  0.15973179  1.0
  Ca  Ca188  1  0.95986167  0.68673583  0.15973179  1.0
  Ca  Ca189  1  0.29319500  0.18673583  0.23116036  1.0
  Ca  Ca190  1  0.29319500  0.52006917  0.23116036  1.0
  Ca  Ca191  1  0.29319500  0.85340250  0.23116036  1.0
  Ca  Ca192  1  0.62652833  0.18673583  0.23116036  1.0
  Ca  Ca193  1  0.62652833  0.52006917  0.23116036  1.0
  Ca  Ca194  1  0.62652833  0.85340250  0.23116036  1.0
  Ca  Ca195  1  0.95986167  0.18673583  0.23116036  1.0
  Ca  Ca196  1  0.95986167  0.52006917  0.23116036  1.0
  Ca  Ca197  1  0.95986167  0.85340250  0.23116036  1.0
  Ca  Ca198  1  0.29319500  0.10645917  0.26556464  1.0
  Ca  Ca199  1  0.29319500  0.43979250  0.26556464  1.0
  Ca  Ca200  1  0.29319500  0.77312583  0.26556464  1.0
  Ca  Ca201  1  0.62652833  0.10645917  0.26556464  1.0
  Ca  Ca202  1  0.62652833  0.43979250  0.26556464  1.0
  Ca  Ca203  1  0.62652833  0.77312583  0.26556464  1.0
  Ca  Ca204  1  0.95986167  0.10645917  0.26556464  1.0
  Ca  Ca205  1  0.95986167  0.43979250  0.26556464  1.0
  Ca  Ca206  1  0.95986167  0.77312583  0.26556464  1.0
  Ca  Ca207  1  0.29319500  0.27312583  0.19413607  1.0
  Ca  Ca208  1  0.29319500  0.60645917  0.19413607  1.0
  Ca  Ca209  1  0.29319500  0.93979250  0.19413607  1.0
  Ca  Ca210  1  0.62652833  0.27312583  0.19413607  1.0
  Ca  Ca211  1  0.62652833  0.60645917  0.19413607  1.0
  Ca  Ca212  1  0.62652833  0.93979250  0.19413607  1.0
  Ca  Ca213  1  0.95986167  0.27312583  0.19413607  1.0
  Ca  Ca214  1  0.95986167  0.60645917  0.19413607  1.0
  Ca  Ca215  1  0.95986167  0.93979250  0.19413607  1.0
  Ca  Ca216  1  0.12041500  0.02006917  0.23378036  1.0
  Ca  Ca217  1  0.12041500  0.35340250  0.23378036  1.0
  Ca  Ca218  1  0.12041500  0.68673583  0.23378036  1.0
  Ca  Ca219  1  0.45374833  0.02006917  0.23378036  1.0
  Ca  Ca220  1  0.45374833  0.35340250  0.23378036  1.0
  Ca  Ca221  1  0.45374833  0.68673583  0.23378036  1.0
  Ca  Ca222  1  0.78708167  0.02006917  0.23378036  1.0
  Ca  Ca223  1  0.78708167  0.35340250  0.23378036  1.0
  Ca  Ca224  1  0.78708167  0.68673583  0.23378036  1.0
  Ca  Ca225  1  0.12041500  0.18673583  0.16235179  1.0
  Ca  Ca226  1  0.12041500  0.52006917  0.16235179  1.0
  Ca  Ca227  1  0.12041500  0.85340250  0.16235179  1.0
  Ca  Ca228  1  0.45374833  0.18673583  0.16235179  1.0
  Ca  Ca229  1  0.45374833  0.52006917  0.16235179  1.0
  Ca  Ca230  1  0.45374833  0.85340250  0.16235179  1.0
  Ca  Ca231  1  0.78708167  0.18673583  0.16235179  1.0
  Ca  Ca232  1  0.78708167  0.52006917  0.16235179  1.0
  Ca  Ca233  1  0.78708167  0.85340250  0.16235179  1.0
  Ca  Ca234  1  0.12347167  0.01854083  0.16300679  1.0
  Ca  Ca235  1  0.12347167  0.35187417  0.16300679  1.0
  Ca  Ca236  1  0.12347167  0.68520750  0.16300679  1.0
  Ca  Ca237  1  0.45680500  0.01854083  0.16300679  1.0
  Ca  Ca238  1  0.45680500  0.35187417  0.16300679  1.0
  Ca  Ca239  1  0.45680500  0.68520750  0.16300679  1.0
  Ca  Ca240  1  0.79013833  0.01854083  0.16300679  1.0
  Ca  Ca241  1  0.79013833  0.35187417  0.16300679  1.0
  Ca  Ca242  1  0.79013833  0.68520750  0.16300679  1.0
  Ca  Ca243  1  0.12347167  0.18520750  0.23443536  1.0
  Ca  Ca244  1  0.12347167  0.51854083  0.23443536  1.0
  Ca  Ca245  1  0.12347167  0.85187417  0.23443536  1.0
  Ca  Ca246  1  0.45680500  0.18520750  0.23443536  1.0
  Ca  Ca247  1  0.45680500  0.51854083  0.23443536  1.0
  Ca  Ca248  1  0.45680500  0.85187417  0.23443536  1.0
  Ca  Ca249  1  0.79013833  0.18520750  0.23443536  1.0
  Ca  Ca250  1  0.79013833  0.51854083  0.23443536  1.0
  Ca  Ca251  1  0.79013833  0.85187417  0.23443536  1.0
  Ca  Ca252  1  0.12347167  0.10493083  0.26883964  1.0
  Ca  Ca253  1  0.12347167  0.43826417  0.26883964  1.0
  Ca  Ca254  1  0.12347167  0.77159750  0.26883964  1.0
  Ca  Ca255  1  0.45680500  0.10493083  0.26883964  1.0
  Ca  Ca256  1  0.45680500  0.43826417  0.26883964  1.0
  Ca  Ca257  1  0.45680500  0.77159750  0.26883964  1.0
  Ca  Ca258  1  0.79013833  0.10493083  0.26883964  1.0
  Ca  Ca259  1  0.79013833  0.43826417  0.26883964  1.0
  Ca  Ca260  1  0.79013833  0.77159750  0.26883964  1.0
  Ca  Ca261  1  0.12347167  0.27159750  0.19741107  1.0
  Ca  Ca262  1  0.12347167  0.60493083  0.19741107  1.0
  Ca  Ca263  1  0.12347167  0.93826417  0.19741107  1.0
  Ca  Ca264  1  0.45680500  0.27159750  0.19741107  1.0
  Ca  Ca265  1  0.45680500  0.60493083  0.19741107  1.0
  Ca  Ca266  1  0.45680500  0.93826417  0.19741107  1.0
  Ca  Ca267  1  0.79013833  0.27159750  0.19741107  1.0
  Ca  Ca268  1  0.79013833  0.60493083  0.19741107  1.0
  Ca  Ca269  1  0.79013833  0.93826417  0.19741107  1.0
  Ca  Ca270  1  0.29319500  0.02006917  0.23378036  1.0
  Ca  Ca271  1  0.29319500  0.35340250  0.23378036  1.0
  Ca  Ca272  1  0.29319500  0.68673583  0.23378036  1.0
  Ca  Ca273  1  0.62652833  0.02006917  0.23378036  1.0
  Ca  Ca274  1  0.62652833  0.35340250  0.23378036  1.0
  Ca  Ca275  1  0.62652833  0.68673583  0.23378036  1.0
  Ca  Ca276  1  0.95986167  0.02006917  0.23378036  1.0
  Ca  Ca277  1  0.95986167  0.35340250  0.23378036  1.0
  Ca  Ca278  1  0.95986167  0.68673583  0.23378036  1.0
  Ca  Ca279  1  0.29319500  0.18673583  0.16235179  1.0
  Ca  Ca280  1  0.29319500  0.52006917  0.16235179  1.0
  Ca  Ca281  1  0.29319500  0.85340250  0.16235179  1.0
  Ca  Ca282  1  0.62652833  0.18673583  0.16235179  1.0
  Ca  Ca283  1  0.62652833  0.52006917  0.16235179  1.0
  Ca  Ca284  1  0.62652833  0.85340250  0.16235179  1.0
  Ca  Ca285  1  0.95986167  0.18673583  0.16235179  1.0
  Ca  Ca286  1  0.95986167  0.52006917  0.16235179  1.0
  Ca  Ca287  1  0.95986167  0.85340250  0.16235179  1.0
  Ca  Ca288  1  0.29625167  0.10493083  0.19479107  1.0
  Ca  Ca289  1  0.29625167  0.43826417  0.19479107  1.0
  Ca  Ca290  1  0.29625167  0.77159750  0.19479107  1.0
  Ca  Ca291  1  0.62958500  0.10493083  0.19479107  1.0
  Ca  Ca292  1  0.62958500  0.43826417  0.19479107  1.0
  Ca  Ca293  1  0.62958500  0.77159750  0.19479107  1.0
  Ca  Ca294  1  0.96291833  0.10493083  0.19479107  1.0
  Ca  Ca295  1  0.96291833  0.43826417  0.19479107  1.0
  Ca  Ca296  1  0.96291833  0.77159750  0.19479107  1.0
  Ca  Ca297  1  0.29625167  0.27159750  0.26621964  1.0
  Ca  Ca298  1  0.29625167  0.60493083  0.26621964  1.0
  Ca  Ca299  1  0.29625167  0.93826417  0.26621964  1.0
  Ca  Ca300  1  0.62958500  0.27159750  0.26621964  1.0
  Ca  Ca301  1  0.62958500  0.60493083  0.26621964  1.0
  Ca  Ca302  1  0.62958500  0.93826417  0.26621964  1.0
  Ca  Ca303  1  0.96291833  0.27159750  0.26621964  1.0
  Ca  Ca304  1  0.96291833  0.60493083  0.26621964  1.0
  Ca  Ca305  1  0.96291833  0.93826417  0.26621964  1.0
  Ca  Ca306  1  0.12347167  0.10493083  0.19479107  1.0
  Ca  Ca307  1  0.12347167  0.43826417  0.19479107  1.0
  Ca  Ca308  1  0.12347167  0.77159750  0.19479107  1.0
  Ca  Ca309  1  0.45680500  0.10493083  0.19479107  1.0
  Ca  Ca310  1  0.45680500  0.43826417  0.19479107  1.0
  Ca  Ca311  1  0.45680500  0.77159750  0.19479107  1.0
  Ca  Ca312  1  0.79013833  0.10493083  0.19479107  1.0
  Ca  Ca313  1  0.79013833  0.43826417  0.19479107  1.0
  Ca  Ca314  1  0.79013833  0.77159750  0.19479107  1.0
  Ca  Ca315  1  0.12347167  0.27159750  0.26621964  1.0
  Ca  Ca316  1  0.12347167  0.60493083  0.26621964  1.0
  Ca  Ca317  1  0.12347167  0.93826417  0.26621964  1.0
  Ca  Ca318  1  0.45680500  0.27159750  0.26621964  1.0
  Ca  Ca319  1  0.45680500  0.60493083  0.26621964  1.0
  Ca  Ca320  1  0.45680500  0.93826417  0.26621964  1.0
  Ca  Ca321  1  0.79013833  0.27159750  0.26621964  1.0
  Ca  Ca322  1  0.79013833  0.60493083  0.26621964  1.0
  Ca  Ca323  1  0.79013833  0.93826417  0.26621964  1.0
  Ni  Ni324  1  0.16666667  0.08333333  0.24107143  1.0
  Ni  Ni325  1  0.16666667  0.41666667  0.24107143  1.0
  Ni  Ni326  1  0.16666667  0.75000000  0.24107143  1.0
  Ni  Ni327  1  0.50000000  0.08333333  0.24107143  1.0
  Ni  Ni328  1  0.50000000  0.41666667  0.24107143  1.0
  Ni  Ni329  1  0.50000000  0.75000000  0.24107143  1.0
  Ni  Ni330  1  0.83333333  0.08333333  0.24107143  1.0
  Ni  Ni331  1  0.83333333  0.41666667  0.24107143  1.0
  Ni  Ni332  1  0.83333333  0.75000000  0.24107143  1.0
  Ni  Ni333  1  0.16666667  0.25000000  0.16964286  1.0
  Ni  Ni334  1  0.16666667  0.58333333  0.16964286  1.0
  Ni  Ni335  1  0.16666667  0.91666667  0.16964286  1.0
  Ni  Ni336  1  0.50000000  0.25000000  0.16964286  1.0
  Ni  Ni337  1  0.50000000  0.58333333  0.16964286  1.0
  Ni  Ni338  1  0.50000000  0.91666667  0.16964286  1.0
  Ni  Ni339  1  0.83333333  0.25000000  0.16964286  1.0
  Ni  Ni340  1  0.83333333  0.58333333  0.16964286  1.0
  Ni  Ni341  1  0.83333333  0.91666667  0.16964286  1.0
  Ni  Ni342  1  0.25000000  0.04166667  0.18750000  1.0
  Ni  Ni343  1  0.25000000  0.37500000  0.18750000  1.0
  Ni  Ni344  1  0.25000000  0.70833333  0.18750000  1.0
  Ni  Ni345  1  0.58333333  0.04166667  0.18750000  1.0
  Ni  Ni346  1  0.58333333  0.37500000  0.18750000  1.0
  Ni  Ni347  1  0.58333333  0.70833333  0.18750000  1.0
  Ni  Ni348  1  0.91666667  0.04166667  0.18750000  1.0
  Ni  Ni349  1  0.91666667  0.37500000  0.18750000  1.0
  Ni  Ni350  1  0.91666667  0.70833333  0.18750000  1.0
  Ni  Ni351  1  0.25000000  0.20833333  0.25892857  1.0
  Ni  Ni352  1  0.25000000  0.54166667  0.25892857  1.0
  Ni  Ni353  1  0.25000000  0.87500000  0.25892857  1.0
  Ni  Ni354  1  0.58333333  0.20833333  0.25892857  1.0
  Ni  Ni355  1  0.58333333  0.54166667  0.25892857  1.0
  Ni  Ni356  1  0.58333333  0.87500000  0.25892857  1.0
  Ni  Ni357  1  0.91666667  0.20833333  0.25892857  1.0
  Ni  Ni358  1  0.91666667  0.54166667  0.25892857  1.0
  Ni  Ni359  1  0.91666667  0.87500000  0.25892857  1.0
  Ca  Ca360  1  0.29319500  0.02006917  0.30258893  1.0
  Ca  Ca361  1  0.29319500  0.35340250  0.30258893  1.0
  Ca  Ca362  1  0.29319500  0.68673583  0.30258893  1.0
  Ca  Ca363  1  0.62652833  0.02006917  0.30258893  1.0
  Ca  Ca364  1  0.62652833  0.35340250  0.30258893  1.0
  Ca  Ca365  1  0.62652833  0.68673583  0.30258893  1.0
  Ca  Ca366  1  0.95986167  0.02006917  0.30258893  1.0
  Ca  Ca367  1  0.95986167  0.35340250  0.30258893  1.0
  Ca  Ca368  1  0.95986167  0.68673583  0.30258893  1.0
  Ca  Ca369  1  0.29319500  0.18673583  0.37401750  1.0
  Ca  Ca370  1  0.29319500  0.52006917  0.37401750  1.0
  Ca  Ca371  1  0.29319500  0.85340250  0.37401750  1.0
  Ca  Ca372  1  0.62652833  0.18673583  0.37401750  1.0
  Ca  Ca373  1  0.62652833  0.52006917  0.37401750  1.0
  Ca  Ca374  1  0.62652833  0.85340250  0.37401750  1.0
  Ca  Ca375  1  0.95986167  0.18673583  0.37401750  1.0
  Ca  Ca376  1  0.95986167  0.52006917  0.37401750  1.0
  Ca  Ca377  1  0.95986167  0.85340250  0.37401750  1.0
  Ca  Ca378  1  0.29319500  0.10645917  0.40842179  1.0
  Ca  Ca379  1  0.29319500  0.43979250  0.40842179  1.0
  Ca  Ca380  1  0.29319500  0.77312583  0.40842179  1.0
  Ca  Ca381  1  0.62652833  0.10645917  0.40842179  1.0
  Ca  Ca382  1  0.62652833  0.43979250  0.40842179  1.0
  Ca  Ca383  1  0.62652833  0.77312583  0.40842179  1.0
  Ca  Ca384  1  0.95986167  0.10645917  0.40842179  1.0
  Ca  Ca385  1  0.95986167  0.43979250  0.40842179  1.0
  Ca  Ca386  1  0.95986167  0.77312583  0.40842179  1.0
  Ca  Ca387  1  0.29319500  0.27312583  0.33699321  1.0
  Ca  Ca388  1  0.29319500  0.60645917  0.33699321  1.0
  Ca  Ca389  1  0.29319500  0.93979250  0.33699321  1.0
  Ca  Ca390  1  0.62652833  0.27312583  0.33699321  1.0
  Ca  Ca391  1  0.62652833  0.60645917  0.33699321  1.0
  Ca  Ca392  1  0.62652833  0.93979250  0.33699321  1.0
  Ca  Ca393  1  0.95986167  0.27312583  0.33699321  1.0
  Ca  Ca394  1  0.95986167  0.60645917  0.33699321  1.0
  Ca  Ca395  1  0.95986167  0.93979250  0.33699321  1.0
  Ca  Ca396  1  0.12041500  0.02006917  0.37663750  1.0
  Ca  Ca397  1  0.12041500  0.35340250  0.37663750  1.0
  Ca  Ca398  1  0.12041500  0.68673583  0.37663750  1.0
  Ca  Ca399  1  0.45374833  0.02006917  0.37663750  1.0
  Ca  Ca400  1  0.45374833  0.35340250  0.37663750  1.0
  Ca  Ca401  1  0.45374833  0.68673583  0.37663750  1.0
  Ca  Ca402  1  0.78708167  0.02006917  0.37663750  1.0
  Ca  Ca403  1  0.78708167  0.35340250  0.37663750  1.0
  Ca  Ca404  1  0.78708167  0.68673583  0.37663750  1.0
  Ca  Ca405  1  0.12041500  0.18673583  0.30520893  1.0
  Ca  Ca406  1  0.12041500  0.52006917  0.30520893  1.0
  Ca  Ca407  1  0.12041500  0.85340250  0.30520893  1.0
  Ca  Ca408  1  0.45374833  0.18673583  0.30520893  1.0
  Ca  Ca409  1  0.45374833  0.52006917  0.30520893  1.0
  Ca  Ca410  1  0.45374833  0.85340250  0.30520893  1.0
  Ca  Ca411  1  0.78708167  0.18673583  0.30520893  1.0
  Ca  Ca412  1  0.78708167  0.52006917  0.30520893  1.0
  Ca  Ca413  1  0.78708167  0.85340250  0.30520893  1.0
  Ca  Ca414  1  0.12347167  0.01854083  0.30586393  1.0
  Ca  Ca415  1  0.12347167  0.35187417  0.30586393  1.0
  Ca  Ca416  1  0.12347167  0.68520750  0.30586393  1.0
  Ca  Ca417  1  0.45680500  0.01854083  0.30586393  1.0
  Ca  Ca418  1  0.45680500  0.35187417  0.30586393  1.0
  Ca  Ca419  1  0.45680500  0.68520750  0.30586393  1.0
  Ca  Ca420  1  0.79013833  0.01854083  0.30586393  1.0
  Ca  Ca421  1  0.79013833  0.35187417  0.30586393  1.0
  Ca  Ca422  1  0.79013833  0.68520750  0.30586393  1.0
  Ca  Ca423  1  0.12347167  0.18520750  0.37729250  1.0
  Ca  Ca424  1  0.12347167  0.51854083  0.37729250  1.0
  Ca  Ca425  1  0.12347167  0.85187417  0.37729250  1.0
  Ca  Ca426  1  0.45680500  0.18520750  0.37729250  1.0
  Ca  Ca427  1  0.45680500  0.51854083  0.37729250  1.0
  Ca  Ca428  1  0.45680500  0.85187417  0.37729250  1.0
  Ca  Ca429  1  0.79013833  0.18520750  0.37729250  1.0
  Ca  Ca430  1  0.79013833  0.51854083  0.37729250  1.0
  Ca  Ca431  1  0.79013833  0.85187417  0.37729250  1.0
  Ca  Ca432  1  0.12347167  0.10493083  0.41169679  1.0
  Ca  Ca433  1  0.12347167  0.43826417  0.41169679  1.0
  Ca  Ca434  1  0.12347167  0.77159750  0.41169679  1.0
  Ca  Ca435  1  0.45680500  0.10493083  0.41169679  1.0
  Ca  Ca436  1  0.45680500  0.43826417  0.41169679  1.0
  Ca  Ca437  1  0.45680500  0.77159750  0.41169679  1.0
  Ca  Ca438  1  0.79013833  0.10493083  0.41169679  1.0
  Ca  Ca439  1  0.79013833  0.43826417  0.41169679  1.0
  Ca  Ca440  1  0.79013833  0.77159750  0.41169679  1.0
  Ca  Ca441  1  0.12347167  0.27159750  0.34026821  1.0
  Ca  Ca442  1  0.12347167  0.60493083  0.34026821  1.0
  Ca  Ca443  1  0.12347167  0.93826417  0.34026821  1.0
  Ca  Ca444  1  0.45680500  0.27159750  0.34026821  1.0
  Ca  Ca445  1  0.45680500  0.60493083  0.34026821  1.0
  Ca  Ca446  1  0.45680500  0.93826417  0.34026821  1.0
  Ca  Ca447  1  0.79013833  0.27159750  0.34026821  1.0
  Ca  Ca448  1  0.79013833  0.60493083  0.34026821  1.0
  Ca  Ca449  1  0.79013833  0.93826417  0.34026821  1.0
  Ca  Ca450  1  0.29319500  0.02006917  0.37663750  1.0
  Ca  Ca451  1  0.29319500  0.35340250  0.37663750  1.0
  Ca  Ca452  1  0.29319500  0.68673583  0.37663750  1.0
  Ca  Ca453  1  0.62652833  0.02006917  0.37663750  1.0
  Ca  Ca454  1  0.62652833  0.35340250  0.37663750  1.0
  Ca  Ca455  1  0.62652833  0.68673583  0.37663750  1.0
  Ca  Ca456  1  0.95986167  0.02006917  0.37663750  1.0
  Ca  Ca457  1  0.95986167  0.35340250  0.37663750  1.0
  Ca  Ca458  1  0.95986167  0.68673583  0.37663750  1.0
  Ca  Ca459  1  0.29319500  0.18673583  0.30520893  1.0
  Ca  Ca460  1  0.29319500  0.52006917  0.30520893  1.0
  Ca  Ca461  1  0.29319500  0.85340250  0.30520893  1.0
  Ca  Ca462  1  0.62652833  0.18673583  0.30520893  1.0
  Ca  Ca463  1  0.62652833  0.52006917  0.30520893  1.0
  Ca  Ca464  1  0.62652833  0.85340250  0.30520893  1.0
  Ca  Ca465  1  0.95986167  0.18673583  0.30520893  1.0
  Ca  Ca466  1  0.95986167  0.52006917  0.30520893  1.0
  Ca  Ca467  1  0.95986167  0.85340250  0.30520893  1.0
  Ca  Ca468  1  0.29625167  0.10493083  0.33764821  1.0
  Ca  Ca469  1  0.29625167  0.43826417  0.33764821  1.0
  Ca  Ca470  1  0.29625167  0.77159750  0.33764821  1.0
  Ca  Ca471  1  0.62958500  0.10493083  0.33764821  1.0
  Ca  Ca472  1  0.62958500  0.43826417  0.33764821  1.0
  Ca  Ca473  1  0.62958500  0.77159750  0.33764821  1.0
  Ca  Ca474  1  0.96291833  0.10493083  0.33764821  1.0
  Ca  Ca475  1  0.96291833  0.43826417  0.33764821  1.0
  Ca  Ca476  1  0.96291833  0.77159750  0.33764821  1.0
  Ca  Ca477  1  0.29625167  0.27159750  0.40907679  1.0
  Ca  Ca478  1  0.29625167  0.60493083  0.40907679  1.0
  Ca  Ca479  1  0.29625167  0.93826417  0.40907679  1.0
  Ca  Ca480  1  0.62958500  0.27159750  0.40907679  1.0
  Ca  Ca481  1  0.62958500  0.60493083  0.40907679  1.0
  Ca  Ca482  1  0.62958500  0.93826417  0.40907679  1.0
  Ca  Ca483  1  0.96291833  0.27159750  0.40907679  1.0
  Ca  Ca484  1  0.96291833  0.60493083  0.40907679  1.0
  Ca  Ca485  1  0.96291833  0.93826417  0.40907679  1.0
  Ca  Ca486  1  0.12347167  0.10493083  0.33764821  1.0
  Ca  Ca487  1  0.12347167  0.43826417  0.33764821  1.0
  Ca  Ca488  1  0.12347167  0.77159750  0.33764821  1.0
  Ca  Ca489  1  0.45680500  0.10493083  0.33764821  1.0
  Ca  Ca490  1  0.45680500  0.43826417  0.33764821  1.0
  Ca  Ca491  1  0.45680500  0.77159750  0.33764821  1.0
  Ca  Ca492  1  0.79013833  0.10493083  0.33764821  1.0
  Ca  Ca493  1  0.79013833  0.43826417  0.33764821  1.0
  Ca  Ca494  1  0.79013833  0.77159750  0.33764821  1.0
  Ca  Ca495  1  0.12347167  0.27159750  0.40907679  1.0
  Ca  Ca496  1  0.12347167  0.60493083  0.40907679  1.0
  Ca  Ca497  1  0.12347167  0.93826417  0.40907679  1.0
  Ca  Ca498  1  0.45680500  0.27159750  0.40907679  1.0
  Ca  Ca499  1  0.45680500  0.60493083  0.40907679  1.0
  Ca  Ca500  1  0.45680500  0.93826417  0.40907679  1.0
  Ca  Ca501  1  0.79013833  0.27159750  0.40907679  1.0
  Ca  Ca502  1  0.79013833  0.60493083  0.40907679  1.0
  Ca  Ca503  1  0.79013833  0.93826417  0.40907679  1.0
  Ni  Ni504  1  0.16666667  0.08333333  0.38392857  1.0
  Ni  Ni505  1  0.16666667  0.41666667  0.38392857  1.0
  Ni  Ni506  1  0.16666667  0.75000000  0.38392857  1.0
  Ni  Ni507  1  0.50000000  0.08333333  0.38392857  1.0
  Ni  Ni508  1  0.50000000  0.41666667  0.38392857  1.0
  Ni  Ni509  1  0.50000000  0.75000000  0.38392857  1.0
  Ni  Ni510  1  0.83333333  0.08333333  0.38392857  1.0
  Ni  Ni511  1  0.83333333  0.41666667  0.38392857  1.0
  Ni  Ni512  1  0.83333333  0.75000000  0.38392857  1.0
  Ni  Ni513  1  0.16666667  0.25000000  0.31250000  1.0
  Ni  Ni514  1  0.16666667  0.58333333  0.31250000  1.0
  Ni  Ni515  1  0.16666667  0.91666667  0.31250000  1.0
  Ni  Ni516  1  0.50000000  0.25000000  0.31250000  1.0
  Ni  Ni517  1  0.50000000  0.58333333  0.31250000  1.0
  Ni  Ni518  1  0.50000000  0.91666667  0.31250000  1.0
  Ni  Ni519  1  0.83333333  0.25000000  0.31250000  1.0
  Ni  Ni520  1  0.83333333  0.58333333  0.31250000  1.0
  Ni  Ni521  1  0.83333333  0.91666667  0.31250000  1.0
  Ni  Ni522  1  0.25000000  0.04166667  0.33035714  1.0
  Ni  Ni523  1  0.25000000  0.37500000  0.33035714  1.0
  Ni  Ni524  1  0.25000000  0.70833333  0.33035714  1.0
  Ni  Ni525  1  0.58333333  0.04166667  0.33035714  1.0
  Ni  Ni526  1  0.58333333  0.37500000  0.33035714  1.0
  Ni  Ni527  1  0.58333333  0.70833333  0.33035714  1.0
  Ni  Ni528  1  0.91666667  0.04166667  0.33035714  1.0
  Ni  Ni529  1  0.91666667  0.37500000  0.33035714  1.0
  Ni  Ni530  1  0.91666667  0.70833333  0.33035714  1.0
  Ni  Ni531  1  0.25000000  0.20833333  0.40178571  1.0
  Ni  Ni532  1  0.25000000  0.54166667  0.40178571  1.0
  Ni  Ni533  1  0.25000000  0.87500000  0.40178571  1.0
  Ni  Ni534  1  0.58333333  0.20833333  0.40178571  1.0
  Ni  Ni535  1  0.58333333  0.54166667  0.40178571  1.0
  Ni  Ni536  1  0.58333333  0.87500000  0.40178571  1.0
  Ni  Ni537  1  0.91666667  0.20833333  0.40178571  1.0
  Ni  Ni538  1  0.91666667  0.54166667  0.40178571  1.0
  Ni  Ni539  1  0.91666667  0.87500000  0.40178571  1.0
