# generated using pymatgen
data_Ca4Ni
_symmetry_space_group_name_H-M   'P 1'
_cell_length_a   24.11089308
_cell_length_b   41.76129183
_cell_length_c   40.18482180
_cell_angle_alpha   73.22134512
_cell_angle_beta   60.00000000
_cell_angle_gamma   73.22134512
_symmetry_Int_Tables_number   1
_chemical_formula_structural   Ca4Ni
_chemical_formula_sum   'Ca288 Ni72'
_cell_volume   33037.23092151
_cell_formula_units_Z   72
loop_
 _symmetry_equiv_pos_site_id
 _symmetry_equiv_pos_as_xyz
  1  'x, y, z'
loop_
 _atom_site_type_symbol
 _atom_site_label
 _atom_site_symmetry_multiplicity
 _atom_site_fract_x
 _atom_site_fract_y
 _atom_site_fract_z
 _atom_site_occupancy
  Ca  Ca0  1  0.06020750  0.31326417  0.12729250  1.0
  Ca  Ca1  1  0.06020750  0.64659750  0.12729250  1.0
  Ca  Ca2  1  0.06020750  0.97993083  0.12729250  1.0
  Ca  Ca3  1  0.39354083  0.31326417  0.12729250  1.0
  Ca  Ca4  1  0.39354083  0.64659750  0.12729250  1.0
  Ca  Ca5  1  0.39354083  0.97993083  0.12729250  1.0
  Ca  Ca6  1  0.72687417  0.31326417  0.12729250  1.0
  Ca  Ca7  1  0.72687417  0.64659750  0.12729250  1.0
  Ca  Ca8  1  0.72687417  0.97993083  0.12729250  1.0
  Ca  Ca9  1  0.22687417  0.14659750  0.02729250  1.0
  Ca  Ca10  1  0.22687417  0.47993083  0.02729250  1.0
  Ca  Ca11  1  0.22687417  0.81326417  0.02729250  1.0
  Ca  Ca12  1  0.56020750  0.14659750  0.02729250  1.0
  Ca  Ca13  1  0.56020750  0.47993083  0.02729250  1.0
  Ca  Ca14  1  0.56020750  0.81326417  0.02729250  1.0
  Ca  Ca15  1  0.89354083  0.14659750  0.02729250  1.0
  Ca  Ca16  1  0.89354083  0.47993083  0.02729250  1.0
  Ca  Ca17  1  0.89354083  0.81326417  0.02729250  1.0
  Ca  Ca18  1  0.14659750  0.22687417  0.07545850  1.0
  Ca  Ca19  1  0.14659750  0.56020750  0.07545850  1.0
  Ca  Ca20  1  0.14659750  0.89354083  0.07545850  1.0
  Ca  Ca21  1  0.47993083  0.22687417  0.07545850  1.0
  Ca  Ca22  1  0.47993083  0.56020750  0.07545850  1.0
  Ca  Ca23  1  0.47993083  0.89354083  0.07545850  1.0
  Ca  Ca24  1  0.81326417  0.22687417  0.07545850  1.0
  Ca  Ca25  1  0.81326417  0.56020750  0.07545850  1.0
  Ca  Ca26  1  0.81326417  0.89354083  0.07545850  1.0
  Ca  Ca27  1  0.31326417  0.06020750  0.17545850  1.0
  Ca  Ca28  1  0.31326417  0.39354083  0.17545850  1.0
  Ca  Ca29  1  0.31326417  0.72687417  0.17545850  1.0
  Ca  Ca30  1  0.64659750  0.06020750  0.17545850  1.0
  Ca  Ca31  1  0.64659750  0.39354083  0.17545850  1.0
  Ca  Ca32  1  0.64659750  0.72687417  0.17545850  1.0
  Ca  Ca33  1  0.97993083  0.06020750  0.17545850  1.0
  Ca  Ca34  1  0.97993083  0.39354083  0.17545850  1.0
  Ca  Ca35  1  0.97993083  0.72687417  0.17545850  1.0
  Ca  Ca36  1  0.06020750  0.31326417  0.02362450  1.0
  Ca  Ca37  1  0.06020750  0.64659750  0.02362450  1.0
  Ca  Ca38  1  0.06020750  0.97993083  0.02362450  1.0
  Ca  Ca39  1  0.39354083  0.31326417  0.02362450  1.0
  Ca  Ca40  1  0.39354083  0.64659750  0.02362450  1.0
  Ca  Ca41  1  0.39354083  0.97993083  0.02362450  1.0
  Ca  Ca42  1  0.72687417  0.31326417  0.02362450  1.0
  Ca  Ca43  1  0.72687417  0.64659750  0.02362450  1.0
  Ca  Ca44  1  0.72687417  0.97993083  0.02362450  1.0
  Ca  Ca45  1  0.22687417  0.14659750  0.12362450  1.0
  Ca  Ca46  1  0.22687417  0.47993083  0.12362450  1.0
  Ca  Ca47  1  0.22687417  0.81326417  0.12362450  1.0
  Ca  Ca48  1  0.56020750  0.14659750  0.12362450  1.0
  Ca  Ca49  1  0.56020750  0.47993083  0.12362450  1.0
  Ca  Ca50  1  0.56020750  0.81326417  0.12362450  1.0
  Ca  Ca51  1  0.89354083  0.14659750  0.12362450  1.0
  Ca  Ca52  1  0.89354083  0.47993083  0.12362450  1.0
  Ca  Ca53  1  0.89354083  0.81326417  0.12362450  1.0
  Ca  Ca54  1  0.22840250  0.31479250  0.12454150  1.0
  Ca  Ca55  1  0.22840250  0.64812583  0.12454150  1.0
  Ca  Ca56  1  0.22840250  0.98145917  0.12454150  1.0
  Ca  Ca57  1  0.56173583  0.31479250  0.12454150  1.0
  Ca  Ca58  1  0.56173583  0.64812583  0.12454150  1.0
  Ca  Ca59  1  0.56173583  0.98145917  0.12454150  1.0
  Ca  Ca60  1  0.89506917  0.31479250  0.12454150  1.0
  Ca  Ca61  1  0.89506917  0.64812583  0.12454150  1.0
  Ca  Ca62  1  0.89506917  0.98145917  0.12454150  1.0
  Ca  Ca63  1  0.06173583  0.14812583  0.02454150  1.0
  Ca  Ca64  1  0.06173583  0.48145917  0.02454150  1.0
  Ca  Ca65  1  0.06173583  0.81479250  0.02454150  1.0
  Ca  Ca66  1  0.39506917  0.14812583  0.02454150  1.0
  Ca  Ca67  1  0.39506917  0.48145917  0.02454150  1.0
  Ca  Ca68  1  0.39506917  0.81479250  0.02454150  1.0
  Ca  Ca69  1  0.72840250  0.14812583  0.02454150  1.0
  Ca  Ca70  1  0.72840250  0.48145917  0.02454150  1.0
  Ca  Ca71  1  0.72840250  0.81479250  0.02454150  1.0
  Ca  Ca72  1  0.31479250  0.22840250  0.07270750  1.0
  Ca  Ca73  1  0.31479250  0.56173583  0.07270750  1.0
  Ca  Ca74  1  0.31479250  0.89506917  0.07270750  1.0
  Ca  Ca75  1  0.64812583  0.22840250  0.07270750  1.0
  Ca  Ca76  1  0.64812583  0.56173583  0.07270750  1.0
  Ca  Ca77  1  0.64812583  0.89506917  0.07270750  1.0
  Ca  Ca78  1  0.98145917  0.22840250  0.07270750  1.0
  Ca  Ca79  1  0.98145917  0.56173583  0.07270750  1.0
  Ca  Ca80  1  0.98145917  0.89506917  0.07270750  1.0
  Ca  Ca81  1  0.14812583  0.06173583  0.17270750  1.0
  Ca  Ca82  1  0.14812583  0.39506917  0.17270750  1.0
  Ca  Ca83  1  0.14812583  0.72840250  0.17270750  1.0
  Ca  Ca84  1  0.48145917  0.06173583  0.17270750  1.0
  Ca  Ca85  1  0.48145917  0.39506917  0.17270750  1.0
  Ca  Ca86  1  0.48145917  0.72840250  0.17270750  1.0
  Ca  Ca87  1  0.81479250  0.06173583  0.17270750  1.0
  Ca  Ca88  1  0.81479250  0.39506917  0.17270750  1.0
  Ca  Ca89  1  0.81479250  0.72840250  0.17270750  1.0
  Ca  Ca90  1  0.23298750  0.31326417  0.02362450  1.0
  Ca  Ca91  1  0.23298750  0.64659750  0.02362450  1.0
  Ca  Ca92  1  0.23298750  0.97993083  0.02362450  1.0
  Ca  Ca93  1  0.56632083  0.31326417  0.02362450  1.0
  Ca  Ca94  1  0.56632083  0.64659750  0.02362450  1.0
  Ca  Ca95  1  0.56632083  0.97993083  0.02362450  1.0
  Ca  Ca96  1  0.89965417  0.31326417  0.02362450  1.0
  Ca  Ca97  1  0.89965417  0.64659750  0.02362450  1.0
  Ca  Ca98  1  0.89965417  0.97993083  0.02362450  1.0
  Ca  Ca99  1  0.06632083  0.14659750  0.12362450  1.0
  Ca  Ca100  1  0.06632083  0.47993083  0.12362450  1.0
  Ca  Ca101  1  0.06632083  0.81326417  0.12362450  1.0
  Ca  Ca102  1  0.39965417  0.14659750  0.12362450  1.0
  Ca  Ca103  1  0.39965417  0.47993083  0.12362450  1.0
  Ca  Ca104  1  0.39965417  0.81326417  0.12362450  1.0
  Ca  Ca105  1  0.73298750  0.14659750  0.12362450  1.0
  Ca  Ca106  1  0.73298750  0.47993083  0.12362450  1.0
  Ca  Ca107  1  0.73298750  0.81326417  0.12362450  1.0
  Ca  Ca108  1  0.31479250  0.22840250  0.17637550  1.0
  Ca  Ca109  1  0.31479250  0.56173583  0.17637550  1.0
  Ca  Ca110  1  0.31479250  0.89506917  0.17637550  1.0
  Ca  Ca111  1  0.64812583  0.22840250  0.17637550  1.0
  Ca  Ca112  1  0.64812583  0.56173583  0.17637550  1.0
  Ca  Ca113  1  0.64812583  0.89506917  0.17637550  1.0
  Ca  Ca114  1  0.98145917  0.22840250  0.17637550  1.0
  Ca  Ca115  1  0.98145917  0.56173583  0.17637550  1.0
  Ca  Ca116  1  0.98145917  0.89506917  0.17637550  1.0
  Ca  Ca117  1  0.14812583  0.06173583  0.07637550  1.0
  Ca  Ca118  1  0.14812583  0.39506917  0.07637550  1.0
  Ca  Ca119  1  0.14812583  0.72840250  0.07637550  1.0
  Ca  Ca120  1  0.48145917  0.06173583  0.07637550  1.0
  Ca  Ca121  1  0.48145917  0.39506917  0.07637550  1.0
  Ca  Ca122  1  0.48145917  0.72840250  0.07637550  1.0
  Ca  Ca123  1  0.81479250  0.06173583  0.07637550  1.0
  Ca  Ca124  1  0.81479250  0.39506917  0.07637550  1.0
  Ca  Ca125  1  0.81479250  0.72840250  0.07637550  1.0
  Ca  Ca126  1  0.14201250  0.22840250  0.17637550  1.0
  Ca  Ca127  1  0.14201250  0.56173583  0.17637550  1.0
  Ca  Ca128  1  0.14201250  0.89506917  0.17637550  1.0
  Ca  Ca129  1  0.47534583  0.22840250  0.17637550  1.0
  Ca  Ca130  1  0.47534583  0.56173583  0.17637550  1.0
  Ca  Ca131  1  0.47534583  0.89506917  0.17637550  1.0
  Ca  Ca132  1  0.80867917  0.22840250  0.17637550  1.0
  Ca  Ca133  1  0.80867917  0.56173583  0.17637550  1.0
  Ca  Ca134  1  0.80867917  0.89506917  0.17637550  1.0
  Ca  Ca135  1  0.30867917  0.06173583  0.07637550  1.0
  Ca  Ca136  1  0.30867917  0.39506917  0.07637550  1.0
  Ca  Ca137  1  0.30867917  0.72840250  0.07637550  1.0
  Ca  Ca138  1  0.64201250  0.06173583  0.07637550  1.0
  Ca  Ca139  1  0.64201250  0.39506917  0.07637550  1.0
  Ca  Ca140  1  0.64201250  0.72840250  0.07637550  1.0
  Ca  Ca141  1  0.97534583  0.06173583  0.07637550  1.0
  Ca  Ca142  1  0.97534583  0.39506917  0.07637550  1.0
  Ca  Ca143  1  0.97534583  0.72840250  0.07637550  1.0
  Ni  Ni144  1  0.25000000  0.25000000  0.13750000  1.0
  Ni  Ni145  1  0.25000000  0.58333333  0.13750000  1.0
  Ni  Ni146  1  0.25000000  0.91666667  0.13750000  1.0
  Ni  Ni147  1  0.58333333  0.25000000  0.13750000  1.0
  Ni  Ni148  1  0.58333333  0.58333333  0.13750000  1.0
  Ni  Ni149  1  0.58333333  0.91666667  0.13750000  1.0
  Ni  Ni150  1  0.91666667  0.25000000  0.13750000  1.0
  Ni  Ni151  1  0.91666667  0.58333333  0.13750000  1.0
  Ni  Ni152  1  0.91666667  0.91666667  0.13750000  1.0
  Ni  Ni153  1  0.08333333  0.08333333  0.03750000  1.0
  Ni  Ni154  1  0.08333333  0.41666667  0.03750000  1.0
  Ni  Ni155  1  0.08333333  0.75000000  0.03750000  1.0
  Ni  Ni156  1  0.41666667  0.08333333  0.03750000  1.0
  Ni  Ni157  1  0.41666667  0.41666667  0.03750000  1.0
  Ni  Ni158  1  0.41666667  0.75000000  0.03750000  1.0
  Ni  Ni159  1  0.75000000  0.08333333  0.03750000  1.0
  Ni  Ni160  1  0.75000000  0.41666667  0.03750000  1.0
  Ni  Ni161  1  0.75000000  0.75000000  0.03750000  1.0
  Ni  Ni162  1  0.12500000  0.29166667  0.06250000  1.0
  Ni  Ni163  1  0.12500000  0.62500000  0.06250000  1.0
  Ni  Ni164  1  0.12500000  0.95833333  0.06250000  1.0
  Ni  Ni165  1  0.45833333  0.29166667  0.06250000  1.0
  Ni  Ni166  1  0.45833333  0.62500000  0.06250000  1.0
  Ni  Ni167  1  0.45833333  0.95833333  0.06250000  1.0
  Ni  Ni168  1  0.79166667  0.29166667  0.06250000  1.0
  Ni  Ni169  1  0.79166667  0.62500000  0.06250000  1.0
  Ni  Ni170  1  0.79166667  0.95833333  0.06250000  1.0
  Ni  Ni171  1  0.29166667  0.12500000  0.16250000  1.0
  Ni  Ni172  1  0.29166667  0.45833333  0.16250000  1.0
  Ni  Ni173  1  0.29166667  0.79166667  0.16250000  1.0
  Ni  Ni174  1  0.62500000  0.12500000  0.16250000  1.0
  Ni  Ni175  1  0.62500000  0.45833333  0.16250000  1.0
  Ni  Ni176  1  0.62500000  0.79166667  0.16250000  1.0
  Ni  Ni177  1  0.95833333  0.12500000  0.16250000  1.0
  Ni  Ni178  1  0.95833333  0.45833333  0.16250000  1.0
  Ni  Ni179  1  0.95833333  0.79166667  0.16250000  1.0
  Ca  Ca180  1  0.06020750  0.31326417  0.32729250  1.0
  Ca  Ca181  1  0.06020750  0.64659750  0.32729250  1.0
  Ca  Ca182  1  0.06020750  0.97993083  0.32729250  1.0
  Ca  Ca183  1  0.39354083  0.31326417  0.32729250  1.0
  Ca  Ca184  1  0.39354083  0.64659750  0.32729250  1.0
  Ca  Ca185  1  0.39354083  0.97993083  0.32729250  1.0
  Ca  Ca186  1  0.72687417  0.31326417  0.32729250  1.0
  Ca  Ca187  1  0.72687417  0.64659750  0.32729250  1.0
  Ca  Ca188  1  0.72687417  0.97993083  0.32729250  1.0
  Ca  Ca189  1  0.22687417  0.14659750  0.22729250  1.0
  Ca  Ca190  1  0.22687417  0.47993083  0.22729250  1.0
  Ca  Ca191  1  0.22687417  0.81326417  0.22729250  1.0
  Ca  Ca192  1  0.56020750  0.14659750  0.22729250  1.0
  Ca  Ca193  1  0.56020750  0.47993083  0.22729250  1.0
  Ca  Ca194  1  0.56020750  0.81326417  0.22729250  1.0
  Ca  Ca195  1  0.89354083  0.14659750  0.22729250  1.0
  Ca  Ca196  1  0.89354083  0.47993083  0.22729250  1.0
  Ca  Ca197  1  0.89354083  0.81326417  0.22729250  1.0
  Ca  Ca198  1  0.14659750  0.22687417  0.27545850  1.0
  Ca  Ca199  1  0.14659750  0.56020750  0.27545850  1.0
  Ca  Ca200  1  0.14659750  0.89354083  0.27545850  1.0
  Ca  Ca201  1  0.47993083  0.22687417  0.27545850  1.0
  Ca  Ca202  1  0.47993083  0.56020750  0.27545850  1.0
  Ca  Ca203  1  0.47993083  0.89354083  0.27545850  1.0
  Ca  Ca204  1  0.81326417  0.22687417  0.27545850  1.0
  Ca  Ca205  1  0.81326417  0.56020750  0.27545850  1.0
  Ca  Ca206  1  0.81326417  0.89354083  0.27545850  1.0
  Ca  Ca207  1  0.31326417  0.06020750  0.37545850  1.0
  Ca  Ca208  1  0.31326417  0.39354083  0.37545850  1.0
  Ca  Ca209  1  0.31326417  0.72687417  0.37545850  1.0
  Ca  Ca210  1  0.64659750  0.06020750  0.37545850  1.0
  Ca  Ca211  1  0.64659750  0.39354083  0.37545850  1.0
  Ca  Ca212  1  0.64659750  0.72687417  0.37545850  1.0
  Ca  Ca213  1  0.97993083  0.06020750  0.37545850  1.0
  Ca  Ca214  1  0.97993083  0.39354083  0.37545850  1.0
  Ca  Ca215  1  0.97993083  0.72687417  0.37545850  1.0
  Ca  Ca216  1  0.06020750  0.31326417  0.22362450  1.0
  Ca  Ca217  1  0.06020750  0.64659750  0.22362450  1.0
  Ca  Ca218  1  0.06020750  0.97993083  0.22362450  1.0
  Ca  Ca219  1  0.39354083  0.31326417  0.22362450  1.0
  Ca  Ca220  1  0.39354083  0.64659750  0.22362450  1.0
  Ca  Ca221  1  0.39354083  0.97993083  0.22362450  1.0
  Ca  Ca222  1  0.72687417  0.31326417  0.22362450  1.0
  Ca  Ca223  1  0.72687417  0.64659750  0.22362450  1.0
  Ca  Ca224  1  0.72687417  0.97993083  0.22362450  1.0
  Ca  Ca225  1  0.22687417  0.14659750  0.32362450  1.0
  Ca  Ca226  1  0.22687417  0.47993083  0.32362450  1.0
  Ca  Ca227  1  0.22687417  0.81326417  0.32362450  1.0
  Ca  Ca228  1  0.56020750  0.14659750  0.32362450  1.0
  Ca  Ca229  1  0.56020750  0.47993083  0.32362450  1.0
  Ca  Ca230  1  0.56020750  0.81326417  0.32362450  1.0
  Ca  Ca231  1  0.89354083  0.14659750  0.32362450  1.0
  Ca  Ca232  1  0.89354083  0.47993083  0.32362450  1.0
  Ca  Ca233  1  0.89354083  0.81326417  0.32362450  1.0
  Ca  Ca234  1  0.22840250  0.31479250  0.32454150  1.0
  Ca  Ca235  1  0.22840250  0.64812583  0.32454150  1.0
  Ca  Ca236  1  0.22840250  0.98145917  0.32454150  1.0
  Ca  Ca237  1  0.56173583  0.31479250  0.32454150  1.0
  Ca  Ca238  1  0.56173583  0.64812583  0.32454150  1.0
  Ca  Ca239  1  0.56173583  0.98145917  0.32454150  1.0
  Ca  Ca240  1  0.89506917  0.31479250  0.32454150  1.0
  Ca  Ca241  1  0.89506917  0.64812583  0.32454150  1.0
  Ca  Ca242  1  0.89506917  0.98145917  0.32454150  1.0
  Ca  Ca243  1  0.06173583  0.14812583  0.22454150  1.0
  Ca  Ca244  1  0.06173583  0.48145917  0.22454150  1.0
  Ca  Ca245  1  0.06173583  0.81479250  0.22454150  1.0
  Ca  Ca246  1  0.39506917  0.14812583  0.22454150  1.0
  Ca  Ca247  1  0.39506917  0.48145917  0.22454150  1.0
  Ca  Ca248  1  0.39506917  0.81479250  0.22454150  1.0
  Ca  Ca249  1  0.72840250  0.14812583  0.22454150  1.0
  Ca  Ca250  1  0.72840250  0.48145917  0.22454150  1.0
  Ca  Ca251  1  0.72840250  0.81479250  0.22454150  1.0
  Ca  Ca252  1  0.31479250  0.22840250  0.27270750  1.0
  Ca  Ca253  1  0.31479250  0.56173583  0.27270750  1.0
  Ca  Ca254  1  0.31479250  0.89506917  0.27270750  1.0
  Ca  Ca255  1  0.64812583  0.22840250  0.27270750  1.0
  Ca  Ca256  1  0.64812583  0.56173583  0.27270750  1.0
  Ca  Ca257  1  0.64812583  0.89506917  0.27270750  1.0
  Ca  Ca258  1  0.98145917  0.22840250  0.27270750  1.0
  Ca  Ca259  1  0.98145917  0.56173583  0.27270750  1.0
  Ca  Ca260  1  0.98145917  0.89506917  0.27270750  1.0
  Ca  Ca261  1  0.14812583  0.06173583  0.37270750  1.0
  Ca  Ca262  1  0.14812583  0.39506917  0.37270750  1.0
  Ca  Ca263  1  0.14812583  0.72840250  0.37270750  1.0
  Ca  Ca264  1  0.48145917  0.06173583  0.37270750  1.0
  Ca  Ca265  1  0.48145917  0.39506917  0.37270750  1.0
  Ca  Ca266  1  0.48145917  0.72840250  0.37270750  1.0
  Ca  Ca267  1  0.81479250  0.06173583  0.37270750  1.0
  Ca  Ca268  1  0.81479250  0.39506917  0.37270750  1.0
  Ca  Ca269  1  0.81479250  0.72840250  0.37270750  1.0
  Ca  Ca270  1  0.23298750  0.31326417  0.22362450  1.0
  Ca  Ca271  1  0.23298750  0.64659750  0.22362450  1.0
  Ca  Ca272  1  0.23298750  0.97993083  0.22362450  1.0
  Ca  Ca273  1  0.56632083  0.31326417  0.22362450  1.0
  Ca  Ca274  1  0.56632083  0.64659750  0.22362450  1.0
  Ca  Ca275  1  0.56632083  0.97993083  0.22362450  1.0
  Ca  Ca276  1  0.89965417  0.31326417  0.22362450  1.0
  Ca  Ca277  1  0.89965417  0.64659750  0.22362450  1.0
  Ca  Ca278  1  0.89965417  0.97993083  0.22362450  1.0
  Ca  Ca279  1  0.06632083  0.14659750  0.32362450  1.0
  Ca  Ca280  1  0.06632083  0.47993083  0.32362450  1.0
  Ca  Ca281  1  0.06632083  0.81326417  0.32362450  1.0
  Ca  Ca282  1  0.39965417  0.14659750  0.32362450  1.0
  Ca  Ca283  1  0.39965417  0.47993083  0.32362450  1.0
  Ca  Ca284  1  0.39965417  0.81326417  0.32362450  1.0
  Ca  Ca285  1  0.73298750  0.14659750  0.32362450  1.0
  Ca  Ca286  1  0.73298750  0.47993083  0.32362450  1.0
  Ca  Ca287  1  0.73298750  0.81326417  0.32362450  1.0
  Ca  Ca288  1  0.31479250  0.22840250  0.37637550  1.0
  Ca  Ca289  1  0.31479250  0.56173583  0.37637550  1.0
  Ca  Ca290  1  0.31479250  0.89506917  0.37637550  1.0
  Ca  Ca291  1  0.64812583  0.22840250  0.37637550  1.0
  Ca  Ca292  1  0.64812583  0.56173583  0.37637550  1.0
  Ca  Ca293  1  0.64812583  0.89506917  0.37637550  1.0
  Ca  Ca294  1  0.98145917  0.22840250  0.37637550  1.0
  Ca  Ca295  1  0.98145917  0.56173583  0.37637550  1.0
  Ca  Ca296  1  0.98145917  0.89506917  0.37637550  1.0
  Ca  Ca297  1  0.14812583  0.06173583  0.27637550  1.0
  Ca  Ca298  1  0.14812583  0.39506917  0.27637550  1.0
  Ca  Ca299  1  0.14812583  0.72840250  0.27637550  1.0
  Ca  Ca300  1  0.48145917  0.06173583  0.27637550  1.0
  Ca  Ca301  1  0.48145917  0.39506917  0.27637550  1.0
  Ca  Ca302  1  0.48145917  0.72840250  0.27637550  1.0
  Ca  Ca303  1  0.81479250  0.06173583  0.27637550  1.0
  Ca  Ca304  1  0.81479250  0.39506917  0.27637550  1.0
  Ca  Ca305  1  0.81479250  0.72840250  0.27637550  1.0
  Ca  Ca306  1  0.14201250  0.22840250  0.37637550  1.0
  Ca  Ca307  1  0.14201250  0.56173583  0.37637550  1.0
  Ca  Ca308  1  0.14201250  0.89506917  0.37637550  1.0
  Ca  Ca309  1  0.47534583  0.22840250  0.37637550  1.0
  Ca  Ca310  1  0.47534583  0.56173583  0.37637550  1.0
  Ca  Ca311  1  0.47534583  0.89506917  0.37637550  1.0
  Ca  Ca312  1  0.80867917  0.22840250  0.37637550  1.0
  Ca  Ca313  1  0.80867917  0.56173583  0.37637550  1.0
  Ca  Ca314  1  0.80867917  0.89506917  0.37637550  1.0
  Ca  Ca315  1  0.30867917  0.06173583  0.27637550  1.0
  Ca  Ca316  1  0.30867917  0.39506917  0.27637550  1.0
  Ca  Ca317  1  0.30867917  0.72840250  0.27637550  1.0
  Ca  Ca318  1  0.64201250  0.06173583  0.27637550  1.0
  Ca  Ca319  1  0.64201250  0.39506917  0.27637550  1.0
  Ca  Ca320  1  0.64201250  0.72840250  0.27637550  1.0
  Ca  Ca321  1  0.97534583  0.06173583  0.27637550  1.0
  Ca  Ca322  1  0.97534583  0.39506917  0.27637550  1.0
  Ca  Ca323  1  0.97534583  0.72840250  0.27637550  1.0
  Ni  Ni324  1  0.25000000  0.25000000  0.33750000  1.0
  Ni  Ni325  1  0.25000000  0.58333333  0.33750000  1.0
  Ni  Ni326  1  0.25000000  0.91666667  0.33750000  1.0
  Ni  Ni327  1  0.58333333  0.25000000  0.33750000  1.0
  Ni  Ni328  1  0.58333333  0.58333333  0.33750000  1.0
  Ni  Ni329  1  0.58333333  0.91666667  0.33750000  1.0
  Ni  Ni330  1  0.91666667  0.25000000  0.33750000  1.0
  Ni  Ni331  1  0.91666667  0.58333333  0.33750000  1.0
  Ni  Ni332  1  0.91666667  0.91666667  0.33750000  1.0
  Ni  Ni333  1  0.08333333  0.08333333  0.23750000  1.0
  Ni  Ni334  1  0.08333333  0.41666667  0.23750000  1.0
  Ni  Ni335  1  0.08333333  0.75000000  0.23750000  1.0
  Ni  Ni336  1  0.41666667  0.08333333  0.23750000  1.0
  Ni  Ni337  1  0.41666667  0.41666667  0.23750000  1.0
  Ni  Ni338  1  0.41666667  0.75000000  0.23750000  1.0
  Ni  Ni339  1  0.75000000  0.08333333  0.23750000  1.0
  Ni  Ni340  1  0.75000000  0.41666667  0.23750000  1.0
  Ni  Ni341  1  0.75000000  0.75000000  0.23750000  1.0
  Ni  Ni342  1  0.12500000  0.29166667  0.26250000  1.0
  Ni  Ni343  1  0.12500000  0.62500000  0.26250000  1.0
  Ni  Ni344  1  0.12500000  0.95833333  0.26250000  1.0
  Ni  Ni345  1  0.45833333  0.29166667  0.26250000  1.0
  Ni  Ni346  1  0.45833333  0.62500000  0.26250000  1.0
  Ni  Ni347  1  0.45833333  0.95833333  0.26250000  1.0
  Ni  Ni348  1  0.79166667  0.29166667  0.26250000  1.0
  Ni  Ni349  1  0.79166667  0.62500000  0.26250000  1.0
  Ni  Ni350  1  0.79166667  0.95833333  0.26250000  1.0
  Ni  Ni351  1  0.29166667  0.12500000  0.36250000  1.0
  Ni  Ni352  1  0.29166667  0.45833333  0.36250000  1.0
  Ni  Ni353  1  0.29166667  0.79166667  0.36250000  1.0
  Ni  Ni354  1  0.62500000  0.12500000  0.36250000  1.0
  Ni  Ni355  1  0.62500000  0.45833333  0.36250000  1.0
  Ni  Ni356  1  0.62500000  0.79166667  0.36250000  1.0
  Ni  Ni357  1  0.95833333  0.12500000  0.36250000  1.0
  Ni  Ni358  1  0.95833333  0.45833333  0.36250000  1.0
  Ni  Ni359  1  0.95833333  0.79166667  0.36250000  1.0
