# generated using pymatgen
data_CaNi5
_symmetry_space_group_name_H-M   'P 1'
_cell_length_a   27.78463177
_cell_length_b   38.17711790
_cell_length_c   43.99776591
_cell_angle_alpha   136.30982873
_cell_angle_beta   137.45539210
_cell_angle_gamma   47.54979288
_symmetry_Int_Tables_number   1
_chemical_formula_structural   CaNi5
_chemical_formula_sum   'Ca108 Ni540'
_cell_volume   20762.96026328
_cell_formula_units_Z   108
loop_
 _symmetry_equiv_pos_site_id
 _symmetry_equiv_pos_as_xyz
  1  'x, y, z'
loop_
 _atom_site_type_symbol
 _atom_site_label
 _atom_site_symmetry_multiplicity
 _atom_site_fract_x
 _atom_site_fract_y
 _atom_site_fract_z
 _atom_site_occupancy
  Ca  Ca0  1  0.03836917  0.04496417  0.08669975  1.0
  Ca  Ca1  1  0.03836917  0.37829750  0.08669975  1.0
  Ca  Ca2  1  0.03836917  0.71163083  0.08669975  1.0
  Ca  Ca3  1  0.37170250  0.04496417  0.08669975  1.0
  Ca  Ca4  1  0.37170250  0.37829750  0.08669975  1.0
  Ca  Ca5  1  0.37170250  0.71163083  0.08669975  1.0
  Ca  Ca6  1  0.70503583  0.04496417  0.08669975  1.0
  Ca  Ca7  1  0.70503583  0.37829750  0.08669975  1.0
  Ca  Ca8  1  0.70503583  0.71163083  0.08669975  1.0
  Ca  Ca9  1  0.20503583  0.21163083  0.01527118  1.0
  Ca  Ca10  1  0.20503583  0.54496417  0.01527118  1.0
  Ca  Ca11  1  0.20503583  0.87829750  0.01527118  1.0
  Ca  Ca12  1  0.53836917  0.21163083  0.01527118  1.0
  Ca  Ca13  1  0.53836917  0.54496417  0.01527118  1.0
  Ca  Ca14  1  0.53836917  0.87829750  0.01527118  1.0
  Ca  Ca15  1  0.87170250  0.21163083  0.01527118  1.0
  Ca  Ca16  1  0.87170250  0.54496417  0.01527118  1.0
  Ca  Ca17  1  0.87170250  0.87829750  0.01527118  1.0
  Ca  Ca18  1  0.12829750  0.12170250  0.11958761  1.0
  Ca  Ca19  1  0.12829750  0.45503583  0.11958761  1.0
  Ca  Ca20  1  0.12829750  0.78836917  0.11958761  1.0
  Ca  Ca21  1  0.46163083  0.12170250  0.11958761  1.0
  Ca  Ca22  1  0.46163083  0.45503583  0.11958761  1.0
  Ca  Ca23  1  0.46163083  0.78836917  0.11958761  1.0
  Ca  Ca24  1  0.79496417  0.12170250  0.11958761  1.0
  Ca  Ca25  1  0.79496417  0.45503583  0.11958761  1.0
  Ca  Ca26  1  0.79496417  0.78836917  0.11958761  1.0
  Ca  Ca27  1  0.29496417  0.28836917  0.04815904  1.0
  Ca  Ca28  1  0.29496417  0.62170250  0.04815904  1.0
  Ca  Ca29  1  0.29496417  0.95503583  0.04815904  1.0
  Ca  Ca30  1  0.62829750  0.28836917  0.04815904  1.0
  Ca  Ca31  1  0.62829750  0.62170250  0.04815904  1.0
  Ca  Ca32  1  0.62829750  0.95503583  0.04815904  1.0
  Ca  Ca33  1  0.96163083  0.28836917  0.04815904  1.0
  Ca  Ca34  1  0.96163083  0.62170250  0.04815904  1.0
  Ca  Ca35  1  0.96163083  0.95503583  0.04815904  1.0
  Ni  Ni36  1  0.26885217  0.03676650  0.13085961  1.0
  Ni  Ni37  1  0.26885217  0.37009983  0.13085961  1.0
  Ni  Ni38  1  0.26885217  0.70343317  0.13085961  1.0
  Ni  Ni39  1  0.60218550  0.03676650  0.13085961  1.0
  Ni  Ni40  1  0.60218550  0.37009983  0.13085961  1.0
  Ni  Ni41  1  0.60218550  0.70343317  0.13085961  1.0
  Ni  Ni42  1  0.93551883  0.03676650  0.13085961  1.0
  Ni  Ni43  1  0.93551883  0.37009983  0.13085961  1.0
  Ni  Ni44  1  0.93551883  0.70343317  0.13085961  1.0
  Ni  Ni45  1  0.10218550  0.20343317  0.05943104  1.0
  Ni  Ni46  1  0.10218550  0.53676650  0.05943104  1.0
  Ni  Ni47  1  0.10218550  0.87009983  0.05943104  1.0
  Ni  Ni48  1  0.43551883  0.20343317  0.05943104  1.0
  Ni  Ni49  1  0.43551883  0.53676650  0.05943104  1.0
  Ni  Ni50  1  0.43551883  0.87009983  0.05943104  1.0
  Ni  Ni51  1  0.76885217  0.20343317  0.05943104  1.0
  Ni  Ni52  1  0.76885217  0.53676650  0.05943104  1.0
  Ni  Ni53  1  0.76885217  0.87009983  0.05943104  1.0
  Ni  Ni54  1  0.15761483  0.03676650  0.03551332  1.0
  Ni  Ni55  1  0.15761483  0.37009983  0.03551332  1.0
  Ni  Ni56  1  0.15761483  0.70343317  0.03551332  1.0
  Ni  Ni57  1  0.49094817  0.03676650  0.03551332  1.0
  Ni  Ni58  1  0.49094817  0.37009983  0.03551332  1.0
  Ni  Ni59  1  0.49094817  0.70343317  0.03551332  1.0
  Ni  Ni60  1  0.82428150  0.03676650  0.03551332  1.0
  Ni  Ni61  1  0.82428150  0.37009983  0.03551332  1.0
  Ni  Ni62  1  0.82428150  0.70343317  0.03551332  1.0
  Ni  Ni63  1  0.32428150  0.20343317  0.10694189  1.0
  Ni  Ni64  1  0.32428150  0.53676650  0.10694189  1.0
  Ni  Ni65  1  0.32428150  0.87009983  0.10694189  1.0
  Ni  Ni66  1  0.65761483  0.20343317  0.10694189  1.0
  Ni  Ni67  1  0.65761483  0.53676650  0.10694189  1.0
  Ni  Ni68  1  0.65761483  0.87009983  0.10694189  1.0
  Ni  Ni69  1  0.99094817  0.20343317  0.10694189  1.0
  Ni  Ni70  1  0.99094817  0.53676650  0.10694189  1.0
  Ni  Ni71  1  0.99094817  0.87009983  0.10694189  1.0
  Ni  Ni72  1  0.00905183  0.12990017  0.02791689  1.0
  Ni  Ni73  1  0.00905183  0.46323350  0.02791689  1.0
  Ni  Ni74  1  0.00905183  0.79656683  0.02791689  1.0
  Ni  Ni75  1  0.34238517  0.12990017  0.02791689  1.0
  Ni  Ni76  1  0.34238517  0.46323350  0.02791689  1.0
  Ni  Ni77  1  0.34238517  0.79656683  0.02791689  1.0
  Ni  Ni78  1  0.67571850  0.12990017  0.02791689  1.0
  Ni  Ni79  1  0.67571850  0.46323350  0.02791689  1.0
  Ni  Ni80  1  0.67571850  0.79656683  0.02791689  1.0
  Ni  Ni81  1  0.17571850  0.29656683  0.09934546  1.0
  Ni  Ni82  1  0.17571850  0.62990017  0.09934546  1.0
  Ni  Ni83  1  0.17571850  0.96323350  0.09934546  1.0
  Ni  Ni84  1  0.50905183  0.29656683  0.09934546  1.0
  Ni  Ni85  1  0.50905183  0.62990017  0.09934546  1.0
  Ni  Ni86  1  0.50905183  0.96323350  0.09934546  1.0
  Ni  Ni87  1  0.84238517  0.29656683  0.09934546  1.0
  Ni  Ni88  1  0.84238517  0.62990017  0.09934546  1.0
  Ni  Ni89  1  0.84238517  0.96323350  0.09934546  1.0
  Ni  Ni90  1  0.23114783  0.12990017  0.07542775  1.0
  Ni  Ni91  1  0.23114783  0.46323350  0.07542775  1.0
  Ni  Ni92  1  0.23114783  0.79656683  0.07542775  1.0
  Ni  Ni93  1  0.56448117  0.12990017  0.07542775  1.0
  Ni  Ni94  1  0.56448117  0.46323350  0.07542775  1.0
  Ni  Ni95  1  0.56448117  0.79656683  0.07542775  1.0
  Ni  Ni96  1  0.89781450  0.12990017  0.07542775  1.0
  Ni  Ni97  1  0.89781450  0.46323350  0.07542775  1.0
  Ni  Ni98  1  0.89781450  0.79656683  0.07542775  1.0
  Ni  Ni99  1  0.06448117  0.29656683  0.00399918  1.0
  Ni  Ni100  1  0.06448117  0.62990017  0.00399918  1.0
  Ni  Ni101  1  0.06448117  0.96323350  0.00399918  1.0
  Ni  Ni102  1  0.39781450  0.29656683  0.00399918  1.0
  Ni  Ni103  1  0.39781450  0.62990017  0.00399918  1.0
  Ni  Ni104  1  0.39781450  0.96323350  0.00399918  1.0
  Ni  Ni105  1  0.73114783  0.29656683  0.00399918  1.0
  Ni  Ni106  1  0.73114783  0.62990017  0.00399918  1.0
  Ni  Ni107  1  0.73114783  0.96323350  0.00399918  1.0
  Ni  Ni108  1  0.25000000  0.08333333  0.10314368  1.0
  Ni  Ni109  1  0.25000000  0.41666667  0.10314368  1.0
  Ni  Ni110  1  0.25000000  0.75000000  0.10314368  1.0
  Ni  Ni111  1  0.58333333  0.08333333  0.10314368  1.0
  Ni  Ni112  1  0.58333333  0.41666667  0.10314368  1.0
  Ni  Ni113  1  0.58333333  0.75000000  0.10314368  1.0
  Ni  Ni114  1  0.91666667  0.08333333  0.10314368  1.0
  Ni  Ni115  1  0.91666667  0.41666667  0.10314368  1.0
  Ni  Ni116  1  0.91666667  0.75000000  0.10314368  1.0
  Ni  Ni117  1  0.08333333  0.25000000  0.03171511  1.0
  Ni  Ni118  1  0.08333333  0.58333333  0.03171511  1.0
  Ni  Ni119  1  0.08333333  0.91666667  0.03171511  1.0
  Ni  Ni120  1  0.41666667  0.25000000  0.03171511  1.0
  Ni  Ni121  1  0.41666667  0.58333333  0.03171511  1.0
  Ni  Ni122  1  0.41666667  0.91666667  0.03171511  1.0
  Ni  Ni123  1  0.75000000  0.25000000  0.03171511  1.0
  Ni  Ni124  1  0.75000000  0.58333333  0.03171511  1.0
  Ni  Ni125  1  0.75000000  0.91666667  0.03171511  1.0
  Ni  Ni126  1  0.33333333  0.16666667  0.13885796  1.0
  Ni  Ni127  1  0.33333333  0.50000000  0.13885796  1.0
  Ni  Ni128  1  0.33333333  0.83333333  0.13885796  1.0
  Ni  Ni129  1  0.66666667  0.16666667  0.13885796  1.0
  Ni  Ni130  1  0.66666667  0.50000000  0.13885796  1.0
  Ni  Ni131  1  0.66666667  0.83333333  0.13885796  1.0
  Ni  Ni132  1  0.00000000  0.16666667  0.13885796  1.0
  Ni  Ni133  1  0.00000000  0.50000000  0.13885796  1.0
  Ni  Ni134  1  1.00000000  0.83333333  0.13885796  1.0
  Ni  Ni135  1  0.16666667  0.00000000  0.06742939  1.0
  Ni  Ni136  1  0.16666667  0.33333333  0.06742939  1.0
  Ni  Ni137  1  0.16666667  0.66666667  0.06742939  1.0
  Ni  Ni138  1  0.50000000  0.00000000  0.06742939  1.0
  Ni  Ni139  1  0.50000000  0.33333333  0.06742939  1.0
  Ni  Ni140  1  0.50000000  0.66666667  0.06742939  1.0
  Ni  Ni141  1  0.83333333  0.00000000  0.06742939  1.0
  Ni  Ni142  1  0.83333333  0.33333333  0.06742939  1.0
  Ni  Ni143  1  0.83333333  0.66666667  0.06742939  1.0
  Ni  Ni144  1  0.04328117  0.04328117  0.01454989  1.0
  Ni  Ni145  1  0.04328117  0.37661450  0.01454989  1.0
  Ni  Ni146  1  0.04328117  0.70994783  0.01454989  1.0
  Ni  Ni147  1  0.37661450  0.04328117  0.01454989  1.0
  Ni  Ni148  1  0.37661450  0.37661450  0.01454989  1.0
  Ni  Ni149  1  0.37661450  0.70994783  0.01454989  1.0
  Ni  Ni150  1  0.70994783  0.04328117  0.01454989  1.0
  Ni  Ni151  1  0.70994783  0.37661450  0.01454989  1.0
  Ni  Ni152  1  0.70994783  0.70994783  0.01454989  1.0
  Ni  Ni153  1  0.20994783  0.20994783  0.08597846  1.0
  Ni  Ni154  1  0.20994783  0.54328117  0.08597846  1.0
  Ni  Ni155  1  0.20994783  0.87661450  0.08597846  1.0
  Ni  Ni156  1  0.54328117  0.20994783  0.08597846  1.0
  Ni  Ni157  1  0.54328117  0.54328117  0.08597846  1.0
  Ni  Ni158  1  0.54328117  0.87661450  0.08597846  1.0
  Ni  Ni159  1  0.87661450  0.20994783  0.08597846  1.0
  Ni  Ni160  1  0.87661450  0.54328117  0.08597846  1.0
  Ni  Ni161  1  0.87661450  0.87661450  0.08597846  1.0
  Ni  Ni162  1  0.29005217  0.12338550  0.04888032  1.0
  Ni  Ni163  1  0.29005217  0.45671883  0.04888032  1.0
  Ni  Ni164  1  0.29005217  0.79005217  0.04888032  1.0
  Ni  Ni165  1  0.62338550  0.12338550  0.04888032  1.0
  Ni  Ni166  1  0.62338550  0.45671883  0.04888032  1.0
  Ni  Ni167  1  0.62338550  0.79005217  0.04888032  1.0
  Ni  Ni168  1  0.95671883  0.12338550  0.04888032  1.0
  Ni  Ni169  1  0.95671883  0.45671883  0.04888032  1.0
  Ni  Ni170  1  0.95671883  0.79005217  0.04888032  1.0
  Ni  Ni171  1  0.12338550  0.29005217  0.12030889  1.0
  Ni  Ni172  1  0.12338550  0.62338550  0.12030889  1.0
  Ni  Ni173  1  0.12338550  0.95671883  0.12030889  1.0
  Ni  Ni174  1  0.45671883  0.29005217  0.12030889  1.0
  Ni  Ni175  1  0.45671883  0.62338550  0.12030889  1.0
  Ni  Ni176  1  0.45671883  0.95671883  0.12030889  1.0
  Ni  Ni177  1  0.79005217  0.29005217  0.12030889  1.0
  Ni  Ni178  1  0.79005217  0.62338550  0.12030889  1.0
  Ni  Ni179  1  0.79005217  0.95671883  0.12030889  1.0
  Ni  Ni180  1  0.20994783  0.04328117  0.01454989  1.0
  Ni  Ni181  1  0.20994783  0.37661450  0.01454989  1.0
  Ni  Ni182  1  0.20994783  0.70994783  0.01454989  1.0
  Ni  Ni183  1  0.54328117  0.04328117  0.01454989  1.0
  Ni  Ni184  1  0.54328117  0.37661450  0.01454989  1.0
  Ni  Ni185  1  0.54328117  0.70994783  0.01454989  1.0
  Ni  Ni186  1  0.87661450  0.04328117  0.01454989  1.0
  Ni  Ni187  1  0.87661450  0.37661450  0.01454989  1.0
  Ni  Ni188  1  0.87661450  0.70994783  0.01454989  1.0
  Ni  Ni189  1  0.04328117  0.20994783  0.08597846  1.0
  Ni  Ni190  1  0.04328117  0.54328117  0.08597846  1.0
  Ni  Ni191  1  0.04328117  0.87661450  0.08597846  1.0
  Ni  Ni192  1  0.37661450  0.20994783  0.08597846  1.0
  Ni  Ni193  1  0.37661450  0.54328117  0.08597846  1.0
  Ni  Ni194  1  0.37661450  0.87661450  0.08597846  1.0
  Ni  Ni195  1  0.70994783  0.20994783  0.08597846  1.0
  Ni  Ni196  1  0.70994783  0.54328117  0.08597846  1.0
  Ni  Ni197  1  0.70994783  0.87661450  0.08597846  1.0
  Ni  Ni198  1  0.12338550  0.12338550  0.04888032  1.0
  Ni  Ni199  1  0.12338550  0.45671883  0.04888032  1.0
  Ni  Ni200  1  0.12338550  0.79005217  0.04888032  1.0
  Ni  Ni201  1  0.45671883  0.12338550  0.04888032  1.0
  Ni  Ni202  1  0.45671883  0.45671883  0.04888032  1.0
  Ni  Ni203  1  0.45671883  0.79005217  0.04888032  1.0
  Ni  Ni204  1  0.79005217  0.12338550  0.04888032  1.0
  Ni  Ni205  1  0.79005217  0.45671883  0.04888032  1.0
  Ni  Ni206  1  0.79005217  0.79005217  0.04888032  1.0
  Ni  Ni207  1  0.29005217  0.29005217  0.12030889  1.0
  Ni  Ni208  1  0.29005217  0.62338550  0.12030889  1.0
  Ni  Ni209  1  0.29005217  0.95671883  0.12030889  1.0
  Ni  Ni210  1  0.62338550  0.29005217  0.12030889  1.0
  Ni  Ni211  1  0.62338550  0.62338550  0.12030889  1.0
  Ni  Ni212  1  0.62338550  0.95671883  0.12030889  1.0
  Ni  Ni213  1  0.95671883  0.29005217  0.12030889  1.0
  Ni  Ni214  1  0.95671883  0.62338550  0.12030889  1.0
  Ni  Ni215  1  0.95671883  0.95671883  0.12030889  1.0
  Ca  Ca216  1  0.03836917  0.04496417  0.22955689  1.0
  Ca  Ca217  1  0.03836917  0.37829750  0.22955689  1.0
  Ca  Ca218  1  0.03836917  0.71163083  0.22955689  1.0
  Ca  Ca219  1  0.37170250  0.04496417  0.22955689  1.0
  Ca  Ca220  1  0.37170250  0.37829750  0.22955689  1.0
  Ca  Ca221  1  0.37170250  0.71163083  0.22955689  1.0
  Ca  Ca222  1  0.70503583  0.04496417  0.22955689  1.0
  Ca  Ca223  1  0.70503583  0.37829750  0.22955689  1.0
  Ca  Ca224  1  0.70503583  0.71163083  0.22955689  1.0
  Ca  Ca225  1  0.20503583  0.21163083  0.15812832  1.0
  Ca  Ca226  1  0.20503583  0.54496417  0.15812832  1.0
  Ca  Ca227  1  0.20503583  0.87829750  0.15812832  1.0
  Ca  Ca228  1  0.53836917  0.21163083  0.15812832  1.0
  Ca  Ca229  1  0.53836917  0.54496417  0.15812832  1.0
  Ca  Ca230  1  0.53836917  0.87829750  0.15812832  1.0
  Ca  Ca231  1  0.87170250  0.21163083  0.15812832  1.0
  Ca  Ca232  1  0.87170250  0.54496417  0.15812832  1.0
  Ca  Ca233  1  0.87170250  0.87829750  0.15812832  1.0
  Ca  Ca234  1  0.12829750  0.12170250  0.26244475  1.0
  Ca  Ca235  1  0.12829750  0.45503583  0.26244475  1.0
  Ca  Ca236  1  0.12829750  0.78836917  0.26244475  1.0
  Ca  Ca237  1  0.46163083  0.12170250  0.26244475  1.0
  Ca  Ca238  1  0.46163083  0.45503583  0.26244475  1.0
  Ca  Ca239  1  0.46163083  0.78836917  0.26244475  1.0
  Ca  Ca240  1  0.79496417  0.12170250  0.26244475  1.0
  Ca  Ca241  1  0.79496417  0.45503583  0.26244475  1.0
  Ca  Ca242  1  0.79496417  0.78836917  0.26244475  1.0
  Ca  Ca243  1  0.29496417  0.28836917  0.19101618  1.0
  Ca  Ca244  1  0.29496417  0.62170250  0.19101618  1.0
  Ca  Ca245  1  0.29496417  0.95503583  0.19101618  1.0
  Ca  Ca246  1  0.62829750  0.28836917  0.19101618  1.0
  Ca  Ca247  1  0.62829750  0.62170250  0.19101618  1.0
  Ca  Ca248  1  0.62829750  0.95503583  0.19101618  1.0
  Ca  Ca249  1  0.96163083  0.28836917  0.19101618  1.0
  Ca  Ca250  1  0.96163083  0.62170250  0.19101618  1.0
  Ca  Ca251  1  0.96163083  0.95503583  0.19101618  1.0
  Ni  Ni252  1  0.26885217  0.03676650  0.27371675  1.0
  Ni  Ni253  1  0.26885217  0.37009983  0.27371675  1.0
  Ni  Ni254  1  0.26885217  0.70343317  0.27371675  1.0
  Ni  Ni255  1  0.60218550  0.03676650  0.27371675  1.0
  Ni  Ni256  1  0.60218550  0.37009983  0.27371675  1.0
  Ni  Ni257  1  0.60218550  0.70343317  0.27371675  1.0
  Ni  Ni258  1  0.93551883  0.03676650  0.27371675  1.0
  Ni  Ni259  1  0.93551883  0.37009983  0.27371675  1.0
  Ni  Ni260  1  0.93551883  0.70343317  0.27371675  1.0
  Ni  Ni261  1  0.10218550  0.20343317  0.20228818  1.0
  Ni  Ni262  1  0.10218550  0.53676650  0.20228818  1.0
  Ni  Ni263  1  0.10218550  0.87009983  0.20228818  1.0
  Ni  Ni264  1  0.43551883  0.20343317  0.20228818  1.0
  Ni  Ni265  1  0.43551883  0.53676650  0.20228818  1.0
  Ni  Ni266  1  0.43551883  0.87009983  0.20228818  1.0
  Ni  Ni267  1  0.76885217  0.20343317  0.20228818  1.0
  Ni  Ni268  1  0.76885217  0.53676650  0.20228818  1.0
  Ni  Ni269  1  0.76885217  0.87009983  0.20228818  1.0
  Ni  Ni270  1  0.15761483  0.03676650  0.17837046  1.0
  Ni  Ni271  1  0.15761483  0.37009983  0.17837046  1.0
  Ni  Ni272  1  0.15761483  0.70343317  0.17837046  1.0
  Ni  Ni273  1  0.49094817  0.03676650  0.17837046  1.0
  Ni  Ni274  1  0.49094817  0.37009983  0.17837046  1.0
  Ni  Ni275  1  0.49094817  0.70343317  0.17837046  1.0
  Ni  Ni276  1  0.82428150  0.03676650  0.17837046  1.0
  Ni  Ni277  1  0.82428150  0.37009983  0.17837046  1.0
  Ni  Ni278  1  0.82428150  0.70343317  0.17837046  1.0
  Ni  Ni279  1  0.32428150  0.20343317  0.24979904  1.0
  Ni  Ni280  1  0.32428150  0.53676650  0.24979904  1.0
  Ni  Ni281  1  0.32428150  0.87009983  0.24979904  1.0
  Ni  Ni282  1  0.65761483  0.20343317  0.24979904  1.0
  Ni  Ni283  1  0.65761483  0.53676650  0.24979904  1.0
  Ni  Ni284  1  0.65761483  0.87009983  0.24979904  1.0
  Ni  Ni285  1  0.99094817  0.20343317  0.24979904  1.0
  Ni  Ni286  1  0.99094817  0.53676650  0.24979904  1.0
  Ni  Ni287  1  0.99094817  0.87009983  0.24979904  1.0
  Ni  Ni288  1  0.00905183  0.12990017  0.17077404  1.0
  Ni  Ni289  1  0.00905183  0.46323350  0.17077404  1.0
  Ni  Ni290  1  0.00905183  0.79656683  0.17077404  1.0
  Ni  Ni291  1  0.34238517  0.12990017  0.17077404  1.0
  Ni  Ni292  1  0.34238517  0.46323350  0.17077404  1.0
  Ni  Ni293  1  0.34238517  0.79656683  0.17077404  1.0
  Ni  Ni294  1  0.67571850  0.12990017  0.17077404  1.0
  Ni  Ni295  1  0.67571850  0.46323350  0.17077404  1.0
  Ni  Ni296  1  0.67571850  0.79656683  0.17077404  1.0
  Ni  Ni297  1  0.17571850  0.29656683  0.24220261  1.0
  Ni  Ni298  1  0.17571850  0.62990017  0.24220261  1.0
  Ni  Ni299  1  0.17571850  0.96323350  0.24220261  1.0
  Ni  Ni300  1  0.50905183  0.29656683  0.24220261  1.0
  Ni  Ni301  1  0.50905183  0.62990017  0.24220261  1.0
  Ni  Ni302  1  0.50905183  0.96323350  0.24220261  1.0
  Ni  Ni303  1  0.84238517  0.29656683  0.24220261  1.0
  Ni  Ni304  1  0.84238517  0.62990017  0.24220261  1.0
  Ni  Ni305  1  0.84238517  0.96323350  0.24220261  1.0
  Ni  Ni306  1  0.23114783  0.12990017  0.21828489  1.0
  Ni  Ni307  1  0.23114783  0.46323350  0.21828489  1.0
  Ni  Ni308  1  0.23114783  0.79656683  0.21828489  1.0
  Ni  Ni309  1  0.56448117  0.12990017  0.21828489  1.0
  Ni  Ni310  1  0.56448117  0.46323350  0.21828489  1.0
  Ni  Ni311  1  0.56448117  0.79656683  0.21828489  1.0
  Ni  Ni312  1  0.89781450  0.12990017  0.21828489  1.0
  Ni  Ni313  1  0.89781450  0.46323350  0.21828489  1.0
  Ni  Ni314  1  0.89781450  0.79656683  0.21828489  1.0
  Ni  Ni315  1  0.06448117  0.29656683  0.14685632  1.0
  Ni  Ni316  1  0.06448117  0.62990017  0.14685632  1.0
  Ni  Ni317  1  0.06448117  0.96323350  0.14685632  1.0
  Ni  Ni318  1  0.39781450  0.29656683  0.14685632  1.0
  Ni  Ni319  1  0.39781450  0.62990017  0.14685632  1.0
  Ni  Ni320  1  0.39781450  0.96323350  0.14685632  1.0
  Ni  Ni321  1  0.73114783  0.29656683  0.14685632  1.0
  Ni  Ni322  1  0.73114783  0.62990017  0.14685632  1.0
  Ni  Ni323  1  0.73114783  0.96323350  0.14685632  1.0
  Ni  Ni324  1  0.25000000  0.08333333  0.24600082  1.0
  Ni  Ni325  1  0.25000000  0.41666667  0.24600082  1.0
  Ni  Ni326  1  0.25000000  0.75000000  0.24600082  1.0
  Ni  Ni327  1  0.58333333  0.08333333  0.24600082  1.0
  Ni  Ni328  1  0.58333333  0.41666667  0.24600082  1.0
  Ni  Ni329  1  0.58333333  0.75000000  0.24600082  1.0
  Ni  Ni330  1  0.91666667  0.08333333  0.24600082  1.0
  Ni  Ni331  1  0.91666667  0.41666667  0.24600082  1.0
  Ni  Ni332  1  0.91666667  0.75000000  0.24600082  1.0
  Ni  Ni333  1  0.08333333  0.25000000  0.17457225  1.0
  Ni  Ni334  1  0.08333333  0.58333333  0.17457225  1.0
  Ni  Ni335  1  0.08333333  0.91666667  0.17457225  1.0
  Ni  Ni336  1  0.41666667  0.25000000  0.17457225  1.0
  Ni  Ni337  1  0.41666667  0.58333333  0.17457225  1.0
  Ni  Ni338  1  0.41666667  0.91666667  0.17457225  1.0
  Ni  Ni339  1  0.75000000  0.25000000  0.17457225  1.0
  Ni  Ni340  1  0.75000000  0.58333333  0.17457225  1.0
  Ni  Ni341  1  0.75000000  0.91666667  0.17457225  1.0
  Ni  Ni342  1  0.33333333  0.16666667  0.28171511  1.0
  Ni  Ni343  1  0.33333333  0.50000000  0.28171511  1.0
  Ni  Ni344  1  0.33333333  0.83333333  0.28171511  1.0
  Ni  Ni345  1  0.66666667  0.16666667  0.28171511  1.0
  Ni  Ni346  1  0.66666667  0.50000000  0.28171511  1.0
  Ni  Ni347  1  0.66666667  0.83333333  0.28171511  1.0
  Ni  Ni348  1  0.00000000  0.16666667  0.28171511  1.0
  Ni  Ni349  1  0.00000000  0.50000000  0.28171511  1.0
  Ni  Ni350  1  1.00000000  0.83333333  0.28171511  1.0
  Ni  Ni351  1  0.16666667  0.00000000  0.21028654  1.0
  Ni  Ni352  1  0.16666667  0.33333333  0.21028654  1.0
  Ni  Ni353  1  0.16666667  0.66666667  0.21028654  1.0
  Ni  Ni354  1  0.50000000  0.00000000  0.21028654  1.0
  Ni  Ni355  1  0.50000000  0.33333333  0.21028654  1.0
  Ni  Ni356  1  0.50000000  0.66666667  0.21028654  1.0
  Ni  Ni357  1  0.83333333  0.00000000  0.21028654  1.0
  Ni  Ni358  1  0.83333333  0.33333333  0.21028654  1.0
  Ni  Ni359  1  0.83333333  0.66666667  0.21028654  1.0
  Ni  Ni360  1  0.04328117  0.04328117  0.15740704  1.0
  Ni  Ni361  1  0.04328117  0.37661450  0.15740704  1.0
  Ni  Ni362  1  0.04328117  0.70994783  0.15740704  1.0
  Ni  Ni363  1  0.37661450  0.04328117  0.15740704  1.0
  Ni  Ni364  1  0.37661450  0.37661450  0.15740704  1.0
  Ni  Ni365  1  0.37661450  0.70994783  0.15740704  1.0
  Ni  Ni366  1  0.70994783  0.04328117  0.15740704  1.0
  Ni  Ni367  1  0.70994783  0.37661450  0.15740704  1.0
  Ni  Ni368  1  0.70994783  0.70994783  0.15740704  1.0
  Ni  Ni369  1  0.20994783  0.20994783  0.22883561  1.0
  Ni  Ni370  1  0.20994783  0.54328117  0.22883561  1.0
  Ni  Ni371  1  0.20994783  0.87661450  0.22883561  1.0
  Ni  Ni372  1  0.54328117  0.20994783  0.22883561  1.0
  Ni  Ni373  1  0.54328117  0.54328117  0.22883561  1.0
  Ni  Ni374  1  0.54328117  0.87661450  0.22883561  1.0
  Ni  Ni375  1  0.87661450  0.20994783  0.22883561  1.0
  Ni  Ni376  1  0.87661450  0.54328117  0.22883561  1.0
  Ni  Ni377  1  0.87661450  0.87661450  0.22883561  1.0
  Ni  Ni378  1  0.29005217  0.12338550  0.19173746  1.0
  Ni  Ni379  1  0.29005217  0.45671883  0.19173746  1.0
  Ni  Ni380  1  0.29005217  0.79005217  0.19173746  1.0
  Ni  Ni381  1  0.62338550  0.12338550  0.19173746  1.0
  Ni  Ni382  1  0.62338550  0.45671883  0.19173746  1.0
  Ni  Ni383  1  0.62338550  0.79005217  0.19173746  1.0
  Ni  Ni384  1  0.95671883  0.12338550  0.19173746  1.0
  Ni  Ni385  1  0.95671883  0.45671883  0.19173746  1.0
  Ni  Ni386  1  0.95671883  0.79005217  0.19173746  1.0
  Ni  Ni387  1  0.12338550  0.29005217  0.26316604  1.0
  Ni  Ni388  1  0.12338550  0.62338550  0.26316604  1.0
  Ni  Ni389  1  0.12338550  0.95671883  0.26316604  1.0
  Ni  Ni390  1  0.45671883  0.29005217  0.26316604  1.0
  Ni  Ni391  1  0.45671883  0.62338550  0.26316604  1.0
  Ni  Ni392  1  0.45671883  0.95671883  0.26316604  1.0
  Ni  Ni393  1  0.79005217  0.29005217  0.26316604  1.0
  Ni  Ni394  1  0.79005217  0.62338550  0.26316604  1.0
  Ni  Ni395  1  0.79005217  0.95671883  0.26316604  1.0
  Ni  Ni396  1  0.20994783  0.04328117  0.15740704  1.0
  Ni  Ni397  1  0.20994783  0.37661450  0.15740704  1.0
  Ni  Ni398  1  0.20994783  0.70994783  0.15740704  1.0
  Ni  Ni399  1  0.54328117  0.04328117  0.15740704  1.0
  Ni  Ni400  1  0.54328117  0.37661450  0.15740704  1.0
  Ni  Ni401  1  0.54328117  0.70994783  0.15740704  1.0
  Ni  Ni402  1  0.87661450  0.04328117  0.15740704  1.0
  Ni  Ni403  1  0.87661450  0.37661450  0.15740704  1.0
  Ni  Ni404  1  0.87661450  0.70994783  0.15740704  1.0
  Ni  Ni405  1  0.04328117  0.20994783  0.22883561  1.0
  Ni  Ni406  1  0.04328117  0.54328117  0.22883561  1.0
  Ni  Ni407  1  0.04328117  0.87661450  0.22883561  1.0
  Ni  Ni408  1  0.37661450  0.20994783  0.22883561  1.0
  Ni  Ni409  1  0.37661450  0.54328117  0.22883561  1.0
  Ni  Ni410  1  0.37661450  0.87661450  0.22883561  1.0
  Ni  Ni411  1  0.70994783  0.20994783  0.22883561  1.0
  Ni  Ni412  1  0.70994783  0.54328117  0.22883561  1.0
  Ni  Ni413  1  0.70994783  0.87661450  0.22883561  1.0
  Ni  Ni414  1  0.12338550  0.12338550  0.19173746  1.0
  Ni  Ni415  1  0.12338550  0.45671883  0.19173746  1.0
  Ni  Ni416  1  0.12338550  0.79005217  0.19173746  1.0
  Ni  Ni417  1  0.45671883  0.12338550  0.19173746  1.0
  Ni  Ni418  1  0.45671883  0.45671883  0.19173746  1.0
  Ni  Ni419  1  0.45671883  0.79005217  0.19173746  1.0
  Ni  Ni420  1  0.79005217  0.12338550  0.19173746  1.0
  Ni  Ni421  1  0.79005217  0.45671883  0.19173746  1.0
  Ni  Ni422  1  0.79005217  0.79005217  0.19173746  1.0
  Ni  Ni423  1  0.29005217  0.29005217  0.26316604  1.0
  Ni  Ni424  1  0.29005217  0.62338550  0.26316604  1.0
  Ni  Ni425  1  0.29005217  0.95671883  0.26316604  1.0
  Ni  Ni426  1  0.62338550  0.29005217  0.26316604  1.0
  Ni  Ni427  1  0.62338550  0.62338550  0.26316604  1.0
  Ni  Ni428  1  0.62338550  0.95671883  0.26316604  1.0
  Ni  Ni429  1  0.95671883  0.29005217  0.26316604  1.0
  Ni  Ni430  1  0.95671883  0.62338550  0.26316604  1.0
  Ni  Ni431  1  0.95671883  0.95671883  0.26316604  1.0
  Ca  Ca432  1  0.03836917  0.04496417  0.37241404  1.0
  Ca  Ca433  1  0.03836917  0.37829750  0.37241404  1.0
  Ca  Ca434  1  0.03836917  0.71163083  0.37241404  1.0
  Ca  Ca435  1  0.37170250  0.04496417  0.37241404  1.0
  Ca  Ca436  1  0.37170250  0.37829750  0.37241404  1.0
  Ca  Ca437  1  0.37170250  0.71163083  0.37241404  1.0
  Ca  Ca438  1  0.70503583  0.04496417  0.37241404  1.0
  Ca  Ca439  1  0.70503583  0.37829750  0.37241404  1.0
  Ca  Ca440  1  0.70503583  0.71163083  0.37241404  1.0
  Ca  Ca441  1  0.20503583  0.21163083  0.30098546  1.0
  Ca  Ca442  1  0.20503583  0.54496417  0.30098546  1.0
  Ca  Ca443  1  0.20503583  0.87829750  0.30098546  1.0
  Ca  Ca444  1  0.53836917  0.21163083  0.30098546  1.0
  Ca  Ca445  1  0.53836917  0.54496417  0.30098546  1.0
  Ca  Ca446  1  0.53836917  0.87829750  0.30098546  1.0
  Ca  Ca447  1  0.87170250  0.21163083  0.30098546  1.0
  Ca  Ca448  1  0.87170250  0.54496417  0.30098546  1.0
  Ca  Ca449  1  0.87170250  0.87829750  0.30098546  1.0
  Ca  Ca450  1  0.12829750  0.12170250  0.40530189  1.0
  Ca  Ca451  1  0.12829750  0.45503583  0.40530189  1.0
  Ca  Ca452  1  0.12829750  0.78836917  0.40530189  1.0
  Ca  Ca453  1  0.46163083  0.12170250  0.40530189  1.0
  Ca  Ca454  1  0.46163083  0.45503583  0.40530189  1.0
  Ca  Ca455  1  0.46163083  0.78836917  0.40530189  1.0
  Ca  Ca456  1  0.79496417  0.12170250  0.40530189  1.0
  Ca  Ca457  1  0.79496417  0.45503583  0.40530189  1.0
  Ca  Ca458  1  0.79496417  0.78836917  0.40530189  1.0
  Ca  Ca459  1  0.29496417  0.28836917  0.33387332  1.0
  Ca  Ca460  1  0.29496417  0.62170250  0.33387332  1.0
  Ca  Ca461  1  0.29496417  0.95503583  0.33387332  1.0
  Ca  Ca462  1  0.62829750  0.28836917  0.33387332  1.0
  Ca  Ca463  1  0.62829750  0.62170250  0.33387332  1.0
  Ca  Ca464  1  0.62829750  0.95503583  0.33387332  1.0
  Ca  Ca465  1  0.96163083  0.28836917  0.33387332  1.0
  Ca  Ca466  1  0.96163083  0.62170250  0.33387332  1.0
  Ca  Ca467  1  0.96163083  0.95503583  0.33387332  1.0
  Ni  Ni468  1  0.26885217  0.03676650  0.41657389  1.0
  Ni  Ni469  1  0.26885217  0.37009983  0.41657389  1.0
  Ni  Ni470  1  0.26885217  0.70343317  0.41657389  1.0
  Ni  Ni471  1  0.60218550  0.03676650  0.41657389  1.0
  Ni  Ni472  1  0.60218550  0.37009983  0.41657389  1.0
  Ni  Ni473  1  0.60218550  0.70343317  0.41657389  1.0
  Ni  Ni474  1  0.93551883  0.03676650  0.41657389  1.0
  Ni  Ni475  1  0.93551883  0.37009983  0.41657389  1.0
  Ni  Ni476  1  0.93551883  0.70343317  0.41657389  1.0
  Ni  Ni477  1  0.10218550  0.20343317  0.34514532  1.0
  Ni  Ni478  1  0.10218550  0.53676650  0.34514532  1.0
  Ni  Ni479  1  0.10218550  0.87009983  0.34514532  1.0
  Ni  Ni480  1  0.43551883  0.20343317  0.34514532  1.0
  Ni  Ni481  1  0.43551883  0.53676650  0.34514532  1.0
  Ni  Ni482  1  0.43551883  0.87009983  0.34514532  1.0
  Ni  Ni483  1  0.76885217  0.20343317  0.34514532  1.0
  Ni  Ni484  1  0.76885217  0.53676650  0.34514532  1.0
  Ni  Ni485  1  0.76885217  0.87009983  0.34514532  1.0
  Ni  Ni486  1  0.15761483  0.03676650  0.32122761  1.0
  Ni  Ni487  1  0.15761483  0.37009983  0.32122761  1.0
  Ni  Ni488  1  0.15761483  0.70343317  0.32122761  1.0
  Ni  Ni489  1  0.49094817  0.03676650  0.32122761  1.0
  Ni  Ni490  1  0.49094817  0.37009983  0.32122761  1.0
  Ni  Ni491  1  0.49094817  0.70343317  0.32122761  1.0
  Ni  Ni492  1  0.82428150  0.03676650  0.32122761  1.0
  Ni  Ni493  1  0.82428150  0.37009983  0.32122761  1.0
  Ni  Ni494  1  0.82428150  0.70343317  0.32122761  1.0
  Ni  Ni495  1  0.32428150  0.20343317  0.39265618  1.0
  Ni  Ni496  1  0.32428150  0.53676650  0.39265618  1.0
  Ni  Ni497  1  0.32428150  0.87009983  0.39265618  1.0
  Ni  Ni498  1  0.65761483  0.20343317  0.39265618  1.0
  Ni  Ni499  1  0.65761483  0.53676650  0.39265618  1.0
  Ni  Ni500  1  0.65761483  0.87009983  0.39265618  1.0
  Ni  Ni501  1  0.99094817  0.20343317  0.39265618  1.0
  Ni  Ni502  1  0.99094817  0.53676650  0.39265618  1.0
  Ni  Ni503  1  0.99094817  0.87009983  0.39265618  1.0
  Ni  Ni504  1  0.00905183  0.12990017  0.31363118  1.0
  Ni  Ni505  1  0.00905183  0.46323350  0.31363118  1.0
  Ni  Ni506  1  0.00905183  0.79656683  0.31363118  1.0
  Ni  Ni507  1  0.34238517  0.12990017  0.31363118  1.0
  Ni  Ni508  1  0.34238517  0.46323350  0.31363118  1.0
  Ni  Ni509  1  0.34238517  0.79656683  0.31363118  1.0
  Ni  Ni510  1  0.67571850  0.12990017  0.31363118  1.0
  Ni  Ni511  1  0.67571850  0.46323350  0.31363118  1.0
  Ni  Ni512  1  0.67571850  0.79656683  0.31363118  1.0
  Ni  Ni513  1  0.17571850  0.29656683  0.38505975  1.0
  Ni  Ni514  1  0.17571850  0.62990017  0.38505975  1.0
  Ni  Ni515  1  0.17571850  0.96323350  0.38505975  1.0
  Ni  Ni516  1  0.50905183  0.29656683  0.38505975  1.0
  Ni  Ni517  1  0.50905183  0.62990017  0.38505975  1.0
  Ni  Ni518  1  0.50905183  0.96323350  0.38505975  1.0
  Ni  Ni519  1  0.84238517  0.29656683  0.38505975  1.0
  Ni  Ni520  1  0.84238517  0.62990017  0.38505975  1.0
  Ni  Ni521  1  0.84238517  0.96323350  0.38505975  1.0
  Ni  Ni522  1  0.23114783  0.12990017  0.36114204  1.0
  Ni  Ni523  1  0.23114783  0.46323350  0.36114204  1.0
  Ni  Ni524  1  0.23114783  0.79656683  0.36114204  1.0
  Ni  Ni525  1  0.56448117  0.12990017  0.36114204  1.0
  Ni  Ni526  1  0.56448117  0.46323350  0.36114204  1.0
  Ni  Ni527  1  0.56448117  0.79656683  0.36114204  1.0
  Ni  Ni528  1  0.89781450  0.12990017  0.36114204  1.0
  Ni  Ni529  1  0.89781450  0.46323350  0.36114204  1.0
  Ni  Ni530  1  0.89781450  0.79656683  0.36114204  1.0
  Ni  Ni531  1  0.06448117  0.29656683  0.28971346  1.0
  Ni  Ni532  1  0.06448117  0.62990017  0.28971346  1.0
  Ni  Ni533  1  0.06448117  0.96323350  0.28971346  1.0
  Ni  Ni534  1  0.39781450  0.29656683  0.28971346  1.0
  Ni  Ni535  1  0.39781450  0.62990017  0.28971346  1.0
  Ni  Ni536  1  0.39781450  0.96323350  0.28971346  1.0
  Ni  Ni537  1  0.73114783  0.29656683  0.28971346  1.0
  Ni  Ni538  1  0.73114783  0.62990017  0.28971346  1.0
  Ni  Ni539  1  0.73114783  0.96323350  0.28971346  1.0
  Ni  Ni540  1  0.25000000  0.08333333  0.38885796  1.0
  Ni  Ni541  1  0.25000000  0.41666667  0.38885796  1.0
  Ni  Ni542  1  0.25000000  0.75000000  0.38885796  1.0
  Ni  Ni543  1  0.58333333  0.08333333  0.38885796  1.0
  Ni  Ni544  1  0.58333333  0.41666667  0.38885796  1.0
  Ni  Ni545  1  0.58333333  0.75000000  0.38885796  1.0
  Ni  Ni546  1  0.91666667  0.08333333  0.38885796  1.0
  Ni  Ni547  1  0.91666667  0.41666667  0.38885796  1.0
  Ni  Ni548  1  0.91666667  0.75000000  0.38885796  1.0
  Ni  Ni549  1  0.08333333  0.25000000  0.31742939  1.0
  Ni  Ni550  1  0.08333333  0.58333333  0.31742939  1.0
  Ni  Ni551  1  0.08333333  0.91666667  0.31742939  1.0
  Ni  Ni552  1  0.41666667  0.25000000  0.31742939  1.0
  Ni  Ni553  1  0.41666667  0.58333333  0.31742939  1.0
  Ni  Ni554  1  0.41666667  0.91666667  0.31742939  1.0
  Ni  Ni555  1  0.75000000  0.25000000  0.31742939  1.0
  Ni  Ni556  1  0.75000000  0.58333333  0.31742939  1.0
  Ni  Ni557  1  0.75000000  0.91666667  0.31742939  1.0
  Ni  Ni558  1  0.33333333  0.16666667  0.42457225  1.0
  Ni  Ni559  1  0.33333333  0.50000000  0.42457225  1.0
  Ni  Ni560  1  0.33333333  0.83333333  0.42457225  1.0
  Ni  Ni561  1  0.66666667  0.16666667  0.42457225  1.0
  Ni  Ni562  1  0.66666667  0.50000000  0.42457225  1.0
  Ni  Ni563  1  0.66666667  0.83333333  0.42457225  1.0
  Ni  Ni564  1  0.00000000  0.16666667  0.42457225  1.0
  Ni  Ni565  1  0.00000000  0.50000000  0.42457225  1.0
  Ni  Ni566  1  1.00000000  0.83333333  0.42457225  1.0
  Ni  Ni567  1  0.16666667  0.00000000  0.35314368  1.0
  Ni  Ni568  1  0.16666667  0.33333333  0.35314368  1.0
  Ni  Ni569  1  0.16666667  0.66666667  0.35314368  1.0
  Ni  Ni570  1  0.50000000  0.00000000  0.35314368  1.0
  Ni  Ni571  1  0.50000000  0.33333333  0.35314368  1.0
  Ni  Ni572  1  0.50000000  0.66666667  0.35314368  1.0
  Ni  Ni573  1  0.83333333  0.00000000  0.35314368  1.0
  Ni  Ni574  1  0.83333333  0.33333333  0.35314368  1.0
  Ni  Ni575  1  0.83333333  0.66666667  0.35314368  1.0
  Ni  Ni576  1  0.04328117  0.04328117  0.30026418  1.0
  Ni  Ni577  1  0.04328117  0.37661450  0.30026418  1.0
  Ni  Ni578  1  0.04328117  0.70994783  0.30026418  1.0
  Ni  Ni579  1  0.37661450  0.04328117  0.30026418  1.0
  Ni  Ni580  1  0.37661450  0.37661450  0.30026418  1.0
  Ni  Ni581  1  0.37661450  0.70994783  0.30026418  1.0
  Ni  Ni582  1  0.70994783  0.04328117  0.30026418  1.0
  Ni  Ni583  1  0.70994783  0.37661450  0.30026418  1.0
  Ni  Ni584  1  0.70994783  0.70994783  0.30026418  1.0
  Ni  Ni585  1  0.20994783  0.20994783  0.37169275  1.0
  Ni  Ni586  1  0.20994783  0.54328117  0.37169275  1.0
  Ni  Ni587  1  0.20994783  0.87661450  0.37169275  1.0
  Ni  Ni588  1  0.54328117  0.20994783  0.37169275  1.0
  Ni  Ni589  1  0.54328117  0.54328117  0.37169275  1.0
  Ni  Ni590  1  0.54328117  0.87661450  0.37169275  1.0
  Ni  Ni591  1  0.87661450  0.20994783  0.37169275  1.0
  Ni  Ni592  1  0.87661450  0.54328117  0.37169275  1.0
  Ni  Ni593  1  0.87661450  0.87661450  0.37169275  1.0
  Ni  Ni594  1  0.29005217  0.12338550  0.33459461  1.0
  Ni  Ni595  1  0.29005217  0.45671883  0.33459461  1.0
  Ni  Ni596  1  0.29005217  0.79005217  0.33459461  1.0
  Ni  Ni597  1  0.62338550  0.12338550  0.33459461  1.0
  Ni  Ni598  1  0.62338550  0.45671883  0.33459461  1.0
  Ni  Ni599  1  0.62338550  0.79005217  0.33459461  1.0
  Ni  Ni600  1  0.95671883  0.12338550  0.33459461  1.0
  Ni  Ni601  1  0.95671883  0.45671883  0.33459461  1.0
  Ni  Ni602  1  0.95671883  0.79005217  0.33459461  1.0
  Ni  Ni603  1  0.12338550  0.29005217  0.40602318  1.0
  Ni  Ni604  1  0.12338550  0.62338550  0.40602318  1.0
  Ni  Ni605  1  0.12338550  0.95671883  0.40602318  1.0
  Ni  Ni606  1  0.45671883  0.29005217  0.40602318  1.0
  Ni  Ni607  1  0.45671883  0.62338550  0.40602318  1.0
  Ni  Ni608  1  0.45671883  0.95671883  0.40602318  1.0
  Ni  Ni609  1  0.79005217  0.29005217  0.40602318  1.0
  Ni  Ni610  1  0.79005217  0.62338550  0.40602318  1.0
  Ni  Ni611  1  0.79005217  0.95671883  0.40602318  1.0
  Ni  Ni612  1  0.20994783  0.04328117  0.30026418  1.0
  Ni  Ni613  1  0.20994783  0.37661450  0.30026418  1.0
  Ni  Ni614  1  0.20994783  0.70994783  0.30026418  1.0
  Ni  Ni615  1  0.54328117  0.04328117  0.30026418  1.0
  Ni  Ni616  1  0.54328117  0.37661450  0.30026418  1.0
  Ni  Ni617  1  0.54328117  0.70994783  0.30026418  1.0
  Ni  Ni618  1  0.87661450  0.04328117  0.30026418  1.0
  Ni  Ni619  1  0.87661450  0.37661450  0.30026418  1.0
  Ni  Ni620  1  0.87661450  0.70994783  0.30026418  1.0
  Ni  Ni621  1  0.04328117  0.20994783  0.37169275  1.0
  Ni  Ni622  1  0.04328117  0.54328117  0.37169275  1.0
  Ni  Ni623  1  0.04328117  0.87661450  0.37169275  1.0
  Ni  Ni624  1  0.37661450  0.20994783  0.37169275  1.0
  Ni  Ni625  1  0.37661450  0.54328117  0.37169275  1.0
  Ni  Ni626  1  0.37661450  0.87661450  0.37169275  1.0
  Ni  Ni627  1  0.70994783  0.20994783  0.37169275  1.0
  Ni  Ni628  1  0.70994783  0.54328117  0.37169275  1.0
  Ni  Ni629  1  0.70994783  0.87661450  0.37169275  1.0
  Ni  Ni630  1  0.12338550  0.12338550  0.33459461  1.0
  Ni  Ni631  1  0.12338550  0.45671883  0.33459461  1.0
  Ni  Ni632  1  0.12338550  0.79005217  0.33459461  1.0
  Ni  Ni633  1  0.45671883  0.12338550  0.33459461  1.0
  Ni  Ni634  1  0.45671883  0.45671883  0.33459461  1.0
  Ni  Ni635  1  0.45671883  0.79005217  0.33459461  1.0
  Ni  Ni636  1  0.79005217  0.12338550  0.33459461  1.0
  Ni  Ni637  1  0.79005217  0.45671883  0.33459461  1.0
  Ni  Ni638  1  0.79005217  0.79005217  0.33459461  1.0
  Ni  Ni639  1  0.29005217  0.29005217  0.40602318  1.0
  Ni  Ni640  1  0.29005217  0.62338550  0.40602318  1.0
  Ni  Ni641  1  0.29005217  0.95671883  0.40602318  1.0
  Ni  Ni642  1  0.62338550  0.29005217  0.40602318  1.0
  Ni  Ni643  1  0.62338550  0.62338550  0.40602318  1.0
  Ni  Ni644  1  0.62338550  0.95671883  0.40602318  1.0
  Ni  Ni645  1  0.95671883  0.29005217  0.40602318  1.0
  Ni  Ni646  1  0.95671883  0.62338550  0.40602318  1.0
  Ni  Ni647  1  0.95671883  0.95671883  0.40602318  1.0
