# generated using pymatgen
data_CaNi5
_symmetry_space_group_name_H-M   'P 1'
_cell_length_a   14.86665599
_cell_length_b   40.69434878
_cell_length_c   35.55109276
_cell_angle_alpha   79.28081992
_cell_angle_beta   86.00346198
_cell_angle_gamma   79.47512353
_symmetry_Int_Tables_number   1
_chemical_formula_structural   CaNi5
_chemical_formula_sum   'Ca108 Ni540'
_cell_volume   20762.96026328
_cell_formula_units_Z   108
loop_
 _symmetry_equiv_pos_site_id
 _symmetry_equiv_pos_as_xyz
  1  'x, y, z'
loop_
 _atom_site_type_symbol
 _atom_site_label
 _atom_site_symmetry_multiplicity
 _atom_site_fract_x
 _atom_site_fract_y
 _atom_site_fract_z
 _atom_site_occupancy
  Ca  Ca0  1  0.12138795  0.26587752  0.91368371  1.0
  Ca  Ca1  1  0.12138795  0.59921086  0.91368371  1.0
  Ca  Ca2  1  0.12138795  0.93254419  0.91368371  1.0
  Ca  Ca3  1  0.45472129  0.26587752  0.91368371  1.0
  Ca  Ca4  1  0.45472129  0.59921086  0.91368371  1.0
  Ca  Ca5  1  0.45472129  0.93254419  0.91368371  1.0
  Ca  Ca6  1  0.78805462  0.26587752  0.91368371  1.0
  Ca  Ca7  1  0.78805462  0.59921086  0.91368371  1.0
  Ca  Ca8  1  0.78805462  0.93254419  0.91368371  1.0
  Ca  Ca9  1  0.21662605  0.05159181  0.98511229  1.0
  Ca  Ca10  1  0.21662605  0.38492514  0.98511229  1.0
  Ca  Ca11  1  0.21662605  0.71825848  0.98511229  1.0
  Ca  Ca12  1  0.54995938  0.05159181  0.98511229  1.0
  Ca  Ca13  1  0.54995938  0.38492514  0.98511229  1.0
  Ca  Ca14  1  0.54995938  0.71825848  0.98511229  1.0
  Ca  Ca15  1  0.88329271  0.05159181  0.98511229  1.0
  Ca  Ca16  1  0.88329271  0.38492514  0.98511229  1.0
  Ca  Ca17  1  0.88329271  0.71825848  0.98511229  1.0
  Ca  Ca18  1  0.01553033  0.15873467  0.94939800  1.0
  Ca  Ca19  1  0.01553033  0.49206800  0.94939800  1.0
  Ca  Ca20  1  0.01553033  0.82540133  0.94939800  1.0
  Ca  Ca21  1  0.34886367  0.15873467  0.94939800  1.0
  Ca  Ca22  1  0.34886367  0.49206800  0.94939800  1.0
  Ca  Ca23  1  0.34886367  0.82540133  0.94939800  1.0
  Ca  Ca24  1  0.68219700  0.15873467  0.94939800  1.0
  Ca  Ca25  1  0.68219700  0.49206800  0.94939800  1.0
  Ca  Ca26  1  0.68219700  0.82540133  0.94939800  1.0
  Ca  Ca27  1  0.25362557  0.03968705  0.87796943  1.0
  Ca  Ca28  1  0.25362557  0.37302038  0.87796943  1.0
  Ca  Ca29  1  0.25362557  0.70635371  0.87796943  1.0
  Ca  Ca30  1  0.58695890  0.03968705  0.87796943  1.0
  Ca  Ca31  1  0.58695890  0.37302038  0.87796943  1.0
  Ca  Ca32  1  0.58695890  0.70635371  0.87796943  1.0
  Ca  Ca33  1  0.92029224  0.03968705  0.87796943  1.0
  Ca  Ca34  1  0.92029224  0.37302038  0.87796943  1.0
  Ca  Ca35  1  0.92029224  0.70635371  0.87796943  1.0
  Ca  Ca36  1  0.26424510  0.02778229  0.77082657  1.0
  Ca  Ca37  1  0.26424510  0.36111562  0.77082657  1.0
  Ca  Ca38  1  0.26424510  0.69444895  0.77082657  1.0
  Ca  Ca39  1  0.59757843  0.02778229  0.77082657  1.0
  Ca  Ca40  1  0.59757843  0.36111562  0.77082657  1.0
  Ca  Ca41  1  0.59757843  0.69444895  0.77082657  1.0
  Ca  Ca42  1  0.93091176  0.02778229  0.77082657  1.0
  Ca  Ca43  1  0.93091176  0.36111562  0.77082657  1.0
  Ca  Ca44  1  0.93091176  0.69444895  0.77082657  1.0
  Ca  Ca45  1  0.02614986  0.14682990  0.84225514  1.0
  Ca  Ca46  1  0.02614986  0.48016324  0.84225514  1.0
  Ca  Ca47  1  0.02614986  0.81349657  0.84225514  1.0
  Ca  Ca48  1  0.35948319  0.14682990  0.84225514  1.0
  Ca  Ca49  1  0.35948319  0.48016324  0.84225514  1.0
  Ca  Ca50  1  0.35948319  0.81349657  0.84225514  1.0
  Ca  Ca51  1  0.69281652  0.14682990  0.84225514  1.0
  Ca  Ca52  1  0.69281652  0.48016324  0.84225514  1.0
  Ca  Ca53  1  0.69281652  0.81349657  0.84225514  1.0
  Ca  Ca54  1  0.15838748  0.25397276  0.80654086  1.0
  Ca  Ca55  1  0.15838748  0.58730610  0.80654086  1.0
  Ca  Ca56  1  0.15838748  0.92063943  0.80654086  1.0
  Ca  Ca57  1  0.49172081  0.25397276  0.80654086  1.0
  Ca  Ca58  1  0.49172081  0.58730610  0.80654086  1.0
  Ca  Ca59  1  0.49172081  0.92063943  0.80654086  1.0
  Ca  Ca60  1  0.82505414  0.25397276  0.80654086  1.0
  Ca  Ca61  1  0.82505414  0.58730610  0.80654086  1.0
  Ca  Ca62  1  0.82505414  0.92063943  0.80654086  1.0
  Ca  Ca63  1  0.06314938  0.13492514  0.73511229  1.0
  Ca  Ca64  1  0.06314938  0.46825848  0.73511229  1.0
  Ca  Ca65  1  0.06314938  0.80159181  0.73511229  1.0
  Ca  Ca66  1  0.39648271  0.13492514  0.73511229  1.0
  Ca  Ca67  1  0.39648271  0.46825848  0.73511229  1.0
  Ca  Ca68  1  0.39648271  0.80159181  0.73511229  1.0
  Ca  Ca69  1  0.72981605  0.13492514  0.73511229  1.0
  Ca  Ca70  1  0.72981605  0.46825848  0.73511229  1.0
  Ca  Ca71  1  0.72981605  0.80159181  0.73511229  1.0
  Ca  Ca72  1  0.07376890  0.12302038  0.62796943  1.0
  Ca  Ca73  1  0.07376890  0.45635371  0.62796943  1.0
  Ca  Ca74  1  0.07376890  0.78968705  0.62796943  1.0
  Ca  Ca75  1  0.40710224  0.12302038  0.62796943  1.0
  Ca  Ca76  1  0.40710224  0.45635371  0.62796943  1.0
  Ca  Ca77  1  0.40710224  0.78968705  0.62796943  1.0
  Ca  Ca78  1  0.74043557  0.12302038  0.62796943  1.0
  Ca  Ca79  1  0.74043557  0.45635371  0.62796943  1.0
  Ca  Ca80  1  0.74043557  0.78968705  0.62796943  1.0
  Ca  Ca81  1  0.16900700  0.24206800  0.69939800  1.0
  Ca  Ca82  1  0.16900700  0.57540133  0.69939800  1.0
  Ca  Ca83  1  0.16900700  0.90873467  0.69939800  1.0
  Ca  Ca84  1  0.50234033  0.24206800  0.69939800  1.0
  Ca  Ca85  1  0.50234033  0.57540133  0.69939800  1.0
  Ca  Ca86  1  0.50234033  0.90873467  0.69939800  1.0
  Ca  Ca87  1  0.83567367  0.24206800  0.69939800  1.0
  Ca  Ca88  1  0.83567367  0.57540133  0.69939800  1.0
  Ca  Ca89  1  0.83567367  0.90873467  0.69939800  1.0
  Ca  Ca90  1  0.30124462  0.01587752  0.66368371  1.0
  Ca  Ca91  1  0.30124462  0.34921086  0.66368371  1.0
  Ca  Ca92  1  0.30124462  0.68254419  0.66368371  1.0
  Ca  Ca93  1  0.63457795  0.01587752  0.66368371  1.0
  Ca  Ca94  1  0.63457795  0.34921086  0.66368371  1.0
  Ca  Ca95  1  0.63457795  0.68254419  0.66368371  1.0
  Ca  Ca96  1  0.96791129  0.01587752  0.66368371  1.0
  Ca  Ca97  1  0.96791129  0.34921086  0.66368371  1.0
  Ca  Ca98  1  0.96791129  0.68254419  0.66368371  1.0
  Ca  Ca99  1  0.20600652  0.23016324  0.59225514  1.0
  Ca  Ca100  1  0.20600652  0.56349657  0.59225514  1.0
  Ca  Ca101  1  0.20600652  0.89682990  0.59225514  1.0
  Ca  Ca102  1  0.53933986  0.23016324  0.59225514  1.0
  Ca  Ca103  1  0.53933986  0.56349657  0.59225514  1.0
  Ca  Ca104  1  0.53933986  0.89682990  0.59225514  1.0
  Ca  Ca105  1  0.87267319  0.23016324  0.59225514  1.0
  Ca  Ca106  1  0.87267319  0.56349657  0.59225514  1.0
  Ca  Ca107  1  0.87267319  0.89682990  0.59225514  1.0
  Ni  Ni108  1  0.16951129  0.19448952  0.93747971  1.0
  Ni  Ni109  1  0.16951129  0.52782286  0.93747971  1.0
  Ni  Ni110  1  0.16951129  0.86115619  0.93747971  1.0
  Ni  Ni111  1  0.50284462  0.19448952  0.93747971  1.0
  Ni  Ni112  1  0.50284462  0.52782286  0.93747971  1.0
  Ni  Ni113  1  0.50284462  0.86115619  0.93747971  1.0
  Ni  Ni114  1  0.83617795  0.19448952  0.93747971  1.0
  Ni  Ni115  1  0.83617795  0.52782286  0.93747971  1.0
  Ni  Ni116  1  0.83617795  0.86115619  0.93747971  1.0
  Ni  Ni117  1  0.07427319  0.07544190  0.86605114  1.0
  Ni  Ni118  1  0.07427319  0.40877524  0.86605114  1.0
  Ni  Ni119  1  0.07427319  0.74210857  0.86605114  1.0
  Ni  Ni120  1  0.40760652  0.07544190  0.86605114  1.0
  Ni  Ni121  1  0.40760652  0.40877524  0.86605114  1.0
  Ni  Ni122  1  0.40760652  0.74210857  0.86605114  1.0
  Ni  Ni123  1  0.74093986  0.07544190  0.86605114  1.0
  Ni  Ni124  1  0.74093986  0.40877524  0.86605114  1.0
  Ni  Ni125  1  0.74093986  0.74210857  0.86605114  1.0
  Ni  Ni126  1  0.10605529  0.00393219  0.88988771  1.0
  Ni  Ni127  1  0.10605529  0.33726552  0.88988771  1.0
  Ni  Ni128  1  0.10605529  0.67059886  0.88988771  1.0
  Ni  Ni129  1  0.43938862  0.00393219  0.88988771  1.0
  Ni  Ni130  1  0.43938862  0.33726552  0.88988771  1.0
  Ni  Ni131  1  0.43938862  0.67059886  0.88988771  1.0
  Ni  Ni132  1  0.77272195  0.00393219  0.88988771  1.0
  Ni  Ni133  1  0.77272195  0.33726552  0.88988771  1.0
  Ni  Ni134  1  0.77272195  0.67059886  0.88988771  1.0
  Ni  Ni135  1  0.20129338  0.12297981  0.96131629  1.0
  Ni  Ni136  1  0.20129338  0.45631314  0.96131629  1.0
  Ni  Ni137  1  0.20129338  0.78964648  0.96131629  1.0
  Ni  Ni138  1  0.53462671  0.12297981  0.96131629  1.0
  Ni  Ni139  1  0.53462671  0.45631314  0.96131629  1.0
  Ni  Ni140  1  0.53462671  0.78964648  0.96131629  1.0
  Ni  Ni141  1  0.86796005  0.12297981  0.96131629  1.0
  Ni  Ni142  1  0.86796005  0.45631314  0.96131629  1.0
  Ni  Ni143  1  0.86796005  0.78964648  0.96131629  1.0
  Ni  Ni144  1  0.03086300  0.08734667  0.97319400  1.0
  Ni  Ni145  1  0.03086300  0.42068000  0.97319400  1.0
  Ni  Ni146  1  0.03086300  0.75401333  0.97319400  1.0
  Ni  Ni147  1  0.36419633  0.08734667  0.97319400  1.0
  Ni  Ni148  1  0.36419633  0.42068000  0.97319400  1.0
  Ni  Ni149  1  0.36419633  0.75401333  0.97319400  1.0
  Ni  Ni150  1  0.69752967  0.08734667  0.97319400  1.0
  Ni  Ni151  1  0.69752967  0.42068000  0.97319400  1.0
  Ni  Ni152  1  0.69752967  0.75401333  0.97319400  1.0
  Ni  Ni153  1  0.26895824  0.30163238  0.90176543  1.0
  Ni  Ni154  1  0.26895824  0.63496571  0.90176543  1.0
  Ni  Ni155  1  0.26895824  0.96829905  0.90176543  1.0
  Ni  Ni156  1  0.60229157  0.30163238  0.90176543  1.0
  Ni  Ni157  1  0.60229157  0.63496571  0.90176543  1.0
  Ni  Ni158  1  0.60229157  0.96829905  0.90176543  1.0
  Ni  Ni159  1  0.93562490  0.30163238  0.90176543  1.0
  Ni  Ni160  1  0.93562490  0.63496571  0.90176543  1.0
  Ni  Ni161  1  0.93562490  0.96829905  0.90176543  1.0
  Ni  Ni162  1  0.30074033  0.23012267  0.92560200  1.0
  Ni  Ni163  1  0.30074033  0.56345600  0.92560200  1.0
  Ni  Ni164  1  0.30074033  0.89678933  0.92560200  1.0
  Ni  Ni165  1  0.63407367  0.23012267  0.92560200  1.0
  Ni  Ni166  1  0.63407367  0.56345600  0.92560200  1.0
  Ni  Ni167  1  0.63407367  0.89678933  0.92560200  1.0
  Ni  Ni168  1  0.96740700  0.23012267  0.92560200  1.0
  Ni  Ni169  1  0.96740700  0.56345600  0.92560200  1.0
  Ni  Ni170  1  0.96740700  0.89678933  0.92560200  1.0
  Ni  Ni171  1  0.06264510  0.01583695  0.99703057  1.0
  Ni  Ni172  1  0.06264510  0.34917029  0.99703057  1.0
  Ni  Ni173  1  0.06264510  0.68250362  0.99703057  1.0
  Ni  Ni174  1  0.39597843  0.01583695  0.99703057  1.0
  Ni  Ni175  1  0.39597843  0.34917029  0.99703057  1.0
  Ni  Ni176  1  0.39597843  0.68250362  0.99703057  1.0
  Ni  Ni177  1  0.72931176  0.01583695  0.99703057  1.0
  Ni  Ni178  1  0.72931176  0.34917029  0.99703057  1.0
  Ni  Ni179  1  0.72931176  0.68250362  0.99703057  1.0
  Ni  Ni180  1  0.28274486  0.27182990  0.96725514  1.0
  Ni  Ni181  1  0.28274486  0.60516324  0.96725514  1.0
  Ni  Ni182  1  0.28274486  0.93849657  0.96725514  1.0
  Ni  Ni183  1  0.61607819  0.27182990  0.96725514  1.0
  Ni  Ni184  1  0.61607819  0.60516324  0.96725514  1.0
  Ni  Ni185  1  0.61607819  0.93849657  0.96725514  1.0
  Ni  Ni186  1  0.94941152  0.27182990  0.96725514  1.0
  Ni  Ni187  1  0.94941152  0.60516324  0.96725514  1.0
  Ni  Ni188  1  0.94941152  0.93849657  0.96725514  1.0
  Ni  Ni189  1  0.18750676  0.15278229  0.89582657  1.0
  Ni  Ni190  1  0.18750676  0.48611562  0.89582657  1.0
  Ni  Ni191  1  0.18750676  0.81944895  0.89582657  1.0
  Ni  Ni192  1  0.52084010  0.15278229  0.89582657  1.0
  Ni  Ni193  1  0.52084010  0.48611562  0.89582657  1.0
  Ni  Ni194  1  0.52084010  0.81944895  0.89582657  1.0
  Ni  Ni195  1  0.85417343  0.15278229  0.89582657  1.0
  Ni  Ni196  1  0.85417343  0.48611562  0.89582657  1.0
  Ni  Ni197  1  0.85417343  0.81944895  0.89582657  1.0
  Ni  Ni198  1  0.30655438  0.25992514  0.86011229  1.0
  Ni  Ni199  1  0.30655438  0.59325848  0.86011229  1.0
  Ni  Ni200  1  0.30655438  0.92659181  0.86011229  1.0
  Ni  Ni201  1  0.63988771  0.25992514  0.86011229  1.0
  Ni  Ni202  1  0.63988771  0.59325848  0.86011229  1.0
  Ni  Ni203  1  0.63988771  0.92659181  0.86011229  1.0
  Ni  Ni204  1  0.97322105  0.25992514  0.86011229  1.0
  Ni  Ni205  1  0.97322105  0.59325848  0.86011229  1.0
  Ni  Ni206  1  0.97322105  0.92659181  0.86011229  1.0
  Ni  Ni207  1  0.06845914  0.04563943  0.93154086  1.0
  Ni  Ni208  1  0.06845914  0.37897276  0.93154086  1.0
  Ni  Ni209  1  0.06845914  0.71230610  0.93154086  1.0
  Ni  Ni210  1  0.40179248  0.04563943  0.93154086  1.0
  Ni  Ni211  1  0.40179248  0.37897276  0.93154086  1.0
  Ni  Ni212  1  0.40179248  0.71230610  0.93154086  1.0
  Ni  Ni213  1  0.73512581  0.04563943  0.93154086  1.0
  Ni  Ni214  1  0.73512581  0.37897276  0.93154086  1.0
  Ni  Ni215  1  0.73512581  0.71230610  0.93154086  1.0
  Ni  Ni216  1  0.00939662  0.32517069  0.94732221  1.0
  Ni  Ni217  1  0.00939662  0.65850402  0.94732221  1.0
  Ni  Ni218  1  0.00939662  0.99183736  0.94732221  1.0
  Ni  Ni219  1  0.34272995  0.32517069  0.94732221  1.0
  Ni  Ni220  1  0.34272995  0.65850402  0.94732221  1.0
  Ni  Ni221  1  0.34272995  0.99183736  0.94732221  1.0
  Ni  Ni222  1  0.67606329  0.32517069  0.94732221  1.0
  Ni  Ni223  1  0.67606329  0.65850402  0.94732221  1.0
  Ni  Ni224  1  0.67606329  0.99183736  0.94732221  1.0
  Ni  Ni225  1  0.24749186  0.20612307  0.87589364  1.0
  Ni  Ni226  1  0.24749186  0.53945640  0.87589364  1.0
  Ni  Ni227  1  0.24749186  0.87278974  0.87589364  1.0
  Ni  Ni228  1  0.58082519  0.20612307  0.87589364  1.0
  Ni  Ni229  1  0.58082519  0.53945640  0.87589364  1.0
  Ni  Ni230  1  0.58082519  0.87278974  0.87589364  1.0
  Ni  Ni231  1  0.91415852  0.20612307  0.87589364  1.0
  Ni  Ni232  1  0.91415852  0.53945640  0.87589364  1.0
  Ni  Ni233  1  0.91415852  0.87278974  0.87589364  1.0
  Ni  Ni234  1  0.07990262  0.20658436  0.88004521  1.0
  Ni  Ni235  1  0.07990262  0.53991769  0.88004521  1.0
  Ni  Ni236  1  0.07990262  0.87325102  0.88004521  1.0
  Ni  Ni237  1  0.41323595  0.20658436  0.88004521  1.0
  Ni  Ni238  1  0.41323595  0.53991769  0.88004521  1.0
  Ni  Ni239  1  0.41323595  0.87325102  0.88004521  1.0
  Ni  Ni240  1  0.74656929  0.20658436  0.88004521  1.0
  Ni  Ni241  1  0.74656929  0.53991769  0.88004521  1.0
  Ni  Ni242  1  0.74656929  0.87325102  0.88004521  1.0
  Ni  Ni243  1  0.17514071  0.32563198  0.95147379  1.0
  Ni  Ni244  1  0.17514071  0.65896531  0.95147379  1.0
  Ni  Ni245  1  0.17514071  0.99229864  0.95147379  1.0
  Ni  Ni246  1  0.50847405  0.32563198  0.95147379  1.0
  Ni  Ni247  1  0.50847405  0.65896531  0.95147379  1.0
  Ni  Ni248  1  0.50847405  0.99229864  0.95147379  1.0
  Ni  Ni249  1  0.84180738  0.32563198  0.95147379  1.0
  Ni  Ni250  1  0.84180738  0.65896531  0.95147379  1.0
  Ni  Ni251  1  0.84180738  0.99229864  0.95147379  1.0
  Ni  Ni252  1  0.05701567  0.21802783  0.98303650  1.0
  Ni  Ni253  1  0.05701567  0.55136117  0.98303650  1.0
  Ni  Ni254  1  0.05701567  0.88469450  0.98303650  1.0
  Ni  Ni255  1  0.39034900  0.21802783  0.98303650  1.0
  Ni  Ni256  1  0.39034900  0.55136117  0.98303650  1.0
  Ni  Ni257  1  0.39034900  0.88469450  0.98303650  1.0
  Ni  Ni258  1  0.72368233  0.21802783  0.98303650  1.0
  Ni  Ni259  1  0.72368233  0.55136117  0.98303650  1.0
  Ni  Ni260  1  0.72368233  0.88469450  0.98303650  1.0
  Ni  Ni261  1  0.29511090  0.09898021  0.91160793  1.0
  Ni  Ni262  1  0.29511090  0.43231355  0.91160793  1.0
  Ni  Ni263  1  0.29511090  0.76564688  0.91160793  1.0
  Ni  Ni264  1  0.62844424  0.09898021  0.91160793  1.0
  Ni  Ni265  1  0.62844424  0.43231355  0.91160793  1.0
  Ni  Ni266  1  0.62844424  0.76564688  0.91160793  1.0
  Ni  Ni267  1  0.96177757  0.09898021  0.91160793  1.0
  Ni  Ni268  1  0.96177757  0.43231355  0.91160793  1.0
  Ni  Ni269  1  0.96177757  0.76564688  0.91160793  1.0
  Ni  Ni270  1  0.22275976  0.21848912  0.98718807  1.0
  Ni  Ni271  1  0.22275976  0.55182245  0.98718807  1.0
  Ni  Ni272  1  0.22275976  0.88515579  0.98718807  1.0
  Ni  Ni273  1  0.55609310  0.21848912  0.98718807  1.0
  Ni  Ni274  1  0.55609310  0.55182245  0.98718807  1.0
  Ni  Ni275  1  0.55609310  0.88515579  0.98718807  1.0
  Ni  Ni276  1  0.88942643  0.21848912  0.98718807  1.0
  Ni  Ni277  1  0.88942643  0.55182245  0.98718807  1.0
  Ni  Ni278  1  0.88942643  0.88515579  0.98718807  1.0
  Ni  Ni279  1  0.12752167  0.09944150  0.91575950  1.0
  Ni  Ni280  1  0.12752167  0.43277483  0.91575950  1.0
  Ni  Ni281  1  0.12752167  0.76610817  0.91575950  1.0
  Ni  Ni282  1  0.46085500  0.09944150  0.91575950  1.0
  Ni  Ni283  1  0.46085500  0.43277483  0.91575950  1.0
  Ni  Ni284  1  0.46085500  0.76610817  0.91575950  1.0
  Ni  Ni285  1  0.79418833  0.09944150  0.91575950  1.0
  Ni  Ni286  1  0.79418833  0.43277483  0.91575950  1.0
  Ni  Ni287  1  0.79418833  0.76610817  0.91575950  1.0
  Ni  Ni288  1  0.31236843  0.28972762  0.79462257  1.0
  Ni  Ni289  1  0.31236843  0.62306095  0.79462257  1.0
  Ni  Ni290  1  0.31236843  0.95639429  0.79462257  1.0
  Ni  Ni291  1  0.64570176  0.28972762  0.79462257  1.0
  Ni  Ni292  1  0.64570176  0.62306095  0.79462257  1.0
  Ni  Ni293  1  0.64570176  0.95639429  0.79462257  1.0
  Ni  Ni294  1  0.97903510  0.28972762  0.79462257  1.0
  Ni  Ni295  1  0.97903510  0.62306095  0.79462257  1.0
  Ni  Ni296  1  0.97903510  0.95639429  0.79462257  1.0
  Ni  Ni297  1  0.21713033  0.17068000  0.72319400  1.0
  Ni  Ni298  1  0.21713033  0.50401333  0.72319400  1.0
  Ni  Ni299  1  0.21713033  0.83734667  0.72319400  1.0
  Ni  Ni300  1  0.55046367  0.17068000  0.72319400  1.0
  Ni  Ni301  1  0.55046367  0.50401333  0.72319400  1.0
  Ni  Ni302  1  0.55046367  0.83734667  0.72319400  1.0
  Ni  Ni303  1  0.88379700  0.17068000  0.72319400  1.0
  Ni  Ni304  1  0.88379700  0.50401333  0.72319400  1.0
  Ni  Ni305  1  0.88379700  0.83734667  0.72319400  1.0
  Ni  Ni306  1  0.24891243  0.09917029  0.74703057  1.0
  Ni  Ni307  1  0.24891243  0.43250362  0.74703057  1.0
  Ni  Ni308  1  0.24891243  0.76583695  0.74703057  1.0
  Ni  Ni309  1  0.58224576  0.09917029  0.74703057  1.0
  Ni  Ni310  1  0.58224576  0.43250362  0.74703057  1.0
  Ni  Ni311  1  0.58224576  0.76583695  0.74703057  1.0
  Ni  Ni312  1  0.91557910  0.09917029  0.74703057  1.0
  Ni  Ni313  1  0.91557910  0.43250362  0.74703057  1.0
  Ni  Ni314  1  0.91557910  0.76583695  0.74703057  1.0
  Ni  Ni315  1  0.01081719  0.21821790  0.81845914  1.0
  Ni  Ni316  1  0.01081719  0.55155124  0.81845914  1.0
  Ni  Ni317  1  0.01081719  0.88488457  0.81845914  1.0
  Ni  Ni318  1  0.34415052  0.21821790  0.81845914  1.0
  Ni  Ni319  1  0.34415052  0.55155124  0.81845914  1.0
  Ni  Ni320  1  0.34415052  0.88488457  0.81845914  1.0
  Ni  Ni321  1  0.67748386  0.21821790  0.81845914  1.0
  Ni  Ni322  1  0.67748386  0.55155124  0.81845914  1.0
  Ni  Ni323  1  0.67748386  0.88488457  0.81845914  1.0
  Ni  Ni324  1  0.17372014  0.18258476  0.83033686  1.0
  Ni  Ni325  1  0.17372014  0.51591810  0.83033686  1.0
  Ni  Ni326  1  0.17372014  0.84925143  0.83033686  1.0
  Ni  Ni327  1  0.50705348  0.18258476  0.83033686  1.0
  Ni  Ni328  1  0.50705348  0.51591810  0.83033686  1.0
  Ni  Ni329  1  0.50705348  0.84925143  0.83033686  1.0
  Ni  Ni330  1  0.84038681  0.18258476  0.83033686  1.0
  Ni  Ni331  1  0.84038681  0.51591810  0.83033686  1.0
  Ni  Ni332  1  0.84038681  0.84925143  0.83033686  1.0
  Ni  Ni333  1  0.07848205  0.06353714  0.75890829  1.0
  Ni  Ni334  1  0.07848205  0.39687048  0.75890829  1.0
  Ni  Ni335  1  0.07848205  0.73020381  0.75890829  1.0
  Ni  Ni336  1  0.41181538  0.06353714  0.75890829  1.0
  Ni  Ni337  1  0.41181538  0.39687048  0.75890829  1.0
  Ni  Ni338  1  0.41181538  0.73020381  0.75890829  1.0
  Ni  Ni339  1  0.74514871  0.06353714  0.75890829  1.0
  Ni  Ni340  1  0.74514871  0.39687048  0.75890829  1.0
  Ni  Ni341  1  0.74514871  0.73020381  0.75890829  1.0
  Ni  Ni342  1  0.11026414  0.32536076  0.78274486  1.0
  Ni  Ni343  1  0.11026414  0.65869410  0.78274486  1.0
  Ni  Ni344  1  0.11026414  0.99202743  0.78274486  1.0
  Ni  Ni345  1  0.44359748  0.32536076  0.78274486  1.0
  Ni  Ni346  1  0.44359748  0.65869410  0.78274486  1.0
  Ni  Ni347  1  0.44359748  0.99202743  0.78274486  1.0
  Ni  Ni348  1  0.77693081  0.32536076  0.78274486  1.0
  Ni  Ni349  1  0.77693081  0.65869410  0.78274486  1.0
  Ni  Ni350  1  0.77693081  0.99202743  0.78274486  1.0
  Ni  Ni351  1  0.20550224  0.11107505  0.85417343  1.0
  Ni  Ni352  1  0.20550224  0.44440838  0.85417343  1.0
  Ni  Ni353  1  0.20550224  0.77774171  0.85417343  1.0
  Ni  Ni354  1  0.53883557  0.11107505  0.85417343  1.0
  Ni  Ni355  1  0.53883557  0.44440838  0.85417343  1.0
  Ni  Ni356  1  0.53883557  0.77774171  0.85417343  1.0
  Ni  Ni357  1  0.87216890  0.11107505  0.85417343  1.0
  Ni  Ni358  1  0.87216890  0.44440838  0.85417343  1.0
  Ni  Ni359  1  0.87216890  0.77774171  0.85417343  1.0
  Ni  Ni360  1  0.09226867  0.03373467  0.82439800  1.0
  Ni  Ni361  1  0.09226867  0.36706800  0.82439800  1.0
  Ni  Ni362  1  0.09226867  0.70040133  0.82439800  1.0
  Ni  Ni363  1  0.42560200  0.03373467  0.82439800  1.0
  Ni  Ni364  1  0.42560200  0.36706800  0.82439800  1.0
  Ni  Ni365  1  0.42560200  0.70040133  0.82439800  1.0
  Ni  Ni366  1  0.75893533  0.03373467  0.82439800  1.0
  Ni  Ni367  1  0.75893533  0.36706800  0.82439800  1.0
  Ni  Ni368  1  0.75893533  0.70040133  0.82439800  1.0
  Ni  Ni369  1  0.33036390  0.24802038  0.75296943  1.0
  Ni  Ni370  1  0.33036390  0.58135371  0.75296943  1.0
  Ni  Ni371  1  0.33036390  0.91468705  0.75296943  1.0
  Ni  Ni372  1  0.66369724  0.24802038  0.75296943  1.0
  Ni  Ni373  1  0.66369724  0.58135371  0.75296943  1.0
  Ni  Ni374  1  0.66369724  0.91468705  0.75296943  1.0
  Ni  Ni375  1  0.99703057  0.24802038  0.75296943  1.0
  Ni  Ni376  1  0.99703057  0.58135371  0.75296943  1.0
  Ni  Ni377  1  0.99703057  0.91468705  0.75296943  1.0
  Ni  Ni378  1  0.11607819  0.02182990  0.71725514  1.0
  Ni  Ni379  1  0.11607819  0.35516324  0.71725514  1.0
  Ni  Ni380  1  0.11607819  0.68849657  0.71725514  1.0
  Ni  Ni381  1  0.44941152  0.02182990  0.71725514  1.0
  Ni  Ni382  1  0.44941152  0.35516324  0.71725514  1.0
  Ni  Ni383  1  0.44941152  0.68849657  0.71725514  1.0
  Ni  Ni384  1  0.78274486  0.02182990  0.71725514  1.0
  Ni  Ni385  1  0.78274486  0.35516324  0.71725514  1.0
  Ni  Ni386  1  0.78274486  0.68849657  0.71725514  1.0
  Ni  Ni387  1  0.21131629  0.14087752  0.78868371  1.0
  Ni  Ni388  1  0.21131629  0.47421086  0.78868371  1.0
  Ni  Ni389  1  0.21131629  0.80754419  0.78868371  1.0
  Ni  Ni390  1  0.54464962  0.14087752  0.78868371  1.0
  Ni  Ni391  1  0.54464962  0.47421086  0.78868371  1.0
  Ni  Ni392  1  0.54464962  0.80754419  0.78868371  1.0
  Ni  Ni393  1  0.87798295  0.14087752  0.78868371  1.0
  Ni  Ni394  1  0.87798295  0.47421086  0.78868371  1.0
  Ni  Ni395  1  0.87798295  0.80754419  0.78868371  1.0
  Ni  Ni396  1  0.15225376  0.08707545  0.80446507  1.0
  Ni  Ni397  1  0.15225376  0.42040879  0.80446507  1.0
  Ni  Ni398  1  0.15225376  0.75374212  0.80446507  1.0
  Ni  Ni399  1  0.48558710  0.08707545  0.80446507  1.0
  Ni  Ni400  1  0.48558710  0.42040879  0.80446507  1.0
  Ni  Ni401  1  0.48558710  0.75374212  0.80446507  1.0
  Ni  Ni402  1  0.81892043  0.08707545  0.80446507  1.0
  Ni  Ni403  1  0.81892043  0.42040879  0.80446507  1.0
  Ni  Ni404  1  0.81892043  0.75374212  0.80446507  1.0
  Ni  Ni405  1  0.05701567  0.30136117  0.73303650  1.0
  Ni  Ni406  1  0.05701567  0.63469450  0.73303650  1.0
  Ni  Ni407  1  0.05701567  0.96802783  0.73303650  1.0
  Ni  Ni408  1  0.39034900  0.30136117  0.73303650  1.0
  Ni  Ni409  1  0.39034900  0.63469450  0.73303650  1.0
  Ni  Ni410  1  0.39034900  0.96802783  0.73303650  1.0
  Ni  Ni411  1  0.72368233  0.30136117  0.73303650  1.0
  Ni  Ni412  1  0.72368233  0.63469450  0.73303650  1.0
  Ni  Ni413  1  0.72368233  0.96802783  0.73303650  1.0
  Ni  Ni414  1  0.22275976  0.30182245  0.73718807  1.0
  Ni  Ni415  1  0.22275976  0.63515579  0.73718807  1.0
  Ni  Ni416  1  0.22275976  0.96848912  0.73718807  1.0
  Ni  Ni417  1  0.55609310  0.30182245  0.73718807  1.0
  Ni  Ni418  1  0.55609310  0.63515579  0.73718807  1.0
  Ni  Ni419  1  0.55609310  0.96848912  0.73718807  1.0
  Ni  Ni420  1  0.88942643  0.30182245  0.73718807  1.0
  Ni  Ni421  1  0.88942643  0.63515579  0.73718807  1.0
  Ni  Ni422  1  0.88942643  0.96848912  0.73718807  1.0
  Ni  Ni423  1  0.31799786  0.08753674  0.80861664  1.0
  Ni  Ni424  1  0.31799786  0.42087007  0.80861664  1.0
  Ni  Ni425  1  0.31799786  0.75420340  0.80861664  1.0
  Ni  Ni426  1  0.65133119  0.08753674  0.80861664  1.0
  Ni  Ni427  1  0.65133119  0.42087007  0.80861664  1.0
  Ni  Ni428  1  0.65133119  0.75420340  0.80861664  1.0
  Ni  Ni429  1  0.98466452  0.08753674  0.80861664  1.0
  Ni  Ni430  1  0.98466452  0.42087007  0.80861664  1.0
  Ni  Ni431  1  0.98466452  0.75420340  0.80861664  1.0
  Ni  Ni432  1  0.19987281  0.31326593  0.84017936  1.0
  Ni  Ni433  1  0.19987281  0.64659926  0.84017936  1.0
  Ni  Ni434  1  0.19987281  0.97993260  0.84017936  1.0
  Ni  Ni435  1  0.53320614  0.31326593  0.84017936  1.0
  Ni  Ni436  1  0.53320614  0.64659926  0.84017936  1.0
  Ni  Ni437  1  0.53320614  0.97993260  0.84017936  1.0
  Ni  Ni438  1  0.86653948  0.31326593  0.84017936  1.0
  Ni  Ni439  1  0.86653948  0.64659926  0.84017936  1.0
  Ni  Ni440  1  0.86653948  0.97993260  0.84017936  1.0
  Ni  Ni441  1  0.10463471  0.19421831  0.76875079  1.0
  Ni  Ni442  1  0.10463471  0.52755164  0.76875079  1.0
  Ni  Ni443  1  0.10463471  0.86088498  0.76875079  1.0
  Ni  Ni444  1  0.43796805  0.19421831  0.76875079  1.0
  Ni  Ni445  1  0.43796805  0.52755164  0.76875079  1.0
  Ni  Ni446  1  0.43796805  0.86088498  0.76875079  1.0
  Ni  Ni447  1  0.77130138  0.19421831  0.76875079  1.0
  Ni  Ni448  1  0.77130138  0.52755164  0.76875079  1.0
  Ni  Ni449  1  0.77130138  0.86088498  0.76875079  1.0
  Ni  Ni450  1  0.03228357  0.31372721  0.84433093  1.0
  Ni  Ni451  1  0.03228357  0.64706055  0.84433093  1.0
  Ni  Ni452  1  0.03228357  0.98039388  0.84433093  1.0
  Ni  Ni453  1  0.36561690  0.31372721  0.84433093  1.0
  Ni  Ni454  1  0.36561690  0.64706055  0.84433093  1.0
  Ni  Ni455  1  0.36561690  0.98039388  0.84433093  1.0
  Ni  Ni456  1  0.69895024  0.31372721  0.84433093  1.0
  Ni  Ni457  1  0.69895024  0.64706055  0.84433093  1.0
  Ni  Ni458  1  0.69895024  0.98039388  0.84433093  1.0
  Ni  Ni459  1  0.27037881  0.19467960  0.77290236  1.0
  Ni  Ni460  1  0.27037881  0.52801293  0.77290236  1.0
  Ni  Ni461  1  0.27037881  0.86134626  0.77290236  1.0
  Ni  Ni462  1  0.60371214  0.19467960  0.77290236  1.0
  Ni  Ni463  1  0.60371214  0.52801293  0.77290236  1.0
  Ni  Ni464  1  0.60371214  0.86134626  0.77290236  1.0
  Ni  Ni465  1  0.93704548  0.19467960  0.77290236  1.0
  Ni  Ni466  1  0.93704548  0.52801293  0.77290236  1.0
  Ni  Ni467  1  0.93704548  0.86134626  0.77290236  1.0
  Ni  Ni468  1  0.12189224  0.05163238  0.65176543  1.0
  Ni  Ni469  1  0.12189224  0.38496571  0.65176543  1.0
  Ni  Ni470  1  0.12189224  0.71829905  0.65176543  1.0
  Ni  Ni471  1  0.45522557  0.05163238  0.65176543  1.0
  Ni  Ni472  1  0.45522557  0.38496571  0.65176543  1.0
  Ni  Ni473  1  0.45522557  0.71829905  0.65176543  1.0
  Ni  Ni474  1  0.78855890  0.05163238  0.65176543  1.0
  Ni  Ni475  1  0.78855890  0.38496571  0.65176543  1.0
  Ni  Ni476  1  0.78855890  0.71829905  0.65176543  1.0
  Ni  Ni477  1  0.02665414  0.26591810  0.58033686  1.0
  Ni  Ni478  1  0.02665414  0.59925143  0.58033686  1.0
  Ni  Ni479  1  0.02665414  0.93258476  0.58033686  1.0
  Ni  Ni480  1  0.35998748  0.26591810  0.58033686  1.0
  Ni  Ni481  1  0.35998748  0.59925143  0.58033686  1.0
  Ni  Ni482  1  0.35998748  0.93258476  0.58033686  1.0
  Ni  Ni483  1  0.69332081  0.26591810  0.58033686  1.0
  Ni  Ni484  1  0.69332081  0.59925143  0.58033686  1.0
  Ni  Ni485  1  0.69332081  0.93258476  0.58033686  1.0
  Ni  Ni486  1  0.05843624  0.19440838  0.60417343  1.0
  Ni  Ni487  1  0.05843624  0.52774171  0.60417343  1.0
  Ni  Ni488  1  0.05843624  0.86107505  0.60417343  1.0
  Ni  Ni489  1  0.39176957  0.19440838  0.60417343  1.0
  Ni  Ni490  1  0.39176957  0.52774171  0.60417343  1.0
  Ni  Ni491  1  0.39176957  0.86107505  0.60417343  1.0
  Ni  Ni492  1  0.72510290  0.19440838  0.60417343  1.0
  Ni  Ni493  1  0.72510290  0.52774171  0.60417343  1.0
  Ni  Ni494  1  0.72510290  0.86107505  0.60417343  1.0
  Ni  Ni495  1  0.15367433  0.31345600  0.67560200  1.0
  Ni  Ni496  1  0.15367433  0.64678933  0.67560200  1.0
  Ni  Ni497  1  0.15367433  0.98012267  0.67560200  1.0
  Ni  Ni498  1  0.48700767  0.31345600  0.67560200  1.0
  Ni  Ni499  1  0.48700767  0.64678933  0.67560200  1.0
  Ni  Ni500  1  0.48700767  0.98012267  0.67560200  1.0
  Ni  Ni501  1  0.82034100  0.31345600  0.67560200  1.0
  Ni  Ni502  1  0.82034100  0.64678933  0.67560200  1.0
  Ni  Ni503  1  0.82034100  0.98012267  0.67560200  1.0
  Ni  Ni504  1  0.31657729  0.27782286  0.68747971  1.0
  Ni  Ni505  1  0.31657729  0.61115619  0.68747971  1.0
  Ni  Ni506  1  0.31657729  0.94448952  0.68747971  1.0
  Ni  Ni507  1  0.64991062  0.27782286  0.68747971  1.0
  Ni  Ni508  1  0.64991062  0.61115619  0.68747971  1.0
  Ni  Ni509  1  0.64991062  0.94448952  0.68747971  1.0
  Ni  Ni510  1  0.98324395  0.27782286  0.68747971  1.0
  Ni  Ni511  1  0.98324395  0.61115619  0.68747971  1.0
  Ni  Ni512  1  0.98324395  0.94448952  0.68747971  1.0
  Ni  Ni513  1  0.22133919  0.15877524  0.61605114  1.0
  Ni  Ni514  1  0.22133919  0.49210857  0.61605114  1.0
  Ni  Ni515  1  0.22133919  0.82544190  0.61605114  1.0
  Ni  Ni516  1  0.55467252  0.15877524  0.61605114  1.0
  Ni  Ni517  1  0.55467252  0.49210857  0.61605114  1.0
  Ni  Ni518  1  0.55467252  0.82544190  0.61605114  1.0
  Ni  Ni519  1  0.88800586  0.15877524  0.61605114  1.0
  Ni  Ni520  1  0.88800586  0.49210857  0.61605114  1.0
  Ni  Ni521  1  0.88800586  0.82544190  0.61605114  1.0
  Ni  Ni522  1  0.25312129  0.08726552  0.63988771  1.0
  Ni  Ni523  1  0.25312129  0.42059886  0.63988771  1.0
  Ni  Ni524  1  0.25312129  0.75393219  0.63988771  1.0
  Ni  Ni525  1  0.58645462  0.08726552  0.63988771  1.0
  Ni  Ni526  1  0.58645462  0.42059886  0.63988771  1.0
  Ni  Ni527  1  0.58645462  0.75393219  0.63988771  1.0
  Ni  Ni528  1  0.91978795  0.08726552  0.63988771  1.0
  Ni  Ni529  1  0.91978795  0.42059886  0.63988771  1.0
  Ni  Ni530  1  0.91978795  0.75393219  0.63988771  1.0
  Ni  Ni531  1  0.01502605  0.20631314  0.71131629  1.0
  Ni  Ni532  1  0.01502605  0.53964648  0.71131629  1.0
  Ni  Ni533  1  0.01502605  0.87297981  0.71131629  1.0
  Ni  Ni534  1  0.34835938  0.20631314  0.71131629  1.0
  Ni  Ni535  1  0.34835938  0.53964648  0.71131629  1.0
  Ni  Ni536  1  0.34835938  0.87297981  0.71131629  1.0
  Ni  Ni537  1  0.68169271  0.20631314  0.71131629  1.0
  Ni  Ni538  1  0.68169271  0.53964648  0.71131629  1.0
  Ni  Ni539  1  0.68169271  0.87297981  0.71131629  1.0
  Ni  Ni540  1  0.23512581  0.12897276  0.68154086  1.0
  Ni  Ni541  1  0.23512581  0.46230610  0.68154086  1.0
  Ni  Ni542  1  0.23512581  0.79563943  0.68154086  1.0
  Ni  Ni543  1  0.56845914  0.12897276  0.68154086  1.0
  Ni  Ni544  1  0.56845914  0.46230610  0.68154086  1.0
  Ni  Ni545  1  0.56845914  0.79563943  0.68154086  1.0
  Ni  Ni546  1  0.90179248  0.12897276  0.68154086  1.0
  Ni  Ni547  1  0.90179248  0.46230610  0.68154086  1.0
  Ni  Ni548  1  0.90179248  0.79563943  0.68154086  1.0
  Ni  Ni549  1  0.13988771  0.00992514  0.61011229  1.0
  Ni  Ni550  1  0.13988771  0.34325848  0.61011229  1.0
  Ni  Ni551  1  0.13988771  0.67659181  0.61011229  1.0
  Ni  Ni552  1  0.47322105  0.00992514  0.61011229  1.0
  Ni  Ni553  1  0.47322105  0.34325848  0.61011229  1.0
  Ni  Ni554  1  0.47322105  0.67659181  0.61011229  1.0
  Ni  Ni555  1  0.80655438  0.00992514  0.61011229  1.0
  Ni  Ni556  1  0.80655438  0.34325848  0.61011229  1.0
  Ni  Ni557  1  0.80655438  0.67659181  0.61011229  1.0
  Ni  Ni558  1  0.25893533  0.11706800  0.57439800  1.0
  Ni  Ni559  1  0.25893533  0.45040133  0.57439800  1.0
  Ni  Ni560  1  0.25893533  0.78373467  0.57439800  1.0
  Ni  Ni561  1  0.59226867  0.11706800  0.57439800  1.0
  Ni  Ni562  1  0.59226867  0.45040133  0.57439800  1.0
  Ni  Ni563  1  0.59226867  0.78373467  0.57439800  1.0
  Ni  Ni564  1  0.92560200  0.11706800  0.57439800  1.0
  Ni  Ni565  1  0.92560200  0.45040133  0.57439800  1.0
  Ni  Ni566  1  0.92560200  0.78373467  0.57439800  1.0
  Ni  Ni567  1  0.02084010  0.23611562  0.64582657  1.0
  Ni  Ni568  1  0.02084010  0.56944895  0.64582657  1.0
  Ni  Ni569  1  0.02084010  0.90278229  0.64582657  1.0
  Ni  Ni570  1  0.35417343  0.23611562  0.64582657  1.0
  Ni  Ni571  1  0.35417343  0.56944895  0.64582657  1.0
  Ni  Ni572  1  0.35417343  0.90278229  0.64582657  1.0
  Ni  Ni573  1  0.68750676  0.23611562  0.64582657  1.0
  Ni  Ni574  1  0.68750676  0.56944895  0.64582657  1.0
  Ni  Ni575  1  0.68750676  0.90278229  0.64582657  1.0
  Ni  Ni576  1  0.29511090  0.18231355  0.66160793  1.0
  Ni  Ni577  1  0.29511090  0.51564688  0.66160793  1.0
  Ni  Ni578  1  0.29511090  0.84898021  0.66160793  1.0
  Ni  Ni579  1  0.62844424  0.18231355  0.66160793  1.0
  Ni  Ni580  1  0.62844424  0.51564688  0.66160793  1.0
  Ni  Ni581  1  0.62844424  0.84898021  0.66160793  1.0
  Ni  Ni582  1  0.96177757  0.18231355  0.66160793  1.0
  Ni  Ni583  1  0.96177757  0.51564688  0.66160793  1.0
  Ni  Ni584  1  0.96177757  0.84898021  0.66160793  1.0
  Ni  Ni585  1  0.19987281  0.06326593  0.59017936  1.0
  Ni  Ni586  1  0.19987281  0.39659926  0.59017936  1.0
  Ni  Ni587  1  0.19987281  0.72993260  0.59017936  1.0
  Ni  Ni588  1  0.53320614  0.06326593  0.59017936  1.0
  Ni  Ni589  1  0.53320614  0.39659926  0.59017936  1.0
  Ni  Ni590  1  0.53320614  0.72993260  0.59017936  1.0
  Ni  Ni591  1  0.86653948  0.06326593  0.59017936  1.0
  Ni  Ni592  1  0.86653948  0.39659926  0.59017936  1.0
  Ni  Ni593  1  0.86653948  0.72993260  0.59017936  1.0
  Ni  Ni594  1  0.03228357  0.06372721  0.59433093  1.0
  Ni  Ni595  1  0.03228357  0.39706055  0.59433093  1.0
  Ni  Ni596  1  0.03228357  0.73039388  0.59433093  1.0
  Ni  Ni597  1  0.36561690  0.06372721  0.59433093  1.0
  Ni  Ni598  1  0.36561690  0.39706055  0.59433093  1.0
  Ni  Ni599  1  0.36561690  0.73039388  0.59433093  1.0
  Ni  Ni600  1  0.69895024  0.06372721  0.59433093  1.0
  Ni  Ni601  1  0.69895024  0.39706055  0.59433093  1.0
  Ni  Ni602  1  0.69895024  0.73039388  0.59433093  1.0
  Ni  Ni603  1  0.12752167  0.18277483  0.66575950  1.0
  Ni  Ni604  1  0.12752167  0.51610817  0.66575950  1.0
  Ni  Ni605  1  0.12752167  0.84944150  0.66575950  1.0
  Ni  Ni606  1  0.46085500  0.18277483  0.66575950  1.0
  Ni  Ni607  1  0.46085500  0.51610817  0.66575950  1.0
  Ni  Ni608  1  0.46085500  0.84944150  0.66575950  1.0
  Ni  Ni609  1  0.79418833  0.18277483  0.66575950  1.0
  Ni  Ni610  1  0.79418833  0.51610817  0.66575950  1.0
  Ni  Ni611  1  0.79418833  0.84944150  0.66575950  1.0
  Ni  Ni612  1  0.00939662  0.07517069  0.69732221  1.0
  Ni  Ni613  1  0.00939662  0.40850402  0.69732221  1.0
  Ni  Ni614  1  0.00939662  0.74183736  0.69732221  1.0
  Ni  Ni615  1  0.34272995  0.07517069  0.69732221  1.0
  Ni  Ni616  1  0.34272995  0.40850402  0.69732221  1.0
  Ni  Ni617  1  0.34272995  0.74183736  0.69732221  1.0
  Ni  Ni618  1  0.67606329  0.07517069  0.69732221  1.0
  Ni  Ni619  1  0.67606329  0.40850402  0.69732221  1.0
  Ni  Ni620  1  0.67606329  0.74183736  0.69732221  1.0
  Ni  Ni621  1  0.24749186  0.28945640  0.62589364  1.0
  Ni  Ni622  1  0.24749186  0.62278974  0.62589364  1.0
  Ni  Ni623  1  0.24749186  0.95612307  0.62589364  1.0
  Ni  Ni624  1  0.58082519  0.28945640  0.62589364  1.0
  Ni  Ni625  1  0.58082519  0.62278974  0.62589364  1.0
  Ni  Ni626  1  0.58082519  0.95612307  0.62589364  1.0
  Ni  Ni627  1  0.91415852  0.28945640  0.62589364  1.0
  Ni  Ni628  1  0.91415852  0.62278974  0.62589364  1.0
  Ni  Ni629  1  0.91415852  0.95612307  0.62589364  1.0
  Ni  Ni630  1  0.17514071  0.07563198  0.70147379  1.0
  Ni  Ni631  1  0.17514071  0.40896531  0.70147379  1.0
  Ni  Ni632  1  0.17514071  0.74229864  0.70147379  1.0
  Ni  Ni633  1  0.50847405  0.07563198  0.70147379  1.0
  Ni  Ni634  1  0.50847405  0.40896531  0.70147379  1.0
  Ni  Ni635  1  0.50847405  0.74229864  0.70147379  1.0
  Ni  Ni636  1  0.84180738  0.07563198  0.70147379  1.0
  Ni  Ni637  1  0.84180738  0.40896531  0.70147379  1.0
  Ni  Ni638  1  0.84180738  0.74229864  0.70147379  1.0
  Ni  Ni639  1  0.07990262  0.28991769  0.63004521  1.0
  Ni  Ni640  1  0.07990262  0.62325102  0.63004521  1.0
  Ni  Ni641  1  0.07990262  0.95658436  0.63004521  1.0
  Ni  Ni642  1  0.41323595  0.28991769  0.63004521  1.0
  Ni  Ni643  1  0.41323595  0.62325102  0.63004521  1.0
  Ni  Ni644  1  0.41323595  0.95658436  0.63004521  1.0
  Ni  Ni645  1  0.74656929  0.28991769  0.63004521  1.0
  Ni  Ni646  1  0.74656929  0.62325102  0.63004521  1.0
  Ni  Ni647  1  0.74656929  0.95658436  0.63004521  1.0
