# generated using pymatgen
data_CaNi
_symmetry_space_group_name_H-M   'P 1'
_cell_length_a   14.53690344
_cell_length_b   17.80399793
_cell_length_c   28.04613722
_cell_angle_alpha   94.04469124
_cell_angle_beta   90.00000000
_cell_angle_gamma   90.00000000
_symmetry_Int_Tables_number   1
_chemical_formula_structural   CaNi
_chemical_formula_sum   'Ca72 Ni72'
_cell_volume   7240.68183656
_cell_formula_units_Z   72
loop_
 _symmetry_equiv_pos_site_id
 _symmetry_equiv_pos_as_xyz
  1  'x, y, z'
loop_
 _atom_site_type_symbol
 _atom_site_label
 _atom_site_symmetry_multiplicity
 _atom_site_fract_x
 _atom_site_fract_y
 _atom_site_fract_z
 _atom_site_occupancy
  Ca  Ca0  1  0.33333333  0.07500000  0.92500000  1.0
  Ca  Ca1  1  0.33333333  0.40833333  0.92500000  1.0
  Ca  Ca2  1  0.33333333  0.74166667  0.92500000  1.0
  Ca  Ca3  1  0.66666667  0.07500000  0.92500000  1.0
  Ca  Ca4  1  0.66666667  0.40833333  0.92500000  1.0
  Ca  Ca5  1  0.66666667  0.74166667  0.92500000  1.0
  Ca  Ca6  1  0.00000000  0.07500000  0.92500000  1.0
  Ca  Ca7  1  1.00000000  0.40833333  0.92500000  1.0
  Ca  Ca8  1  1.00000000  0.74166667  0.92500000  1.0
  Ca  Ca9  1  0.16666667  0.19166667  0.97500000  1.0
  Ca  Ca10  1  0.16666667  0.52500000  0.97500000  1.0
  Ca  Ca11  1  0.16666667  0.85833333  0.97500000  1.0
  Ca  Ca12  1  0.50000000  0.19166667  0.97500000  1.0
  Ca  Ca13  1  0.50000000  0.52500000  0.97500000  1.0
  Ca  Ca14  1  0.50000000  0.85833333  0.97500000  1.0
  Ca  Ca15  1  0.83333333  0.19166667  0.97500000  1.0
  Ca  Ca16  1  0.83333333  0.52500000  0.97500000  1.0
  Ca  Ca17  1  0.83333333  0.85833333  0.97500000  1.0
  Ca  Ca18  1  0.33333333  0.17500000  0.82500000  1.0
  Ca  Ca19  1  0.33333333  0.50833333  0.82500000  1.0
  Ca  Ca20  1  0.33333333  0.84166667  0.82500000  1.0
  Ca  Ca21  1  0.66666667  0.17500000  0.82500000  1.0
  Ca  Ca22  1  0.66666667  0.50833333  0.82500000  1.0
  Ca  Ca23  1  0.66666667  0.84166667  0.82500000  1.0
  Ca  Ca24  1  0.00000000  0.17500000  0.82500000  1.0
  Ca  Ca25  1  1.00000000  0.50833333  0.82500000  1.0
  Ca  Ca26  1  1.00000000  0.84166667  0.82500000  1.0
  Ca  Ca27  1  0.16666667  0.29166667  0.87500000  1.0
  Ca  Ca28  1  0.16666667  0.62500000  0.87500000  1.0
  Ca  Ca29  1  0.16666667  0.95833333  0.87500000  1.0
  Ca  Ca30  1  0.50000000  0.29166667  0.87500000  1.0
  Ca  Ca31  1  0.50000000  0.62500000  0.87500000  1.0
  Ca  Ca32  1  0.50000000  0.95833333  0.87500000  1.0
  Ca  Ca33  1  0.83333333  0.29166667  0.87500000  1.0
  Ca  Ca34  1  0.83333333  0.62500000  0.87500000  1.0
  Ca  Ca35  1  0.83333333  0.95833333  0.87500000  1.0
  Ca  Ca36  1  0.33333333  0.27500000  0.72500000  1.0
  Ca  Ca37  1  0.33333333  0.60833333  0.72500000  1.0
  Ca  Ca38  1  0.33333333  0.94166667  0.72500000  1.0
  Ca  Ca39  1  0.66666667  0.27500000  0.72500000  1.0
  Ca  Ca40  1  0.66666667  0.60833333  0.72500000  1.0
  Ca  Ca41  1  0.66666667  0.94166667  0.72500000  1.0
  Ca  Ca42  1  0.00000000  0.27500000  0.72500000  1.0
  Ca  Ca43  1  1.00000000  0.60833333  0.72500000  1.0
  Ca  Ca44  1  1.00000000  0.94166667  0.72500000  1.0
  Ca  Ca45  1  0.16666667  0.05833333  0.77500000  1.0
  Ca  Ca46  1  0.16666667  0.39166667  0.77500000  1.0
  Ca  Ca47  1  0.16666667  0.72500000  0.77500000  1.0
  Ca  Ca48  1  0.50000000  0.05833333  0.77500000  1.0
  Ca  Ca49  1  0.50000000  0.39166667  0.77500000  1.0
  Ca  Ca50  1  0.50000000  0.72500000  0.77500000  1.0
  Ca  Ca51  1  0.83333333  0.05833333  0.77500000  1.0
  Ca  Ca52  1  0.83333333  0.39166667  0.77500000  1.0
  Ca  Ca53  1  0.83333333  0.72500000  0.77500000  1.0
  Ca  Ca54  1  0.33333333  0.04166667  0.62500000  1.0
  Ca  Ca55  1  0.33333333  0.37500000  0.62500000  1.0
  Ca  Ca56  1  0.33333333  0.70833333  0.62500000  1.0
  Ca  Ca57  1  0.66666667  0.04166667  0.62500000  1.0
  Ca  Ca58  1  0.66666667  0.37500000  0.62500000  1.0
  Ca  Ca59  1  0.66666667  0.70833333  0.62500000  1.0
  Ca  Ca60  1  0.00000000  0.04166667  0.62500000  1.0
  Ca  Ca61  1  1.00000000  0.37500000  0.62500000  1.0
  Ca  Ca62  1  1.00000000  0.70833333  0.62500000  1.0
  Ca  Ca63  1  0.16666667  0.15833333  0.67500000  1.0
  Ca  Ca64  1  0.16666667  0.49166667  0.67500000  1.0
  Ca  Ca65  1  0.16666667  0.82500000  0.67500000  1.0
  Ca  Ca66  1  0.50000000  0.15833333  0.67500000  1.0
  Ca  Ca67  1  0.50000000  0.49166667  0.67500000  1.0
  Ca  Ca68  1  0.50000000  0.82500000  0.67500000  1.0
  Ca  Ca69  1  0.83333333  0.15833333  0.67500000  1.0
  Ca  Ca70  1  0.83333333  0.49166667  0.67500000  1.0
  Ca  Ca71  1  0.83333333  0.82500000  0.67500000  1.0
  Ni  Ni72  1  0.00000000  0.24166667  0.92500000  1.0
  Ni  Ni73  1  0.00000000  0.57500000  0.92500000  1.0
  Ni  Ni74  1  0.00000000  0.90833333  0.92500000  1.0
  Ni  Ni75  1  0.33333333  0.24166667  0.92500000  1.0
  Ni  Ni76  1  0.33333333  0.57500000  0.92500000  1.0
  Ni  Ni77  1  0.33333333  0.90833333  0.92500000  1.0
  Ni  Ni78  1  0.66666667  0.24166667  0.92500000  1.0
  Ni  Ni79  1  0.66666667  0.57500000  0.92500000  1.0
  Ni  Ni80  1  0.66666667  0.90833333  0.92500000  1.0
  Ni  Ni81  1  0.16666667  0.02500000  0.97500000  1.0
  Ni  Ni82  1  0.16666667  0.35833333  0.97500000  1.0
  Ni  Ni83  1  0.16666667  0.69166667  0.97500000  1.0
  Ni  Ni84  1  0.50000000  0.02500000  0.97500000  1.0
  Ni  Ni85  1  0.50000000  0.35833333  0.97500000  1.0
  Ni  Ni86  1  0.50000000  0.69166667  0.97500000  1.0
  Ni  Ni87  1  0.83333333  0.02500000  0.97500000  1.0
  Ni  Ni88  1  0.83333333  0.35833333  0.97500000  1.0
  Ni  Ni89  1  0.83333333  0.69166667  0.97500000  1.0
  Ni  Ni90  1  0.33333333  0.00833333  0.82500000  1.0
  Ni  Ni91  1  0.33333333  0.34166667  0.82500000  1.0
  Ni  Ni92  1  0.33333333  0.67500000  0.82500000  1.0
  Ni  Ni93  1  0.66666667  0.00833333  0.82500000  1.0
  Ni  Ni94  1  0.66666667  0.34166667  0.82500000  1.0
  Ni  Ni95  1  0.66666667  0.67500000  0.82500000  1.0
  Ni  Ni96  1  0.00000000  0.00833333  0.82500000  1.0
  Ni  Ni97  1  1.00000000  0.34166667  0.82500000  1.0
  Ni  Ni98  1  1.00000000  0.67500000  0.82500000  1.0
  Ni  Ni99  1  0.16666667  0.12500000  0.87500000  1.0
  Ni  Ni100  1  0.16666667  0.45833333  0.87500000  1.0
  Ni  Ni101  1  0.16666667  0.79166667  0.87500000  1.0
  Ni  Ni102  1  0.50000000  0.12500000  0.87500000  1.0
  Ni  Ni103  1  0.50000000  0.45833333  0.87500000  1.0
  Ni  Ni104  1  0.50000000  0.79166667  0.87500000  1.0
  Ni  Ni105  1  0.83333333  0.12500000  0.87500000  1.0
  Ni  Ni106  1  0.83333333  0.45833333  0.87500000  1.0
  Ni  Ni107  1  0.83333333  0.79166667  0.87500000  1.0
  Ni  Ni108  1  0.33333333  0.10833333  0.72500000  1.0
  Ni  Ni109  1  0.33333333  0.44166667  0.72500000  1.0
  Ni  Ni110  1  0.33333333  0.77500000  0.72500000  1.0
  Ni  Ni111  1  0.66666667  0.10833333  0.72500000  1.0
  Ni  Ni112  1  0.66666667  0.44166667  0.72500000  1.0
  Ni  Ni113  1  0.66666667  0.77500000  0.72500000  1.0
  Ni  Ni114  1  0.00000000  0.10833333  0.72500000  1.0
  Ni  Ni115  1  1.00000000  0.44166667  0.72500000  1.0
  Ni  Ni116  1  1.00000000  0.77500000  0.72500000  1.0
  Ni  Ni117  1  0.16666667  0.22500000  0.77500000  1.0
  Ni  Ni118  1  0.16666667  0.55833333  0.77500000  1.0
  Ni  Ni119  1  0.16666667  0.89166667  0.77500000  1.0
  Ni  Ni120  1  0.50000000  0.22500000  0.77500000  1.0
  Ni  Ni121  1  0.50000000  0.55833333  0.77500000  1.0
  Ni  Ni122  1  0.50000000  0.89166667  0.77500000  1.0
  Ni  Ni123  1  0.83333333  0.22500000  0.77500000  1.0
  Ni  Ni124  1  0.83333333  0.55833333  0.77500000  1.0
  Ni  Ni125  1  0.83333333  0.89166667  0.77500000  1.0
  Ni  Ni126  1  0.33333333  0.20833333  0.62500000  1.0
  Ni  Ni127  1  0.33333333  0.54166667  0.62500000  1.0
  Ni  Ni128  1  0.33333333  0.87500000  0.62500000  1.0
  Ni  Ni129  1  0.66666667  0.20833333  0.62500000  1.0
  Ni  Ni130  1  0.66666667  0.54166667  0.62500000  1.0
  Ni  Ni131  1  0.66666667  0.87500000  0.62500000  1.0
  Ni  Ni132  1  0.00000000  0.20833333  0.62500000  1.0
  Ni  Ni133  1  1.00000000  0.54166667  0.62500000  1.0
  Ni  Ni134  1  1.00000000  0.87500000  0.62500000  1.0
  Ni  Ni135  1  0.16666667  0.32500000  0.67500000  1.0
  Ni  Ni136  1  0.16666667  0.65833333  0.67500000  1.0
  Ni  Ni137  1  0.16666667  0.99166667  0.67500000  1.0
  Ni  Ni138  1  0.50000000  0.32500000  0.67500000  1.0
  Ni  Ni139  1  0.50000000  0.65833333  0.67500000  1.0
  Ni  Ni140  1  0.50000000  0.99166667  0.67500000  1.0
  Ni  Ni141  1  0.83333333  0.32500000  0.67500000  1.0
  Ni  Ni142  1  0.83333333  0.65833333  0.67500000  1.0
  Ni  Ni143  1  0.83333333  0.99166667  0.67500000  1.0
