# generated using pymatgen
data_CaNi
_symmetry_space_group_name_H-M   'P 1'
_cell_length_a   14.53690344
_cell_length_b   14.53690344
_cell_length_c   47.96933400
_cell_angle_alpha   135.00000000
_cell_angle_beta   135.00000000
_cell_angle_gamma   60.00000000
_symmetry_Int_Tables_number   1
_chemical_formula_structural   CaNi
_chemical_formula_sum   'Ca54 Ni54'
_cell_volume   5068.47728559
_cell_formula_units_Z   54
loop_
 _symmetry_equiv_pos_site_id
 _symmetry_equiv_pos_as_xyz
  1  'x, y, z'
loop_
 _atom_site_type_symbol
 _atom_site_label
 _atom_site_symmetry_multiplicity
 _atom_site_fract_x
 _atom_site_fract_y
 _atom_site_fract_z
 _atom_site_occupancy
  Ca  Ca0  1  0.00000000  0.00000000  0.05357143  1.0
  Ca  Ca1  1  0.00000000  0.33333333  0.05357143  1.0
  Ca  Ca2  1  0.00000000  0.66666667  0.05357143  1.0
  Ca  Ca3  1  0.33333333  0.00000000  0.05357143  1.0
  Ca  Ca4  1  0.33333333  0.33333333  0.05357143  1.0
  Ca  Ca5  1  0.33333333  0.66666667  0.05357143  1.0
  Ca  Ca6  1  0.66666667  0.00000000  0.05357143  1.0
  Ca  Ca7  1  0.66666667  0.33333333  0.05357143  1.0
  Ca  Ca8  1  0.66666667  0.66666667  0.05357143  1.0
  Ni  Ni9  1  0.16666667  0.16666667  0.01785714  1.0
  Ni  Ni10  1  0.16666667  0.50000000  0.01785714  1.0
  Ni  Ni11  1  0.16666667  0.83333333  0.01785714  1.0
  Ni  Ni12  1  0.50000000  0.16666667  0.01785714  1.0
  Ni  Ni13  1  0.50000000  0.50000000  0.01785714  1.0
  Ni  Ni14  1  0.50000000  0.83333333  0.01785714  1.0
  Ni  Ni15  1  0.83333333  0.16666667  0.01785714  1.0
  Ni  Ni16  1  0.83333333  0.50000000  0.01785714  1.0
  Ni  Ni17  1  0.83333333  0.83333333  0.01785714  1.0
  Ca  Ca18  1  0.00000000  0.00000000  0.12500000  1.0
  Ca  Ca19  1  0.00000000  0.33333333  0.12500000  1.0
  Ca  Ca20  1  0.00000000  0.66666667  0.12500000  1.0
  Ca  Ca21  1  0.33333333  0.00000000  0.12500000  1.0
  Ca  Ca22  1  0.33333333  0.33333333  0.12500000  1.0
  Ca  Ca23  1  0.33333333  0.66666667  0.12500000  1.0
  Ca  Ca24  1  0.66666667  0.00000000  0.12500000  1.0
  Ca  Ca25  1  0.66666667  0.33333333  0.12500000  1.0
  Ca  Ca26  1  0.66666667  0.66666667  0.12500000  1.0
  Ni  Ni27  1  0.16666667  0.16666667  0.08928571  1.0
  Ni  Ni28  1  0.16666667  0.50000000  0.08928571  1.0
  Ni  Ni29  1  0.16666667  0.83333333  0.08928571  1.0
  Ni  Ni30  1  0.50000000  0.16666667  0.08928571  1.0
  Ni  Ni31  1  0.50000000  0.50000000  0.08928571  1.0
  Ni  Ni32  1  0.50000000  0.83333333  0.08928571  1.0
  Ni  Ni33  1  0.83333333  0.16666667  0.08928571  1.0
  Ni  Ni34  1  0.83333333  0.50000000  0.08928571  1.0
  Ni  Ni35  1  0.83333333  0.83333333  0.08928571  1.0
  Ca  Ca36  1  0.00000000  0.00000000  0.19642857  1.0
  Ca  Ca37  1  0.00000000  0.33333333  0.19642857  1.0
  Ca  Ca38  1  0.00000000  0.66666667  0.19642857  1.0
  Ca  Ca39  1  0.33333333  0.00000000  0.19642857  1.0
  Ca  Ca40  1  0.33333333  0.33333333  0.19642857  1.0
  Ca  Ca41  1  0.33333333  0.66666667  0.19642857  1.0
  Ca  Ca42  1  0.66666667  0.00000000  0.19642857  1.0
  Ca  Ca43  1  0.66666667  0.33333333  0.19642857  1.0
  Ca  Ca44  1  0.66666667  0.66666667  0.19642857  1.0
  Ni  Ni45  1  0.16666667  0.16666667  0.16071429  1.0
  Ni  Ni46  1  0.16666667  0.50000000  0.16071429  1.0
  Ni  Ni47  1  0.16666667  0.83333333  0.16071429  1.0
  Ni  Ni48  1  0.50000000  0.16666667  0.16071429  1.0
  Ni  Ni49  1  0.50000000  0.50000000  0.16071429  1.0
  Ni  Ni50  1  0.50000000  0.83333333  0.16071429  1.0
  Ni  Ni51  1  0.83333333  0.16666667  0.16071429  1.0
  Ni  Ni52  1  0.83333333  0.50000000  0.16071429  1.0
  Ni  Ni53  1  0.83333333  0.83333333  0.16071429  1.0
  Ca  Ca54  1  0.00000000  0.00000000  0.26785714  1.0
  Ca  Ca55  1  0.00000000  0.33333333  0.26785714  1.0
  Ca  Ca56  1  0.00000000  0.66666667  0.26785714  1.0
  Ca  Ca57  1  0.33333333  0.00000000  0.26785714  1.0
  Ca  Ca58  1  0.33333333  0.33333333  0.26785714  1.0
  Ca  Ca59  1  0.33333333  0.66666667  0.26785714  1.0
  Ca  Ca60  1  0.66666667  0.00000000  0.26785714  1.0
  Ca  Ca61  1  0.66666667  0.33333333  0.26785714  1.0
  Ca  Ca62  1  0.66666667  0.66666667  0.26785714  1.0
  Ni  Ni63  1  0.16666667  0.16666667  0.23214286  1.0
  Ni  Ni64  1  0.16666667  0.50000000  0.23214286  1.0
  Ni  Ni65  1  0.16666667  0.83333333  0.23214286  1.0
  Ni  Ni66  1  0.50000000  0.16666667  0.23214286  1.0
  Ni  Ni67  1  0.50000000  0.50000000  0.23214286  1.0
  Ni  Ni68  1  0.50000000  0.83333333  0.23214286  1.0
  Ni  Ni69  1  0.83333333  0.16666667  0.23214286  1.0
  Ni  Ni70  1  0.83333333  0.50000000  0.23214286  1.0
  Ni  Ni71  1  0.83333333  0.83333333  0.23214286  1.0
  Ca  Ca72  1  0.00000000  0.00000000  0.33928571  1.0
  Ca  Ca73  1  0.00000000  0.33333333  0.33928571  1.0
  Ca  Ca74  1  0.00000000  0.66666667  0.33928571  1.0
  Ca  Ca75  1  0.33333333  0.00000000  0.33928571  1.0
  Ca  Ca76  1  0.33333333  0.33333333  0.33928571  1.0
  Ca  Ca77  1  0.33333333  0.66666667  0.33928571  1.0
  Ca  Ca78  1  0.66666667  0.00000000  0.33928571  1.0
  Ca  Ca79  1  0.66666667  0.33333333  0.33928571  1.0
  Ca  Ca80  1  0.66666667  0.66666667  0.33928571  1.0
  Ni  Ni81  1  0.16666667  0.16666667  0.30357143  1.0
  Ni  Ni82  1  0.16666667  0.50000000  0.30357143  1.0
  Ni  Ni83  1  0.16666667  0.83333333  0.30357143  1.0
  Ni  Ni84  1  0.50000000  0.16666667  0.30357143  1.0
  Ni  Ni85  1  0.50000000  0.50000000  0.30357143  1.0
  Ni  Ni86  1  0.50000000  0.83333333  0.30357143  1.0
  Ni  Ni87  1  0.83333333  0.16666667  0.30357143  1.0
  Ni  Ni88  1  0.83333333  0.50000000  0.30357143  1.0
  Ni  Ni89  1  0.83333333  0.83333333  0.30357143  1.0
  Ca  Ca90  1  0.00000000  0.00000000  0.41071429  1.0
  Ca  Ca91  1  0.00000000  0.33333333  0.41071429  1.0
  Ca  Ca92  1  0.00000000  0.66666667  0.41071429  1.0
  Ca  Ca93  1  0.33333333  0.00000000  0.41071429  1.0
  Ca  Ca94  1  0.33333333  0.33333333  0.41071429  1.0
  Ca  Ca95  1  0.33333333  0.66666667  0.41071429  1.0
  Ca  Ca96  1  0.66666667  0.00000000  0.41071429  1.0
  Ca  Ca97  1  0.66666667  0.33333333  0.41071429  1.0
  Ca  Ca98  1  0.66666667  0.66666667  0.41071429  1.0
  Ni  Ni99  1  0.16666667  0.16666667  0.37500000  1.0
  Ni  Ni100  1  0.16666667  0.50000000  0.37500000  1.0
  Ni  Ni101  1  0.16666667  0.83333333  0.37500000  1.0
  Ni  Ni102  1  0.50000000  0.16666667  0.37500000  1.0
  Ni  Ni103  1  0.50000000  0.50000000  0.37500000  1.0
  Ni  Ni104  1  0.50000000  0.83333333  0.37500000  1.0
  Ni  Ni105  1  0.83333333  0.16666667  0.37500000  1.0
  Ni  Ni106  1  0.83333333  0.50000000  0.37500000  1.0
  Ni  Ni107  1  0.83333333  0.83333333  0.37500000  1.0
