# generated using pymatgen
data_CaNi5
_symmetry_space_group_name_H-M   'P 1'
_cell_length_a   18.85618539
_cell_length_b   34.65841095
_cell_length_c   31.89885756
_cell_angle_alpha   91.71512365
_cell_angle_beta   91.98330358
_cell_angle_gamma   94.35573574
_symmetry_Int_Tables_number   1
_chemical_formula_structural   CaNi5
_chemical_formula_sum   'Ca108 Ni540'
_cell_volume   20762.96026328
_cell_formula_units_Z   108
loop_
 _symmetry_equiv_pos_site_id
 _symmetry_equiv_pos_as_xyz
  1  'x, y, z'
loop_
 _atom_site_type_symbol
 _atom_site_label
 _atom_site_symmetry_multiplicity
 _atom_site_fract_x
 _atom_site_fract_y
 _atom_site_fract_z
 _atom_site_occupancy
  Ca  Ca0  1  0.22776179  0.04166667  0.01561407  1.0
  Ca  Ca1  1  0.22776179  0.37500000  0.01561407  1.0
  Ca  Ca2  1  0.22776179  0.70833333  0.01561407  1.0
  Ca  Ca3  1  0.56109512  0.04166667  0.01561407  1.0
  Ca  Ca4  1  0.56109512  0.37500000  0.01561407  1.0
  Ca  Ca5  1  0.56109512  0.70833333  0.01561407  1.0
  Ca  Ca6  1  0.89442845  0.04166667  0.01561407  1.0
  Ca  Ca7  1  0.89442845  0.37500000  0.01561407  1.0
  Ca  Ca8  1  0.89442845  0.70833333  0.01561407  1.0
  Ca  Ca9  1  0.18014274  0.20833333  0.08704264  1.0
  Ca  Ca10  1  0.18014274  0.54166667  0.08704264  1.0
  Ca  Ca11  1  0.18014274  0.87500000  0.08704264  1.0
  Ca  Ca12  1  0.51347607  0.20833333  0.08704264  1.0
  Ca  Ca13  1  0.51347607  0.54166667  0.08704264  1.0
  Ca  Ca14  1  0.51347607  0.87500000  0.08704264  1.0
  Ca  Ca15  1  0.84680940  0.20833333  0.08704264  1.0
  Ca  Ca16  1  0.84680940  0.54166667  0.08704264  1.0
  Ca  Ca17  1  0.84680940  0.87500000  0.08704264  1.0
  Ca  Ca18  1  0.32676845  0.29166667  0.11710407  1.0
  Ca  Ca19  1  0.32676845  0.62500000  0.11710407  1.0
  Ca  Ca20  1  0.32676845  0.95833333  0.11710407  1.0
  Ca  Ca21  1  0.66010179  0.29166667  0.11710407  1.0
  Ca  Ca22  1  0.66010179  0.62500000  0.11710407  1.0
  Ca  Ca23  1  0.66010179  0.95833333  0.11710407  1.0
  Ca  Ca24  1  0.99343512  0.29166667  0.11710407  1.0
  Ca  Ca25  1  0.99343512  0.62500000  0.11710407  1.0
  Ca  Ca26  1  0.99343512  0.95833333  0.11710407  1.0
  Ca  Ca27  1  0.04105417  0.12500000  0.04567550  1.0
  Ca  Ca28  1  0.04105417  0.45833333  0.04567550  1.0
  Ca  Ca29  1  0.04105417  0.79166667  0.04567550  1.0
  Ca  Ca30  1  0.37438750  0.12500000  0.04567550  1.0
  Ca  Ca31  1  0.37438750  0.45833333  0.04567550  1.0
  Ca  Ca32  1  0.37438750  0.79166667  0.04567550  1.0
  Ca  Ca33  1  0.70772083  0.12500000  0.04567550  1.0
  Ca  Ca34  1  0.70772083  0.45833333  0.04567550  1.0
  Ca  Ca35  1  0.70772083  0.79166667  0.04567550  1.0
  Ca  Ca36  1  0.13252369  0.04166667  0.15847121  1.0
  Ca  Ca37  1  0.13252369  0.37500000  0.15847121  1.0
  Ca  Ca38  1  0.13252369  0.70833333  0.15847121  1.0
  Ca  Ca39  1  0.46585702  0.04166667  0.15847121  1.0
  Ca  Ca40  1  0.46585702  0.37500000  0.15847121  1.0
  Ca  Ca41  1  0.46585702  0.70833333  0.15847121  1.0
  Ca  Ca42  1  0.79919036  0.04166667  0.15847121  1.0
  Ca  Ca43  1  0.79919036  0.37500000  0.15847121  1.0
  Ca  Ca44  1  0.79919036  0.70833333  0.15847121  1.0
  Ca  Ca45  1  0.08490464  0.20833333  0.22989979  1.0
  Ca  Ca46  1  0.08490464  0.54166667  0.22989979  1.0
  Ca  Ca47  1  0.08490464  0.87500000  0.22989979  1.0
  Ca  Ca48  1  0.41823798  0.20833333  0.22989979  1.0
  Ca  Ca49  1  0.41823798  0.54166667  0.22989979  1.0
  Ca  Ca50  1  0.41823798  0.87500000  0.22989979  1.0
  Ca  Ca51  1  0.75157131  0.20833333  0.22989979  1.0
  Ca  Ca52  1  0.75157131  0.54166667  0.22989979  1.0
  Ca  Ca53  1  0.75157131  0.87500000  0.22989979  1.0
  Ca  Ca54  1  0.23153036  0.29166667  0.25996121  1.0
  Ca  Ca55  1  0.23153036  0.62500000  0.25996121  1.0
  Ca  Ca56  1  0.23153036  0.95833333  0.25996121  1.0
  Ca  Ca57  1  0.56486369  0.29166667  0.25996121  1.0
  Ca  Ca58  1  0.56486369  0.62500000  0.25996121  1.0
  Ca  Ca59  1  0.56486369  0.95833333  0.25996121  1.0
  Ca  Ca60  1  0.89819702  0.29166667  0.25996121  1.0
  Ca  Ca61  1  0.89819702  0.62500000  0.25996121  1.0
  Ca  Ca62  1  0.89819702  0.95833333  0.25996121  1.0
  Ca  Ca63  1  0.27914940  0.12500000  0.18853264  1.0
  Ca  Ca64  1  0.27914940  0.45833333  0.18853264  1.0
  Ca  Ca65  1  0.27914940  0.79166667  0.18853264  1.0
  Ca  Ca66  1  0.61248274  0.12500000  0.18853264  1.0
  Ca  Ca67  1  0.61248274  0.45833333  0.18853264  1.0
  Ca  Ca68  1  0.61248274  0.79166667  0.18853264  1.0
  Ca  Ca69  1  0.94581607  0.12500000  0.18853264  1.0
  Ca  Ca70  1  0.94581607  0.45833333  0.18853264  1.0
  Ca  Ca71  1  0.94581607  0.79166667  0.18853264  1.0
  Ca  Ca72  1  0.03728560  0.04166667  0.30132836  1.0
  Ca  Ca73  1  0.03728560  0.37500000  0.30132836  1.0
  Ca  Ca74  1  0.03728560  0.70833333  0.30132836  1.0
  Ca  Ca75  1  0.37061893  0.04166667  0.30132836  1.0
  Ca  Ca76  1  0.37061893  0.37500000  0.30132836  1.0
  Ca  Ca77  1  0.37061893  0.70833333  0.30132836  1.0
  Ca  Ca78  1  0.70395226  0.04166667  0.30132836  1.0
  Ca  Ca79  1  0.70395226  0.37500000  0.30132836  1.0
  Ca  Ca80  1  0.70395226  0.70833333  0.30132836  1.0
  Ca  Ca81  1  0.32299988  0.20833333  0.37275693  1.0
  Ca  Ca82  1  0.32299988  0.54166667  0.37275693  1.0
  Ca  Ca83  1  0.32299988  0.87500000  0.37275693  1.0
  Ca  Ca84  1  0.65633321  0.20833333  0.37275693  1.0
  Ca  Ca85  1  0.65633321  0.54166667  0.37275693  1.0
  Ca  Ca86  1  0.65633321  0.87500000  0.37275693  1.0
  Ca  Ca87  1  0.98966655  0.20833333  0.37275693  1.0
  Ca  Ca88  1  0.98966655  0.54166667  0.37275693  1.0
  Ca  Ca89  1  0.98966655  0.87500000  0.37275693  1.0
  Ca  Ca90  1  0.13629226  0.29166667  0.40281836  1.0
  Ca  Ca91  1  0.13629226  0.62500000  0.40281836  1.0
  Ca  Ca92  1  0.13629226  0.95833333  0.40281836  1.0
  Ca  Ca93  1  0.46962560  0.29166667  0.40281836  1.0
  Ca  Ca94  1  0.46962560  0.62500000  0.40281836  1.0
  Ca  Ca95  1  0.46962560  0.95833333  0.40281836  1.0
  Ca  Ca96  1  0.80295893  0.29166667  0.40281836  1.0
  Ca  Ca97  1  0.80295893  0.62500000  0.40281836  1.0
  Ca  Ca98  1  0.80295893  0.95833333  0.40281836  1.0
  Ca  Ca99  1  0.18391131  0.12500000  0.33138979  1.0
  Ca  Ca100  1  0.18391131  0.45833333  0.33138979  1.0
  Ca  Ca101  1  0.18391131  0.79166667  0.33138979  1.0
  Ca  Ca102  1  0.51724464  0.12500000  0.33138979  1.0
  Ca  Ca103  1  0.51724464  0.45833333  0.33138979  1.0
  Ca  Ca104  1  0.51724464  0.79166667  0.33138979  1.0
  Ca  Ca105  1  0.85057798  0.12500000  0.33138979  1.0
  Ca  Ca106  1  0.85057798  0.45833333  0.33138979  1.0
  Ca  Ca107  1  0.85057798  0.79166667  0.33138979  1.0
  Ni  Ni108  1  0.32763017  0.31947600  0.03238350  1.0
  Ni  Ni109  1  0.32763017  0.65280933  0.03238350  1.0
  Ni  Ni110  1  0.32763017  0.98614267  0.03238350  1.0
  Ni  Ni111  1  0.66096350  0.31947600  0.03238350  1.0
  Ni  Ni112  1  0.66096350  0.65280933  0.03238350  1.0
  Ni  Ni113  1  0.66096350  0.98614267  0.03238350  1.0
  Ni  Ni114  1  0.99429683  0.31947600  0.03238350  1.0
  Ni  Ni115  1  0.99429683  0.65280933  0.03238350  1.0
  Ni  Ni116  1  0.99429683  0.98614267  0.03238350  1.0
  Ni  Ni117  1  0.28001112  0.15280933  0.10381207  1.0
  Ni  Ni118  1  0.28001112  0.48614267  0.10381207  1.0
  Ni  Ni119  1  0.28001112  0.81947600  0.10381207  1.0
  Ni  Ni120  1  0.61334445  0.15280933  0.10381207  1.0
  Ni  Ni121  1  0.61334445  0.48614267  0.10381207  1.0
  Ni  Ni122  1  0.61334445  0.81947600  0.10381207  1.0
  Ni  Ni123  1  0.94667779  0.15280933  0.10381207  1.0
  Ni  Ni124  1  0.94667779  0.48614267  0.10381207  1.0
  Ni  Ni125  1  0.94667779  0.81947600  0.10381207  1.0
  Ni  Ni126  1  0.04202407  0.09719067  0.12764864  1.0
  Ni  Ni127  1  0.04202407  0.43052400  0.12764864  1.0
  Ni  Ni128  1  0.04202407  0.76385733  0.12764864  1.0
  Ni  Ni129  1  0.37535740  0.09719067  0.12764864  1.0
  Ni  Ni130  1  0.37535740  0.43052400  0.12764864  1.0
  Ni  Ni131  1  0.37535740  0.76385733  0.12764864  1.0
  Ni  Ni132  1  0.70869074  0.09719067  0.12764864  1.0
  Ni  Ni133  1  0.70869074  0.43052400  0.12764864  1.0
  Ni  Ni134  1  0.70869074  0.76385733  0.12764864  1.0
  Ni  Ni135  1  0.08964312  0.26385733  0.05622007  1.0
  Ni  Ni136  1  0.08964312  0.59719067  0.05622007  1.0
  Ni  Ni137  1  0.08964312  0.93052400  0.05622007  1.0
  Ni  Ni138  1  0.42297645  0.26385733  0.05622007  1.0
  Ni  Ni139  1  0.42297645  0.59719067  0.05622007  1.0
  Ni  Ni140  1  0.42297645  0.93052400  0.05622007  1.0
  Ni  Ni141  1  0.75630979  0.26385733  0.05622007  1.0
  Ni  Ni142  1  0.75630979  0.59719067  0.05622007  1.0
  Ni  Ni143  1  0.75630979  0.93052400  0.05622007  1.0
  Ni  Ni144  1  0.17917283  0.23614267  0.00506950  1.0
  Ni  Ni145  1  0.17917283  0.56947600  0.00506950  1.0
  Ni  Ni146  1  0.17917283  0.90280933  0.00506950  1.0
  Ni  Ni147  1  0.51250617  0.23614267  0.00506950  1.0
  Ni  Ni148  1  0.51250617  0.56947600  0.00506950  1.0
  Ni  Ni149  1  0.51250617  0.90280933  0.00506950  1.0
  Ni  Ni150  1  0.84583950  0.23614267  0.00506950  1.0
  Ni  Ni151  1  0.84583950  0.56947600  0.00506950  1.0
  Ni  Ni152  1  0.84583950  0.90280933  0.00506950  1.0
  Ni  Ni153  1  0.13155379  0.06947600  0.07649807  1.0
  Ni  Ni154  1  0.13155379  0.40280933  0.07649807  1.0
  Ni  Ni155  1  0.13155379  0.73614267  0.07649807  1.0
  Ni  Ni156  1  0.46488712  0.06947600  0.07649807  1.0
  Ni  Ni157  1  0.46488712  0.40280933  0.07649807  1.0
  Ni  Ni158  1  0.46488712  0.73614267  0.07649807  1.0
  Ni  Ni159  1  0.79822045  0.06947600  0.07649807  1.0
  Ni  Ni160  1  0.79822045  0.40280933  0.07649807  1.0
  Ni  Ni161  1  0.79822045  0.73614267  0.07649807  1.0
  Ni  Ni162  1  0.22690007  0.01385733  0.10033464  1.0
  Ni  Ni163  1  0.22690007  0.34719067  0.10033464  1.0
  Ni  Ni164  1  0.22690007  0.68052400  0.10033464  1.0
  Ni  Ni165  1  0.56023340  0.01385733  0.10033464  1.0
  Ni  Ni166  1  0.56023340  0.34719067  0.10033464  1.0
  Ni  Ni167  1  0.56023340  0.68052400  0.10033464  1.0
  Ni  Ni168  1  0.89356674  0.01385733  0.10033464  1.0
  Ni  Ni169  1  0.89356674  0.34719067  0.10033464  1.0
  Ni  Ni170  1  0.89356674  0.68052400  0.10033464  1.0
  Ni  Ni171  1  0.27451912  0.18052400  0.02890607  1.0
  Ni  Ni172  1  0.27451912  0.51385733  0.02890607  1.0
  Ni  Ni173  1  0.27451912  0.84719067  0.02890607  1.0
  Ni  Ni174  1  0.60785245  0.18052400  0.02890607  1.0
  Ni  Ni175  1  0.60785245  0.51385733  0.02890607  1.0
  Ni  Ni176  1  0.60785245  0.84719067  0.02890607  1.0
  Ni  Ni177  1  0.94118579  0.18052400  0.02890607  1.0
  Ni  Ni178  1  0.94118579  0.51385733  0.02890607  1.0
  Ni  Ni179  1  0.94118579  0.84719067  0.02890607  1.0
  Ni  Ni180  1  0.25345560  0.08333333  0.10207336  1.0
  Ni  Ni181  1  0.25345560  0.41666667  0.10207336  1.0
  Ni  Ni182  1  0.25345560  0.75000000  0.10207336  1.0
  Ni  Ni183  1  0.58678893  0.08333333  0.10207336  1.0
  Ni  Ni184  1  0.58678893  0.41666667  0.10207336  1.0
  Ni  Ni185  1  0.58678893  0.75000000  0.10207336  1.0
  Ni  Ni186  1  0.92012226  0.08333333  0.10207336  1.0
  Ni  Ni187  1  0.92012226  0.41666667  0.10207336  1.0
  Ni  Ni188  1  0.92012226  0.75000000  0.10207336  1.0
  Ni  Ni189  1  0.30107464  0.25000000  0.03064479  1.0
  Ni  Ni190  1  0.30107464  0.58333333  0.03064479  1.0
  Ni  Ni191  1  0.30107464  0.91666667  0.03064479  1.0
  Ni  Ni192  1  0.63440798  0.25000000  0.03064479  1.0
  Ni  Ni193  1  0.63440798  0.58333333  0.03064479  1.0
  Ni  Ni194  1  0.63440798  0.91666667  0.03064479  1.0
  Ni  Ni195  1  0.96774131  0.25000000  0.03064479  1.0
  Ni  Ni196  1  0.96774131  0.58333333  0.03064479  1.0
  Ni  Ni197  1  0.96774131  0.91666667  0.03064479  1.0
  Ni  Ni198  1  0.11059845  0.00000000  0.06635907  1.0
  Ni  Ni199  1  0.11059845  0.33333333  0.06635907  1.0
  Ni  Ni200  1  0.11059845  0.66666667  0.06635907  1.0
  Ni  Ni201  1  0.44393179  0.00000000  0.06635907  1.0
  Ni  Ni202  1  0.44393179  0.33333333  0.06635907  1.0
  Ni  Ni203  1  0.44393179  0.66666667  0.06635907  1.0
  Ni  Ni204  1  0.77726512  0.00000000  0.06635907  1.0
  Ni  Ni205  1  0.77726512  0.33333333  0.06635907  1.0
  Ni  Ni206  1  0.77726512  0.66666667  0.06635907  1.0
  Ni  Ni207  1  0.06297940  0.16666667  0.13778764  1.0
  Ni  Ni208  1  0.06297940  0.50000000  0.13778764  1.0
  Ni  Ni209  1  0.06297940  0.83333333  0.13778764  1.0
  Ni  Ni210  1  0.39631274  0.16666667  0.13778764  1.0
  Ni  Ni211  1  0.39631274  0.50000000  0.13778764  1.0
  Ni  Ni212  1  0.39631274  0.83333333  0.13778764  1.0
  Ni  Ni213  1  0.72964607  0.16666667  0.13778764  1.0
  Ni  Ni214  1  0.72964607  0.50000000  0.13778764  1.0
  Ni  Ni215  1  0.72964607  0.83333333  0.13778764  1.0
  Ni  Ni216  1  0.20306883  0.12338550  0.04781000  1.0
  Ni  Ni217  1  0.20306883  0.45671883  0.04781000  1.0
  Ni  Ni218  1  0.20306883  0.79005217  0.04781000  1.0
  Ni  Ni219  1  0.53640217  0.12338550  0.04781000  1.0
  Ni  Ni220  1  0.53640217  0.45671883  0.04781000  1.0
  Ni  Ni221  1  0.53640217  0.79005217  0.04781000  1.0
  Ni  Ni222  1  0.86973550  0.12338550  0.04781000  1.0
  Ni  Ni223  1  0.86973550  0.45671883  0.04781000  1.0
  Ni  Ni224  1  0.86973550  0.79005217  0.04781000  1.0
  Ni  Ni225  1  0.15544979  0.29005217  0.11923857  1.0
  Ni  Ni226  1  0.15544979  0.62338550  0.11923857  1.0
  Ni  Ni227  1  0.15544979  0.95671883  0.11923857  1.0
  Ni  Ni228  1  0.48878312  0.29005217  0.11923857  1.0
  Ni  Ni229  1  0.48878312  0.62338550  0.11923857  1.0
  Ni  Ni230  1  0.48878312  0.95671883  0.11923857  1.0
  Ni  Ni231  1  0.82211645  0.29005217  0.11923857  1.0
  Ni  Ni232  1  0.82211645  0.62338550  0.11923857  1.0
  Ni  Ni233  1  0.82211645  0.95671883  0.11923857  1.0
  Ni  Ni234  1  0.20860426  0.29328117  0.04919386  1.0
  Ni  Ni235  1  0.20860426  0.62661450  0.04919386  1.0
  Ni  Ni236  1  0.20860426  0.95994783  0.04919386  1.0
  Ni  Ni237  1  0.54193760  0.29328117  0.04919386  1.0
  Ni  Ni238  1  0.54193760  0.62661450  0.04919386  1.0
  Ni  Ni239  1  0.54193760  0.95994783  0.04919386  1.0
  Ni  Ni240  1  0.87527093  0.29328117  0.04919386  1.0
  Ni  Ni241  1  0.87527093  0.62661450  0.04919386  1.0
  Ni  Ni242  1  0.87527093  0.95994783  0.04919386  1.0
  Ni  Ni243  1  0.16098521  0.12661450  0.12062243  1.0
  Ni  Ni244  1  0.16098521  0.45994783  0.12062243  1.0
  Ni  Ni245  1  0.16098521  0.79328117  0.12062243  1.0
  Ni  Ni246  1  0.49431855  0.12661450  0.12062243  1.0
  Ni  Ni247  1  0.49431855  0.45994783  0.12062243  1.0
  Ni  Ni248  1  0.49431855  0.79328117  0.12062243  1.0
  Ni  Ni249  1  0.82765188  0.12661450  0.12062243  1.0
  Ni  Ni250  1  0.82765188  0.45994783  0.12062243  1.0
  Ni  Ni251  1  0.82765188  0.79328117  0.12062243  1.0
  Ni  Ni252  1  0.01259264  0.04005217  0.08352429  1.0
  Ni  Ni253  1  0.01259264  0.37338550  0.08352429  1.0
  Ni  Ni254  1  0.01259264  0.70671883  0.08352429  1.0
  Ni  Ni255  1  0.34592598  0.04005217  0.08352429  1.0
  Ni  Ni256  1  0.34592598  0.37338550  0.08352429  1.0
  Ni  Ni257  1  0.34592598  0.70671883  0.08352429  1.0
  Ni  Ni258  1  0.67925931  0.04005217  0.08352429  1.0
  Ni  Ni259  1  0.67925931  0.37338550  0.08352429  1.0
  Ni  Ni260  1  0.67925931  0.70671883  0.08352429  1.0
  Ni  Ni261  1  0.06021169  0.20671883  0.01209571  1.0
  Ni  Ni262  1  0.06021169  0.54005217  0.01209571  1.0
  Ni  Ni263  1  0.06021169  0.87338550  0.01209571  1.0
  Ni  Ni264  1  0.39354502  0.20671883  0.01209571  1.0
  Ni  Ni265  1  0.39354502  0.54005217  0.01209571  1.0
  Ni  Ni266  1  0.39354502  0.87338550  0.01209571  1.0
  Ni  Ni267  1  0.72687836  0.20671883  0.01209571  1.0
  Ni  Ni268  1  0.72687836  0.54005217  0.01209571  1.0
  Ni  Ni269  1  0.72687836  0.87338550  0.01209571  1.0
  Ni  Ni270  1  0.06574712  0.04328117  0.01347957  1.0
  Ni  Ni271  1  0.06574712  0.37661450  0.01347957  1.0
  Ni  Ni272  1  0.06574712  0.70994783  0.01347957  1.0
  Ni  Ni273  1  0.39908045  0.04328117  0.01347957  1.0
  Ni  Ni274  1  0.39908045  0.37661450  0.01347957  1.0
  Ni  Ni275  1  0.39908045  0.70994783  0.01347957  1.0
  Ni  Ni276  1  0.73241379  0.04328117  0.01347957  1.0
  Ni  Ni277  1  0.73241379  0.37661450  0.01347957  1.0
  Ni  Ni278  1  0.73241379  0.70994783  0.01347957  1.0
  Ni  Ni279  1  0.01812807  0.20994783  0.08490814  1.0
  Ni  Ni280  1  0.01812807  0.54328117  0.08490814  1.0
  Ni  Ni281  1  0.01812807  0.87661450  0.08490814  1.0
  Ni  Ni282  1  0.35146140  0.20994783  0.08490814  1.0
  Ni  Ni283  1  0.35146140  0.54328117  0.08490814  1.0
  Ni  Ni284  1  0.35146140  0.87661450  0.08490814  1.0
  Ni  Ni285  1  0.68479474  0.20994783  0.08490814  1.0
  Ni  Ni286  1  0.68479474  0.54328117  0.08490814  1.0
  Ni  Ni287  1  0.68479474  0.87661450  0.08490814  1.0
  Ni  Ni288  1  0.23239207  0.31947600  0.17524064  1.0
  Ni  Ni289  1  0.23239207  0.65280933  0.17524064  1.0
  Ni  Ni290  1  0.23239207  0.98614267  0.17524064  1.0
  Ni  Ni291  1  0.56572540  0.31947600  0.17524064  1.0
  Ni  Ni292  1  0.56572540  0.65280933  0.17524064  1.0
  Ni  Ni293  1  0.56572540  0.98614267  0.17524064  1.0
  Ni  Ni294  1  0.89905874  0.31947600  0.17524064  1.0
  Ni  Ni295  1  0.89905874  0.65280933  0.17524064  1.0
  Ni  Ni296  1  0.89905874  0.98614267  0.17524064  1.0
  Ni  Ni297  1  0.18477302  0.15280933  0.24666921  1.0
  Ni  Ni298  1  0.18477302  0.48614267  0.24666921  1.0
  Ni  Ni299  1  0.18477302  0.81947600  0.24666921  1.0
  Ni  Ni300  1  0.51810636  0.15280933  0.24666921  1.0
  Ni  Ni301  1  0.51810636  0.48614267  0.24666921  1.0
  Ni  Ni302  1  0.51810636  0.81947600  0.24666921  1.0
  Ni  Ni303  1  0.85143969  0.15280933  0.24666921  1.0
  Ni  Ni304  1  0.85143969  0.48614267  0.24666921  1.0
  Ni  Ni305  1  0.85143969  0.81947600  0.24666921  1.0
  Ni  Ni306  1  0.28011931  0.09719067  0.27050579  1.0
  Ni  Ni307  1  0.28011931  0.43052400  0.27050579  1.0
  Ni  Ni308  1  0.28011931  0.76385733  0.27050579  1.0
  Ni  Ni309  1  0.61345264  0.09719067  0.27050579  1.0
  Ni  Ni310  1  0.61345264  0.43052400  0.27050579  1.0
  Ni  Ni311  1  0.61345264  0.76385733  0.27050579  1.0
  Ni  Ni312  1  0.94678598  0.09719067  0.27050579  1.0
  Ni  Ni313  1  0.94678598  0.43052400  0.27050579  1.0
  Ni  Ni314  1  0.94678598  0.76385733  0.27050579  1.0
  Ni  Ni315  1  0.32773836  0.26385733  0.19907721  1.0
  Ni  Ni316  1  0.32773836  0.59719067  0.19907721  1.0
  Ni  Ni317  1  0.32773836  0.93052400  0.19907721  1.0
  Ni  Ni318  1  0.66107169  0.26385733  0.19907721  1.0
  Ni  Ni319  1  0.66107169  0.59719067  0.19907721  1.0
  Ni  Ni320  1  0.66107169  0.93052400  0.19907721  1.0
  Ni  Ni321  1  0.99440502  0.26385733  0.19907721  1.0
  Ni  Ni322  1  0.99440502  0.59719067  0.19907721  1.0
  Ni  Ni323  1  0.99440502  0.93052400  0.19907721  1.0
  Ni  Ni324  1  0.08393474  0.23614267  0.14792664  1.0
  Ni  Ni325  1  0.08393474  0.56947600  0.14792664  1.0
  Ni  Ni326  1  0.08393474  0.90280933  0.14792664  1.0
  Ni  Ni327  1  0.41726807  0.23614267  0.14792664  1.0
  Ni  Ni328  1  0.41726807  0.56947600  0.14792664  1.0
  Ni  Ni329  1  0.41726807  0.90280933  0.14792664  1.0
  Ni  Ni330  1  0.75060140  0.23614267  0.14792664  1.0
  Ni  Ni331  1  0.75060140  0.56947600  0.14792664  1.0
  Ni  Ni332  1  0.75060140  0.90280933  0.14792664  1.0
  Ni  Ni333  1  0.03631569  0.06947600  0.21935521  1.0
  Ni  Ni334  1  0.03631569  0.40280933  0.21935521  1.0
  Ni  Ni335  1  0.03631569  0.73614267  0.21935521  1.0
  Ni  Ni336  1  0.36964902  0.06947600  0.21935521  1.0
  Ni  Ni337  1  0.36964902  0.40280933  0.21935521  1.0
  Ni  Ni338  1  0.36964902  0.73614267  0.21935521  1.0
  Ni  Ni339  1  0.70298236  0.06947600  0.21935521  1.0
  Ni  Ni340  1  0.70298236  0.40280933  0.21935521  1.0
  Ni  Ni341  1  0.70298236  0.73614267  0.21935521  1.0
  Ni  Ni342  1  0.13166198  0.01385733  0.24319179  1.0
  Ni  Ni343  1  0.13166198  0.34719067  0.24319179  1.0
  Ni  Ni344  1  0.13166198  0.68052400  0.24319179  1.0
  Ni  Ni345  1  0.46499531  0.01385733  0.24319179  1.0
  Ni  Ni346  1  0.46499531  0.34719067  0.24319179  1.0
  Ni  Ni347  1  0.46499531  0.68052400  0.24319179  1.0
  Ni  Ni348  1  0.79832864  0.01385733  0.24319179  1.0
  Ni  Ni349  1  0.79832864  0.34719067  0.24319179  1.0
  Ni  Ni350  1  0.79832864  0.68052400  0.24319179  1.0
  Ni  Ni351  1  0.17928102  0.18052400  0.17176321  1.0
  Ni  Ni352  1  0.17928102  0.51385733  0.17176321  1.0
  Ni  Ni353  1  0.17928102  0.84719067  0.17176321  1.0
  Ni  Ni354  1  0.51261436  0.18052400  0.17176321  1.0
  Ni  Ni355  1  0.51261436  0.51385733  0.17176321  1.0
  Ni  Ni356  1  0.51261436  0.84719067  0.17176321  1.0
  Ni  Ni357  1  0.84594769  0.18052400  0.17176321  1.0
  Ni  Ni358  1  0.84594769  0.51385733  0.17176321  1.0
  Ni  Ni359  1  0.84594769  0.84719067  0.17176321  1.0
  Ni  Ni360  1  0.15821750  0.08333333  0.24493050  1.0
  Ni  Ni361  1  0.15821750  0.41666667  0.24493050  1.0
  Ni  Ni362  1  0.15821750  0.75000000  0.24493050  1.0
  Ni  Ni363  1  0.49155083  0.08333333  0.24493050  1.0
  Ni  Ni364  1  0.49155083  0.41666667  0.24493050  1.0
  Ni  Ni365  1  0.49155083  0.75000000  0.24493050  1.0
  Ni  Ni366  1  0.82488417  0.08333333  0.24493050  1.0
  Ni  Ni367  1  0.82488417  0.41666667  0.24493050  1.0
  Ni  Ni368  1  0.82488417  0.75000000  0.24493050  1.0
  Ni  Ni369  1  0.20583655  0.25000000  0.17350193  1.0
  Ni  Ni370  1  0.20583655  0.58333333  0.17350193  1.0
  Ni  Ni371  1  0.20583655  0.91666667  0.17350193  1.0
  Ni  Ni372  1  0.53916988  0.25000000  0.17350193  1.0
  Ni  Ni373  1  0.53916988  0.58333333  0.17350193  1.0
  Ni  Ni374  1  0.53916988  0.91666667  0.17350193  1.0
  Ni  Ni375  1  0.87250321  0.25000000  0.17350193  1.0
  Ni  Ni376  1  0.87250321  0.58333333  0.17350193  1.0
  Ni  Ni377  1  0.87250321  0.91666667  0.17350193  1.0
  Ni  Ni378  1  0.01536036  0.00000000  0.20921621  1.0
  Ni  Ni379  1  0.01536036  0.33333333  0.20921621  1.0
  Ni  Ni380  1  0.01536036  0.66666667  0.20921621  1.0
  Ni  Ni381  1  0.34869369  0.00000000  0.20921621  1.0
  Ni  Ni382  1  0.34869369  0.33333333  0.20921621  1.0
  Ni  Ni383  1  0.34869369  0.66666667  0.20921621  1.0
  Ni  Ni384  1  0.68202702  0.00000000  0.20921621  1.0
  Ni  Ni385  1  0.68202702  0.33333333  0.20921621  1.0
  Ni  Ni386  1  0.68202702  0.66666667  0.20921621  1.0
  Ni  Ni387  1  0.30107464  0.16666667  0.28064479  1.0
  Ni  Ni388  1  0.30107464  0.50000000  0.28064479  1.0
  Ni  Ni389  1  0.30107464  0.83333333  0.28064479  1.0
  Ni  Ni390  1  0.63440798  0.16666667  0.28064479  1.0
  Ni  Ni391  1  0.63440798  0.50000000  0.28064479  1.0
  Ni  Ni392  1  0.63440798  0.83333333  0.28064479  1.0
  Ni  Ni393  1  0.96774131  0.16666667  0.28064479  1.0
  Ni  Ni394  1  0.96774131  0.50000000  0.28064479  1.0
  Ni  Ni395  1  0.96774131  0.83333333  0.28064479  1.0
  Ni  Ni396  1  0.10783074  0.12338550  0.19066714  1.0
  Ni  Ni397  1  0.10783074  0.45671883  0.19066714  1.0
  Ni  Ni398  1  0.10783074  0.79005217  0.19066714  1.0
  Ni  Ni399  1  0.44116407  0.12338550  0.19066714  1.0
  Ni  Ni400  1  0.44116407  0.45671883  0.19066714  1.0
  Ni  Ni401  1  0.44116407  0.79005217  0.19066714  1.0
  Ni  Ni402  1  0.77449740  0.12338550  0.19066714  1.0
  Ni  Ni403  1  0.77449740  0.45671883  0.19066714  1.0
  Ni  Ni404  1  0.77449740  0.79005217  0.19066714  1.0
  Ni  Ni405  1  0.06021169  0.29005217  0.26209571  1.0
  Ni  Ni406  1  0.06021169  0.62338550  0.26209571  1.0
  Ni  Ni407  1  0.06021169  0.95671883  0.26209571  1.0
  Ni  Ni408  1  0.39354502  0.29005217  0.26209571  1.0
  Ni  Ni409  1  0.39354502  0.62338550  0.26209571  1.0
  Ni  Ni410  1  0.39354502  0.95671883  0.26209571  1.0
  Ni  Ni411  1  0.72687836  0.29005217  0.26209571  1.0
  Ni  Ni412  1  0.72687836  0.62338550  0.26209571  1.0
  Ni  Ni413  1  0.72687836  0.95671883  0.26209571  1.0
  Ni  Ni414  1  0.11336617  0.29328117  0.19205100  1.0
  Ni  Ni415  1  0.11336617  0.62661450  0.19205100  1.0
  Ni  Ni416  1  0.11336617  0.95994783  0.19205100  1.0
  Ni  Ni417  1  0.44669950  0.29328117  0.19205100  1.0
  Ni  Ni418  1  0.44669950  0.62661450  0.19205100  1.0
  Ni  Ni419  1  0.44669950  0.95994783  0.19205100  1.0
  Ni  Ni420  1  0.78003283  0.29328117  0.19205100  1.0
  Ni  Ni421  1  0.78003283  0.62661450  0.19205100  1.0
  Ni  Ni422  1  0.78003283  0.95994783  0.19205100  1.0
  Ni  Ni423  1  0.06574712  0.12661450  0.26347957  1.0
  Ni  Ni424  1  0.06574712  0.45994783  0.26347957  1.0
  Ni  Ni425  1  0.06574712  0.79328117  0.26347957  1.0
  Ni  Ni426  1  0.39908045  0.12661450  0.26347957  1.0
  Ni  Ni427  1  0.39908045  0.45994783  0.26347957  1.0
  Ni  Ni428  1  0.39908045  0.79328117  0.26347957  1.0
  Ni  Ni429  1  0.73241379  0.12661450  0.26347957  1.0
  Ni  Ni430  1  0.73241379  0.45994783  0.26347957  1.0
  Ni  Ni431  1  0.73241379  0.79328117  0.26347957  1.0
  Ni  Ni432  1  0.25068788  0.04005217  0.22638143  1.0
  Ni  Ni433  1  0.25068788  0.37338550  0.22638143  1.0
  Ni  Ni434  1  0.25068788  0.70671883  0.22638143  1.0
  Ni  Ni435  1  0.58402121  0.04005217  0.22638143  1.0
  Ni  Ni436  1  0.58402121  0.37338550  0.22638143  1.0
  Ni  Ni437  1  0.58402121  0.70671883  0.22638143  1.0
  Ni  Ni438  1  0.91735455  0.04005217  0.22638143  1.0
  Ni  Ni439  1  0.91735455  0.37338550  0.22638143  1.0
  Ni  Ni440  1  0.91735455  0.70671883  0.22638143  1.0
  Ni  Ni441  1  0.29830693  0.20671883  0.15495286  1.0
  Ni  Ni442  1  0.29830693  0.54005217  0.15495286  1.0
  Ni  Ni443  1  0.29830693  0.87338550  0.15495286  1.0
  Ni  Ni444  1  0.63164026  0.20671883  0.15495286  1.0
  Ni  Ni445  1  0.63164026  0.54005217  0.15495286  1.0
  Ni  Ni446  1  0.63164026  0.87338550  0.15495286  1.0
  Ni  Ni447  1  0.96497360  0.20671883  0.15495286  1.0
  Ni  Ni448  1  0.96497360  0.54005217  0.15495286  1.0
  Ni  Ni449  1  0.96497360  0.87338550  0.15495286  1.0
  Ni  Ni450  1  0.30384236  0.04328117  0.15633671  1.0
  Ni  Ni451  1  0.30384236  0.37661450  0.15633671  1.0
  Ni  Ni452  1  0.30384236  0.70994783  0.15633671  1.0
  Ni  Ni453  1  0.63717569  0.04328117  0.15633671  1.0
  Ni  Ni454  1  0.63717569  0.37661450  0.15633671  1.0
  Ni  Ni455  1  0.63717569  0.70994783  0.15633671  1.0
  Ni  Ni456  1  0.97050902  0.04328117  0.15633671  1.0
  Ni  Ni457  1  0.97050902  0.37661450  0.15633671  1.0
  Ni  Ni458  1  0.97050902  0.70994783  0.15633671  1.0
  Ni  Ni459  1  0.25622331  0.20994783  0.22776529  1.0
  Ni  Ni460  1  0.25622331  0.54328117  0.22776529  1.0
  Ni  Ni461  1  0.25622331  0.87661450  0.22776529  1.0
  Ni  Ni462  1  0.58955664  0.20994783  0.22776529  1.0
  Ni  Ni463  1  0.58955664  0.54328117  0.22776529  1.0
  Ni  Ni464  1  0.58955664  0.87661450  0.22776529  1.0
  Ni  Ni465  1  0.92288998  0.20994783  0.22776529  1.0
  Ni  Ni466  1  0.92288998  0.54328117  0.22776529  1.0
  Ni  Ni467  1  0.92288998  0.87661450  0.22776529  1.0
  Ni  Ni468  1  0.13715398  0.31947600  0.31809779  1.0
  Ni  Ni469  1  0.13715398  0.65280933  0.31809779  1.0
  Ni  Ni470  1  0.13715398  0.98614267  0.31809779  1.0
  Ni  Ni471  1  0.47048731  0.31947600  0.31809779  1.0
  Ni  Ni472  1  0.47048731  0.65280933  0.31809779  1.0
  Ni  Ni473  1  0.47048731  0.98614267  0.31809779  1.0
  Ni  Ni474  1  0.80382064  0.31947600  0.31809779  1.0
  Ni  Ni475  1  0.80382064  0.65280933  0.31809779  1.0
  Ni  Ni476  1  0.80382064  0.98614267  0.31809779  1.0
  Ni  Ni477  1  0.08953493  0.15280933  0.38952636  1.0
  Ni  Ni478  1  0.08953493  0.48614267  0.38952636  1.0
  Ni  Ni479  1  0.08953493  0.81947600  0.38952636  1.0
  Ni  Ni480  1  0.42286826  0.15280933  0.38952636  1.0
  Ni  Ni481  1  0.42286826  0.48614267  0.38952636  1.0
  Ni  Ni482  1  0.42286826  0.81947600  0.38952636  1.0
  Ni  Ni483  1  0.75620160  0.15280933  0.38952636  1.0
  Ni  Ni484  1  0.75620160  0.48614267  0.38952636  1.0
  Ni  Ni485  1  0.75620160  0.81947600  0.38952636  1.0
  Ni  Ni486  1  0.18488121  0.09719067  0.41336293  1.0
  Ni  Ni487  1  0.18488121  0.43052400  0.41336293  1.0
  Ni  Ni488  1  0.18488121  0.76385733  0.41336293  1.0
  Ni  Ni489  1  0.51821455  0.09719067  0.41336293  1.0
  Ni  Ni490  1  0.51821455  0.43052400  0.41336293  1.0
  Ni  Ni491  1  0.51821455  0.76385733  0.41336293  1.0
  Ni  Ni492  1  0.85154788  0.09719067  0.41336293  1.0
  Ni  Ni493  1  0.85154788  0.43052400  0.41336293  1.0
  Ni  Ni494  1  0.85154788  0.76385733  0.41336293  1.0
  Ni  Ni495  1  0.23250026  0.26385733  0.34193436  1.0
  Ni  Ni496  1  0.23250026  0.59719067  0.34193436  1.0
  Ni  Ni497  1  0.23250026  0.93052400  0.34193436  1.0
  Ni  Ni498  1  0.56583360  0.26385733  0.34193436  1.0
  Ni  Ni499  1  0.56583360  0.59719067  0.34193436  1.0
  Ni  Ni500  1  0.56583360  0.93052400  0.34193436  1.0
  Ni  Ni501  1  0.89916693  0.26385733  0.34193436  1.0
  Ni  Ni502  1  0.89916693  0.59719067  0.34193436  1.0
  Ni  Ni503  1  0.89916693  0.93052400  0.34193436  1.0
  Ni  Ni504  1  0.32202998  0.23614267  0.29078379  1.0
  Ni  Ni505  1  0.32202998  0.56947600  0.29078379  1.0
  Ni  Ni506  1  0.32202998  0.90280933  0.29078379  1.0
  Ni  Ni507  1  0.65536331  0.23614267  0.29078379  1.0
  Ni  Ni508  1  0.65536331  0.56947600  0.29078379  1.0
  Ni  Ni509  1  0.65536331  0.90280933  0.29078379  1.0
  Ni  Ni510  1  0.98869664  0.23614267  0.29078379  1.0
  Ni  Ni511  1  0.98869664  0.56947600  0.29078379  1.0
  Ni  Ni512  1  0.98869664  0.90280933  0.29078379  1.0
  Ni  Ni513  1  0.27441093  0.06947600  0.36221236  1.0
  Ni  Ni514  1  0.27441093  0.40280933  0.36221236  1.0
  Ni  Ni515  1  0.27441093  0.73614267  0.36221236  1.0
  Ni  Ni516  1  0.60774426  0.06947600  0.36221236  1.0
  Ni  Ni517  1  0.60774426  0.40280933  0.36221236  1.0
  Ni  Ni518  1  0.60774426  0.73614267  0.36221236  1.0
  Ni  Ni519  1  0.94107760  0.06947600  0.36221236  1.0
  Ni  Ni520  1  0.94107760  0.40280933  0.36221236  1.0
  Ni  Ni521  1  0.94107760  0.73614267  0.36221236  1.0
  Ni  Ni522  1  0.03642388  0.01385733  0.38604893  1.0
  Ni  Ni523  1  0.03642388  0.34719067  0.38604893  1.0
  Ni  Ni524  1  0.03642388  0.68052400  0.38604893  1.0
  Ni  Ni525  1  0.36975721  0.01385733  0.38604893  1.0
  Ni  Ni526  1  0.36975721  0.34719067  0.38604893  1.0
  Ni  Ni527  1  0.36975721  0.68052400  0.38604893  1.0
  Ni  Ni528  1  0.70309055  0.01385733  0.38604893  1.0
  Ni  Ni529  1  0.70309055  0.34719067  0.38604893  1.0
  Ni  Ni530  1  0.70309055  0.68052400  0.38604893  1.0
  Ni  Ni531  1  0.08404293  0.18052400  0.31462036  1.0
  Ni  Ni532  1  0.08404293  0.51385733  0.31462036  1.0
  Ni  Ni533  1  0.08404293  0.84719067  0.31462036  1.0
  Ni  Ni534  1  0.41737626  0.18052400  0.31462036  1.0
  Ni  Ni535  1  0.41737626  0.51385733  0.31462036  1.0
  Ni  Ni536  1  0.41737626  0.84719067  0.31462036  1.0
  Ni  Ni537  1  0.75070960  0.18052400  0.31462036  1.0
  Ni  Ni538  1  0.75070960  0.51385733  0.31462036  1.0
  Ni  Ni539  1  0.75070960  0.84719067  0.31462036  1.0
  Ni  Ni540  1  0.06297940  0.08333333  0.38778764  1.0
  Ni  Ni541  1  0.06297940  0.41666667  0.38778764  1.0
  Ni  Ni542  1  0.06297940  0.75000000  0.38778764  1.0
  Ni  Ni543  1  0.39631274  0.08333333  0.38778764  1.0
  Ni  Ni544  1  0.39631274  0.41666667  0.38778764  1.0
  Ni  Ni545  1  0.39631274  0.75000000  0.38778764  1.0
  Ni  Ni546  1  0.72964607  0.08333333  0.38778764  1.0
  Ni  Ni547  1  0.72964607  0.41666667  0.38778764  1.0
  Ni  Ni548  1  0.72964607  0.75000000  0.38778764  1.0
  Ni  Ni549  1  0.11059845  0.25000000  0.31635907  1.0
  Ni  Ni550  1  0.11059845  0.58333333  0.31635907  1.0
  Ni  Ni551  1  0.11059845  0.91666667  0.31635907  1.0
  Ni  Ni552  1  0.44393179  0.25000000  0.31635907  1.0
  Ni  Ni553  1  0.44393179  0.58333333  0.31635907  1.0
  Ni  Ni554  1  0.44393179  0.91666667  0.31635907  1.0
  Ni  Ni555  1  0.77726512  0.25000000  0.31635907  1.0
  Ni  Ni556  1  0.77726512  0.58333333  0.31635907  1.0
  Ni  Ni557  1  0.77726512  0.91666667  0.31635907  1.0
  Ni  Ni558  1  0.25345560  0.00000000  0.35207336  1.0
  Ni  Ni559  1  0.25345560  0.33333333  0.35207336  1.0
  Ni  Ni560  1  0.25345560  0.66666667  0.35207336  1.0
  Ni  Ni561  1  0.58678893  0.00000000  0.35207336  1.0
  Ni  Ni562  1  0.58678893  0.33333333  0.35207336  1.0
  Ni  Ni563  1  0.58678893  0.66666667  0.35207336  1.0
  Ni  Ni564  1  0.92012226  0.00000000  0.35207336  1.0
  Ni  Ni565  1  0.92012226  0.33333333  0.35207336  1.0
  Ni  Ni566  1  0.92012226  0.66666667  0.35207336  1.0
  Ni  Ni567  1  0.20583655  0.16666667  0.42350193  1.0
  Ni  Ni568  1  0.20583655  0.50000000  0.42350193  1.0
  Ni  Ni569  1  0.20583655  0.83333333  0.42350193  1.0
  Ni  Ni570  1  0.53916988  0.16666667  0.42350193  1.0
  Ni  Ni571  1  0.53916988  0.50000000  0.42350193  1.0
  Ni  Ni572  1  0.53916988  0.83333333  0.42350193  1.0
  Ni  Ni573  1  0.87250321  0.16666667  0.42350193  1.0
  Ni  Ni574  1  0.87250321  0.50000000  0.42350193  1.0
  Ni  Ni575  1  0.87250321  0.83333333  0.42350193  1.0
  Ni  Ni576  1  0.01259264  0.12338550  0.33352429  1.0
  Ni  Ni577  1  0.01259264  0.45671883  0.33352429  1.0
  Ni  Ni578  1  0.01259264  0.79005217  0.33352429  1.0
  Ni  Ni579  1  0.34592598  0.12338550  0.33352429  1.0
  Ni  Ni580  1  0.34592598  0.45671883  0.33352429  1.0
  Ni  Ni581  1  0.34592598  0.79005217  0.33352429  1.0
  Ni  Ni582  1  0.67925931  0.12338550  0.33352429  1.0
  Ni  Ni583  1  0.67925931  0.45671883  0.33352429  1.0
  Ni  Ni584  1  0.67925931  0.79005217  0.33352429  1.0
  Ni  Ni585  1  0.29830693  0.29005217  0.40495286  1.0
  Ni  Ni586  1  0.29830693  0.62338550  0.40495286  1.0
  Ni  Ni587  1  0.29830693  0.95671883  0.40495286  1.0
  Ni  Ni588  1  0.63164026  0.29005217  0.40495286  1.0
  Ni  Ni589  1  0.63164026  0.62338550  0.40495286  1.0
  Ni  Ni590  1  0.63164026  0.95671883  0.40495286  1.0
  Ni  Ni591  1  0.96497360  0.29005217  0.40495286  1.0
  Ni  Ni592  1  0.96497360  0.62338550  0.40495286  1.0
  Ni  Ni593  1  0.96497360  0.95671883  0.40495286  1.0
  Ni  Ni594  1  0.01812807  0.29328117  0.33490814  1.0
  Ni  Ni595  1  0.01812807  0.62661450  0.33490814  1.0
  Ni  Ni596  1  0.01812807  0.95994783  0.33490814  1.0
  Ni  Ni597  1  0.35146140  0.29328117  0.33490814  1.0
  Ni  Ni598  1  0.35146140  0.62661450  0.33490814  1.0
  Ni  Ni599  1  0.35146140  0.95994783  0.33490814  1.0
  Ni  Ni600  1  0.68479474  0.29328117  0.33490814  1.0
  Ni  Ni601  1  0.68479474  0.62661450  0.33490814  1.0
  Ni  Ni602  1  0.68479474  0.95994783  0.33490814  1.0
  Ni  Ni603  1  0.30384236  0.12661450  0.40633671  1.0
  Ni  Ni604  1  0.30384236  0.45994783  0.40633671  1.0
  Ni  Ni605  1  0.30384236  0.79328117  0.40633671  1.0
  Ni  Ni606  1  0.63717569  0.12661450  0.40633671  1.0
  Ni  Ni607  1  0.63717569  0.45994783  0.40633671  1.0
  Ni  Ni608  1  0.63717569  0.79328117  0.40633671  1.0
  Ni  Ni609  1  0.97050902  0.12661450  0.40633671  1.0
  Ni  Ni610  1  0.97050902  0.45994783  0.40633671  1.0
  Ni  Ni611  1  0.97050902  0.79328117  0.40633671  1.0
  Ni  Ni612  1  0.15544979  0.04005217  0.36923857  1.0
  Ni  Ni613  1  0.15544979  0.37338550  0.36923857  1.0
  Ni  Ni614  1  0.15544979  0.70671883  0.36923857  1.0
  Ni  Ni615  1  0.48878312  0.04005217  0.36923857  1.0
  Ni  Ni616  1  0.48878312  0.37338550  0.36923857  1.0
  Ni  Ni617  1  0.48878312  0.70671883  0.36923857  1.0
  Ni  Ni618  1  0.82211645  0.04005217  0.36923857  1.0
  Ni  Ni619  1  0.82211645  0.37338550  0.36923857  1.0
  Ni  Ni620  1  0.82211645  0.70671883  0.36923857  1.0
  Ni  Ni621  1  0.20306883  0.20671883  0.29781000  1.0
  Ni  Ni622  1  0.20306883  0.54005217  0.29781000  1.0
  Ni  Ni623  1  0.20306883  0.87338550  0.29781000  1.0
  Ni  Ni624  1  0.53640217  0.20671883  0.29781000  1.0
  Ni  Ni625  1  0.53640217  0.54005217  0.29781000  1.0
  Ni  Ni626  1  0.53640217  0.87338550  0.29781000  1.0
  Ni  Ni627  1  0.86973550  0.20671883  0.29781000  1.0
  Ni  Ni628  1  0.86973550  0.54005217  0.29781000  1.0
  Ni  Ni629  1  0.86973550  0.87338550  0.29781000  1.0
  Ni  Ni630  1  0.20860426  0.04328117  0.29919386  1.0
  Ni  Ni631  1  0.20860426  0.37661450  0.29919386  1.0
  Ni  Ni632  1  0.20860426  0.70994783  0.29919386  1.0
  Ni  Ni633  1  0.54193760  0.04328117  0.29919386  1.0
  Ni  Ni634  1  0.54193760  0.37661450  0.29919386  1.0
  Ni  Ni635  1  0.54193760  0.70994783  0.29919386  1.0
  Ni  Ni636  1  0.87527093  0.04328117  0.29919386  1.0
  Ni  Ni637  1  0.87527093  0.37661450  0.29919386  1.0
  Ni  Ni638  1  0.87527093  0.70994783  0.29919386  1.0
  Ni  Ni639  1  0.16098521  0.20994783  0.37062243  1.0
  Ni  Ni640  1  0.16098521  0.54328117  0.37062243  1.0
  Ni  Ni641  1  0.16098521  0.87661450  0.37062243  1.0
  Ni  Ni642  1  0.49431855  0.20994783  0.37062243  1.0
  Ni  Ni643  1  0.49431855  0.54328117  0.37062243  1.0
  Ni  Ni644  1  0.49431855  0.87661450  0.37062243  1.0
  Ni  Ni645  1  0.82765188  0.20994783  0.37062243  1.0
  Ni  Ni646  1  0.82765188  0.54328117  0.37062243  1.0
  Ni  Ni647  1  0.82765188  0.87661450  0.37062243  1.0
