# generated using pymatgen
data_CaNi5
_symmetry_space_group_name_H-M   'P 1'
_cell_length_a   14.86665599
_cell_length_b   38.17711790
_cell_length_c   26.67312969
_cell_angle_alpha   92.79383407
_cell_angle_beta   90.00000000
_cell_angle_gamma   101.22757098
_symmetry_Int_Tables_number   1
_chemical_formula_structural   CaNi5
_chemical_formula_sum   'Ca72 Ni360'
_cell_volume   14830.68590234
_cell_formula_units_Z   72
loop_
 _symmetry_equiv_pos_site_id
 _symmetry_equiv_pos_as_xyz
  1  'x, y, z'
loop_
 _atom_site_type_symbol
 _atom_site_label
 _atom_site_symmetry_multiplicity
 _atom_site_fract_x
 _atom_site_fract_y
 _atom_site_fract_z
 _atom_site_occupancy
  Ca  Ca0  1  0.32305602  0.17932812  0.16298435  1.0
  Ca  Ca1  1  0.32305602  0.51266145  0.16298435  1.0
  Ca  Ca2  1  0.32305602  0.84599478  0.16298435  1.0
  Ca  Ca3  1  0.65638935  0.17932812  0.16298435  1.0
  Ca  Ca4  1  0.65638935  0.51266145  0.16298435  1.0
  Ca  Ca5  1  0.65638935  0.84599478  0.16298435  1.0
  Ca  Ca6  1  0.98972268  0.17932812  0.16298435  1.0
  Ca  Ca7  1  0.98972268  0.51266145  0.16298435  1.0
  Ca  Ca8  1  0.98972268  0.84599478  0.16298435  1.0
  Ca  Ca9  1  0.22305602  0.31266145  0.06298435  1.0
  Ca  Ca10  1  0.22305602  0.64599478  0.06298435  1.0
  Ca  Ca11  1  0.22305602  0.97932812  0.06298435  1.0
  Ca  Ca12  1  0.55638935  0.31266145  0.06298435  1.0
  Ca  Ca13  1  0.55638935  0.64599478  0.06298435  1.0
  Ca  Ca14  1  0.55638935  0.97932812  0.06298435  1.0
  Ca  Ca15  1  0.88972268  0.31266145  0.06298435  1.0
  Ca  Ca16  1  0.88972268  0.64599478  0.06298435  1.0
  Ca  Ca17  1  0.88972268  0.97932812  0.06298435  1.0
  Ca  Ca18  1  0.18624602  0.21266145  0.01298435  1.0
  Ca  Ca19  1  0.18624602  0.54599478  0.01298435  1.0
  Ca  Ca20  1  0.18624602  0.87932812  0.01298435  1.0
  Ca  Ca21  1  0.51957935  0.21266145  0.01298435  1.0
  Ca  Ca22  1  0.51957935  0.54599478  0.01298435  1.0
  Ca  Ca23  1  0.51957935  0.87932812  0.01298435  1.0
  Ca  Ca24  1  0.85291268  0.21266145  0.01298435  1.0
  Ca  Ca25  1  0.85291268  0.54599478  0.01298435  1.0
  Ca  Ca26  1  0.85291268  0.87932812  0.01298435  1.0
  Ca  Ca27  1  0.28624602  0.07932812  0.11298435  1.0
  Ca  Ca28  1  0.28624602  0.41266145  0.11298435  1.0
  Ca  Ca29  1  0.28624602  0.74599478  0.11298435  1.0
  Ca  Ca30  1  0.61957935  0.07932812  0.11298435  1.0
  Ca  Ca31  1  0.61957935  0.41266145  0.11298435  1.0
  Ca  Ca32  1  0.61957935  0.74599478  0.11298435  1.0
  Ca  Ca33  1  0.95291268  0.07932812  0.11298435  1.0
  Ca  Ca34  1  0.95291268  0.41266145  0.11298435  1.0
  Ca  Ca35  1  0.95291268  0.74599478  0.11298435  1.0
  Ca  Ca36  1  0.18972268  0.24599478  0.36298435  1.0
  Ca  Ca37  1  0.18972268  0.57932812  0.36298435  1.0
  Ca  Ca38  1  0.18972268  0.91266145  0.36298435  1.0
  Ca  Ca39  1  0.52305602  0.24599478  0.36298435  1.0
  Ca  Ca40  1  0.52305602  0.57932812  0.36298435  1.0
  Ca  Ca41  1  0.52305602  0.91266145  0.36298435  1.0
  Ca  Ca42  1  0.85638935  0.24599478  0.36298435  1.0
  Ca  Ca43  1  0.85638935  0.57932812  0.36298435  1.0
  Ca  Ca44  1  0.85638935  0.91266145  0.36298435  1.0
  Ca  Ca45  1  0.08972268  0.04599478  0.26298435  1.0
  Ca  Ca46  1  0.08972268  0.37932812  0.26298435  1.0
  Ca  Ca47  1  0.08972268  0.71266145  0.26298435  1.0
  Ca  Ca48  1  0.42305602  0.04599478  0.26298435  1.0
  Ca  Ca49  1  0.42305602  0.37932812  0.26298435  1.0
  Ca  Ca50  1  0.42305602  0.71266145  0.26298435  1.0
  Ca  Ca51  1  0.75638935  0.04599478  0.26298435  1.0
  Ca  Ca52  1  0.75638935  0.37932812  0.26298435  1.0
  Ca  Ca53  1  0.75638935  0.71266145  0.26298435  1.0
  Ca  Ca54  1  0.05291268  0.27932812  0.21298435  1.0
  Ca  Ca55  1  0.05291268  0.61266145  0.21298435  1.0
  Ca  Ca56  1  0.05291268  0.94599478  0.21298435  1.0
  Ca  Ca57  1  0.38624602  0.27932812  0.21298435  1.0
  Ca  Ca58  1  0.38624602  0.61266145  0.21298435  1.0
  Ca  Ca59  1  0.38624602  0.94599478  0.21298435  1.0
  Ca  Ca60  1  0.71957935  0.27932812  0.21298435  1.0
  Ca  Ca61  1  0.71957935  0.61266145  0.21298435  1.0
  Ca  Ca62  1  0.71957935  0.94599478  0.21298435  1.0
  Ca  Ca63  1  0.15291268  0.14599478  0.31298435  1.0
  Ca  Ca64  1  0.15291268  0.47932812  0.31298435  1.0
  Ca  Ca65  1  0.15291268  0.81266145  0.31298435  1.0
  Ca  Ca66  1  0.48624602  0.14599478  0.31298435  1.0
  Ca  Ca67  1  0.48624602  0.47932812  0.31298435  1.0
  Ca  Ca68  1  0.48624602  0.81266145  0.31298435  1.0
  Ca  Ca69  1  0.81957935  0.14599478  0.31298435  1.0
  Ca  Ca70  1  0.81957935  0.47932812  0.31298435  1.0
  Ca  Ca71  1  0.81957935  0.81266145  0.31298435  1.0
  Ni  Ni72  1  0.01722282  0.20153772  0.06304115  1.0
  Ni  Ni73  1  0.01722282  0.53487105  0.06304115  1.0
  Ni  Ni74  1  0.01722282  0.86820438  0.06304115  1.0
  Ni  Ni75  1  0.35055615  0.20153772  0.06304115  1.0
  Ni  Ni76  1  0.35055615  0.53487105  0.06304115  1.0
  Ni  Ni77  1  0.35055615  0.86820438  0.06304115  1.0
  Ni  Ni78  1  0.68388948  0.20153772  0.06304115  1.0
  Ni  Ni79  1  0.68388948  0.53487105  0.06304115  1.0
  Ni  Ni80  1  0.68388948  0.86820438  0.06304115  1.0
  Ni  Ni81  1  0.11722282  0.06820438  0.16304115  1.0
  Ni  Ni82  1  0.11722282  0.40153772  0.16304115  1.0
  Ni  Ni83  1  0.11722282  0.73487105  0.16304115  1.0
  Ni  Ni84  1  0.45055615  0.06820438  0.16304115  1.0
  Ni  Ni85  1  0.45055615  0.40153772  0.16304115  1.0
  Ni  Ni86  1  0.45055615  0.73487105  0.16304115  1.0
  Ni  Ni87  1  0.78388948  0.06820438  0.16304115  1.0
  Ni  Ni88  1  0.78388948  0.40153772  0.16304115  1.0
  Ni  Ni89  1  0.78388948  0.73487105  0.16304115  1.0
  Ni  Ni90  1  0.12834655  0.09045185  0.06292755  1.0
  Ni  Ni91  1  0.12834655  0.42378518  0.06292755  1.0
  Ni  Ni92  1  0.12834655  0.75711852  0.06292755  1.0
  Ni  Ni93  1  0.46167988  0.09045185  0.06292755  1.0
  Ni  Ni94  1  0.46167988  0.42378518  0.06292755  1.0
  Ni  Ni95  1  0.46167988  0.75711852  0.06292755  1.0
  Ni  Ni96  1  0.79501322  0.09045185  0.06292755  1.0
  Ni  Ni97  1  0.79501322  0.42378518  0.06292755  1.0
  Ni  Ni98  1  0.79501322  0.75711852  0.06292755  1.0
  Ni  Ni99  1  0.22834655  0.29045185  0.16292755  1.0
  Ni  Ni100  1  0.22834655  0.62378518  0.16292755  1.0
  Ni  Ni101  1  0.22834655  0.95711852  0.16292755  1.0
  Ni  Ni102  1  0.56167988  0.29045185  0.16292755  1.0
  Ni  Ni103  1  0.56167988  0.62378518  0.16292755  1.0
  Ni  Ni104  1  0.56167988  0.95711852  0.16292755  1.0
  Ni  Ni105  1  0.89501322  0.29045185  0.16292755  1.0
  Ni  Ni106  1  0.89501322  0.62378518  0.16292755  1.0
  Ni  Ni107  1  0.89501322  0.95711852  0.16292755  1.0
  Ni  Ni108  1  0.04762215  0.30153772  0.11304115  1.0
  Ni  Ni109  1  0.04762215  0.63487105  0.11304115  1.0
  Ni  Ni110  1  0.04762215  0.96820438  0.11304115  1.0
  Ni  Ni111  1  0.38095548  0.30153772  0.11304115  1.0
  Ni  Ni112  1  0.38095548  0.63487105  0.11304115  1.0
  Ni  Ni113  1  0.38095548  0.96820438  0.11304115  1.0
  Ni  Ni114  1  0.71428882  0.30153772  0.11304115  1.0
  Ni  Ni115  1  0.71428882  0.63487105  0.11304115  1.0
  Ni  Ni116  1  0.71428882  0.96820438  0.11304115  1.0
  Ni  Ni117  1  0.28095548  0.10153772  0.01304115  1.0
  Ni  Ni118  1  0.28095548  0.43487105  0.01304115  1.0
  Ni  Ni119  1  0.28095548  0.76820438  0.01304115  1.0
  Ni  Ni120  1  0.61428882  0.10153772  0.01304115  1.0
  Ni  Ni121  1  0.61428882  0.43487105  0.01304115  1.0
  Ni  Ni122  1  0.61428882  0.76820438  0.01304115  1.0
  Ni  Ni123  1  0.94762215  0.10153772  0.01304115  1.0
  Ni  Ni124  1  0.94762215  0.43487105  0.01304115  1.0
  Ni  Ni125  1  0.94762215  0.76820438  0.01304115  1.0
  Ni  Ni126  1  0.15874588  0.19045185  0.11292755  1.0
  Ni  Ni127  1  0.15874588  0.52378518  0.11292755  1.0
  Ni  Ni128  1  0.15874588  0.85711852  0.11292755  1.0
  Ni  Ni129  1  0.49207922  0.19045185  0.11292755  1.0
  Ni  Ni130  1  0.49207922  0.52378518  0.11292755  1.0
  Ni  Ni131  1  0.49207922  0.85711852  0.11292755  1.0
  Ni  Ni132  1  0.82541255  0.19045185  0.11292755  1.0
  Ni  Ni133  1  0.82541255  0.52378518  0.11292755  1.0
  Ni  Ni134  1  0.82541255  0.85711852  0.11292755  1.0
  Ni  Ni135  1  0.05874588  0.32378518  0.01292755  1.0
  Ni  Ni136  1  0.05874588  0.65711852  0.01292755  1.0
  Ni  Ni137  1  0.05874588  0.99045185  0.01292755  1.0
  Ni  Ni138  1  0.39207922  0.32378518  0.01292755  1.0
  Ni  Ni139  1  0.39207922  0.65711852  0.01292755  1.0
  Ni  Ni140  1  0.39207922  0.99045185  0.01292755  1.0
  Ni  Ni141  1  0.72541255  0.32378518  0.01292755  1.0
  Ni  Ni142  1  0.72541255  0.65711852  0.01292755  1.0
  Ni  Ni143  1  0.72541255  0.99045185  0.01292755  1.0
  Ni  Ni144  1  0.13798435  0.12932812  0.13798435  1.0
  Ni  Ni145  1  0.13798435  0.46266145  0.13798435  1.0
  Ni  Ni146  1  0.13798435  0.79599478  0.13798435  1.0
  Ni  Ni147  1  0.47131768  0.12932812  0.13798435  1.0
  Ni  Ni148  1  0.47131768  0.46266145  0.13798435  1.0
  Ni  Ni149  1  0.47131768  0.79599478  0.13798435  1.0
  Ni  Ni150  1  0.80465102  0.12932812  0.13798435  1.0
  Ni  Ni151  1  0.80465102  0.46266145  0.13798435  1.0
  Ni  Ni152  1  0.80465102  0.79599478  0.13798435  1.0
  Ni  Ni153  1  0.03798435  0.26266145  0.03798435  1.0
  Ni  Ni154  1  0.03798435  0.59599478  0.03798435  1.0
  Ni  Ni155  1  0.03798435  0.92932812  0.03798435  1.0
  Ni  Ni156  1  0.37131768  0.26266145  0.03798435  1.0
  Ni  Ni157  1  0.37131768  0.59599478  0.03798435  1.0
  Ni  Ni158  1  0.37131768  0.92932812  0.03798435  1.0
  Ni  Ni159  1  0.70465102  0.26266145  0.03798435  1.0
  Ni  Ni160  1  0.70465102  0.59599478  0.03798435  1.0
  Ni  Ni161  1  0.70465102  0.92932812  0.03798435  1.0
  Ni  Ni162  1  0.18798435  0.22932812  0.18798435  1.0
  Ni  Ni163  1  0.18798435  0.56266145  0.18798435  1.0
  Ni  Ni164  1  0.18798435  0.89599478  0.18798435  1.0
  Ni  Ni165  1  0.52131768  0.22932812  0.18798435  1.0
  Ni  Ni166  1  0.52131768  0.56266145  0.18798435  1.0
  Ni  Ni167  1  0.52131768  0.89599478  0.18798435  1.0
  Ni  Ni168  1  0.85465102  0.22932812  0.18798435  1.0
  Ni  Ni169  1  0.85465102  0.56266145  0.18798435  1.0
  Ni  Ni170  1  0.85465102  0.89599478  0.18798435  1.0
  Ni  Ni171  1  0.08798435  0.02932812  0.08798435  1.0
  Ni  Ni172  1  0.08798435  0.36266145  0.08798435  1.0
  Ni  Ni173  1  0.08798435  0.69599478  0.08798435  1.0
  Ni  Ni174  1  0.42131768  0.02932812  0.08798435  1.0
  Ni  Ni175  1  0.42131768  0.36266145  0.08798435  1.0
  Ni  Ni176  1  0.42131768  0.69599478  0.08798435  1.0
  Ni  Ni177  1  0.75465102  0.02932812  0.08798435  1.0
  Ni  Ni178  1  0.75465102  0.36266145  0.08798435  1.0
  Ni  Ni179  1  0.75465102  0.69599478  0.08798435  1.0
  Ni  Ni180  1  0.01395305  0.04793218  0.01395305  1.0
  Ni  Ni181  1  0.01395305  0.38126552  0.01395305  1.0
  Ni  Ni182  1  0.01395305  0.71459885  0.01395305  1.0
  Ni  Ni183  1  0.34728638  0.04793218  0.01395305  1.0
  Ni  Ni184  1  0.34728638  0.38126552  0.01395305  1.0
  Ni  Ni185  1  0.34728638  0.71459885  0.01395305  1.0
  Ni  Ni186  1  0.68061972  0.04793218  0.01395305  1.0
  Ni  Ni187  1  0.68061972  0.38126552  0.01395305  1.0
  Ni  Ni188  1  0.68061972  0.71459885  0.01395305  1.0
  Ni  Ni189  1  0.11395305  0.24793218  0.11395305  1.0
  Ni  Ni190  1  0.11395305  0.58126552  0.11395305  1.0
  Ni  Ni191  1  0.11395305  0.91459885  0.11395305  1.0
  Ni  Ni192  1  0.44728638  0.24793218  0.11395305  1.0
  Ni  Ni193  1  0.44728638  0.58126552  0.11395305  1.0
  Ni  Ni194  1  0.44728638  0.91459885  0.11395305  1.0
  Ni  Ni195  1  0.78061972  0.24793218  0.11395305  1.0
  Ni  Ni196  1  0.78061972  0.58126552  0.11395305  1.0
  Ni  Ni197  1  0.78061972  0.91459885  0.11395305  1.0
  Ni  Ni198  1  0.27868232  0.24405738  0.11201565  1.0
  Ni  Ni199  1  0.27868232  0.57739072  0.11201565  1.0
  Ni  Ni200  1  0.27868232  0.91072405  0.11201565  1.0
  Ni  Ni201  1  0.61201565  0.24405738  0.11201565  1.0
  Ni  Ni202  1  0.61201565  0.57739072  0.11201565  1.0
  Ni  Ni203  1  0.61201565  0.91072405  0.11201565  1.0
  Ni  Ni204  1  0.94534898  0.24405738  0.11201565  1.0
  Ni  Ni205  1  0.94534898  0.57739072  0.11201565  1.0
  Ni  Ni206  1  0.94534898  0.91072405  0.11201565  1.0
  Ni  Ni207  1  0.17868232  0.04405738  0.01201565  1.0
  Ni  Ni208  1  0.17868232  0.37739072  0.01201565  1.0
  Ni  Ni209  1  0.17868232  0.71072405  0.01201565  1.0
  Ni  Ni210  1  0.51201565  0.04405738  0.01201565  1.0
  Ni  Ni211  1  0.51201565  0.37739072  0.01201565  1.0
  Ni  Ni212  1  0.51201565  0.71072405  0.01201565  1.0
  Ni  Ni213  1  0.84534898  0.04405738  0.01201565  1.0
  Ni  Ni214  1  0.84534898  0.37739072  0.01201565  1.0
  Ni  Ni215  1  0.84534898  0.71072405  0.01201565  1.0
  Ni  Ni216  1  0.23061972  0.14793218  0.06395305  1.0
  Ni  Ni217  1  0.23061972  0.48126552  0.06395305  1.0
  Ni  Ni218  1  0.23061972  0.81459885  0.06395305  1.0
  Ni  Ni219  1  0.56395305  0.14793218  0.06395305  1.0
  Ni  Ni220  1  0.56395305  0.48126552  0.06395305  1.0
  Ni  Ni221  1  0.56395305  0.81459885  0.06395305  1.0
  Ni  Ni222  1  0.89728638  0.14793218  0.06395305  1.0
  Ni  Ni223  1  0.89728638  0.48126552  0.06395305  1.0
  Ni  Ni224  1  0.89728638  0.81459885  0.06395305  1.0
  Ni  Ni225  1  0.33061972  0.01459885  0.16395305  1.0
  Ni  Ni226  1  0.33061972  0.34793218  0.16395305  1.0
  Ni  Ni227  1  0.33061972  0.68126552  0.16395305  1.0
  Ni  Ni228  1  0.66395305  0.01459885  0.16395305  1.0
  Ni  Ni229  1  0.66395305  0.34793218  0.16395305  1.0
  Ni  Ni230  1  0.66395305  0.68126552  0.16395305  1.0
  Ni  Ni231  1  0.99728638  0.01459885  0.16395305  1.0
  Ni  Ni232  1  0.99728638  0.34793218  0.16395305  1.0
  Ni  Ni233  1  0.99728638  0.68126552  0.16395305  1.0
  Ni  Ni234  1  0.06201565  0.14405738  0.06201565  1.0
  Ni  Ni235  1  0.06201565  0.47739072  0.06201565  1.0
  Ni  Ni236  1  0.06201565  0.81072405  0.06201565  1.0
  Ni  Ni237  1  0.39534898  0.14405738  0.06201565  1.0
  Ni  Ni238  1  0.39534898  0.47739072  0.06201565  1.0
  Ni  Ni239  1  0.39534898  0.81072405  0.06201565  1.0
  Ni  Ni240  1  0.72868232  0.14405738  0.06201565  1.0
  Ni  Ni241  1  0.72868232  0.47739072  0.06201565  1.0
  Ni  Ni242  1  0.72868232  0.81072405  0.06201565  1.0
  Ni  Ni243  1  0.16201565  0.01072405  0.16201565  1.0
  Ni  Ni244  1  0.16201565  0.34405738  0.16201565  1.0
  Ni  Ni245  1  0.16201565  0.67739072  0.16201565  1.0
  Ni  Ni246  1  0.49534898  0.01072405  0.16201565  1.0
  Ni  Ni247  1  0.49534898  0.34405738  0.16201565  1.0
  Ni  Ni248  1  0.49534898  0.67739072  0.16201565  1.0
  Ni  Ni249  1  0.82868232  0.01072405  0.16201565  1.0
  Ni  Ni250  1  0.82868232  0.34405738  0.16201565  1.0
  Ni  Ni251  1  0.82868232  0.67739072  0.16201565  1.0
  Ni  Ni252  1  0.21722282  0.26820438  0.26304115  1.0
  Ni  Ni253  1  0.21722282  0.60153772  0.26304115  1.0
  Ni  Ni254  1  0.21722282  0.93487105  0.26304115  1.0
  Ni  Ni255  1  0.55055615  0.26820438  0.26304115  1.0
  Ni  Ni256  1  0.55055615  0.60153772  0.26304115  1.0
  Ni  Ni257  1  0.55055615  0.93487105  0.26304115  1.0
  Ni  Ni258  1  0.88388948  0.26820438  0.26304115  1.0
  Ni  Ni259  1  0.88388948  0.60153772  0.26304115  1.0
  Ni  Ni260  1  0.88388948  0.93487105  0.26304115  1.0
  Ni  Ni261  1  0.31722282  0.13487105  0.36304115  1.0
  Ni  Ni262  1  0.31722282  0.46820438  0.36304115  1.0
  Ni  Ni263  1  0.31722282  0.80153772  0.36304115  1.0
  Ni  Ni264  1  0.65055615  0.13487105  0.36304115  1.0
  Ni  Ni265  1  0.65055615  0.46820438  0.36304115  1.0
  Ni  Ni266  1  0.65055615  0.80153772  0.36304115  1.0
  Ni  Ni267  1  0.98388948  0.13487105  0.36304115  1.0
  Ni  Ni268  1  0.98388948  0.46820438  0.36304115  1.0
  Ni  Ni269  1  0.98388948  0.80153772  0.36304115  1.0
  Ni  Ni270  1  0.32834655  0.15711852  0.26292755  1.0
  Ni  Ni271  1  0.32834655  0.49045185  0.26292755  1.0
  Ni  Ni272  1  0.32834655  0.82378518  0.26292755  1.0
  Ni  Ni273  1  0.66167988  0.15711852  0.26292755  1.0
  Ni  Ni274  1  0.66167988  0.49045185  0.26292755  1.0
  Ni  Ni275  1  0.66167988  0.82378518  0.26292755  1.0
  Ni  Ni276  1  0.99501322  0.15711852  0.26292755  1.0
  Ni  Ni277  1  0.99501322  0.49045185  0.26292755  1.0
  Ni  Ni278  1  0.99501322  0.82378518  0.26292755  1.0
  Ni  Ni279  1  0.09501322  0.02378518  0.36292755  1.0
  Ni  Ni280  1  0.09501322  0.35711852  0.36292755  1.0
  Ni  Ni281  1  0.09501322  0.69045185  0.36292755  1.0
  Ni  Ni282  1  0.42834655  0.02378518  0.36292755  1.0
  Ni  Ni283  1  0.42834655  0.35711852  0.36292755  1.0
  Ni  Ni284  1  0.42834655  0.69045185  0.36292755  1.0
  Ni  Ni285  1  0.76167988  0.02378518  0.36292755  1.0
  Ni  Ni286  1  0.76167988  0.35711852  0.36292755  1.0
  Ni  Ni287  1  0.76167988  0.69045185  0.36292755  1.0
  Ni  Ni288  1  0.24762215  0.03487105  0.31304115  1.0
  Ni  Ni289  1  0.24762215  0.36820438  0.31304115  1.0
  Ni  Ni290  1  0.24762215  0.70153772  0.31304115  1.0
  Ni  Ni291  1  0.58095548  0.03487105  0.31304115  1.0
  Ni  Ni292  1  0.58095548  0.36820438  0.31304115  1.0
  Ni  Ni293  1  0.58095548  0.70153772  0.31304115  1.0
  Ni  Ni294  1  0.91428882  0.03487105  0.31304115  1.0
  Ni  Ni295  1  0.91428882  0.36820438  0.31304115  1.0
  Ni  Ni296  1  0.91428882  0.70153772  0.31304115  1.0
  Ni  Ni297  1  0.14762215  0.16820438  0.21304115  1.0
  Ni  Ni298  1  0.14762215  0.50153772  0.21304115  1.0
  Ni  Ni299  1  0.14762215  0.83487105  0.21304115  1.0
  Ni  Ni300  1  0.48095548  0.16820438  0.21304115  1.0
  Ni  Ni301  1  0.48095548  0.50153772  0.21304115  1.0
  Ni  Ni302  1  0.48095548  0.83487105  0.21304115  1.0
  Ni  Ni303  1  0.81428882  0.16820438  0.21304115  1.0
  Ni  Ni304  1  0.81428882  0.50153772  0.21304115  1.0
  Ni  Ni305  1  0.81428882  0.83487105  0.21304115  1.0
  Ni  Ni306  1  0.02541255  0.25711852  0.31292755  1.0
  Ni  Ni307  1  0.02541255  0.59045185  0.31292755  1.0
  Ni  Ni308  1  0.02541255  0.92378518  0.31292755  1.0
  Ni  Ni309  1  0.35874588  0.25711852  0.31292755  1.0
  Ni  Ni310  1  0.35874588  0.59045185  0.31292755  1.0
  Ni  Ni311  1  0.35874588  0.92378518  0.31292755  1.0
  Ni  Ni312  1  0.69207922  0.25711852  0.31292755  1.0
  Ni  Ni313  1  0.69207922  0.59045185  0.31292755  1.0
  Ni  Ni314  1  0.69207922  0.92378518  0.31292755  1.0
  Ni  Ni315  1  0.25874588  0.05711852  0.21292755  1.0
  Ni  Ni316  1  0.25874588  0.39045185  0.21292755  1.0
  Ni  Ni317  1  0.25874588  0.72378518  0.21292755  1.0
  Ni  Ni318  1  0.59207922  0.05711852  0.21292755  1.0
  Ni  Ni319  1  0.59207922  0.39045185  0.21292755  1.0
  Ni  Ni320  1  0.59207922  0.72378518  0.21292755  1.0
  Ni  Ni321  1  0.92541255  0.05711852  0.21292755  1.0
  Ni  Ni322  1  0.92541255  0.39045185  0.21292755  1.0
  Ni  Ni323  1  0.92541255  0.72378518  0.21292755  1.0
  Ni  Ni324  1  0.00465102  0.19599478  0.33798435  1.0
  Ni  Ni325  1  0.00465102  0.52932812  0.33798435  1.0
  Ni  Ni326  1  0.00465102  0.86266145  0.33798435  1.0
  Ni  Ni327  1  0.33798435  0.19599478  0.33798435  1.0
  Ni  Ni328  1  0.33798435  0.52932812  0.33798435  1.0
  Ni  Ni329  1  0.33798435  0.86266145  0.33798435  1.0
  Ni  Ni330  1  0.67131768  0.19599478  0.33798435  1.0
  Ni  Ni331  1  0.67131768  0.52932812  0.33798435  1.0
  Ni  Ni332  1  0.67131768  0.86266145  0.33798435  1.0
  Ni  Ni333  1  0.23798435  0.32932812  0.23798435  1.0
  Ni  Ni334  1  0.23798435  0.66266145  0.23798435  1.0
  Ni  Ni335  1  0.23798435  0.99599478  0.23798435  1.0
  Ni  Ni336  1  0.57131768  0.32932812  0.23798435  1.0
  Ni  Ni337  1  0.57131768  0.66266145  0.23798435  1.0
  Ni  Ni338  1  0.57131768  0.99599478  0.23798435  1.0
  Ni  Ni339  1  0.90465102  0.32932812  0.23798435  1.0
  Ni  Ni340  1  0.90465102  0.66266145  0.23798435  1.0
  Ni  Ni341  1  0.90465102  0.99599478  0.23798435  1.0
  Ni  Ni342  1  0.05465102  0.29599478  0.38798435  1.0
  Ni  Ni343  1  0.05465102  0.62932812  0.38798435  1.0
  Ni  Ni344  1  0.05465102  0.96266145  0.38798435  1.0
  Ni  Ni345  1  0.38798435  0.29599478  0.38798435  1.0
  Ni  Ni346  1  0.38798435  0.62932812  0.38798435  1.0
  Ni  Ni347  1  0.38798435  0.96266145  0.38798435  1.0
  Ni  Ni348  1  0.72131768  0.29599478  0.38798435  1.0
  Ni  Ni349  1  0.72131768  0.62932812  0.38798435  1.0
  Ni  Ni350  1  0.72131768  0.96266145  0.38798435  1.0
  Ni  Ni351  1  0.28798435  0.09599478  0.28798435  1.0
  Ni  Ni352  1  0.28798435  0.42932812  0.28798435  1.0
  Ni  Ni353  1  0.28798435  0.76266145  0.28798435  1.0
  Ni  Ni354  1  0.62131768  0.09599478  0.28798435  1.0
  Ni  Ni355  1  0.62131768  0.42932812  0.28798435  1.0
  Ni  Ni356  1  0.62131768  0.76266145  0.28798435  1.0
  Ni  Ni357  1  0.95465102  0.09599478  0.28798435  1.0
  Ni  Ni358  1  0.95465102  0.42932812  0.28798435  1.0
  Ni  Ni359  1  0.95465102  0.76266145  0.28798435  1.0
  Ni  Ni360  1  0.21395305  0.11459885  0.21395305  1.0
  Ni  Ni361  1  0.21395305  0.44793218  0.21395305  1.0
  Ni  Ni362  1  0.21395305  0.78126552  0.21395305  1.0
  Ni  Ni363  1  0.54728638  0.11459885  0.21395305  1.0
  Ni  Ni364  1  0.54728638  0.44793218  0.21395305  1.0
  Ni  Ni365  1  0.54728638  0.78126552  0.21395305  1.0
  Ni  Ni366  1  0.88061972  0.11459885  0.21395305  1.0
  Ni  Ni367  1  0.88061972  0.44793218  0.21395305  1.0
  Ni  Ni368  1  0.88061972  0.78126552  0.21395305  1.0
  Ni  Ni369  1  0.31395305  0.31459885  0.31395305  1.0
  Ni  Ni370  1  0.31395305  0.64793218  0.31395305  1.0
  Ni  Ni371  1  0.31395305  0.98126552  0.31395305  1.0
  Ni  Ni372  1  0.64728638  0.31459885  0.31395305  1.0
  Ni  Ni373  1  0.64728638  0.64793218  0.31395305  1.0
  Ni  Ni374  1  0.64728638  0.98126552  0.31395305  1.0
  Ni  Ni375  1  0.98061972  0.31459885  0.31395305  1.0
  Ni  Ni376  1  0.98061972  0.64793218  0.31395305  1.0
  Ni  Ni377  1  0.98061972  0.98126552  0.31395305  1.0
  Ni  Ni378  1  0.14534898  0.31072405  0.31201565  1.0
  Ni  Ni379  1  0.14534898  0.64405738  0.31201565  1.0
  Ni  Ni380  1  0.14534898  0.97739072  0.31201565  1.0
  Ni  Ni381  1  0.47868232  0.31072405  0.31201565  1.0
  Ni  Ni382  1  0.47868232  0.64405738  0.31201565  1.0
  Ni  Ni383  1  0.47868232  0.97739072  0.31201565  1.0
  Ni  Ni384  1  0.81201565  0.31072405  0.31201565  1.0
  Ni  Ni385  1  0.81201565  0.64405738  0.31201565  1.0
  Ni  Ni386  1  0.81201565  0.97739072  0.31201565  1.0
  Ni  Ni387  1  0.04534898  0.11072405  0.21201565  1.0
  Ni  Ni388  1  0.04534898  0.44405738  0.21201565  1.0
  Ni  Ni389  1  0.04534898  0.77739072  0.21201565  1.0
  Ni  Ni390  1  0.37868232  0.11072405  0.21201565  1.0
  Ni  Ni391  1  0.37868232  0.44405738  0.21201565  1.0
  Ni  Ni392  1  0.37868232  0.77739072  0.21201565  1.0
  Ni  Ni393  1  0.71201565  0.11072405  0.21201565  1.0
  Ni  Ni394  1  0.71201565  0.44405738  0.21201565  1.0
  Ni  Ni395  1  0.71201565  0.77739072  0.21201565  1.0
  Ni  Ni396  1  0.09728638  0.21459885  0.26395305  1.0
  Ni  Ni397  1  0.09728638  0.54793218  0.26395305  1.0
  Ni  Ni398  1  0.09728638  0.88126552  0.26395305  1.0
  Ni  Ni399  1  0.43061972  0.21459885  0.26395305  1.0
  Ni  Ni400  1  0.43061972  0.54793218  0.26395305  1.0
  Ni  Ni401  1  0.43061972  0.88126552  0.26395305  1.0
  Ni  Ni402  1  0.76395305  0.21459885  0.26395305  1.0
  Ni  Ni403  1  0.76395305  0.54793218  0.26395305  1.0
  Ni  Ni404  1  0.76395305  0.88126552  0.26395305  1.0
  Ni  Ni405  1  0.19728638  0.08126552  0.36395305  1.0
  Ni  Ni406  1  0.19728638  0.41459885  0.36395305  1.0
  Ni  Ni407  1  0.19728638  0.74793218  0.36395305  1.0
  Ni  Ni408  1  0.53061972  0.08126552  0.36395305  1.0
  Ni  Ni409  1  0.53061972  0.41459885  0.36395305  1.0
  Ni  Ni410  1  0.53061972  0.74793218  0.36395305  1.0
  Ni  Ni411  1  0.86395305  0.08126552  0.36395305  1.0
  Ni  Ni412  1  0.86395305  0.41459885  0.36395305  1.0
  Ni  Ni413  1  0.86395305  0.74793218  0.36395305  1.0
  Ni  Ni414  1  0.26201565  0.21072405  0.26201565  1.0
  Ni  Ni415  1  0.26201565  0.54405738  0.26201565  1.0
  Ni  Ni416  1  0.26201565  0.87739072  0.26201565  1.0
  Ni  Ni417  1  0.59534898  0.21072405  0.26201565  1.0
  Ni  Ni418  1  0.59534898  0.54405738  0.26201565  1.0
  Ni  Ni419  1  0.59534898  0.87739072  0.26201565  1.0
  Ni  Ni420  1  0.92868232  0.21072405  0.26201565  1.0
  Ni  Ni421  1  0.92868232  0.54405738  0.26201565  1.0
  Ni  Ni422  1  0.92868232  0.87739072  0.26201565  1.0
  Ni  Ni423  1  0.02868232  0.07739072  0.36201565  1.0
  Ni  Ni424  1  0.02868232  0.41072405  0.36201565  1.0
  Ni  Ni425  1  0.02868232  0.74405738  0.36201565  1.0
  Ni  Ni426  1  0.36201565  0.07739072  0.36201565  1.0
  Ni  Ni427  1  0.36201565  0.41072405  0.36201565  1.0
  Ni  Ni428  1  0.36201565  0.74405738  0.36201565  1.0
  Ni  Ni429  1  0.69534898  0.07739072  0.36201565  1.0
  Ni  Ni430  1  0.69534898  0.41072405  0.36201565  1.0
  Ni  Ni431  1  0.69534898  0.74405738  0.36201565  1.0
