# generated using pymatgen
data_CaNi2
_symmetry_space_group_name_H-M   'P 1'
_cell_length_a   15.22172928
_cell_length_b   37.28546974
_cell_length_c   29.58572373
_cell_angle_alpha   98.04946698
_cell_angle_beta   90.00000000
_cell_angle_gamma   90.00000000
_symmetry_Int_Tables_number   1
_chemical_formula_structural   CaNi2
_chemical_formula_sum   'Ca144 Ni288'
_cell_volume   16625.92144600
_cell_formula_units_Z   144
loop_
 _symmetry_equiv_pos_site_id
 _symmetry_equiv_pos_as_xyz
  1  'x, y, z'
loop_
 _atom_site_type_symbol
 _atom_site_label
 _atom_site_symmetry_multiplicity
 _atom_site_fract_x
 _atom_site_fract_y
 _atom_site_fract_z
 _atom_site_occupancy
  Ca  Ca0  1  0.00000000  0.24583333  0.08750000  1.0
  Ca  Ca1  1  0.00000000  0.57916667  0.08750000  1.0
  Ca  Ca2  1  0.00000000  0.91250000  0.08750000  1.0
  Ca  Ca3  1  0.33333333  0.24583333  0.08750000  1.0
  Ca  Ca4  1  0.33333333  0.57916667  0.08750000  1.0
  Ca  Ca5  1  0.33333333  0.91250000  0.08750000  1.0
  Ca  Ca6  1  0.66666667  0.24583333  0.08750000  1.0
  Ca  Ca7  1  0.66666667  0.57916667  0.08750000  1.0
  Ca  Ca8  1  0.66666667  0.91250000  0.08750000  1.0
  Ca  Ca9  1  0.16666667  0.12916667  0.03750000  1.0
  Ca  Ca10  1  0.16666667  0.46250000  0.03750000  1.0
  Ca  Ca11  1  0.16666667  0.79583333  0.03750000  1.0
  Ca  Ca12  1  0.50000000  0.12916667  0.03750000  1.0
  Ca  Ca13  1  0.50000000  0.46250000  0.03750000  1.0
  Ca  Ca14  1  0.50000000  0.79583333  0.03750000  1.0
  Ca  Ca15  1  0.83333333  0.12916667  0.03750000  1.0
  Ca  Ca16  1  0.83333333  0.46250000  0.03750000  1.0
  Ca  Ca17  1  0.83333333  0.79583333  0.03750000  1.0
  Ca  Ca18  1  0.00000000  0.16250000  0.08750000  1.0
  Ca  Ca19  1  0.00000000  0.49583333  0.08750000  1.0
  Ca  Ca20  1  0.00000000  0.82916667  0.08750000  1.0
  Ca  Ca21  1  0.33333333  0.16250000  0.08750000  1.0
  Ca  Ca22  1  0.33333333  0.49583333  0.08750000  1.0
  Ca  Ca23  1  0.33333333  0.82916667  0.08750000  1.0
  Ca  Ca24  1  0.66666667  0.16250000  0.08750000  1.0
  Ca  Ca25  1  0.66666667  0.49583333  0.08750000  1.0
  Ca  Ca26  1  0.66666667  0.82916667  0.08750000  1.0
  Ca  Ca27  1  0.16666667  0.04583333  0.03750000  1.0
  Ca  Ca28  1  0.16666667  0.37916667  0.03750000  1.0
  Ca  Ca29  1  0.16666667  0.71250000  0.03750000  1.0
  Ca  Ca30  1  0.50000000  0.04583333  0.03750000  1.0
  Ca  Ca31  1  0.50000000  0.37916667  0.03750000  1.0
  Ca  Ca32  1  0.50000000  0.71250000  0.03750000  1.0
  Ca  Ca33  1  0.83333333  0.04583333  0.03750000  1.0
  Ca  Ca34  1  0.83333333  0.37916667  0.03750000  1.0
  Ca  Ca35  1  0.83333333  0.71250000  0.03750000  1.0
  Ca  Ca36  1  0.00000000  0.14583333  0.18750000  1.0
  Ca  Ca37  1  0.00000000  0.47916667  0.18750000  1.0
  Ca  Ca38  1  0.00000000  0.81250000  0.18750000  1.0
  Ca  Ca39  1  0.33333333  0.14583333  0.18750000  1.0
  Ca  Ca40  1  0.33333333  0.47916667  0.18750000  1.0
  Ca  Ca41  1  0.33333333  0.81250000  0.18750000  1.0
  Ca  Ca42  1  0.66666667  0.14583333  0.18750000  1.0
  Ca  Ca43  1  0.66666667  0.47916667  0.18750000  1.0
  Ca  Ca44  1  0.66666667  0.81250000  0.18750000  1.0
  Ca  Ca45  1  0.16666667  0.02916667  0.13750000  1.0
  Ca  Ca46  1  0.16666667  0.36250000  0.13750000  1.0
  Ca  Ca47  1  0.16666667  0.69583333  0.13750000  1.0
  Ca  Ca48  1  0.50000000  0.02916667  0.13750000  1.0
  Ca  Ca49  1  0.50000000  0.36250000  0.13750000  1.0
  Ca  Ca50  1  0.50000000  0.69583333  0.13750000  1.0
  Ca  Ca51  1  0.83333333  0.02916667  0.13750000  1.0
  Ca  Ca52  1  0.83333333  0.36250000  0.13750000  1.0
  Ca  Ca53  1  0.83333333  0.69583333  0.13750000  1.0
  Ca  Ca54  1  0.00000000  0.06250000  0.18750000  1.0
  Ca  Ca55  1  0.00000000  0.39583333  0.18750000  1.0
  Ca  Ca56  1  0.00000000  0.72916667  0.18750000  1.0
  Ca  Ca57  1  0.33333333  0.06250000  0.18750000  1.0
  Ca  Ca58  1  0.33333333  0.39583333  0.18750000  1.0
  Ca  Ca59  1  0.33333333  0.72916667  0.18750000  1.0
  Ca  Ca60  1  0.66666667  0.06250000  0.18750000  1.0
  Ca  Ca61  1  0.66666667  0.39583333  0.18750000  1.0
  Ca  Ca62  1  0.66666667  0.72916667  0.18750000  1.0
  Ca  Ca63  1  0.16666667  0.27916667  0.13750000  1.0
  Ca  Ca64  1  0.16666667  0.61250000  0.13750000  1.0
  Ca  Ca65  1  0.16666667  0.94583333  0.13750000  1.0
  Ca  Ca66  1  0.50000000  0.27916667  0.13750000  1.0
  Ca  Ca67  1  0.50000000  0.61250000  0.13750000  1.0
  Ca  Ca68  1  0.50000000  0.94583333  0.13750000  1.0
  Ca  Ca69  1  0.83333333  0.27916667  0.13750000  1.0
  Ca  Ca70  1  0.83333333  0.61250000  0.13750000  1.0
  Ca  Ca71  1  0.83333333  0.94583333  0.13750000  1.0
  Ca  Ca72  1  0.33333333  0.04583333  0.28750000  1.0
  Ca  Ca73  1  0.33333333  0.37916667  0.28750000  1.0
  Ca  Ca74  1  0.33333333  0.71250000  0.28750000  1.0
  Ca  Ca75  1  0.66666667  0.04583333  0.28750000  1.0
  Ca  Ca76  1  0.66666667  0.37916667  0.28750000  1.0
  Ca  Ca77  1  0.66666667  0.71250000  0.28750000  1.0
  Ca  Ca78  1  0.00000000  0.04583333  0.28750000  1.0
  Ca  Ca79  1  1.00000000  0.37916667  0.28750000  1.0
  Ca  Ca80  1  1.00000000  0.71250000  0.28750000  1.0
  Ca  Ca81  1  0.16666667  0.26250000  0.23750000  1.0
  Ca  Ca82  1  0.16666667  0.59583333  0.23750000  1.0
  Ca  Ca83  1  0.16666667  0.92916667  0.23750000  1.0
  Ca  Ca84  1  0.50000000  0.26250000  0.23750000  1.0
  Ca  Ca85  1  0.50000000  0.59583333  0.23750000  1.0
  Ca  Ca86  1  0.50000000  0.92916667  0.23750000  1.0
  Ca  Ca87  1  0.83333333  0.26250000  0.23750000  1.0
  Ca  Ca88  1  0.83333333  0.59583333  0.23750000  1.0
  Ca  Ca89  1  0.83333333  0.92916667  0.23750000  1.0
  Ca  Ca90  1  0.33333333  0.29583333  0.28750000  1.0
  Ca  Ca91  1  0.33333333  0.62916667  0.28750000  1.0
  Ca  Ca92  1  0.33333333  0.96250000  0.28750000  1.0
  Ca  Ca93  1  0.66666667  0.29583333  0.28750000  1.0
  Ca  Ca94  1  0.66666667  0.62916667  0.28750000  1.0
  Ca  Ca95  1  0.66666667  0.96250000  0.28750000  1.0
  Ca  Ca96  1  1.00000000  0.29583333  0.28750000  1.0
  Ca  Ca97  1  0.00000000  0.62916667  0.28750000  1.0
  Ca  Ca98  1  0.00000000  0.96250000  0.28750000  1.0
  Ca  Ca99  1  0.16666667  0.17916667  0.23750000  1.0
  Ca  Ca100  1  0.16666667  0.51250000  0.23750000  1.0
  Ca  Ca101  1  0.16666667  0.84583333  0.23750000  1.0
  Ca  Ca102  1  0.50000000  0.17916667  0.23750000  1.0
  Ca  Ca103  1  0.50000000  0.51250000  0.23750000  1.0
  Ca  Ca104  1  0.50000000  0.84583333  0.23750000  1.0
  Ca  Ca105  1  0.83333333  0.17916667  0.23750000  1.0
  Ca  Ca106  1  0.83333333  0.51250000  0.23750000  1.0
  Ca  Ca107  1  0.83333333  0.84583333  0.23750000  1.0
  Ca  Ca108  1  0.33333333  0.27916667  0.38750000  1.0
  Ca  Ca109  1  0.33333333  0.61250000  0.38750000  1.0
  Ca  Ca110  1  0.33333333  0.94583333  0.38750000  1.0
  Ca  Ca111  1  0.66666667  0.27916667  0.38750000  1.0
  Ca  Ca112  1  0.66666667  0.61250000  0.38750000  1.0
  Ca  Ca113  1  0.66666667  0.94583333  0.38750000  1.0
  Ca  Ca114  1  1.00000000  0.27916667  0.38750000  1.0
  Ca  Ca115  1  0.00000000  0.61250000  0.38750000  1.0
  Ca  Ca116  1  0.00000000  0.94583333  0.38750000  1.0
  Ca  Ca117  1  0.16666667  0.16250000  0.33750000  1.0
  Ca  Ca118  1  0.16666667  0.49583333  0.33750000  1.0
  Ca  Ca119  1  0.16666667  0.82916667  0.33750000  1.0
  Ca  Ca120  1  0.50000000  0.16250000  0.33750000  1.0
  Ca  Ca121  1  0.50000000  0.49583333  0.33750000  1.0
  Ca  Ca122  1  0.50000000  0.82916667  0.33750000  1.0
  Ca  Ca123  1  0.83333333  0.16250000  0.33750000  1.0
  Ca  Ca124  1  0.83333333  0.49583333  0.33750000  1.0
  Ca  Ca125  1  0.83333333  0.82916667  0.33750000  1.0
  Ca  Ca126  1  0.00000000  0.19583333  0.38750000  1.0
  Ca  Ca127  1  0.00000000  0.52916667  0.38750000  1.0
  Ca  Ca128  1  0.00000000  0.86250000  0.38750000  1.0
  Ca  Ca129  1  0.33333333  0.19583333  0.38750000  1.0
  Ca  Ca130  1  0.33333333  0.52916667  0.38750000  1.0
  Ca  Ca131  1  0.33333333  0.86250000  0.38750000  1.0
  Ca  Ca132  1  0.66666667  0.19583333  0.38750000  1.0
  Ca  Ca133  1  0.66666667  0.52916667  0.38750000  1.0
  Ca  Ca134  1  0.66666667  0.86250000  0.38750000  1.0
  Ca  Ca135  1  0.16666667  0.07916667  0.33750000  1.0
  Ca  Ca136  1  0.16666667  0.41250000  0.33750000  1.0
  Ca  Ca137  1  0.16666667  0.74583333  0.33750000  1.0
  Ca  Ca138  1  0.50000000  0.07916667  0.33750000  1.0
  Ca  Ca139  1  0.50000000  0.41250000  0.33750000  1.0
  Ca  Ca140  1  0.50000000  0.74583333  0.33750000  1.0
  Ca  Ca141  1  0.83333333  0.07916667  0.33750000  1.0
  Ca  Ca142  1  0.83333333  0.41250000  0.33750000  1.0
  Ca  Ca143  1  0.83333333  0.74583333  0.33750000  1.0
  Ni  Ni144  1  0.00000000  0.03750000  0.08750000  1.0
  Ni  Ni145  1  0.00000000  0.37083333  0.08750000  1.0
  Ni  Ni146  1  0.00000000  0.70416667  0.08750000  1.0
  Ni  Ni147  1  0.33333333  0.03750000  0.08750000  1.0
  Ni  Ni148  1  0.33333333  0.37083333  0.08750000  1.0
  Ni  Ni149  1  0.33333333  0.70416667  0.08750000  1.0
  Ni  Ni150  1  0.66666667  0.03750000  0.08750000  1.0
  Ni  Ni151  1  0.66666667  0.37083333  0.08750000  1.0
  Ni  Ni152  1  0.66666667  0.70416667  0.08750000  1.0
  Ni  Ni153  1  0.16666667  0.25416667  0.03750000  1.0
  Ni  Ni154  1  0.16666667  0.58750000  0.03750000  1.0
  Ni  Ni155  1  0.16666667  0.92083333  0.03750000  1.0
  Ni  Ni156  1  0.50000000  0.25416667  0.03750000  1.0
  Ni  Ni157  1  0.50000000  0.58750000  0.03750000  1.0
  Ni  Ni158  1  0.50000000  0.92083333  0.03750000  1.0
  Ni  Ni159  1  0.83333333  0.25416667  0.03750000  1.0
  Ni  Ni160  1  0.83333333  0.58750000  0.03750000  1.0
  Ni  Ni161  1  0.83333333  0.92083333  0.03750000  1.0
  Ni  Ni162  1  0.33333333  0.08750000  0.03750000  1.0
  Ni  Ni163  1  0.33333333  0.42083333  0.03750000  1.0
  Ni  Ni164  1  0.33333333  0.75416667  0.03750000  1.0
  Ni  Ni165  1  0.66666667  0.08750000  0.03750000  1.0
  Ni  Ni166  1  0.66666667  0.42083333  0.03750000  1.0
  Ni  Ni167  1  0.66666667  0.75416667  0.03750000  1.0
  Ni  Ni168  1  0.00000000  0.08750000  0.03750000  1.0
  Ni  Ni169  1  1.00000000  0.42083333  0.03750000  1.0
  Ni  Ni170  1  0.00000000  0.75416667  0.03750000  1.0
  Ni  Ni171  1  0.16666667  0.20416667  0.08750000  1.0
  Ni  Ni172  1  0.16666667  0.53750000  0.08750000  1.0
  Ni  Ni173  1  0.16666667  0.87083333  0.08750000  1.0
  Ni  Ni174  1  0.50000000  0.20416667  0.08750000  1.0
  Ni  Ni175  1  0.50000000  0.53750000  0.08750000  1.0
  Ni  Ni176  1  0.50000000  0.87083333  0.08750000  1.0
  Ni  Ni177  1  0.83333333  0.20416667  0.08750000  1.0
  Ni  Ni178  1  0.83333333  0.53750000  0.08750000  1.0
  Ni  Ni179  1  0.83333333  0.87083333  0.08750000  1.0
  Ni  Ni180  1  0.08333333  0.19583333  0.01250000  1.0
  Ni  Ni181  1  0.08333333  0.52916667  0.01250000  1.0
  Ni  Ni182  1  0.08333333  0.86250000  0.01250000  1.0
  Ni  Ni183  1  0.41666667  0.19583333  0.01250000  1.0
  Ni  Ni184  1  0.41666667  0.52916667  0.01250000  1.0
  Ni  Ni185  1  0.41666667  0.86250000  0.01250000  1.0
  Ni  Ni186  1  0.75000000  0.19583333  0.01250000  1.0
  Ni  Ni187  1  0.75000000  0.52916667  0.01250000  1.0
  Ni  Ni188  1  0.75000000  0.86250000  0.01250000  1.0
  Ni  Ni189  1  0.25000000  0.31250000  0.06250000  1.0
  Ni  Ni190  1  0.25000000  0.64583333  0.06250000  1.0
  Ni  Ni191  1  0.25000000  0.97916667  0.06250000  1.0
  Ni  Ni192  1  0.58333333  0.31250000  0.06250000  1.0
  Ni  Ni193  1  0.58333333  0.64583333  0.06250000  1.0
  Ni  Ni194  1  0.58333333  0.97916667  0.06250000  1.0
  Ni  Ni195  1  0.91666667  0.31250000  0.06250000  1.0
  Ni  Ni196  1  0.91666667  0.64583333  0.06250000  1.0
  Ni  Ni197  1  0.91666667  0.97916667  0.06250000  1.0
  Ni  Ni198  1  0.25000000  0.19583333  0.01250000  1.0
  Ni  Ni199  1  0.25000000  0.52916667  0.01250000  1.0
  Ni  Ni200  1  0.25000000  0.86250000  0.01250000  1.0
  Ni  Ni201  1  0.58333333  0.19583333  0.01250000  1.0
  Ni  Ni202  1  0.58333333  0.52916667  0.01250000  1.0
  Ni  Ni203  1  0.58333333  0.86250000  0.01250000  1.0
  Ni  Ni204  1  0.91666667  0.19583333  0.01250000  1.0
  Ni  Ni205  1  0.91666667  0.52916667  0.01250000  1.0
  Ni  Ni206  1  0.91666667  0.86250000  0.01250000  1.0
  Ni  Ni207  1  0.08333333  0.31250000  0.06250000  1.0
  Ni  Ni208  1  0.08333333  0.64583333  0.06250000  1.0
  Ni  Ni209  1  0.08333333  0.97916667  0.06250000  1.0
  Ni  Ni210  1  0.41666667  0.31250000  0.06250000  1.0
  Ni  Ni211  1  0.41666667  0.64583333  0.06250000  1.0
  Ni  Ni212  1  0.41666667  0.97916667  0.06250000  1.0
  Ni  Ni213  1  0.75000000  0.31250000  0.06250000  1.0
  Ni  Ni214  1  0.75000000  0.64583333  0.06250000  1.0
  Ni  Ni215  1  0.75000000  0.97916667  0.06250000  1.0
  Ni  Ni216  1  0.00000000  0.27083333  0.18750000  1.0
  Ni  Ni217  1  0.00000000  0.60416667  0.18750000  1.0
  Ni  Ni218  1  0.00000000  0.93750000  0.18750000  1.0
  Ni  Ni219  1  0.33333333  0.27083333  0.18750000  1.0
  Ni  Ni220  1  0.33333333  0.60416667  0.18750000  1.0
  Ni  Ni221  1  0.33333333  0.93750000  0.18750000  1.0
  Ni  Ni222  1  0.66666667  0.27083333  0.18750000  1.0
  Ni  Ni223  1  0.66666667  0.60416667  0.18750000  1.0
  Ni  Ni224  1  0.66666667  0.93750000  0.18750000  1.0
  Ni  Ni225  1  0.16666667  0.15416667  0.13750000  1.0
  Ni  Ni226  1  0.16666667  0.48750000  0.13750000  1.0
  Ni  Ni227  1  0.16666667  0.82083333  0.13750000  1.0
  Ni  Ni228  1  0.50000000  0.15416667  0.13750000  1.0
  Ni  Ni229  1  0.50000000  0.48750000  0.13750000  1.0
  Ni  Ni230  1  0.50000000  0.82083333  0.13750000  1.0
  Ni  Ni231  1  0.83333333  0.15416667  0.13750000  1.0
  Ni  Ni232  1  0.83333333  0.48750000  0.13750000  1.0
  Ni  Ni233  1  0.83333333  0.82083333  0.13750000  1.0
  Ni  Ni234  1  0.33333333  0.32083333  0.13750000  1.0
  Ni  Ni235  1  0.33333333  0.65416667  0.13750000  1.0
  Ni  Ni236  1  0.33333333  0.98750000  0.13750000  1.0
  Ni  Ni237  1  0.66666667  0.32083333  0.13750000  1.0
  Ni  Ni238  1  0.66666667  0.65416667  0.13750000  1.0
  Ni  Ni239  1  0.66666667  0.98750000  0.13750000  1.0
  Ni  Ni240  1  1.00000000  0.32083333  0.13750000  1.0
  Ni  Ni241  1  0.00000000  0.65416667  0.13750000  1.0
  Ni  Ni242  1  0.00000000  0.98750000  0.13750000  1.0
  Ni  Ni243  1  0.16666667  0.10416667  0.18750000  1.0
  Ni  Ni244  1  0.16666667  0.43750000  0.18750000  1.0
  Ni  Ni245  1  0.16666667  0.77083333  0.18750000  1.0
  Ni  Ni246  1  0.50000000  0.10416667  0.18750000  1.0
  Ni  Ni247  1  0.50000000  0.43750000  0.18750000  1.0
  Ni  Ni248  1  0.50000000  0.77083333  0.18750000  1.0
  Ni  Ni249  1  0.83333333  0.10416667  0.18750000  1.0
  Ni  Ni250  1  0.83333333  0.43750000  0.18750000  1.0
  Ni  Ni251  1  0.83333333  0.77083333  0.18750000  1.0
  Ni  Ni252  1  0.08333333  0.09583333  0.11250000  1.0
  Ni  Ni253  1  0.08333333  0.42916667  0.11250000  1.0
  Ni  Ni254  1  0.08333333  0.76250000  0.11250000  1.0
  Ni  Ni255  1  0.41666667  0.09583333  0.11250000  1.0
  Ni  Ni256  1  0.41666667  0.42916667  0.11250000  1.0
  Ni  Ni257  1  0.41666667  0.76250000  0.11250000  1.0
  Ni  Ni258  1  0.75000000  0.09583333  0.11250000  1.0
  Ni  Ni259  1  0.75000000  0.42916667  0.11250000  1.0
  Ni  Ni260  1  0.75000000  0.76250000  0.11250000  1.0
  Ni  Ni261  1  0.25000000  0.21250000  0.16250000  1.0
  Ni  Ni262  1  0.25000000  0.54583333  0.16250000  1.0
  Ni  Ni263  1  0.25000000  0.87916667  0.16250000  1.0
  Ni  Ni264  1  0.58333333  0.21250000  0.16250000  1.0
  Ni  Ni265  1  0.58333333  0.54583333  0.16250000  1.0
  Ni  Ni266  1  0.58333333  0.87916667  0.16250000  1.0
  Ni  Ni267  1  0.91666667  0.21250000  0.16250000  1.0
  Ni  Ni268  1  0.91666667  0.54583333  0.16250000  1.0
  Ni  Ni269  1  0.91666667  0.87916667  0.16250000  1.0
  Ni  Ni270  1  0.25000000  0.09583333  0.11250000  1.0
  Ni  Ni271  1  0.25000000  0.42916667  0.11250000  1.0
  Ni  Ni272  1  0.25000000  0.76250000  0.11250000  1.0
  Ni  Ni273  1  0.58333333  0.09583333  0.11250000  1.0
  Ni  Ni274  1  0.58333333  0.42916667  0.11250000  1.0
  Ni  Ni275  1  0.58333333  0.76250000  0.11250000  1.0
  Ni  Ni276  1  0.91666667  0.09583333  0.11250000  1.0
  Ni  Ni277  1  0.91666667  0.42916667  0.11250000  1.0
  Ni  Ni278  1  0.91666667  0.76250000  0.11250000  1.0
  Ni  Ni279  1  0.08333333  0.21250000  0.16250000  1.0
  Ni  Ni280  1  0.08333333  0.54583333  0.16250000  1.0
  Ni  Ni281  1  0.08333333  0.87916667  0.16250000  1.0
  Ni  Ni282  1  0.41666667  0.21250000  0.16250000  1.0
  Ni  Ni283  1  0.41666667  0.54583333  0.16250000  1.0
  Ni  Ni284  1  0.41666667  0.87916667  0.16250000  1.0
  Ni  Ni285  1  0.75000000  0.21250000  0.16250000  1.0
  Ni  Ni286  1  0.75000000  0.54583333  0.16250000  1.0
  Ni  Ni287  1  0.75000000  0.87916667  0.16250000  1.0
  Ni  Ni288  1  0.33333333  0.17083333  0.28750000  1.0
  Ni  Ni289  1  0.33333333  0.50416667  0.28750000  1.0
  Ni  Ni290  1  0.33333333  0.83750000  0.28750000  1.0
  Ni  Ni291  1  0.66666667  0.17083333  0.28750000  1.0
  Ni  Ni292  1  0.66666667  0.50416667  0.28750000  1.0
  Ni  Ni293  1  0.66666667  0.83750000  0.28750000  1.0
  Ni  Ni294  1  1.00000000  0.17083333  0.28750000  1.0
  Ni  Ni295  1  0.00000000  0.50416667  0.28750000  1.0
  Ni  Ni296  1  0.00000000  0.83750000  0.28750000  1.0
  Ni  Ni297  1  0.16666667  0.05416667  0.23750000  1.0
  Ni  Ni298  1  0.16666667  0.38750000  0.23750000  1.0
  Ni  Ni299  1  0.16666667  0.72083333  0.23750000  1.0
  Ni  Ni300  1  0.50000000  0.05416667  0.23750000  1.0
  Ni  Ni301  1  0.50000000  0.38750000  0.23750000  1.0
  Ni  Ni302  1  0.50000000  0.72083333  0.23750000  1.0
  Ni  Ni303  1  0.83333333  0.05416667  0.23750000  1.0
  Ni  Ni304  1  0.83333333  0.38750000  0.23750000  1.0
  Ni  Ni305  1  0.83333333  0.72083333  0.23750000  1.0
  Ni  Ni306  1  0.33333333  0.22083333  0.23750000  1.0
  Ni  Ni307  1  0.33333333  0.55416667  0.23750000  1.0
  Ni  Ni308  1  0.33333333  0.88750000  0.23750000  1.0
  Ni  Ni309  1  0.66666667  0.22083333  0.23750000  1.0
  Ni  Ni310  1  0.66666667  0.55416667  0.23750000  1.0
  Ni  Ni311  1  0.66666667  0.88750000  0.23750000  1.0
  Ni  Ni312  1  1.00000000  0.22083333  0.23750000  1.0
  Ni  Ni313  1  1.00000000  0.55416667  0.23750000  1.0
  Ni  Ni314  1  0.00000000  0.88750000  0.23750000  1.0
  Ni  Ni315  1  0.16666667  0.00416667  0.28750000  1.0
  Ni  Ni316  1  0.16666667  0.33750000  0.28750000  1.0
  Ni  Ni317  1  0.16666667  0.67083333  0.28750000  1.0
  Ni  Ni318  1  0.50000000  0.00416667  0.28750000  1.0
  Ni  Ni319  1  0.50000000  0.33750000  0.28750000  1.0
  Ni  Ni320  1  0.50000000  0.67083333  0.28750000  1.0
  Ni  Ni321  1  0.83333333  0.00416667  0.28750000  1.0
  Ni  Ni322  1  0.83333333  0.33750000  0.28750000  1.0
  Ni  Ni323  1  0.83333333  0.67083333  0.28750000  1.0
  Ni  Ni324  1  0.08333333  0.32916667  0.21250000  1.0
  Ni  Ni325  1  0.08333333  0.66250000  0.21250000  1.0
  Ni  Ni326  1  0.08333333  0.99583333  0.21250000  1.0
  Ni  Ni327  1  0.41666667  0.32916667  0.21250000  1.0
  Ni  Ni328  1  0.41666667  0.66250000  0.21250000  1.0
  Ni  Ni329  1  0.41666667  0.99583333  0.21250000  1.0
  Ni  Ni330  1  0.75000000  0.32916667  0.21250000  1.0
  Ni  Ni331  1  0.75000000  0.66250000  0.21250000  1.0
  Ni  Ni332  1  0.75000000  0.99583333  0.21250000  1.0
  Ni  Ni333  1  0.25000000  0.11250000  0.26250000  1.0
  Ni  Ni334  1  0.25000000  0.44583333  0.26250000  1.0
  Ni  Ni335  1  0.25000000  0.77916667  0.26250000  1.0
  Ni  Ni336  1  0.58333333  0.11250000  0.26250000  1.0
  Ni  Ni337  1  0.58333333  0.44583333  0.26250000  1.0
  Ni  Ni338  1  0.58333333  0.77916667  0.26250000  1.0
  Ni  Ni339  1  0.91666667  0.11250000  0.26250000  1.0
  Ni  Ni340  1  0.91666667  0.44583333  0.26250000  1.0
  Ni  Ni341  1  0.91666667  0.77916667  0.26250000  1.0
  Ni  Ni342  1  0.25000000  0.32916667  0.21250000  1.0
  Ni  Ni343  1  0.25000000  0.66250000  0.21250000  1.0
  Ni  Ni344  1  0.25000000  0.99583333  0.21250000  1.0
  Ni  Ni345  1  0.58333333  0.32916667  0.21250000  1.0
  Ni  Ni346  1  0.58333333  0.66250000  0.21250000  1.0
  Ni  Ni347  1  0.58333333  0.99583333  0.21250000  1.0
  Ni  Ni348  1  0.91666667  0.32916667  0.21250000  1.0
  Ni  Ni349  1  0.91666667  0.66250000  0.21250000  1.0
  Ni  Ni350  1  0.91666667  0.99583333  0.21250000  1.0
  Ni  Ni351  1  0.08333333  0.11250000  0.26250000  1.0
  Ni  Ni352  1  0.08333333  0.44583333  0.26250000  1.0
  Ni  Ni353  1  0.08333333  0.77916667  0.26250000  1.0
  Ni  Ni354  1  0.41666667  0.11250000  0.26250000  1.0
  Ni  Ni355  1  0.41666667  0.44583333  0.26250000  1.0
  Ni  Ni356  1  0.41666667  0.77916667  0.26250000  1.0
  Ni  Ni357  1  0.75000000  0.11250000  0.26250000  1.0
  Ni  Ni358  1  0.75000000  0.44583333  0.26250000  1.0
  Ni  Ni359  1  0.75000000  0.77916667  0.26250000  1.0
  Ni  Ni360  1  0.00000000  0.07083333  0.38750000  1.0
  Ni  Ni361  1  0.00000000  0.40416667  0.38750000  1.0
  Ni  Ni362  1  0.00000000  0.73750000  0.38750000  1.0
  Ni  Ni363  1  0.33333333  0.07083333  0.38750000  1.0
  Ni  Ni364  1  0.33333333  0.40416667  0.38750000  1.0
  Ni  Ni365  1  0.33333333  0.73750000  0.38750000  1.0
  Ni  Ni366  1  0.66666667  0.07083333  0.38750000  1.0
  Ni  Ni367  1  0.66666667  0.40416667  0.38750000  1.0
  Ni  Ni368  1  0.66666667  0.73750000  0.38750000  1.0
  Ni  Ni369  1  0.16666667  0.28750000  0.33750000  1.0
  Ni  Ni370  1  0.16666667  0.62083333  0.33750000  1.0
  Ni  Ni371  1  0.16666667  0.95416667  0.33750000  1.0
  Ni  Ni372  1  0.50000000  0.28750000  0.33750000  1.0
  Ni  Ni373  1  0.50000000  0.62083333  0.33750000  1.0
  Ni  Ni374  1  0.50000000  0.95416667  0.33750000  1.0
  Ni  Ni375  1  0.83333333  0.28750000  0.33750000  1.0
  Ni  Ni376  1  0.83333333  0.62083333  0.33750000  1.0
  Ni  Ni377  1  0.83333333  0.95416667  0.33750000  1.0
  Ni  Ni378  1  0.33333333  0.12083333  0.33750000  1.0
  Ni  Ni379  1  0.33333333  0.45416667  0.33750000  1.0
  Ni  Ni380  1  0.33333333  0.78750000  0.33750000  1.0
  Ni  Ni381  1  0.66666667  0.12083333  0.33750000  1.0
  Ni  Ni382  1  0.66666667  0.45416667  0.33750000  1.0
  Ni  Ni383  1  0.66666667  0.78750000  0.33750000  1.0
  Ni  Ni384  1  0.00000000  0.12083333  0.33750000  1.0
  Ni  Ni385  1  1.00000000  0.45416667  0.33750000  1.0
  Ni  Ni386  1  0.00000000  0.78750000  0.33750000  1.0
  Ni  Ni387  1  0.16666667  0.23750000  0.38750000  1.0
  Ni  Ni388  1  0.16666667  0.57083333  0.38750000  1.0
  Ni  Ni389  1  0.16666667  0.90416667  0.38750000  1.0
  Ni  Ni390  1  0.50000000  0.23750000  0.38750000  1.0
  Ni  Ni391  1  0.50000000  0.57083333  0.38750000  1.0
  Ni  Ni392  1  0.50000000  0.90416667  0.38750000  1.0
  Ni  Ni393  1  0.83333333  0.23750000  0.38750000  1.0
  Ni  Ni394  1  0.83333333  0.57083333  0.38750000  1.0
  Ni  Ni395  1  0.83333333  0.90416667  0.38750000  1.0
  Ni  Ni396  1  0.08333333  0.22916667  0.31250000  1.0
  Ni  Ni397  1  0.08333333  0.56250000  0.31250000  1.0
  Ni  Ni398  1  0.08333333  0.89583333  0.31250000  1.0
  Ni  Ni399  1  0.41666667  0.22916667  0.31250000  1.0
  Ni  Ni400  1  0.41666667  0.56250000  0.31250000  1.0
  Ni  Ni401  1  0.41666667  0.89583333  0.31250000  1.0
  Ni  Ni402  1  0.75000000  0.22916667  0.31250000  1.0
  Ni  Ni403  1  0.75000000  0.56250000  0.31250000  1.0
  Ni  Ni404  1  0.75000000  0.89583333  0.31250000  1.0
  Ni  Ni405  1  0.25000000  0.01250000  0.36250000  1.0
  Ni  Ni406  1  0.25000000  0.34583333  0.36250000  1.0
  Ni  Ni407  1  0.25000000  0.67916667  0.36250000  1.0
  Ni  Ni408  1  0.58333333  0.01250000  0.36250000  1.0
  Ni  Ni409  1  0.58333333  0.34583333  0.36250000  1.0
  Ni  Ni410  1  0.58333333  0.67916667  0.36250000  1.0
  Ni  Ni411  1  0.91666667  0.01250000  0.36250000  1.0
  Ni  Ni412  1  0.91666667  0.34583333  0.36250000  1.0
  Ni  Ni413  1  0.91666667  0.67916667  0.36250000  1.0
  Ni  Ni414  1  0.25000000  0.22916667  0.31250000  1.0
  Ni  Ni415  1  0.25000000  0.56250000  0.31250000  1.0
  Ni  Ni416  1  0.25000000  0.89583333  0.31250000  1.0
  Ni  Ni417  1  0.58333333  0.22916667  0.31250000  1.0
  Ni  Ni418  1  0.58333333  0.56250000  0.31250000  1.0
  Ni  Ni419  1  0.58333333  0.89583333  0.31250000  1.0
  Ni  Ni420  1  0.91666667  0.22916667  0.31250000  1.0
  Ni  Ni421  1  0.91666667  0.56250000  0.31250000  1.0
  Ni  Ni422  1  0.91666667  0.89583333  0.31250000  1.0
  Ni  Ni423  1  0.08333333  0.01250000  0.36250000  1.0
  Ni  Ni424  1  0.08333333  0.34583333  0.36250000  1.0
  Ni  Ni425  1  0.08333333  0.67916667  0.36250000  1.0
  Ni  Ni426  1  0.41666667  0.01250000  0.36250000  1.0
  Ni  Ni427  1  0.41666667  0.34583333  0.36250000  1.0
  Ni  Ni428  1  0.41666667  0.67916667  0.36250000  1.0
  Ni  Ni429  1  0.75000000  0.01250000  0.36250000  1.0
  Ni  Ni430  1  0.75000000  0.34583333  0.36250000  1.0
  Ni  Ni431  1  0.75000000  0.67916667  0.36250000  1.0
