# generated using pymatgen
data_CaNi
_symmetry_space_group_name_H-M   'P 1'
_cell_length_a   10.27914300
_cell_length_b   10.27914300
_cell_length_c   27.41104800
_cell_angle_alpha   90.00000000
_cell_angle_beta   90.00000000
_cell_angle_gamma   90.00000000
_symmetry_Int_Tables_number   1
_chemical_formula_structural   CaNi
_chemical_formula_sum   'Ca27 Ni27'
_cell_volume   2896.27273462
_cell_formula_units_Z   27
loop_
 _symmetry_equiv_pos_site_id
 _symmetry_equiv_pos_as_xyz
  1  'x, y, z'
loop_
 _atom_site_type_symbol
 _atom_site_label
 _atom_site_symmetry_multiplicity
 _atom_site_fract_x
 _atom_site_fract_y
 _atom_site_fract_z
 _atom_site_occupancy
  Ca  Ca0  1  0.00000000  0.00000000  0.09375000  1.0
  Ca  Ca1  1  0.00000000  0.33333333  0.09375000  1.0
  Ca  Ca2  1  0.00000000  0.66666667  0.09375000  1.0
  Ca  Ca3  1  0.33333333  0.00000000  0.09375000  1.0
  Ca  Ca4  1  0.33333333  0.33333333  0.09375000  1.0
  Ca  Ca5  1  0.33333333  0.66666667  0.09375000  1.0
  Ca  Ca6  1  0.66666667  0.00000000  0.09375000  1.0
  Ca  Ca7  1  0.66666667  0.33333333  0.09375000  1.0
  Ca  Ca8  1  0.66666667  0.66666667  0.09375000  1.0
  Ni  Ni9  1  0.16666667  0.16666667  0.03125000  1.0
  Ni  Ni10  1  0.16666667  0.50000000  0.03125000  1.0
  Ni  Ni11  1  0.16666667  0.83333333  0.03125000  1.0
  Ni  Ni12  1  0.50000000  0.16666667  0.03125000  1.0
  Ni  Ni13  1  0.50000000  0.50000000  0.03125000  1.0
  Ni  Ni14  1  0.50000000  0.83333333  0.03125000  1.0
  Ni  Ni15  1  0.83333333  0.16666667  0.03125000  1.0
  Ni  Ni16  1  0.83333333  0.50000000  0.03125000  1.0
  Ni  Ni17  1  0.83333333  0.83333333  0.03125000  1.0
  Ca  Ca18  1  0.00000000  0.00000000  0.21875000  1.0
  Ca  Ca19  1  0.00000000  0.33333333  0.21875000  1.0
  Ca  Ca20  1  0.00000000  0.66666667  0.21875000  1.0
  Ca  Ca21  1  0.33333333  0.00000000  0.21875000  1.0
  Ca  Ca22  1  0.33333333  0.33333333  0.21875000  1.0
  Ca  Ca23  1  0.33333333  0.66666667  0.21875000  1.0
  Ca  Ca24  1  0.66666667  0.00000000  0.21875000  1.0
  Ca  Ca25  1  0.66666667  0.33333333  0.21875000  1.0
  Ca  Ca26  1  0.66666667  0.66666667  0.21875000  1.0
  Ni  Ni27  1  0.16666667  0.16666667  0.15625000  1.0
  Ni  Ni28  1  0.16666667  0.50000000  0.15625000  1.0
  Ni  Ni29  1  0.16666667  0.83333333  0.15625000  1.0
  Ni  Ni30  1  0.50000000  0.16666667  0.15625000  1.0
  Ni  Ni31  1  0.50000000  0.50000000  0.15625000  1.0
  Ni  Ni32  1  0.50000000  0.83333333  0.15625000  1.0
  Ni  Ni33  1  0.83333333  0.16666667  0.15625000  1.0
  Ni  Ni34  1  0.83333333  0.50000000  0.15625000  1.0
  Ni  Ni35  1  0.83333333  0.83333333  0.15625000  1.0
  Ca  Ca36  1  0.00000000  0.00000000  0.34375000  1.0
  Ca  Ca37  1  0.00000000  0.33333333  0.34375000  1.0
  Ca  Ca38  1  0.00000000  0.66666667  0.34375000  1.0
  Ca  Ca39  1  0.33333333  0.00000000  0.34375000  1.0
  Ca  Ca40  1  0.33333333  0.33333333  0.34375000  1.0
  Ca  Ca41  1  0.33333333  0.66666667  0.34375000  1.0
  Ca  Ca42  1  0.66666667  0.00000000  0.34375000  1.0
  Ca  Ca43  1  0.66666667  0.33333333  0.34375000  1.0
  Ca  Ca44  1  0.66666667  0.66666667  0.34375000  1.0
  Ni  Ni45  1  0.16666667  0.16666667  0.28125000  1.0
  Ni  Ni46  1  0.16666667  0.50000000  0.28125000  1.0
  Ni  Ni47  1  0.16666667  0.83333333  0.28125000  1.0
  Ni  Ni48  1  0.50000000  0.16666667  0.28125000  1.0
  Ni  Ni49  1  0.50000000  0.50000000  0.28125000  1.0
  Ni  Ni50  1  0.50000000  0.83333333  0.28125000  1.0
  Ni  Ni51  1  0.83333333  0.16666667  0.28125000  1.0
  Ni  Ni52  1  0.83333333  0.50000000  0.28125000  1.0
  Ni  Ni53  1  0.83333333  0.83333333  0.28125000  1.0
