# generated using pymatgen
data_CaNi5
_symmetry_space_group_name_H-M   'P 1'
_cell_length_a   18.85618539
_cell_length_b   23.47271399
_cell_length_c   43.99776591
_cell_angle_alpha   51.50735486
_cell_angle_beta   94.91078420
_cell_angle_gamma   128.49264514
_symmetry_Int_Tables_number   1
_chemical_formula_structural   CaNi5
_chemical_formula_sum   'Ca54 Ni270'
_cell_volume   10381.48013164
_cell_formula_units_Z   54
loop_
 _symmetry_equiv_pos_site_id
 _symmetry_equiv_pos_as_xyz
  1  'x, y, z'
loop_
 _atom_site_type_symbol
 _atom_site_label
 _atom_site_symmetry_multiplicity
 _atom_site_fract_x
 _atom_site_fract_y
 _atom_site_fract_z
 _atom_site_occupancy
  Ca  Ca0  1  0.16007167  0.24340500  0.12398764  1.0
  Ca  Ca1  1  0.16007167  0.57673833  0.12398764  1.0
  Ca  Ca2  1  0.16007167  0.91007167  0.12398764  1.0
  Ca  Ca3  1  0.49340500  0.24340500  0.12398764  1.0
  Ca  Ca4  1  0.49340500  0.57673833  0.12398764  1.0
  Ca  Ca5  1  0.49340500  0.91007167  0.12398764  1.0
  Ca  Ca6  1  0.82673833  0.24340500  0.12398764  1.0
  Ca  Ca7  1  0.82673833  0.57673833  0.12398764  1.0
  Ca  Ca8  1  0.82673833  0.91007167  0.12398764  1.0
  Ca  Ca9  1  0.17326167  0.08992833  0.11833479  1.0
  Ca  Ca10  1  0.17326167  0.42326167  0.11833479  1.0
  Ca  Ca11  1  0.17326167  0.75659500  0.11833479  1.0
  Ca  Ca12  1  0.50659500  0.08992833  0.11833479  1.0
  Ca  Ca13  1  0.50659500  0.42326167  0.11833479  1.0
  Ca  Ca14  1  0.50659500  0.75659500  0.11833479  1.0
  Ca  Ca15  1  0.83992833  0.08992833  0.11833479  1.0
  Ca  Ca16  1  0.83992833  0.42326167  0.11833479  1.0
  Ca  Ca17  1  0.83992833  0.75659500  0.11833479  1.0
  Ni  Ni18  1  0.28751500  0.25980033  0.02169593  1.0
  Ni  Ni19  1  0.28751500  0.59313367  0.02169593  1.0
  Ni  Ni20  1  0.28751500  0.92646700  0.02169593  1.0
  Ni  Ni21  1  0.62084833  0.25980033  0.02169593  1.0
  Ni  Ni22  1  0.62084833  0.59313367  0.02169593  1.0
  Ni  Ni23  1  0.62084833  0.92646700  0.02169593  1.0
  Ni  Ni24  1  0.95418167  0.25980033  0.02169593  1.0
  Ni  Ni25  1  0.95418167  0.59313367  0.02169593  1.0
  Ni  Ni26  1  0.95418167  0.92646700  0.02169593  1.0
  Ni  Ni27  1  0.06541900  0.25980033  0.06936907  1.0
  Ni  Ni28  1  0.06541900  0.59313367  0.06936907  1.0
  Ni  Ni29  1  0.06541900  0.92646700  0.06936907  1.0
  Ni  Ni30  1  0.39875233  0.25980033  0.06936907  1.0
  Ni  Ni31  1  0.39875233  0.59313367  0.06936907  1.0
  Ni  Ni32  1  0.39875233  0.92646700  0.06936907  1.0
  Ni  Ni33  1  0.73208567  0.25980033  0.06936907  1.0
  Ni  Ni34  1  0.73208567  0.59313367  0.06936907  1.0
  Ni  Ni35  1  0.73208567  0.92646700  0.06936907  1.0
  Ni  Ni36  1  0.26791433  0.07353300  0.03009621  1.0
  Ni  Ni37  1  0.26791433  0.40686633  0.03009621  1.0
  Ni  Ni38  1  0.26791433  0.74019967  0.03009621  1.0
  Ni  Ni39  1  0.60124767  0.07353300  0.03009621  1.0
  Ni  Ni40  1  0.60124767  0.40686633  0.03009621  1.0
  Ni  Ni41  1  0.60124767  0.74019967  0.03009621  1.0
  Ni  Ni42  1  0.93458100  0.07353300  0.03009621  1.0
  Ni  Ni43  1  0.93458100  0.40686633  0.03009621  1.0
  Ni  Ni44  1  0.93458100  0.74019967  0.03009621  1.0
  Ni  Ni45  1  0.04581833  0.07353300  0.07776936  1.0
  Ni  Ni46  1  0.04581833  0.40686633  0.07776936  1.0
  Ni  Ni47  1  0.04581833  0.74019967  0.07776936  1.0
  Ni  Ni48  1  0.37915167  0.07353300  0.07776936  1.0
  Ni  Ni49  1  0.37915167  0.40686633  0.07776936  1.0
  Ni  Ni50  1  0.37915167  0.74019967  0.07776936  1.0
  Ni  Ni51  1  0.71248500  0.07353300  0.07776936  1.0
  Ni  Ni52  1  0.71248500  0.40686633  0.07776936  1.0
  Ni  Ni53  1  0.71248500  0.74019967  0.07776936  1.0
  Ni  Ni54  1  0.00000000  0.16666667  0.04973264  1.0
  Ni  Ni55  1  0.00000000  0.50000000  0.04973264  1.0
  Ni  Ni56  1  0.00000000  0.83333333  0.04973264  1.0
  Ni  Ni57  1  0.33333333  0.16666667  0.04973264  1.0
  Ni  Ni58  1  0.33333333  0.50000000  0.04973264  1.0
  Ni  Ni59  1  0.33333333  0.83333333  0.04973264  1.0
  Ni  Ni60  1  0.66666667  0.16666667  0.04973264  1.0
  Ni  Ni61  1  0.66666667  0.50000000  0.04973264  1.0
  Ni  Ni62  1  0.66666667  0.83333333  0.04973264  1.0
  Ni  Ni63  1  0.00000000  0.00000000  0.04973264  1.0
  Ni  Ni64  1  0.00000000  0.33333333  0.04973264  1.0
  Ni  Ni65  1  0.00000000  0.66666667  0.04973264  1.0
  Ni  Ni66  1  0.33333333  0.00000000  0.04973264  1.0
  Ni  Ni67  1  0.33333333  0.33333333  0.04973264  1.0
  Ni  Ni68  1  0.33333333  0.66666667  0.04973264  1.0
  Ni  Ni69  1  0.66666667  0.00000000  0.04973264  1.0
  Ni  Ni70  1  0.66666667  0.33333333  0.04973264  1.0
  Ni  Ni71  1  0.66666667  0.66666667  0.04973264  1.0
  Ni  Ni72  1  0.00000000  0.24677100  0.12116121  1.0
  Ni  Ni73  1  0.00000000  0.58010433  0.12116121  1.0
  Ni  Ni74  1  0.00000000  0.91343767  0.12116121  1.0
  Ni  Ni75  1  0.33333333  0.24677100  0.12116121  1.0
  Ni  Ni76  1  0.33333333  0.58010433  0.12116121  1.0
  Ni  Ni77  1  0.33333333  0.91343767  0.12116121  1.0
  Ni  Ni78  1  0.66666667  0.24677100  0.12116121  1.0
  Ni  Ni79  1  0.66666667  0.58010433  0.12116121  1.0
  Ni  Ni80  1  0.66666667  0.91343767  0.12116121  1.0
  Ni  Ni81  1  0.16666667  0.08656233  0.04973264  1.0
  Ni  Ni82  1  0.16666667  0.41989567  0.04973264  1.0
  Ni  Ni83  1  0.16666667  0.75322900  0.04973264  1.0
  Ni  Ni84  1  0.50000000  0.08656233  0.04973264  1.0
  Ni  Ni85  1  0.50000000  0.41989567  0.04973264  1.0
  Ni  Ni86  1  0.50000000  0.75322900  0.04973264  1.0
  Ni  Ni87  1  0.83333333  0.08656233  0.04973264  1.0
  Ni  Ni88  1  0.83333333  0.41989567  0.04973264  1.0
  Ni  Ni89  1  0.83333333  0.75322900  0.04973264  1.0
  Ni  Ni90  1  0.16666667  0.24677100  0.04973264  1.0
  Ni  Ni91  1  0.16666667  0.58010433  0.04973264  1.0
  Ni  Ni92  1  0.16666667  0.91343767  0.04973264  1.0
  Ni  Ni93  1  0.50000000  0.24677100  0.04973264  1.0
  Ni  Ni94  1  0.50000000  0.58010433  0.04973264  1.0
  Ni  Ni95  1  0.50000000  0.91343767  0.04973264  1.0
  Ni  Ni96  1  0.83333333  0.24677100  0.04973264  1.0
  Ni  Ni97  1  0.83333333  0.58010433  0.04973264  1.0
  Ni  Ni98  1  0.83333333  0.91343767  0.04973264  1.0
  Ni  Ni99  1  0.00000000  0.08656233  0.12116121  1.0
  Ni  Ni100  1  0.00000000  0.41989567  0.12116121  1.0
  Ni  Ni101  1  0.00000000  0.75322900  0.12116121  1.0
  Ni  Ni102  1  0.33333333  0.08656233  0.12116121  1.0
  Ni  Ni103  1  0.33333333  0.41989567  0.12116121  1.0
  Ni  Ni104  1  0.33333333  0.75322900  0.12116121  1.0
  Ni  Ni105  1  0.66666667  0.08656233  0.12116121  1.0
  Ni  Ni106  1  0.66666667  0.41989567  0.12116121  1.0
  Ni  Ni107  1  0.66666667  0.75322900  0.12116121  1.0
  Ca  Ca108  1  0.16007167  0.24340500  0.26684479  1.0
  Ca  Ca109  1  0.16007167  0.57673833  0.26684479  1.0
  Ca  Ca110  1  0.16007167  0.91007167  0.26684479  1.0
  Ca  Ca111  1  0.49340500  0.24340500  0.26684479  1.0
  Ca  Ca112  1  0.49340500  0.57673833  0.26684479  1.0
  Ca  Ca113  1  0.49340500  0.91007167  0.26684479  1.0
  Ca  Ca114  1  0.82673833  0.24340500  0.26684479  1.0
  Ca  Ca115  1  0.82673833  0.57673833  0.26684479  1.0
  Ca  Ca116  1  0.82673833  0.91007167  0.26684479  1.0
  Ca  Ca117  1  0.17326167  0.08992833  0.26119193  1.0
  Ca  Ca118  1  0.17326167  0.42326167  0.26119193  1.0
  Ca  Ca119  1  0.17326167  0.75659500  0.26119193  1.0
  Ca  Ca120  1  0.50659500  0.08992833  0.26119193  1.0
  Ca  Ca121  1  0.50659500  0.42326167  0.26119193  1.0
  Ca  Ca122  1  0.50659500  0.75659500  0.26119193  1.0
  Ca  Ca123  1  0.83992833  0.08992833  0.26119193  1.0
  Ca  Ca124  1  0.83992833  0.42326167  0.26119193  1.0
  Ca  Ca125  1  0.83992833  0.75659500  0.26119193  1.0
  Ni  Ni126  1  0.28751500  0.25980033  0.16455307  1.0
  Ni  Ni127  1  0.28751500  0.59313367  0.16455307  1.0
  Ni  Ni128  1  0.28751500  0.92646700  0.16455307  1.0
  Ni  Ni129  1  0.62084833  0.25980033  0.16455307  1.0
  Ni  Ni130  1  0.62084833  0.59313367  0.16455307  1.0
  Ni  Ni131  1  0.62084833  0.92646700  0.16455307  1.0
  Ni  Ni132  1  0.95418167  0.25980033  0.16455307  1.0
  Ni  Ni133  1  0.95418167  0.59313367  0.16455307  1.0
  Ni  Ni134  1  0.95418167  0.92646700  0.16455307  1.0
  Ni  Ni135  1  0.06541900  0.25980033  0.21222621  1.0
  Ni  Ni136  1  0.06541900  0.59313367  0.21222621  1.0
  Ni  Ni137  1  0.06541900  0.92646700  0.21222621  1.0
  Ni  Ni138  1  0.39875233  0.25980033  0.21222621  1.0
  Ni  Ni139  1  0.39875233  0.59313367  0.21222621  1.0
  Ni  Ni140  1  0.39875233  0.92646700  0.21222621  1.0
  Ni  Ni141  1  0.73208567  0.25980033  0.21222621  1.0
  Ni  Ni142  1  0.73208567  0.59313367  0.21222621  1.0
  Ni  Ni143  1  0.73208567  0.92646700  0.21222621  1.0
  Ni  Ni144  1  0.26791433  0.07353300  0.17295336  1.0
  Ni  Ni145  1  0.26791433  0.40686633  0.17295336  1.0
  Ni  Ni146  1  0.26791433  0.74019967  0.17295336  1.0
  Ni  Ni147  1  0.60124767  0.07353300  0.17295336  1.0
  Ni  Ni148  1  0.60124767  0.40686633  0.17295336  1.0
  Ni  Ni149  1  0.60124767  0.74019967  0.17295336  1.0
  Ni  Ni150  1  0.93458100  0.07353300  0.17295336  1.0
  Ni  Ni151  1  0.93458100  0.40686633  0.17295336  1.0
  Ni  Ni152  1  0.93458100  0.74019967  0.17295336  1.0
  Ni  Ni153  1  0.04581833  0.07353300  0.22062650  1.0
  Ni  Ni154  1  0.04581833  0.40686633  0.22062650  1.0
  Ni  Ni155  1  0.04581833  0.74019967  0.22062650  1.0
  Ni  Ni156  1  0.37915167  0.07353300  0.22062650  1.0
  Ni  Ni157  1  0.37915167  0.40686633  0.22062650  1.0
  Ni  Ni158  1  0.37915167  0.74019967  0.22062650  1.0
  Ni  Ni159  1  0.71248500  0.07353300  0.22062650  1.0
  Ni  Ni160  1  0.71248500  0.40686633  0.22062650  1.0
  Ni  Ni161  1  0.71248500  0.74019967  0.22062650  1.0
  Ni  Ni162  1  0.00000000  0.16666667  0.19258979  1.0
  Ni  Ni163  1  0.00000000  0.50000000  0.19258979  1.0
  Ni  Ni164  1  0.00000000  0.83333333  0.19258979  1.0
  Ni  Ni165  1  0.33333333  0.16666667  0.19258979  1.0
  Ni  Ni166  1  0.33333333  0.50000000  0.19258979  1.0
  Ni  Ni167  1  0.33333333  0.83333333  0.19258979  1.0
  Ni  Ni168  1  0.66666667  0.16666667  0.19258979  1.0
  Ni  Ni169  1  0.66666667  0.50000000  0.19258979  1.0
  Ni  Ni170  1  0.66666667  0.83333333  0.19258979  1.0
  Ni  Ni171  1  0.00000000  0.00000000  0.19258979  1.0
  Ni  Ni172  1  0.00000000  0.33333333  0.19258979  1.0
  Ni  Ni173  1  0.00000000  0.66666667  0.19258979  1.0
  Ni  Ni174  1  0.33333333  0.00000000  0.19258979  1.0
  Ni  Ni175  1  0.33333333  0.33333333  0.19258979  1.0
  Ni  Ni176  1  0.33333333  0.66666667  0.19258979  1.0
  Ni  Ni177  1  0.66666667  0.00000000  0.19258979  1.0
  Ni  Ni178  1  0.66666667  0.33333333  0.19258979  1.0
  Ni  Ni179  1  0.66666667  0.66666667  0.19258979  1.0
  Ni  Ni180  1  0.00000000  0.24677100  0.26401836  1.0
  Ni  Ni181  1  0.00000000  0.58010433  0.26401836  1.0
  Ni  Ni182  1  0.00000000  0.91343767  0.26401836  1.0
  Ni  Ni183  1  0.33333333  0.24677100  0.26401836  1.0
  Ni  Ni184  1  0.33333333  0.58010433  0.26401836  1.0
  Ni  Ni185  1  0.33333333  0.91343767  0.26401836  1.0
  Ni  Ni186  1  0.66666667  0.24677100  0.26401836  1.0
  Ni  Ni187  1  0.66666667  0.58010433  0.26401836  1.0
  Ni  Ni188  1  0.66666667  0.91343767  0.26401836  1.0
  Ni  Ni189  1  0.16666667  0.08656233  0.19258979  1.0
  Ni  Ni190  1  0.16666667  0.41989567  0.19258979  1.0
  Ni  Ni191  1  0.16666667  0.75322900  0.19258979  1.0
  Ni  Ni192  1  0.50000000  0.08656233  0.19258979  1.0
  Ni  Ni193  1  0.50000000  0.41989567  0.19258979  1.0
  Ni  Ni194  1  0.50000000  0.75322900  0.19258979  1.0
  Ni  Ni195  1  0.83333333  0.08656233  0.19258979  1.0
  Ni  Ni196  1  0.83333333  0.41989567  0.19258979  1.0
  Ni  Ni197  1  0.83333333  0.75322900  0.19258979  1.0
  Ni  Ni198  1  0.16666667  0.24677100  0.19258979  1.0
  Ni  Ni199  1  0.16666667  0.58010433  0.19258979  1.0
  Ni  Ni200  1  0.16666667  0.91343767  0.19258979  1.0
  Ni  Ni201  1  0.50000000  0.24677100  0.19258979  1.0
  Ni  Ni202  1  0.50000000  0.58010433  0.19258979  1.0
  Ni  Ni203  1  0.50000000  0.91343767  0.19258979  1.0
  Ni  Ni204  1  0.83333333  0.24677100  0.19258979  1.0
  Ni  Ni205  1  0.83333333  0.58010433  0.19258979  1.0
  Ni  Ni206  1  0.83333333  0.91343767  0.19258979  1.0
  Ni  Ni207  1  0.00000000  0.08656233  0.26401836  1.0
  Ni  Ni208  1  0.00000000  0.41989567  0.26401836  1.0
  Ni  Ni209  1  0.00000000  0.75322900  0.26401836  1.0
  Ni  Ni210  1  0.33333333  0.08656233  0.26401836  1.0
  Ni  Ni211  1  0.33333333  0.41989567  0.26401836  1.0
  Ni  Ni212  1  0.33333333  0.75322900  0.26401836  1.0
  Ni  Ni213  1  0.66666667  0.08656233  0.26401836  1.0
  Ni  Ni214  1  0.66666667  0.41989567  0.26401836  1.0
  Ni  Ni215  1  0.66666667  0.75322900  0.26401836  1.0
  Ca  Ca216  1  0.16007167  0.24340500  0.40970193  1.0
  Ca  Ca217  1  0.16007167  0.57673833  0.40970193  1.0
  Ca  Ca218  1  0.16007167  0.91007167  0.40970193  1.0
  Ca  Ca219  1  0.49340500  0.24340500  0.40970193  1.0
  Ca  Ca220  1  0.49340500  0.57673833  0.40970193  1.0
  Ca  Ca221  1  0.49340500  0.91007167  0.40970193  1.0
  Ca  Ca222  1  0.82673833  0.24340500  0.40970193  1.0
  Ca  Ca223  1  0.82673833  0.57673833  0.40970193  1.0
  Ca  Ca224  1  0.82673833  0.91007167  0.40970193  1.0
  Ca  Ca225  1  0.17326167  0.08992833  0.40404907  1.0
  Ca  Ca226  1  0.17326167  0.42326167  0.40404907  1.0
  Ca  Ca227  1  0.17326167  0.75659500  0.40404907  1.0
  Ca  Ca228  1  0.50659500  0.08992833  0.40404907  1.0
  Ca  Ca229  1  0.50659500  0.42326167  0.40404907  1.0
  Ca  Ca230  1  0.50659500  0.75659500  0.40404907  1.0
  Ca  Ca231  1  0.83992833  0.08992833  0.40404907  1.0
  Ca  Ca232  1  0.83992833  0.42326167  0.40404907  1.0
  Ca  Ca233  1  0.83992833  0.75659500  0.40404907  1.0
  Ni  Ni234  1  0.28751500  0.25980033  0.30741021  1.0
  Ni  Ni235  1  0.28751500  0.59313367  0.30741021  1.0
  Ni  Ni236  1  0.28751500  0.92646700  0.30741021  1.0
  Ni  Ni237  1  0.62084833  0.25980033  0.30741021  1.0
  Ni  Ni238  1  0.62084833  0.59313367  0.30741021  1.0
  Ni  Ni239  1  0.62084833  0.92646700  0.30741021  1.0
  Ni  Ni240  1  0.95418167  0.25980033  0.30741021  1.0
  Ni  Ni241  1  0.95418167  0.59313367  0.30741021  1.0
  Ni  Ni242  1  0.95418167  0.92646700  0.30741021  1.0
  Ni  Ni243  1  0.06541900  0.25980033  0.35508336  1.0
  Ni  Ni244  1  0.06541900  0.59313367  0.35508336  1.0
  Ni  Ni245  1  0.06541900  0.92646700  0.35508336  1.0
  Ni  Ni246  1  0.39875233  0.25980033  0.35508336  1.0
  Ni  Ni247  1  0.39875233  0.59313367  0.35508336  1.0
  Ni  Ni248  1  0.39875233  0.92646700  0.35508336  1.0
  Ni  Ni249  1  0.73208567  0.25980033  0.35508336  1.0
  Ni  Ni250  1  0.73208567  0.59313367  0.35508336  1.0
  Ni  Ni251  1  0.73208567  0.92646700  0.35508336  1.0
  Ni  Ni252  1  0.26791433  0.07353300  0.31581050  1.0
  Ni  Ni253  1  0.26791433  0.40686633  0.31581050  1.0
  Ni  Ni254  1  0.26791433  0.74019967  0.31581050  1.0
  Ni  Ni255  1  0.60124767  0.07353300  0.31581050  1.0
  Ni  Ni256  1  0.60124767  0.40686633  0.31581050  1.0
  Ni  Ni257  1  0.60124767  0.74019967  0.31581050  1.0
  Ni  Ni258  1  0.93458100  0.07353300  0.31581050  1.0
  Ni  Ni259  1  0.93458100  0.40686633  0.31581050  1.0
  Ni  Ni260  1  0.93458100  0.74019967  0.31581050  1.0
  Ni  Ni261  1  0.04581833  0.07353300  0.36348364  1.0
  Ni  Ni262  1  0.04581833  0.40686633  0.36348364  1.0
  Ni  Ni263  1  0.04581833  0.74019967  0.36348364  1.0
  Ni  Ni264  1  0.37915167  0.07353300  0.36348364  1.0
  Ni  Ni265  1  0.37915167  0.40686633  0.36348364  1.0
  Ni  Ni266  1  0.37915167  0.74019967  0.36348364  1.0
  Ni  Ni267  1  0.71248500  0.07353300  0.36348364  1.0
  Ni  Ni268  1  0.71248500  0.40686633  0.36348364  1.0
  Ni  Ni269  1  0.71248500  0.74019967  0.36348364  1.0
  Ni  Ni270  1  0.00000000  0.16666667  0.33544693  1.0
  Ni  Ni271  1  0.00000000  0.50000000  0.33544693  1.0
  Ni  Ni272  1  0.00000000  0.83333333  0.33544693  1.0
  Ni  Ni273  1  0.33333333  0.16666667  0.33544693  1.0
  Ni  Ni274  1  0.33333333  0.50000000  0.33544693  1.0
  Ni  Ni275  1  0.33333333  0.83333333  0.33544693  1.0
  Ni  Ni276  1  0.66666667  0.16666667  0.33544693  1.0
  Ni  Ni277  1  0.66666667  0.50000000  0.33544693  1.0
  Ni  Ni278  1  0.66666667  0.83333333  0.33544693  1.0
  Ni  Ni279  1  0.00000000  0.00000000  0.33544693  1.0
  Ni  Ni280  1  0.00000000  0.33333333  0.33544693  1.0
  Ni  Ni281  1  0.00000000  0.66666667  0.33544693  1.0
  Ni  Ni282  1  0.33333333  0.00000000  0.33544693  1.0
  Ni  Ni283  1  0.33333333  0.33333333  0.33544693  1.0
  Ni  Ni284  1  0.33333333  0.66666667  0.33544693  1.0
  Ni  Ni285  1  0.66666667  0.00000000  0.33544693  1.0
  Ni  Ni286  1  0.66666667  0.33333333  0.33544693  1.0
  Ni  Ni287  1  0.66666667  0.66666667  0.33544693  1.0
  Ni  Ni288  1  0.00000000  0.24677100  0.40687550  1.0
  Ni  Ni289  1  0.00000000  0.58010433  0.40687550  1.0
  Ni  Ni290  1  0.00000000  0.91343767  0.40687550  1.0
  Ni  Ni291  1  0.33333333  0.24677100  0.40687550  1.0
  Ni  Ni292  1  0.33333333  0.58010433  0.40687550  1.0
  Ni  Ni293  1  0.33333333  0.91343767  0.40687550  1.0
  Ni  Ni294  1  0.66666667  0.24677100  0.40687550  1.0
  Ni  Ni295  1  0.66666667  0.58010433  0.40687550  1.0
  Ni  Ni296  1  0.66666667  0.91343767  0.40687550  1.0
  Ni  Ni297  1  0.16666667  0.08656233  0.33544693  1.0
  Ni  Ni298  1  0.16666667  0.41989567  0.33544693  1.0
  Ni  Ni299  1  0.16666667  0.75322900  0.33544693  1.0
  Ni  Ni300  1  0.50000000  0.08656233  0.33544693  1.0
  Ni  Ni301  1  0.50000000  0.41989567  0.33544693  1.0
  Ni  Ni302  1  0.50000000  0.75322900  0.33544693  1.0
  Ni  Ni303  1  0.83333333  0.08656233  0.33544693  1.0
  Ni  Ni304  1  0.83333333  0.41989567  0.33544693  1.0
  Ni  Ni305  1  0.83333333  0.75322900  0.33544693  1.0
  Ni  Ni306  1  0.16666667  0.24677100  0.33544693  1.0
  Ni  Ni307  1  0.16666667  0.58010433  0.33544693  1.0
  Ni  Ni308  1  0.16666667  0.91343767  0.33544693  1.0
  Ni  Ni309  1  0.50000000  0.24677100  0.33544693  1.0
  Ni  Ni310  1  0.50000000  0.58010433  0.33544693  1.0
  Ni  Ni311  1  0.50000000  0.91343767  0.33544693  1.0
  Ni  Ni312  1  0.83333333  0.24677100  0.33544693  1.0
  Ni  Ni313  1  0.83333333  0.58010433  0.33544693  1.0
  Ni  Ni314  1  0.83333333  0.91343767  0.33544693  1.0
  Ni  Ni315  1  0.00000000  0.08656233  0.40687550  1.0
  Ni  Ni316  1  0.00000000  0.41989567  0.40687550  1.0
  Ni  Ni317  1  0.00000000  0.75322900  0.40687550  1.0
  Ni  Ni318  1  0.33333333  0.08656233  0.40687550  1.0
  Ni  Ni319  1  0.33333333  0.41989567  0.40687550  1.0
  Ni  Ni320  1  0.33333333  0.75322900  0.40687550  1.0
  Ni  Ni321  1  0.66666667  0.08656233  0.40687550  1.0
  Ni  Ni322  1  0.66666667  0.41989567  0.40687550  1.0
  Ni  Ni323  1  0.66666667  0.75322900  0.40687550  1.0
