# generated using pymatgen
data_Cd3Ni
_symmetry_space_group_name_H-M   'P 1'
_cell_length_a   17.73469203
_cell_length_b   17.73469203
_cell_length_c   50.16128400
_cell_angle_alpha   45.00000000
_cell_angle_beta   90.00000000
_cell_angle_gamma   60.00000000
_symmetry_Int_Tables_number   1
_chemical_formula_structural   Cd3Ni
_chemical_formula_sum   'Cd135 Ni45'
_cell_volume   7888.34600467
_cell_formula_units_Z   45
loop_
 _symmetry_equiv_pos_site_id
 _symmetry_equiv_pos_as_xyz
  1  'x, y, z'
loop_
 _atom_site_type_symbol
 _atom_site_label
 _atom_site_symmetry_multiplicity
 _atom_site_fract_x
 _atom_site_fract_y
 _atom_site_fract_z
 _atom_site_occupancy
  Cd  Cd0  1  0.16666667  0.16666667  0.04166667  1.0
  Cd  Cd1  1  0.16666667  0.50000000  0.04166667  1.0
  Cd  Cd2  1  0.16666667  0.83333333  0.04166667  1.0
  Cd  Cd3  1  0.50000000  0.16666667  0.04166667  1.0
  Cd  Cd4  1  0.50000000  0.50000000  0.04166667  1.0
  Cd  Cd5  1  0.50000000  0.83333333  0.04166667  1.0
  Cd  Cd6  1  0.83333333  0.16666667  0.04166667  1.0
  Cd  Cd7  1  0.83333333  0.50000000  0.04166667  1.0
  Cd  Cd8  1  0.83333333  0.83333333  0.04166667  1.0
  Cd  Cd9  1  0.00000000  0.16666667  0.04166667  1.0
  Cd  Cd10  1  0.00000000  0.50000000  0.04166667  1.0
  Cd  Cd11  1  0.00000000  0.83333333  0.04166667  1.0
  Cd  Cd12  1  0.33333333  0.16666667  0.04166667  1.0
  Cd  Cd13  1  0.33333333  0.50000000  0.04166667  1.0
  Cd  Cd14  1  0.33333333  0.83333333  0.04166667  1.0
  Cd  Cd15  1  0.66666667  0.16666667  0.04166667  1.0
  Cd  Cd16  1  0.66666667  0.50000000  0.04166667  1.0
  Cd  Cd17  1  0.66666667  0.83333333  0.04166667  1.0
  Cd  Cd18  1  0.16666667  0.00000000  0.04166667  1.0
  Cd  Cd19  1  0.16666667  0.33333333  0.04166667  1.0
  Cd  Cd20  1  0.16666667  0.66666667  0.04166667  1.0
  Cd  Cd21  1  0.50000000  0.00000000  0.04166667  1.0
  Cd  Cd22  1  0.50000000  0.33333333  0.04166667  1.0
  Cd  Cd23  1  0.50000000  0.66666667  0.04166667  1.0
  Cd  Cd24  1  0.83333333  0.00000000  0.04166667  1.0
  Cd  Cd25  1  0.83333333  0.33333333  0.04166667  1.0
  Cd  Cd26  1  0.83333333  0.66666667  0.04166667  1.0
  Ni  Ni27  1  0.00000000  0.00000000  0.04166667  1.0
  Ni  Ni28  1  0.00000000  0.33333333  0.04166667  1.0
  Ni  Ni29  1  0.00000000  0.66666667  0.04166667  1.0
  Ni  Ni30  1  0.33333333  0.00000000  0.04166667  1.0
  Ni  Ni31  1  0.33333333  0.33333333  0.04166667  1.0
  Ni  Ni32  1  0.33333333  0.66666667  0.04166667  1.0
  Ni  Ni33  1  0.66666667  0.00000000  0.04166667  1.0
  Ni  Ni34  1  0.66666667  0.33333333  0.04166667  1.0
  Ni  Ni35  1  0.66666667  0.66666667  0.04166667  1.0
  Cd  Cd36  1  0.16666667  0.16666667  0.12500000  1.0
  Cd  Cd37  1  0.16666667  0.50000000  0.12500000  1.0
  Cd  Cd38  1  0.16666667  0.83333333  0.12500000  1.0
  Cd  Cd39  1  0.50000000  0.16666667  0.12500000  1.0
  Cd  Cd40  1  0.50000000  0.50000000  0.12500000  1.0
  Cd  Cd41  1  0.50000000  0.83333333  0.12500000  1.0
  Cd  Cd42  1  0.83333333  0.16666667  0.12500000  1.0
  Cd  Cd43  1  0.83333333  0.50000000  0.12500000  1.0
  Cd  Cd44  1  0.83333333  0.83333333  0.12500000  1.0
  Cd  Cd45  1  0.00000000  0.16666667  0.12500000  1.0
  Cd  Cd46  1  0.00000000  0.50000000  0.12500000  1.0
  Cd  Cd47  1  0.00000000  0.83333333  0.12500000  1.0
  Cd  Cd48  1  0.33333333  0.16666667  0.12500000  1.0
  Cd  Cd49  1  0.33333333  0.50000000  0.12500000  1.0
  Cd  Cd50  1  0.33333333  0.83333333  0.12500000  1.0
  Cd  Cd51  1  0.66666667  0.16666667  0.12500000  1.0
  Cd  Cd52  1  0.66666667  0.50000000  0.12500000  1.0
  Cd  Cd53  1  0.66666667  0.83333333  0.12500000  1.0
  Cd  Cd54  1  0.16666667  0.00000000  0.12500000  1.0
  Cd  Cd55  1  0.16666667  0.33333333  0.12500000  1.0
  Cd  Cd56  1  0.16666667  0.66666667  0.12500000  1.0
  Cd  Cd57  1  0.50000000  0.00000000  0.12500000  1.0
  Cd  Cd58  1  0.50000000  0.33333333  0.12500000  1.0
  Cd  Cd59  1  0.50000000  0.66666667  0.12500000  1.0
  Cd  Cd60  1  0.83333333  0.00000000  0.12500000  1.0
  Cd  Cd61  1  0.83333333  0.33333333  0.12500000  1.0
  Cd  Cd62  1  0.83333333  0.66666667  0.12500000  1.0
  Ni  Ni63  1  0.00000000  0.00000000  0.12500000  1.0
  Ni  Ni64  1  0.00000000  0.33333333  0.12500000  1.0
  Ni  Ni65  1  0.00000000  0.66666667  0.12500000  1.0
  Ni  Ni66  1  0.33333333  0.00000000  0.12500000  1.0
  Ni  Ni67  1  0.33333333  0.33333333  0.12500000  1.0
  Ni  Ni68  1  0.33333333  0.66666667  0.12500000  1.0
  Ni  Ni69  1  0.66666667  0.00000000  0.12500000  1.0
  Ni  Ni70  1  0.66666667  0.33333333  0.12500000  1.0
  Ni  Ni71  1  0.66666667  0.66666667  0.12500000  1.0
  Cd  Cd72  1  0.16666667  0.16666667  0.20833333  1.0
  Cd  Cd73  1  0.16666667  0.50000000  0.20833333  1.0
  Cd  Cd74  1  0.16666667  0.83333333  0.20833333  1.0
  Cd  Cd75  1  0.50000000  0.16666667  0.20833333  1.0
  Cd  Cd76  1  0.50000000  0.50000000  0.20833333  1.0
  Cd  Cd77  1  0.50000000  0.83333333  0.20833333  1.0
  Cd  Cd78  1  0.83333333  0.16666667  0.20833333  1.0
  Cd  Cd79  1  0.83333333  0.50000000  0.20833333  1.0
  Cd  Cd80  1  0.83333333  0.83333333  0.20833333  1.0
  Cd  Cd81  1  0.00000000  0.16666667  0.20833333  1.0
  Cd  Cd82  1  0.00000000  0.50000000  0.20833333  1.0
  Cd  Cd83  1  0.00000000  0.83333333  0.20833333  1.0
  Cd  Cd84  1  0.33333333  0.16666667  0.20833333  1.0
  Cd  Cd85  1  0.33333333  0.50000000  0.20833333  1.0
  Cd  Cd86  1  0.33333333  0.83333333  0.20833333  1.0
  Cd  Cd87  1  0.66666667  0.16666667  0.20833333  1.0
  Cd  Cd88  1  0.66666667  0.50000000  0.20833333  1.0
  Cd  Cd89  1  0.66666667  0.83333333  0.20833333  1.0
  Cd  Cd90  1  0.16666667  0.00000000  0.20833333  1.0
  Cd  Cd91  1  0.16666667  0.33333333  0.20833333  1.0
  Cd  Cd92  1  0.16666667  0.66666667  0.20833333  1.0
  Cd  Cd93  1  0.50000000  0.00000000  0.20833333  1.0
  Cd  Cd94  1  0.50000000  0.33333333  0.20833333  1.0
  Cd  Cd95  1  0.50000000  0.66666667  0.20833333  1.0
  Cd  Cd96  1  0.83333333  0.00000000  0.20833333  1.0
  Cd  Cd97  1  0.83333333  0.33333333  0.20833333  1.0
  Cd  Cd98  1  0.83333333  0.66666667  0.20833333  1.0
  Ni  Ni99  1  0.00000000  0.00000000  0.20833333  1.0
  Ni  Ni100  1  0.00000000  0.33333333  0.20833333  1.0
  Ni  Ni101  1  0.00000000  0.66666667  0.20833333  1.0
  Ni  Ni102  1  0.33333333  0.00000000  0.20833333  1.0
  Ni  Ni103  1  0.33333333  0.33333333  0.20833333  1.0
  Ni  Ni104  1  0.33333333  0.66666667  0.20833333  1.0
  Ni  Ni105  1  0.66666667  0.00000000  0.20833333  1.0
  Ni  Ni106  1  0.66666667  0.33333333  0.20833333  1.0
  Ni  Ni107  1  0.66666667  0.66666667  0.20833333  1.0
  Cd  Cd108  1  0.16666667  0.16666667  0.29166667  1.0
  Cd  Cd109  1  0.16666667  0.50000000  0.29166667  1.0
  Cd  Cd110  1  0.16666667  0.83333333  0.29166667  1.0
  Cd  Cd111  1  0.50000000  0.16666667  0.29166667  1.0
  Cd  Cd112  1  0.50000000  0.50000000  0.29166667  1.0
  Cd  Cd113  1  0.50000000  0.83333333  0.29166667  1.0
  Cd  Cd114  1  0.83333333  0.16666667  0.29166667  1.0
  Cd  Cd115  1  0.83333333  0.50000000  0.29166667  1.0
  Cd  Cd116  1  0.83333333  0.83333333  0.29166667  1.0
  Cd  Cd117  1  0.00000000  0.16666667  0.29166667  1.0
  Cd  Cd118  1  0.00000000  0.50000000  0.29166667  1.0
  Cd  Cd119  1  0.00000000  0.83333333  0.29166667  1.0
  Cd  Cd120  1  0.33333333  0.16666667  0.29166667  1.0
  Cd  Cd121  1  0.33333333  0.50000000  0.29166667  1.0
  Cd  Cd122  1  0.33333333  0.83333333  0.29166667  1.0
  Cd  Cd123  1  0.66666667  0.16666667  0.29166667  1.0
  Cd  Cd124  1  0.66666667  0.50000000  0.29166667  1.0
  Cd  Cd125  1  0.66666667  0.83333333  0.29166667  1.0
  Cd  Cd126  1  0.16666667  0.00000000  0.29166667  1.0
  Cd  Cd127  1  0.16666667  0.33333333  0.29166667  1.0
  Cd  Cd128  1  0.16666667  0.66666667  0.29166667  1.0
  Cd  Cd129  1  0.50000000  0.00000000  0.29166667  1.0
  Cd  Cd130  1  0.50000000  0.33333333  0.29166667  1.0
  Cd  Cd131  1  0.50000000  0.66666667  0.29166667  1.0
  Cd  Cd132  1  0.83333333  0.00000000  0.29166667  1.0
  Cd  Cd133  1  0.83333333  0.33333333  0.29166667  1.0
  Cd  Cd134  1  0.83333333  0.66666667  0.29166667  1.0
  Ni  Ni135  1  0.00000000  0.00000000  0.29166667  1.0
  Ni  Ni136  1  0.00000000  0.33333333  0.29166667  1.0
  Ni  Ni137  1  0.00000000  0.66666667  0.29166667  1.0
  Ni  Ni138  1  0.33333333  0.00000000  0.29166667  1.0
  Ni  Ni139  1  0.33333333  0.33333333  0.29166667  1.0
  Ni  Ni140  1  0.33333333  0.66666667  0.29166667  1.0
  Ni  Ni141  1  0.66666667  0.00000000  0.29166667  1.0
  Ni  Ni142  1  0.66666667  0.33333333  0.29166667  1.0
  Ni  Ni143  1  0.66666667  0.66666667  0.29166667  1.0
  Cd  Cd144  1  0.16666667  0.16666667  0.37500000  1.0
  Cd  Cd145  1  0.16666667  0.50000000  0.37500000  1.0
  Cd  Cd146  1  0.16666667  0.83333333  0.37500000  1.0
  Cd  Cd147  1  0.50000000  0.16666667  0.37500000  1.0
  Cd  Cd148  1  0.50000000  0.50000000  0.37500000  1.0
  Cd  Cd149  1  0.50000000  0.83333333  0.37500000  1.0
  Cd  Cd150  1  0.83333333  0.16666667  0.37500000  1.0
  Cd  Cd151  1  0.83333333  0.50000000  0.37500000  1.0
  Cd  Cd152  1  0.83333333  0.83333333  0.37500000  1.0
  Cd  Cd153  1  0.00000000  0.16666667  0.37500000  1.0
  Cd  Cd154  1  0.00000000  0.50000000  0.37500000  1.0
  Cd  Cd155  1  0.00000000  0.83333333  0.37500000  1.0
  Cd  Cd156  1  0.33333333  0.16666667  0.37500000  1.0
  Cd  Cd157  1  0.33333333  0.50000000  0.37500000  1.0
  Cd  Cd158  1  0.33333333  0.83333333  0.37500000  1.0
  Cd  Cd159  1  0.66666667  0.16666667  0.37500000  1.0
  Cd  Cd160  1  0.66666667  0.50000000  0.37500000  1.0
  Cd  Cd161  1  0.66666667  0.83333333  0.37500000  1.0
  Cd  Cd162  1  0.16666667  0.00000000  0.37500000  1.0
  Cd  Cd163  1  0.16666667  0.33333333  0.37500000  1.0
  Cd  Cd164  1  0.16666667  0.66666667  0.37500000  1.0
  Cd  Cd165  1  0.50000000  0.00000000  0.37500000  1.0
  Cd  Cd166  1  0.50000000  0.33333333  0.37500000  1.0
  Cd  Cd167  1  0.50000000  0.66666667  0.37500000  1.0
  Cd  Cd168  1  0.83333333  0.00000000  0.37500000  1.0
  Cd  Cd169  1  0.83333333  0.33333333  0.37500000  1.0
  Cd  Cd170  1  0.83333333  0.66666667  0.37500000  1.0
  Ni  Ni171  1  0.00000000  0.00000000  0.37500000  1.0
  Ni  Ni172  1  0.00000000  0.33333333  0.37500000  1.0
  Ni  Ni173  1  0.00000000  0.66666667  0.37500000  1.0
  Ni  Ni174  1  0.33333333  0.00000000  0.37500000  1.0
  Ni  Ni175  1  0.33333333  0.33333333  0.37500000  1.0
  Ni  Ni176  1  0.33333333  0.66666667  0.37500000  1.0
  Ni  Ni177  1  0.66666667  0.00000000  0.37500000  1.0
  Ni  Ni178  1  0.66666667  0.33333333  0.37500000  1.0
  Ni  Ni179  1  0.66666667  0.66666667  0.37500000  1.0
