# generated using pymatgen
data_Cd3Ni
_symmetry_space_group_name_H-M   'P 1'
_cell_length_a   17.73469203
_cell_length_b   21.72047312
_cell_length_c   27.41079468
_cell_angle_alpha   95.05115253
_cell_angle_beta   90.00000000
_cell_angle_gamma   90.00000000
_symmetry_Int_Tables_number   1
_chemical_formula_structural   Cd3Ni
_chemical_formula_sum   'Cd162 Ni54'
_cell_volume   10517.79467289
_cell_formula_units_Z   54
loop_
 _symmetry_equiv_pos_site_id
 _symmetry_equiv_pos_as_xyz
  1  'x, y, z'
loop_
 _atom_site_type_symbol
 _atom_site_label
 _atom_site_symmetry_multiplicity
 _atom_site_fract_x
 _atom_site_fract_y
 _atom_site_fract_z
 _atom_site_occupancy
  Cd  Cd0  1  0.00000000  0.11979167  0.95312500  1.0
  Cd  Cd1  1  0.00000000  0.45312500  0.95312500  1.0
  Cd  Cd2  1  0.00000000  0.78645833  0.95312500  1.0
  Cd  Cd3  1  0.33333333  0.11979167  0.95312500  1.0
  Cd  Cd4  1  0.33333333  0.45312500  0.95312500  1.0
  Cd  Cd5  1  0.33333333  0.78645833  0.95312500  1.0
  Cd  Cd6  1  0.66666667  0.11979167  0.95312500  1.0
  Cd  Cd7  1  0.66666667  0.45312500  0.95312500  1.0
  Cd  Cd8  1  0.66666667  0.78645833  0.95312500  1.0
  Cd  Cd9  1  0.16666667  0.22395833  0.89062500  1.0
  Cd  Cd10  1  0.16666667  0.55729167  0.89062500  1.0
  Cd  Cd11  1  0.16666667  0.89062500  0.89062500  1.0
  Cd  Cd12  1  0.50000000  0.22395833  0.89062500  1.0
  Cd  Cd13  1  0.50000000  0.55729167  0.89062500  1.0
  Cd  Cd14  1  0.50000000  0.89062500  0.89062500  1.0
  Cd  Cd15  1  0.83333333  0.22395833  0.89062500  1.0
  Cd  Cd16  1  0.83333333  0.55729167  0.89062500  1.0
  Cd  Cd17  1  0.83333333  0.89062500  0.89062500  1.0
  Cd  Cd18  1  0.08333333  0.00520833  0.92187500  1.0
  Cd  Cd19  1  0.08333333  0.33854167  0.92187500  1.0
  Cd  Cd20  1  0.08333333  0.67187500  0.92187500  1.0
  Cd  Cd21  1  0.41666667  0.00520833  0.92187500  1.0
  Cd  Cd22  1  0.41666667  0.33854167  0.92187500  1.0
  Cd  Cd23  1  0.41666667  0.67187500  0.92187500  1.0
  Cd  Cd24  1  0.75000000  0.00520833  0.92187500  1.0
  Cd  Cd25  1  0.75000000  0.33854167  0.92187500  1.0
  Cd  Cd26  1  0.75000000  0.67187500  0.92187500  1.0
  Cd  Cd27  1  0.25000000  0.23437500  0.98437500  1.0
  Cd  Cd28  1  0.25000000  0.56770833  0.98437500  1.0
  Cd  Cd29  1  0.25000000  0.90104167  0.98437500  1.0
  Cd  Cd30  1  0.58333333  0.23437500  0.98437500  1.0
  Cd  Cd31  1  0.58333333  0.56770833  0.98437500  1.0
  Cd  Cd32  1  0.58333333  0.90104167  0.98437500  1.0
  Cd  Cd33  1  0.91666667  0.23437500  0.98437500  1.0
  Cd  Cd34  1  0.91666667  0.56770833  0.98437500  1.0
  Cd  Cd35  1  0.91666667  0.90104167  0.98437500  1.0
  Cd  Cd36  1  0.25000000  0.00520833  0.92187500  1.0
  Cd  Cd37  1  0.25000000  0.33854167  0.92187500  1.0
  Cd  Cd38  1  0.25000000  0.67187500  0.92187500  1.0
  Cd  Cd39  1  0.58333333  0.00520833  0.92187500  1.0
  Cd  Cd40  1  0.58333333  0.33854167  0.92187500  1.0
  Cd  Cd41  1  0.58333333  0.67187500  0.92187500  1.0
  Cd  Cd42  1  0.91666667  0.00520833  0.92187500  1.0
  Cd  Cd43  1  0.91666667  0.33854167  0.92187500  1.0
  Cd  Cd44  1  0.91666667  0.67187500  0.92187500  1.0
  Cd  Cd45  1  0.08333333  0.23437500  0.98437500  1.0
  Cd  Cd46  1  0.08333333  0.56770833  0.98437500  1.0
  Cd  Cd47  1  0.08333333  0.90104167  0.98437500  1.0
  Cd  Cd48  1  0.41666667  0.23437500  0.98437500  1.0
  Cd  Cd49  1  0.41666667  0.56770833  0.98437500  1.0
  Cd  Cd50  1  0.41666667  0.90104167  0.98437500  1.0
  Cd  Cd51  1  0.75000000  0.23437500  0.98437500  1.0
  Cd  Cd52  1  0.75000000  0.56770833  0.98437500  1.0
  Cd  Cd53  1  0.75000000  0.90104167  0.98437500  1.0
  Cd  Cd54  1  0.00000000  0.32812500  0.82812500  1.0
  Cd  Cd55  1  0.00000000  0.66145833  0.82812500  1.0
  Cd  Cd56  1  0.00000000  0.99479167  0.82812500  1.0
  Cd  Cd57  1  0.33333333  0.32812500  0.82812500  1.0
  Cd  Cd58  1  0.33333333  0.66145833  0.82812500  1.0
  Cd  Cd59  1  0.33333333  0.99479167  0.82812500  1.0
  Cd  Cd60  1  0.66666667  0.32812500  0.82812500  1.0
  Cd  Cd61  1  0.66666667  0.66145833  0.82812500  1.0
  Cd  Cd62  1  0.66666667  0.99479167  0.82812500  1.0
  Cd  Cd63  1  0.16666667  0.09895833  0.76562500  1.0
  Cd  Cd64  1  0.16666667  0.43229167  0.76562500  1.0
  Cd  Cd65  1  0.16666667  0.76562500  0.76562500  1.0
  Cd  Cd66  1  0.50000000  0.09895833  0.76562500  1.0
  Cd  Cd67  1  0.50000000  0.43229167  0.76562500  1.0
  Cd  Cd68  1  0.50000000  0.76562500  0.76562500  1.0
  Cd  Cd69  1  0.83333333  0.09895833  0.76562500  1.0
  Cd  Cd70  1  0.83333333  0.43229167  0.76562500  1.0
  Cd  Cd71  1  0.83333333  0.76562500  0.76562500  1.0
  Cd  Cd72  1  0.08333333  0.21354167  0.79687500  1.0
  Cd  Cd73  1  0.08333333  0.54687500  0.79687500  1.0
  Cd  Cd74  1  0.08333333  0.88020833  0.79687500  1.0
  Cd  Cd75  1  0.41666667  0.21354167  0.79687500  1.0
  Cd  Cd76  1  0.41666667  0.54687500  0.79687500  1.0
  Cd  Cd77  1  0.41666667  0.88020833  0.79687500  1.0
  Cd  Cd78  1  0.75000000  0.21354167  0.79687500  1.0
  Cd  Cd79  1  0.75000000  0.54687500  0.79687500  1.0
  Cd  Cd80  1  0.75000000  0.88020833  0.79687500  1.0
  Cd  Cd81  1  0.25000000  0.10937500  0.85937500  1.0
  Cd  Cd82  1  0.25000000  0.44270833  0.85937500  1.0
  Cd  Cd83  1  0.25000000  0.77604167  0.85937500  1.0
  Cd  Cd84  1  0.58333333  0.10937500  0.85937500  1.0
  Cd  Cd85  1  0.58333333  0.44270833  0.85937500  1.0
  Cd  Cd86  1  0.58333333  0.77604167  0.85937500  1.0
  Cd  Cd87  1  0.91666667  0.10937500  0.85937500  1.0
  Cd  Cd88  1  0.91666667  0.44270833  0.85937500  1.0
  Cd  Cd89  1  0.91666667  0.77604167  0.85937500  1.0
  Cd  Cd90  1  0.25000000  0.21354167  0.79687500  1.0
  Cd  Cd91  1  0.25000000  0.54687500  0.79687500  1.0
  Cd  Cd92  1  0.25000000  0.88020833  0.79687500  1.0
  Cd  Cd93  1  0.58333333  0.21354167  0.79687500  1.0
  Cd  Cd94  1  0.58333333  0.54687500  0.79687500  1.0
  Cd  Cd95  1  0.58333333  0.88020833  0.79687500  1.0
  Cd  Cd96  1  0.91666667  0.21354167  0.79687500  1.0
  Cd  Cd97  1  0.91666667  0.54687500  0.79687500  1.0
  Cd  Cd98  1  0.91666667  0.88020833  0.79687500  1.0
  Cd  Cd99  1  0.08333333  0.10937500  0.85937500  1.0
  Cd  Cd100  1  0.08333333  0.44270833  0.85937500  1.0
  Cd  Cd101  1  0.08333333  0.77604167  0.85937500  1.0
  Cd  Cd102  1  0.41666667  0.10937500  0.85937500  1.0
  Cd  Cd103  1  0.41666667  0.44270833  0.85937500  1.0
  Cd  Cd104  1  0.41666667  0.77604167  0.85937500  1.0
  Cd  Cd105  1  0.75000000  0.10937500  0.85937500  1.0
  Cd  Cd106  1  0.75000000  0.44270833  0.85937500  1.0
  Cd  Cd107  1  0.75000000  0.77604167  0.85937500  1.0
  Cd  Cd108  1  0.00000000  0.20312500  0.70312500  1.0
  Cd  Cd109  1  0.00000000  0.53645833  0.70312500  1.0
  Cd  Cd110  1  0.00000000  0.86979167  0.70312500  1.0
  Cd  Cd111  1  0.33333333  0.20312500  0.70312500  1.0
  Cd  Cd112  1  0.33333333  0.53645833  0.70312500  1.0
  Cd  Cd113  1  0.33333333  0.86979167  0.70312500  1.0
  Cd  Cd114  1  0.66666667  0.20312500  0.70312500  1.0
  Cd  Cd115  1  0.66666667  0.53645833  0.70312500  1.0
  Cd  Cd116  1  0.66666667  0.86979167  0.70312500  1.0
  Cd  Cd117  1  0.16666667  0.30729167  0.64062500  1.0
  Cd  Cd118  1  0.16666667  0.64062500  0.64062500  1.0
  Cd  Cd119  1  0.16666667  0.97395833  0.64062500  1.0
  Cd  Cd120  1  0.50000000  0.30729167  0.64062500  1.0
  Cd  Cd121  1  0.50000000  0.64062500  0.64062500  1.0
  Cd  Cd122  1  0.50000000  0.97395833  0.64062500  1.0
  Cd  Cd123  1  0.83333333  0.30729167  0.64062500  1.0
  Cd  Cd124  1  0.83333333  0.64062500  0.64062500  1.0
  Cd  Cd125  1  0.83333333  0.97395833  0.64062500  1.0
  Cd  Cd126  1  0.08333333  0.08854167  0.67187500  1.0
  Cd  Cd127  1  0.08333333  0.42187500  0.67187500  1.0
  Cd  Cd128  1  0.08333333  0.75520833  0.67187500  1.0
  Cd  Cd129  1  0.41666667  0.08854167  0.67187500  1.0
  Cd  Cd130  1  0.41666667  0.42187500  0.67187500  1.0
  Cd  Cd131  1  0.41666667  0.75520833  0.67187500  1.0
  Cd  Cd132  1  0.75000000  0.08854167  0.67187500  1.0
  Cd  Cd133  1  0.75000000  0.42187500  0.67187500  1.0
  Cd  Cd134  1  0.75000000  0.75520833  0.67187500  1.0
  Cd  Cd135  1  0.25000000  0.31770833  0.73437500  1.0
  Cd  Cd136  1  0.25000000  0.65104167  0.73437500  1.0
  Cd  Cd137  1  0.25000000  0.98437500  0.73437500  1.0
  Cd  Cd138  1  0.58333333  0.31770833  0.73437500  1.0
  Cd  Cd139  1  0.58333333  0.65104167  0.73437500  1.0
  Cd  Cd140  1  0.58333333  0.98437500  0.73437500  1.0
  Cd  Cd141  1  0.91666667  0.31770833  0.73437500  1.0
  Cd  Cd142  1  0.91666667  0.65104167  0.73437500  1.0
  Cd  Cd143  1  0.91666667  0.98437500  0.73437500  1.0
  Cd  Cd144  1  0.25000000  0.08854167  0.67187500  1.0
  Cd  Cd145  1  0.25000000  0.42187500  0.67187500  1.0
  Cd  Cd146  1  0.25000000  0.75520833  0.67187500  1.0
  Cd  Cd147  1  0.58333333  0.08854167  0.67187500  1.0
  Cd  Cd148  1  0.58333333  0.42187500  0.67187500  1.0
  Cd  Cd149  1  0.58333333  0.75520833  0.67187500  1.0
  Cd  Cd150  1  0.91666667  0.08854167  0.67187500  1.0
  Cd  Cd151  1  0.91666667  0.42187500  0.67187500  1.0
  Cd  Cd152  1  0.91666667  0.75520833  0.67187500  1.0
  Cd  Cd153  1  0.08333333  0.31770833  0.73437500  1.0
  Cd  Cd154  1  0.08333333  0.65104167  0.73437500  1.0
  Cd  Cd155  1  0.08333333  0.98437500  0.73437500  1.0
  Cd  Cd156  1  0.41666667  0.31770833  0.73437500  1.0
  Cd  Cd157  1  0.41666667  0.65104167  0.73437500  1.0
  Cd  Cd158  1  0.41666667  0.98437500  0.73437500  1.0
  Cd  Cd159  1  0.75000000  0.31770833  0.73437500  1.0
  Cd  Cd160  1  0.75000000  0.65104167  0.73437500  1.0
  Cd  Cd161  1  0.75000000  0.98437500  0.73437500  1.0
  Ni  Ni162  1  0.00000000  0.22395833  0.89062500  1.0
  Ni  Ni163  1  0.00000000  0.55729167  0.89062500  1.0
  Ni  Ni164  1  0.00000000  0.89062500  0.89062500  1.0
  Ni  Ni165  1  0.33333333  0.22395833  0.89062500  1.0
  Ni  Ni166  1  0.33333333  0.55729167  0.89062500  1.0
  Ni  Ni167  1  0.33333333  0.89062500  0.89062500  1.0
  Ni  Ni168  1  0.66666667  0.22395833  0.89062500  1.0
  Ni  Ni169  1  0.66666667  0.55729167  0.89062500  1.0
  Ni  Ni170  1  0.66666667  0.89062500  0.89062500  1.0
  Ni  Ni171  1  0.16666667  0.11979167  0.95312500  1.0
  Ni  Ni172  1  0.16666667  0.45312500  0.95312500  1.0
  Ni  Ni173  1  0.16666667  0.78645833  0.95312500  1.0
  Ni  Ni174  1  0.50000000  0.11979167  0.95312500  1.0
  Ni  Ni175  1  0.50000000  0.45312500  0.95312500  1.0
  Ni  Ni176  1  0.50000000  0.78645833  0.95312500  1.0
  Ni  Ni177  1  0.83333333  0.11979167  0.95312500  1.0
  Ni  Ni178  1  0.83333333  0.45312500  0.95312500  1.0
  Ni  Ni179  1  0.83333333  0.78645833  0.95312500  1.0
  Ni  Ni180  1  0.00000000  0.09895833  0.76562500  1.0
  Ni  Ni181  1  0.00000000  0.43229167  0.76562500  1.0
  Ni  Ni182  1  0.00000000  0.76562500  0.76562500  1.0
  Ni  Ni183  1  0.33333333  0.09895833  0.76562500  1.0
  Ni  Ni184  1  0.33333333  0.43229167  0.76562500  1.0
  Ni  Ni185  1  0.33333333  0.76562500  0.76562500  1.0
  Ni  Ni186  1  0.66666667  0.09895833  0.76562500  1.0
  Ni  Ni187  1  0.66666667  0.43229167  0.76562500  1.0
  Ni  Ni188  1  0.66666667  0.76562500  0.76562500  1.0
  Ni  Ni189  1  0.16666667  0.32812500  0.82812500  1.0
  Ni  Ni190  1  0.16666667  0.66145833  0.82812500  1.0
  Ni  Ni191  1  0.16666667  0.99479167  0.82812500  1.0
  Ni  Ni192  1  0.50000000  0.32812500  0.82812500  1.0
  Ni  Ni193  1  0.50000000  0.66145833  0.82812500  1.0
  Ni  Ni194  1  0.50000000  0.99479167  0.82812500  1.0
  Ni  Ni195  1  0.83333333  0.32812500  0.82812500  1.0
  Ni  Ni196  1  0.83333333  0.66145833  0.82812500  1.0
  Ni  Ni197  1  0.83333333  0.99479167  0.82812500  1.0
  Ni  Ni198  1  0.00000000  0.30729167  0.64062500  1.0
  Ni  Ni199  1  0.00000000  0.64062500  0.64062500  1.0
  Ni  Ni200  1  0.00000000  0.97395833  0.64062500  1.0
  Ni  Ni201  1  0.33333333  0.30729167  0.64062500  1.0
  Ni  Ni202  1  0.33333333  0.64062500  0.64062500  1.0
  Ni  Ni203  1  0.33333333  0.97395833  0.64062500  1.0
  Ni  Ni204  1  0.66666667  0.30729167  0.64062500  1.0
  Ni  Ni205  1  0.66666667  0.64062500  0.64062500  1.0
  Ni  Ni206  1  0.66666667  0.97395833  0.64062500  1.0
  Ni  Ni207  1  0.16666667  0.20312500  0.70312500  1.0
  Ni  Ni208  1  0.16666667  0.53645833  0.70312500  1.0
  Ni  Ni209  1  0.16666667  0.86979167  0.70312500  1.0
  Ni  Ni210  1  0.50000000  0.20312500  0.70312500  1.0
  Ni  Ni211  1  0.50000000  0.53645833  0.70312500  1.0
  Ni  Ni212  1  0.50000000  0.86979167  0.70312500  1.0
  Ni  Ni213  1  0.83333333  0.20312500  0.70312500  1.0
  Ni  Ni214  1  0.83333333  0.53645833  0.70312500  1.0
  Ni  Ni215  1  0.83333333  0.86979167  0.70312500  1.0
