# generated using pymatgen
data_Cd3Ni
_symmetry_space_group_name_H-M   'P 1'
_cell_length_a   17.73469203
_cell_length_b   28.04101022
_cell_length_c   41.80107000
_cell_angle_alpha   116.56505118
_cell_angle_beta   135.00000000
_cell_angle_gamma   71.56505118
_symmetry_Int_Tables_number   1
_chemical_formula_structural   Cd3Ni
_chemical_formula_sum   'Cd216 Ni72'
_cell_volume   13147.24334111
_cell_formula_units_Z   72
loop_
 _symmetry_equiv_pos_site_id
 _symmetry_equiv_pos_as_xyz
  1  'x, y, z'
loop_
 _atom_site_type_symbol
 _atom_site_label
 _atom_site_symmetry_multiplicity
 _atom_site_fract_x
 _atom_site_fract_y
 _atom_site_fract_z
 _atom_site_occupancy
  Cd  Cd0  1  0.16666667  0.08333333  0.06250000  1.0
  Cd  Cd1  1  0.16666667  0.41666667  0.06250000  1.0
  Cd  Cd2  1  0.16666667  0.75000000  0.06250000  1.0
  Cd  Cd3  1  0.50000000  0.08333333  0.06250000  1.0
  Cd  Cd4  1  0.50000000  0.41666667  0.06250000  1.0
  Cd  Cd5  1  0.50000000  0.75000000  0.06250000  1.0
  Cd  Cd6  1  0.83333333  0.08333333  0.06250000  1.0
  Cd  Cd7  1  0.83333333  0.41666667  0.06250000  1.0
  Cd  Cd8  1  0.83333333  0.75000000  0.06250000  1.0
  Cd  Cd9  1  0.16666667  0.25000000  0.01250000  1.0
  Cd  Cd10  1  0.16666667  0.58333333  0.01250000  1.0
  Cd  Cd11  1  0.16666667  0.91666667  0.01250000  1.0
  Cd  Cd12  1  0.50000000  0.25000000  0.01250000  1.0
  Cd  Cd13  1  0.50000000  0.58333333  0.01250000  1.0
  Cd  Cd14  1  0.50000000  0.91666667  0.01250000  1.0
  Cd  Cd15  1  0.83333333  0.25000000  0.01250000  1.0
  Cd  Cd16  1  0.83333333  0.58333333  0.01250000  1.0
  Cd  Cd17  1  0.83333333  0.91666667  0.01250000  1.0
  Cd  Cd18  1  0.00000000  0.08333333  0.06250000  1.0
  Cd  Cd19  1  0.00000000  0.41666667  0.06250000  1.0
  Cd  Cd20  1  0.00000000  0.75000000  0.06250000  1.0
  Cd  Cd21  1  0.33333333  0.08333333  0.06250000  1.0
  Cd  Cd22  1  0.33333333  0.41666667  0.06250000  1.0
  Cd  Cd23  1  0.33333333  0.75000000  0.06250000  1.0
  Cd  Cd24  1  0.66666667  0.08333333  0.06250000  1.0
  Cd  Cd25  1  0.66666667  0.41666667  0.06250000  1.0
  Cd  Cd26  1  0.66666667  0.75000000  0.06250000  1.0
  Cd  Cd27  1  0.00000000  0.25000000  0.01250000  1.0
  Cd  Cd28  1  0.00000000  0.58333333  0.01250000  1.0
  Cd  Cd29  1  0.00000000  0.91666667  0.01250000  1.0
  Cd  Cd30  1  0.33333333  0.25000000  0.01250000  1.0
  Cd  Cd31  1  0.33333333  0.58333333  0.01250000  1.0
  Cd  Cd32  1  0.33333333  0.91666667  0.01250000  1.0
  Cd  Cd33  1  0.66666667  0.25000000  0.01250000  1.0
  Cd  Cd34  1  0.66666667  0.58333333  0.01250000  1.0
  Cd  Cd35  1  0.66666667  0.91666667  0.01250000  1.0
  Cd  Cd36  1  0.16666667  0.00000000  0.08750000  1.0
  Cd  Cd37  1  0.16666667  0.33333333  0.08750000  1.0
  Cd  Cd38  1  0.16666667  0.66666667  0.08750000  1.0
  Cd  Cd39  1  0.50000000  0.00000000  0.08750000  1.0
  Cd  Cd40  1  0.50000000  0.33333333  0.08750000  1.0
  Cd  Cd41  1  0.50000000  0.66666667  0.08750000  1.0
  Cd  Cd42  1  0.83333333  0.00000000  0.08750000  1.0
  Cd  Cd43  1  0.83333333  0.33333333  0.08750000  1.0
  Cd  Cd44  1  0.83333333  0.66666667  0.08750000  1.0
  Cd  Cd45  1  0.16666667  0.16666667  0.03750000  1.0
  Cd  Cd46  1  0.16666667  0.50000000  0.03750000  1.0
  Cd  Cd47  1  0.16666667  0.83333333  0.03750000  1.0
  Cd  Cd48  1  0.50000000  0.16666667  0.03750000  1.0
  Cd  Cd49  1  0.50000000  0.50000000  0.03750000  1.0
  Cd  Cd50  1  0.50000000  0.83333333  0.03750000  1.0
  Cd  Cd51  1  0.83333333  0.16666667  0.03750000  1.0
  Cd  Cd52  1  0.83333333  0.50000000  0.03750000  1.0
  Cd  Cd53  1  0.83333333  0.83333333  0.03750000  1.0
  Ni  Ni54  1  0.00000000  0.00000000  0.08750000  1.0
  Ni  Ni55  1  0.00000000  0.33333333  0.08750000  1.0
  Ni  Ni56  1  0.00000000  0.66666667  0.08750000  1.0
  Ni  Ni57  1  0.33333333  0.00000000  0.08750000  1.0
  Ni  Ni58  1  0.33333333  0.33333333  0.08750000  1.0
  Ni  Ni59  1  0.33333333  0.66666667  0.08750000  1.0
  Ni  Ni60  1  0.66666667  0.00000000  0.08750000  1.0
  Ni  Ni61  1  0.66666667  0.33333333  0.08750000  1.0
  Ni  Ni62  1  0.66666667  0.66666667  0.08750000  1.0
  Ni  Ni63  1  0.00000000  0.16666667  0.03750000  1.0
  Ni  Ni64  1  0.00000000  0.50000000  0.03750000  1.0
  Ni  Ni65  1  0.00000000  0.83333333  0.03750000  1.0
  Ni  Ni66  1  0.33333333  0.16666667  0.03750000  1.0
  Ni  Ni67  1  0.33333333  0.50000000  0.03750000  1.0
  Ni  Ni68  1  0.33333333  0.83333333  0.03750000  1.0
  Ni  Ni69  1  0.66666667  0.16666667  0.03750000  1.0
  Ni  Ni70  1  0.66666667  0.50000000  0.03750000  1.0
  Ni  Ni71  1  0.66666667  0.83333333  0.03750000  1.0
  Cd  Cd72  1  0.16666667  0.08333333  0.16250000  1.0
  Cd  Cd73  1  0.16666667  0.41666667  0.16250000  1.0
  Cd  Cd74  1  0.16666667  0.75000000  0.16250000  1.0
  Cd  Cd75  1  0.50000000  0.08333333  0.16250000  1.0
  Cd  Cd76  1  0.50000000  0.41666667  0.16250000  1.0
  Cd  Cd77  1  0.50000000  0.75000000  0.16250000  1.0
  Cd  Cd78  1  0.83333333  0.08333333  0.16250000  1.0
  Cd  Cd79  1  0.83333333  0.41666667  0.16250000  1.0
  Cd  Cd80  1  0.83333333  0.75000000  0.16250000  1.0
  Cd  Cd81  1  0.16666667  0.25000000  0.11250000  1.0
  Cd  Cd82  1  0.16666667  0.58333333  0.11250000  1.0
  Cd  Cd83  1  0.16666667  0.91666667  0.11250000  1.0
  Cd  Cd84  1  0.50000000  0.25000000  0.11250000  1.0
  Cd  Cd85  1  0.50000000  0.58333333  0.11250000  1.0
  Cd  Cd86  1  0.50000000  0.91666667  0.11250000  1.0
  Cd  Cd87  1  0.83333333  0.25000000  0.11250000  1.0
  Cd  Cd88  1  0.83333333  0.58333333  0.11250000  1.0
  Cd  Cd89  1  0.83333333  0.91666667  0.11250000  1.0
  Cd  Cd90  1  0.00000000  0.08333333  0.16250000  1.0
  Cd  Cd91  1  0.00000000  0.41666667  0.16250000  1.0
  Cd  Cd92  1  0.00000000  0.75000000  0.16250000  1.0
  Cd  Cd93  1  0.33333333  0.08333333  0.16250000  1.0
  Cd  Cd94  1  0.33333333  0.41666667  0.16250000  1.0
  Cd  Cd95  1  0.33333333  0.75000000  0.16250000  1.0
  Cd  Cd96  1  0.66666667  0.08333333  0.16250000  1.0
  Cd  Cd97  1  0.66666667  0.41666667  0.16250000  1.0
  Cd  Cd98  1  0.66666667  0.75000000  0.16250000  1.0
  Cd  Cd99  1  0.00000000  0.25000000  0.11250000  1.0
  Cd  Cd100  1  0.00000000  0.58333333  0.11250000  1.0
  Cd  Cd101  1  0.00000000  0.91666667  0.11250000  1.0
  Cd  Cd102  1  0.33333333  0.25000000  0.11250000  1.0
  Cd  Cd103  1  0.33333333  0.58333333  0.11250000  1.0
  Cd  Cd104  1  0.33333333  0.91666667  0.11250000  1.0
  Cd  Cd105  1  0.66666667  0.25000000  0.11250000  1.0
  Cd  Cd106  1  0.66666667  0.58333333  0.11250000  1.0
  Cd  Cd107  1  0.66666667  0.91666667  0.11250000  1.0
  Cd  Cd108  1  0.16666667  0.00000000  0.18750000  1.0
  Cd  Cd109  1  0.16666667  0.33333333  0.18750000  1.0
  Cd  Cd110  1  0.16666667  0.66666667  0.18750000  1.0
  Cd  Cd111  1  0.50000000  0.00000000  0.18750000  1.0
  Cd  Cd112  1  0.50000000  0.33333333  0.18750000  1.0
  Cd  Cd113  1  0.50000000  0.66666667  0.18750000  1.0
  Cd  Cd114  1  0.83333333  0.00000000  0.18750000  1.0
  Cd  Cd115  1  0.83333333  0.33333333  0.18750000  1.0
  Cd  Cd116  1  0.83333333  0.66666667  0.18750000  1.0
  Cd  Cd117  1  0.16666667  0.16666667  0.13750000  1.0
  Cd  Cd118  1  0.16666667  0.50000000  0.13750000  1.0
  Cd  Cd119  1  0.16666667  0.83333333  0.13750000  1.0
  Cd  Cd120  1  0.50000000  0.16666667  0.13750000  1.0
  Cd  Cd121  1  0.50000000  0.50000000  0.13750000  1.0
  Cd  Cd122  1  0.50000000  0.83333333  0.13750000  1.0
  Cd  Cd123  1  0.83333333  0.16666667  0.13750000  1.0
  Cd  Cd124  1  0.83333333  0.50000000  0.13750000  1.0
  Cd  Cd125  1  0.83333333  0.83333333  0.13750000  1.0
  Ni  Ni126  1  0.00000000  0.00000000  0.18750000  1.0
  Ni  Ni127  1  0.00000000  0.33333333  0.18750000  1.0
  Ni  Ni128  1  0.00000000  0.66666667  0.18750000  1.0
  Ni  Ni129  1  0.33333333  0.00000000  0.18750000  1.0
  Ni  Ni130  1  0.33333333  0.33333333  0.18750000  1.0
  Ni  Ni131  1  0.33333333  0.66666667  0.18750000  1.0
  Ni  Ni132  1  0.66666667  0.00000000  0.18750000  1.0
  Ni  Ni133  1  0.66666667  0.33333333  0.18750000  1.0
  Ni  Ni134  1  0.66666667  0.66666667  0.18750000  1.0
  Ni  Ni135  1  0.00000000  0.16666667  0.13750000  1.0
  Ni  Ni136  1  0.00000000  0.50000000  0.13750000  1.0
  Ni  Ni137  1  0.00000000  0.83333333  0.13750000  1.0
  Ni  Ni138  1  0.33333333  0.16666667  0.13750000  1.0
  Ni  Ni139  1  0.33333333  0.50000000  0.13750000  1.0
  Ni  Ni140  1  0.33333333  0.83333333  0.13750000  1.0
  Ni  Ni141  1  0.66666667  0.16666667  0.13750000  1.0
  Ni  Ni142  1  0.66666667  0.50000000  0.13750000  1.0
  Ni  Ni143  1  0.66666667  0.83333333  0.13750000  1.0
  Cd  Cd144  1  0.16666667  0.08333333  0.26250000  1.0
  Cd  Cd145  1  0.16666667  0.41666667  0.26250000  1.0
  Cd  Cd146  1  0.16666667  0.75000000  0.26250000  1.0
  Cd  Cd147  1  0.50000000  0.08333333  0.26250000  1.0
  Cd  Cd148  1  0.50000000  0.41666667  0.26250000  1.0
  Cd  Cd149  1  0.50000000  0.75000000  0.26250000  1.0
  Cd  Cd150  1  0.83333333  0.08333333  0.26250000  1.0
  Cd  Cd151  1  0.83333333  0.41666667  0.26250000  1.0
  Cd  Cd152  1  0.83333333  0.75000000  0.26250000  1.0
  Cd  Cd153  1  0.16666667  0.25000000  0.21250000  1.0
  Cd  Cd154  1  0.16666667  0.58333333  0.21250000  1.0
  Cd  Cd155  1  0.16666667  0.91666667  0.21250000  1.0
  Cd  Cd156  1  0.50000000  0.25000000  0.21250000  1.0
  Cd  Cd157  1  0.50000000  0.58333333  0.21250000  1.0
  Cd  Cd158  1  0.50000000  0.91666667  0.21250000  1.0
  Cd  Cd159  1  0.83333333  0.25000000  0.21250000  1.0
  Cd  Cd160  1  0.83333333  0.58333333  0.21250000  1.0
  Cd  Cd161  1  0.83333333  0.91666667  0.21250000  1.0
  Cd  Cd162  1  0.00000000  0.08333333  0.26250000  1.0
  Cd  Cd163  1  0.00000000  0.41666667  0.26250000  1.0
  Cd  Cd164  1  0.00000000  0.75000000  0.26250000  1.0
  Cd  Cd165  1  0.33333333  0.08333333  0.26250000  1.0
  Cd  Cd166  1  0.33333333  0.41666667  0.26250000  1.0
  Cd  Cd167  1  0.33333333  0.75000000  0.26250000  1.0
  Cd  Cd168  1  0.66666667  0.08333333  0.26250000  1.0
  Cd  Cd169  1  0.66666667  0.41666667  0.26250000  1.0
  Cd  Cd170  1  0.66666667  0.75000000  0.26250000  1.0
  Cd  Cd171  1  0.00000000  0.25000000  0.21250000  1.0
  Cd  Cd172  1  0.00000000  0.58333333  0.21250000  1.0
  Cd  Cd173  1  0.00000000  0.91666667  0.21250000  1.0
  Cd  Cd174  1  0.33333333  0.25000000  0.21250000  1.0
  Cd  Cd175  1  0.33333333  0.58333333  0.21250000  1.0
  Cd  Cd176  1  0.33333333  0.91666667  0.21250000  1.0
  Cd  Cd177  1  0.66666667  0.25000000  0.21250000  1.0
  Cd  Cd178  1  0.66666667  0.58333333  0.21250000  1.0
  Cd  Cd179  1  0.66666667  0.91666667  0.21250000  1.0
  Cd  Cd180  1  0.16666667  0.00000000  0.28750000  1.0
  Cd  Cd181  1  0.16666667  0.33333333  0.28750000  1.0
  Cd  Cd182  1  0.16666667  0.66666667  0.28750000  1.0
  Cd  Cd183  1  0.50000000  0.00000000  0.28750000  1.0
  Cd  Cd184  1  0.50000000  0.33333333  0.28750000  1.0
  Cd  Cd185  1  0.50000000  0.66666667  0.28750000  1.0
  Cd  Cd186  1  0.83333333  0.00000000  0.28750000  1.0
  Cd  Cd187  1  0.83333333  0.33333333  0.28750000  1.0
  Cd  Cd188  1  0.83333333  0.66666667  0.28750000  1.0
  Cd  Cd189  1  0.16666667  0.16666667  0.23750000  1.0
  Cd  Cd190  1  0.16666667  0.50000000  0.23750000  1.0
  Cd  Cd191  1  0.16666667  0.83333333  0.23750000  1.0
  Cd  Cd192  1  0.50000000  0.16666667  0.23750000  1.0
  Cd  Cd193  1  0.50000000  0.50000000  0.23750000  1.0
  Cd  Cd194  1  0.50000000  0.83333333  0.23750000  1.0
  Cd  Cd195  1  0.83333333  0.16666667  0.23750000  1.0
  Cd  Cd196  1  0.83333333  0.50000000  0.23750000  1.0
  Cd  Cd197  1  0.83333333  0.83333333  0.23750000  1.0
  Ni  Ni198  1  0.00000000  0.00000000  0.28750000  1.0
  Ni  Ni199  1  0.00000000  0.33333333  0.28750000  1.0
  Ni  Ni200  1  0.00000000  0.66666667  0.28750000  1.0
  Ni  Ni201  1  0.33333333  0.00000000  0.28750000  1.0
  Ni  Ni202  1  0.33333333  0.33333333  0.28750000  1.0
  Ni  Ni203  1  0.33333333  0.66666667  0.28750000  1.0
  Ni  Ni204  1  0.66666667  0.00000000  0.28750000  1.0
  Ni  Ni205  1  0.66666667  0.33333333  0.28750000  1.0
  Ni  Ni206  1  0.66666667  0.66666667  0.28750000  1.0
  Ni  Ni207  1  0.00000000  0.16666667  0.23750000  1.0
  Ni  Ni208  1  0.00000000  0.50000000  0.23750000  1.0
  Ni  Ni209  1  0.00000000  0.83333333  0.23750000  1.0
  Ni  Ni210  1  0.33333333  0.16666667  0.23750000  1.0
  Ni  Ni211  1  0.33333333  0.50000000  0.23750000  1.0
  Ni  Ni212  1  0.33333333  0.83333333  0.23750000  1.0
  Ni  Ni213  1  0.66666667  0.16666667  0.23750000  1.0
  Ni  Ni214  1  0.66666667  0.50000000  0.23750000  1.0
  Ni  Ni215  1  0.66666667  0.83333333  0.23750000  1.0
  Cd  Cd216  1  0.16666667  0.08333333  0.36250000  1.0
  Cd  Cd217  1  0.16666667  0.41666667  0.36250000  1.0
  Cd  Cd218  1  0.16666667  0.75000000  0.36250000  1.0
  Cd  Cd219  1  0.50000000  0.08333333  0.36250000  1.0
  Cd  Cd220  1  0.50000000  0.41666667  0.36250000  1.0
  Cd  Cd221  1  0.50000000  0.75000000  0.36250000  1.0
  Cd  Cd222  1  0.83333333  0.08333333  0.36250000  1.0
  Cd  Cd223  1  0.83333333  0.41666667  0.36250000  1.0
  Cd  Cd224  1  0.83333333  0.75000000  0.36250000  1.0
  Cd  Cd225  1  0.16666667  0.25000000  0.31250000  1.0
  Cd  Cd226  1  0.16666667  0.58333333  0.31250000  1.0
  Cd  Cd227  1  0.16666667  0.91666667  0.31250000  1.0
  Cd  Cd228  1  0.50000000  0.25000000  0.31250000  1.0
  Cd  Cd229  1  0.50000000  0.58333333  0.31250000  1.0
  Cd  Cd230  1  0.50000000  0.91666667  0.31250000  1.0
  Cd  Cd231  1  0.83333333  0.25000000  0.31250000  1.0
  Cd  Cd232  1  0.83333333  0.58333333  0.31250000  1.0
  Cd  Cd233  1  0.83333333  0.91666667  0.31250000  1.0
  Cd  Cd234  1  0.00000000  0.08333333  0.36250000  1.0
  Cd  Cd235  1  0.00000000  0.41666667  0.36250000  1.0
  Cd  Cd236  1  0.00000000  0.75000000  0.36250000  1.0
  Cd  Cd237  1  0.33333333  0.08333333  0.36250000  1.0
  Cd  Cd238  1  0.33333333  0.41666667  0.36250000  1.0
  Cd  Cd239  1  0.33333333  0.75000000  0.36250000  1.0
  Cd  Cd240  1  0.66666667  0.08333333  0.36250000  1.0
  Cd  Cd241  1  0.66666667  0.41666667  0.36250000  1.0
  Cd  Cd242  1  0.66666667  0.75000000  0.36250000  1.0
  Cd  Cd243  1  0.00000000  0.25000000  0.31250000  1.0
  Cd  Cd244  1  0.00000000  0.58333333  0.31250000  1.0
  Cd  Cd245  1  0.00000000  0.91666667  0.31250000  1.0
  Cd  Cd246  1  0.33333333  0.25000000  0.31250000  1.0
  Cd  Cd247  1  0.33333333  0.58333333  0.31250000  1.0
  Cd  Cd248  1  0.33333333  0.91666667  0.31250000  1.0
  Cd  Cd249  1  0.66666667  0.25000000  0.31250000  1.0
  Cd  Cd250  1  0.66666667  0.58333333  0.31250000  1.0
  Cd  Cd251  1  0.66666667  0.91666667  0.31250000  1.0
  Cd  Cd252  1  0.16666667  0.00000000  0.38750000  1.0
  Cd  Cd253  1  0.16666667  0.33333333  0.38750000  1.0
  Cd  Cd254  1  0.16666667  0.66666667  0.38750000  1.0
  Cd  Cd255  1  0.50000000  0.00000000  0.38750000  1.0
  Cd  Cd256  1  0.50000000  0.33333333  0.38750000  1.0
  Cd  Cd257  1  0.50000000  0.66666667  0.38750000  1.0
  Cd  Cd258  1  0.83333333  0.00000000  0.38750000  1.0
  Cd  Cd259  1  0.83333333  0.33333333  0.38750000  1.0
  Cd  Cd260  1  0.83333333  0.66666667  0.38750000  1.0
  Cd  Cd261  1  0.16666667  0.16666667  0.33750000  1.0
  Cd  Cd262  1  0.16666667  0.50000000  0.33750000  1.0
  Cd  Cd263  1  0.16666667  0.83333333  0.33750000  1.0
  Cd  Cd264  1  0.50000000  0.16666667  0.33750000  1.0
  Cd  Cd265  1  0.50000000  0.50000000  0.33750000  1.0
  Cd  Cd266  1  0.50000000  0.83333333  0.33750000  1.0
  Cd  Cd267  1  0.83333333  0.16666667  0.33750000  1.0
  Cd  Cd268  1  0.83333333  0.50000000  0.33750000  1.0
  Cd  Cd269  1  0.83333333  0.83333333  0.33750000  1.0
  Ni  Ni270  1  0.00000000  0.00000000  0.38750000  1.0
  Ni  Ni271  1  0.00000000  0.33333333  0.38750000  1.0
  Ni  Ni272  1  0.00000000  0.66666667  0.38750000  1.0
  Ni  Ni273  1  0.33333333  0.00000000  0.38750000  1.0
  Ni  Ni274  1  0.33333333  0.33333333  0.38750000  1.0
  Ni  Ni275  1  0.33333333  0.66666667  0.38750000  1.0
  Ni  Ni276  1  0.66666667  0.00000000  0.38750000  1.0
  Ni  Ni277  1  0.66666667  0.33333333  0.38750000  1.0
  Ni  Ni278  1  0.66666667  0.66666667  0.38750000  1.0
  Ni  Ni279  1  0.00000000  0.16666667  0.33750000  1.0
  Ni  Ni280  1  0.00000000  0.50000000  0.33750000  1.0
  Ni  Ni281  1  0.00000000  0.83333333  0.33750000  1.0
  Ni  Ni282  1  0.33333333  0.16666667  0.33750000  1.0
  Ni  Ni283  1  0.33333333  0.50000000  0.33750000  1.0
  Ni  Ni284  1  0.33333333  0.83333333  0.33750000  1.0
  Ni  Ni285  1  0.66666667  0.16666667  0.33750000  1.0
  Ni  Ni286  1  0.66666667  0.50000000  0.33750000  1.0
  Ni  Ni287  1  0.66666667  0.83333333  0.33750000  1.0
