# generated using pymatgen
data_CdNi
_symmetry_space_group_name_H-M   'P 1'
_cell_length_a   24.29023800
_cell_length_b   24.29023800
_cell_length_c   40.48373000
_cell_angle_alpha   90.00000000
_cell_angle_beta   60.00000000
_cell_angle_gamma   60.00000000
_symmetry_Int_Tables_number   1
_chemical_formula_structural   CdNi
_chemical_formula_sum   'Cd216 Ni216'
_cell_volume   16889.97715452
_cell_formula_units_Z   216
loop_
 _symmetry_equiv_pos_site_id
 _symmetry_equiv_pos_as_xyz
  1  'x, y, z'
loop_
 _atom_site_type_symbol
 _atom_site_label
 _atom_site_symmetry_multiplicity
 _atom_site_fract_x
 _atom_site_fract_y
 _atom_site_fract_z
 _atom_site_occupancy
  Cd  Cd0  1  0.00000000  0.23311700  0.05664890  1.0
  Cd  Cd1  1  0.00000000  0.56645033  0.05664890  1.0
  Cd  Cd2  1  0.00000000  0.89978367  0.05664890  1.0
  Cd  Cd3  1  0.33333333  0.23311700  0.05664890  1.0
  Cd  Cd4  1  0.33333333  0.56645033  0.05664890  1.0
  Cd  Cd5  1  0.33333333  0.89978367  0.05664890  1.0
  Cd  Cd6  1  0.66666667  0.23311700  0.05664890  1.0
  Cd  Cd7  1  0.66666667  0.56645033  0.05664890  1.0
  Cd  Cd8  1  0.66666667  0.89978367  0.05664890  1.0
  Cd  Cd9  1  0.00000000  0.10021633  0.13638930  1.0
  Cd  Cd10  1  0.00000000  0.43354967  0.13638930  1.0
  Cd  Cd11  1  0.00000000  0.76688300  0.13638930  1.0
  Cd  Cd12  1  0.33333333  0.10021633  0.13638930  1.0
  Cd  Cd13  1  0.33333333  0.43354967  0.13638930  1.0
  Cd  Cd14  1  0.33333333  0.76688300  0.13638930  1.0
  Cd  Cd15  1  0.66666667  0.10021633  0.13638930  1.0
  Cd  Cd16  1  0.66666667  0.43354967  0.13638930  1.0
  Cd  Cd17  1  0.66666667  0.76688300  0.13638930  1.0
  Cd  Cd18  1  0.13290067  0.10021633  0.05664890  1.0
  Cd  Cd19  1  0.13290067  0.43354967  0.05664890  1.0
  Cd  Cd20  1  0.13290067  0.76688300  0.05664890  1.0
  Cd  Cd21  1  0.46623400  0.10021633  0.05664890  1.0
  Cd  Cd22  1  0.46623400  0.43354967  0.05664890  1.0
  Cd  Cd23  1  0.46623400  0.76688300  0.05664890  1.0
  Cd  Cd24  1  0.79956733  0.10021633  0.05664890  1.0
  Cd  Cd25  1  0.79956733  0.43354967  0.05664890  1.0
  Cd  Cd26  1  0.79956733  0.76688300  0.05664890  1.0
  Cd  Cd27  1  0.20043267  0.23311700  0.13638930  1.0
  Cd  Cd28  1  0.20043267  0.56645033  0.13638930  1.0
  Cd  Cd29  1  0.20043267  0.89978367  0.13638930  1.0
  Cd  Cd30  1  0.53376600  0.23311700  0.13638930  1.0
  Cd  Cd31  1  0.53376600  0.56645033  0.13638930  1.0
  Cd  Cd32  1  0.53376600  0.89978367  0.13638930  1.0
  Cd  Cd33  1  0.86709933  0.23311700  0.13638930  1.0
  Cd  Cd34  1  0.86709933  0.56645033  0.13638930  1.0
  Cd  Cd35  1  0.86709933  0.89978367  0.13638930  1.0
  Cd  Cd36  1  0.00000000  0.10021633  0.05664890  1.0
  Cd  Cd37  1  0.00000000  0.43354967  0.05664890  1.0
  Cd  Cd38  1  0.00000000  0.76688300  0.05664890  1.0
  Cd  Cd39  1  0.33333333  0.10021633  0.05664890  1.0
  Cd  Cd40  1  0.33333333  0.43354967  0.05664890  1.0
  Cd  Cd41  1  0.33333333  0.76688300  0.05664890  1.0
  Cd  Cd42  1  0.66666667  0.10021633  0.05664890  1.0
  Cd  Cd43  1  0.66666667  0.43354967  0.05664890  1.0
  Cd  Cd44  1  0.66666667  0.76688300  0.05664890  1.0
  Cd  Cd45  1  0.00000000  0.23311700  0.13638930  1.0
  Cd  Cd46  1  0.00000000  0.56645033  0.13638930  1.0
  Cd  Cd47  1  0.00000000  0.89978367  0.13638930  1.0
  Cd  Cd48  1  0.33333333  0.23311700  0.13638930  1.0
  Cd  Cd49  1  0.33333333  0.56645033  0.13638930  1.0
  Cd  Cd50  1  0.33333333  0.89978367  0.13638930  1.0
  Cd  Cd51  1  0.66666667  0.23311700  0.13638930  1.0
  Cd  Cd52  1  0.66666667  0.56645033  0.13638930  1.0
  Cd  Cd53  1  0.66666667  0.89978367  0.13638930  1.0
  Cd  Cd54  1  0.16666667  0.18354967  0.08638930  1.0
  Cd  Cd55  1  0.16666667  0.51688300  0.08638930  1.0
  Cd  Cd56  1  0.16666667  0.85021633  0.08638930  1.0
  Cd  Cd57  1  0.50000000  0.18354967  0.08638930  1.0
  Cd  Cd58  1  0.50000000  0.51688300  0.08638930  1.0
  Cd  Cd59  1  0.50000000  0.85021633  0.08638930  1.0
  Cd  Cd60  1  0.83333333  0.18354967  0.08638930  1.0
  Cd  Cd61  1  0.83333333  0.51688300  0.08638930  1.0
  Cd  Cd62  1  0.83333333  0.85021633  0.08638930  1.0
  Cd  Cd63  1  0.16666667  0.31645033  0.00664890  1.0
  Cd  Cd64  1  0.16666667  0.64978367  0.00664890  1.0
  Cd  Cd65  1  0.16666667  0.98311700  0.00664890  1.0
  Cd  Cd66  1  0.50000000  0.31645033  0.00664890  1.0
  Cd  Cd67  1  0.50000000  0.64978367  0.00664890  1.0
  Cd  Cd68  1  0.50000000  0.98311700  0.00664890  1.0
  Cd  Cd69  1  0.83333333  0.31645033  0.00664890  1.0
  Cd  Cd70  1  0.83333333  0.64978367  0.00664890  1.0
  Cd  Cd71  1  0.83333333  0.98311700  0.00664890  1.0
  Cd  Cd72  1  0.03376600  0.31645033  0.08638930  1.0
  Cd  Cd73  1  0.03376600  0.64978367  0.08638930  1.0
  Cd  Cd74  1  0.03376600  0.98311700  0.08638930  1.0
  Cd  Cd75  1  0.36709933  0.31645033  0.08638930  1.0
  Cd  Cd76  1  0.36709933  0.64978367  0.08638930  1.0
  Cd  Cd77  1  0.36709933  0.98311700  0.08638930  1.0
  Cd  Cd78  1  0.70043267  0.31645033  0.08638930  1.0
  Cd  Cd79  1  0.70043267  0.64978367  0.08638930  1.0
  Cd  Cd80  1  0.70043267  0.98311700  0.08638930  1.0
  Cd  Cd81  1  0.29956733  0.18354967  0.00664890  1.0
  Cd  Cd82  1  0.29956733  0.51688300  0.00664890  1.0
  Cd  Cd83  1  0.29956733  0.85021633  0.00664890  1.0
  Cd  Cd84  1  0.63290067  0.18354967  0.00664890  1.0
  Cd  Cd85  1  0.63290067  0.51688300  0.00664890  1.0
  Cd  Cd86  1  0.63290067  0.85021633  0.00664890  1.0
  Cd  Cd87  1  0.96623400  0.18354967  0.00664890  1.0
  Cd  Cd88  1  0.96623400  0.51688300  0.00664890  1.0
  Cd  Cd89  1  0.96623400  0.85021633  0.00664890  1.0
  Cd  Cd90  1  0.16666667  0.31645033  0.08638930  1.0
  Cd  Cd91  1  0.16666667  0.64978367  0.08638930  1.0
  Cd  Cd92  1  0.16666667  0.98311700  0.08638930  1.0
  Cd  Cd93  1  0.50000000  0.31645033  0.08638930  1.0
  Cd  Cd94  1  0.50000000  0.64978367  0.08638930  1.0
  Cd  Cd95  1  0.50000000  0.98311700  0.08638930  1.0
  Cd  Cd96  1  0.83333333  0.31645033  0.08638930  1.0
  Cd  Cd97  1  0.83333333  0.64978367  0.08638930  1.0
  Cd  Cd98  1  0.83333333  0.98311700  0.08638930  1.0
  Cd  Cd99  1  0.16666667  0.18354967  0.00664890  1.0
  Cd  Cd100  1  0.16666667  0.51688300  0.00664890  1.0
  Cd  Cd101  1  0.16666667  0.85021633  0.00664890  1.0
  Cd  Cd102  1  0.50000000  0.18354967  0.00664890  1.0
  Cd  Cd103  1  0.50000000  0.51688300  0.00664890  1.0
  Cd  Cd104  1  0.50000000  0.85021633  0.00664890  1.0
  Cd  Cd105  1  0.83333333  0.18354967  0.00664890  1.0
  Cd  Cd106  1  0.83333333  0.51688300  0.00664890  1.0
  Cd  Cd107  1  0.83333333  0.85021633  0.00664890  1.0
  Ni  Ni108  1  0.08333333  0.04166667  0.17151910  1.0
  Ni  Ni109  1  0.08333333  0.37500000  0.17151910  1.0
  Ni  Ni110  1  0.08333333  0.70833333  0.17151910  1.0
  Ni  Ni111  1  0.41666667  0.04166667  0.17151910  1.0
  Ni  Ni112  1  0.41666667  0.37500000  0.17151910  1.0
  Ni  Ni113  1  0.41666667  0.70833333  0.17151910  1.0
  Ni  Ni114  1  0.75000000  0.04166667  0.17151910  1.0
  Ni  Ni115  1  0.75000000  0.37500000  0.17151910  1.0
  Ni  Ni116  1  0.75000000  0.70833333  0.17151910  1.0
  Ni  Ni117  1  0.25000000  0.04166667  0.17151910  1.0
  Ni  Ni118  1  0.25000000  0.37500000  0.17151910  1.0
  Ni  Ni119  1  0.25000000  0.70833333  0.17151910  1.0
  Ni  Ni120  1  0.58333333  0.04166667  0.17151910  1.0
  Ni  Ni121  1  0.58333333  0.37500000  0.17151910  1.0
  Ni  Ni122  1  0.58333333  0.70833333  0.17151910  1.0
  Ni  Ni123  1  0.91666667  0.04166667  0.17151910  1.0
  Ni  Ni124  1  0.91666667  0.37500000  0.17151910  1.0
  Ni  Ni125  1  0.91666667  0.70833333  0.17151910  1.0
  Ni  Ni126  1  0.08333333  0.20833333  0.17151910  1.0
  Ni  Ni127  1  0.08333333  0.54166667  0.17151910  1.0
  Ni  Ni128  1  0.08333333  0.87500000  0.17151910  1.0
  Ni  Ni129  1  0.41666667  0.20833333  0.17151910  1.0
  Ni  Ni130  1  0.41666667  0.54166667  0.17151910  1.0
  Ni  Ni131  1  0.41666667  0.87500000  0.17151910  1.0
  Ni  Ni132  1  0.75000000  0.20833333  0.17151910  1.0
  Ni  Ni133  1  0.75000000  0.54166667  0.17151910  1.0
  Ni  Ni134  1  0.75000000  0.87500000  0.17151910  1.0
  Ni  Ni135  1  0.25000000  0.04166667  0.07151910  1.0
  Ni  Ni136  1  0.25000000  0.37500000  0.07151910  1.0
  Ni  Ni137  1  0.25000000  0.70833333  0.07151910  1.0
  Ni  Ni138  1  0.58333333  0.04166667  0.07151910  1.0
  Ni  Ni139  1  0.58333333  0.37500000  0.07151910  1.0
  Ni  Ni140  1  0.58333333  0.70833333  0.07151910  1.0
  Ni  Ni141  1  0.91666667  0.04166667  0.07151910  1.0
  Ni  Ni142  1  0.91666667  0.37500000  0.07151910  1.0
  Ni  Ni143  1  0.91666667  0.70833333  0.07151910  1.0
  Ni  Ni144  1  0.28129778  0.30731556  0.01212977  1.0
  Ni  Ni145  1  0.28129778  0.64064889  0.01212977  1.0
  Ni  Ni146  1  0.28129778  0.97398222  0.01212977  1.0
  Ni  Ni147  1  0.61463111  0.30731556  0.01212977  1.0
  Ni  Ni148  1  0.61463111  0.64064889  0.01212977  1.0
  Ni  Ni149  1  0.61463111  0.97398222  0.01212977  1.0
  Ni  Ni150  1  0.94796444  0.30731556  0.01212977  1.0
  Ni  Ni151  1  0.94796444  0.64064889  0.01212977  1.0
  Ni  Ni152  1  0.94796444  0.97398222  0.01212977  1.0
  Ni  Ni153  1  0.05203555  0.30731556  0.01212977  1.0
  Ni  Ni154  1  0.05203555  0.64064889  0.01212977  1.0
  Ni  Ni155  1  0.05203555  0.97398222  0.01212977  1.0
  Ni  Ni156  1  0.38536889  0.30731556  0.01212977  1.0
  Ni  Ni157  1  0.38536889  0.64064889  0.01212977  1.0
  Ni  Ni158  1  0.38536889  0.97398222  0.01212977  1.0
  Ni  Ni159  1  0.71870222  0.30731556  0.01212977  1.0
  Ni  Ni160  1  0.71870222  0.64064889  0.01212977  1.0
  Ni  Ni161  1  0.71870222  0.97398222  0.01212977  1.0
  Ni  Ni162  1  0.28129778  0.07805333  0.01212977  1.0
  Ni  Ni163  1  0.28129778  0.41138667  0.01212977  1.0
  Ni  Ni164  1  0.28129778  0.74472000  0.01212977  1.0
  Ni  Ni165  1  0.61463111  0.07805333  0.01212977  1.0
  Ni  Ni166  1  0.61463111  0.41138667  0.01212977  1.0
  Ni  Ni167  1  0.61463111  0.74472000  0.01212977  1.0
  Ni  Ni168  1  0.94796444  0.07805333  0.01212977  1.0
  Ni  Ni169  1  0.94796444  0.41138667  0.01212977  1.0
  Ni  Ni170  1  0.94796444  0.74472000  0.01212977  1.0
  Ni  Ni171  1  0.05203555  0.30731556  0.14968710  1.0
  Ni  Ni172  1  0.05203555  0.64064889  0.14968710  1.0
  Ni  Ni173  1  0.05203555  0.97398222  0.14968710  1.0
  Ni  Ni174  1  0.38536889  0.30731556  0.14968710  1.0
  Ni  Ni175  1  0.38536889  0.64064889  0.14968710  1.0
  Ni  Ni176  1  0.38536889  0.97398222  0.14968710  1.0
  Ni  Ni177  1  0.71870222  0.30731556  0.14968710  1.0
  Ni  Ni178  1  0.71870222  0.64064889  0.14968710  1.0
  Ni  Ni179  1  0.71870222  0.97398222  0.14968710  1.0
  Ni  Ni180  1  0.21870222  0.10935111  0.13090843  1.0
  Ni  Ni181  1  0.21870222  0.44268444  0.13090843  1.0
  Ni  Ni182  1  0.21870222  0.77601778  0.13090843  1.0
  Ni  Ni183  1  0.55203556  0.10935111  0.13090843  1.0
  Ni  Ni184  1  0.55203556  0.44268444  0.13090843  1.0
  Ni  Ni185  1  0.55203556  0.77601778  0.13090843  1.0
  Ni  Ni186  1  0.88536889  0.10935111  0.13090843  1.0
  Ni  Ni187  1  0.88536889  0.44268444  0.13090843  1.0
  Ni  Ni188  1  0.88536889  0.77601778  0.13090843  1.0
  Ni  Ni189  1  0.11463111  0.10935111  0.13090843  1.0
  Ni  Ni190  1  0.11463111  0.44268444  0.13090843  1.0
  Ni  Ni191  1  0.11463111  0.77601778  0.13090843  1.0
  Ni  Ni192  1  0.44796445  0.10935111  0.13090843  1.0
  Ni  Ni193  1  0.44796445  0.44268444  0.13090843  1.0
  Ni  Ni194  1  0.44796445  0.77601778  0.13090843  1.0
  Ni  Ni195  1  0.78129778  0.10935111  0.13090843  1.0
  Ni  Ni196  1  0.78129778  0.44268444  0.13090843  1.0
  Ni  Ni197  1  0.78129778  0.77601778  0.13090843  1.0
  Ni  Ni198  1  0.21870222  0.00528000  0.13090843  1.0
  Ni  Ni199  1  0.21870222  0.33861333  0.13090843  1.0
  Ni  Ni200  1  0.21870222  0.67194667  0.13090843  1.0
  Ni  Ni201  1  0.55203556  0.00528000  0.13090843  1.0
  Ni  Ni202  1  0.55203556  0.33861333  0.13090843  1.0
  Ni  Ni203  1  0.55203556  0.67194667  0.13090843  1.0
  Ni  Ni204  1  0.88536889  0.00528000  0.13090843  1.0
  Ni  Ni205  1  0.88536889  0.33861333  0.13090843  1.0
  Ni  Ni206  1  0.88536889  0.67194667  0.13090843  1.0
  Ni  Ni207  1  0.11463111  0.10935111  0.19335110  1.0
  Ni  Ni208  1  0.11463111  0.44268444  0.19335110  1.0
  Ni  Ni209  1  0.11463111  0.77601778  0.19335110  1.0
  Ni  Ni210  1  0.44796445  0.10935111  0.19335110  1.0
  Ni  Ni211  1  0.44796445  0.44268444  0.19335110  1.0
  Ni  Ni212  1  0.44796445  0.77601778  0.19335110  1.0
  Ni  Ni213  1  0.78129778  0.10935111  0.19335110  1.0
  Ni  Ni214  1  0.78129778  0.44268444  0.19335110  1.0
  Ni  Ni215  1  0.78129778  0.77601778  0.19335110  1.0
  Cd  Cd216  1  0.00000000  0.23311700  0.25664890  1.0
  Cd  Cd217  1  0.00000000  0.56645033  0.25664890  1.0
  Cd  Cd218  1  0.00000000  0.89978367  0.25664890  1.0
  Cd  Cd219  1  0.33333333  0.23311700  0.25664890  1.0
  Cd  Cd220  1  0.33333333  0.56645033  0.25664890  1.0
  Cd  Cd221  1  0.33333333  0.89978367  0.25664890  1.0
  Cd  Cd222  1  0.66666667  0.23311700  0.25664890  1.0
  Cd  Cd223  1  0.66666667  0.56645033  0.25664890  1.0
  Cd  Cd224  1  0.66666667  0.89978367  0.25664890  1.0
  Cd  Cd225  1  0.00000000  0.10021633  0.33638930  1.0
  Cd  Cd226  1  0.00000000  0.43354967  0.33638930  1.0
  Cd  Cd227  1  0.00000000  0.76688300  0.33638930  1.0
  Cd  Cd228  1  0.33333333  0.10021633  0.33638930  1.0
  Cd  Cd229  1  0.33333333  0.43354967  0.33638930  1.0
  Cd  Cd230  1  0.33333333  0.76688300  0.33638930  1.0
  Cd  Cd231  1  0.66666667  0.10021633  0.33638930  1.0
  Cd  Cd232  1  0.66666667  0.43354967  0.33638930  1.0
  Cd  Cd233  1  0.66666667  0.76688300  0.33638930  1.0
  Cd  Cd234  1  0.13290067  0.10021633  0.25664890  1.0
  Cd  Cd235  1  0.13290067  0.43354967  0.25664890  1.0
  Cd  Cd236  1  0.13290067  0.76688300  0.25664890  1.0
  Cd  Cd237  1  0.46623400  0.10021633  0.25664890  1.0
  Cd  Cd238  1  0.46623400  0.43354967  0.25664890  1.0
  Cd  Cd239  1  0.46623400  0.76688300  0.25664890  1.0
  Cd  Cd240  1  0.79956733  0.10021633  0.25664890  1.0
  Cd  Cd241  1  0.79956733  0.43354967  0.25664890  1.0
  Cd  Cd242  1  0.79956733  0.76688300  0.25664890  1.0
  Cd  Cd243  1  0.20043267  0.23311700  0.33638930  1.0
  Cd  Cd244  1  0.20043267  0.56645033  0.33638930  1.0
  Cd  Cd245  1  0.20043267  0.89978367  0.33638930  1.0
  Cd  Cd246  1  0.53376600  0.23311700  0.33638930  1.0
  Cd  Cd247  1  0.53376600  0.56645033  0.33638930  1.0
  Cd  Cd248  1  0.53376600  0.89978367  0.33638930  1.0
  Cd  Cd249  1  0.86709933  0.23311700  0.33638930  1.0
  Cd  Cd250  1  0.86709933  0.56645033  0.33638930  1.0
  Cd  Cd251  1  0.86709933  0.89978367  0.33638930  1.0
  Cd  Cd252  1  0.00000000  0.10021633  0.25664890  1.0
  Cd  Cd253  1  0.00000000  0.43354967  0.25664890  1.0
  Cd  Cd254  1  0.00000000  0.76688300  0.25664890  1.0
  Cd  Cd255  1  0.33333333  0.10021633  0.25664890  1.0
  Cd  Cd256  1  0.33333333  0.43354967  0.25664890  1.0
  Cd  Cd257  1  0.33333333  0.76688300  0.25664890  1.0
  Cd  Cd258  1  0.66666667  0.10021633  0.25664890  1.0
  Cd  Cd259  1  0.66666667  0.43354967  0.25664890  1.0
  Cd  Cd260  1  0.66666667  0.76688300  0.25664890  1.0
  Cd  Cd261  1  0.00000000  0.23311700  0.33638930  1.0
  Cd  Cd262  1  0.00000000  0.56645033  0.33638930  1.0
  Cd  Cd263  1  0.00000000  0.89978367  0.33638930  1.0
  Cd  Cd264  1  0.33333333  0.23311700  0.33638930  1.0
  Cd  Cd265  1  0.33333333  0.56645033  0.33638930  1.0
  Cd  Cd266  1  0.33333333  0.89978367  0.33638930  1.0
  Cd  Cd267  1  0.66666667  0.23311700  0.33638930  1.0
  Cd  Cd268  1  0.66666667  0.56645033  0.33638930  1.0
  Cd  Cd269  1  0.66666667  0.89978367  0.33638930  1.0
  Cd  Cd270  1  0.16666667  0.18354967  0.28638930  1.0
  Cd  Cd271  1  0.16666667  0.51688300  0.28638930  1.0
  Cd  Cd272  1  0.16666667  0.85021633  0.28638930  1.0
  Cd  Cd273  1  0.50000000  0.18354967  0.28638930  1.0
  Cd  Cd274  1  0.50000000  0.51688300  0.28638930  1.0
  Cd  Cd275  1  0.50000000  0.85021633  0.28638930  1.0
  Cd  Cd276  1  0.83333333  0.18354967  0.28638930  1.0
  Cd  Cd277  1  0.83333333  0.51688300  0.28638930  1.0
  Cd  Cd278  1  0.83333333  0.85021633  0.28638930  1.0
  Cd  Cd279  1  0.16666667  0.31645033  0.20664890  1.0
  Cd  Cd280  1  0.16666667  0.64978367  0.20664890  1.0
  Cd  Cd281  1  0.16666667  0.98311700  0.20664890  1.0
  Cd  Cd282  1  0.50000000  0.31645033  0.20664890  1.0
  Cd  Cd283  1  0.50000000  0.64978367  0.20664890  1.0
  Cd  Cd284  1  0.50000000  0.98311700  0.20664890  1.0
  Cd  Cd285  1  0.83333333  0.31645033  0.20664890  1.0
  Cd  Cd286  1  0.83333333  0.64978367  0.20664890  1.0
  Cd  Cd287  1  0.83333333  0.98311700  0.20664890  1.0
  Cd  Cd288  1  0.03376600  0.31645033  0.28638930  1.0
  Cd  Cd289  1  0.03376600  0.64978367  0.28638930  1.0
  Cd  Cd290  1  0.03376600  0.98311700  0.28638930  1.0
  Cd  Cd291  1  0.36709933  0.31645033  0.28638930  1.0
  Cd  Cd292  1  0.36709933  0.64978367  0.28638930  1.0
  Cd  Cd293  1  0.36709933  0.98311700  0.28638930  1.0
  Cd  Cd294  1  0.70043267  0.31645033  0.28638930  1.0
  Cd  Cd295  1  0.70043267  0.64978367  0.28638930  1.0
  Cd  Cd296  1  0.70043267  0.98311700  0.28638930  1.0
  Cd  Cd297  1  0.29956733  0.18354967  0.20664890  1.0
  Cd  Cd298  1  0.29956733  0.51688300  0.20664890  1.0
  Cd  Cd299  1  0.29956733  0.85021633  0.20664890  1.0
  Cd  Cd300  1  0.63290067  0.18354967  0.20664890  1.0
  Cd  Cd301  1  0.63290067  0.51688300  0.20664890  1.0
  Cd  Cd302  1  0.63290067  0.85021633  0.20664890  1.0
  Cd  Cd303  1  0.96623400  0.18354967  0.20664890  1.0
  Cd  Cd304  1  0.96623400  0.51688300  0.20664890  1.0
  Cd  Cd305  1  0.96623400  0.85021633  0.20664890  1.0
  Cd  Cd306  1  0.16666667  0.31645033  0.28638930  1.0
  Cd  Cd307  1  0.16666667  0.64978367  0.28638930  1.0
  Cd  Cd308  1  0.16666667  0.98311700  0.28638930  1.0
  Cd  Cd309  1  0.50000000  0.31645033  0.28638930  1.0
  Cd  Cd310  1  0.50000000  0.64978367  0.28638930  1.0
  Cd  Cd311  1  0.50000000  0.98311700  0.28638930  1.0
  Cd  Cd312  1  0.83333333  0.31645033  0.28638930  1.0
  Cd  Cd313  1  0.83333333  0.64978367  0.28638930  1.0
  Cd  Cd314  1  0.83333333  0.98311700  0.28638930  1.0
  Cd  Cd315  1  0.16666667  0.18354967  0.20664890  1.0
  Cd  Cd316  1  0.16666667  0.51688300  0.20664890  1.0
  Cd  Cd317  1  0.16666667  0.85021633  0.20664890  1.0
  Cd  Cd318  1  0.50000000  0.18354967  0.20664890  1.0
  Cd  Cd319  1  0.50000000  0.51688300  0.20664890  1.0
  Cd  Cd320  1  0.50000000  0.85021633  0.20664890  1.0
  Cd  Cd321  1  0.83333333  0.18354967  0.20664890  1.0
  Cd  Cd322  1  0.83333333  0.51688300  0.20664890  1.0
  Cd  Cd323  1  0.83333333  0.85021633  0.20664890  1.0
  Ni  Ni324  1  0.08333333  0.04166667  0.37151910  1.0
  Ni  Ni325  1  0.08333333  0.37500000  0.37151910  1.0
  Ni  Ni326  1  0.08333333  0.70833333  0.37151910  1.0
  Ni  Ni327  1  0.41666667  0.04166667  0.37151910  1.0
  Ni  Ni328  1  0.41666667  0.37500000  0.37151910  1.0
  Ni  Ni329  1  0.41666667  0.70833333  0.37151910  1.0
  Ni  Ni330  1  0.75000000  0.04166667  0.37151910  1.0
  Ni  Ni331  1  0.75000000  0.37500000  0.37151910  1.0
  Ni  Ni332  1  0.75000000  0.70833333  0.37151910  1.0
  Ni  Ni333  1  0.25000000  0.04166667  0.37151910  1.0
  Ni  Ni334  1  0.25000000  0.37500000  0.37151910  1.0
  Ni  Ni335  1  0.25000000  0.70833333  0.37151910  1.0
  Ni  Ni336  1  0.58333333  0.04166667  0.37151910  1.0
  Ni  Ni337  1  0.58333333  0.37500000  0.37151910  1.0
  Ni  Ni338  1  0.58333333  0.70833333  0.37151910  1.0
  Ni  Ni339  1  0.91666667  0.04166667  0.37151910  1.0
  Ni  Ni340  1  0.91666667  0.37500000  0.37151910  1.0
  Ni  Ni341  1  0.91666667  0.70833333  0.37151910  1.0
  Ni  Ni342  1  0.08333333  0.20833333  0.37151910  1.0
  Ni  Ni343  1  0.08333333  0.54166667  0.37151910  1.0
  Ni  Ni344  1  0.08333333  0.87500000  0.37151910  1.0
  Ni  Ni345  1  0.41666667  0.20833333  0.37151910  1.0
  Ni  Ni346  1  0.41666667  0.54166667  0.37151910  1.0
  Ni  Ni347  1  0.41666667  0.87500000  0.37151910  1.0
  Ni  Ni348  1  0.75000000  0.20833333  0.37151910  1.0
  Ni  Ni349  1  0.75000000  0.54166667  0.37151910  1.0
  Ni  Ni350  1  0.75000000  0.87500000  0.37151910  1.0
  Ni  Ni351  1  0.25000000  0.04166667  0.27151910  1.0
  Ni  Ni352  1  0.25000000  0.37500000  0.27151910  1.0
  Ni  Ni353  1  0.25000000  0.70833333  0.27151910  1.0
  Ni  Ni354  1  0.58333333  0.04166667  0.27151910  1.0
  Ni  Ni355  1  0.58333333  0.37500000  0.27151910  1.0
  Ni  Ni356  1  0.58333333  0.70833333  0.27151910  1.0
  Ni  Ni357  1  0.91666667  0.04166667  0.27151910  1.0
  Ni  Ni358  1  0.91666667  0.37500000  0.27151910  1.0
  Ni  Ni359  1  0.91666667  0.70833333  0.27151910  1.0
  Ni  Ni360  1  0.28129778  0.30731556  0.21212977  1.0
  Ni  Ni361  1  0.28129778  0.64064889  0.21212977  1.0
  Ni  Ni362  1  0.28129778  0.97398222  0.21212977  1.0
  Ni  Ni363  1  0.61463111  0.30731556  0.21212977  1.0
  Ni  Ni364  1  0.61463111  0.64064889  0.21212977  1.0
  Ni  Ni365  1  0.61463111  0.97398222  0.21212977  1.0
  Ni  Ni366  1  0.94796444  0.30731556  0.21212977  1.0
  Ni  Ni367  1  0.94796444  0.64064889  0.21212977  1.0
  Ni  Ni368  1  0.94796444  0.97398222  0.21212977  1.0
  Ni  Ni369  1  0.05203555  0.30731556  0.21212977  1.0
  Ni  Ni370  1  0.05203555  0.64064889  0.21212977  1.0
  Ni  Ni371  1  0.05203555  0.97398222  0.21212977  1.0
  Ni  Ni372  1  0.38536889  0.30731556  0.21212977  1.0
  Ni  Ni373  1  0.38536889  0.64064889  0.21212977  1.0
  Ni  Ni374  1  0.38536889  0.97398222  0.21212977  1.0
  Ni  Ni375  1  0.71870222  0.30731556  0.21212977  1.0
  Ni  Ni376  1  0.71870222  0.64064889  0.21212977  1.0
  Ni  Ni377  1  0.71870222  0.97398222  0.21212977  1.0
  Ni  Ni378  1  0.28129778  0.07805333  0.21212977  1.0
  Ni  Ni379  1  0.28129778  0.41138667  0.21212977  1.0
  Ni  Ni380  1  0.28129778  0.74472000  0.21212977  1.0
  Ni  Ni381  1  0.61463111  0.07805333  0.21212977  1.0
  Ni  Ni382  1  0.61463111  0.41138667  0.21212977  1.0
  Ni  Ni383  1  0.61463111  0.74472000  0.21212977  1.0
  Ni  Ni384  1  0.94796444  0.07805333  0.21212977  1.0
  Ni  Ni385  1  0.94796444  0.41138667  0.21212977  1.0
  Ni  Ni386  1  0.94796444  0.74472000  0.21212977  1.0
  Ni  Ni387  1  0.05203555  0.30731556  0.34968710  1.0
  Ni  Ni388  1  0.05203555  0.64064889  0.34968710  1.0
  Ni  Ni389  1  0.05203555  0.97398222  0.34968710  1.0
  Ni  Ni390  1  0.38536889  0.30731556  0.34968710  1.0
  Ni  Ni391  1  0.38536889  0.64064889  0.34968710  1.0
  Ni  Ni392  1  0.38536889  0.97398222  0.34968710  1.0
  Ni  Ni393  1  0.71870222  0.30731556  0.34968710  1.0
  Ni  Ni394  1  0.71870222  0.64064889  0.34968710  1.0
  Ni  Ni395  1  0.71870222  0.97398222  0.34968710  1.0
  Ni  Ni396  1  0.21870222  0.10935111  0.33090843  1.0
  Ni  Ni397  1  0.21870222  0.44268444  0.33090843  1.0
  Ni  Ni398  1  0.21870222  0.77601778  0.33090843  1.0
  Ni  Ni399  1  0.55203556  0.10935111  0.33090843  1.0
  Ni  Ni400  1  0.55203556  0.44268444  0.33090843  1.0
  Ni  Ni401  1  0.55203556  0.77601778  0.33090843  1.0
  Ni  Ni402  1  0.88536889  0.10935111  0.33090843  1.0
  Ni  Ni403  1  0.88536889  0.44268444  0.33090843  1.0
  Ni  Ni404  1  0.88536889  0.77601778  0.33090843  1.0
  Ni  Ni405  1  0.11463111  0.10935111  0.33090843  1.0
  Ni  Ni406  1  0.11463111  0.44268444  0.33090843  1.0
  Ni  Ni407  1  0.11463111  0.77601778  0.33090843  1.0
  Ni  Ni408  1  0.44796445  0.10935111  0.33090843  1.0
  Ni  Ni409  1  0.44796445  0.44268444  0.33090843  1.0
  Ni  Ni410  1  0.44796445  0.77601778  0.33090843  1.0
  Ni  Ni411  1  0.78129778  0.10935111  0.33090843  1.0
  Ni  Ni412  1  0.78129778  0.44268444  0.33090843  1.0
  Ni  Ni413  1  0.78129778  0.77601778  0.33090843  1.0
  Ni  Ni414  1  0.21870222  0.00528000  0.33090843  1.0
  Ni  Ni415  1  0.21870222  0.33861333  0.33090843  1.0
  Ni  Ni416  1  0.21870222  0.67194667  0.33090843  1.0
  Ni  Ni417  1  0.55203556  0.00528000  0.33090843  1.0
  Ni  Ni418  1  0.55203556  0.33861333  0.33090843  1.0
  Ni  Ni419  1  0.55203556  0.67194667  0.33090843  1.0
  Ni  Ni420  1  0.88536889  0.00528000  0.33090843  1.0
  Ni  Ni421  1  0.88536889  0.33861333  0.33090843  1.0
  Ni  Ni422  1  0.88536889  0.67194667  0.33090843  1.0
  Ni  Ni423  1  0.11463111  0.10935111  0.39335110  1.0
  Ni  Ni424  1  0.11463111  0.44268444  0.39335110  1.0
  Ni  Ni425  1  0.11463111  0.77601778  0.39335110  1.0
  Ni  Ni426  1  0.44796445  0.10935111  0.39335110  1.0
  Ni  Ni427  1  0.44796445  0.44268444  0.39335110  1.0
  Ni  Ni428  1  0.44796445  0.77601778  0.39335110  1.0
  Ni  Ni429  1  0.78129778  0.10935111  0.39335110  1.0
  Ni  Ni430  1  0.78129778  0.44268444  0.39335110  1.0
  Ni  Ni431  1  0.78129778  0.77601778  0.39335110  1.0
