# generated using pymatgen
data_Co3Ni
_symmetry_space_group_name_H-M   'P 1'
_cell_length_a   12.08323800
_cell_length_b   39.57181129
_cell_length_c   44.87021640
_cell_angle_alpha   139.10660535
_cell_angle_beta   90.00000000
_cell_angle_gamma   90.00000000
_symmetry_Int_Tables_number   1
_chemical_formula_structural   Co3Ni
_chemical_formula_sum   'Co432 Ni144'
_cell_volume   14045.55906771
_cell_formula_units_Z   144
loop_
 _symmetry_equiv_pos_site_id
 _symmetry_equiv_pos_as_xyz
  1  'x, y, z'
loop_
 _atom_site_type_symbol
 _atom_site_label
 _atom_site_symmetry_multiplicity
 _atom_site_fract_x
 _atom_site_fract_y
 _atom_site_fract_z
 _atom_site_occupancy
  Co  Co0  1  0.08333333  0.13897575  0.10664073  1.0
  Co  Co1  1  0.08333333  0.47230908  0.10664073  1.0
  Co  Co2  1  0.08333333  0.80564242  0.10664073  1.0
  Co  Co3  1  0.41666667  0.13897575  0.10664073  1.0
  Co  Co4  1  0.41666667  0.47230908  0.10664073  1.0
  Co  Co5  1  0.41666667  0.80564242  0.10664073  1.0
  Co  Co6  1  0.75000000  0.13897575  0.10664073  1.0
  Co  Co7  1  0.75000000  0.47230908  0.10664073  1.0
  Co  Co8  1  0.75000000  0.80564242  0.10664073  1.0
  Co  Co9  1  0.08333333  0.30564242  0.05108517  1.0
  Co  Co10  1  0.08333333  0.63897575  0.05108517  1.0
  Co  Co11  1  0.08333333  0.97230908  0.05108517  1.0
  Co  Co12  1  0.41666667  0.30564242  0.05108517  1.0
  Co  Co13  1  0.41666667  0.63897575  0.05108517  1.0
  Co  Co14  1  0.41666667  0.97230908  0.05108517  1.0
  Co  Co15  1  0.75000000  0.30564242  0.05108517  1.0
  Co  Co16  1  0.75000000  0.63897575  0.05108517  1.0
  Co  Co17  1  0.75000000  0.97230908  0.05108517  1.0
  Co  Co18  1  0.25000000  0.11128483  0.00475992  1.0
  Co  Co19  1  0.25000000  0.44461817  0.00475992  1.0
  Co  Co20  1  0.25000000  0.77795150  0.00475992  1.0
  Co  Co21  1  0.58333333  0.11128483  0.00475992  1.0
  Co  Co22  1  0.58333333  0.44461817  0.00475992  1.0
  Co  Co23  1  0.58333333  0.77795150  0.00475992  1.0
  Co  Co24  1  0.91666667  0.11128483  0.00475992  1.0
  Co  Co25  1  0.91666667  0.44461817  0.00475992  1.0
  Co  Co26  1  0.91666667  0.77795150  0.00475992  1.0
  Co  Co27  1  0.25000000  0.27795150  0.06031548  1.0
  Co  Co28  1  0.25000000  0.61128483  0.06031548  1.0
  Co  Co29  1  0.25000000  0.94461817  0.06031548  1.0
  Co  Co30  1  0.58333333  0.27795150  0.06031548  1.0
  Co  Co31  1  0.58333333  0.61128483  0.06031548  1.0
  Co  Co32  1  0.58333333  0.94461817  0.06031548  1.0
  Co  Co33  1  0.91666667  0.27795150  0.06031548  1.0
  Co  Co34  1  0.91666667  0.61128483  0.06031548  1.0
  Co  Co35  1  0.91666667  0.94461817  0.06031548  1.0
  Co  Co36  1  0.25000000  0.02769092  0.08800639  1.0
  Co  Co37  1  0.25000000  0.36102425  0.08800639  1.0
  Co  Co38  1  0.25000000  0.69435758  0.08800639  1.0
  Co  Co39  1  0.58333333  0.02769092  0.08800639  1.0
  Co  Co40  1  0.58333333  0.36102425  0.08800639  1.0
  Co  Co41  1  0.58333333  0.69435758  0.08800639  1.0
  Co  Co42  1  0.91666667  0.02769092  0.08800639  1.0
  Co  Co43  1  0.91666667  0.36102425  0.08800639  1.0
  Co  Co44  1  0.91666667  0.69435758  0.08800639  1.0
  Co  Co45  1  0.25000000  0.19435758  0.03245084  1.0
  Co  Co46  1  0.25000000  0.52769092  0.03245084  1.0
  Co  Co47  1  0.25000000  0.86102425  0.03245084  1.0
  Co  Co48  1  0.58333333  0.19435758  0.03245084  1.0
  Co  Co49  1  0.58333333  0.52769092  0.03245084  1.0
  Co  Co50  1  0.58333333  0.86102425  0.03245084  1.0
  Co  Co51  1  0.91666667  0.19435758  0.03245084  1.0
  Co  Co52  1  0.91666667  0.52769092  0.03245084  1.0
  Co  Co53  1  0.91666667  0.86102425  0.03245084  1.0
  Co  Co54  1  0.25000000  0.02769092  0.03227712  1.0
  Co  Co55  1  0.25000000  0.36102425  0.03227712  1.0
  Co  Co56  1  0.25000000  0.69435758  0.03227712  1.0
  Co  Co57  1  0.58333333  0.02769092  0.03227712  1.0
  Co  Co58  1  0.58333333  0.36102425  0.03227712  1.0
  Co  Co59  1  0.58333333  0.69435758  0.03227712  1.0
  Co  Co60  1  0.91666667  0.02769092  0.03227712  1.0
  Co  Co61  1  0.91666667  0.36102425  0.03227712  1.0
  Co  Co62  1  0.91666667  0.69435758  0.03227712  1.0
  Co  Co63  1  0.25000000  0.19435758  0.08783267  1.0
  Co  Co64  1  0.25000000  0.52769092  0.08783267  1.0
  Co  Co65  1  0.25000000  0.86102425  0.08783267  1.0
  Co  Co66  1  0.58333333  0.19435758  0.08783267  1.0
  Co  Co67  1  0.58333333  0.52769092  0.08783267  1.0
  Co  Co68  1  0.58333333  0.86102425  0.08783267  1.0
  Co  Co69  1  0.91666667  0.19435758  0.08783267  1.0
  Co  Co70  1  0.91666667  0.52769092  0.08783267  1.0
  Co  Co71  1  0.91666667  0.86102425  0.08783267  1.0
  Co  Co72  1  0.08333333  0.05538183  0.02304681  1.0
  Co  Co73  1  0.08333333  0.38871517  0.02304681  1.0
  Co  Co74  1  0.08333333  0.72204850  0.02304681  1.0
  Co  Co75  1  0.41666667  0.05538183  0.02304681  1.0
  Co  Co76  1  0.41666667  0.38871517  0.02304681  1.0
  Co  Co77  1  0.41666667  0.72204850  0.02304681  1.0
  Co  Co78  1  0.75000000  0.05538183  0.02304681  1.0
  Co  Co79  1  0.75000000  0.38871517  0.02304681  1.0
  Co  Co80  1  0.75000000  0.72204850  0.02304681  1.0
  Co  Co81  1  0.08333333  0.22204850  0.07860237  1.0
  Co  Co82  1  0.08333333  0.55538183  0.07860237  1.0
  Co  Co83  1  0.08333333  0.88871517  0.07860237  1.0
  Co  Co84  1  0.41666667  0.22204850  0.07860237  1.0
  Co  Co85  1  0.41666667  0.55538183  0.07860237  1.0
  Co  Co86  1  0.41666667  0.88871517  0.07860237  1.0
  Co  Co87  1  0.75000000  0.22204850  0.07860237  1.0
  Co  Co88  1  0.75000000  0.55538183  0.07860237  1.0
  Co  Co89  1  0.75000000  0.88871517  0.07860237  1.0
  Co  Co90  1  0.08333333  0.13897575  0.05091145  1.0
  Co  Co91  1  0.08333333  0.47230908  0.05091145  1.0
  Co  Co92  1  0.08333333  0.80564242  0.05091145  1.0
  Co  Co93  1  0.41666667  0.13897575  0.05091145  1.0
  Co  Co94  1  0.41666667  0.47230908  0.05091145  1.0
  Co  Co95  1  0.41666667  0.80564242  0.05091145  1.0
  Co  Co96  1  0.75000000  0.13897575  0.05091145  1.0
  Co  Co97  1  0.75000000  0.47230908  0.05091145  1.0
  Co  Co98  1  0.75000000  0.80564242  0.05091145  1.0
  Co  Co99  1  0.08333333  0.30564242  0.10646700  1.0
  Co  Co100  1  0.08333333  0.63897575  0.10646700  1.0
  Co  Co101  1  0.08333333  0.97230908  0.10646700  1.0
  Co  Co102  1  0.41666667  0.30564242  0.10646700  1.0
  Co  Co103  1  0.41666667  0.63897575  0.10646700  1.0
  Co  Co104  1  0.41666667  0.97230908  0.10646700  1.0
  Co  Co105  1  0.75000000  0.30564242  0.10646700  1.0
  Co  Co106  1  0.75000000  0.63897575  0.10646700  1.0
  Co  Co107  1  0.75000000  0.97230908  0.10646700  1.0
  Ni  Ni108  1  0.08333333  0.05555556  0.07871818  1.0
  Ni  Ni109  1  0.08333333  0.38888889  0.07871818  1.0
  Ni  Ni110  1  0.08333333  0.72222222  0.07871818  1.0
  Ni  Ni111  1  0.41666667  0.05555556  0.07871818  1.0
  Ni  Ni112  1  0.41666667  0.38888889  0.07871818  1.0
  Ni  Ni113  1  0.41666667  0.72222222  0.07871818  1.0
  Ni  Ni114  1  0.75000000  0.05555556  0.07871818  1.0
  Ni  Ni115  1  0.75000000  0.38888889  0.07871818  1.0
  Ni  Ni116  1  0.75000000  0.72222222  0.07871818  1.0
  Ni  Ni117  1  0.08333333  0.22222222  0.02316263  1.0
  Ni  Ni118  1  0.08333333  0.55555556  0.02316262  1.0
  Ni  Ni119  1  0.08333333  0.88888889  0.02316263  1.0
  Ni  Ni120  1  0.41666667  0.22222222  0.02316263  1.0
  Ni  Ni121  1  0.41666667  0.55555556  0.02316262  1.0
  Ni  Ni122  1  0.41666667  0.88888889  0.02316263  1.0
  Ni  Ni123  1  0.75000000  0.22222222  0.02316263  1.0
  Ni  Ni124  1  0.75000000  0.55555556  0.02316262  1.0
  Ni  Ni125  1  0.75000000  0.88888889  0.02316263  1.0
  Ni  Ni126  1  0.25000000  0.11111111  0.06019966  1.0
  Ni  Ni127  1  0.25000000  0.44444444  0.06019966  1.0
  Ni  Ni128  1  0.25000000  0.77777778  0.06019966  1.0
  Ni  Ni129  1  0.58333333  0.11111111  0.06019966  1.0
  Ni  Ni130  1  0.58333333  0.44444444  0.06019966  1.0
  Ni  Ni131  1  0.58333333  0.77777778  0.06019966  1.0
  Ni  Ni132  1  0.91666667  0.11111111  0.06019966  1.0
  Ni  Ni133  1  0.91666667  0.44444444  0.06019966  1.0
  Ni  Ni134  1  0.91666667  0.77777778  0.06019966  1.0
  Ni  Ni135  1  0.25000000  0.27777778  0.00464411  1.0
  Ni  Ni136  1  0.25000000  0.61111111  0.00464411  1.0
  Ni  Ni137  1  0.25000000  0.94444444  0.00464411  1.0
  Ni  Ni138  1  0.58333333  0.27777778  0.00464411  1.0
  Ni  Ni139  1  0.58333333  0.61111111  0.00464411  1.0
  Ni  Ni140  1  0.58333333  0.94444444  0.00464411  1.0
  Ni  Ni141  1  0.91666667  0.27777778  0.00464411  1.0
  Ni  Ni142  1  0.91666667  0.61111111  0.00464411  1.0
  Ni  Ni143  1  0.91666667  0.94444444  0.00464411  1.0
  Co  Co144  1  0.08333333  0.13897575  0.21775184  1.0
  Co  Co145  1  0.08333333  0.47230908  0.21775184  1.0
  Co  Co146  1  0.08333333  0.80564242  0.21775184  1.0
  Co  Co147  1  0.41666667  0.13897575  0.21775184  1.0
  Co  Co148  1  0.41666667  0.47230908  0.21775184  1.0
  Co  Co149  1  0.41666667  0.80564242  0.21775184  1.0
  Co  Co150  1  0.75000000  0.13897575  0.21775184  1.0
  Co  Co151  1  0.75000000  0.47230908  0.21775184  1.0
  Co  Co152  1  0.75000000  0.80564242  0.21775184  1.0
  Co  Co153  1  0.08333333  0.30564242  0.16219628  1.0
  Co  Co154  1  0.08333333  0.63897575  0.16219628  1.0
  Co  Co155  1  0.08333333  0.97230908  0.16219628  1.0
  Co  Co156  1  0.41666667  0.30564242  0.16219628  1.0
  Co  Co157  1  0.41666667  0.63897575  0.16219628  1.0
  Co  Co158  1  0.41666667  0.97230908  0.16219628  1.0
  Co  Co159  1  0.75000000  0.30564242  0.16219628  1.0
  Co  Co160  1  0.75000000  0.63897575  0.16219628  1.0
  Co  Co161  1  0.75000000  0.97230908  0.16219628  1.0
  Co  Co162  1  0.25000000  0.11128483  0.11587103  1.0
  Co  Co163  1  0.25000000  0.44461817  0.11587103  1.0
  Co  Co164  1  0.25000000  0.77795150  0.11587103  1.0
  Co  Co165  1  0.58333333  0.11128483  0.11587103  1.0
  Co  Co166  1  0.58333333  0.44461817  0.11587103  1.0
  Co  Co167  1  0.58333333  0.77795150  0.11587103  1.0
  Co  Co168  1  0.91666667  0.11128483  0.11587103  1.0
  Co  Co169  1  0.91666667  0.44461817  0.11587103  1.0
  Co  Co170  1  0.91666667  0.77795150  0.11587103  1.0
  Co  Co171  1  0.25000000  0.27795150  0.17142659  1.0
  Co  Co172  1  0.25000000  0.61128483  0.17142659  1.0
  Co  Co173  1  0.25000000  0.94461817  0.17142659  1.0
  Co  Co174  1  0.58333333  0.27795150  0.17142659  1.0
  Co  Co175  1  0.58333333  0.61128483  0.17142659  1.0
  Co  Co176  1  0.58333333  0.94461817  0.17142659  1.0
  Co  Co177  1  0.91666667  0.27795150  0.17142659  1.0
  Co  Co178  1  0.91666667  0.61128483  0.17142659  1.0
  Co  Co179  1  0.91666667  0.94461817  0.17142659  1.0
  Co  Co180  1  0.25000000  0.02769092  0.19911750  1.0
  Co  Co181  1  0.25000000  0.36102425  0.19911750  1.0
  Co  Co182  1  0.25000000  0.69435758  0.19911750  1.0
  Co  Co183  1  0.58333333  0.02769092  0.19911750  1.0
  Co  Co184  1  0.58333333  0.36102425  0.19911750  1.0
  Co  Co185  1  0.58333333  0.69435758  0.19911750  1.0
  Co  Co186  1  0.91666667  0.02769092  0.19911750  1.0
  Co  Co187  1  0.91666667  0.36102425  0.19911750  1.0
  Co  Co188  1  0.91666667  0.69435758  0.19911750  1.0
  Co  Co189  1  0.25000000  0.19435758  0.14356195  1.0
  Co  Co190  1  0.25000000  0.52769092  0.14356195  1.0
  Co  Co191  1  0.25000000  0.86102425  0.14356195  1.0
  Co  Co192  1  0.58333333  0.19435758  0.14356195  1.0
  Co  Co193  1  0.58333333  0.52769092  0.14356195  1.0
  Co  Co194  1  0.58333333  0.86102425  0.14356195  1.0
  Co  Co195  1  0.91666667  0.19435758  0.14356195  1.0
  Co  Co196  1  0.91666667  0.52769092  0.14356195  1.0
  Co  Co197  1  0.91666667  0.86102425  0.14356195  1.0
  Co  Co198  1  0.25000000  0.02769092  0.14338823  1.0
  Co  Co199  1  0.25000000  0.36102425  0.14338823  1.0
  Co  Co200  1  0.25000000  0.69435758  0.14338823  1.0
  Co  Co201  1  0.58333333  0.02769092  0.14338823  1.0
  Co  Co202  1  0.58333333  0.36102425  0.14338823  1.0
  Co  Co203  1  0.58333333  0.69435758  0.14338823  1.0
  Co  Co204  1  0.91666667  0.02769092  0.14338823  1.0
  Co  Co205  1  0.91666667  0.36102425  0.14338823  1.0
  Co  Co206  1  0.91666667  0.69435758  0.14338823  1.0
  Co  Co207  1  0.25000000  0.19435758  0.19894378  1.0
  Co  Co208  1  0.25000000  0.52769092  0.19894378  1.0
  Co  Co209  1  0.25000000  0.86102425  0.19894378  1.0
  Co  Co210  1  0.58333333  0.19435758  0.19894378  1.0
  Co  Co211  1  0.58333333  0.52769092  0.19894378  1.0
  Co  Co212  1  0.58333333  0.86102425  0.19894378  1.0
  Co  Co213  1  0.91666667  0.19435758  0.19894378  1.0
  Co  Co214  1  0.91666667  0.52769092  0.19894378  1.0
  Co  Co215  1  0.91666667  0.86102425  0.19894378  1.0
  Co  Co216  1  0.08333333  0.05538183  0.13415792  1.0
  Co  Co217  1  0.08333333  0.38871517  0.13415792  1.0
  Co  Co218  1  0.08333333  0.72204850  0.13415792  1.0
  Co  Co219  1  0.41666667  0.05538183  0.13415792  1.0
  Co  Co220  1  0.41666667  0.38871517  0.13415792  1.0
  Co  Co221  1  0.41666667  0.72204850  0.13415792  1.0
  Co  Co222  1  0.75000000  0.05538183  0.13415792  1.0
  Co  Co223  1  0.75000000  0.38871517  0.13415792  1.0
  Co  Co224  1  0.75000000  0.72204850  0.13415792  1.0
  Co  Co225  1  0.08333333  0.22204850  0.18971348  1.0
  Co  Co226  1  0.08333333  0.55538183  0.18971348  1.0
  Co  Co227  1  0.08333333  0.88871517  0.18971348  1.0
  Co  Co228  1  0.41666667  0.22204850  0.18971348  1.0
  Co  Co229  1  0.41666667  0.55538183  0.18971348  1.0
  Co  Co230  1  0.41666667  0.88871517  0.18971348  1.0
  Co  Co231  1  0.75000000  0.22204850  0.18971348  1.0
  Co  Co232  1  0.75000000  0.55538183  0.18971348  1.0
  Co  Co233  1  0.75000000  0.88871517  0.18971348  1.0
  Co  Co234  1  0.08333333  0.13897575  0.16202256  1.0
  Co  Co235  1  0.08333333  0.47230908  0.16202256  1.0
  Co  Co236  1  0.08333333  0.80564242  0.16202256  1.0
  Co  Co237  1  0.41666667  0.13897575  0.16202256  1.0
  Co  Co238  1  0.41666667  0.47230908  0.16202256  1.0
  Co  Co239  1  0.41666667  0.80564242  0.16202256  1.0
  Co  Co240  1  0.75000000  0.13897575  0.16202256  1.0
  Co  Co241  1  0.75000000  0.47230908  0.16202256  1.0
  Co  Co242  1  0.75000000  0.80564242  0.16202256  1.0
  Co  Co243  1  0.08333333  0.30564242  0.21757812  1.0
  Co  Co244  1  0.08333333  0.63897575  0.21757812  1.0
  Co  Co245  1  0.08333333  0.97230908  0.21757812  1.0
  Co  Co246  1  0.41666667  0.30564242  0.21757812  1.0
  Co  Co247  1  0.41666667  0.63897575  0.21757812  1.0
  Co  Co248  1  0.41666667  0.97230908  0.21757812  1.0
  Co  Co249  1  0.75000000  0.30564242  0.21757812  1.0
  Co  Co250  1  0.75000000  0.63897575  0.21757812  1.0
  Co  Co251  1  0.75000000  0.97230908  0.21757812  1.0
  Ni  Ni252  1  0.08333333  0.05555556  0.18982929  1.0
  Ni  Ni253  1  0.08333333  0.38888889  0.18982929  1.0
  Ni  Ni254  1  0.08333333  0.72222222  0.18982929  1.0
  Ni  Ni255  1  0.41666667  0.05555556  0.18982929  1.0
  Ni  Ni256  1  0.41666667  0.38888889  0.18982929  1.0
  Ni  Ni257  1  0.41666667  0.72222222  0.18982929  1.0
  Ni  Ni258  1  0.75000000  0.05555556  0.18982929  1.0
  Ni  Ni259  1  0.75000000  0.38888889  0.18982929  1.0
  Ni  Ni260  1  0.75000000  0.72222222  0.18982929  1.0
  Ni  Ni261  1  0.08333333  0.22222222  0.13427374  1.0
  Ni  Ni262  1  0.08333333  0.55555556  0.13427374  1.0
  Ni  Ni263  1  0.08333333  0.88888889  0.13427374  1.0
  Ni  Ni264  1  0.41666667  0.22222222  0.13427374  1.0
  Ni  Ni265  1  0.41666667  0.55555556  0.13427374  1.0
  Ni  Ni266  1  0.41666667  0.88888889  0.13427374  1.0
  Ni  Ni267  1  0.75000000  0.22222222  0.13427374  1.0
  Ni  Ni268  1  0.75000000  0.55555556  0.13427374  1.0
  Ni  Ni269  1  0.75000000  0.88888889  0.13427374  1.0
  Ni  Ni270  1  0.25000000  0.11111111  0.17131077  1.0
  Ni  Ni271  1  0.25000000  0.44444444  0.17131077  1.0
  Ni  Ni272  1  0.25000000  0.77777778  0.17131077  1.0
  Ni  Ni273  1  0.58333333  0.11111111  0.17131077  1.0
  Ni  Ni274  1  0.58333333  0.44444444  0.17131077  1.0
  Ni  Ni275  1  0.58333333  0.77777778  0.17131077  1.0
  Ni  Ni276  1  0.91666667  0.11111111  0.17131077  1.0
  Ni  Ni277  1  0.91666667  0.44444444  0.17131077  1.0
  Ni  Ni278  1  0.91666667  0.77777778  0.17131077  1.0
  Ni  Ni279  1  0.25000000  0.27777778  0.11575522  1.0
  Ni  Ni280  1  0.25000000  0.61111111  0.11575522  1.0
  Ni  Ni281  1  0.25000000  0.94444444  0.11575522  1.0
  Ni  Ni282  1  0.58333333  0.27777778  0.11575522  1.0
  Ni  Ni283  1  0.58333333  0.61111111  0.11575522  1.0
  Ni  Ni284  1  0.58333333  0.94444444  0.11575522  1.0
  Ni  Ni285  1  0.91666667  0.27777778  0.11575522  1.0
  Ni  Ni286  1  0.91666667  0.61111111  0.11575522  1.0
  Ni  Ni287  1  0.91666667  0.94444444  0.11575522  1.0
  Co  Co288  1  0.08333333  0.13897575  0.32886295  1.0
  Co  Co289  1  0.08333333  0.47230908  0.32886295  1.0
  Co  Co290  1  0.08333333  0.80564242  0.32886295  1.0
  Co  Co291  1  0.41666667  0.13897575  0.32886295  1.0
  Co  Co292  1  0.41666667  0.47230908  0.32886295  1.0
  Co  Co293  1  0.41666667  0.80564242  0.32886295  1.0
  Co  Co294  1  0.75000000  0.13897575  0.32886295  1.0
  Co  Co295  1  0.75000000  0.47230908  0.32886295  1.0
  Co  Co296  1  0.75000000  0.80564242  0.32886295  1.0
  Co  Co297  1  0.08333333  0.30564242  0.27330739  1.0
  Co  Co298  1  0.08333333  0.63897575  0.27330739  1.0
  Co  Co299  1  0.08333333  0.97230908  0.27330739  1.0
  Co  Co300  1  0.41666667  0.30564242  0.27330739  1.0
  Co  Co301  1  0.41666667  0.63897575  0.27330739  1.0
  Co  Co302  1  0.41666667  0.97230908  0.27330739  1.0
  Co  Co303  1  0.75000000  0.30564242  0.27330739  1.0
  Co  Co304  1  0.75000000  0.63897575  0.27330739  1.0
  Co  Co305  1  0.75000000  0.97230908  0.27330739  1.0
  Co  Co306  1  0.25000000  0.11128483  0.22698214  1.0
  Co  Co307  1  0.25000000  0.44461817  0.22698214  1.0
  Co  Co308  1  0.25000000  0.77795150  0.22698214  1.0
  Co  Co309  1  0.58333333  0.11128483  0.22698214  1.0
  Co  Co310  1  0.58333333  0.44461817  0.22698214  1.0
  Co  Co311  1  0.58333333  0.77795150  0.22698214  1.0
  Co  Co312  1  0.91666667  0.11128483  0.22698214  1.0
  Co  Co313  1  0.91666667  0.44461817  0.22698214  1.0
  Co  Co314  1  0.91666667  0.77795150  0.22698214  1.0
  Co  Co315  1  0.25000000  0.27795150  0.28253770  1.0
  Co  Co316  1  0.25000000  0.61128483  0.28253770  1.0
  Co  Co317  1  0.25000000  0.94461817  0.28253770  1.0
  Co  Co318  1  0.58333333  0.27795150  0.28253770  1.0
  Co  Co319  1  0.58333333  0.61128483  0.28253770  1.0
  Co  Co320  1  0.58333333  0.94461817  0.28253770  1.0
  Co  Co321  1  0.91666667  0.27795150  0.28253770  1.0
  Co  Co322  1  0.91666667  0.61128483  0.28253770  1.0
  Co  Co323  1  0.91666667  0.94461817  0.28253770  1.0
  Co  Co324  1  0.25000000  0.02769092  0.31022862  1.0
  Co  Co325  1  0.25000000  0.36102425  0.31022862  1.0
  Co  Co326  1  0.25000000  0.69435758  0.31022862  1.0
  Co  Co327  1  0.58333333  0.02769092  0.31022862  1.0
  Co  Co328  1  0.58333333  0.36102425  0.31022862  1.0
  Co  Co329  1  0.58333333  0.69435758  0.31022862  1.0
  Co  Co330  1  0.91666667  0.02769092  0.31022862  1.0
  Co  Co331  1  0.91666667  0.36102425  0.31022862  1.0
  Co  Co332  1  0.91666667  0.69435758  0.31022862  1.0
  Co  Co333  1  0.25000000  0.19435758  0.25467306  1.0
  Co  Co334  1  0.25000000  0.52769092  0.25467306  1.0
  Co  Co335  1  0.25000000  0.86102425  0.25467306  1.0
  Co  Co336  1  0.58333333  0.19435758  0.25467306  1.0
  Co  Co337  1  0.58333333  0.52769092  0.25467306  1.0
  Co  Co338  1  0.58333333  0.86102425  0.25467306  1.0
  Co  Co339  1  0.91666667  0.19435758  0.25467306  1.0
  Co  Co340  1  0.91666667  0.52769092  0.25467306  1.0
  Co  Co341  1  0.91666667  0.86102425  0.25467306  1.0
  Co  Co342  1  0.25000000  0.02769092  0.25449934  1.0
  Co  Co343  1  0.25000000  0.36102425  0.25449934  1.0
  Co  Co344  1  0.25000000  0.69435758  0.25449934  1.0
  Co  Co345  1  0.58333333  0.02769092  0.25449934  1.0
  Co  Co346  1  0.58333333  0.36102425  0.25449934  1.0
  Co  Co347  1  0.58333333  0.69435758  0.25449934  1.0
  Co  Co348  1  0.91666667  0.02769092  0.25449934  1.0
  Co  Co349  1  0.91666667  0.36102425  0.25449934  1.0
  Co  Co350  1  0.91666667  0.69435758  0.25449934  1.0
  Co  Co351  1  0.25000000  0.19435758  0.31005489  1.0
  Co  Co352  1  0.25000000  0.52769092  0.31005489  1.0
  Co  Co353  1  0.25000000  0.86102425  0.31005489  1.0
  Co  Co354  1  0.58333333  0.19435758  0.31005489  1.0
  Co  Co355  1  0.58333333  0.52769092  0.31005489  1.0
  Co  Co356  1  0.58333333  0.86102425  0.31005489  1.0
  Co  Co357  1  0.91666667  0.19435758  0.31005489  1.0
  Co  Co358  1  0.91666667  0.52769092  0.31005489  1.0
  Co  Co359  1  0.91666667  0.86102425  0.31005489  1.0
  Co  Co360  1  0.08333333  0.05538183  0.24526903  1.0
  Co  Co361  1  0.08333333  0.38871517  0.24526903  1.0
  Co  Co362  1  0.08333333  0.72204850  0.24526903  1.0
  Co  Co363  1  0.41666667  0.05538183  0.24526903  1.0
  Co  Co364  1  0.41666667  0.38871517  0.24526903  1.0
  Co  Co365  1  0.41666667  0.72204850  0.24526903  1.0
  Co  Co366  1  0.75000000  0.05538183  0.24526903  1.0
  Co  Co367  1  0.75000000  0.38871517  0.24526903  1.0
  Co  Co368  1  0.75000000  0.72204850  0.24526903  1.0
  Co  Co369  1  0.08333333  0.22204850  0.30082459  1.0
  Co  Co370  1  0.08333333  0.55538183  0.30082459  1.0
  Co  Co371  1  0.08333333  0.88871517  0.30082459  1.0
  Co  Co372  1  0.41666667  0.22204850  0.30082459  1.0
  Co  Co373  1  0.41666667  0.55538183  0.30082459  1.0
  Co  Co374  1  0.41666667  0.88871517  0.30082459  1.0
  Co  Co375  1  0.75000000  0.22204850  0.30082459  1.0
  Co  Co376  1  0.75000000  0.55538183  0.30082459  1.0
  Co  Co377  1  0.75000000  0.88871517  0.30082459  1.0
  Co  Co378  1  0.08333333  0.13897575  0.27313367  1.0
  Co  Co379  1  0.08333333  0.47230908  0.27313367  1.0
  Co  Co380  1  0.08333333  0.80564242  0.27313367  1.0
  Co  Co381  1  0.41666667  0.13897575  0.27313367  1.0
  Co  Co382  1  0.41666667  0.47230908  0.27313367  1.0
  Co  Co383  1  0.41666667  0.80564242  0.27313367  1.0
  Co  Co384  1  0.75000000  0.13897575  0.27313367  1.0
  Co  Co385  1  0.75000000  0.47230908  0.27313367  1.0
  Co  Co386  1  0.75000000  0.80564242  0.27313367  1.0
  Co  Co387  1  0.08333333  0.30564242  0.32868923  1.0
  Co  Co388  1  0.08333333  0.63897575  0.32868923  1.0
  Co  Co389  1  0.08333333  0.97230908  0.32868923  1.0
  Co  Co390  1  0.41666667  0.30564242  0.32868923  1.0
  Co  Co391  1  0.41666667  0.63897575  0.32868923  1.0
  Co  Co392  1  0.41666667  0.97230908  0.32868923  1.0
  Co  Co393  1  0.75000000  0.30564242  0.32868923  1.0
  Co  Co394  1  0.75000000  0.63897575  0.32868923  1.0
  Co  Co395  1  0.75000000  0.97230908  0.32868923  1.0
  Ni  Ni396  1  0.08333333  0.05555556  0.30094040  1.0
  Ni  Ni397  1  0.08333333  0.38888889  0.30094040  1.0
  Ni  Ni398  1  0.08333333  0.72222222  0.30094040  1.0
  Ni  Ni399  1  0.41666667  0.05555556  0.30094040  1.0
  Ni  Ni400  1  0.41666667  0.38888889  0.30094040  1.0
  Ni  Ni401  1  0.41666667  0.72222222  0.30094040  1.0
  Ni  Ni402  1  0.75000000  0.05555556  0.30094040  1.0
  Ni  Ni403  1  0.75000000  0.38888889  0.30094040  1.0
  Ni  Ni404  1  0.75000000  0.72222222  0.30094040  1.0
  Ni  Ni405  1  0.08333333  0.22222222  0.24538485  1.0
  Ni  Ni406  1  0.08333333  0.55555556  0.24538485  1.0
  Ni  Ni407  1  0.08333333  0.88888889  0.24538485  1.0
  Ni  Ni408  1  0.41666667  0.22222222  0.24538485  1.0
  Ni  Ni409  1  0.41666667  0.55555556  0.24538485  1.0
  Ni  Ni410  1  0.41666667  0.88888889  0.24538485  1.0
  Ni  Ni411  1  0.75000000  0.22222222  0.24538485  1.0
  Ni  Ni412  1  0.75000000  0.55555556  0.24538485  1.0
  Ni  Ni413  1  0.75000000  0.88888889  0.24538485  1.0
  Ni  Ni414  1  0.25000000  0.11111111  0.28242188  1.0
  Ni  Ni415  1  0.25000000  0.44444444  0.28242188  1.0
  Ni  Ni416  1  0.25000000  0.77777778  0.28242188  1.0
  Ni  Ni417  1  0.58333333  0.11111111  0.28242188  1.0
  Ni  Ni418  1  0.58333333  0.44444444  0.28242188  1.0
  Ni  Ni419  1  0.58333333  0.77777778  0.28242188  1.0
  Ni  Ni420  1  0.91666667  0.11111111  0.28242188  1.0
  Ni  Ni421  1  0.91666667  0.44444444  0.28242188  1.0
  Ni  Ni422  1  0.91666667  0.77777778  0.28242188  1.0
  Ni  Ni423  1  0.25000000  0.27777778  0.22686633  1.0
  Ni  Ni424  1  0.25000000  0.61111111  0.22686633  1.0
  Ni  Ni425  1  0.25000000  0.94444444  0.22686633  1.0
  Ni  Ni426  1  0.58333333  0.27777778  0.22686633  1.0
  Ni  Ni427  1  0.58333333  0.61111111  0.22686633  1.0
  Ni  Ni428  1  0.58333333  0.94444444  0.22686633  1.0
  Ni  Ni429  1  0.91666667  0.27777778  0.22686633  1.0
  Ni  Ni430  1  0.91666667  0.61111111  0.22686633  1.0
  Ni  Ni431  1  0.91666667  0.94444444  0.22686633  1.0
  Co  Co432  1  0.08333333  0.13897575  0.43997406  1.0
  Co  Co433  1  0.08333333  0.47230908  0.43997406  1.0
  Co  Co434  1  0.08333333  0.80564242  0.43997406  1.0
  Co  Co435  1  0.41666667  0.13897575  0.43997406  1.0
  Co  Co436  1  0.41666667  0.47230908  0.43997406  1.0
  Co  Co437  1  0.41666667  0.80564242  0.43997406  1.0
  Co  Co438  1  0.75000000  0.13897575  0.43997406  1.0
  Co  Co439  1  0.75000000  0.47230908  0.43997406  1.0
  Co  Co440  1  0.75000000  0.80564242  0.43997406  1.0
  Co  Co441  1  0.08333333  0.30564242  0.38441850  1.0
  Co  Co442  1  0.08333333  0.63897575  0.38441850  1.0
  Co  Co443  1  0.08333333  0.97230908  0.38441850  1.0
  Co  Co444  1  0.41666667  0.30564242  0.38441850  1.0
  Co  Co445  1  0.41666667  0.63897575  0.38441850  1.0
  Co  Co446  1  0.41666667  0.97230908  0.38441850  1.0
  Co  Co447  1  0.75000000  0.30564242  0.38441850  1.0
  Co  Co448  1  0.75000000  0.63897575  0.38441850  1.0
  Co  Co449  1  0.75000000  0.97230908  0.38441850  1.0
  Co  Co450  1  0.25000000  0.11128483  0.33809325  1.0
  Co  Co451  1  0.25000000  0.44461817  0.33809325  1.0
  Co  Co452  1  0.25000000  0.77795150  0.33809325  1.0
  Co  Co453  1  0.58333333  0.11128483  0.33809325  1.0
  Co  Co454  1  0.58333333  0.44461817  0.33809325  1.0
  Co  Co455  1  0.58333333  0.77795150  0.33809325  1.0
  Co  Co456  1  0.91666667  0.11128483  0.33809325  1.0
  Co  Co457  1  0.91666667  0.44461817  0.33809325  1.0
  Co  Co458  1  0.91666667  0.77795150  0.33809325  1.0
  Co  Co459  1  0.25000000  0.27795150  0.39364881  1.0
  Co  Co460  1  0.25000000  0.61128483  0.39364881  1.0
  Co  Co461  1  0.25000000  0.94461817  0.39364881  1.0
  Co  Co462  1  0.58333333  0.27795150  0.39364881  1.0
  Co  Co463  1  0.58333333  0.61128483  0.39364881  1.0
  Co  Co464  1  0.58333333  0.94461817  0.39364881  1.0
  Co  Co465  1  0.91666667  0.27795150  0.39364881  1.0
  Co  Co466  1  0.91666667  0.61128483  0.39364881  1.0
  Co  Co467  1  0.91666667  0.94461817  0.39364881  1.0
  Co  Co468  1  0.25000000  0.02769092  0.42133973  1.0
  Co  Co469  1  0.25000000  0.36102425  0.42133973  1.0
  Co  Co470  1  0.25000000  0.69435758  0.42133973  1.0
  Co  Co471  1  0.58333333  0.02769092  0.42133973  1.0
  Co  Co472  1  0.58333333  0.36102425  0.42133973  1.0
  Co  Co473  1  0.58333333  0.69435758  0.42133973  1.0
  Co  Co474  1  0.91666667  0.02769092  0.42133973  1.0
  Co  Co475  1  0.91666667  0.36102425  0.42133973  1.0
  Co  Co476  1  0.91666667  0.69435758  0.42133973  1.0
  Co  Co477  1  0.25000000  0.19435758  0.36578417  1.0
  Co  Co478  1  0.25000000  0.52769092  0.36578417  1.0
  Co  Co479  1  0.25000000  0.86102425  0.36578417  1.0
  Co  Co480  1  0.58333333  0.19435758  0.36578417  1.0
  Co  Co481  1  0.58333333  0.52769092  0.36578417  1.0
  Co  Co482  1  0.58333333  0.86102425  0.36578417  1.0
  Co  Co483  1  0.91666667  0.19435758  0.36578417  1.0
  Co  Co484  1  0.91666667  0.52769092  0.36578417  1.0
  Co  Co485  1  0.91666667  0.86102425  0.36578417  1.0
  Co  Co486  1  0.25000000  0.02769092  0.36561045  1.0
  Co  Co487  1  0.25000000  0.36102425  0.36561045  1.0
  Co  Co488  1  0.25000000  0.69435758  0.36561045  1.0
  Co  Co489  1  0.58333333  0.02769092  0.36561045  1.0
  Co  Co490  1  0.58333333  0.36102425  0.36561045  1.0
  Co  Co491  1  0.58333333  0.69435758  0.36561045  1.0
  Co  Co492  1  0.91666667  0.02769092  0.36561045  1.0
  Co  Co493  1  0.91666667  0.36102425  0.36561045  1.0
  Co  Co494  1  0.91666667  0.69435758  0.36561045  1.0
  Co  Co495  1  0.25000000  0.19435758  0.42116600  1.0
  Co  Co496  1  0.25000000  0.52769092  0.42116600  1.0
  Co  Co497  1  0.25000000  0.86102425  0.42116600  1.0
  Co  Co498  1  0.58333333  0.19435758  0.42116600  1.0
  Co  Co499  1  0.58333333  0.52769092  0.42116600  1.0
  Co  Co500  1  0.58333333  0.86102425  0.42116600  1.0
  Co  Co501  1  0.91666667  0.19435758  0.42116600  1.0
  Co  Co502  1  0.91666667  0.52769092  0.42116600  1.0
  Co  Co503  1  0.91666667  0.86102425  0.42116600  1.0
  Co  Co504  1  0.08333333  0.05538183  0.35638014  1.0
  Co  Co505  1  0.08333333  0.38871517  0.35638014  1.0
  Co  Co506  1  0.08333333  0.72204850  0.35638014  1.0
  Co  Co507  1  0.41666667  0.05538183  0.35638014  1.0
  Co  Co508  1  0.41666667  0.38871517  0.35638014  1.0
  Co  Co509  1  0.41666667  0.72204850  0.35638014  1.0
  Co  Co510  1  0.75000000  0.05538183  0.35638014  1.0
  Co  Co511  1  0.75000000  0.38871517  0.35638014  1.0
  Co  Co512  1  0.75000000  0.72204850  0.35638014  1.0
  Co  Co513  1  0.08333333  0.22204850  0.41193570  1.0
  Co  Co514  1  0.08333333  0.55538183  0.41193570  1.0
  Co  Co515  1  0.08333333  0.88871517  0.41193570  1.0
  Co  Co516  1  0.41666667  0.22204850  0.41193570  1.0
  Co  Co517  1  0.41666667  0.55538183  0.41193570  1.0
  Co  Co518  1  0.41666667  0.88871517  0.41193570  1.0
  Co  Co519  1  0.75000000  0.22204850  0.41193570  1.0
  Co  Co520  1  0.75000000  0.55538183  0.41193570  1.0
  Co  Co521  1  0.75000000  0.88871517  0.41193570  1.0
  Co  Co522  1  0.08333333  0.13897575  0.38424478  1.0
  Co  Co523  1  0.08333333  0.47230908  0.38424478  1.0
  Co  Co524  1  0.08333333  0.80564242  0.38424478  1.0
  Co  Co525  1  0.41666667  0.13897575  0.38424478  1.0
  Co  Co526  1  0.41666667  0.47230908  0.38424478  1.0
  Co  Co527  1  0.41666667  0.80564242  0.38424478  1.0
  Co  Co528  1  0.75000000  0.13897575  0.38424478  1.0
  Co  Co529  1  0.75000000  0.47230908  0.38424478  1.0
  Co  Co530  1  0.75000000  0.80564242  0.38424478  1.0
  Co  Co531  1  0.08333333  0.30564242  0.43980034  1.0
  Co  Co532  1  0.08333333  0.63897575  0.43980034  1.0
  Co  Co533  1  0.08333333  0.97230908  0.43980034  1.0
  Co  Co534  1  0.41666667  0.30564242  0.43980034  1.0
  Co  Co535  1  0.41666667  0.63897575  0.43980034  1.0
  Co  Co536  1  0.41666667  0.97230908  0.43980034  1.0
  Co  Co537  1  0.75000000  0.30564242  0.43980034  1.0
  Co  Co538  1  0.75000000  0.63897575  0.43980034  1.0
  Co  Co539  1  0.75000000  0.97230908  0.43980034  1.0
  Ni  Ni540  1  0.08333333  0.05555556  0.41205151  1.0
  Ni  Ni541  1  0.08333333  0.38888889  0.41205151  1.0
  Ni  Ni542  1  0.08333333  0.72222222  0.41205151  1.0
  Ni  Ni543  1  0.41666667  0.05555556  0.41205151  1.0
  Ni  Ni544  1  0.41666667  0.38888889  0.41205151  1.0
  Ni  Ni545  1  0.41666667  0.72222222  0.41205151  1.0
  Ni  Ni546  1  0.75000000  0.05555556  0.41205151  1.0
  Ni  Ni547  1  0.75000000  0.38888889  0.41205151  1.0
  Ni  Ni548  1  0.75000000  0.72222222  0.41205151  1.0
  Ni  Ni549  1  0.08333333  0.22222222  0.35649596  1.0
  Ni  Ni550  1  0.08333333  0.55555556  0.35649596  1.0
  Ni  Ni551  1  0.08333333  0.88888889  0.35649596  1.0
  Ni  Ni552  1  0.41666667  0.22222222  0.35649596  1.0
  Ni  Ni553  1  0.41666667  0.55555556  0.35649596  1.0
  Ni  Ni554  1  0.41666667  0.88888889  0.35649596  1.0
  Ni  Ni555  1  0.75000000  0.22222222  0.35649596  1.0
  Ni  Ni556  1  0.75000000  0.55555556  0.35649596  1.0
  Ni  Ni557  1  0.75000000  0.88888889  0.35649596  1.0
  Ni  Ni558  1  0.25000000  0.11111111  0.39353300  1.0
  Ni  Ni559  1  0.25000000  0.44444444  0.39353300  1.0
  Ni  Ni560  1  0.25000000  0.77777778  0.39353300  1.0
  Ni  Ni561  1  0.58333333  0.11111111  0.39353300  1.0
  Ni  Ni562  1  0.58333333  0.44444444  0.39353300  1.0
  Ni  Ni563  1  0.58333333  0.77777778  0.39353300  1.0
  Ni  Ni564  1  0.91666667  0.11111111  0.39353300  1.0
  Ni  Ni565  1  0.91666667  0.44444444  0.39353300  1.0
  Ni  Ni566  1  0.91666667  0.77777778  0.39353300  1.0
  Ni  Ni567  1  0.25000000  0.27777778  0.33797744  1.0
  Ni  Ni568  1  0.25000000  0.61111111  0.33797744  1.0
  Ni  Ni569  1  0.25000000  0.94444444  0.33797744  1.0
  Ni  Ni570  1  0.58333333  0.27777778  0.33797744  1.0
  Ni  Ni571  1  0.58333333  0.61111111  0.33797744  1.0
  Ni  Ni572  1  0.58333333  0.94444444  0.33797744  1.0
  Ni  Ni573  1  0.91666667  0.27777778  0.33797744  1.0
  Ni  Ni574  1  0.91666667  0.61111111  0.33797744  1.0
  Ni  Ni575  1  0.91666667  0.94444444  0.33797744  1.0
