# generated using pymatgen
data_Co3Ni
_symmetry_space_group_name_H-M   'P 1'
_cell_length_a   14.90894060
_cell_length_b   23.57310490
_cell_length_c   42.16885200
_cell_angle_alpha   116.56505118
_cell_angle_beta   135.00000000
_cell_angle_gamma   71.56505118
_symmetry_Int_Tables_number   1
_chemical_formula_structural   Co3Ni
_chemical_formula_sum   'Co270 Ni90'
_cell_volume   9373.14524798
_cell_formula_units_Z   90
loop_
 _symmetry_equiv_pos_site_id
 _symmetry_equiv_pos_as_xyz
  1  'x, y, z'
loop_
 _atom_site_type_symbol
 _atom_site_label
 _atom_site_symmetry_multiplicity
 _atom_site_fract_x
 _atom_site_fract_y
 _atom_site_fract_z
 _atom_site_occupancy
  Co  Co0  1  0.16666667  0.00000000  0.07291667  1.0
  Co  Co1  1  0.16666667  0.33333333  0.07291667  1.0
  Co  Co2  1  0.16666667  0.66666667  0.07291667  1.0
  Co  Co3  1  0.50000000  0.00000000  0.07291667  1.0
  Co  Co4  1  0.50000000  0.33333333  0.07291667  1.0
  Co  Co5  1  0.50000000  0.66666667  0.07291667  1.0
  Co  Co6  1  0.83333333  0.00000000  0.07291667  1.0
  Co  Co7  1  0.83333333  0.33333333  0.07291667  1.0
  Co  Co8  1  0.83333333  0.66666667  0.07291667  1.0
  Co  Co9  1  0.16666667  0.16666667  0.03125000  1.0
  Co  Co10  1  0.16666667  0.50000000  0.03125000  1.0
  Co  Co11  1  0.16666667  0.83333333  0.03125000  1.0
  Co  Co12  1  0.50000000  0.16666667  0.03125000  1.0
  Co  Co13  1  0.50000000  0.50000000  0.03125000  1.0
  Co  Co14  1  0.50000000  0.83333333  0.03125000  1.0
  Co  Co15  1  0.83333333  0.16666667  0.03125000  1.0
  Co  Co16  1  0.83333333  0.50000000  0.03125000  1.0
  Co  Co17  1  0.83333333  0.83333333  0.03125000  1.0
  Co  Co18  1  0.00000000  0.08333333  0.05208333  1.0
  Co  Co19  1  0.00000000  0.41666667  0.05208333  1.0
  Co  Co20  1  0.00000000  0.75000000  0.05208333  1.0
  Co  Co21  1  0.33333333  0.08333333  0.05208333  1.0
  Co  Co22  1  0.33333333  0.41666667  0.05208333  1.0
  Co  Co23  1  0.33333333  0.75000000  0.05208333  1.0
  Co  Co24  1  0.66666667  0.08333333  0.05208333  1.0
  Co  Co25  1  0.66666667  0.41666667  0.05208333  1.0
  Co  Co26  1  0.66666667  0.75000000  0.05208333  1.0
  Co  Co27  1  0.00000000  0.25000000  0.01041667  1.0
  Co  Co28  1  0.00000000  0.58333333  0.01041667  1.0
  Co  Co29  1  0.00000000  0.91666667  0.01041667  1.0
  Co  Co30  1  0.33333333  0.25000000  0.01041667  1.0
  Co  Co31  1  0.33333333  0.58333333  0.01041667  1.0
  Co  Co32  1  0.33333333  0.91666667  0.01041667  1.0
  Co  Co33  1  0.66666667  0.25000000  0.01041667  1.0
  Co  Co34  1  0.66666667  0.58333333  0.01041667  1.0
  Co  Co35  1  0.66666667  0.91666667  0.01041667  1.0
  Co  Co36  1  0.16666667  0.08333333  0.05208333  1.0
  Co  Co37  1  0.16666667  0.41666667  0.05208333  1.0
  Co  Co38  1  0.16666667  0.75000000  0.05208333  1.0
  Co  Co39  1  0.50000000  0.08333333  0.05208333  1.0
  Co  Co40  1  0.50000000  0.41666667  0.05208333  1.0
  Co  Co41  1  0.50000000  0.75000000  0.05208333  1.0
  Co  Co42  1  0.83333333  0.08333333  0.05208333  1.0
  Co  Co43  1  0.83333333  0.41666667  0.05208333  1.0
  Co  Co44  1  0.83333333  0.75000000  0.05208333  1.0
  Co  Co45  1  0.16666667  0.25000000  0.01041667  1.0
  Co  Co46  1  0.16666667  0.58333333  0.01041667  1.0
  Co  Co47  1  0.16666667  0.91666667  0.01041667  1.0
  Co  Co48  1  0.50000000  0.25000000  0.01041667  1.0
  Co  Co49  1  0.50000000  0.58333333  0.01041667  1.0
  Co  Co50  1  0.50000000  0.91666667  0.01041667  1.0
  Co  Co51  1  0.83333333  0.25000000  0.01041667  1.0
  Co  Co52  1  0.83333333  0.58333333  0.01041667  1.0
  Co  Co53  1  0.83333333  0.91666667  0.01041667  1.0
  Ni  Ni54  1  0.00000000  0.00000000  0.07291667  1.0
  Ni  Ni55  1  0.00000000  0.33333333  0.07291667  1.0
  Ni  Ni56  1  0.00000000  0.66666667  0.07291667  1.0
  Ni  Ni57  1  0.33333333  0.00000000  0.07291667  1.0
  Ni  Ni58  1  0.33333333  0.33333333  0.07291667  1.0
  Ni  Ni59  1  0.33333333  0.66666667  0.07291667  1.0
  Ni  Ni60  1  0.66666667  0.00000000  0.07291667  1.0
  Ni  Ni61  1  0.66666667  0.33333333  0.07291667  1.0
  Ni  Ni62  1  0.66666667  0.66666667  0.07291667  1.0
  Ni  Ni63  1  0.00000000  0.16666667  0.03125000  1.0
  Ni  Ni64  1  0.00000000  0.50000000  0.03125000  1.0
  Ni  Ni65  1  0.00000000  0.83333333  0.03125000  1.0
  Ni  Ni66  1  0.33333333  0.16666667  0.03125000  1.0
  Ni  Ni67  1  0.33333333  0.50000000  0.03125000  1.0
  Ni  Ni68  1  0.33333333  0.83333333  0.03125000  1.0
  Ni  Ni69  1  0.66666667  0.16666667  0.03125000  1.0
  Ni  Ni70  1  0.66666667  0.50000000  0.03125000  1.0
  Ni  Ni71  1  0.66666667  0.83333333  0.03125000  1.0
  Co  Co72  1  0.16666667  0.00000000  0.15625000  1.0
  Co  Co73  1  0.16666667  0.33333333  0.15625000  1.0
  Co  Co74  1  0.16666667  0.66666667  0.15625000  1.0
  Co  Co75  1  0.50000000  0.00000000  0.15625000  1.0
  Co  Co76  1  0.50000000  0.33333333  0.15625000  1.0
  Co  Co77  1  0.50000000  0.66666667  0.15625000  1.0
  Co  Co78  1  0.83333333  0.00000000  0.15625000  1.0
  Co  Co79  1  0.83333333  0.33333333  0.15625000  1.0
  Co  Co80  1  0.83333333  0.66666667  0.15625000  1.0
  Co  Co81  1  0.16666667  0.16666667  0.11458333  1.0
  Co  Co82  1  0.16666667  0.50000000  0.11458333  1.0
  Co  Co83  1  0.16666667  0.83333333  0.11458333  1.0
  Co  Co84  1  0.50000000  0.16666667  0.11458333  1.0
  Co  Co85  1  0.50000000  0.50000000  0.11458333  1.0
  Co  Co86  1  0.50000000  0.83333333  0.11458333  1.0
  Co  Co87  1  0.83333333  0.16666667  0.11458333  1.0
  Co  Co88  1  0.83333333  0.50000000  0.11458333  1.0
  Co  Co89  1  0.83333333  0.83333333  0.11458333  1.0
  Co  Co90  1  0.00000000  0.08333333  0.13541667  1.0
  Co  Co91  1  0.00000000  0.41666667  0.13541667  1.0
  Co  Co92  1  0.00000000  0.75000000  0.13541667  1.0
  Co  Co93  1  0.33333333  0.08333333  0.13541667  1.0
  Co  Co94  1  0.33333333  0.41666667  0.13541667  1.0
  Co  Co95  1  0.33333333  0.75000000  0.13541667  1.0
  Co  Co96  1  0.66666667  0.08333333  0.13541667  1.0
  Co  Co97  1  0.66666667  0.41666667  0.13541667  1.0
  Co  Co98  1  0.66666667  0.75000000  0.13541667  1.0
  Co  Co99  1  0.00000000  0.25000000  0.09375000  1.0
  Co  Co100  1  0.00000000  0.58333333  0.09375000  1.0
  Co  Co101  1  0.00000000  0.91666667  0.09375000  1.0
  Co  Co102  1  0.33333333  0.25000000  0.09375000  1.0
  Co  Co103  1  0.33333333  0.58333333  0.09375000  1.0
  Co  Co104  1  0.33333333  0.91666667  0.09375000  1.0
  Co  Co105  1  0.66666667  0.25000000  0.09375000  1.0
  Co  Co106  1  0.66666667  0.58333333  0.09375000  1.0
  Co  Co107  1  0.66666667  0.91666667  0.09375000  1.0
  Co  Co108  1  0.16666667  0.08333333  0.13541667  1.0
  Co  Co109  1  0.16666667  0.41666667  0.13541667  1.0
  Co  Co110  1  0.16666667  0.75000000  0.13541667  1.0
  Co  Co111  1  0.50000000  0.08333333  0.13541667  1.0
  Co  Co112  1  0.50000000  0.41666667  0.13541667  1.0
  Co  Co113  1  0.50000000  0.75000000  0.13541667  1.0
  Co  Co114  1  0.83333333  0.08333333  0.13541667  1.0
  Co  Co115  1  0.83333333  0.41666667  0.13541667  1.0
  Co  Co116  1  0.83333333  0.75000000  0.13541667  1.0
  Co  Co117  1  0.16666667  0.25000000  0.09375000  1.0
  Co  Co118  1  0.16666667  0.58333333  0.09375000  1.0
  Co  Co119  1  0.16666667  0.91666667  0.09375000  1.0
  Co  Co120  1  0.50000000  0.25000000  0.09375000  1.0
  Co  Co121  1  0.50000000  0.58333333  0.09375000  1.0
  Co  Co122  1  0.50000000  0.91666667  0.09375000  1.0
  Co  Co123  1  0.83333333  0.25000000  0.09375000  1.0
  Co  Co124  1  0.83333333  0.58333333  0.09375000  1.0
  Co  Co125  1  0.83333333  0.91666667  0.09375000  1.0
  Ni  Ni126  1  0.00000000  0.00000000  0.15625000  1.0
  Ni  Ni127  1  0.00000000  0.33333333  0.15625000  1.0
  Ni  Ni128  1  0.00000000  0.66666667  0.15625000  1.0
  Ni  Ni129  1  0.33333333  0.00000000  0.15625000  1.0
  Ni  Ni130  1  0.33333333  0.33333333  0.15625000  1.0
  Ni  Ni131  1  0.33333333  0.66666667  0.15625000  1.0
  Ni  Ni132  1  0.66666667  0.00000000  0.15625000  1.0
  Ni  Ni133  1  0.66666667  0.33333333  0.15625000  1.0
  Ni  Ni134  1  0.66666667  0.66666667  0.15625000  1.0
  Ni  Ni135  1  0.00000000  0.16666667  0.11458333  1.0
  Ni  Ni136  1  0.00000000  0.50000000  0.11458333  1.0
  Ni  Ni137  1  0.00000000  0.83333333  0.11458333  1.0
  Ni  Ni138  1  0.33333333  0.16666667  0.11458333  1.0
  Ni  Ni139  1  0.33333333  0.50000000  0.11458333  1.0
  Ni  Ni140  1  0.33333333  0.83333333  0.11458333  1.0
  Ni  Ni141  1  0.66666667  0.16666667  0.11458333  1.0
  Ni  Ni142  1  0.66666667  0.50000000  0.11458333  1.0
  Ni  Ni143  1  0.66666667  0.83333333  0.11458333  1.0
  Co  Co144  1  0.16666667  0.00000000  0.23958333  1.0
  Co  Co145  1  0.16666667  0.33333333  0.23958333  1.0
  Co  Co146  1  0.16666667  0.66666667  0.23958333  1.0
  Co  Co147  1  0.50000000  0.00000000  0.23958333  1.0
  Co  Co148  1  0.50000000  0.33333333  0.23958333  1.0
  Co  Co149  1  0.50000000  0.66666667  0.23958333  1.0
  Co  Co150  1  0.83333333  0.00000000  0.23958333  1.0
  Co  Co151  1  0.83333333  0.33333333  0.23958333  1.0
  Co  Co152  1  0.83333333  0.66666667  0.23958333  1.0
  Co  Co153  1  0.16666667  0.16666667  0.19791667  1.0
  Co  Co154  1  0.16666667  0.50000000  0.19791667  1.0
  Co  Co155  1  0.16666667  0.83333333  0.19791667  1.0
  Co  Co156  1  0.50000000  0.16666667  0.19791667  1.0
  Co  Co157  1  0.50000000  0.50000000  0.19791667  1.0
  Co  Co158  1  0.50000000  0.83333333  0.19791667  1.0
  Co  Co159  1  0.83333333  0.16666667  0.19791667  1.0
  Co  Co160  1  0.83333333  0.50000000  0.19791667  1.0
  Co  Co161  1  0.83333333  0.83333333  0.19791667  1.0
  Co  Co162  1  0.00000000  0.08333333  0.21875000  1.0
  Co  Co163  1  0.00000000  0.41666667  0.21875000  1.0
  Co  Co164  1  0.00000000  0.75000000  0.21875000  1.0
  Co  Co165  1  0.33333333  0.08333333  0.21875000  1.0
  Co  Co166  1  0.33333333  0.41666667  0.21875000  1.0
  Co  Co167  1  0.33333333  0.75000000  0.21875000  1.0
  Co  Co168  1  0.66666667  0.08333333  0.21875000  1.0
  Co  Co169  1  0.66666667  0.41666667  0.21875000  1.0
  Co  Co170  1  0.66666667  0.75000000  0.21875000  1.0
  Co  Co171  1  0.00000000  0.25000000  0.17708333  1.0
  Co  Co172  1  0.00000000  0.58333333  0.17708333  1.0
  Co  Co173  1  0.00000000  0.91666667  0.17708333  1.0
  Co  Co174  1  0.33333333  0.25000000  0.17708333  1.0
  Co  Co175  1  0.33333333  0.58333333  0.17708333  1.0
  Co  Co176  1  0.33333333  0.91666667  0.17708333  1.0
  Co  Co177  1  0.66666667  0.25000000  0.17708333  1.0
  Co  Co178  1  0.66666667  0.58333333  0.17708333  1.0
  Co  Co179  1  0.66666667  0.91666667  0.17708333  1.0
  Co  Co180  1  0.16666667  0.08333333  0.21875000  1.0
  Co  Co181  1  0.16666667  0.41666667  0.21875000  1.0
  Co  Co182  1  0.16666667  0.75000000  0.21875000  1.0
  Co  Co183  1  0.50000000  0.08333333  0.21875000  1.0
  Co  Co184  1  0.50000000  0.41666667  0.21875000  1.0
  Co  Co185  1  0.50000000  0.75000000  0.21875000  1.0
  Co  Co186  1  0.83333333  0.08333333  0.21875000  1.0
  Co  Co187  1  0.83333333  0.41666667  0.21875000  1.0
  Co  Co188  1  0.83333333  0.75000000  0.21875000  1.0
  Co  Co189  1  0.16666667  0.25000000  0.17708333  1.0
  Co  Co190  1  0.16666667  0.58333333  0.17708333  1.0
  Co  Co191  1  0.16666667  0.91666667  0.17708333  1.0
  Co  Co192  1  0.50000000  0.25000000  0.17708333  1.0
  Co  Co193  1  0.50000000  0.58333333  0.17708333  1.0
  Co  Co194  1  0.50000000  0.91666667  0.17708333  1.0
  Co  Co195  1  0.83333333  0.25000000  0.17708333  1.0
  Co  Co196  1  0.83333333  0.58333333  0.17708333  1.0
  Co  Co197  1  0.83333333  0.91666667  0.17708333  1.0
  Ni  Ni198  1  0.00000000  0.00000000  0.23958333  1.0
  Ni  Ni199  1  0.00000000  0.33333333  0.23958333  1.0
  Ni  Ni200  1  0.00000000  0.66666667  0.23958333  1.0
  Ni  Ni201  1  0.33333333  0.00000000  0.23958333  1.0
  Ni  Ni202  1  0.33333333  0.33333333  0.23958333  1.0
  Ni  Ni203  1  0.33333333  0.66666667  0.23958333  1.0
  Ni  Ni204  1  0.66666667  0.00000000  0.23958333  1.0
  Ni  Ni205  1  0.66666667  0.33333333  0.23958333  1.0
  Ni  Ni206  1  0.66666667  0.66666667  0.23958333  1.0
  Ni  Ni207  1  0.00000000  0.16666667  0.19791667  1.0
  Ni  Ni208  1  0.00000000  0.50000000  0.19791667  1.0
  Ni  Ni209  1  0.00000000  0.83333333  0.19791667  1.0
  Ni  Ni210  1  0.33333333  0.16666667  0.19791667  1.0
  Ni  Ni211  1  0.33333333  0.50000000  0.19791667  1.0
  Ni  Ni212  1  0.33333333  0.83333333  0.19791667  1.0
  Ni  Ni213  1  0.66666667  0.16666667  0.19791667  1.0
  Ni  Ni214  1  0.66666667  0.50000000  0.19791667  1.0
  Ni  Ni215  1  0.66666667  0.83333333  0.19791667  1.0
  Co  Co216  1  0.16666667  0.00000000  0.32291667  1.0
  Co  Co217  1  0.16666667  0.33333333  0.32291667  1.0
  Co  Co218  1  0.16666667  0.66666667  0.32291667  1.0
  Co  Co219  1  0.50000000  0.00000000  0.32291667  1.0
  Co  Co220  1  0.50000000  0.33333333  0.32291667  1.0
  Co  Co221  1  0.50000000  0.66666667  0.32291667  1.0
  Co  Co222  1  0.83333333  0.00000000  0.32291667  1.0
  Co  Co223  1  0.83333333  0.33333333  0.32291667  1.0
  Co  Co224  1  0.83333333  0.66666667  0.32291667  1.0
  Co  Co225  1  0.16666667  0.16666667  0.28125000  1.0
  Co  Co226  1  0.16666667  0.50000000  0.28125000  1.0
  Co  Co227  1  0.16666667  0.83333333  0.28125000  1.0
  Co  Co228  1  0.50000000  0.16666667  0.28125000  1.0
  Co  Co229  1  0.50000000  0.50000000  0.28125000  1.0
  Co  Co230  1  0.50000000  0.83333333  0.28125000  1.0
  Co  Co231  1  0.83333333  0.16666667  0.28125000  1.0
  Co  Co232  1  0.83333333  0.50000000  0.28125000  1.0
  Co  Co233  1  0.83333333  0.83333333  0.28125000  1.0
  Co  Co234  1  0.00000000  0.08333333  0.30208333  1.0
  Co  Co235  1  0.00000000  0.41666667  0.30208333  1.0
  Co  Co236  1  0.00000000  0.75000000  0.30208333  1.0
  Co  Co237  1  0.33333333  0.08333333  0.30208333  1.0
  Co  Co238  1  0.33333333  0.41666667  0.30208333  1.0
  Co  Co239  1  0.33333333  0.75000000  0.30208333  1.0
  Co  Co240  1  0.66666667  0.08333333  0.30208333  1.0
  Co  Co241  1  0.66666667  0.41666667  0.30208333  1.0
  Co  Co242  1  0.66666667  0.75000000  0.30208333  1.0
  Co  Co243  1  0.00000000  0.25000000  0.26041667  1.0
  Co  Co244  1  0.00000000  0.58333333  0.26041667  1.0
  Co  Co245  1  0.00000000  0.91666667  0.26041667  1.0
  Co  Co246  1  0.33333333  0.25000000  0.26041667  1.0
  Co  Co247  1  0.33333333  0.58333333  0.26041667  1.0
  Co  Co248  1  0.33333333  0.91666667  0.26041667  1.0
  Co  Co249  1  0.66666667  0.25000000  0.26041667  1.0
  Co  Co250  1  0.66666667  0.58333333  0.26041667  1.0
  Co  Co251  1  0.66666667  0.91666667  0.26041667  1.0
  Co  Co252  1  0.16666667  0.08333333  0.30208333  1.0
  Co  Co253  1  0.16666667  0.41666667  0.30208333  1.0
  Co  Co254  1  0.16666667  0.75000000  0.30208333  1.0
  Co  Co255  1  0.50000000  0.08333333  0.30208333  1.0
  Co  Co256  1  0.50000000  0.41666667  0.30208333  1.0
  Co  Co257  1  0.50000000  0.75000000  0.30208333  1.0
  Co  Co258  1  0.83333333  0.08333333  0.30208333  1.0
  Co  Co259  1  0.83333333  0.41666667  0.30208333  1.0
  Co  Co260  1  0.83333333  0.75000000  0.30208333  1.0
  Co  Co261  1  0.16666667  0.25000000  0.26041667  1.0
  Co  Co262  1  0.16666667  0.58333333  0.26041667  1.0
  Co  Co263  1  0.16666667  0.91666667  0.26041667  1.0
  Co  Co264  1  0.50000000  0.25000000  0.26041667  1.0
  Co  Co265  1  0.50000000  0.58333333  0.26041667  1.0
  Co  Co266  1  0.50000000  0.91666667  0.26041667  1.0
  Co  Co267  1  0.83333333  0.25000000  0.26041667  1.0
  Co  Co268  1  0.83333333  0.58333333  0.26041667  1.0
  Co  Co269  1  0.83333333  0.91666667  0.26041667  1.0
  Ni  Ni270  1  0.00000000  0.00000000  0.32291667  1.0
  Ni  Ni271  1  0.00000000  0.33333333  0.32291667  1.0
  Ni  Ni272  1  0.00000000  0.66666667  0.32291667  1.0
  Ni  Ni273  1  0.33333333  0.00000000  0.32291667  1.0
  Ni  Ni274  1  0.33333333  0.33333333  0.32291667  1.0
  Ni  Ni275  1  0.33333333  0.66666667  0.32291667  1.0
  Ni  Ni276  1  0.66666667  0.00000000  0.32291667  1.0
  Ni  Ni277  1  0.66666667  0.33333333  0.32291667  1.0
  Ni  Ni278  1  0.66666667  0.66666667  0.32291667  1.0
  Ni  Ni279  1  0.00000000  0.16666667  0.28125000  1.0
  Ni  Ni280  1  0.00000000  0.50000000  0.28125000  1.0
  Ni  Ni281  1  0.00000000  0.83333333  0.28125000  1.0
  Ni  Ni282  1  0.33333333  0.16666667  0.28125000  1.0
  Ni  Ni283  1  0.33333333  0.50000000  0.28125000  1.0
  Ni  Ni284  1  0.33333333  0.83333333  0.28125000  1.0
  Ni  Ni285  1  0.66666667  0.16666667  0.28125000  1.0
  Ni  Ni286  1  0.66666667  0.50000000  0.28125000  1.0
  Ni  Ni287  1  0.66666667  0.83333333  0.28125000  1.0
  Co  Co288  1  0.16666667  0.00000000  0.40625000  1.0
  Co  Co289  1  0.16666667  0.33333333  0.40625000  1.0
  Co  Co290  1  0.16666667  0.66666667  0.40625000  1.0
  Co  Co291  1  0.50000000  0.00000000  0.40625000  1.0
  Co  Co292  1  0.50000000  0.33333333  0.40625000  1.0
  Co  Co293  1  0.50000000  0.66666667  0.40625000  1.0
  Co  Co294  1  0.83333333  0.00000000  0.40625000  1.0
  Co  Co295  1  0.83333333  0.33333333  0.40625000  1.0
  Co  Co296  1  0.83333333  0.66666667  0.40625000  1.0
  Co  Co297  1  0.16666667  0.16666667  0.36458333  1.0
  Co  Co298  1  0.16666667  0.50000000  0.36458333  1.0
  Co  Co299  1  0.16666667  0.83333333  0.36458333  1.0
  Co  Co300  1  0.50000000  0.16666667  0.36458333  1.0
  Co  Co301  1  0.50000000  0.50000000  0.36458333  1.0
  Co  Co302  1  0.50000000  0.83333333  0.36458333  1.0
  Co  Co303  1  0.83333333  0.16666667  0.36458333  1.0
  Co  Co304  1  0.83333333  0.50000000  0.36458333  1.0
  Co  Co305  1  0.83333333  0.83333333  0.36458333  1.0
  Co  Co306  1  0.00000000  0.08333333  0.38541667  1.0
  Co  Co307  1  0.00000000  0.41666667  0.38541667  1.0
  Co  Co308  1  0.00000000  0.75000000  0.38541667  1.0
  Co  Co309  1  0.33333333  0.08333333  0.38541667  1.0
  Co  Co310  1  0.33333333  0.41666667  0.38541667  1.0
  Co  Co311  1  0.33333333  0.75000000  0.38541667  1.0
  Co  Co312  1  0.66666667  0.08333333  0.38541667  1.0
  Co  Co313  1  0.66666667  0.41666667  0.38541667  1.0
  Co  Co314  1  0.66666667  0.75000000  0.38541667  1.0
  Co  Co315  1  0.00000000  0.25000000  0.34375000  1.0
  Co  Co316  1  0.00000000  0.58333333  0.34375000  1.0
  Co  Co317  1  0.00000000  0.91666667  0.34375000  1.0
  Co  Co318  1  0.33333333  0.25000000  0.34375000  1.0
  Co  Co319  1  0.33333333  0.58333333  0.34375000  1.0
  Co  Co320  1  0.33333333  0.91666667  0.34375000  1.0
  Co  Co321  1  0.66666667  0.25000000  0.34375000  1.0
  Co  Co322  1  0.66666667  0.58333333  0.34375000  1.0
  Co  Co323  1  0.66666667  0.91666667  0.34375000  1.0
  Co  Co324  1  0.16666667  0.08333333  0.38541667  1.0
  Co  Co325  1  0.16666667  0.41666667  0.38541667  1.0
  Co  Co326  1  0.16666667  0.75000000  0.38541667  1.0
  Co  Co327  1  0.50000000  0.08333333  0.38541667  1.0
  Co  Co328  1  0.50000000  0.41666667  0.38541667  1.0
  Co  Co329  1  0.50000000  0.75000000  0.38541667  1.0
  Co  Co330  1  0.83333333  0.08333333  0.38541667  1.0
  Co  Co331  1  0.83333333  0.41666667  0.38541667  1.0
  Co  Co332  1  0.83333333  0.75000000  0.38541667  1.0
  Co  Co333  1  0.16666667  0.25000000  0.34375000  1.0
  Co  Co334  1  0.16666667  0.58333333  0.34375000  1.0
  Co  Co335  1  0.16666667  0.91666667  0.34375000  1.0
  Co  Co336  1  0.50000000  0.25000000  0.34375000  1.0
  Co  Co337  1  0.50000000  0.58333333  0.34375000  1.0
  Co  Co338  1  0.50000000  0.91666667  0.34375000  1.0
  Co  Co339  1  0.83333333  0.25000000  0.34375000  1.0
  Co  Co340  1  0.83333333  0.58333333  0.34375000  1.0
  Co  Co341  1  0.83333333  0.91666667  0.34375000  1.0
  Ni  Ni342  1  0.00000000  0.00000000  0.40625000  1.0
  Ni  Ni343  1  0.00000000  0.33333333  0.40625000  1.0
  Ni  Ni344  1  0.00000000  0.66666667  0.40625000  1.0
  Ni  Ni345  1  0.33333333  0.00000000  0.40625000  1.0
  Ni  Ni346  1  0.33333333  0.33333333  0.40625000  1.0
  Ni  Ni347  1  0.33333333  0.66666667  0.40625000  1.0
  Ni  Ni348  1  0.66666667  0.00000000  0.40625000  1.0
  Ni  Ni349  1  0.66666667  0.33333333  0.40625000  1.0
  Ni  Ni350  1  0.66666667  0.66666667  0.40625000  1.0
  Ni  Ni351  1  0.00000000  0.16666667  0.36458333  1.0
  Ni  Ni352  1  0.00000000  0.50000000  0.36458333  1.0
  Ni  Ni353  1  0.00000000  0.83333333  0.36458333  1.0
  Ni  Ni354  1  0.33333333  0.16666667  0.36458333  1.0
  Ni  Ni355  1  0.33333333  0.50000000  0.36458333  1.0
  Ni  Ni356  1  0.33333333  0.83333333  0.36458333  1.0
  Ni  Ni357  1  0.66666667  0.16666667  0.36458333  1.0
  Ni  Ni358  1  0.66666667  0.50000000  0.36458333  1.0
  Ni  Ni359  1  0.66666667  0.83333333  0.36458333  1.0
