# generated using pymatgen
data_Co3Ni
_symmetry_space_group_name_H-M   'P 1'
_cell_length_a   19.22780997
_cell_length_b   28.42046090
_cell_length_c   27.58367383
_cell_angle_alpha   97.59395550
_cell_angle_beta   92.46040720
_cell_angle_gamma   109.24927272
_symmetry_Int_Tables_number   1
_chemical_formula_structural   Co3Ni
_chemical_formula_sum   'Co432 Ni144'
_cell_volume   14045.55906771
_cell_formula_units_Z   144
loop_
 _symmetry_equiv_pos_site_id
 _symmetry_equiv_pos_as_xyz
  1  'x, y, z'
loop_
 _atom_site_type_symbol
 _atom_site_label
 _atom_site_symmetry_multiplicity
 _atom_site_fract_x
 _atom_site_fract_y
 _atom_site_fract_z
 _atom_site_occupancy
  Co  Co0  1  0.29023927  0.07883400  0.07385692  1.0
  Co  Co1  1  0.29023927  0.41216733  0.07385692  1.0
  Co  Co2  1  0.29023927  0.74550066  0.07385692  1.0
  Co  Co3  1  0.62357260  0.07883400  0.07385692  1.0
  Co  Co4  1  0.62357260  0.41216733  0.07385692  1.0
  Co  Co5  1  0.62357260  0.74550066  0.07385692  1.0
  Co  Co6  1  0.95690594  0.07883400  0.07385692  1.0
  Co  Co7  1  0.95690594  0.41216733  0.07385692  1.0
  Co  Co8  1  0.95690594  0.74550066  0.07385692  1.0
  Co  Co9  1  0.03098001  0.30105622  0.01830137  1.0
  Co  Co10  1  0.03098001  0.63438955  0.01830137  1.0
  Co  Co11  1  0.03098001  0.96772288  0.01830137  1.0
  Co  Co12  1  0.36431335  0.30105622  0.01830137  1.0
  Co  Co13  1  0.36431335  0.63438955  0.01830137  1.0
  Co  Co14  1  0.36431335  0.96772288  0.01830137  1.0
  Co  Co15  1  0.69764668  0.30105622  0.01830137  1.0
  Co  Co16  1  0.69764668  0.63438955  0.01830137  1.0
  Co  Co17  1  0.69764668  0.96772288  0.01830137  1.0
  Co  Co18  1  0.06163188  0.06019966  0.03684884  1.0
  Co  Co19  1  0.06163188  0.39353300  0.03684884  1.0
  Co  Co20  1  0.06163188  0.72686633  0.03684884  1.0
  Co  Co21  1  0.39496522  0.06019966  0.03684884  1.0
  Co  Co22  1  0.39496522  0.39353300  0.03684884  1.0
  Co  Co23  1  0.39496522  0.72686633  0.03684884  1.0
  Co  Co24  1  0.72829855  0.06019966  0.03684884  1.0
  Co  Co25  1  0.72829855  0.39353300  0.03684884  1.0
  Co  Co26  1  0.72829855  0.72686633  0.03684884  1.0
  Co  Co27  1  0.32089114  0.17131077  0.09240439  1.0
  Co  Co28  1  0.32089114  0.50464411  0.09240439  1.0
  Co  Co29  1  0.32089114  0.83797744  0.09240439  1.0
  Co  Co30  1  0.65422448  0.17131077  0.09240439  1.0
  Co  Co31  1  0.65422448  0.50464411  0.09240439  1.0
  Co  Co32  1  0.65422448  0.83797744  0.09240439  1.0
  Co  Co33  1  0.98755781  0.17131077  0.09240439  1.0
  Co  Co34  1  0.98755781  0.50464411  0.09240439  1.0
  Co  Co35  1  0.98755781  0.83797744  0.09240439  1.0
  Co  Co36  1  0.19166686  0.11592894  0.06471348  1.0
  Co  Co37  1  0.19166686  0.44926227  0.06471348  1.0
  Co  Co38  1  0.19166686  0.78259561  0.06471348  1.0
  Co  Co39  1  0.52500020  0.11592894  0.06471348  1.0
  Co  Co40  1  0.52500020  0.44926227  0.06471348  1.0
  Co  Co41  1  0.52500020  0.78259561  0.06471348  1.0
  Co  Co42  1  0.85833353  0.11592894  0.06471348  1.0
  Co  Co43  1  0.85833353  0.44926227  0.06471348  1.0
  Co  Co44  1  0.85833353  0.78259561  0.06471348  1.0
  Co  Co45  1  0.26574094  0.00481783  0.00915792  1.0
  Co  Co46  1  0.26574094  0.33815116  0.00915792  1.0
  Co  Co47  1  0.26574094  0.67148450  0.00915792  1.0
  Co  Co48  1  0.59907427  0.00481783  0.00915792  1.0
  Co  Co49  1  0.59907427  0.33815116  0.00915792  1.0
  Co  Co50  1  0.59907427  0.67148450  0.00915792  1.0
  Co  Co51  1  0.93240760  0.00481783  0.00915792  1.0
  Co  Co52  1  0.93240760  0.33815116  0.00915792  1.0
  Co  Co53  1  0.93240760  0.67148450  0.00915792  1.0
  Co  Co54  1  0.26550931  0.17131077  0.00933164  1.0
  Co  Co55  1  0.26550931  0.50464411  0.00933164  1.0
  Co  Co56  1  0.26550931  0.83797744  0.00933164  1.0
  Co  Co57  1  0.59884264  0.17131077  0.00933164  1.0
  Co  Co58  1  0.59884264  0.50464411  0.00933164  1.0
  Co  Co59  1  0.59884264  0.83797744  0.00933164  1.0
  Co  Co60  1  0.93217598  0.17131077  0.00933164  1.0
  Co  Co61  1  0.93217598  0.50464411  0.00933164  1.0
  Co  Co62  1  0.93217598  0.83797744  0.00933164  1.0
  Co  Co63  1  0.19143523  0.28242188  0.06488720  1.0
  Co  Co64  1  0.19143523  0.61575522  0.06488720  1.0
  Co  Co65  1  0.19143523  0.94908855  0.06488720  1.0
  Co  Co66  1  0.52476857  0.28242188  0.06488720  1.0
  Co  Co67  1  0.52476857  0.61575522  0.06488720  1.0
  Co  Co68  1  0.52476857  0.94908855  0.06488720  1.0
  Co  Co69  1  0.85810190  0.28242188  0.06488720  1.0
  Co  Co70  1  0.85810190  0.61575522  0.06488720  1.0
  Co  Co71  1  0.85810190  0.94908855  0.06488720  1.0
  Co  Co72  1  0.16078336  0.18994511  0.04633973  1.0
  Co  Co73  1  0.16078336  0.52327844  0.04633973  1.0
  Co  Co74  1  0.16078336  0.85661177  0.04633973  1.0
  Co  Co75  1  0.49411670  0.18994511  0.04633973  1.0
  Co  Co76  1  0.49411670  0.52327844  0.04633973  1.0
  Co  Co77  1  0.49411670  0.85661177  0.04633973  1.0
  Co  Co78  1  0.82745003  0.18994511  0.04633973  1.0
  Co  Co79  1  0.82745003  0.52327844  0.04633973  1.0
  Co  Co80  1  0.82745003  0.85661177  0.04633973  1.0
  Co  Co81  1  0.08670929  0.30105622  0.10189528  1.0
  Co  Co82  1  0.08670929  0.63438955  0.10189528  1.0
  Co  Co83  1  0.08670929  0.96772288  0.10189528  1.0
  Co  Co84  1  0.42004262  0.30105622  0.10189528  1.0
  Co  Co85  1  0.42004262  0.63438955  0.10189528  1.0
  Co  Co86  1  0.42004262  0.96772288  0.10189528  1.0
  Co  Co87  1  0.75337596  0.30105622  0.10189528  1.0
  Co  Co88  1  0.75337596  0.63438955  0.10189528  1.0
  Co  Co89  1  0.75337596  0.96772288  0.10189528  1.0
  Co  Co90  1  0.03074838  0.13421583  0.01847509  1.0
  Co  Co91  1  0.03074838  0.46754916  0.01847509  1.0
  Co  Co92  1  0.03074838  0.80088250  0.01847509  1.0
  Co  Co93  1  0.36408172  0.13421583  0.01847509  1.0
  Co  Co94  1  0.36408172  0.46754916  0.01847509  1.0
  Co  Co95  1  0.36408172  0.80088250  0.01847509  1.0
  Co  Co96  1  0.69741505  0.13421583  0.01847509  1.0
  Co  Co97  1  0.69741505  0.46754916  0.01847509  1.0
  Co  Co98  1  0.69741505  0.80088250  0.01847509  1.0
  Co  Co99  1  0.29000764  0.24532694  0.07403064  1.0
  Co  Co100  1  0.29000764  0.57866027  0.07403064  1.0
  Co  Co101  1  0.29000764  0.91199361  0.07403064  1.0
  Co  Co102  1  0.62334098  0.24532694  0.07403064  1.0
  Co  Co103  1  0.62334098  0.57866027  0.07403064  1.0
  Co  Co104  1  0.62334098  0.91199361  0.07403064  1.0
  Co  Co105  1  0.95667431  0.24532694  0.07403064  1.0
  Co  Co106  1  0.95667431  0.57866027  0.07403064  1.0
  Co  Co107  1  0.95667431  0.91199361  0.07403064  1.0
  Co  Co108  1  0.14209112  0.30105622  0.18496803  1.0
  Co  Co109  1  0.14209112  0.63438955  0.18496803  1.0
  Co  Co110  1  0.14209112  0.96772288  0.18496803  1.0
  Co  Co111  1  0.47542446  0.30105622  0.18496803  1.0
  Co  Co112  1  0.47542446  0.63438955  0.18496803  1.0
  Co  Co113  1  0.47542446  0.96772288  0.18496803  1.0
  Co  Co114  1  0.80875779  0.30105622  0.18496803  1.0
  Co  Co115  1  0.80875779  0.63438955  0.18496803  1.0
  Co  Co116  1  0.80875779  0.96772288  0.18496803  1.0
  Co  Co117  1  0.21616520  0.18994511  0.12941248  1.0
  Co  Co118  1  0.21616520  0.52327844  0.12941248  1.0
  Co  Co119  1  0.21616520  0.85661177  0.12941248  1.0
  Co  Co120  1  0.54949853  0.18994511  0.12941248  1.0
  Co  Co121  1  0.54949853  0.52327844  0.12941248  1.0
  Co  Co122  1  0.54949853  0.85661177  0.12941248  1.0
  Co  Co123  1  0.88283186  0.18994511  0.12941248  1.0
  Co  Co124  1  0.88283186  0.52327844  0.12941248  1.0
  Co  Co125  1  0.88283186  0.85661177  0.12941248  1.0
  Co  Co126  1  0.24681707  0.28242188  0.14795995  1.0
  Co  Co127  1  0.24681707  0.61575522  0.14795995  1.0
  Co  Co128  1  0.24681707  0.94908855  0.14795995  1.0
  Co  Co129  1  0.58015040  0.28242188  0.14795995  1.0
  Co  Co130  1  0.58015040  0.61575522  0.14795995  1.0
  Co  Co131  1  0.58015040  0.94908855  0.14795995  1.0
  Co  Co132  1  0.91348373  0.28242188  0.14795995  1.0
  Co  Co133  1  0.91348373  0.61575522  0.14795995  1.0
  Co  Co134  1  0.91348373  0.94908855  0.14795995  1.0
  Co  Co135  1  0.17274299  0.06019966  0.20351550  1.0
  Co  Co136  1  0.17274299  0.39353300  0.20351550  1.0
  Co  Co137  1  0.17274299  0.72686633  0.20351550  1.0
  Co  Co138  1  0.50607633  0.06019966  0.20351550  1.0
  Co  Co139  1  0.50607633  0.39353300  0.20351550  1.0
  Co  Co140  1  0.50607633  0.72686633  0.20351550  1.0
  Co  Co141  1  0.83940966  0.06019966  0.20351550  1.0
  Co  Co142  1  0.83940966  0.39353300  0.20351550  1.0
  Co  Co143  1  0.83940966  0.72686633  0.20351550  1.0
  Co  Co144  1  0.04351872  0.00481783  0.17582459  1.0
  Co  Co145  1  0.04351872  0.33815116  0.17582459  1.0
  Co  Co146  1  0.04351872  0.67148450  0.17582459  1.0
  Co  Co147  1  0.37685205  0.00481783  0.17582459  1.0
  Co  Co148  1  0.37685205  0.33815116  0.17582459  1.0
  Co  Co149  1  0.37685205  0.67148450  0.17582459  1.0
  Co  Co150  1  0.71018538  0.00481783  0.17582459  1.0
  Co  Co151  1  0.71018538  0.33815116  0.17582459  1.0
  Co  Co152  1  0.71018538  0.67148450  0.17582459  1.0
  Co  Co153  1  0.11759279  0.22704005  0.12026903  1.0
  Co  Co154  1  0.11759279  0.56037338  0.12026903  1.0
  Co  Co155  1  0.11759279  0.89370672  0.12026903  1.0
  Co  Co156  1  0.45092612  0.22704005  0.12026903  1.0
  Co  Co157  1  0.45092612  0.56037338  0.12026903  1.0
  Co  Co158  1  0.45092612  0.89370672  0.12026903  1.0
  Co  Co159  1  0.78425946  0.22704005  0.12026903  1.0
  Co  Co160  1  0.78425946  0.56037338  0.12026903  1.0
  Co  Co161  1  0.78425946  0.89370672  0.12026903  1.0
  Co  Co162  1  0.11736116  0.06019966  0.12044275  1.0
  Co  Co163  1  0.11736116  0.39353300  0.12044275  1.0
  Co  Co164  1  0.11736116  0.72686633  0.12044275  1.0
  Co  Co165  1  0.45069449  0.06019966  0.12044275  1.0
  Co  Co166  1  0.45069449  0.39353300  0.12044275  1.0
  Co  Co167  1  0.45069449  0.72686633  0.12044275  1.0
  Co  Co168  1  0.78402783  0.06019966  0.12044275  1.0
  Co  Co169  1  0.78402783  0.39353300  0.12044275  1.0
  Co  Co170  1  0.78402783  0.72686633  0.12044275  1.0
  Co  Co171  1  0.04328709  0.17131077  0.17599831  1.0
  Co  Co172  1  0.04328709  0.50464411  0.17599831  1.0
  Co  Co173  1  0.04328709  0.83797744  0.17599831  1.0
  Co  Co174  1  0.37662042  0.17131077  0.17599831  1.0
  Co  Co175  1  0.37662042  0.50464411  0.17599831  1.0
  Co  Co176  1  0.37662042  0.83797744  0.17599831  1.0
  Co  Co177  1  0.70995375  0.17131077  0.17599831  1.0
  Co  Co178  1  0.70995375  0.50464411  0.17599831  1.0
  Co  Co179  1  0.70995375  0.83797744  0.17599831  1.0
  Co  Co180  1  0.01263522  0.07883400  0.15745084  1.0
  Co  Co181  1  0.01263522  0.41216733  0.15745084  1.0
  Co  Co182  1  0.01263522  0.74550066  0.15745084  1.0
  Co  Co183  1  0.34596855  0.07883400  0.15745084  1.0
  Co  Co184  1  0.34596855  0.41216733  0.15745084  1.0
  Co  Co185  1  0.34596855  0.74550066  0.15745084  1.0
  Co  Co186  1  0.67930188  0.07883400  0.15745084  1.0
  Co  Co187  1  0.67930188  0.41216733  0.15745084  1.0
  Co  Co188  1  0.67930188  0.74550066  0.15745084  1.0
  Co  Co189  1  0.27189448  0.18994511  0.21300639  1.0
  Co  Co190  1  0.27189448  0.52327844  0.21300639  1.0
  Co  Co191  1  0.27189448  0.85661177  0.21300639  1.0
  Co  Co192  1  0.60522781  0.18994511  0.21300639  1.0
  Co  Co193  1  0.60522781  0.52327844  0.21300639  1.0
  Co  Co194  1  0.60522781  0.85661177  0.21300639  1.0
  Co  Co195  1  0.93856114  0.18994511  0.21300639  1.0
  Co  Co196  1  0.93856114  0.52327844  0.21300639  1.0
  Co  Co197  1  0.93856114  0.85661177  0.21300639  1.0
  Co  Co198  1  0.21593357  0.02310472  0.12958620  1.0
  Co  Co199  1  0.21593357  0.35643805  0.12958620  1.0
  Co  Co200  1  0.21593357  0.68977138  0.12958620  1.0
  Co  Co201  1  0.54926690  0.02310472  0.12958620  1.0
  Co  Co202  1  0.54926690  0.35643805  0.12958620  1.0
  Co  Co203  1  0.54926690  0.68977138  0.12958620  1.0
  Co  Co204  1  0.88260023  0.02310472  0.12958620  1.0
  Co  Co205  1  0.88260023  0.35643805  0.12958620  1.0
  Co  Co206  1  0.88260023  0.68977138  0.12958620  1.0
  Co  Co207  1  0.14185949  0.13421583  0.18514175  1.0
  Co  Co208  1  0.14185949  0.46754916  0.18514175  1.0
  Co  Co209  1  0.14185949  0.80088250  0.18514175  1.0
  Co  Co210  1  0.47519283  0.13421583  0.18514175  1.0
  Co  Co211  1  0.47519283  0.46754916  0.18514175  1.0
  Co  Co212  1  0.47519283  0.80088250  0.18514175  1.0
  Co  Co213  1  0.80852616  0.13421583  0.18514175  1.0
  Co  Co214  1  0.80852616  0.46754916  0.18514175  1.0
  Co  Co215  1  0.80852616  0.80088250  0.18514175  1.0
  Co  Co216  1  0.32727631  0.18994511  0.29607914  1.0
  Co  Co217  1  0.32727631  0.52327844  0.29607914  1.0
  Co  Co218  1  0.32727631  0.85661177  0.29607914  1.0
  Co  Co219  1  0.66060964  0.18994511  0.29607914  1.0
  Co  Co220  1  0.66060964  0.52327844  0.29607914  1.0
  Co  Co221  1  0.66060964  0.85661177  0.29607914  1.0
  Co  Co222  1  0.99394298  0.18994511  0.29607914  1.0
  Co  Co223  1  0.99394298  0.52327844  0.29607914  1.0
  Co  Co224  1  0.99394298  0.85661177  0.29607914  1.0
  Co  Co225  1  0.06801705  0.07883400  0.24052359  1.0
  Co  Co226  1  0.06801705  0.41216733  0.24052359  1.0
  Co  Co227  1  0.06801705  0.74550066  0.24052359  1.0
  Co  Co228  1  0.40135038  0.07883400  0.24052359  1.0
  Co  Co229  1  0.40135038  0.41216733  0.24052359  1.0
  Co  Co230  1  0.40135038  0.74550066  0.24052359  1.0
  Co  Co231  1  0.73468372  0.07883400  0.24052359  1.0
  Co  Co232  1  0.73468372  0.41216733  0.24052359  1.0
  Co  Co233  1  0.73468372  0.74550066  0.24052359  1.0
  Co  Co234  1  0.09866892  0.17131077  0.25907106  1.0
  Co  Co235  1  0.09866892  0.50464411  0.25907106  1.0
  Co  Co236  1  0.09866892  0.83797744  0.25907106  1.0
  Co  Co237  1  0.43200225  0.17131077  0.25907106  1.0
  Co  Co238  1  0.43200225  0.50464411  0.25907106  1.0
  Co  Co239  1  0.43200225  0.83797744  0.25907106  1.0
  Co  Co240  1  0.76533559  0.17131077  0.25907106  1.0
  Co  Co241  1  0.76533559  0.50464411  0.25907106  1.0
  Co  Co242  1  0.76533559  0.83797744  0.25907106  1.0
  Co  Co243  1  0.02459485  0.28242188  0.31462662  1.0
  Co  Co244  1  0.02459485  0.61575522  0.31462662  1.0
  Co  Co245  1  0.02459485  0.94908855  0.31462662  1.0
  Co  Co246  1  0.35792818  0.28242188  0.31462662  1.0
  Co  Co247  1  0.35792818  0.61575522  0.31462662  1.0
  Co  Co248  1  0.35792818  0.94908855  0.31462662  1.0
  Co  Co249  1  0.69126151  0.28242188  0.31462662  1.0
  Co  Co250  1  0.69126151  0.61575522  0.31462662  1.0
  Co  Co251  1  0.69126151  0.94908855  0.31462662  1.0
  Co  Co252  1  0.22870390  0.22704005  0.28693570  1.0
  Co  Co253  1  0.22870390  0.56037338  0.28693570  1.0
  Co  Co254  1  0.22870390  0.89370672  0.28693570  1.0
  Co  Co255  1  0.56203723  0.22704005  0.28693570  1.0
  Co  Co256  1  0.56203723  0.56037338  0.28693570  1.0
  Co  Co257  1  0.56203723  0.89370672  0.28693570  1.0
  Co  Co258  1  0.89537057  0.22704005  0.28693570  1.0
  Co  Co259  1  0.89537057  0.56037338  0.28693570  1.0
  Co  Co260  1  0.89537057  0.89370672  0.28693570  1.0
  Co  Co261  1  0.30277798  0.11592894  0.23138014  1.0
  Co  Co262  1  0.30277798  0.44926227  0.23138014  1.0
  Co  Co263  1  0.30277798  0.78259561  0.23138014  1.0
  Co  Co264  1  0.63611131  0.11592894  0.23138014  1.0
  Co  Co265  1  0.63611131  0.44926227  0.23138014  1.0
  Co  Co266  1  0.63611131  0.78259561  0.23138014  1.0
  Co  Co267  1  0.96944464  0.11592894  0.23138014  1.0
  Co  Co268  1  0.96944464  0.44926227  0.23138014  1.0
  Co  Co269  1  0.96944464  0.78259561  0.23138014  1.0
  Co  Co270  1  0.30254635  0.28242188  0.23155387  1.0
  Co  Co271  1  0.30254635  0.61575522  0.23155387  1.0
  Co  Co272  1  0.30254635  0.94908855  0.23155387  1.0
  Co  Co273  1  0.63587968  0.28242188  0.23155387  1.0
  Co  Co274  1  0.63587968  0.61575522  0.23155387  1.0
  Co  Co275  1  0.63587968  0.94908855  0.23155387  1.0
  Co  Co276  1  0.96921301  0.28242188  0.23155387  1.0
  Co  Co277  1  0.96921301  0.61575522  0.23155387  1.0
  Co  Co278  1  0.96921301  0.94908855  0.23155387  1.0
  Co  Co279  1  0.22847227  0.06019966  0.28710942  1.0
  Co  Co280  1  0.22847227  0.39353300  0.28710942  1.0
  Co  Co281  1  0.22847227  0.72686633  0.28710942  1.0
  Co  Co282  1  0.56180560  0.06019966  0.28710942  1.0
  Co  Co283  1  0.56180560  0.39353300  0.28710942  1.0
  Co  Co284  1  0.56180560  0.72686633  0.28710942  1.0
  Co  Co285  1  0.89513894  0.06019966  0.28710942  1.0
  Co  Co286  1  0.89513894  0.39353300  0.28710942  1.0
  Co  Co287  1  0.89513894  0.72686633  0.28710942  1.0
  Co  Co288  1  0.19782040  0.30105622  0.26856195  1.0
  Co  Co289  1  0.19782040  0.63438955  0.26856195  1.0
  Co  Co290  1  0.19782040  0.96772288  0.26856195  1.0
  Co  Co291  1  0.53115373  0.30105622  0.26856195  1.0
  Co  Co292  1  0.53115373  0.63438955  0.26856195  1.0
  Co  Co293  1  0.53115373  0.96772288  0.26856195  1.0
  Co  Co294  1  0.86448707  0.30105622  0.26856195  1.0
  Co  Co295  1  0.86448707  0.63438955  0.26856195  1.0
  Co  Co296  1  0.86448707  0.96772288  0.26856195  1.0
  Co  Co297  1  0.12374633  0.07883400  0.32411750  1.0
  Co  Co298  1  0.12374633  0.41216733  0.32411750  1.0
  Co  Co299  1  0.12374633  0.74550066  0.32411750  1.0
  Co  Co300  1  0.45707966  0.07883400  0.32411750  1.0
  Co  Co301  1  0.45707966  0.41216733  0.32411750  1.0
  Co  Co302  1  0.45707966  0.74550066  0.32411750  1.0
  Co  Co303  1  0.79041299  0.07883400  0.32411750  1.0
  Co  Co304  1  0.79041299  0.41216733  0.32411750  1.0
  Co  Co305  1  0.79041299  0.74550066  0.32411750  1.0
  Co  Co306  1  0.06778542  0.24532694  0.24069731  1.0
  Co  Co307  1  0.06778542  0.57866027  0.24069731  1.0
  Co  Co308  1  0.06778542  0.91199361  0.24069731  1.0
  Co  Co309  1  0.40111875  0.24532694  0.24069731  1.0
  Co  Co310  1  0.40111875  0.57866027  0.24069731  1.0
  Co  Co311  1  0.40111875  0.91199361  0.24069731  1.0
  Co  Co312  1  0.73445209  0.24532694  0.24069731  1.0
  Co  Co313  1  0.73445209  0.57866027  0.24069731  1.0
  Co  Co314  1  0.73445209  0.91199361  0.24069731  1.0
  Co  Co315  1  0.32704468  0.02310472  0.29625287  1.0
  Co  Co316  1  0.32704468  0.35643805  0.29625287  1.0
  Co  Co317  1  0.32704468  0.68977138  0.29625287  1.0
  Co  Co318  1  0.66037801  0.02310472  0.29625287  1.0
  Co  Co319  1  0.66037801  0.35643805  0.29625287  1.0
  Co  Co320  1  0.66037801  0.68977138  0.29625287  1.0
  Co  Co321  1  0.99371135  0.02310472  0.29625287  1.0
  Co  Co322  1  0.99371135  0.35643805  0.29625287  1.0
  Co  Co323  1  0.99371135  0.68977138  0.29625287  1.0
  Co  Co324  1  0.17912816  0.07883400  0.40719025  1.0
  Co  Co325  1  0.17912816  0.41216733  0.40719025  1.0
  Co  Co326  1  0.17912816  0.74550066  0.40719025  1.0
  Co  Co327  1  0.51246149  0.07883400  0.40719025  1.0
  Co  Co328  1  0.51246149  0.41216733  0.40719025  1.0
  Co  Co329  1  0.51246149  0.74550066  0.40719025  1.0
  Co  Co330  1  0.84579483  0.07883400  0.40719025  1.0
  Co  Co331  1  0.84579483  0.41216733  0.40719025  1.0
  Co  Co332  1  0.84579483  0.74550066  0.40719025  1.0
  Co  Co333  1  0.25320223  0.30105622  0.35163470  1.0
  Co  Co334  1  0.25320223  0.63438955  0.35163470  1.0
  Co  Co335  1  0.25320223  0.96772288  0.35163470  1.0
  Co  Co336  1  0.58653557  0.30105622  0.35163470  1.0
  Co  Co337  1  0.58653557  0.63438955  0.35163470  1.0
  Co  Co338  1  0.58653557  0.96772288  0.35163470  1.0
  Co  Co339  1  0.91986890  0.30105622  0.35163470  1.0
  Co  Co340  1  0.91986890  0.63438955  0.35163470  1.0
  Co  Co341  1  0.91986890  0.96772288  0.35163470  1.0
  Co  Co342  1  0.28385410  0.06019966  0.37018217  1.0
  Co  Co343  1  0.28385410  0.39353300  0.37018217  1.0
  Co  Co344  1  0.28385410  0.72686633  0.37018217  1.0
  Co  Co345  1  0.61718744  0.06019966  0.37018217  1.0
  Co  Co346  1  0.61718744  0.39353300  0.37018217  1.0
  Co  Co347  1  0.61718744  0.72686633  0.37018217  1.0
  Co  Co348  1  0.95052077  0.06019966  0.37018217  1.0
  Co  Co349  1  0.95052077  0.39353300  0.37018217  1.0
  Co  Co350  1  0.95052077  0.72686633  0.37018217  1.0
  Co  Co351  1  0.20978003  0.17131077  0.42573773  1.0
  Co  Co352  1  0.20978003  0.50464411  0.42573773  1.0
  Co  Co353  1  0.20978003  0.83797744  0.42573773  1.0
  Co  Co354  1  0.54311336  0.17131077  0.42573773  1.0
  Co  Co355  1  0.54311336  0.50464411  0.42573773  1.0
  Co  Co356  1  0.54311336  0.83797744  0.42573773  1.0
  Co  Co357  1  0.87644670  0.17131077  0.42573773  1.0
  Co  Co358  1  0.87644670  0.50464411  0.42573773  1.0
  Co  Co359  1  0.87644670  0.83797744  0.42573773  1.0
  Co  Co360  1  0.08055575  0.11592894  0.39804681  1.0
  Co  Co361  1  0.08055575  0.44926227  0.39804681  1.0
  Co  Co362  1  0.08055575  0.78259561  0.39804681  1.0
  Co  Co363  1  0.41388909  0.11592894  0.39804681  1.0
  Co  Co364  1  0.41388909  0.44926227  0.39804681  1.0
  Co  Co365  1  0.41388909  0.78259561  0.39804681  1.0
  Co  Co366  1  0.74722242  0.11592894  0.39804681  1.0
  Co  Co367  1  0.74722242  0.44926227  0.39804681  1.0
  Co  Co368  1  0.74722242  0.78259561  0.39804681  1.0
  Co  Co369  1  0.15462983  0.00481783  0.34249125  1.0
  Co  Co370  1  0.15462983  0.33815116  0.34249125  1.0
  Co  Co371  1  0.15462983  0.67148450  0.34249125  1.0
  Co  Co372  1  0.48796316  0.00481783  0.34249125  1.0
  Co  Co373  1  0.48796316  0.33815116  0.34249125  1.0
  Co  Co374  1  0.48796316  0.67148450  0.34249125  1.0
  Co  Co375  1  0.82129649  0.00481783  0.34249125  1.0
  Co  Co376  1  0.82129649  0.33815116  0.34249125  1.0
  Co  Co377  1  0.82129649  0.67148450  0.34249125  1.0
  Co  Co378  1  0.15439820  0.17131077  0.34266498  1.0
  Co  Co379  1  0.15439820  0.50464411  0.34266498  1.0
  Co  Co380  1  0.15439820  0.83797744  0.34266498  1.0
  Co  Co381  1  0.48773153  0.17131077  0.34266498  1.0
  Co  Co382  1  0.48773153  0.50464411  0.34266498  1.0
  Co  Co383  1  0.48773153  0.83797744  0.34266498  1.0
  Co  Co384  1  0.82106486  0.17131077  0.34266498  1.0
  Co  Co385  1  0.82106486  0.50464411  0.34266498  1.0
  Co  Co386  1  0.82106486  0.83797744  0.34266498  1.0
  Co  Co387  1  0.08032412  0.28242188  0.39822053  1.0
  Co  Co388  1  0.08032412  0.61575522  0.39822053  1.0
  Co  Co389  1  0.08032412  0.94908855  0.39822053  1.0
  Co  Co390  1  0.41365746  0.28242188  0.39822053  1.0
  Co  Co391  1  0.41365746  0.61575522  0.39822053  1.0
  Co  Co392  1  0.41365746  0.94908855  0.39822053  1.0
  Co  Co393  1  0.74699079  0.28242188  0.39822053  1.0
  Co  Co394  1  0.74699079  0.61575522  0.39822053  1.0
  Co  Co395  1  0.74699079  0.94908855  0.39822053  1.0
  Co  Co396  1  0.04967225  0.18994511  0.37967306  1.0
  Co  Co397  1  0.04967225  0.52327844  0.37967306  1.0
  Co  Co398  1  0.04967225  0.85661177  0.37967306  1.0
  Co  Co399  1  0.38300559  0.18994511  0.37967306  1.0
  Co  Co400  1  0.38300559  0.52327844  0.37967306  1.0
  Co  Co401  1  0.38300559  0.85661177  0.37967306  1.0
  Co  Co402  1  0.71633892  0.18994511  0.37967306  1.0
  Co  Co403  1  0.71633892  0.52327844  0.37967306  1.0
  Co  Co404  1  0.71633892  0.85661177  0.37967306  1.0
  Co  Co405  1  0.30893151  0.30105622  0.43522862  1.0
  Co  Co406  1  0.30893151  0.63438955  0.43522862  1.0
  Co  Co407  1  0.30893151  0.96772288  0.43522862  1.0
  Co  Co408  1  0.64226485  0.30105622  0.43522862  1.0
  Co  Co409  1  0.64226485  0.63438955  0.43522862  1.0
  Co  Co410  1  0.64226485  0.96772288  0.43522862  1.0
  Co  Co411  1  0.97559818  0.30105622  0.43522862  1.0
  Co  Co412  1  0.97559818  0.63438955  0.43522862  1.0
  Co  Co413  1  0.97559818  0.96772288  0.43522862  1.0
  Co  Co414  1  0.25297060  0.13421583  0.35180842  1.0
  Co  Co415  1  0.25297060  0.46754916  0.35180842  1.0
  Co  Co416  1  0.25297060  0.80088250  0.35180842  1.0
  Co  Co417  1  0.58630394  0.13421583  0.35180842  1.0
  Co  Co418  1  0.58630394  0.46754916  0.35180842  1.0
  Co  Co419  1  0.58630394  0.80088250  0.35180842  1.0
  Co  Co420  1  0.91963727  0.13421583  0.35180842  1.0
  Co  Co421  1  0.91963727  0.46754916  0.35180842  1.0
  Co  Co422  1  0.91963727  0.80088250  0.35180842  1.0
  Co  Co423  1  0.17889653  0.24532694  0.40736398  1.0
  Co  Co424  1  0.17889653  0.57866027  0.40736398  1.0
  Co  Co425  1  0.17889653  0.91199361  0.40736398  1.0
  Co  Co426  1  0.51222986  0.24532694  0.40736398  1.0
  Co  Co427  1  0.51222986  0.57866027  0.40736398  1.0
  Co  Co428  1  0.51222986  0.91199361  0.40736398  1.0
  Co  Co429  1  0.84556320  0.24532694  0.40736398  1.0
  Co  Co430  1  0.84556320  0.57866027  0.40736398  1.0
  Co  Co431  1  0.84556320  0.91199361  0.40736398  1.0
  Ni  Ni432  1  0.08651627  0.13433164  0.10177947  1.0
  Ni  Ni433  1  0.08651627  0.46766498  0.10177947  1.0
  Ni  Ni434  1  0.08651627  0.80099831  0.10177947  1.0
  Ni  Ni435  1  0.41984960  0.13433164  0.10177947  1.0
  Ni  Ni436  1  0.41984960  0.46766498  0.10177947  1.0
  Ni  Ni437  1  0.41984960  0.80099831  0.10177947  1.0
  Ni  Ni438  1  0.75318293  0.13433164  0.10177947  1.0
  Ni  Ni439  1  0.75318293  0.46766498  0.10177947  1.0
  Ni  Ni440  1  0.75318293  0.80099831  0.10177947  1.0
  Ni  Ni441  1  0.16059034  0.02322053  0.04622391  1.0
  Ni  Ni442  1  0.16059034  0.35655387  0.04622391  1.0
  Ni  Ni443  1  0.16059034  0.68988720  0.04622391  1.0
  Ni  Ni444  1  0.49392367  0.02322053  0.04622391  1.0
  Ni  Ni445  1  0.49392367  0.35655387  0.04622391  1.0
  Ni  Ni446  1  0.49392367  0.68988720  0.04622391  1.0
  Ni  Ni447  1  0.82725701  0.02322053  0.04622391  1.0
  Ni  Ni448  1  0.82725701  0.35655387  0.04622391  1.0
  Ni  Ni449  1  0.82725701  0.68988720  0.04622391  1.0
  Ni  Ni450  1  0.32108417  0.00470201  0.09252021  1.0
  Ni  Ni451  1  0.32108417  0.33803535  0.09252021  1.0
  Ni  Ni452  1  0.32108417  0.67136868  0.09252021  1.0
  Ni  Ni453  1  0.65441750  0.00470201  0.09252021  1.0
  Ni  Ni454  1  0.65441750  0.33803535  0.09252021  1.0
  Ni  Ni455  1  0.65441750  0.67136868  0.09252021  1.0
  Ni  Ni456  1  0.98775083  0.00470201  0.09252021  1.0
  Ni  Ni457  1  0.98775083  0.33803535  0.09252021  1.0
  Ni  Ni458  1  0.98775083  0.67136868  0.09252021  1.0
  Ni  Ni459  1  0.06182491  0.22692424  0.03696465  1.0
  Ni  Ni460  1  0.06182491  0.56025757  0.03696465  1.0
  Ni  Ni461  1  0.06182491  0.89359090  0.03696465  1.0
  Ni  Ni462  1  0.39515824  0.22692424  0.03696465  1.0
  Ni  Ni463  1  0.39515824  0.56025757  0.03696465  1.0
  Ni  Ni464  1  0.39515824  0.89359090  0.03696465  1.0
  Ni  Ni465  1  0.72849157  0.22692424  0.03696465  1.0
  Ni  Ni466  1  0.72849157  0.56025757  0.03696465  1.0
  Ni  Ni467  1  0.72849157  0.89359090  0.03696465  1.0
  Ni  Ni468  1  0.27170145  0.02322053  0.21289058  1.0
  Ni  Ni469  1  0.27170145  0.35655387  0.21289058  1.0
  Ni  Ni470  1  0.27170145  0.68988720  0.21289058  1.0
  Ni  Ni471  1  0.60503478  0.02322053  0.21289058  1.0
  Ni  Ni472  1  0.60503478  0.35655387  0.21289058  1.0
  Ni  Ni473  1  0.60503478  0.68988720  0.21289058  1.0
  Ni  Ni474  1  0.93836812  0.02322053  0.21289058  1.0
  Ni  Ni475  1  0.93836812  0.35655387  0.21289058  1.0
  Ni  Ni476  1  0.93836812  0.68988720  0.21289058  1.0
  Ni  Ni477  1  0.01244219  0.24544275  0.15733502  1.0
  Ni  Ni478  1  0.01244219  0.57877609  0.15733502  1.0
  Ni  Ni479  1  0.01244219  0.91210942  0.15733502  1.0
  Ni  Ni480  1  0.34577552  0.24544275  0.15733502  1.0
  Ni  Ni481  1  0.34577552  0.57877609  0.15733502  1.0
  Ni  Ni482  1  0.34577552  0.91210942  0.15733502  1.0
  Ni  Ni483  1  0.67910886  0.24544275  0.15733502  1.0
  Ni  Ni484  1  0.67910886  0.57877609  0.15733502  1.0
  Ni  Ni485  1  0.67910886  0.91210942  0.15733502  1.0
  Ni  Ni486  1  0.17293602  0.22692424  0.20363132  1.0
  Ni  Ni487  1  0.17293602  0.56025757  0.20363132  1.0
  Ni  Ni488  1  0.17293602  0.89359090  0.20363132  1.0
  Ni  Ni489  1  0.50626935  0.22692424  0.20363132  1.0
  Ni  Ni490  1  0.50626935  0.56025757  0.20363132  1.0
  Ni  Ni491  1  0.50626935  0.89359090  0.20363132  1.0
  Ni  Ni492  1  0.83960269  0.22692424  0.20363132  1.0
  Ni  Ni493  1  0.83960269  0.56025757  0.20363132  1.0
  Ni  Ni494  1  0.83960269  0.89359090  0.20363132  1.0
  Ni  Ni495  1  0.24701009  0.11581313  0.14807576  1.0
  Ni  Ni496  1  0.24701009  0.44914646  0.14807576  1.0
  Ni  Ni497  1  0.24701009  0.78247979  0.14807576  1.0
  Ni  Ni498  1  0.58034343  0.11581313  0.14807576  1.0
  Ni  Ni499  1  0.58034343  0.44914646  0.14807576  1.0
  Ni  Ni500  1  0.58034343  0.78247979  0.14807576  1.0
  Ni  Ni501  1  0.91367676  0.11581313  0.14807576  1.0
  Ni  Ni502  1  0.91367676  0.44914646  0.14807576  1.0
  Ni  Ni503  1  0.91367676  0.78247979  0.14807576  1.0
  Ni  Ni504  1  0.12355330  0.24544275  0.32400169  1.0
  Ni  Ni505  1  0.12355330  0.57877609  0.32400169  1.0
  Ni  Ni506  1  0.12355330  0.91210942  0.32400169  1.0
  Ni  Ni507  1  0.45688664  0.24544275  0.32400169  1.0
  Ni  Ni508  1  0.45688664  0.57877609  0.32400169  1.0
  Ni  Ni509  1  0.45688664  0.91210942  0.32400169  1.0
  Ni  Ni510  1  0.79021997  0.24544275  0.32400169  1.0
  Ni  Ni511  1  0.79021997  0.57877609  0.32400169  1.0
  Ni  Ni512  1  0.79021997  0.91210942  0.32400169  1.0
  Ni  Ni513  1  0.19762738  0.13433164  0.26844613  1.0
  Ni  Ni514  1  0.19762738  0.46766498  0.26844613  1.0
  Ni  Ni515  1  0.19762738  0.80099831  0.26844613  1.0
  Ni  Ni516  1  0.53096071  0.13433164  0.26844613  1.0
  Ni  Ni517  1  0.53096071  0.46766498  0.26844613  1.0
  Ni  Ni518  1  0.53096071  0.80099831  0.26844613  1.0
  Ni  Ni519  1  0.86429404  0.13433164  0.26844613  1.0
  Ni  Ni520  1  0.86429404  0.46766498  0.26844613  1.0
  Ni  Ni521  1  0.86429404  0.80099831  0.26844613  1.0
  Ni  Ni522  1  0.02478787  0.11581312  0.31474243  1.0
  Ni  Ni523  1  0.02478787  0.44914646  0.31474243  1.0
  Ni  Ni524  1  0.02478787  0.78247979  0.31474243  1.0
  Ni  Ni525  1  0.35812120  0.11581312  0.31474243  1.0
  Ni  Ni526  1  0.35812120  0.44914646  0.31474243  1.0
  Ni  Ni527  1  0.35812120  0.78247979  0.31474243  1.0
  Ni  Ni528  1  0.69145454  0.11581312  0.31474243  1.0
  Ni  Ni529  1  0.69145454  0.44914646  0.31474243  1.0
  Ni  Ni530  1  0.69145454  0.78247979  0.31474243  1.0
  Ni  Ni531  1  0.09886194  0.00470201  0.25918687  1.0
  Ni  Ni532  1  0.09886194  0.33803535  0.25918687  1.0
  Ni  Ni533  1  0.09886194  0.67136868  0.25918687  1.0
  Ni  Ni534  1  0.43219528  0.00470201  0.25918687  1.0
  Ni  Ni535  1  0.43219528  0.33803535  0.25918687  1.0
  Ni  Ni536  1  0.43219528  0.67136868  0.25918687  1.0
  Ni  Ni537  1  0.76552861  0.00470201  0.25918687  1.0
  Ni  Ni538  1  0.76552861  0.33803535  0.25918687  1.0
  Ni  Ni539  1  0.76552861  0.67136868  0.25918687  1.0
  Ni  Ni540  1  0.30873849  0.13433164  0.43511280  1.0
  Ni  Ni541  1  0.30873849  0.46766498  0.43511280  1.0
  Ni  Ni542  1  0.30873849  0.80099831  0.43511280  1.0
  Ni  Ni543  1  0.64207182  0.13433164  0.43511280  1.0
  Ni  Ni544  1  0.64207182  0.46766498  0.43511280  1.0
  Ni  Ni545  1  0.64207182  0.80099831  0.43511280  1.0
  Ni  Ni546  1  0.97540515  0.13433164  0.43511280  1.0
  Ni  Ni547  1  0.97540515  0.46766498  0.43511280  1.0
  Ni  Ni548  1  0.97540515  0.80099831  0.43511280  1.0
  Ni  Ni549  1  0.04947923  0.02322053  0.37955725  1.0
  Ni  Ni550  1  0.04947923  0.35655387  0.37955725  1.0
  Ni  Ni551  1  0.04947923  0.68988720  0.37955725  1.0
  Ni  Ni552  1  0.38281256  0.02322053  0.37955725  1.0
  Ni  Ni553  1  0.38281256  0.35655387  0.37955725  1.0
  Ni  Ni554  1  0.38281256  0.68988720  0.37955725  1.0
  Ni  Ni555  1  0.71614590  0.02322053  0.37955725  1.0
  Ni  Ni556  1  0.71614590  0.35655387  0.37955725  1.0
  Ni  Ni557  1  0.71614590  0.68988720  0.37955725  1.0
  Ni  Ni558  1  0.20997306  0.00470201  0.42585354  1.0
  Ni  Ni559  1  0.20997306  0.33803535  0.42585354  1.0
  Ni  Ni560  1  0.20997306  0.67136868  0.42585354  1.0
  Ni  Ni561  1  0.54330639  0.00470201  0.42585354  1.0
  Ni  Ni562  1  0.54330639  0.33803535  0.42585354  1.0
  Ni  Ni563  1  0.54330639  0.67136868  0.42585354  1.0
  Ni  Ni564  1  0.87663972  0.00470201  0.42585354  1.0
  Ni  Ni565  1  0.87663972  0.33803535  0.42585354  1.0
  Ni  Ni566  1  0.87663972  0.67136868  0.42585354  1.0
  Ni  Ni567  1  0.28404713  0.22692424  0.37029799  1.0
  Ni  Ni568  1  0.28404713  0.56025757  0.37029799  1.0
  Ni  Ni569  1  0.28404713  0.89359090  0.37029799  1.0
  Ni  Ni570  1  0.61738046  0.22692424  0.37029799  1.0
  Ni  Ni571  1  0.61738046  0.56025757  0.37029799  1.0
  Ni  Ni572  1  0.61738046  0.89359090  0.37029799  1.0
  Ni  Ni573  1  0.95071380  0.22692424  0.37029799  1.0
  Ni  Ni574  1  0.95071380  0.56025757  0.37029799  1.0
  Ni  Ni575  1  0.95071380  0.89359090  0.37029799  1.0
