# generated using pymatgen
data_Co3Ni
_symmetry_space_group_name_H-M   'P 1'
_cell_length_a   10.54221300
_cell_length_b   10.54221300
_cell_length_c   28.11256800
_cell_angle_alpha   90.00000000
_cell_angle_beta   90.00000000
_cell_angle_gamma   90.00000000
_symmetry_Int_Tables_number   1
_chemical_formula_structural   Co3Ni
_chemical_formula_sum   'Co81 Ni27'
_cell_volume   3124.38174933
_cell_formula_units_Z   27
loop_
 _symmetry_equiv_pos_site_id
 _symmetry_equiv_pos_as_xyz
  1  'x, y, z'
loop_
 _atom_site_type_symbol
 _atom_site_label
 _atom_site_symmetry_multiplicity
 _atom_site_fract_x
 _atom_site_fract_y
 _atom_site_fract_z
 _atom_site_occupancy
  Co  Co0  1  0.16666667  0.00000000  0.03125000  1.0
  Co  Co1  1  0.16666667  0.33333333  0.03125000  1.0
  Co  Co2  1  0.16666667  0.66666667  0.03125000  1.0
  Co  Co3  1  0.50000000  0.00000000  0.03125000  1.0
  Co  Co4  1  0.50000000  0.33333333  0.03125000  1.0
  Co  Co5  1  0.50000000  0.66666667  0.03125000  1.0
  Co  Co6  1  0.83333333  0.00000000  0.03125000  1.0
  Co  Co7  1  0.83333333  0.33333333  0.03125000  1.0
  Co  Co8  1  0.83333333  0.66666667  0.03125000  1.0
  Co  Co9  1  0.00000000  0.16666667  0.03125000  1.0
  Co  Co10  1  0.00000000  0.50000000  0.03125000  1.0
  Co  Co11  1  0.00000000  0.83333333  0.03125000  1.0
  Co  Co12  1  0.33333333  0.16666667  0.03125000  1.0
  Co  Co13  1  0.33333333  0.50000000  0.03125000  1.0
  Co  Co14  1  0.33333333  0.83333333  0.03125000  1.0
  Co  Co15  1  0.66666667  0.16666667  0.03125000  1.0
  Co  Co16  1  0.66666667  0.50000000  0.03125000  1.0
  Co  Co17  1  0.66666667  0.83333333  0.03125000  1.0
  Co  Co18  1  0.16666667  0.16666667  0.09375000  1.0
  Co  Co19  1  0.16666667  0.50000000  0.09375000  1.0
  Co  Co20  1  0.16666667  0.83333333  0.09375000  1.0
  Co  Co21  1  0.50000000  0.16666667  0.09375000  1.0
  Co  Co22  1  0.50000000  0.50000000  0.09375000  1.0
  Co  Co23  1  0.50000000  0.83333333  0.09375000  1.0
  Co  Co24  1  0.83333333  0.16666667  0.09375000  1.0
  Co  Co25  1  0.83333333  0.50000000  0.09375000  1.0
  Co  Co26  1  0.83333333  0.83333333  0.09375000  1.0
  Ni  Ni27  1  0.00000000  0.00000000  0.09375000  1.0
  Ni  Ni28  1  0.00000000  0.33333333  0.09375000  1.0
  Ni  Ni29  1  0.00000000  0.66666667  0.09375000  1.0
  Ni  Ni30  1  0.33333333  0.00000000  0.09375000  1.0
  Ni  Ni31  1  0.33333333  0.33333333  0.09375000  1.0
  Ni  Ni32  1  0.33333333  0.66666667  0.09375000  1.0
  Ni  Ni33  1  0.66666667  0.00000000  0.09375000  1.0
  Ni  Ni34  1  0.66666667  0.33333333  0.09375000  1.0
  Ni  Ni35  1  0.66666667  0.66666667  0.09375000  1.0
  Co  Co36  1  0.16666667  0.00000000  0.15625000  1.0
  Co  Co37  1  0.16666667  0.33333333  0.15625000  1.0
  Co  Co38  1  0.16666667  0.66666667  0.15625000  1.0
  Co  Co39  1  0.50000000  0.00000000  0.15625000  1.0
  Co  Co40  1  0.50000000  0.33333333  0.15625000  1.0
  Co  Co41  1  0.50000000  0.66666667  0.15625000  1.0
  Co  Co42  1  0.83333333  0.00000000  0.15625000  1.0
  Co  Co43  1  0.83333333  0.33333333  0.15625000  1.0
  Co  Co44  1  0.83333333  0.66666667  0.15625000  1.0
  Co  Co45  1  0.00000000  0.16666667  0.15625000  1.0
  Co  Co46  1  0.00000000  0.50000000  0.15625000  1.0
  Co  Co47  1  0.00000000  0.83333333  0.15625000  1.0
  Co  Co48  1  0.33333333  0.16666667  0.15625000  1.0
  Co  Co49  1  0.33333333  0.50000000  0.15625000  1.0
  Co  Co50  1  0.33333333  0.83333333  0.15625000  1.0
  Co  Co51  1  0.66666667  0.16666667  0.15625000  1.0
  Co  Co52  1  0.66666667  0.50000000  0.15625000  1.0
  Co  Co53  1  0.66666667  0.83333333  0.15625000  1.0
  Co  Co54  1  0.16666667  0.16666667  0.21875000  1.0
  Co  Co55  1  0.16666667  0.50000000  0.21875000  1.0
  Co  Co56  1  0.16666667  0.83333333  0.21875000  1.0
  Co  Co57  1  0.50000000  0.16666667  0.21875000  1.0
  Co  Co58  1  0.50000000  0.50000000  0.21875000  1.0
  Co  Co59  1  0.50000000  0.83333333  0.21875000  1.0
  Co  Co60  1  0.83333333  0.16666667  0.21875000  1.0
  Co  Co61  1  0.83333333  0.50000000  0.21875000  1.0
  Co  Co62  1  0.83333333  0.83333333  0.21875000  1.0
  Ni  Ni63  1  0.00000000  0.00000000  0.21875000  1.0
  Ni  Ni64  1  0.00000000  0.33333333  0.21875000  1.0
  Ni  Ni65  1  0.00000000  0.66666667  0.21875000  1.0
  Ni  Ni66  1  0.33333333  0.00000000  0.21875000  1.0
  Ni  Ni67  1  0.33333333  0.33333333  0.21875000  1.0
  Ni  Ni68  1  0.33333333  0.66666667  0.21875000  1.0
  Ni  Ni69  1  0.66666667  0.00000000  0.21875000  1.0
  Ni  Ni70  1  0.66666667  0.33333333  0.21875000  1.0
  Ni  Ni71  1  0.66666667  0.66666667  0.21875000  1.0
  Co  Co72  1  0.16666667  0.00000000  0.28125000  1.0
  Co  Co73  1  0.16666667  0.33333333  0.28125000  1.0
  Co  Co74  1  0.16666667  0.66666667  0.28125000  1.0
  Co  Co75  1  0.50000000  0.00000000  0.28125000  1.0
  Co  Co76  1  0.50000000  0.33333333  0.28125000  1.0
  Co  Co77  1  0.50000000  0.66666667  0.28125000  1.0
  Co  Co78  1  0.83333333  0.00000000  0.28125000  1.0
  Co  Co79  1  0.83333333  0.33333333  0.28125000  1.0
  Co  Co80  1  0.83333333  0.66666667  0.28125000  1.0
  Co  Co81  1  0.00000000  0.16666667  0.28125000  1.0
  Co  Co82  1  0.00000000  0.50000000  0.28125000  1.0
  Co  Co83  1  0.00000000  0.83333333  0.28125000  1.0
  Co  Co84  1  0.33333333  0.16666667  0.28125000  1.0
  Co  Co85  1  0.33333333  0.50000000  0.28125000  1.0
  Co  Co86  1  0.33333333  0.83333333  0.28125000  1.0
  Co  Co87  1  0.66666667  0.16666667  0.28125000  1.0
  Co  Co88  1  0.66666667  0.50000000  0.28125000  1.0
  Co  Co89  1  0.66666667  0.83333333  0.28125000  1.0
  Co  Co90  1  0.16666667  0.16666667  0.34375000  1.0
  Co  Co91  1  0.16666667  0.50000000  0.34375000  1.0
  Co  Co92  1  0.16666667  0.83333333  0.34375000  1.0
  Co  Co93  1  0.50000000  0.16666667  0.34375000  1.0
  Co  Co94  1  0.50000000  0.50000000  0.34375000  1.0
  Co  Co95  1  0.50000000  0.83333333  0.34375000  1.0
  Co  Co96  1  0.83333333  0.16666667  0.34375000  1.0
  Co  Co97  1  0.83333333  0.50000000  0.34375000  1.0
  Co  Co98  1  0.83333333  0.83333333  0.34375000  1.0
  Ni  Ni99  1  0.00000000  0.00000000  0.34375000  1.0
  Ni  Ni100  1  0.00000000  0.33333333  0.34375000  1.0
  Ni  Ni101  1  0.00000000  0.66666667  0.34375000  1.0
  Ni  Ni102  1  0.33333333  0.00000000  0.34375000  1.0
  Ni  Ni103  1  0.33333333  0.33333333  0.34375000  1.0
  Ni  Ni104  1  0.33333333  0.66666667  0.34375000  1.0
  Ni  Ni105  1  0.66666667  0.00000000  0.34375000  1.0
  Ni  Ni106  1  0.66666667  0.33333333  0.34375000  1.0
  Ni  Ni107  1  0.66666667  0.66666667  0.34375000  1.0
