# generated using pymatgen
data_Co3Ni
_symmetry_space_group_name_H-M   'P 1'
_cell_length_a   19.87780952
_cell_length_b   25.48988952
_cell_length_c   42.57426620
_cell_angle_alpha   107.14245483
_cell_angle_beta   139.10660535
_cell_angle_gamma   77.12593325
_symmetry_Int_Tables_number   1
_chemical_formula_structural   Co3Ni
_chemical_formula_sum   'Co378 Ni126'
_cell_volume   13494.59884776
_cell_formula_units_Z   126
loop_
 _symmetry_equiv_pos_site_id
 _symmetry_equiv_pos_as_xyz
  1  'x, y, z'
loop_
 _atom_site_type_symbol
 _atom_site_label
 _atom_site_symmetry_multiplicity
 _atom_site_fract_x
 _atom_site_fract_y
 _atom_site_fract_z
 _atom_site_occupancy
  Co  Co0  1  0.00000000  0.16666667  0.02705093  1.0
  Co  Co1  1  0.00000000  0.50000000  0.02705093  1.0
  Co  Co2  1  0.00000000  0.83333333  0.02705093  1.0
  Co  Co3  1  0.33333333  0.16666667  0.02705093  1.0
  Co  Co4  1  0.33333333  0.50000000  0.02705093  1.0
  Co  Co5  1  0.33333333  0.83333333  0.02705093  1.0
  Co  Co6  1  0.66666667  0.16666667  0.02705093  1.0
  Co  Co7  1  0.66666667  0.50000000  0.02705093  1.0
  Co  Co8  1  0.66666667  0.83333333  0.02705093  1.0
  Co  Co9  1  0.16666667  0.16666667  0.05646270  1.0
  Co  Co10  1  0.16666667  0.50000000  0.05646270  1.0
  Co  Co11  1  0.16666667  0.83333333  0.05646270  1.0
  Co  Co12  1  0.50000000  0.16666667  0.05646270  1.0
  Co  Co13  1  0.50000000  0.50000000  0.05646270  1.0
  Co  Co14  1  0.50000000  0.83333333  0.05646270  1.0
  Co  Co15  1  0.83333333  0.16666667  0.05646270  1.0
  Co  Co16  1  0.83333333  0.50000000  0.05646270  1.0
  Co  Co17  1  0.83333333  0.83333333  0.05646270  1.0
  Co  Co18  1  0.05555556  0.08435500  0.00272142  1.0
  Co  Co19  1  0.05555556  0.41768833  0.00272142  1.0
  Co  Co20  1  0.05555556  0.75102167  0.00272142  1.0
  Co  Co21  1  0.38888889  0.08435500  0.00272142  1.0
  Co  Co22  1  0.38888889  0.41768833  0.00272142  1.0
  Co  Co23  1  0.38888889  0.75102167  0.00272142  1.0
  Co  Co24  1  0.72222222  0.08435500  0.00272142  1.0
  Co  Co25  1  0.72222222  0.41768833  0.00272142  1.0
  Co  Co26  1  0.72222222  0.75102167  0.00272142  1.0
  Co  Co27  1  0.22222222  0.08435500  0.03213319  1.0
  Co  Co28  1  0.22222222  0.41768833  0.03213319  1.0
  Co  Co29  1  0.22222222  0.75102167  0.03213319  1.0
  Co  Co30  1  0.55555556  0.08435500  0.03213319  1.0
  Co  Co31  1  0.55555556  0.41768833  0.03213319  1.0
  Co  Co32  1  0.55555556  0.75102167  0.03213319  1.0
  Co  Co33  1  0.88888889  0.08435500  0.03213319  1.0
  Co  Co34  1  0.88888889  0.41768833  0.03213319  1.0
  Co  Co35  1  0.88888889  0.75102167  0.03213319  1.0
  Co  Co36  1  0.05555556  0.24897833  0.03177260  1.0
  Co  Co37  1  0.05555556  0.58231167  0.03177260  1.0
  Co  Co38  1  0.05555556  0.91564500  0.03177260  1.0
  Co  Co39  1  0.38888889  0.24897833  0.03177260  1.0
  Co  Co40  1  0.38888889  0.58231167  0.03177260  1.0
  Co  Co41  1  0.38888889  0.91564500  0.03177260  1.0
  Co  Co42  1  0.72222222  0.24897833  0.03177260  1.0
  Co  Co43  1  0.72222222  0.58231167  0.03177260  1.0
  Co  Co44  1  0.72222222  0.91564500  0.03177260  1.0
  Co  Co45  1  0.22222222  0.24897833  0.00236083  1.0
  Co  Co46  1  0.22222222  0.58231167  0.00236083  1.0
  Co  Co47  1  0.22222222  0.91564500  0.00236083  1.0
  Co  Co48  1  0.55555556  0.24897833  0.00236083  1.0
  Co  Co49  1  0.55555556  0.58231167  0.00236083  1.0
  Co  Co50  1  0.55555556  0.91564500  0.00236083  1.0
  Co  Co51  1  0.88888889  0.24897833  0.00236083  1.0
  Co  Co52  1  0.88888889  0.58231167  0.00236083  1.0
  Co  Co53  1  0.88888889  0.91564500  0.00236083  1.0
  Ni  Ni54  1  0.00000000  0.00000000  0.05646270  1.0
  Ni  Ni55  1  0.00000000  0.33333333  0.05646270  1.0
  Ni  Ni56  1  0.00000000  0.66666667  0.05646270  1.0
  Ni  Ni57  1  0.33333333  0.00000000  0.05646270  1.0
  Ni  Ni58  1  0.33333333  0.33333333  0.05646270  1.0
  Ni  Ni59  1  0.33333333  0.66666667  0.05646270  1.0
  Ni  Ni60  1  0.66666667  0.00000000  0.05646270  1.0
  Ni  Ni61  1  0.66666667  0.33333333  0.05646270  1.0
  Ni  Ni62  1  0.66666667  0.66666667  0.05646270  1.0
  Ni  Ni63  1  0.16666667  0.00000000  0.02705093  1.0
  Ni  Ni64  1  0.16666667  0.33333333  0.02705093  1.0
  Ni  Ni65  1  0.16666667  0.66666667  0.02705093  1.0
  Ni  Ni66  1  0.50000000  0.00000000  0.02705093  1.0
  Ni  Ni67  1  0.50000000  0.33333333  0.02705093  1.0
  Ni  Ni68  1  0.50000000  0.66666667  0.02705093  1.0
  Ni  Ni69  1  0.83333333  0.00000000  0.02705093  1.0
  Ni  Ni70  1  0.83333333  0.33333333  0.02705093  1.0
  Ni  Ni71  1  0.83333333  0.66666667  0.02705093  1.0
  Co  Co72  1  0.00000000  0.16666667  0.08587446  1.0
  Co  Co73  1  0.00000000  0.50000000  0.08587446  1.0
  Co  Co74  1  0.00000000  0.83333333  0.08587446  1.0
  Co  Co75  1  0.33333333  0.16666667  0.08587446  1.0
  Co  Co76  1  0.33333333  0.50000000  0.08587446  1.0
  Co  Co77  1  0.33333333  0.83333333  0.08587446  1.0
  Co  Co78  1  0.66666667  0.16666667  0.08587446  1.0
  Co  Co79  1  0.66666667  0.50000000  0.08587446  1.0
  Co  Co80  1  0.66666667  0.83333333  0.08587446  1.0
  Co  Co81  1  0.16666667  0.16666667  0.11528623  1.0
  Co  Co82  1  0.16666667  0.50000000  0.11528623  1.0
  Co  Co83  1  0.16666667  0.83333333  0.11528623  1.0
  Co  Co84  1  0.50000000  0.16666667  0.11528623  1.0
  Co  Co85  1  0.50000000  0.50000000  0.11528623  1.0
  Co  Co86  1  0.50000000  0.83333333  0.11528623  1.0
  Co  Co87  1  0.83333333  0.16666667  0.11528623  1.0
  Co  Co88  1  0.83333333  0.50000000  0.11528623  1.0
  Co  Co89  1  0.83333333  0.83333333  0.11528623  1.0
  Co  Co90  1  0.05555556  0.08435500  0.06154495  1.0
  Co  Co91  1  0.05555556  0.41768833  0.06154495  1.0
  Co  Co92  1  0.05555556  0.75102167  0.06154495  1.0
  Co  Co93  1  0.38888889  0.08435500  0.06154495  1.0
  Co  Co94  1  0.38888889  0.41768833  0.06154495  1.0
  Co  Co95  1  0.38888889  0.75102167  0.06154495  1.0
  Co  Co96  1  0.72222222  0.08435500  0.06154495  1.0
  Co  Co97  1  0.72222222  0.41768833  0.06154495  1.0
  Co  Co98  1  0.72222222  0.75102167  0.06154495  1.0
  Co  Co99  1  0.22222222  0.08435500  0.09095672  1.0
  Co  Co100  1  0.22222222  0.41768833  0.09095672  1.0
  Co  Co101  1  0.22222222  0.75102167  0.09095672  1.0
  Co  Co102  1  0.55555556  0.08435500  0.09095672  1.0
  Co  Co103  1  0.55555556  0.41768833  0.09095672  1.0
  Co  Co104  1  0.55555556  0.75102167  0.09095672  1.0
  Co  Co105  1  0.88888889  0.08435500  0.09095672  1.0
  Co  Co106  1  0.88888889  0.41768833  0.09095672  1.0
  Co  Co107  1  0.88888889  0.75102167  0.09095672  1.0
  Co  Co108  1  0.05555556  0.24897833  0.09059613  1.0
  Co  Co109  1  0.05555556  0.58231167  0.09059613  1.0
  Co  Co110  1  0.05555556  0.91564500  0.09059613  1.0
  Co  Co111  1  0.38888889  0.24897833  0.09059613  1.0
  Co  Co112  1  0.38888889  0.58231167  0.09059613  1.0
  Co  Co113  1  0.38888889  0.91564500  0.09059613  1.0
  Co  Co114  1  0.72222222  0.24897833  0.09059613  1.0
  Co  Co115  1  0.72222222  0.58231167  0.09059613  1.0
  Co  Co116  1  0.72222222  0.91564500  0.09059613  1.0
  Co  Co117  1  0.22222222  0.24897833  0.06118436  1.0
  Co  Co118  1  0.22222222  0.58231167  0.06118436  1.0
  Co  Co119  1  0.22222222  0.91564500  0.06118436  1.0
  Co  Co120  1  0.55555556  0.24897833  0.06118436  1.0
  Co  Co121  1  0.55555556  0.58231167  0.06118436  1.0
  Co  Co122  1  0.55555556  0.91564500  0.06118436  1.0
  Co  Co123  1  0.88888889  0.24897833  0.06118436  1.0
  Co  Co124  1  0.88888889  0.58231167  0.06118436  1.0
  Co  Co125  1  0.88888889  0.91564500  0.06118436  1.0
  Ni  Ni126  1  0.00000000  0.00000000  0.11528623  1.0
  Ni  Ni127  1  0.00000000  0.33333333  0.11528623  1.0
  Ni  Ni128  1  0.00000000  0.66666667  0.11528623  1.0
  Ni  Ni129  1  0.33333333  0.00000000  0.11528623  1.0
  Ni  Ni130  1  0.33333333  0.33333333  0.11528623  1.0
  Ni  Ni131  1  0.33333333  0.66666667  0.11528623  1.0
  Ni  Ni132  1  0.66666667  0.00000000  0.11528623  1.0
  Ni  Ni133  1  0.66666667  0.33333333  0.11528623  1.0
  Ni  Ni134  1  0.66666667  0.66666667  0.11528623  1.0
  Ni  Ni135  1  0.16666667  0.00000000  0.08587446  1.0
  Ni  Ni136  1  0.16666667  0.33333333  0.08587446  1.0
  Ni  Ni137  1  0.16666667  0.66666667  0.08587446  1.0
  Ni  Ni138  1  0.50000000  0.00000000  0.08587446  1.0
  Ni  Ni139  1  0.50000000  0.33333333  0.08587446  1.0
  Ni  Ni140  1  0.50000000  0.66666667  0.08587446  1.0
  Ni  Ni141  1  0.83333333  0.00000000  0.08587446  1.0
  Ni  Ni142  1  0.83333333  0.33333333  0.08587446  1.0
  Ni  Ni143  1  0.83333333  0.66666667  0.08587446  1.0
  Co  Co144  1  0.00000000  0.16666667  0.14469799  1.0
  Co  Co145  1  0.00000000  0.50000000  0.14469799  1.0
  Co  Co146  1  0.00000000  0.83333333  0.14469799  1.0
  Co  Co147  1  0.33333333  0.16666667  0.14469799  1.0
  Co  Co148  1  0.33333333  0.50000000  0.14469799  1.0
  Co  Co149  1  0.33333333  0.83333333  0.14469799  1.0
  Co  Co150  1  0.66666667  0.16666667  0.14469799  1.0
  Co  Co151  1  0.66666667  0.50000000  0.14469799  1.0
  Co  Co152  1  0.66666667  0.83333333  0.14469799  1.0
  Co  Co153  1  0.16666667  0.16666667  0.17410975  1.0
  Co  Co154  1  0.16666667  0.50000000  0.17410975  1.0
  Co  Co155  1  0.16666667  0.83333333  0.17410975  1.0
  Co  Co156  1  0.50000000  0.16666667  0.17410975  1.0
  Co  Co157  1  0.50000000  0.50000000  0.17410975  1.0
  Co  Co158  1  0.50000000  0.83333333  0.17410975  1.0
  Co  Co159  1  0.83333333  0.16666667  0.17410975  1.0
  Co  Co160  1  0.83333333  0.50000000  0.17410975  1.0
  Co  Co161  1  0.83333333  0.83333333  0.17410975  1.0
  Co  Co162  1  0.05555556  0.08435500  0.12036848  1.0
  Co  Co163  1  0.05555556  0.41768833  0.12036848  1.0
  Co  Co164  1  0.05555556  0.75102167  0.12036848  1.0
  Co  Co165  1  0.38888889  0.08435500  0.12036848  1.0
  Co  Co166  1  0.38888889  0.41768833  0.12036848  1.0
  Co  Co167  1  0.38888889  0.75102167  0.12036848  1.0
  Co  Co168  1  0.72222222  0.08435500  0.12036848  1.0
  Co  Co169  1  0.72222222  0.41768833  0.12036848  1.0
  Co  Co170  1  0.72222222  0.75102167  0.12036848  1.0
  Co  Co171  1  0.22222222  0.08435500  0.14978025  1.0
  Co  Co172  1  0.22222222  0.41768833  0.14978025  1.0
  Co  Co173  1  0.22222222  0.75102167  0.14978025  1.0
  Co  Co174  1  0.55555556  0.08435500  0.14978025  1.0
  Co  Co175  1  0.55555556  0.41768833  0.14978025  1.0
  Co  Co176  1  0.55555556  0.75102167  0.14978025  1.0
  Co  Co177  1  0.88888889  0.08435500  0.14978025  1.0
  Co  Co178  1  0.88888889  0.41768833  0.14978025  1.0
  Co  Co179  1  0.88888889  0.75102167  0.14978025  1.0
  Co  Co180  1  0.05555556  0.24897833  0.14941966  1.0
  Co  Co181  1  0.05555556  0.58231167  0.14941966  1.0
  Co  Co182  1  0.05555556  0.91564500  0.14941966  1.0
  Co  Co183  1  0.38888889  0.24897833  0.14941966  1.0
  Co  Co184  1  0.38888889  0.58231167  0.14941966  1.0
  Co  Co185  1  0.38888889  0.91564500  0.14941966  1.0
  Co  Co186  1  0.72222222  0.24897833  0.14941966  1.0
  Co  Co187  1  0.72222222  0.58231167  0.14941966  1.0
  Co  Co188  1  0.72222222  0.91564500  0.14941966  1.0
  Co  Co189  1  0.22222222  0.24897833  0.12000789  1.0
  Co  Co190  1  0.22222222  0.58231167  0.12000789  1.0
  Co  Co191  1  0.22222222  0.91564500  0.12000789  1.0
  Co  Co192  1  0.55555556  0.24897833  0.12000789  1.0
  Co  Co193  1  0.55555556  0.58231167  0.12000789  1.0
  Co  Co194  1  0.55555556  0.91564500  0.12000789  1.0
  Co  Co195  1  0.88888889  0.24897833  0.12000789  1.0
  Co  Co196  1  0.88888889  0.58231167  0.12000789  1.0
  Co  Co197  1  0.88888889  0.91564500  0.12000789  1.0
  Ni  Ni198  1  0.00000000  0.00000000  0.17410975  1.0
  Ni  Ni199  1  0.00000000  0.33333333  0.17410975  1.0
  Ni  Ni200  1  0.00000000  0.66666667  0.17410975  1.0
  Ni  Ni201  1  0.33333333  0.00000000  0.17410975  1.0
  Ni  Ni202  1  0.33333333  0.33333333  0.17410975  1.0
  Ni  Ni203  1  0.33333333  0.66666667  0.17410975  1.0
  Ni  Ni204  1  0.66666667  0.00000000  0.17410975  1.0
  Ni  Ni205  1  0.66666667  0.33333333  0.17410975  1.0
  Ni  Ni206  1  0.66666667  0.66666667  0.17410975  1.0
  Ni  Ni207  1  0.16666667  0.00000000  0.14469799  1.0
  Ni  Ni208  1  0.16666667  0.33333333  0.14469799  1.0
  Ni  Ni209  1  0.16666667  0.66666667  0.14469799  1.0
  Ni  Ni210  1  0.50000000  0.00000000  0.14469799  1.0
  Ni  Ni211  1  0.50000000  0.33333333  0.14469799  1.0
  Ni  Ni212  1  0.50000000  0.66666667  0.14469799  1.0
  Ni  Ni213  1  0.83333333  0.00000000  0.14469799  1.0
  Ni  Ni214  1  0.83333333  0.33333333  0.14469799  1.0
  Ni  Ni215  1  0.83333333  0.66666667  0.14469799  1.0
  Co  Co216  1  0.00000000  0.16666667  0.20352152  1.0
  Co  Co217  1  0.00000000  0.50000000  0.20352152  1.0
  Co  Co218  1  0.00000000  0.83333333  0.20352152  1.0
  Co  Co219  1  0.33333333  0.16666667  0.20352152  1.0
  Co  Co220  1  0.33333333  0.50000000  0.20352152  1.0
  Co  Co221  1  0.33333333  0.83333333  0.20352152  1.0
  Co  Co222  1  0.66666667  0.16666667  0.20352152  1.0
  Co  Co223  1  0.66666667  0.50000000  0.20352152  1.0
  Co  Co224  1  0.66666667  0.83333333  0.20352152  1.0
  Co  Co225  1  0.16666667  0.16666667  0.23293328  1.0
  Co  Co226  1  0.16666667  0.50000000  0.23293328  1.0
  Co  Co227  1  0.16666667  0.83333333  0.23293328  1.0
  Co  Co228  1  0.50000000  0.16666667  0.23293328  1.0
  Co  Co229  1  0.50000000  0.50000000  0.23293328  1.0
  Co  Co230  1  0.50000000  0.83333333  0.23293328  1.0
  Co  Co231  1  0.83333333  0.16666667  0.23293328  1.0
  Co  Co232  1  0.83333333  0.50000000  0.23293328  1.0
  Co  Co233  1  0.83333333  0.83333333  0.23293328  1.0
  Co  Co234  1  0.05555556  0.08435500  0.17919201  1.0
  Co  Co235  1  0.05555556  0.41768833  0.17919201  1.0
  Co  Co236  1  0.05555556  0.75102167  0.17919201  1.0
  Co  Co237  1  0.38888889  0.08435500  0.17919201  1.0
  Co  Co238  1  0.38888889  0.41768833  0.17919201  1.0
  Co  Co239  1  0.38888889  0.75102167  0.17919201  1.0
  Co  Co240  1  0.72222222  0.08435500  0.17919201  1.0
  Co  Co241  1  0.72222222  0.41768833  0.17919201  1.0
  Co  Co242  1  0.72222222  0.75102167  0.17919201  1.0
  Co  Co243  1  0.22222222  0.08435500  0.20860377  1.0
  Co  Co244  1  0.22222222  0.41768833  0.20860377  1.0
  Co  Co245  1  0.22222222  0.75102167  0.20860377  1.0
  Co  Co246  1  0.55555556  0.08435500  0.20860377  1.0
  Co  Co247  1  0.55555556  0.41768833  0.20860377  1.0
  Co  Co248  1  0.55555556  0.75102167  0.20860377  1.0
  Co  Co249  1  0.88888889  0.08435500  0.20860377  1.0
  Co  Co250  1  0.88888889  0.41768833  0.20860377  1.0
  Co  Co251  1  0.88888889  0.75102167  0.20860377  1.0
  Co  Co252  1  0.05555556  0.24897833  0.20824319  1.0
  Co  Co253  1  0.05555556  0.58231167  0.20824319  1.0
  Co  Co254  1  0.05555556  0.91564500  0.20824319  1.0
  Co  Co255  1  0.38888889  0.24897833  0.20824319  1.0
  Co  Co256  1  0.38888889  0.58231167  0.20824319  1.0
  Co  Co257  1  0.38888889  0.91564500  0.20824319  1.0
  Co  Co258  1  0.72222222  0.24897833  0.20824319  1.0
  Co  Co259  1  0.72222222  0.58231167  0.20824319  1.0
  Co  Co260  1  0.72222222  0.91564500  0.20824319  1.0
  Co  Co261  1  0.22222222  0.24897833  0.17883142  1.0
  Co  Co262  1  0.22222222  0.58231167  0.17883142  1.0
  Co  Co263  1  0.22222222  0.91564500  0.17883142  1.0
  Co  Co264  1  0.55555556  0.24897833  0.17883142  1.0
  Co  Co265  1  0.55555556  0.58231167  0.17883142  1.0
  Co  Co266  1  0.55555556  0.91564500  0.17883142  1.0
  Co  Co267  1  0.88888889  0.24897833  0.17883142  1.0
  Co  Co268  1  0.88888889  0.58231167  0.17883142  1.0
  Co  Co269  1  0.88888889  0.91564500  0.17883142  1.0
  Ni  Ni270  1  0.00000000  0.00000000  0.23293328  1.0
  Ni  Ni271  1  0.00000000  0.33333333  0.23293328  1.0
  Ni  Ni272  1  0.00000000  0.66666667  0.23293328  1.0
  Ni  Ni273  1  0.33333333  0.00000000  0.23293328  1.0
  Ni  Ni274  1  0.33333333  0.33333333  0.23293328  1.0
  Ni  Ni275  1  0.33333333  0.66666667  0.23293328  1.0
  Ni  Ni276  1  0.66666667  0.00000000  0.23293328  1.0
  Ni  Ni277  1  0.66666667  0.33333333  0.23293328  1.0
  Ni  Ni278  1  0.66666667  0.66666667  0.23293328  1.0
  Ni  Ni279  1  0.16666667  0.00000000  0.20352152  1.0
  Ni  Ni280  1  0.16666667  0.33333333  0.20352152  1.0
  Ni  Ni281  1  0.16666667  0.66666667  0.20352152  1.0
  Ni  Ni282  1  0.50000000  0.00000000  0.20352152  1.0
  Ni  Ni283  1  0.50000000  0.33333333  0.20352152  1.0
  Ni  Ni284  1  0.50000000  0.66666667  0.20352152  1.0
  Ni  Ni285  1  0.83333333  0.00000000  0.20352152  1.0
  Ni  Ni286  1  0.83333333  0.33333333  0.20352152  1.0
  Ni  Ni287  1  0.83333333  0.66666667  0.20352152  1.0
  Co  Co288  1  0.00000000  0.16666667  0.26234505  1.0
  Co  Co289  1  0.00000000  0.50000000  0.26234505  1.0
  Co  Co290  1  0.00000000  0.83333333  0.26234505  1.0
  Co  Co291  1  0.33333333  0.16666667  0.26234505  1.0
  Co  Co292  1  0.33333333  0.50000000  0.26234505  1.0
  Co  Co293  1  0.33333333  0.83333333  0.26234505  1.0
  Co  Co294  1  0.66666667  0.16666667  0.26234505  1.0
  Co  Co295  1  0.66666667  0.50000000  0.26234505  1.0
  Co  Co296  1  0.66666667  0.83333333  0.26234505  1.0
  Co  Co297  1  0.16666667  0.16666667  0.29175681  1.0
  Co  Co298  1  0.16666667  0.50000000  0.29175681  1.0
  Co  Co299  1  0.16666667  0.83333333  0.29175681  1.0
  Co  Co300  1  0.50000000  0.16666667  0.29175681  1.0
  Co  Co301  1  0.50000000  0.50000000  0.29175681  1.0
  Co  Co302  1  0.50000000  0.83333333  0.29175681  1.0
  Co  Co303  1  0.83333333  0.16666667  0.29175681  1.0
  Co  Co304  1  0.83333333  0.50000000  0.29175681  1.0
  Co  Co305  1  0.83333333  0.83333333  0.29175681  1.0
  Co  Co306  1  0.05555556  0.08435500  0.23801554  1.0
  Co  Co307  1  0.05555556  0.41768833  0.23801554  1.0
  Co  Co308  1  0.05555556  0.75102167  0.23801554  1.0
  Co  Co309  1  0.38888889  0.08435500  0.23801554  1.0
  Co  Co310  1  0.38888889  0.41768833  0.23801554  1.0
  Co  Co311  1  0.38888889  0.75102167  0.23801554  1.0
  Co  Co312  1  0.72222222  0.08435500  0.23801554  1.0
  Co  Co313  1  0.72222222  0.41768833  0.23801554  1.0
  Co  Co314  1  0.72222222  0.75102167  0.23801554  1.0
  Co  Co315  1  0.22222222  0.08435500  0.26742730  1.0
  Co  Co316  1  0.22222222  0.41768833  0.26742730  1.0
  Co  Co317  1  0.22222222  0.75102167  0.26742730  1.0
  Co  Co318  1  0.55555556  0.08435500  0.26742730  1.0
  Co  Co319  1  0.55555556  0.41768833  0.26742730  1.0
  Co  Co320  1  0.55555556  0.75102167  0.26742730  1.0
  Co  Co321  1  0.88888889  0.08435500  0.26742730  1.0
  Co  Co322  1  0.88888889  0.41768833  0.26742730  1.0
  Co  Co323  1  0.88888889  0.75102167  0.26742730  1.0
  Co  Co324  1  0.05555556  0.24897833  0.26706672  1.0
  Co  Co325  1  0.05555556  0.58231167  0.26706672  1.0
  Co  Co326  1  0.05555556  0.91564500  0.26706672  1.0
  Co  Co327  1  0.38888889  0.24897833  0.26706672  1.0
  Co  Co328  1  0.38888889  0.58231167  0.26706672  1.0
  Co  Co329  1  0.38888889  0.91564500  0.26706672  1.0
  Co  Co330  1  0.72222222  0.24897833  0.26706672  1.0
  Co  Co331  1  0.72222222  0.58231167  0.26706672  1.0
  Co  Co332  1  0.72222222  0.91564500  0.26706672  1.0
  Co  Co333  1  0.22222222  0.24897833  0.23765495  1.0
  Co  Co334  1  0.22222222  0.58231167  0.23765495  1.0
  Co  Co335  1  0.22222222  0.91564500  0.23765495  1.0
  Co  Co336  1  0.55555556  0.24897833  0.23765495  1.0
  Co  Co337  1  0.55555556  0.58231167  0.23765495  1.0
  Co  Co338  1  0.55555556  0.91564500  0.23765495  1.0
  Co  Co339  1  0.88888889  0.24897833  0.23765495  1.0
  Co  Co340  1  0.88888889  0.58231167  0.23765495  1.0
  Co  Co341  1  0.88888889  0.91564500  0.23765495  1.0
  Ni  Ni342  1  0.00000000  0.00000000  0.29175681  1.0
  Ni  Ni343  1  0.00000000  0.33333333  0.29175681  1.0
  Ni  Ni344  1  0.00000000  0.66666667  0.29175681  1.0
  Ni  Ni345  1  0.33333333  0.00000000  0.29175681  1.0
  Ni  Ni346  1  0.33333333  0.33333333  0.29175681  1.0
  Ni  Ni347  1  0.33333333  0.66666667  0.29175681  1.0
  Ni  Ni348  1  0.66666667  0.00000000  0.29175681  1.0
  Ni  Ni349  1  0.66666667  0.33333333  0.29175681  1.0
  Ni  Ni350  1  0.66666667  0.66666667  0.29175681  1.0
  Ni  Ni351  1  0.16666667  0.00000000  0.26234505  1.0
  Ni  Ni352  1  0.16666667  0.33333333  0.26234505  1.0
  Ni  Ni353  1  0.16666667  0.66666667  0.26234505  1.0
  Ni  Ni354  1  0.50000000  0.00000000  0.26234505  1.0
  Ni  Ni355  1  0.50000000  0.33333333  0.26234505  1.0
  Ni  Ni356  1  0.50000000  0.66666667  0.26234505  1.0
  Ni  Ni357  1  0.83333333  0.00000000  0.26234505  1.0
  Ni  Ni358  1  0.83333333  0.33333333  0.26234505  1.0
  Ni  Ni359  1  0.83333333  0.66666667  0.26234505  1.0
  Co  Co360  1  0.00000000  0.16666667  0.32116858  1.0
  Co  Co361  1  0.00000000  0.50000000  0.32116858  1.0
  Co  Co362  1  0.00000000  0.83333333  0.32116858  1.0
  Co  Co363  1  0.33333333  0.16666667  0.32116858  1.0
  Co  Co364  1  0.33333333  0.50000000  0.32116858  1.0
  Co  Co365  1  0.33333333  0.83333333  0.32116858  1.0
  Co  Co366  1  0.66666667  0.16666667  0.32116858  1.0
  Co  Co367  1  0.66666667  0.50000000  0.32116858  1.0
  Co  Co368  1  0.66666667  0.83333333  0.32116858  1.0
  Co  Co369  1  0.16666667  0.16666667  0.35058034  1.0
  Co  Co370  1  0.16666667  0.50000000  0.35058034  1.0
  Co  Co371  1  0.16666667  0.83333333  0.35058034  1.0
  Co  Co372  1  0.50000000  0.16666667  0.35058034  1.0
  Co  Co373  1  0.50000000  0.50000000  0.35058034  1.0
  Co  Co374  1  0.50000000  0.83333333  0.35058034  1.0
  Co  Co375  1  0.83333333  0.16666667  0.35058034  1.0
  Co  Co376  1  0.83333333  0.50000000  0.35058034  1.0
  Co  Co377  1  0.83333333  0.83333333  0.35058034  1.0
  Co  Co378  1  0.05555556  0.08435500  0.29683907  1.0
  Co  Co379  1  0.05555556  0.41768833  0.29683907  1.0
  Co  Co380  1  0.05555556  0.75102167  0.29683907  1.0
  Co  Co381  1  0.38888889  0.08435500  0.29683907  1.0
  Co  Co382  1  0.38888889  0.41768833  0.29683907  1.0
  Co  Co383  1  0.38888889  0.75102167  0.29683907  1.0
  Co  Co384  1  0.72222222  0.08435500  0.29683907  1.0
  Co  Co385  1  0.72222222  0.41768833  0.29683907  1.0
  Co  Co386  1  0.72222222  0.75102167  0.29683907  1.0
  Co  Co387  1  0.22222222  0.08435500  0.32625083  1.0
  Co  Co388  1  0.22222222  0.41768833  0.32625083  1.0
  Co  Co389  1  0.22222222  0.75102167  0.32625083  1.0
  Co  Co390  1  0.55555556  0.08435500  0.32625083  1.0
  Co  Co391  1  0.55555556  0.41768833  0.32625083  1.0
  Co  Co392  1  0.55555556  0.75102167  0.32625083  1.0
  Co  Co393  1  0.88888889  0.08435500  0.32625083  1.0
  Co  Co394  1  0.88888889  0.41768833  0.32625083  1.0
  Co  Co395  1  0.88888889  0.75102167  0.32625083  1.0
  Co  Co396  1  0.05555556  0.24897833  0.32589025  1.0
  Co  Co397  1  0.05555556  0.58231167  0.32589025  1.0
  Co  Co398  1  0.05555556  0.91564500  0.32589025  1.0
  Co  Co399  1  0.38888889  0.24897833  0.32589025  1.0
  Co  Co400  1  0.38888889  0.58231167  0.32589025  1.0
  Co  Co401  1  0.38888889  0.91564500  0.32589025  1.0
  Co  Co402  1  0.72222222  0.24897833  0.32589025  1.0
  Co  Co403  1  0.72222222  0.58231167  0.32589025  1.0
  Co  Co404  1  0.72222222  0.91564500  0.32589025  1.0
  Co  Co405  1  0.22222222  0.24897833  0.29647848  1.0
  Co  Co406  1  0.22222222  0.58231167  0.29647848  1.0
  Co  Co407  1  0.22222222  0.91564500  0.29647848  1.0
  Co  Co408  1  0.55555556  0.24897833  0.29647848  1.0
  Co  Co409  1  0.55555556  0.58231167  0.29647848  1.0
  Co  Co410  1  0.55555556  0.91564500  0.29647848  1.0
  Co  Co411  1  0.88888889  0.24897833  0.29647848  1.0
  Co  Co412  1  0.88888889  0.58231167  0.29647848  1.0
  Co  Co413  1  0.88888889  0.91564500  0.29647848  1.0
  Ni  Ni414  1  0.00000000  0.00000000  0.35058034  1.0
  Ni  Ni415  1  0.00000000  0.33333333  0.35058034  1.0
  Ni  Ni416  1  0.00000000  0.66666667  0.35058034  1.0
  Ni  Ni417  1  0.33333333  0.00000000  0.35058034  1.0
  Ni  Ni418  1  0.33333333  0.33333333  0.35058034  1.0
  Ni  Ni419  1  0.33333333  0.66666667  0.35058034  1.0
  Ni  Ni420  1  0.66666667  0.00000000  0.35058034  1.0
  Ni  Ni421  1  0.66666667  0.33333333  0.35058034  1.0
  Ni  Ni422  1  0.66666667  0.66666667  0.35058034  1.0
  Ni  Ni423  1  0.16666667  0.00000000  0.32116858  1.0
  Ni  Ni424  1  0.16666667  0.33333333  0.32116858  1.0
  Ni  Ni425  1  0.16666667  0.66666667  0.32116858  1.0
  Ni  Ni426  1  0.50000000  0.00000000  0.32116858  1.0
  Ni  Ni427  1  0.50000000  0.33333333  0.32116858  1.0
  Ni  Ni428  1  0.50000000  0.66666667  0.32116858  1.0
  Ni  Ni429  1  0.83333333  0.00000000  0.32116858  1.0
  Ni  Ni430  1  0.83333333  0.33333333  0.32116858  1.0
  Ni  Ni431  1  0.83333333  0.66666667  0.32116858  1.0
  Co  Co432  1  0.00000000  0.16666667  0.37999211  1.0
  Co  Co433  1  0.00000000  0.50000000  0.37999211  1.0
  Co  Co434  1  0.00000000  0.83333333  0.37999211  1.0
  Co  Co435  1  0.33333333  0.16666667  0.37999211  1.0
  Co  Co436  1  0.33333333  0.50000000  0.37999211  1.0
  Co  Co437  1  0.33333333  0.83333333  0.37999211  1.0
  Co  Co438  1  0.66666667  0.16666667  0.37999211  1.0
  Co  Co439  1  0.66666667  0.50000000  0.37999211  1.0
  Co  Co440  1  0.66666667  0.83333333  0.37999211  1.0
  Co  Co441  1  0.16666667  0.16666667  0.40940387  1.0
  Co  Co442  1  0.16666667  0.50000000  0.40940387  1.0
  Co  Co443  1  0.16666667  0.83333333  0.40940387  1.0
  Co  Co444  1  0.50000000  0.16666667  0.40940387  1.0
  Co  Co445  1  0.50000000  0.50000000  0.40940387  1.0
  Co  Co446  1  0.50000000  0.83333333  0.40940387  1.0
  Co  Co447  1  0.83333333  0.16666667  0.40940387  1.0
  Co  Co448  1  0.83333333  0.50000000  0.40940387  1.0
  Co  Co449  1  0.83333333  0.83333333  0.40940387  1.0
  Co  Co450  1  0.05555556  0.08435500  0.35566260  1.0
  Co  Co451  1  0.05555556  0.41768833  0.35566260  1.0
  Co  Co452  1  0.05555556  0.75102167  0.35566260  1.0
  Co  Co453  1  0.38888889  0.08435500  0.35566260  1.0
  Co  Co454  1  0.38888889  0.41768833  0.35566260  1.0
  Co  Co455  1  0.38888889  0.75102167  0.35566260  1.0
  Co  Co456  1  0.72222222  0.08435500  0.35566260  1.0
  Co  Co457  1  0.72222222  0.41768833  0.35566260  1.0
  Co  Co458  1  0.72222222  0.75102167  0.35566260  1.0
  Co  Co459  1  0.22222222  0.08435500  0.38507436  1.0
  Co  Co460  1  0.22222222  0.41768833  0.38507436  1.0
  Co  Co461  1  0.22222222  0.75102167  0.38507436  1.0
  Co  Co462  1  0.55555556  0.08435500  0.38507436  1.0
  Co  Co463  1  0.55555556  0.41768833  0.38507436  1.0
  Co  Co464  1  0.55555556  0.75102167  0.38507436  1.0
  Co  Co465  1  0.88888889  0.08435500  0.38507436  1.0
  Co  Co466  1  0.88888889  0.41768833  0.38507436  1.0
  Co  Co467  1  0.88888889  0.75102167  0.38507436  1.0
  Co  Co468  1  0.05555556  0.24897833  0.38471377  1.0
  Co  Co469  1  0.05555556  0.58231167  0.38471377  1.0
  Co  Co470  1  0.05555556  0.91564500  0.38471377  1.0
  Co  Co471  1  0.38888889  0.24897833  0.38471377  1.0
  Co  Co472  1  0.38888889  0.58231167  0.38471377  1.0
  Co  Co473  1  0.38888889  0.91564500  0.38471377  1.0
  Co  Co474  1  0.72222222  0.24897833  0.38471377  1.0
  Co  Co475  1  0.72222222  0.58231167  0.38471377  1.0
  Co  Co476  1  0.72222222  0.91564500  0.38471377  1.0
  Co  Co477  1  0.22222222  0.24897833  0.35530201  1.0
  Co  Co478  1  0.22222222  0.58231167  0.35530201  1.0
  Co  Co479  1  0.22222222  0.91564500  0.35530201  1.0
  Co  Co480  1  0.55555556  0.24897833  0.35530201  1.0
  Co  Co481  1  0.55555556  0.58231167  0.35530201  1.0
  Co  Co482  1  0.55555556  0.91564500  0.35530201  1.0
  Co  Co483  1  0.88888889  0.24897833  0.35530201  1.0
  Co  Co484  1  0.88888889  0.58231167  0.35530201  1.0
  Co  Co485  1  0.88888889  0.91564500  0.35530201  1.0
  Ni  Ni486  1  0.00000000  0.00000000  0.40940387  1.0
  Ni  Ni487  1  0.00000000  0.33333333  0.40940387  1.0
  Ni  Ni488  1  0.00000000  0.66666667  0.40940387  1.0
  Ni  Ni489  1  0.33333333  0.00000000  0.40940387  1.0
  Ni  Ni490  1  0.33333333  0.33333333  0.40940387  1.0
  Ni  Ni491  1  0.33333333  0.66666667  0.40940387  1.0
  Ni  Ni492  1  0.66666667  0.00000000  0.40940387  1.0
  Ni  Ni493  1  0.66666667  0.33333333  0.40940387  1.0
  Ni  Ni494  1  0.66666667  0.66666667  0.40940387  1.0
  Ni  Ni495  1  0.16666667  0.00000000  0.37999211  1.0
  Ni  Ni496  1  0.16666667  0.33333333  0.37999211  1.0
  Ni  Ni497  1  0.16666667  0.66666667  0.37999211  1.0
  Ni  Ni498  1  0.50000000  0.00000000  0.37999211  1.0
  Ni  Ni499  1  0.50000000  0.33333333  0.37999211  1.0
  Ni  Ni500  1  0.50000000  0.66666667  0.37999211  1.0
  Ni  Ni501  1  0.83333333  0.00000000  0.37999211  1.0
  Ni  Ni502  1  0.83333333  0.33333333  0.37999211  1.0
  Ni  Ni503  1  0.83333333  0.66666667  0.37999211  1.0
