# generated using pymatgen
data_Co3Ni
_symmetry_space_group_name_H-M   'P 1'
_cell_length_a   7.51310580
_cell_length_b   7.51310580
_cell_length_c   32.47666400
_cell_angle_alpha   90.00000000
_cell_angle_beta   90.00000000
_cell_angle_gamma   120.00000000
_symmetry_Int_Tables_number   1
_chemical_formula_structural   Co3Ni
_chemical_formula_sum   'Co54 Ni18'
_cell_volume   1587.59986444
_cell_formula_units_Z   18
loop_
 _symmetry_equiv_pos_site_id
 _symmetry_equiv_pos_as_xyz
  1  'x, y, z'
loop_
 _atom_site_type_symbol
 _atom_site_label
 _atom_site_symmetry_multiplicity
 _atom_site_fract_x
 _atom_site_fract_y
 _atom_site_fract_z
 _atom_site_occupancy
  Co  Co0  1  0.00000000  0.00000000  0.09336688  1.0
  Co  Co1  1  0.00000000  0.33333333  0.09336688  1.0
  Co  Co2  1  0.00000000  0.66666667  0.09336688  1.0
  Co  Co3  1  0.33333333  0.00000000  0.09336688  1.0
  Co  Co4  1  0.33333333  0.33333333  0.09336688  1.0
  Co  Co5  1  0.33333333  0.66666667  0.09336688  1.0
  Co  Co6  1  0.66666667  0.00000000  0.09336688  1.0
  Co  Co7  1  0.66666667  0.33333333  0.09336688  1.0
  Co  Co8  1  0.66666667  0.66666667  0.09336688  1.0
  Co  Co9  1  0.22222222  0.11111111  0.03163312  1.0
  Co  Co10  1  0.22222222  0.44444444  0.03163313  1.0
  Co  Co11  1  0.22222222  0.77777778  0.03163312  1.0
  Co  Co12  1  0.55555556  0.11111111  0.03163313  1.0
  Co  Co13  1  0.55555556  0.44444444  0.03163312  1.0
  Co  Co14  1  0.55555556  0.77777778  0.03163312  1.0
  Co  Co15  1  0.88888889  0.11111111  0.03163312  1.0
  Co  Co16  1  0.88888889  0.44444444  0.03163312  1.0
  Co  Co17  1  0.88888889  0.77777778  0.03163313  1.0
  Co  Co18  1  0.22222222  0.11111111  0.15510062  1.0
  Co  Co19  1  0.22222222  0.44444444  0.15510062  1.0
  Co  Co20  1  0.22222222  0.77777778  0.15510062  1.0
  Co  Co21  1  0.55555556  0.11111111  0.15510062  1.0
  Co  Co22  1  0.55555556  0.44444444  0.15510062  1.0
  Co  Co23  1  0.55555556  0.77777778  0.15510062  1.0
  Co  Co24  1  0.88888889  0.11111111  0.15510062  1.0
  Co  Co25  1  0.88888889  0.44444444  0.15510062  1.0
  Co  Co26  1  0.88888889  0.77777778  0.15510062  1.0
  Ni  Ni27  1  0.00000000  0.00000000  0.21836688  1.0
  Ni  Ni28  1  0.00000000  0.33333333  0.21836688  1.0
  Ni  Ni29  1  0.00000000  0.66666667  0.21836688  1.0
  Ni  Ni30  1  0.33333333  0.00000000  0.21836688  1.0
  Ni  Ni31  1  0.33333333  0.33333333  0.21836688  1.0
  Ni  Ni32  1  0.33333333  0.66666667  0.21836688  1.0
  Ni  Ni33  1  0.66666667  0.00000000  0.21836688  1.0
  Ni  Ni34  1  0.66666667  0.33333333  0.21836688  1.0
  Ni  Ni35  1  0.66666667  0.66666667  0.21836688  1.0
  Co  Co36  1  0.00000000  0.00000000  0.34336688  1.0
  Co  Co37  1  0.00000000  0.33333333  0.34336688  1.0
  Co  Co38  1  0.00000000  0.66666667  0.34336688  1.0
  Co  Co39  1  0.33333333  0.00000000  0.34336688  1.0
  Co  Co40  1  0.33333333  0.33333333  0.34336688  1.0
  Co  Co41  1  0.33333333  0.66666667  0.34336688  1.0
  Co  Co42  1  0.66666667  0.00000000  0.34336688  1.0
  Co  Co43  1  0.66666667  0.33333333  0.34336688  1.0
  Co  Co44  1  0.66666667  0.66666667  0.34336688  1.0
  Co  Co45  1  0.22222222  0.11111111  0.28163312  1.0
  Co  Co46  1  0.22222222  0.44444444  0.28163312  1.0
  Co  Co47  1  0.22222222  0.77777778  0.28163312  1.0
  Co  Co48  1  0.55555556  0.11111111  0.28163312  1.0
  Co  Co49  1  0.55555556  0.44444444  0.28163312  1.0
  Co  Co50  1  0.55555556  0.77777778  0.28163312  1.0
  Co  Co51  1  0.88888889  0.11111111  0.28163312  1.0
  Co  Co52  1  0.88888889  0.44444444  0.28163312  1.0
  Co  Co53  1  0.88888889  0.77777778  0.28163312  1.0
  Co  Co54  1  0.22222222  0.11111111  0.40510063  1.0
  Co  Co55  1  0.22222222  0.44444444  0.40510063  1.0
  Co  Co56  1  0.22222222  0.77777778  0.40510063  1.0
  Co  Co57  1  0.55555556  0.11111111  0.40510063  1.0
  Co  Co58  1  0.55555556  0.44444444  0.40510063  1.0
  Co  Co59  1  0.55555556  0.77777778  0.40510063  1.0
  Co  Co60  1  0.88888889  0.11111111  0.40510063  1.0
  Co  Co61  1  0.88888889  0.44444444  0.40510063  1.0
  Co  Co62  1  0.88888889  0.77777778  0.40510063  1.0
  Ni  Ni63  1  0.00000000  0.00000000  0.46836688  1.0
  Ni  Ni64  1  0.00000000  0.33333333  0.46836688  1.0
  Ni  Ni65  1  0.00000000  0.66666667  0.46836688  1.0
  Ni  Ni66  1  0.33333333  0.00000000  0.46836688  1.0
  Ni  Ni67  1  0.33333333  0.33333333  0.46836688  1.0
  Ni  Ni68  1  0.33333333  0.66666667  0.46836688  1.0
  Ni  Ni69  1  0.66666667  0.00000000  0.46836688  1.0
  Ni  Ni70  1  0.66666667  0.33333333  0.46836688  1.0
  Ni  Ni71  1  0.66666667  0.66666667  0.46836688  1.0
