# generated using pymatgen
data_Co3Ni
_symmetry_space_group_name_H-M   'P 1'
_cell_length_a   19.87780952
_cell_length_b   25.48988952
_cell_length_c   27.88746848
_cell_angle_alpha   83.92231640
_cell_angle_beta   88.05488092
_cell_angle_gamma   73.82863620
_symmetry_Int_Tables_number   1
_chemical_formula_structural   Co3Ni
_chemical_formula_sum   'Co378 Ni126'
_cell_volume   13494.59884776
_cell_formula_units_Z   126
loop_
 _symmetry_equiv_pos_site_id
 _symmetry_equiv_pos_as_xyz
  1  'x, y, z'
loop_
 _atom_site_type_symbol
 _atom_site_label
 _atom_site_symmetry_multiplicity
 _atom_site_fract_x
 _atom_site_fract_y
 _atom_site_fract_z
 _atom_site_occupancy
  Co  Co0  1  0.26437251  0.16666667  0.99137650  1.0
  Co  Co1  1  0.26437251  0.50000000  0.99137650  1.0
  Co  Co2  1  0.26437251  0.83333333  0.99137650  1.0
  Co  Co3  1  0.59770584  0.16666667  0.99137650  1.0
  Co  Co4  1  0.59770584  0.50000000  0.99137650  1.0
  Co  Co5  1  0.59770584  0.83333333  0.99137650  1.0
  Co  Co6  1  0.93103917  0.16666667  0.99137650  1.0
  Co  Co7  1  0.93103917  0.50000000  0.99137650  1.0
  Co  Co8  1  0.93103917  0.83333333  0.99137650  1.0
  Co  Co9  1  0.14672545  0.16666667  0.96196473  1.0
  Co  Co10  1  0.14672545  0.50000000  0.96196473  1.0
  Co  Co11  1  0.14672545  0.83333333  0.96196473  1.0
  Co  Co12  1  0.48005878  0.16666667  0.96196473  1.0
  Co  Co13  1  0.48005878  0.50000000  0.96196473  1.0
  Co  Co14  1  0.48005878  0.83333333  0.96196473  1.0
  Co  Co15  1  0.81339212  0.16666667  0.96196473  1.0
  Co  Co16  1  0.81339212  0.50000000  0.96196473  1.0
  Co  Co17  1  0.81339212  0.83333333  0.96196473  1.0
  Co  Co18  1  0.31956748  0.08435500  0.94961968  1.0
  Co  Co19  1  0.31956748  0.41768833  0.94961968  1.0
  Co  Co20  1  0.31956748  0.75102167  0.94961968  1.0
  Co  Co21  1  0.65290081  0.08435500  0.94961968  1.0
  Co  Co22  1  0.65290081  0.41768833  0.94961968  1.0
  Co  Co23  1  0.65290081  0.75102167  0.94961968  1.0
  Co  Co24  1  0.98623414  0.08435500  0.94961968  1.0
  Co  Co25  1  0.98623414  0.41768833  0.94961968  1.0
  Co  Co26  1  0.98623414  0.75102167  0.94961968  1.0
  Co  Co27  1  0.10388120  0.08435500  0.97903145  1.0
  Co  Co28  1  0.10388120  0.41768833  0.97903145  1.0
  Co  Co29  1  0.10388120  0.75102167  0.97903145  1.0
  Co  Co30  1  0.43721453  0.08435500  0.97903145  1.0
  Co  Co31  1  0.43721453  0.41768833  0.97903145  1.0
  Co  Co32  1  0.43721453  0.75102167  0.97903145  1.0
  Co  Co33  1  0.77054787  0.08435500  0.97903145  1.0
  Co  Co34  1  0.77054787  0.41768833  0.97903145  1.0
  Co  Co35  1  0.77054787  0.75102167  0.97903145  1.0
  Co  Co36  1  0.16342591  0.24897833  0.99391762  1.0
  Co  Co37  1  0.16342591  0.58231167  0.99391762  1.0
  Co  Co38  1  0.16342591  0.91564500  0.99391762  1.0
  Co  Co39  1  0.49675924  0.24897833  0.99391762  1.0
  Co  Co40  1  0.49675924  0.58231167  0.99391762  1.0
  Co  Co41  1  0.49675924  0.91564500  0.99391762  1.0
  Co  Co42  1  0.83009257  0.24897833  0.99391762  1.0
  Co  Co43  1  0.83009257  0.58231167  0.99391762  1.0
  Co  Co44  1  0.83009257  0.91564500  0.99391762  1.0
  Co  Co45  1  0.04577885  0.24897833  0.96450586  1.0
  Co  Co46  1  0.04577885  0.58231167  0.96450586  1.0
  Co  Co47  1  0.04577885  0.91564500  0.96450586  1.0
  Co  Co48  1  0.37911218  0.24897833  0.96450586  1.0
  Co  Co49  1  0.37911218  0.58231167  0.96450586  1.0
  Co  Co50  1  0.37911218  0.91564500  0.96450586  1.0
  Co  Co51  1  0.71244551  0.24897833  0.96450586  1.0
  Co  Co52  1  0.71244551  0.58231167  0.96450586  1.0
  Co  Co53  1  0.71244551  0.91564500  0.96450586  1.0
  Co  Co54  1  0.02907839  0.16666667  0.93255297  1.0
  Co  Co55  1  0.02907839  0.50000000  0.93255297  1.0
  Co  Co56  1  0.02907839  0.83333333  0.93255297  1.0
  Co  Co57  1  0.36241172  0.16666667  0.93255297  1.0
  Co  Co58  1  0.36241172  0.50000000  0.93255297  1.0
  Co  Co59  1  0.36241172  0.83333333  0.93255297  1.0
  Co  Co60  1  0.69574506  0.16666667  0.93255297  1.0
  Co  Co61  1  0.69574506  0.50000000  0.93255297  1.0
  Co  Co62  1  0.69574506  0.83333333  0.93255297  1.0
  Co  Co63  1  0.24476467  0.16666667  0.90314120  1.0
  Co  Co64  1  0.24476467  0.50000000  0.90314120  1.0
  Co  Co65  1  0.24476467  0.83333333  0.90314120  1.0
  Co  Co66  1  0.57809800  0.16666667  0.90314120  1.0
  Co  Co67  1  0.57809800  0.50000000  0.90314120  1.0
  Co  Co68  1  0.57809800  0.83333333  0.90314120  1.0
  Co  Co69  1  0.91143133  0.16666667  0.90314120  1.0
  Co  Co70  1  0.91143133  0.50000000  0.90314120  1.0
  Co  Co71  1  0.91143133  0.83333333  0.90314120  1.0
  Co  Co72  1  0.08427336  0.08435500  0.89079615  1.0
  Co  Co73  1  0.08427336  0.41768833  0.89079615  1.0
  Co  Co74  1  0.08427336  0.75102167  0.89079615  1.0
  Co  Co75  1  0.41760669  0.08435500  0.89079615  1.0
  Co  Co76  1  0.41760669  0.41768833  0.89079615  1.0
  Co  Co77  1  0.41760669  0.75102167  0.89079615  1.0
  Co  Co78  1  0.75094002  0.08435500  0.89079615  1.0
  Co  Co79  1  0.75094002  0.41768833  0.89079615  1.0
  Co  Co80  1  0.75094002  0.75102167  0.89079615  1.0
  Co  Co81  1  0.20192042  0.08435500  0.92020792  1.0
  Co  Co82  1  0.20192042  0.41768833  0.92020792  1.0
  Co  Co83  1  0.20192042  0.75102167  0.92020792  1.0
  Co  Co84  1  0.53525375  0.08435500  0.92020792  1.0
  Co  Co85  1  0.53525375  0.41768833  0.92020792  1.0
  Co  Co86  1  0.53525375  0.75102167  0.92020792  1.0
  Co  Co87  1  0.86858708  0.08435500  0.92020792  1.0
  Co  Co88  1  0.86858708  0.41768833  0.92020792  1.0
  Co  Co89  1  0.86858708  0.75102167  0.92020792  1.0
  Co  Co90  1  0.26146512  0.24897833  0.93509409  1.0
  Co  Co91  1  0.26146512  0.58231167  0.93509409  1.0
  Co  Co92  1  0.26146512  0.91564500  0.93509409  1.0
  Co  Co93  1  0.59479846  0.24897833  0.93509409  1.0
  Co  Co94  1  0.59479846  0.58231167  0.93509409  1.0
  Co  Co95  1  0.59479846  0.91564500  0.93509409  1.0
  Co  Co96  1  0.92813179  0.24897833  0.93509409  1.0
  Co  Co97  1  0.92813179  0.58231167  0.93509409  1.0
  Co  Co98  1  0.92813179  0.91564500  0.93509409  1.0
  Co  Co99  1  0.14381806  0.24897833  0.90568233  1.0
  Co  Co100  1  0.14381806  0.58231167  0.90568233  1.0
  Co  Co101  1  0.14381806  0.91564500  0.90568233  1.0
  Co  Co102  1  0.47715140  0.24897833  0.90568233  1.0
  Co  Co103  1  0.47715140  0.58231167  0.90568233  1.0
  Co  Co104  1  0.47715140  0.91564500  0.90568233  1.0
  Co  Co105  1  0.81048473  0.24897833  0.90568233  1.0
  Co  Co106  1  0.81048473  0.58231167  0.90568233  1.0
  Co  Co107  1  0.81048473  0.91564500  0.90568233  1.0
  Co  Co108  1  0.12711761  0.16666667  0.87372944  1.0
  Co  Co109  1  0.12711761  0.50000000  0.87372944  1.0
  Co  Co110  1  0.12711761  0.83333333  0.87372944  1.0
  Co  Co111  1  0.46045094  0.16666667  0.87372944  1.0
  Co  Co112  1  0.46045094  0.50000000  0.87372944  1.0
  Co  Co113  1  0.46045094  0.83333333  0.87372944  1.0
  Co  Co114  1  0.79378427  0.16666667  0.87372944  1.0
  Co  Co115  1  0.79378427  0.50000000  0.87372944  1.0
  Co  Co116  1  0.79378427  0.83333333  0.87372944  1.0
  Co  Co117  1  0.00947055  0.16666667  0.84431767  1.0
  Co  Co118  1  0.00947055  0.50000000  0.84431767  1.0
  Co  Co119  1  0.00947055  0.83333333  0.84431767  1.0
  Co  Co120  1  0.34280388  0.16666667  0.84431767  1.0
  Co  Co121  1  0.34280388  0.50000000  0.84431767  1.0
  Co  Co122  1  0.34280388  0.83333333  0.84431767  1.0
  Co  Co123  1  0.67613721  0.16666667  0.84431767  1.0
  Co  Co124  1  0.67613721  0.50000000  0.84431767  1.0
  Co  Co125  1  0.67613721  0.83333333  0.84431767  1.0
  Co  Co126  1  0.18231257  0.08435500  0.83197262  1.0
  Co  Co127  1  0.18231257  0.41768833  0.83197262  1.0
  Co  Co128  1  0.18231257  0.75102167  0.83197262  1.0
  Co  Co129  1  0.51564591  0.08435500  0.83197262  1.0
  Co  Co130  1  0.51564591  0.41768833  0.83197262  1.0
  Co  Co131  1  0.51564591  0.75102167  0.83197262  1.0
  Co  Co132  1  0.84897924  0.08435500  0.83197262  1.0
  Co  Co133  1  0.84897924  0.41768833  0.83197262  1.0
  Co  Co134  1  0.84897924  0.75102167  0.83197262  1.0
  Co  Co135  1  0.29995963  0.08435500  0.86138439  1.0
  Co  Co136  1  0.29995963  0.41768833  0.86138439  1.0
  Co  Co137  1  0.29995963  0.75102167  0.86138439  1.0
  Co  Co138  1  0.63329297  0.08435500  0.86138439  1.0
  Co  Co139  1  0.63329297  0.41768833  0.86138439  1.0
  Co  Co140  1  0.63329297  0.75102167  0.86138439  1.0
  Co  Co141  1  0.96662630  0.08435500  0.86138439  1.0
  Co  Co142  1  0.96662630  0.41768833  0.86138439  1.0
  Co  Co143  1  0.96662630  0.75102167  0.86138439  1.0
  Co  Co144  1  0.02617100  0.24897833  0.87627056  1.0
  Co  Co145  1  0.02617100  0.58231167  0.87627056  1.0
  Co  Co146  1  0.02617100  0.91564500  0.87627056  1.0
  Co  Co147  1  0.35950434  0.24897833  0.87627056  1.0
  Co  Co148  1  0.35950434  0.58231167  0.87627056  1.0
  Co  Co149  1  0.35950434  0.91564500  0.87627056  1.0
  Co  Co150  1  0.69283767  0.24897833  0.87627056  1.0
  Co  Co151  1  0.69283767  0.58231167  0.87627056  1.0
  Co  Co152  1  0.69283767  0.91564500  0.87627056  1.0
  Co  Co153  1  0.24185728  0.24897833  0.84685880  1.0
  Co  Co154  1  0.24185728  0.58231167  0.84685880  1.0
  Co  Co155  1  0.24185728  0.91564500  0.84685880  1.0
  Co  Co156  1  0.57519061  0.24897833  0.84685880  1.0
  Co  Co157  1  0.57519061  0.58231167  0.84685880  1.0
  Co  Co158  1  0.57519061  0.91564500  0.84685880  1.0
  Co  Co159  1  0.90852395  0.24897833  0.84685880  1.0
  Co  Co160  1  0.90852395  0.58231167  0.84685880  1.0
  Co  Co161  1  0.90852395  0.91564500  0.84685880  1.0
  Co  Co162  1  0.22515682  0.16666667  0.81490591  1.0
  Co  Co163  1  0.22515682  0.50000000  0.81490591  1.0
  Co  Co164  1  0.22515682  0.83333333  0.81490591  1.0
  Co  Co165  1  0.55849016  0.16666667  0.81490591  1.0
  Co  Co166  1  0.55849016  0.50000000  0.81490591  1.0
  Co  Co167  1  0.55849016  0.83333333  0.81490591  1.0
  Co  Co168  1  0.89182349  0.16666667  0.81490591  1.0
  Co  Co169  1  0.89182349  0.50000000  0.81490591  1.0
  Co  Co170  1  0.89182349  0.83333333  0.81490591  1.0
  Co  Co171  1  0.10750976  0.16666667  0.78549414  1.0
  Co  Co172  1  0.10750976  0.50000000  0.78549414  1.0
  Co  Co173  1  0.10750976  0.83333333  0.78549414  1.0
  Co  Co174  1  0.44084310  0.16666667  0.78549414  1.0
  Co  Co175  1  0.44084310  0.50000000  0.78549414  1.0
  Co  Co176  1  0.44084310  0.83333333  0.78549414  1.0
  Co  Co177  1  0.77417643  0.16666667  0.78549414  1.0
  Co  Co178  1  0.77417643  0.50000000  0.78549414  1.0
  Co  Co179  1  0.77417643  0.83333333  0.78549414  1.0
  Co  Co180  1  0.28035179  0.08435500  0.77314909  1.0
  Co  Co181  1  0.28035179  0.41768833  0.77314909  1.0
  Co  Co182  1  0.28035179  0.75102167  0.77314909  1.0
  Co  Co183  1  0.61368512  0.08435500  0.77314909  1.0
  Co  Co184  1  0.61368512  0.41768833  0.77314909  1.0
  Co  Co185  1  0.61368512  0.75102167  0.77314909  1.0
  Co  Co186  1  0.94701846  0.08435500  0.77314909  1.0
  Co  Co187  1  0.94701846  0.41768833  0.77314909  1.0
  Co  Co188  1  0.94701846  0.75102167  0.77314909  1.0
  Co  Co189  1  0.06466551  0.08435500  0.80256086  1.0
  Co  Co190  1  0.06466551  0.41768833  0.80256086  1.0
  Co  Co191  1  0.06466551  0.75102167  0.80256086  1.0
  Co  Co192  1  0.39799885  0.08435500  0.80256086  1.0
  Co  Co193  1  0.39799885  0.41768833  0.80256086  1.0
  Co  Co194  1  0.39799885  0.75102167  0.80256086  1.0
  Co  Co195  1  0.73133218  0.08435500  0.80256086  1.0
  Co  Co196  1  0.73133218  0.41768833  0.80256086  1.0
  Co  Co197  1  0.73133218  0.75102167  0.80256086  1.0
  Co  Co198  1  0.12421022  0.24897833  0.81744703  1.0
  Co  Co199  1  0.12421022  0.58231167  0.81744703  1.0
  Co  Co200  1  0.12421022  0.91564500  0.81744703  1.0
  Co  Co201  1  0.45754355  0.24897833  0.81744703  1.0
  Co  Co202  1  0.45754355  0.58231167  0.81744703  1.0
  Co  Co203  1  0.45754355  0.91564500  0.81744703  1.0
  Co  Co204  1  0.79087689  0.24897833  0.81744703  1.0
  Co  Co205  1  0.79087689  0.58231167  0.81744703  1.0
  Co  Co206  1  0.79087689  0.91564500  0.81744703  1.0
  Co  Co207  1  0.00656316  0.24897833  0.78803527  1.0
  Co  Co208  1  0.00656316  0.58231167  0.78803527  1.0
  Co  Co209  1  0.00656316  0.91564500  0.78803527  1.0
  Co  Co210  1  0.33989650  0.24897833  0.78803527  1.0
  Co  Co211  1  0.33989650  0.58231167  0.78803527  1.0
  Co  Co212  1  0.33989650  0.91564500  0.78803527  1.0
  Co  Co213  1  0.67322983  0.24897833  0.78803527  1.0
  Co  Co214  1  0.67322983  0.58231167  0.78803527  1.0
  Co  Co215  1  0.67322983  0.91564500  0.78803527  1.0
  Co  Co216  1  0.32319604  0.16666667  0.75608238  1.0
  Co  Co217  1  0.32319604  0.50000000  0.75608238  1.0
  Co  Co218  1  0.32319604  0.83333333  0.75608238  1.0
  Co  Co219  1  0.65652937  0.16666667  0.75608238  1.0
  Co  Co220  1  0.65652937  0.50000000  0.75608238  1.0
  Co  Co221  1  0.65652937  0.83333333  0.75608238  1.0
  Co  Co222  1  0.98986270  0.16666667  0.75608238  1.0
  Co  Co223  1  0.98986270  0.50000000  0.75608238  1.0
  Co  Co224  1  0.98986270  0.83333333  0.75608238  1.0
  Co  Co225  1  0.20554898  0.16666667  0.72667061  1.0
  Co  Co226  1  0.20554898  0.50000000  0.72667061  1.0
  Co  Co227  1  0.20554898  0.83333333  0.72667061  1.0
  Co  Co228  1  0.53888231  0.16666667  0.72667061  1.0
  Co  Co229  1  0.53888231  0.50000000  0.72667061  1.0
  Co  Co230  1  0.53888231  0.83333333  0.72667061  1.0
  Co  Co231  1  0.87221565  0.16666667  0.72667061  1.0
  Co  Co232  1  0.87221565  0.50000000  0.72667061  1.0
  Co  Co233  1  0.87221565  0.83333333  0.72667061  1.0
  Co  Co234  1  0.04505767  0.08435500  0.71432556  1.0
  Co  Co235  1  0.04505767  0.41768833  0.71432556  1.0
  Co  Co236  1  0.04505767  0.75102167  0.71432556  1.0
  Co  Co237  1  0.37839100  0.08435500  0.71432556  1.0
  Co  Co238  1  0.37839100  0.41768833  0.71432556  1.0
  Co  Co239  1  0.37839100  0.75102167  0.71432556  1.0
  Co  Co240  1  0.71172434  0.08435500  0.71432556  1.0
  Co  Co241  1  0.71172434  0.41768833  0.71432556  1.0
  Co  Co242  1  0.71172434  0.75102167  0.71432556  1.0
  Co  Co243  1  0.16270473  0.08435500  0.74373733  1.0
  Co  Co244  1  0.16270473  0.41768833  0.74373733  1.0
  Co  Co245  1  0.16270473  0.75102167  0.74373733  1.0
  Co  Co246  1  0.49603806  0.08435500  0.74373733  1.0
  Co  Co247  1  0.49603806  0.41768833  0.74373733  1.0
  Co  Co248  1  0.49603806  0.75102167  0.74373733  1.0
  Co  Co249  1  0.82937140  0.08435500  0.74373733  1.0
  Co  Co250  1  0.82937140  0.41768833  0.74373733  1.0
  Co  Co251  1  0.82937140  0.75102167  0.74373733  1.0
  Co  Co252  1  0.22224944  0.24897833  0.75862350  1.0
  Co  Co253  1  0.22224944  0.58231167  0.75862350  1.0
  Co  Co254  1  0.22224944  0.91564500  0.75862350  1.0
  Co  Co255  1  0.55558277  0.24897833  0.75862350  1.0
  Co  Co256  1  0.55558277  0.58231167  0.75862350  1.0
  Co  Co257  1  0.55558277  0.91564500  0.75862350  1.0
  Co  Co258  1  0.88891610  0.24897833  0.75862350  1.0
  Co  Co259  1  0.88891610  0.58231167  0.75862350  1.0
  Co  Co260  1  0.88891610  0.91564500  0.75862350  1.0
  Co  Co261  1  0.10460238  0.24897833  0.72921174  1.0
  Co  Co262  1  0.10460238  0.58231167  0.72921174  1.0
  Co  Co263  1  0.10460238  0.91564500  0.72921174  1.0
  Co  Co264  1  0.43793571  0.24897833  0.72921174  1.0
  Co  Co265  1  0.43793571  0.58231167  0.72921174  1.0
  Co  Co266  1  0.43793571  0.91564500  0.72921174  1.0
  Co  Co267  1  0.77126904  0.24897833  0.72921174  1.0
  Co  Co268  1  0.77126904  0.58231167  0.72921174  1.0
  Co  Co269  1  0.77126904  0.91564500  0.72921174  1.0
  Co  Co270  1  0.08790192  0.16666667  0.69725885  1.0
  Co  Co271  1  0.08790192  0.50000000  0.69725885  1.0
  Co  Co272  1  0.08790192  0.83333333  0.69725885  1.0
  Co  Co273  1  0.42123525  0.16666667  0.69725885  1.0
  Co  Co274  1  0.42123525  0.50000000  0.69725885  1.0
  Co  Co275  1  0.42123525  0.83333333  0.69725885  1.0
  Co  Co276  1  0.75456859  0.16666667  0.69725885  1.0
  Co  Co277  1  0.75456859  0.50000000  0.69725885  1.0
  Co  Co278  1  0.75456859  0.83333333  0.69725885  1.0
  Co  Co279  1  0.30358819  0.16666667  0.66784708  1.0
  Co  Co280  1  0.30358819  0.50000000  0.66784708  1.0
  Co  Co281  1  0.30358819  0.83333333  0.66784708  1.0
  Co  Co282  1  0.63692153  0.16666667  0.66784708  1.0
  Co  Co283  1  0.63692153  0.50000000  0.66784708  1.0
  Co  Co284  1  0.63692153  0.83333333  0.66784708  1.0
  Co  Co285  1  0.97025486  0.16666667  0.66784708  1.0
  Co  Co286  1  0.97025486  0.50000000  0.66784708  1.0
  Co  Co287  1  0.97025486  0.83333333  0.66784708  1.0
  Co  Co288  1  0.14309689  0.08435500  0.65550203  1.0
  Co  Co289  1  0.14309689  0.41768833  0.65550203  1.0
  Co  Co290  1  0.14309689  0.75102167  0.65550203  1.0
  Co  Co291  1  0.47643022  0.08435500  0.65550203  1.0
  Co  Co292  1  0.47643022  0.41768833  0.65550203  1.0
  Co  Co293  1  0.47643022  0.75102167  0.65550203  1.0
  Co  Co294  1  0.80976355  0.08435500  0.65550203  1.0
  Co  Co295  1  0.80976355  0.41768833  0.65550203  1.0
  Co  Co296  1  0.80976355  0.75102167  0.65550203  1.0
  Co  Co297  1  0.26074395  0.08435500  0.68491380  1.0
  Co  Co298  1  0.26074395  0.41768833  0.68491380  1.0
  Co  Co299  1  0.26074395  0.75102167  0.68491380  1.0
  Co  Co300  1  0.59407728  0.08435500  0.68491380  1.0
  Co  Co301  1  0.59407728  0.41768833  0.68491380  1.0
  Co  Co302  1  0.59407728  0.75102167  0.68491380  1.0
  Co  Co303  1  0.92741061  0.08435500  0.68491380  1.0
  Co  Co304  1  0.92741061  0.41768833  0.68491380  1.0
  Co  Co305  1  0.92741061  0.75102167  0.68491380  1.0
  Co  Co306  1  0.32028865  0.24897833  0.69979998  1.0
  Co  Co307  1  0.32028865  0.58231167  0.69979998  1.0
  Co  Co308  1  0.32028865  0.91564500  0.69979998  1.0
  Co  Co309  1  0.65362199  0.24897833  0.69979998  1.0
  Co  Co310  1  0.65362199  0.58231167  0.69979998  1.0
  Co  Co311  1  0.65362199  0.91564500  0.69979998  1.0
  Co  Co312  1  0.98695532  0.24897833  0.69979998  1.0
  Co  Co313  1  0.98695532  0.58231167  0.69979998  1.0
  Co  Co314  1  0.98695532  0.91564500  0.69979998  1.0
  Co  Co315  1  0.20264159  0.24897833  0.67038821  1.0
  Co  Co316  1  0.20264159  0.58231167  0.67038821  1.0
  Co  Co317  1  0.20264159  0.91564500  0.67038821  1.0
  Co  Co318  1  0.53597493  0.24897833  0.67038821  1.0
  Co  Co319  1  0.53597493  0.58231167  0.67038821  1.0
  Co  Co320  1  0.53597493  0.91564500  0.67038821  1.0
  Co  Co321  1  0.86930826  0.24897833  0.67038821  1.0
  Co  Co322  1  0.86930826  0.58231167  0.67038821  1.0
  Co  Co323  1  0.86930826  0.91564500  0.67038821  1.0
  Co  Co324  1  0.18594114  0.16666667  0.63843532  1.0
  Co  Co325  1  0.18594114  0.50000000  0.63843532  1.0
  Co  Co326  1  0.18594114  0.83333333  0.63843532  1.0
  Co  Co327  1  0.51927447  0.16666667  0.63843532  1.0
  Co  Co328  1  0.51927447  0.50000000  0.63843532  1.0
  Co  Co329  1  0.51927447  0.83333333  0.63843532  1.0
  Co  Co330  1  0.85260780  0.16666667  0.63843532  1.0
  Co  Co331  1  0.85260780  0.50000000  0.63843532  1.0
  Co  Co332  1  0.85260780  0.83333333  0.63843532  1.0
  Co  Co333  1  0.06829408  0.16666667  0.60902355  1.0
  Co  Co334  1  0.06829408  0.50000000  0.60902355  1.0
  Co  Co335  1  0.06829408  0.83333333  0.60902355  1.0
  Co  Co336  1  0.40162741  0.16666667  0.60902355  1.0
  Co  Co337  1  0.40162741  0.50000000  0.60902355  1.0
  Co  Co338  1  0.40162741  0.83333333  0.60902355  1.0
  Co  Co339  1  0.73496074  0.16666667  0.60902355  1.0
  Co  Co340  1  0.73496074  0.50000000  0.60902355  1.0
  Co  Co341  1  0.73496074  0.83333333  0.60902355  1.0
  Co  Co342  1  0.24113610  0.08435500  0.59667850  1.0
  Co  Co343  1  0.24113610  0.41768833  0.59667850  1.0
  Co  Co344  1  0.24113610  0.75102167  0.59667850  1.0
  Co  Co345  1  0.57446944  0.08435500  0.59667850  1.0
  Co  Co346  1  0.57446944  0.41768833  0.59667850  1.0
  Co  Co347  1  0.57446944  0.75102167  0.59667850  1.0
  Co  Co348  1  0.90780277  0.08435500  0.59667850  1.0
  Co  Co349  1  0.90780277  0.41768833  0.59667850  1.0
  Co  Co350  1  0.90780277  0.75102167  0.59667850  1.0
  Co  Co351  1  0.02544983  0.08435500  0.62609027  1.0
  Co  Co352  1  0.02544983  0.41768833  0.62609027  1.0
  Co  Co353  1  0.02544983  0.75102167  0.62609027  1.0
  Co  Co354  1  0.35878316  0.08435500  0.62609027  1.0
  Co  Co355  1  0.35878316  0.41768833  0.62609027  1.0
  Co  Co356  1  0.35878316  0.75102167  0.62609027  1.0
  Co  Co357  1  0.69211650  0.08435500  0.62609027  1.0
  Co  Co358  1  0.69211650  0.41768833  0.62609027  1.0
  Co  Co359  1  0.69211650  0.75102167  0.62609027  1.0
  Co  Co360  1  0.08499453  0.24897833  0.64097645  1.0
  Co  Co361  1  0.08499453  0.58231167  0.64097645  1.0
  Co  Co362  1  0.08499453  0.91564500  0.64097645  1.0
  Co  Co363  1  0.41832787  0.24897833  0.64097645  1.0
  Co  Co364  1  0.41832787  0.58231167  0.64097645  1.0
  Co  Co365  1  0.41832787  0.91564500  0.64097645  1.0
  Co  Co366  1  0.75166120  0.24897833  0.64097645  1.0
  Co  Co367  1  0.75166120  0.58231167  0.64097645  1.0
  Co  Co368  1  0.75166120  0.91564500  0.64097645  1.0
  Co  Co369  1  0.30068081  0.24897833  0.61156468  1.0
  Co  Co370  1  0.30068081  0.58231167  0.61156468  1.0
  Co  Co371  1  0.30068081  0.91564500  0.61156468  1.0
  Co  Co372  1  0.63401414  0.24897833  0.61156468  1.0
  Co  Co373  1  0.63401414  0.58231167  0.61156468  1.0
  Co  Co374  1  0.63401414  0.91564500  0.61156468  1.0
  Co  Co375  1  0.96734748  0.24897833  0.61156468  1.0
  Co  Co376  1  0.96734748  0.58231167  0.61156468  1.0
  Co  Co377  1  0.96734748  0.91564500  0.61156468  1.0
  Ni  Ni378  1  0.08790192  0.00000000  0.94725885  1.0
  Ni  Ni379  1  0.08790192  0.33333333  0.94725885  1.0
  Ni  Ni380  1  0.08790192  0.66666667  0.94725885  1.0
  Ni  Ni381  1  0.42123525  0.00000000  0.94725885  1.0
  Ni  Ni382  1  0.42123525  0.33333333  0.94725885  1.0
  Ni  Ni383  1  0.42123525  0.66666667  0.94725885  1.0
  Ni  Ni384  1  0.75456859  0.00000000  0.94725885  1.0
  Ni  Ni385  1  0.75456859  0.33333333  0.94725885  1.0
  Ni  Ni386  1  0.75456859  0.66666667  0.94725885  1.0
  Ni  Ni387  1  0.20554898  0.00000000  0.97667061  1.0
  Ni  Ni388  1  0.20554898  0.33333333  0.97667061  1.0
  Ni  Ni389  1  0.20554898  0.66666667  0.97667061  1.0
  Ni  Ni390  1  0.53888231  0.00000000  0.97667061  1.0
  Ni  Ni391  1  0.53888231  0.33333333  0.97667061  1.0
  Ni  Ni392  1  0.53888231  0.66666667  0.97667061  1.0
  Ni  Ni393  1  0.87221565  0.00000000  0.97667061  1.0
  Ni  Ni394  1  0.87221565  0.33333333  0.97667061  1.0
  Ni  Ni395  1  0.87221565  0.66666667  0.97667061  1.0
  Ni  Ni396  1  0.18594114  0.00000000  0.88843532  1.0
  Ni  Ni397  1  0.18594114  0.33333333  0.88843532  1.0
  Ni  Ni398  1  0.18594114  0.66666667  0.88843532  1.0
  Ni  Ni399  1  0.51927447  0.00000000  0.88843532  1.0
  Ni  Ni400  1  0.51927447  0.33333333  0.88843532  1.0
  Ni  Ni401  1  0.51927447  0.66666667  0.88843532  1.0
  Ni  Ni402  1  0.85260780  0.00000000  0.88843532  1.0
  Ni  Ni403  1  0.85260780  0.33333333  0.88843532  1.0
  Ni  Ni404  1  0.85260780  0.66666667  0.88843532  1.0
  Ni  Ni405  1  0.30358819  0.00000000  0.91784708  1.0
  Ni  Ni406  1  0.30358819  0.33333333  0.91784708  1.0
  Ni  Ni407  1  0.30358819  0.66666667  0.91784708  1.0
  Ni  Ni408  1  0.63692153  0.00000000  0.91784708  1.0
  Ni  Ni409  1  0.63692153  0.33333333  0.91784708  1.0
  Ni  Ni410  1  0.63692153  0.66666667  0.91784708  1.0
  Ni  Ni411  1  0.97025486  0.00000000  0.91784708  1.0
  Ni  Ni412  1  0.97025486  0.33333333  0.91784708  1.0
  Ni  Ni413  1  0.97025486  0.66666667  0.91784708  1.0
  Ni  Ni414  1  0.28398035  0.00000000  0.82961179  1.0
  Ni  Ni415  1  0.28398035  0.33333333  0.82961179  1.0
  Ni  Ni416  1  0.28398035  0.66666667  0.82961179  1.0
  Ni  Ni417  1  0.61731368  0.00000000  0.82961179  1.0
  Ni  Ni418  1  0.61731368  0.33333333  0.82961179  1.0
  Ni  Ni419  1  0.61731368  0.66666667  0.82961179  1.0
  Ni  Ni420  1  0.95064702  0.00000000  0.82961179  1.0
  Ni  Ni421  1  0.95064702  0.33333333  0.82961179  1.0
  Ni  Ni422  1  0.95064702  0.66666667  0.82961179  1.0
  Ni  Ni423  1  0.06829408  0.00000000  0.85902355  1.0
  Ni  Ni424  1  0.06829408  0.33333333  0.85902355  1.0
  Ni  Ni425  1  0.06829408  0.66666667  0.85902355  1.0
  Ni  Ni426  1  0.40162741  0.00000000  0.85902355  1.0
  Ni  Ni427  1  0.40162741  0.33333333  0.85902355  1.0
  Ni  Ni428  1  0.40162741  0.66666667  0.85902355  1.0
  Ni  Ni429  1  0.73496074  0.00000000  0.85902355  1.0
  Ni  Ni430  1  0.73496074  0.33333333  0.85902355  1.0
  Ni  Ni431  1  0.73496074  0.66666667  0.85902355  1.0
  Ni  Ni432  1  0.04868623  0.00000000  0.77078826  1.0
  Ni  Ni433  1  0.04868623  0.33333333  0.77078826  1.0
  Ni  Ni434  1  0.04868623  0.66666667  0.77078826  1.0
  Ni  Ni435  1  0.38201957  0.00000000  0.77078826  1.0
  Ni  Ni436  1  0.38201957  0.33333333  0.77078826  1.0
  Ni  Ni437  1  0.38201957  0.66666667  0.77078826  1.0
  Ni  Ni438  1  0.71535290  0.00000000  0.77078826  1.0
  Ni  Ni439  1  0.71535290  0.33333333  0.77078826  1.0
  Ni  Ni440  1  0.71535290  0.66666667  0.77078826  1.0
  Ni  Ni441  1  0.16633329  0.00000000  0.80020002  1.0
  Ni  Ni442  1  0.16633329  0.33333333  0.80020002  1.0
  Ni  Ni443  1  0.16633329  0.66666667  0.80020002  1.0
  Ni  Ni444  1  0.49966663  0.00000000  0.80020002  1.0
  Ni  Ni445  1  0.49966663  0.33333333  0.80020002  1.0
  Ni  Ni446  1  0.49966663  0.66666667  0.80020002  1.0
  Ni  Ni447  1  0.83299996  0.00000000  0.80020002  1.0
  Ni  Ni448  1  0.83299996  0.33333333  0.80020002  1.0
  Ni  Ni449  1  0.83299996  0.66666667  0.80020002  1.0
  Ni  Ni450  1  0.14672545  0.00000000  0.71196473  1.0
  Ni  Ni451  1  0.14672545  0.33333333  0.71196473  1.0
  Ni  Ni452  1  0.14672545  0.66666667  0.71196473  1.0
  Ni  Ni453  1  0.48005878  0.00000000  0.71196473  1.0
  Ni  Ni454  1  0.48005878  0.33333333  0.71196473  1.0
  Ni  Ni455  1  0.48005878  0.66666667  0.71196473  1.0
  Ni  Ni456  1  0.81339212  0.00000000  0.71196473  1.0
  Ni  Ni457  1  0.81339212  0.33333333  0.71196473  1.0
  Ni  Ni458  1  0.81339212  0.66666667  0.71196473  1.0
  Ni  Ni459  1  0.26437251  0.33333333  0.74137650  1.0
  Ni  Ni460  1  0.26437251  0.66666667  0.74137650  1.0
  Ni  Ni461  1  0.26437251  0.00000000  0.74137650  1.0
  Ni  Ni462  1  0.59770584  0.33333333  0.74137650  1.0
  Ni  Ni463  1  0.59770584  0.66666667  0.74137650  1.0
  Ni  Ni464  1  0.59770584  0.00000000  0.74137650  1.0
  Ni  Ni465  1  0.93103917  0.33333333  0.74137650  1.0
  Ni  Ni466  1  0.93103917  0.66666667  0.74137650  1.0
  Ni  Ni467  1  0.93103917  0.00000000  0.74137650  1.0
  Ni  Ni468  1  0.24476467  0.00000000  0.65314120  1.0
  Ni  Ni469  1  0.24476467  0.33333333  0.65314120  1.0
  Ni  Ni470  1  0.24476467  0.66666667  0.65314120  1.0
  Ni  Ni471  1  0.57809800  0.00000000  0.65314120  1.0
  Ni  Ni472  1  0.57809800  0.33333333  0.65314120  1.0
  Ni  Ni473  1  0.57809800  0.66666667  0.65314120  1.0
  Ni  Ni474  1  0.91143133  0.00000000  0.65314120  1.0
  Ni  Ni475  1  0.91143133  0.33333333  0.65314120  1.0
  Ni  Ni476  1  0.91143133  0.66666667  0.65314120  1.0
  Ni  Ni477  1  0.02907839  0.33333333  0.68255297  1.0
  Ni  Ni478  1  0.02907839  0.66666667  0.68255297  1.0
  Ni  Ni479  1  0.02907839  0.00000000  0.68255297  1.0
  Ni  Ni480  1  0.36241172  0.33333333  0.68255297  1.0
  Ni  Ni481  1  0.36241172  0.66666667  0.68255297  1.0
  Ni  Ni482  1  0.36241172  0.00000000  0.68255297  1.0
  Ni  Ni483  1  0.69574506  0.33333333  0.68255297  1.0
  Ni  Ni484  1  0.69574506  0.66666667  0.68255297  1.0
  Ni  Ni485  1  0.69574506  0.00000000  0.68255297  1.0
  Ni  Ni486  1  0.00947055  0.00000000  0.59431767  1.0
  Ni  Ni487  1  0.00947055  0.33333333  0.59431767  1.0
  Ni  Ni488  1  0.00947055  0.66666667  0.59431767  1.0
  Ni  Ni489  1  0.34280388  0.00000000  0.59431767  1.0
  Ni  Ni490  1  0.34280388  0.33333333  0.59431767  1.0
  Ni  Ni491  1  0.34280388  0.66666667  0.59431767  1.0
  Ni  Ni492  1  0.67613721  0.00000000  0.59431767  1.0
  Ni  Ni493  1  0.67613721  0.33333333  0.59431767  1.0
  Ni  Ni494  1  0.67613721  0.66666667  0.59431767  1.0
  Ni  Ni495  1  0.12711761  0.00000000  0.62372944  1.0
  Ni  Ni496  1  0.12711761  0.33333333  0.62372944  1.0
  Ni  Ni497  1  0.12711761  0.66666667  0.62372944  1.0
  Ni  Ni498  1  0.46045094  0.00000000  0.62372944  1.0
  Ni  Ni499  1  0.46045094  0.33333333  0.62372944  1.0
  Ni  Ni500  1  0.46045094  0.66666667  0.62372944  1.0
  Ni  Ni501  1  0.79378427  0.00000000  0.62372944  1.0
  Ni  Ni502  1  0.79378427  0.33333333  0.62372944  1.0
  Ni  Ni503  1  0.79378427  0.66666667  0.62372944  1.0
