# generated using pymatgen
data_Co3Ni
_symmetry_space_group_name_H-M   'P 1'
_cell_length_a   14.95673880
_cell_length_b   28.42046090
_cell_length_c   34.89905720
_cell_angle_alpha   121.75354809
_cell_angle_beta   120.00000000
_cell_angle_gamma   74.74393792
_symmetry_Int_Tables_number   1
_chemical_formula_structural   Co3Ni
_chemical_formula_sum   'Co324 Ni108'
_cell_volume   10924.32371933
_cell_formula_units_Z   108
loop_
 _symmetry_equiv_pos_site_id
 _symmetry_equiv_pos_as_xyz
  1  'x, y, z'
loop_
 _atom_site_type_symbol
 _atom_site_label
 _atom_site_symmetry_multiplicity
 _atom_site_fract_x
 _atom_site_fract_y
 _atom_site_fract_z
 _atom_site_occupancy
  Co  Co0  1  0.05538183  0.12500000  0.10104157  1.0
  Co  Co1  1  0.05538183  0.45833333  0.10104157  1.0
  Co  Co2  1  0.05538183  0.79166667  0.10104157  1.0
  Co  Co3  1  0.38871517  0.12500000  0.10104157  1.0
  Co  Co4  1  0.38871517  0.45833333  0.10104157  1.0
  Co  Co5  1  0.38871517  0.79166667  0.10104157  1.0
  Co  Co6  1  0.72204850  0.12500000  0.10104157  1.0
  Co  Co7  1  0.72204850  0.45833333  0.10104157  1.0
  Co  Co8  1  0.72204850  0.79166667  0.10104157  1.0
  Co  Co9  1  0.05538183  0.29166667  0.02961300  1.0
  Co  Co10  1  0.05538183  0.62500000  0.02961300  1.0
  Co  Co11  1  0.05538183  0.95833333  0.02961300  1.0
  Co  Co12  1  0.38871517  0.29166667  0.02961300  1.0
  Co  Co13  1  0.38871517  0.62500000  0.02961300  1.0
  Co  Co14  1  0.38871517  0.95833333  0.02961300  1.0
  Co  Co15  1  0.72204850  0.29166667  0.02961300  1.0
  Co  Co16  1  0.72204850  0.62500000  0.02961300  1.0
  Co  Co17  1  0.72204850  0.95833333  0.02961300  1.0
  Co  Co18  1  0.11076367  0.04166667  0.04159221  1.0
  Co  Co19  1  0.11076367  0.37500000  0.04159221  1.0
  Co  Co20  1  0.11076367  0.70833333  0.04159221  1.0
  Co  Co21  1  0.44409700  0.04166667  0.04159221  1.0
  Co  Co22  1  0.44409700  0.37500000  0.04159221  1.0
  Co  Co23  1  0.44409700  0.70833333  0.04159221  1.0
  Co  Co24  1  0.77743033  0.04166667  0.04159221  1.0
  Co  Co25  1  0.77743033  0.37500000  0.04159221  1.0
  Co  Co26  1  0.77743033  0.70833333  0.04159221  1.0
  Co  Co27  1  0.11076367  0.20833333  0.11302079  1.0
  Co  Co28  1  0.11076367  0.54166667  0.11302079  1.0
  Co  Co29  1  0.11076367  0.87500000  0.11302079  1.0
  Co  Co30  1  0.44409700  0.20833333  0.11302079  1.0
  Co  Co31  1  0.44409700  0.54166667  0.11302079  1.0
  Co  Co32  1  0.44409700  0.87500000  0.11302079  1.0
  Co  Co33  1  0.77743033  0.20833333  0.11302079  1.0
  Co  Co34  1  0.77743033  0.54166667  0.11302079  1.0
  Co  Co35  1  0.77743033  0.87500000  0.11302079  1.0
  Co  Co36  1  0.27795150  0.04166667  0.04159221  1.0
  Co  Co37  1  0.27795150  0.37500000  0.04159221  1.0
  Co  Co38  1  0.27795150  0.70833333  0.04159221  1.0
  Co  Co39  1  0.61128483  0.04166667  0.04159221  1.0
  Co  Co40  1  0.61128483  0.37500000  0.04159221  1.0
  Co  Co41  1  0.61128483  0.70833333  0.04159221  1.0
  Co  Co42  1  0.94461817  0.04166667  0.04159221  1.0
  Co  Co43  1  0.94461817  0.37500000  0.04159221  1.0
  Co  Co44  1  0.94461817  0.70833333  0.04159221  1.0
  Co  Co45  1  0.27795150  0.20833333  0.11302079  1.0
  Co  Co46  1  0.27795150  0.54166667  0.11302079  1.0
  Co  Co47  1  0.27795150  0.87500000  0.11302079  1.0
  Co  Co48  1  0.61128483  0.20833333  0.11302079  1.0
  Co  Co49  1  0.61128483  0.54166667  0.11302079  1.0
  Co  Co50  1  0.61128483  0.87500000  0.11302079  1.0
  Co  Co51  1  0.94461817  0.20833333  0.11302079  1.0
  Co  Co52  1  0.94461817  0.54166667  0.11302079  1.0
  Co  Co53  1  0.94461817  0.87500000  0.11302079  1.0
  Co  Co54  1  0.27795150  0.04166667  0.11324414  1.0
  Co  Co55  1  0.27795150  0.37500000  0.11324414  1.0
  Co  Co56  1  0.27795150  0.70833333  0.11324414  1.0
  Co  Co57  1  0.61128483  0.04166667  0.11324414  1.0
  Co  Co58  1  0.61128483  0.37500000  0.11324414  1.0
  Co  Co59  1  0.61128483  0.70833333  0.11324414  1.0
  Co  Co60  1  0.94461817  0.04166667  0.11324414  1.0
  Co  Co61  1  0.94461817  0.37500000  0.11324414  1.0
  Co  Co62  1  0.94461817  0.70833333  0.11324414  1.0
  Co  Co63  1  0.27795150  0.20833333  0.04181557  1.0
  Co  Co64  1  0.27795150  0.54166667  0.04181557  1.0
  Co  Co65  1  0.27795150  0.87500000  0.04181557  1.0
  Co  Co66  1  0.61128483  0.20833333  0.04181557  1.0
  Co  Co67  1  0.61128483  0.54166667  0.04181557  1.0
  Co  Co68  1  0.61128483  0.87500000  0.04181557  1.0
  Co  Co69  1  0.94461817  0.20833333  0.04181557  1.0
  Co  Co70  1  0.94461817  0.54166667  0.04181557  1.0
  Co  Co71  1  0.94461817  0.87500000  0.04181557  1.0
  Co  Co72  1  0.22256967  0.12500000  0.02983636  1.0
  Co  Co73  1  0.22256967  0.45833333  0.02983636  1.0
  Co  Co74  1  0.22256967  0.79166667  0.02983636  1.0
  Co  Co75  1  0.55590300  0.12500000  0.02983636  1.0
  Co  Co76  1  0.55590300  0.45833333  0.02983636  1.0
  Co  Co77  1  0.55590300  0.79166667  0.02983636  1.0
  Co  Co78  1  0.88923633  0.12500000  0.02983636  1.0
  Co  Co79  1  0.88923633  0.45833333  0.02983636  1.0
  Co  Co80  1  0.88923633  0.79166667  0.02983636  1.0
  Co  Co81  1  0.22256967  0.29166667  0.10126493  1.0
  Co  Co82  1  0.22256967  0.62500000  0.10126493  1.0
  Co  Co83  1  0.22256967  0.95833333  0.10126493  1.0
  Co  Co84  1  0.55590300  0.29166667  0.10126493  1.0
  Co  Co85  1  0.55590300  0.62500000  0.10126493  1.0
  Co  Co86  1  0.55590300  0.95833333  0.10126493  1.0
  Co  Co87  1  0.88923633  0.29166667  0.10126493  1.0
  Co  Co88  1  0.88923633  0.62500000  0.10126493  1.0
  Co  Co89  1  0.88923633  0.95833333  0.10126493  1.0
  Co  Co90  1  0.05538183  0.12500000  0.02983636  1.0
  Co  Co91  1  0.05538183  0.45833333  0.02983636  1.0
  Co  Co92  1  0.05538183  0.79166667  0.02983636  1.0
  Co  Co93  1  0.38871517  0.12500000  0.02983636  1.0
  Co  Co94  1  0.38871517  0.45833333  0.02983636  1.0
  Co  Co95  1  0.38871517  0.79166667  0.02983636  1.0
  Co  Co96  1  0.72204850  0.12500000  0.02983636  1.0
  Co  Co97  1  0.72204850  0.45833333  0.02983636  1.0
  Co  Co98  1  0.72204850  0.79166667  0.02983636  1.0
  Co  Co99  1  0.05538183  0.29166667  0.10126493  1.0
  Co  Co100  1  0.05538183  0.62500000  0.10126493  1.0
  Co  Co101  1  0.05538183  0.95833333  0.10126493  1.0
  Co  Co102  1  0.38871517  0.29166667  0.10126493  1.0
  Co  Co103  1  0.38871517  0.62500000  0.10126493  1.0
  Co  Co104  1  0.38871517  0.95833333  0.10126493  1.0
  Co  Co105  1  0.72204850  0.29166667  0.10126493  1.0
  Co  Co106  1  0.72204850  0.62500000  0.10126493  1.0
  Co  Co107  1  0.72204850  0.95833333  0.10126493  1.0
  Ni  Ni108  1  0.22222222  0.12500000  0.10119048  1.0
  Ni  Ni109  1  0.22222222  0.45833333  0.10119048  1.0
  Ni  Ni110  1  0.22222222  0.79166667  0.10119048  1.0
  Ni  Ni111  1  0.55555556  0.12500000  0.10119048  1.0
  Ni  Ni112  1  0.55555556  0.45833333  0.10119048  1.0
  Ni  Ni113  1  0.55555556  0.79166667  0.10119048  1.0
  Ni  Ni114  1  0.88888889  0.12500000  0.10119048  1.0
  Ni  Ni115  1  0.88888889  0.45833333  0.10119048  1.0
  Ni  Ni116  1  0.88888889  0.79166667  0.10119048  1.0
  Ni  Ni117  1  0.22222222  0.29166667  0.02976190  1.0
  Ni  Ni118  1  0.22222222  0.62500000  0.02976190  1.0
  Ni  Ni119  1  0.22222222  0.95833333  0.02976190  1.0
  Ni  Ni120  1  0.55555556  0.29166667  0.02976190  1.0
  Ni  Ni121  1  0.55555556  0.62500000  0.02976190  1.0
  Ni  Ni122  1  0.55555556  0.95833333  0.02976190  1.0
  Ni  Ni123  1  0.88888889  0.29166667  0.02976190  1.0
  Ni  Ni124  1  0.88888889  0.62500000  0.02976190  1.0
  Ni  Ni125  1  0.88888889  0.95833333  0.02976190  1.0
  Ni  Ni126  1  0.11111111  0.04166667  0.11309524  1.0
  Ni  Ni127  1  0.11111111  0.37500000  0.11309524  1.0
  Ni  Ni128  1  0.11111111  0.70833333  0.11309524  1.0
  Ni  Ni129  1  0.44444444  0.04166667  0.11309524  1.0
  Ni  Ni130  1  0.44444444  0.37500000  0.11309524  1.0
  Ni  Ni131  1  0.44444444  0.70833333  0.11309524  1.0
  Ni  Ni132  1  0.77777778  0.04166667  0.11309524  1.0
  Ni  Ni133  1  0.77777778  0.37500000  0.11309524  1.0
  Ni  Ni134  1  0.77777778  0.70833333  0.11309524  1.0
  Ni  Ni135  1  0.11111111  0.20833333  0.04166667  1.0
  Ni  Ni136  1  0.11111111  0.54166667  0.04166667  1.0
  Ni  Ni137  1  0.11111111  0.87500000  0.04166667  1.0
  Ni  Ni138  1  0.44444444  0.20833333  0.04166667  1.0
  Ni  Ni139  1  0.44444444  0.54166667  0.04166667  1.0
  Ni  Ni140  1  0.44444444  0.87500000  0.04166667  1.0
  Ni  Ni141  1  0.77777778  0.20833333  0.04166667  1.0
  Ni  Ni142  1  0.77777778  0.54166667  0.04166667  1.0
  Ni  Ni143  1  0.77777778  0.87500000  0.04166667  1.0
  Co  Co144  1  0.05538183  0.12500000  0.24389871  1.0
  Co  Co145  1  0.05538183  0.45833333  0.24389871  1.0
  Co  Co146  1  0.05538183  0.79166667  0.24389871  1.0
  Co  Co147  1  0.38871517  0.12500000  0.24389871  1.0
  Co  Co148  1  0.38871517  0.45833333  0.24389871  1.0
  Co  Co149  1  0.38871517  0.79166667  0.24389871  1.0
  Co  Co150  1  0.72204850  0.12500000  0.24389871  1.0
  Co  Co151  1  0.72204850  0.45833333  0.24389871  1.0
  Co  Co152  1  0.72204850  0.79166667  0.24389871  1.0
  Co  Co153  1  0.05538183  0.29166667  0.17247014  1.0
  Co  Co154  1  0.05538183  0.62500000  0.17247014  1.0
  Co  Co155  1  0.05538183  0.95833333  0.17247014  1.0
  Co  Co156  1  0.38871517  0.29166667  0.17247014  1.0
  Co  Co157  1  0.38871517  0.62500000  0.17247014  1.0
  Co  Co158  1  0.38871517  0.95833333  0.17247014  1.0
  Co  Co159  1  0.72204850  0.29166667  0.17247014  1.0
  Co  Co160  1  0.72204850  0.62500000  0.17247014  1.0
  Co  Co161  1  0.72204850  0.95833333  0.17247014  1.0
  Co  Co162  1  0.11076367  0.04166667  0.18444936  1.0
  Co  Co163  1  0.11076367  0.37500000  0.18444936  1.0
  Co  Co164  1  0.11076367  0.70833333  0.18444936  1.0
  Co  Co165  1  0.44409700  0.04166667  0.18444936  1.0
  Co  Co166  1  0.44409700  0.37500000  0.18444936  1.0
  Co  Co167  1  0.44409700  0.70833333  0.18444936  1.0
  Co  Co168  1  0.77743033  0.04166667  0.18444936  1.0
  Co  Co169  1  0.77743033  0.37500000  0.18444936  1.0
  Co  Co170  1  0.77743033  0.70833333  0.18444936  1.0
  Co  Co171  1  0.11076367  0.20833333  0.25587793  1.0
  Co  Co172  1  0.11076367  0.54166667  0.25587793  1.0
  Co  Co173  1  0.11076367  0.87500000  0.25587793  1.0
  Co  Co174  1  0.44409700  0.20833333  0.25587793  1.0
  Co  Co175  1  0.44409700  0.54166667  0.25587793  1.0
  Co  Co176  1  0.44409700  0.87500000  0.25587793  1.0
  Co  Co177  1  0.77743033  0.20833333  0.25587793  1.0
  Co  Co178  1  0.77743033  0.54166667  0.25587793  1.0
  Co  Co179  1  0.77743033  0.87500000  0.25587793  1.0
  Co  Co180  1  0.27795150  0.04166667  0.18444936  1.0
  Co  Co181  1  0.27795150  0.37500000  0.18444936  1.0
  Co  Co182  1  0.27795150  0.70833333  0.18444936  1.0
  Co  Co183  1  0.61128483  0.04166667  0.18444936  1.0
  Co  Co184  1  0.61128483  0.37500000  0.18444936  1.0
  Co  Co185  1  0.61128483  0.70833333  0.18444936  1.0
  Co  Co186  1  0.94461817  0.04166667  0.18444936  1.0
  Co  Co187  1  0.94461817  0.37500000  0.18444936  1.0
  Co  Co188  1  0.94461817  0.70833333  0.18444936  1.0
  Co  Co189  1  0.27795150  0.20833333  0.25587793  1.0
  Co  Co190  1  0.27795150  0.54166667  0.25587793  1.0
  Co  Co191  1  0.27795150  0.87500000  0.25587793  1.0
  Co  Co192  1  0.61128483  0.20833333  0.25587793  1.0
  Co  Co193  1  0.61128483  0.54166667  0.25587793  1.0
  Co  Co194  1  0.61128483  0.87500000  0.25587793  1.0
  Co  Co195  1  0.94461817  0.20833333  0.25587793  1.0
  Co  Co196  1  0.94461817  0.54166667  0.25587793  1.0
  Co  Co197  1  0.94461817  0.87500000  0.25587793  1.0
  Co  Co198  1  0.27795150  0.04166667  0.25610129  1.0
  Co  Co199  1  0.27795150  0.37500000  0.25610129  1.0
  Co  Co200  1  0.27795150  0.70833333  0.25610129  1.0
  Co  Co201  1  0.61128483  0.04166667  0.25610129  1.0
  Co  Co202  1  0.61128483  0.37500000  0.25610129  1.0
  Co  Co203  1  0.61128483  0.70833333  0.25610129  1.0
  Co  Co204  1  0.94461817  0.04166667  0.25610129  1.0
  Co  Co205  1  0.94461817  0.37500000  0.25610129  1.0
  Co  Co206  1  0.94461817  0.70833333  0.25610129  1.0
  Co  Co207  1  0.27795150  0.20833333  0.18467271  1.0
  Co  Co208  1  0.27795150  0.54166667  0.18467271  1.0
  Co  Co209  1  0.27795150  0.87500000  0.18467271  1.0
  Co  Co210  1  0.61128483  0.20833333  0.18467271  1.0
  Co  Co211  1  0.61128483  0.54166667  0.18467271  1.0
  Co  Co212  1  0.61128483  0.87500000  0.18467271  1.0
  Co  Co213  1  0.94461817  0.20833333  0.18467271  1.0
  Co  Co214  1  0.94461817  0.54166667  0.18467271  1.0
  Co  Co215  1  0.94461817  0.87500000  0.18467271  1.0
  Co  Co216  1  0.22256967  0.12500000  0.17269350  1.0
  Co  Co217  1  0.22256967  0.45833333  0.17269350  1.0
  Co  Co218  1  0.22256967  0.79166667  0.17269350  1.0
  Co  Co219  1  0.55590300  0.12500000  0.17269350  1.0
  Co  Co220  1  0.55590300  0.45833333  0.17269350  1.0
  Co  Co221  1  0.55590300  0.79166667  0.17269350  1.0
  Co  Co222  1  0.88923633  0.12500000  0.17269350  1.0
  Co  Co223  1  0.88923633  0.45833333  0.17269350  1.0
  Co  Co224  1  0.88923633  0.79166667  0.17269350  1.0
  Co  Co225  1  0.22256967  0.29166667  0.24412207  1.0
  Co  Co226  1  0.22256967  0.62500000  0.24412207  1.0
  Co  Co227  1  0.22256967  0.95833333  0.24412207  1.0
  Co  Co228  1  0.55590300  0.29166667  0.24412207  1.0
  Co  Co229  1  0.55590300  0.62500000  0.24412207  1.0
  Co  Co230  1  0.55590300  0.95833333  0.24412207  1.0
  Co  Co231  1  0.88923633  0.29166667  0.24412207  1.0
  Co  Co232  1  0.88923633  0.62500000  0.24412207  1.0
  Co  Co233  1  0.88923633  0.95833333  0.24412207  1.0
  Co  Co234  1  0.05538183  0.12500000  0.17269350  1.0
  Co  Co235  1  0.05538183  0.45833333  0.17269350  1.0
  Co  Co236  1  0.05538183  0.79166667  0.17269350  1.0
  Co  Co237  1  0.38871517  0.12500000  0.17269350  1.0
  Co  Co238  1  0.38871517  0.45833333  0.17269350  1.0
  Co  Co239  1  0.38871517  0.79166667  0.17269350  1.0
  Co  Co240  1  0.72204850  0.12500000  0.17269350  1.0
  Co  Co241  1  0.72204850  0.45833333  0.17269350  1.0
  Co  Co242  1  0.72204850  0.79166667  0.17269350  1.0
  Co  Co243  1  0.05538183  0.29166667  0.24412207  1.0
  Co  Co244  1  0.05538183  0.62500000  0.24412207  1.0
  Co  Co245  1  0.05538183  0.95833333  0.24412207  1.0
  Co  Co246  1  0.38871517  0.29166667  0.24412207  1.0
  Co  Co247  1  0.38871517  0.62500000  0.24412207  1.0
  Co  Co248  1  0.38871517  0.95833333  0.24412207  1.0
  Co  Co249  1  0.72204850  0.29166667  0.24412207  1.0
  Co  Co250  1  0.72204850  0.62500000  0.24412207  1.0
  Co  Co251  1  0.72204850  0.95833333  0.24412207  1.0
  Ni  Ni252  1  0.22222222  0.12500000  0.24404762  1.0
  Ni  Ni253  1  0.22222222  0.45833333  0.24404762  1.0
  Ni  Ni254  1  0.22222222  0.79166667  0.24404762  1.0
  Ni  Ni255  1  0.55555556  0.12500000  0.24404762  1.0
  Ni  Ni256  1  0.55555556  0.45833333  0.24404762  1.0
  Ni  Ni257  1  0.55555556  0.79166667  0.24404762  1.0
  Ni  Ni258  1  0.88888889  0.12500000  0.24404762  1.0
  Ni  Ni259  1  0.88888889  0.45833333  0.24404762  1.0
  Ni  Ni260  1  0.88888889  0.79166667  0.24404762  1.0
  Ni  Ni261  1  0.22222222  0.29166667  0.17261905  1.0
  Ni  Ni262  1  0.22222222  0.62500000  0.17261905  1.0
  Ni  Ni263  1  0.22222222  0.95833333  0.17261905  1.0
  Ni  Ni264  1  0.55555556  0.29166667  0.17261905  1.0
  Ni  Ni265  1  0.55555556  0.62500000  0.17261905  1.0
  Ni  Ni266  1  0.55555556  0.95833333  0.17261905  1.0
  Ni  Ni267  1  0.88888889  0.29166667  0.17261905  1.0
  Ni  Ni268  1  0.88888889  0.62500000  0.17261905  1.0
  Ni  Ni269  1  0.88888889  0.95833333  0.17261905  1.0
  Ni  Ni270  1  0.11111111  0.04166667  0.25595238  1.0
  Ni  Ni271  1  0.11111111  0.37500000  0.25595238  1.0
  Ni  Ni272  1  0.11111111  0.70833333  0.25595238  1.0
  Ni  Ni273  1  0.44444444  0.04166667  0.25595238  1.0
  Ni  Ni274  1  0.44444444  0.37500000  0.25595238  1.0
  Ni  Ni275  1  0.44444444  0.70833333  0.25595238  1.0
  Ni  Ni276  1  0.77777778  0.04166667  0.25595238  1.0
  Ni  Ni277  1  0.77777778  0.37500000  0.25595238  1.0
  Ni  Ni278  1  0.77777778  0.70833333  0.25595238  1.0
  Ni  Ni279  1  0.11111111  0.20833333  0.18452381  1.0
  Ni  Ni280  1  0.11111111  0.54166667  0.18452381  1.0
  Ni  Ni281  1  0.11111111  0.87500000  0.18452381  1.0
  Ni  Ni282  1  0.44444444  0.20833333  0.18452381  1.0
  Ni  Ni283  1  0.44444444  0.54166667  0.18452381  1.0
  Ni  Ni284  1  0.44444444  0.87500000  0.18452381  1.0
  Ni  Ni285  1  0.77777778  0.20833333  0.18452381  1.0
  Ni  Ni286  1  0.77777778  0.54166667  0.18452381  1.0
  Ni  Ni287  1  0.77777778  0.87500000  0.18452381  1.0
  Co  Co288  1  0.05538183  0.12500000  0.38675586  1.0
  Co  Co289  1  0.05538183  0.45833333  0.38675586  1.0
  Co  Co290  1  0.05538183  0.79166667  0.38675586  1.0
  Co  Co291  1  0.38871517  0.12500000  0.38675586  1.0
  Co  Co292  1  0.38871517  0.45833333  0.38675586  1.0
  Co  Co293  1  0.38871517  0.79166667  0.38675586  1.0
  Co  Co294  1  0.72204850  0.12500000  0.38675586  1.0
  Co  Co295  1  0.72204850  0.45833333  0.38675586  1.0
  Co  Co296  1  0.72204850  0.79166667  0.38675586  1.0
  Co  Co297  1  0.05538183  0.29166667  0.31532729  1.0
  Co  Co298  1  0.05538183  0.62500000  0.31532729  1.0
  Co  Co299  1  0.05538183  0.95833333  0.31532729  1.0
  Co  Co300  1  0.38871517  0.29166667  0.31532729  1.0
  Co  Co301  1  0.38871517  0.62500000  0.31532729  1.0
  Co  Co302  1  0.38871517  0.95833333  0.31532729  1.0
  Co  Co303  1  0.72204850  0.29166667  0.31532729  1.0
  Co  Co304  1  0.72204850  0.62500000  0.31532729  1.0
  Co  Co305  1  0.72204850  0.95833333  0.31532729  1.0
  Co  Co306  1  0.11076367  0.04166667  0.32730650  1.0
  Co  Co307  1  0.11076367  0.37500000  0.32730650  1.0
  Co  Co308  1  0.11076367  0.70833333  0.32730650  1.0
  Co  Co309  1  0.44409700  0.04166667  0.32730650  1.0
  Co  Co310  1  0.44409700  0.37500000  0.32730650  1.0
  Co  Co311  1  0.44409700  0.70833333  0.32730650  1.0
  Co  Co312  1  0.77743033  0.04166667  0.32730650  1.0
  Co  Co313  1  0.77743033  0.37500000  0.32730650  1.0
  Co  Co314  1  0.77743033  0.70833333  0.32730650  1.0
  Co  Co315  1  0.11076367  0.20833333  0.39873507  1.0
  Co  Co316  1  0.11076367  0.54166667  0.39873507  1.0
  Co  Co317  1  0.11076367  0.87500000  0.39873507  1.0
  Co  Co318  1  0.44409700  0.20833333  0.39873507  1.0
  Co  Co319  1  0.44409700  0.54166667  0.39873507  1.0
  Co  Co320  1  0.44409700  0.87500000  0.39873507  1.0
  Co  Co321  1  0.77743033  0.20833333  0.39873507  1.0
  Co  Co322  1  0.77743033  0.54166667  0.39873507  1.0
  Co  Co323  1  0.77743033  0.87500000  0.39873507  1.0
  Co  Co324  1  0.27795150  0.04166667  0.32730650  1.0
  Co  Co325  1  0.27795150  0.37500000  0.32730650  1.0
  Co  Co326  1  0.27795150  0.70833333  0.32730650  1.0
  Co  Co327  1  0.61128483  0.04166667  0.32730650  1.0
  Co  Co328  1  0.61128483  0.37500000  0.32730650  1.0
  Co  Co329  1  0.61128483  0.70833333  0.32730650  1.0
  Co  Co330  1  0.94461817  0.04166667  0.32730650  1.0
  Co  Co331  1  0.94461817  0.37500000  0.32730650  1.0
  Co  Co332  1  0.94461817  0.70833333  0.32730650  1.0
  Co  Co333  1  0.27795150  0.20833333  0.39873507  1.0
  Co  Co334  1  0.27795150  0.54166667  0.39873507  1.0
  Co  Co335  1  0.27795150  0.87500000  0.39873507  1.0
  Co  Co336  1  0.61128483  0.20833333  0.39873507  1.0
  Co  Co337  1  0.61128483  0.54166667  0.39873507  1.0
  Co  Co338  1  0.61128483  0.87500000  0.39873507  1.0
  Co  Co339  1  0.94461817  0.20833333  0.39873507  1.0
  Co  Co340  1  0.94461817  0.54166667  0.39873507  1.0
  Co  Co341  1  0.94461817  0.87500000  0.39873507  1.0
  Co  Co342  1  0.27795150  0.04166667  0.39895843  1.0
  Co  Co343  1  0.27795150  0.37500000  0.39895843  1.0
  Co  Co344  1  0.27795150  0.70833333  0.39895843  1.0
  Co  Co345  1  0.61128483  0.04166667  0.39895843  1.0
  Co  Co346  1  0.61128483  0.37500000  0.39895843  1.0
  Co  Co347  1  0.61128483  0.70833333  0.39895843  1.0
  Co  Co348  1  0.94461817  0.04166667  0.39895843  1.0
  Co  Co349  1  0.94461817  0.37500000  0.39895843  1.0
  Co  Co350  1  0.94461817  0.70833333  0.39895843  1.0
  Co  Co351  1  0.27795150  0.20833333  0.32752986  1.0
  Co  Co352  1  0.27795150  0.54166667  0.32752986  1.0
  Co  Co353  1  0.27795150  0.87500000  0.32752986  1.0
  Co  Co354  1  0.61128483  0.20833333  0.32752986  1.0
  Co  Co355  1  0.61128483  0.54166667  0.32752986  1.0
  Co  Co356  1  0.61128483  0.87500000  0.32752986  1.0
  Co  Co357  1  0.94461817  0.20833333  0.32752986  1.0
  Co  Co358  1  0.94461817  0.54166667  0.32752986  1.0
  Co  Co359  1  0.94461817  0.87500000  0.32752986  1.0
  Co  Co360  1  0.22256967  0.12500000  0.31555064  1.0
  Co  Co361  1  0.22256967  0.45833333  0.31555064  1.0
  Co  Co362  1  0.22256967  0.79166667  0.31555064  1.0
  Co  Co363  1  0.55590300  0.12500000  0.31555064  1.0
  Co  Co364  1  0.55590300  0.45833333  0.31555064  1.0
  Co  Co365  1  0.55590300  0.79166667  0.31555064  1.0
  Co  Co366  1  0.88923633  0.12500000  0.31555064  1.0
  Co  Co367  1  0.88923633  0.45833333  0.31555064  1.0
  Co  Co368  1  0.88923633  0.79166667  0.31555064  1.0
  Co  Co369  1  0.22256967  0.29166667  0.38697921  1.0
  Co  Co370  1  0.22256967  0.62500000  0.38697921  1.0
  Co  Co371  1  0.22256967  0.95833333  0.38697921  1.0
  Co  Co372  1  0.55590300  0.29166667  0.38697921  1.0
  Co  Co373  1  0.55590300  0.62500000  0.38697921  1.0
  Co  Co374  1  0.55590300  0.95833333  0.38697921  1.0
  Co  Co375  1  0.88923633  0.29166667  0.38697921  1.0
  Co  Co376  1  0.88923633  0.62500000  0.38697921  1.0
  Co  Co377  1  0.88923633  0.95833333  0.38697921  1.0
  Co  Co378  1  0.05538183  0.12500000  0.31555064  1.0
  Co  Co379  1  0.05538183  0.45833333  0.31555064  1.0
  Co  Co380  1  0.05538183  0.79166667  0.31555064  1.0
  Co  Co381  1  0.38871517  0.12500000  0.31555064  1.0
  Co  Co382  1  0.38871517  0.45833333  0.31555064  1.0
  Co  Co383  1  0.38871517  0.79166667  0.31555064  1.0
  Co  Co384  1  0.72204850  0.12500000  0.31555064  1.0
  Co  Co385  1  0.72204850  0.45833333  0.31555064  1.0
  Co  Co386  1  0.72204850  0.79166667  0.31555064  1.0
  Co  Co387  1  0.05538183  0.29166667  0.38697921  1.0
  Co  Co388  1  0.05538183  0.62500000  0.38697921  1.0
  Co  Co389  1  0.05538183  0.95833333  0.38697921  1.0
  Co  Co390  1  0.38871517  0.29166667  0.38697921  1.0
  Co  Co391  1  0.38871517  0.62500000  0.38697921  1.0
  Co  Co392  1  0.38871517  0.95833333  0.38697921  1.0
  Co  Co393  1  0.72204850  0.29166667  0.38697921  1.0
  Co  Co394  1  0.72204850  0.62500000  0.38697921  1.0
  Co  Co395  1  0.72204850  0.95833333  0.38697921  1.0
  Ni  Ni396  1  0.22222222  0.12500000  0.38690476  1.0
  Ni  Ni397  1  0.22222222  0.45833333  0.38690476  1.0
  Ni  Ni398  1  0.22222222  0.79166667  0.38690476  1.0
  Ni  Ni399  1  0.55555556  0.12500000  0.38690476  1.0
  Ni  Ni400  1  0.55555556  0.45833333  0.38690476  1.0
  Ni  Ni401  1  0.55555556  0.79166667  0.38690476  1.0
  Ni  Ni402  1  0.88888889  0.12500000  0.38690476  1.0
  Ni  Ni403  1  0.88888889  0.45833333  0.38690476  1.0
  Ni  Ni404  1  0.88888889  0.79166667  0.38690476  1.0
  Ni  Ni405  1  0.22222222  0.29166667  0.31547619  1.0
  Ni  Ni406  1  0.22222222  0.62500000  0.31547619  1.0
  Ni  Ni407  1  0.22222222  0.95833333  0.31547619  1.0
  Ni  Ni408  1  0.55555556  0.29166667  0.31547619  1.0
  Ni  Ni409  1  0.55555556  0.62500000  0.31547619  1.0
  Ni  Ni410  1  0.55555556  0.95833333  0.31547619  1.0
  Ni  Ni411  1  0.88888889  0.29166667  0.31547619  1.0
  Ni  Ni412  1  0.88888889  0.62500000  0.31547619  1.0
  Ni  Ni413  1  0.88888889  0.95833333  0.31547619  1.0
  Ni  Ni414  1  0.11111111  0.04166667  0.39880952  1.0
  Ni  Ni415  1  0.11111111  0.37500000  0.39880952  1.0
  Ni  Ni416  1  0.11111111  0.70833333  0.39880952  1.0
  Ni  Ni417  1  0.44444444  0.04166667  0.39880952  1.0
  Ni  Ni418  1  0.44444444  0.37500000  0.39880952  1.0
  Ni  Ni419  1  0.44444444  0.70833333  0.39880952  1.0
  Ni  Ni420  1  0.77777778  0.04166667  0.39880952  1.0
  Ni  Ni421  1  0.77777778  0.37500000  0.39880952  1.0
  Ni  Ni422  1  0.77777778  0.70833333  0.39880952  1.0
  Ni  Ni423  1  0.11111111  0.20833333  0.32738095  1.0
  Ni  Ni424  1  0.11111111  0.54166667  0.32738095  1.0
  Ni  Ni425  1  0.11111111  0.87500000  0.32738095  1.0
  Ni  Ni426  1  0.44444444  0.20833333  0.32738095  1.0
  Ni  Ni427  1  0.44444444  0.54166667  0.32738095  1.0
  Ni  Ni428  1  0.44444444  0.87500000  0.32738095  1.0
  Ni  Ni429  1  0.77777778  0.20833333  0.32738095  1.0
  Ni  Ni430  1  0.77777778  0.54166667  0.32738095  1.0
  Ni  Ni431  1  0.77777778  0.87500000  0.32738095  1.0
