# generated using pymatgen
data_Co3Ni
_symmetry_space_group_name_H-M   'P 1'
_cell_length_a   14.90894060
_cell_length_b   18.25964854
_cell_length_c   28.76391080
_cell_angle_alpha   94.04469124
_cell_angle_beta   90.00000000
_cell_angle_gamma   90.00000000
_symmetry_Int_Tables_number   1
_chemical_formula_structural   Co3Ni
_chemical_formula_sum   'Co216 Ni72'
_cell_volume   7810.95437332
_cell_formula_units_Z   72
loop_
 _symmetry_equiv_pos_site_id
 _symmetry_equiv_pos_as_xyz
  1  'x, y, z'
loop_
 _atom_site_type_symbol
 _atom_site_label
 _atom_site_symmetry_multiplicity
 _atom_site_fract_x
 _atom_site_fract_y
 _atom_site_fract_z
 _atom_site_occupancy
  Co  Co0  1  0.08333333  0.31250000  0.93750000  1.0
  Co  Co1  1  0.08333333  0.64583333  0.93750000  1.0
  Co  Co2  1  0.08333333  0.97916667  0.93750000  1.0
  Co  Co3  1  0.41666667  0.31250000  0.93750000  1.0
  Co  Co4  1  0.41666667  0.64583333  0.93750000  1.0
  Co  Co5  1  0.41666667  0.97916667  0.93750000  1.0
  Co  Co6  1  0.75000000  0.31250000  0.93750000  1.0
  Co  Co7  1  0.75000000  0.64583333  0.93750000  1.0
  Co  Co8  1  0.75000000  0.97916667  0.93750000  1.0
  Co  Co9  1  0.25000000  0.09583333  0.98750000  1.0
  Co  Co10  1  0.25000000  0.42916667  0.98750000  1.0
  Co  Co11  1  0.25000000  0.76250000  0.98750000  1.0
  Co  Co12  1  0.58333333  0.09583333  0.98750000  1.0
  Co  Co13  1  0.58333333  0.42916667  0.98750000  1.0
  Co  Co14  1  0.58333333  0.76250000  0.98750000  1.0
  Co  Co15  1  0.91666667  0.09583333  0.98750000  1.0
  Co  Co16  1  0.91666667  0.42916667  0.98750000  1.0
  Co  Co17  1  0.91666667  0.76250000  0.98750000  1.0
  Co  Co18  1  0.25000000  0.31250000  0.93750000  1.0
  Co  Co19  1  0.25000000  0.64583333  0.93750000  1.0
  Co  Co20  1  0.25000000  0.97916667  0.93750000  1.0
  Co  Co21  1  0.58333333  0.31250000  0.93750000  1.0
  Co  Co22  1  0.58333333  0.64583333  0.93750000  1.0
  Co  Co23  1  0.58333333  0.97916667  0.93750000  1.0
  Co  Co24  1  0.91666667  0.31250000  0.93750000  1.0
  Co  Co25  1  0.91666667  0.64583333  0.93750000  1.0
  Co  Co26  1  0.91666667  0.97916667  0.93750000  1.0
  Co  Co27  1  0.08333333  0.09583333  0.98750000  1.0
  Co  Co28  1  0.08333333  0.42916667  0.98750000  1.0
  Co  Co29  1  0.08333333  0.76250000  0.98750000  1.0
  Co  Co30  1  0.41666667  0.09583333  0.98750000  1.0
  Co  Co31  1  0.41666667  0.42916667  0.98750000  1.0
  Co  Co32  1  0.41666667  0.76250000  0.98750000  1.0
  Co  Co33  1  0.75000000  0.09583333  0.98750000  1.0
  Co  Co34  1  0.75000000  0.42916667  0.98750000  1.0
  Co  Co35  1  0.75000000  0.76250000  0.98750000  1.0
  Co  Co36  1  0.00000000  0.20416667  0.96250000  1.0
  Co  Co37  1  0.00000000  0.53750000  0.96250000  1.0
  Co  Co38  1  0.00000000  0.87083333  0.96250000  1.0
  Co  Co39  1  0.33333333  0.20416667  0.96250000  1.0
  Co  Co40  1  0.33333333  0.53750000  0.96250000  1.0
  Co  Co41  1  0.33333333  0.87083333  0.96250000  1.0
  Co  Co42  1  0.66666667  0.20416667  0.96250000  1.0
  Co  Co43  1  0.66666667  0.53750000  0.96250000  1.0
  Co  Co44  1  0.66666667  0.87083333  0.96250000  1.0
  Co  Co45  1  0.16666667  0.08750000  0.91250000  1.0
  Co  Co46  1  0.16666667  0.42083333  0.91250000  1.0
  Co  Co47  1  0.16666667  0.75416667  0.91250000  1.0
  Co  Co48  1  0.50000000  0.08750000  0.91250000  1.0
  Co  Co49  1  0.50000000  0.42083333  0.91250000  1.0
  Co  Co50  1  0.50000000  0.75416667  0.91250000  1.0
  Co  Co51  1  0.83333333  0.08750000  0.91250000  1.0
  Co  Co52  1  0.83333333  0.42083333  0.91250000  1.0
  Co  Co53  1  0.83333333  0.75416667  0.91250000  1.0
  Co  Co54  1  0.08333333  0.07916667  0.83750000  1.0
  Co  Co55  1  0.08333333  0.41250000  0.83750000  1.0
  Co  Co56  1  0.08333333  0.74583333  0.83750000  1.0
  Co  Co57  1  0.41666667  0.07916667  0.83750000  1.0
  Co  Co58  1  0.41666667  0.41250000  0.83750000  1.0
  Co  Co59  1  0.41666667  0.74583333  0.83750000  1.0
  Co  Co60  1  0.75000000  0.07916667  0.83750000  1.0
  Co  Co61  1  0.75000000  0.41250000  0.83750000  1.0
  Co  Co62  1  0.75000000  0.74583333  0.83750000  1.0
  Co  Co63  1  0.25000000  0.19583333  0.88750000  1.0
  Co  Co64  1  0.25000000  0.52916667  0.88750000  1.0
  Co  Co65  1  0.25000000  0.86250000  0.88750000  1.0
  Co  Co66  1  0.58333333  0.19583333  0.88750000  1.0
  Co  Co67  1  0.58333333  0.52916667  0.88750000  1.0
  Co  Co68  1  0.58333333  0.86250000  0.88750000  1.0
  Co  Co69  1  0.91666667  0.19583333  0.88750000  1.0
  Co  Co70  1  0.91666667  0.52916667  0.88750000  1.0
  Co  Co71  1  0.91666667  0.86250000  0.88750000  1.0
  Co  Co72  1  0.25000000  0.07916667  0.83750000  1.0
  Co  Co73  1  0.25000000  0.41250000  0.83750000  1.0
  Co  Co74  1  0.25000000  0.74583333  0.83750000  1.0
  Co  Co75  1  0.58333333  0.07916667  0.83750000  1.0
  Co  Co76  1  0.58333333  0.41250000  0.83750000  1.0
  Co  Co77  1  0.58333333  0.74583333  0.83750000  1.0
  Co  Co78  1  0.91666667  0.07916667  0.83750000  1.0
  Co  Co79  1  0.91666667  0.41250000  0.83750000  1.0
  Co  Co80  1  0.91666667  0.74583333  0.83750000  1.0
  Co  Co81  1  0.08333333  0.19583333  0.88750000  1.0
  Co  Co82  1  0.08333333  0.52916667  0.88750000  1.0
  Co  Co83  1  0.08333333  0.86250000  0.88750000  1.0
  Co  Co84  1  0.41666667  0.19583333  0.88750000  1.0
  Co  Co85  1  0.41666667  0.52916667  0.88750000  1.0
  Co  Co86  1  0.41666667  0.86250000  0.88750000  1.0
  Co  Co87  1  0.75000000  0.19583333  0.88750000  1.0
  Co  Co88  1  0.75000000  0.52916667  0.88750000  1.0
  Co  Co89  1  0.75000000  0.86250000  0.88750000  1.0
  Co  Co90  1  0.33333333  0.30416667  0.86250000  1.0
  Co  Co91  1  0.33333333  0.63750000  0.86250000  1.0
  Co  Co92  1  0.33333333  0.97083333  0.86250000  1.0
  Co  Co93  1  0.66666667  0.30416667  0.86250000  1.0
  Co  Co94  1  0.66666667  0.63750000  0.86250000  1.0
  Co  Co95  1  0.66666667  0.97083333  0.86250000  1.0
  Co  Co96  1  1.00000000  0.30416667  0.86250000  1.0
  Co  Co97  1  1.00000000  0.63750000  0.86250000  1.0
  Co  Co98  1  1.00000000  0.97083333  0.86250000  1.0
  Co  Co99  1  0.16666667  0.18750000  0.81250000  1.0
  Co  Co100  1  0.16666667  0.52083333  0.81250000  1.0
  Co  Co101  1  0.16666667  0.85416667  0.81250000  1.0
  Co  Co102  1  0.50000000  0.18750000  0.81250000  1.0
  Co  Co103  1  0.50000000  0.52083333  0.81250000  1.0
  Co  Co104  1  0.50000000  0.85416667  0.81250000  1.0
  Co  Co105  1  0.83333333  0.18750000  0.81250000  1.0
  Co  Co106  1  0.83333333  0.52083333  0.81250000  1.0
  Co  Co107  1  0.83333333  0.85416667  0.81250000  1.0
  Co  Co108  1  0.08333333  0.17916667  0.73750000  1.0
  Co  Co109  1  0.08333333  0.51250000  0.73750000  1.0
  Co  Co110  1  0.08333333  0.84583333  0.73750000  1.0
  Co  Co111  1  0.41666667  0.17916667  0.73750000  1.0
  Co  Co112  1  0.41666667  0.51250000  0.73750000  1.0
  Co  Co113  1  0.41666667  0.84583333  0.73750000  1.0
  Co  Co114  1  0.75000000  0.17916667  0.73750000  1.0
  Co  Co115  1  0.75000000  0.51250000  0.73750000  1.0
  Co  Co116  1  0.75000000  0.84583333  0.73750000  1.0
  Co  Co117  1  0.25000000  0.29583333  0.78750000  1.0
  Co  Co118  1  0.25000000  0.62916667  0.78750000  1.0
  Co  Co119  1  0.25000000  0.96250000  0.78750000  1.0
  Co  Co120  1  0.58333333  0.29583333  0.78750000  1.0
  Co  Co121  1  0.58333333  0.62916667  0.78750000  1.0
  Co  Co122  1  0.58333333  0.96250000  0.78750000  1.0
  Co  Co123  1  0.91666667  0.29583333  0.78750000  1.0
  Co  Co124  1  0.91666667  0.62916667  0.78750000  1.0
  Co  Co125  1  0.91666667  0.96250000  0.78750000  1.0
  Co  Co126  1  0.25000000  0.17916667  0.73750000  1.0
  Co  Co127  1  0.25000000  0.51250000  0.73750000  1.0
  Co  Co128  1  0.25000000  0.84583333  0.73750000  1.0
  Co  Co129  1  0.58333333  0.17916667  0.73750000  1.0
  Co  Co130  1  0.58333333  0.51250000  0.73750000  1.0
  Co  Co131  1  0.58333333  0.84583333  0.73750000  1.0
  Co  Co132  1  0.91666667  0.17916667  0.73750000  1.0
  Co  Co133  1  0.91666667  0.51250000  0.73750000  1.0
  Co  Co134  1  0.91666667  0.84583333  0.73750000  1.0
  Co  Co135  1  0.08333333  0.29583333  0.78750000  1.0
  Co  Co136  1  0.08333333  0.62916667  0.78750000  1.0
  Co  Co137  1  0.08333333  0.96250000  0.78750000  1.0
  Co  Co138  1  0.41666667  0.29583333  0.78750000  1.0
  Co  Co139  1  0.41666667  0.62916667  0.78750000  1.0
  Co  Co140  1  0.41666667  0.96250000  0.78750000  1.0
  Co  Co141  1  0.75000000  0.29583333  0.78750000  1.0
  Co  Co142  1  0.75000000  0.62916667  0.78750000  1.0
  Co  Co143  1  0.75000000  0.96250000  0.78750000  1.0
  Co  Co144  1  0.00000000  0.07083333  0.76250000  1.0
  Co  Co145  1  0.00000000  0.40416667  0.76250000  1.0
  Co  Co146  1  0.00000000  0.73750000  0.76250000  1.0
  Co  Co147  1  0.33333333  0.07083333  0.76250000  1.0
  Co  Co148  1  0.33333333  0.40416667  0.76250000  1.0
  Co  Co149  1  0.33333333  0.73750000  0.76250000  1.0
  Co  Co150  1  0.66666667  0.07083333  0.76250000  1.0
  Co  Co151  1  0.66666667  0.40416667  0.76250000  1.0
  Co  Co152  1  0.66666667  0.73750000  0.76250000  1.0
  Co  Co153  1  0.16666667  0.28750000  0.71250000  1.0
  Co  Co154  1  0.16666667  0.62083333  0.71250000  1.0
  Co  Co155  1  0.16666667  0.95416667  0.71250000  1.0
  Co  Co156  1  0.50000000  0.28750000  0.71250000  1.0
  Co  Co157  1  0.50000000  0.62083333  0.71250000  1.0
  Co  Co158  1  0.50000000  0.95416667  0.71250000  1.0
  Co  Co159  1  0.83333333  0.28750000  0.71250000  1.0
  Co  Co160  1  0.83333333  0.62083333  0.71250000  1.0
  Co  Co161  1  0.83333333  0.95416667  0.71250000  1.0
  Co  Co162  1  0.08333333  0.27916667  0.63750000  1.0
  Co  Co163  1  0.08333333  0.61250000  0.63750000  1.0
  Co  Co164  1  0.08333333  0.94583333  0.63750000  1.0
  Co  Co165  1  0.41666667  0.27916667  0.63750000  1.0
  Co  Co166  1  0.41666667  0.61250000  0.63750000  1.0
  Co  Co167  1  0.41666667  0.94583333  0.63750000  1.0
  Co  Co168  1  0.75000000  0.27916667  0.63750000  1.0
  Co  Co169  1  0.75000000  0.61250000  0.63750000  1.0
  Co  Co170  1  0.75000000  0.94583333  0.63750000  1.0
  Co  Co171  1  0.25000000  0.06250000  0.68750000  1.0
  Co  Co172  1  0.25000000  0.39583333  0.68750000  1.0
  Co  Co173  1  0.25000000  0.72916667  0.68750000  1.0
  Co  Co174  1  0.58333333  0.06250000  0.68750000  1.0
  Co  Co175  1  0.58333333  0.39583333  0.68750000  1.0
  Co  Co176  1  0.58333333  0.72916667  0.68750000  1.0
  Co  Co177  1  0.91666667  0.06250000  0.68750000  1.0
  Co  Co178  1  0.91666667  0.39583333  0.68750000  1.0
  Co  Co179  1  0.91666667  0.72916667  0.68750000  1.0
  Co  Co180  1  0.25000000  0.27916667  0.63750000  1.0
  Co  Co181  1  0.25000000  0.61250000  0.63750000  1.0
  Co  Co182  1  0.25000000  0.94583333  0.63750000  1.0
  Co  Co183  1  0.58333333  0.27916667  0.63750000  1.0
  Co  Co184  1  0.58333333  0.61250000  0.63750000  1.0
  Co  Co185  1  0.58333333  0.94583333  0.63750000  1.0
  Co  Co186  1  0.91666667  0.27916667  0.63750000  1.0
  Co  Co187  1  0.91666667  0.61250000  0.63750000  1.0
  Co  Co188  1  0.91666667  0.94583333  0.63750000  1.0
  Co  Co189  1  0.08333333  0.06250000  0.68750000  1.0
  Co  Co190  1  0.08333333  0.39583333  0.68750000  1.0
  Co  Co191  1  0.08333333  0.72916667  0.68750000  1.0
  Co  Co192  1  0.41666667  0.06250000  0.68750000  1.0
  Co  Co193  1  0.41666667  0.39583333  0.68750000  1.0
  Co  Co194  1  0.41666667  0.72916667  0.68750000  1.0
  Co  Co195  1  0.75000000  0.06250000  0.68750000  1.0
  Co  Co196  1  0.75000000  0.39583333  0.68750000  1.0
  Co  Co197  1  0.75000000  0.72916667  0.68750000  1.0
  Co  Co198  1  0.00000000  0.17083333  0.66250000  1.0
  Co  Co199  1  0.00000000  0.50416667  0.66250000  1.0
  Co  Co200  1  0.00000000  0.83750000  0.66250000  1.0
  Co  Co201  1  0.33333333  0.17083333  0.66250000  1.0
  Co  Co202  1  0.33333333  0.50416667  0.66250000  1.0
  Co  Co203  1  0.33333333  0.83750000  0.66250000  1.0
  Co  Co204  1  0.66666667  0.17083333  0.66250000  1.0
  Co  Co205  1  0.66666667  0.50416667  0.66250000  1.0
  Co  Co206  1  0.66666667  0.83750000  0.66250000  1.0
  Co  Co207  1  0.16666667  0.05416667  0.61250000  1.0
  Co  Co208  1  0.16666667  0.38750000  0.61250000  1.0
  Co  Co209  1  0.16666667  0.72083333  0.61250000  1.0
  Co  Co210  1  0.50000000  0.05416667  0.61250000  1.0
  Co  Co211  1  0.50000000  0.38750000  0.61250000  1.0
  Co  Co212  1  0.50000000  0.72083333  0.61250000  1.0
  Co  Co213  1  0.83333333  0.05416667  0.61250000  1.0
  Co  Co214  1  0.83333333  0.38750000  0.61250000  1.0
  Co  Co215  1  0.83333333  0.72083333  0.61250000  1.0
  Ni  Ni216  1  0.00000000  0.08750000  0.91250000  1.0
  Ni  Ni217  1  0.00000000  0.42083333  0.91250000  1.0
  Ni  Ni218  1  0.00000000  0.75416667  0.91250000  1.0
  Ni  Ni219  1  0.33333333  0.08750000  0.91250000  1.0
  Ni  Ni220  1  0.33333333  0.42083333  0.91250000  1.0
  Ni  Ni221  1  0.33333333  0.75416667  0.91250000  1.0
  Ni  Ni222  1  0.66666667  0.08750000  0.91250000  1.0
  Ni  Ni223  1  0.66666667  0.42083333  0.91250000  1.0
  Ni  Ni224  1  0.66666667  0.75416667  0.91250000  1.0
  Ni  Ni225  1  0.16666667  0.20416667  0.96250000  1.0
  Ni  Ni226  1  0.16666667  0.53750000  0.96250000  1.0
  Ni  Ni227  1  0.16666667  0.87083333  0.96250000  1.0
  Ni  Ni228  1  0.50000000  0.20416667  0.96250000  1.0
  Ni  Ni229  1  0.50000000  0.53750000  0.96250000  1.0
  Ni  Ni230  1  0.50000000  0.87083333  0.96250000  1.0
  Ni  Ni231  1  0.83333333  0.20416667  0.96250000  1.0
  Ni  Ni232  1  0.83333333  0.53750000  0.96250000  1.0
  Ni  Ni233  1  0.83333333  0.87083333  0.96250000  1.0
  Ni  Ni234  1  0.00000000  0.18750000  0.81250000  1.0
  Ni  Ni235  1  0.00000000  0.52083333  0.81250000  1.0
  Ni  Ni236  1  0.00000000  0.85416667  0.81250000  1.0
  Ni  Ni237  1  0.33333333  0.18750000  0.81250000  1.0
  Ni  Ni238  1  0.33333333  0.52083333  0.81250000  1.0
  Ni  Ni239  1  0.33333333  0.85416667  0.81250000  1.0
  Ni  Ni240  1  0.66666667  0.18750000  0.81250000  1.0
  Ni  Ni241  1  0.66666667  0.52083333  0.81250000  1.0
  Ni  Ni242  1  0.66666667  0.85416667  0.81250000  1.0
  Ni  Ni243  1  0.16666667  0.30416667  0.86250000  1.0
  Ni  Ni244  1  0.16666667  0.63750000  0.86250000  1.0
  Ni  Ni245  1  0.16666667  0.97083333  0.86250000  1.0
  Ni  Ni246  1  0.50000000  0.30416667  0.86250000  1.0
  Ni  Ni247  1  0.50000000  0.63750000  0.86250000  1.0
  Ni  Ni248  1  0.50000000  0.97083333  0.86250000  1.0
  Ni  Ni249  1  0.83333333  0.30416667  0.86250000  1.0
  Ni  Ni250  1  0.83333333  0.63750000  0.86250000  1.0
  Ni  Ni251  1  0.83333333  0.97083333  0.86250000  1.0
  Ni  Ni252  1  0.00000000  0.28750000  0.71250000  1.0
  Ni  Ni253  1  0.00000000  0.62083333  0.71250000  1.0
  Ni  Ni254  1  0.00000000  0.95416667  0.71250000  1.0
  Ni  Ni255  1  0.33333333  0.28750000  0.71250000  1.0
  Ni  Ni256  1  0.33333333  0.62083333  0.71250000  1.0
  Ni  Ni257  1  0.33333333  0.95416667  0.71250000  1.0
  Ni  Ni258  1  0.66666667  0.28750000  0.71250000  1.0
  Ni  Ni259  1  0.66666667  0.62083333  0.71250000  1.0
  Ni  Ni260  1  0.66666667  0.95416667  0.71250000  1.0
  Ni  Ni261  1  0.16666667  0.07083333  0.76250000  1.0
  Ni  Ni262  1  0.16666667  0.40416667  0.76250000  1.0
  Ni  Ni263  1  0.16666667  0.73750000  0.76250000  1.0
  Ni  Ni264  1  0.50000000  0.07083333  0.76250000  1.0
  Ni  Ni265  1  0.50000000  0.40416667  0.76250000  1.0
  Ni  Ni266  1  0.50000000  0.73750000  0.76250000  1.0
  Ni  Ni267  1  0.83333333  0.07083333  0.76250000  1.0
  Ni  Ni268  1  0.83333333  0.40416667  0.76250000  1.0
  Ni  Ni269  1  0.83333333  0.73750000  0.76250000  1.0
  Ni  Ni270  1  0.00000000  0.05416667  0.61250000  1.0
  Ni  Ni271  1  0.00000000  0.38750000  0.61250000  1.0
  Ni  Ni272  1  0.00000000  0.72083333  0.61250000  1.0
  Ni  Ni273  1  0.33333333  0.05416667  0.61250000  1.0
  Ni  Ni274  1  0.33333333  0.38750000  0.61250000  1.0
  Ni  Ni275  1  0.33333333  0.72083333  0.61250000  1.0
  Ni  Ni276  1  0.66666667  0.05416667  0.61250000  1.0
  Ni  Ni277  1  0.66666667  0.38750000  0.61250000  1.0
  Ni  Ni278  1  0.66666667  0.72083333  0.61250000  1.0
  Ni  Ni279  1  0.16666667  0.17083333  0.66250000  1.0
  Ni  Ni280  1  0.16666667  0.50416667  0.66250000  1.0
  Ni  Ni281  1  0.16666667  0.83750000  0.66250000  1.0
  Ni  Ni282  1  0.50000000  0.17083333  0.66250000  1.0
  Ni  Ni283  1  0.50000000  0.50416667  0.66250000  1.0
  Ni  Ni284  1  0.50000000  0.83750000  0.66250000  1.0
  Ni  Ni285  1  0.83333333  0.17083333  0.66250000  1.0
  Ni  Ni286  1  0.83333333  0.50416667  0.66250000  1.0
  Ni  Ni287  1  0.83333333  0.83750000  0.66250000  1.0
