# generated using pymatgen
data_CoNi
_symmetry_space_group_name_H-M   'P 1'
_cell_length_a   13.90897687
_cell_length_b   16.74032131
_cell_length_c   26.57335190
_cell_angle_alpha   84.11947886
_cell_angle_beta   88.23771491
_cell_angle_gamma   72.05102985
_symmetry_Int_Tables_number   1
_chemical_formula_structural   CoNi
_chemical_formula_sum   'Co108 Ni108'
_cell_volume   5855.25136738
_cell_formula_units_Z   108
loop_
 _symmetry_equiv_pos_site_id
 _symmetry_equiv_pos_as_xyz
  1  'x, y, z'
loop_
 _atom_site_type_symbol
 _atom_site_label
 _atom_site_symmetry_multiplicity
 _atom_site_fract_x
 _atom_site_fract_y
 _atom_site_fract_z
 _atom_site_occupancy
  Co  Co0  1  0.05000000  0.26666667  0.95000000  1.0
  Co  Co1  1  0.05000000  0.60000000  0.95000000  1.0
  Co  Co2  1  0.05000000  0.93333333  0.95000000  1.0
  Co  Co3  1  0.38333333  0.26666667  0.95000000  1.0
  Co  Co4  1  0.38333333  0.60000000  0.95000000  1.0
  Co  Co5  1  0.38333333  0.93333333  0.95000000  1.0
  Co  Co6  1  0.71666667  0.26666667  0.95000000  1.0
  Co  Co7  1  0.71666667  0.60000000  0.95000000  1.0
  Co  Co8  1  0.71666667  0.93333333  0.95000000  1.0
  Co  Co9  1  0.18333333  0.14444444  0.98333333  1.0
  Co  Co10  1  0.18333333  0.47777778  0.98333333  1.0
  Co  Co11  1  0.18333333  0.81111111  0.98333333  1.0
  Co  Co12  1  0.51666667  0.14444444  0.98333333  1.0
  Co  Co13  1  0.51666667  0.47777778  0.98333333  1.0
  Co  Co14  1  0.51666667  0.81111111  0.98333333  1.0
  Co  Co15  1  0.85000000  0.14444444  0.98333333  1.0
  Co  Co16  1  0.85000000  0.47777778  0.98333333  1.0
  Co  Co17  1  0.85000000  0.81111111  0.98333333  1.0
  Co  Co18  1  0.11666667  0.17777778  0.88333333  1.0
  Co  Co19  1  0.11666667  0.51111111  0.88333333  1.0
  Co  Co20  1  0.11666667  0.84444444  0.88333333  1.0
  Co  Co21  1  0.45000000  0.17777778  0.88333333  1.0
  Co  Co22  1  0.45000000  0.51111111  0.88333333  1.0
  Co  Co23  1  0.45000000  0.84444444  0.88333333  1.0
  Co  Co24  1  0.78333333  0.17777778  0.88333333  1.0
  Co  Co25  1  0.78333333  0.51111111  0.88333333  1.0
  Co  Co26  1  0.78333333  0.84444444  0.88333333  1.0
  Co  Co27  1  0.25000000  0.05555556  0.91666667  1.0
  Co  Co28  1  0.25000000  0.38888889  0.91666667  1.0
  Co  Co29  1  0.25000000  0.72222222  0.91666667  1.0
  Co  Co30  1  0.58333333  0.05555556  0.91666667  1.0
  Co  Co31  1  0.58333333  0.38888889  0.91666667  1.0
  Co  Co32  1  0.58333333  0.72222222  0.91666667  1.0
  Co  Co33  1  0.91666667  0.05555556  0.91666667  1.0
  Co  Co34  1  0.91666667  0.38888889  0.91666667  1.0
  Co  Co35  1  0.91666667  0.72222222  0.91666667  1.0
  Co  Co36  1  0.18333333  0.08888889  0.81666667  1.0
  Co  Co37  1  0.18333333  0.42222222  0.81666667  1.0
  Co  Co38  1  0.18333333  0.75555556  0.81666667  1.0
  Co  Co39  1  0.51666667  0.08888889  0.81666667  1.0
  Co  Co40  1  0.51666667  0.42222222  0.81666667  1.0
  Co  Co41  1  0.51666667  0.75555556  0.81666667  1.0
  Co  Co42  1  0.85000000  0.08888889  0.81666667  1.0
  Co  Co43  1  0.85000000  0.42222222  0.81666667  1.0
  Co  Co44  1  0.85000000  0.75555556  0.81666667  1.0
  Co  Co45  1  0.31666667  0.30000000  0.85000000  1.0
  Co  Co46  1  0.31666667  0.63333333  0.85000000  1.0
  Co  Co47  1  0.31666667  0.96666667  0.85000000  1.0
  Co  Co48  1  0.65000000  0.30000000  0.85000000  1.0
  Co  Co49  1  0.65000000  0.63333333  0.85000000  1.0
  Co  Co50  1  0.65000000  0.96666667  0.85000000  1.0
  Co  Co51  1  0.98333333  0.30000000  0.85000000  1.0
  Co  Co52  1  0.98333333  0.63333333  0.85000000  1.0
  Co  Co53  1  0.98333333  0.96666667  0.85000000  1.0
  Co  Co54  1  0.25000000  0.00000000  0.75000000  1.0
  Co  Co55  1  0.25000000  0.33333333  0.75000000  1.0
  Co  Co56  1  0.25000000  0.66666667  0.75000000  1.0
  Co  Co57  1  0.58333333  0.00000000  0.75000000  1.0
  Co  Co58  1  0.58333333  0.33333333  0.75000000  1.0
  Co  Co59  1  0.58333333  0.66666667  0.75000000  1.0
  Co  Co60  1  0.91666667  0.00000000  0.75000000  1.0
  Co  Co61  1  0.91666667  0.33333333  0.75000000  1.0
  Co  Co62  1  0.91666667  0.66666667  0.75000000  1.0
  Co  Co63  1  0.05000000  0.21111111  0.78333333  1.0
  Co  Co64  1  0.05000000  0.54444444  0.78333333  1.0
  Co  Co65  1  0.05000000  0.87777778  0.78333333  1.0
  Co  Co66  1  0.38333333  0.21111111  0.78333333  1.0
  Co  Co67  1  0.38333333  0.54444444  0.78333333  1.0
  Co  Co68  1  0.38333333  0.87777778  0.78333333  1.0
  Co  Co69  1  0.71666667  0.21111111  0.78333333  1.0
  Co  Co70  1  0.71666667  0.54444444  0.78333333  1.0
  Co  Co71  1  0.71666667  0.87777778  0.78333333  1.0
  Co  Co72  1  0.31666667  0.24444444  0.68333333  1.0
  Co  Co73  1  0.31666667  0.57777778  0.68333333  1.0
  Co  Co74  1  0.31666667  0.91111111  0.68333333  1.0
  Co  Co75  1  0.65000000  0.24444444  0.68333333  1.0
  Co  Co76  1  0.65000000  0.57777778  0.68333333  1.0
  Co  Co77  1  0.65000000  0.91111111  0.68333333  1.0
  Co  Co78  1  0.98333333  0.24444444  0.68333333  1.0
  Co  Co79  1  0.98333333  0.57777778  0.68333333  1.0
  Co  Co80  1  0.98333333  0.91111111  0.68333333  1.0
  Co  Co81  1  0.11666667  0.12222222  0.71666667  1.0
  Co  Co82  1  0.11666667  0.45555556  0.71666667  1.0
  Co  Co83  1  0.11666667  0.78888889  0.71666667  1.0
  Co  Co84  1  0.45000000  0.12222222  0.71666667  1.0
  Co  Co85  1  0.45000000  0.45555556  0.71666667  1.0
  Co  Co86  1  0.45000000  0.78888889  0.71666667  1.0
  Co  Co87  1  0.78333333  0.12222222  0.71666667  1.0
  Co  Co88  1  0.78333333  0.45555556  0.71666667  1.0
  Co  Co89  1  0.78333333  0.78888889  0.71666667  1.0
  Co  Co90  1  0.05000000  0.15555556  0.61666667  1.0
  Co  Co91  1  0.05000000  0.48888889  0.61666667  1.0
  Co  Co92  1  0.05000000  0.82222222  0.61666667  1.0
  Co  Co93  1  0.38333333  0.15555556  0.61666667  1.0
  Co  Co94  1  0.38333333  0.48888889  0.61666667  1.0
  Co  Co95  1  0.38333333  0.82222222  0.61666667  1.0
  Co  Co96  1  0.71666667  0.15555556  0.61666667  1.0
  Co  Co97  1  0.71666667  0.48888889  0.61666667  1.0
  Co  Co98  1  0.71666667  0.82222222  0.61666667  1.0
  Co  Co99  1  0.18333333  0.03333333  0.65000000  1.0
  Co  Co100  1  0.18333333  0.36666667  0.65000000  1.0
  Co  Co101  1  0.18333333  0.70000000  0.65000000  1.0
  Co  Co102  1  0.51666667  0.03333333  0.65000000  1.0
  Co  Co103  1  0.51666667  0.36666667  0.65000000  1.0
  Co  Co104  1  0.51666667  0.70000000  0.65000000  1.0
  Co  Co105  1  0.85000000  0.03333333  0.65000000  1.0
  Co  Co106  1  0.85000000  0.36666667  0.65000000  1.0
  Co  Co107  1  0.85000000  0.70000000  0.65000000  1.0
  Ni  Ni108  1  0.05000000  0.10000000  0.95000000  1.0
  Ni  Ni109  1  0.05000000  0.43333333  0.95000000  1.0
  Ni  Ni110  1  0.05000000  0.76666667  0.95000000  1.0
  Ni  Ni111  1  0.38333333  0.10000000  0.95000000  1.0
  Ni  Ni112  1  0.38333333  0.43333333  0.95000000  1.0
  Ni  Ni113  1  0.38333333  0.76666667  0.95000000  1.0
  Ni  Ni114  1  0.71666667  0.10000000  0.95000000  1.0
  Ni  Ni115  1  0.71666667  0.43333333  0.95000000  1.0
  Ni  Ni116  1  0.71666667  0.76666667  0.95000000  1.0
  Ni  Ni117  1  0.18333333  0.31111111  0.98333333  1.0
  Ni  Ni118  1  0.18333333  0.64444444  0.98333333  1.0
  Ni  Ni119  1  0.18333333  0.97777778  0.98333333  1.0
  Ni  Ni120  1  0.51666667  0.31111111  0.98333333  1.0
  Ni  Ni121  1  0.51666667  0.64444444  0.98333333  1.0
  Ni  Ni122  1  0.51666667  0.97777778  0.98333333  1.0
  Ni  Ni123  1  0.85000000  0.31111111  0.98333333  1.0
  Ni  Ni124  1  0.85000000  0.64444444  0.98333333  1.0
  Ni  Ni125  1  0.85000000  0.97777778  0.98333333  1.0
  Ni  Ni126  1  0.11666667  0.01111111  0.88333333  1.0
  Ni  Ni127  1  0.11666667  0.34444444  0.88333333  1.0
  Ni  Ni128  1  0.11666667  0.67777778  0.88333333  1.0
  Ni  Ni129  1  0.45000000  0.01111111  0.88333333  1.0
  Ni  Ni130  1  0.45000000  0.34444444  0.88333333  1.0
  Ni  Ni131  1  0.45000000  0.67777778  0.88333333  1.0
  Ni  Ni132  1  0.78333333  0.01111111  0.88333333  1.0
  Ni  Ni133  1  0.78333333  0.34444444  0.88333333  1.0
  Ni  Ni134  1  0.78333333  0.67777778  0.88333333  1.0
  Ni  Ni135  1  0.25000000  0.22222222  0.91666667  1.0
  Ni  Ni136  1  0.25000000  0.55555556  0.91666667  1.0
  Ni  Ni137  1  0.25000000  0.88888889  0.91666667  1.0
  Ni  Ni138  1  0.58333333  0.22222222  0.91666667  1.0
  Ni  Ni139  1  0.58333333  0.55555556  0.91666667  1.0
  Ni  Ni140  1  0.58333333  0.88888889  0.91666667  1.0
  Ni  Ni141  1  0.91666667  0.22222222  0.91666667  1.0
  Ni  Ni142  1  0.91666667  0.55555556  0.91666667  1.0
  Ni  Ni143  1  0.91666667  0.88888889  0.91666667  1.0
  Ni  Ni144  1  0.18333333  0.25555556  0.81666667  1.0
  Ni  Ni145  1  0.18333333  0.58888889  0.81666667  1.0
  Ni  Ni146  1  0.18333333  0.92222222  0.81666667  1.0
  Ni  Ni147  1  0.51666667  0.25555556  0.81666667  1.0
  Ni  Ni148  1  0.51666667  0.58888889  0.81666667  1.0
  Ni  Ni149  1  0.51666667  0.92222222  0.81666667  1.0
  Ni  Ni150  1  0.85000000  0.25555556  0.81666667  1.0
  Ni  Ni151  1  0.85000000  0.58888889  0.81666667  1.0
  Ni  Ni152  1  0.85000000  0.92222222  0.81666667  1.0
  Ni  Ni153  1  0.31666667  0.13333333  0.85000000  1.0
  Ni  Ni154  1  0.31666667  0.46666667  0.85000000  1.0
  Ni  Ni155  1  0.31666667  0.80000000  0.85000000  1.0
  Ni  Ni156  1  0.65000000  0.13333333  0.85000000  1.0
  Ni  Ni157  1  0.65000000  0.46666667  0.85000000  1.0
  Ni  Ni158  1  0.65000000  0.80000000  0.85000000  1.0
  Ni  Ni159  1  0.98333333  0.13333333  0.85000000  1.0
  Ni  Ni160  1  0.98333333  0.46666667  0.85000000  1.0
  Ni  Ni161  1  0.98333333  0.80000000  0.85000000  1.0
  Ni  Ni162  1  0.25000000  0.16666667  0.75000000  1.0
  Ni  Ni163  1  0.25000000  0.50000000  0.75000000  1.0
  Ni  Ni164  1  0.25000000  0.83333333  0.75000000  1.0
  Ni  Ni165  1  0.58333333  0.16666667  0.75000000  1.0
  Ni  Ni166  1  0.58333333  0.50000000  0.75000000  1.0
  Ni  Ni167  1  0.58333333  0.83333333  0.75000000  1.0
  Ni  Ni168  1  0.91666667  0.16666667  0.75000000  1.0
  Ni  Ni169  1  0.91666667  0.50000000  0.75000000  1.0
  Ni  Ni170  1  0.91666667  0.83333333  0.75000000  1.0
  Ni  Ni171  1  0.05000000  0.04444444  0.78333333  1.0
  Ni  Ni172  1  0.05000000  0.37777778  0.78333333  1.0
  Ni  Ni173  1  0.05000000  0.71111111  0.78333333  1.0
  Ni  Ni174  1  0.38333333  0.04444444  0.78333333  1.0
  Ni  Ni175  1  0.38333333  0.37777778  0.78333333  1.0
  Ni  Ni176  1  0.38333333  0.71111111  0.78333333  1.0
  Ni  Ni177  1  0.71666667  0.04444444  0.78333333  1.0
  Ni  Ni178  1  0.71666667  0.37777778  0.78333333  1.0
  Ni  Ni179  1  0.71666667  0.71111111  0.78333333  1.0
  Ni  Ni180  1  0.31666667  0.07777778  0.68333333  1.0
  Ni  Ni181  1  0.31666667  0.41111111  0.68333333  1.0
  Ni  Ni182  1  0.31666667  0.74444444  0.68333333  1.0
  Ni  Ni183  1  0.65000000  0.07777778  0.68333333  1.0
  Ni  Ni184  1  0.65000000  0.41111111  0.68333333  1.0
  Ni  Ni185  1  0.65000000  0.74444444  0.68333333  1.0
  Ni  Ni186  1  0.98333333  0.07777778  0.68333333  1.0
  Ni  Ni187  1  0.98333333  0.41111111  0.68333333  1.0
  Ni  Ni188  1  0.98333333  0.74444444  0.68333333  1.0
  Ni  Ni189  1  0.11666667  0.28888889  0.71666667  1.0
  Ni  Ni190  1  0.11666667  0.62222222  0.71666667  1.0
  Ni  Ni191  1  0.11666667  0.95555556  0.71666667  1.0
  Ni  Ni192  1  0.45000000  0.28888889  0.71666667  1.0
  Ni  Ni193  1  0.45000000  0.62222222  0.71666667  1.0
  Ni  Ni194  1  0.45000000  0.95555556  0.71666667  1.0
  Ni  Ni195  1  0.78333333  0.28888889  0.71666667  1.0
  Ni  Ni196  1  0.78333333  0.62222222  0.71666667  1.0
  Ni  Ni197  1  0.78333333  0.95555556  0.71666667  1.0
  Ni  Ni198  1  0.05000000  0.32222222  0.61666667  1.0
  Ni  Ni199  1  0.05000000  0.65555556  0.61666667  1.0
  Ni  Ni200  1  0.05000000  0.98888889  0.61666667  1.0
  Ni  Ni201  1  0.38333333  0.32222222  0.61666667  1.0
  Ni  Ni202  1  0.38333333  0.65555556  0.61666667  1.0
  Ni  Ni203  1  0.38333333  0.98888889  0.61666667  1.0
  Ni  Ni204  1  0.71666667  0.32222222  0.61666667  1.0
  Ni  Ni205  1  0.71666667  0.65555556  0.61666667  1.0
  Ni  Ni206  1  0.71666667  0.98888889  0.61666667  1.0
  Ni  Ni207  1  0.18333333  0.20000000  0.65000000  1.0
  Ni  Ni208  1  0.18333333  0.53333333  0.65000000  1.0
  Ni  Ni209  1  0.18333333  0.86666667  0.65000000  1.0
  Ni  Ni210  1  0.51666667  0.20000000  0.65000000  1.0
  Ni  Ni211  1  0.51666667  0.53333333  0.65000000  1.0
  Ni  Ni212  1  0.51666667  0.86666667  0.65000000  1.0
  Ni  Ni213  1  0.85000000  0.20000000  0.65000000  1.0
  Ni  Ni214  1  0.85000000  0.53333333  0.65000000  1.0
  Ni  Ni215  1  0.85000000  0.86666667  0.65000000  1.0
