# generated using pymatgen
data_CoNi
_symmetry_space_group_name_H-M   'P 1'
_cell_length_a   8.35780199
_cell_length_b   18.71072451
_cell_length_c   39.61609000
_cell_angle_alpha   129.43392677
_cell_angle_beta   90.00000000
_cell_angle_gamma   63.46879803
_symmetry_Int_Tables_number   1
_chemical_formula_structural   CoNi
_chemical_formula_sum   'Co72 Ni72'
_cell_volume   3903.50091159
_cell_formula_units_Z   72
loop_
 _symmetry_equiv_pos_site_id
 _symmetry_equiv_pos_as_xyz
  1  'x, y, z'
loop_
 _atom_site_type_symbol
 _atom_site_label
 _atom_site_symmetry_multiplicity
 _atom_site_fract_x
 _atom_site_fract_y
 _atom_site_fract_z
 _atom_site_occupancy
  Co  Co0  1  0.00000000  0.16666667  0.02500000  1.0
  Co  Co1  1  0.00000000  0.50000000  0.02500000  1.0
  Co  Co2  1  1.00000000  0.83333333  0.02500000  1.0
  Co  Co3  1  0.33333333  0.16666667  0.02500000  1.0
  Co  Co4  1  0.33333333  0.50000000  0.02500000  1.0
  Co  Co5  1  0.33333333  0.83333333  0.02500000  1.0
  Co  Co6  1  0.66666667  0.16666667  0.02500000  1.0
  Co  Co7  1  0.66666667  0.50000000  0.02500000  1.0
  Co  Co8  1  0.66666667  0.83333333  0.02500000  1.0
  Co  Co9  1  0.00000000  0.00000000  0.07500000  1.0
  Co  Co10  1  0.00000000  0.33333333  0.07500000  1.0
  Co  Co11  1  0.00000000  0.66666667  0.07500000  1.0
  Co  Co12  1  0.33333333  0.00000000  0.07500000  1.0
  Co  Co13  1  0.33333333  0.33333333  0.07500000  1.0
  Co  Co14  1  0.33333333  0.66666667  0.07500000  1.0
  Co  Co15  1  0.66666667  0.00000000  0.07500000  1.0
  Co  Co16  1  0.66666667  0.33333333  0.07500000  1.0
  Co  Co17  1  0.66666667  0.66666667  0.07500000  1.0
  Ni  Ni18  1  0.16666667  0.16666667  0.07500000  1.0
  Ni  Ni19  1  0.16666667  0.50000000  0.07500000  1.0
  Ni  Ni20  1  0.16666667  0.83333333  0.07500000  1.0
  Ni  Ni21  1  0.50000000  0.16666667  0.07500000  1.0
  Ni  Ni22  1  0.50000000  0.50000000  0.07500000  1.0
  Ni  Ni23  1  0.50000000  0.83333333  0.07500000  1.0
  Ni  Ni24  1  0.83333333  0.16666667  0.07500000  1.0
  Ni  Ni25  1  0.83333333  0.50000000  0.07500000  1.0
  Ni  Ni26  1  0.83333333  0.83333333  0.07500000  1.0
  Ni  Ni27  1  0.16666667  0.00000000  0.02500000  1.0
  Ni  Ni28  1  0.16666667  0.33333333  0.02500000  1.0
  Ni  Ni29  1  0.16666667  0.66666667  0.02500000  1.0
  Ni  Ni30  1  0.50000000  0.00000000  0.02500000  1.0
  Ni  Ni31  1  0.50000000  0.33333333  0.02500000  1.0
  Ni  Ni32  1  0.50000000  0.66666667  0.02500000  1.0
  Ni  Ni33  1  0.83333333  0.00000000  0.02500000  1.0
  Ni  Ni34  1  0.83333333  0.33333333  0.02500000  1.0
  Ni  Ni35  1  0.83333333  0.66666667  0.02500000  1.0
  Co  Co36  1  0.00000000  0.16666667  0.12500000  1.0
  Co  Co37  1  0.00000000  0.50000000  0.12500000  1.0
  Co  Co38  1  1.00000000  0.83333333  0.12500000  1.0
  Co  Co39  1  0.33333333  0.16666667  0.12500000  1.0
  Co  Co40  1  0.33333333  0.50000000  0.12500000  1.0
  Co  Co41  1  0.33333333  0.83333333  0.12500000  1.0
  Co  Co42  1  0.66666667  0.16666667  0.12500000  1.0
  Co  Co43  1  0.66666667  0.50000000  0.12500000  1.0
  Co  Co44  1  0.66666667  0.83333333  0.12500000  1.0
  Co  Co45  1  0.00000000  0.00000000  0.17500000  1.0
  Co  Co46  1  0.00000000  0.33333333  0.17500000  1.0
  Co  Co47  1  0.00000000  0.66666667  0.17500000  1.0
  Co  Co48  1  0.33333333  0.00000000  0.17500000  1.0
  Co  Co49  1  0.33333333  0.33333333  0.17500000  1.0
  Co  Co50  1  0.33333333  0.66666667  0.17500000  1.0
  Co  Co51  1  0.66666667  0.00000000  0.17500000  1.0
  Co  Co52  1  0.66666667  0.33333333  0.17500000  1.0
  Co  Co53  1  0.66666667  0.66666667  0.17500000  1.0
  Ni  Ni54  1  0.16666667  0.16666667  0.17500000  1.0
  Ni  Ni55  1  0.16666667  0.50000000  0.17500000  1.0
  Ni  Ni56  1  0.16666667  0.83333333  0.17500000  1.0
  Ni  Ni57  1  0.50000000  0.16666667  0.17500000  1.0
  Ni  Ni58  1  0.50000000  0.50000000  0.17500000  1.0
  Ni  Ni59  1  0.50000000  0.83333333  0.17500000  1.0
  Ni  Ni60  1  0.83333333  0.16666667  0.17500000  1.0
  Ni  Ni61  1  0.83333333  0.50000000  0.17500000  1.0
  Ni  Ni62  1  0.83333333  0.83333333  0.17500000  1.0
  Ni  Ni63  1  0.16666667  0.00000000  0.12500000  1.0
  Ni  Ni64  1  0.16666667  0.33333333  0.12500000  1.0
  Ni  Ni65  1  0.16666667  0.66666667  0.12500000  1.0
  Ni  Ni66  1  0.50000000  0.00000000  0.12500000  1.0
  Ni  Ni67  1  0.50000000  0.33333333  0.12500000  1.0
  Ni  Ni68  1  0.50000000  0.66666667  0.12500000  1.0
  Ni  Ni69  1  0.83333333  0.00000000  0.12500000  1.0
  Ni  Ni70  1  0.83333333  0.33333333  0.12500000  1.0
  Ni  Ni71  1  0.83333333  0.66666667  0.12500000  1.0
  Co  Co72  1  0.00000000  0.16666667  0.22500000  1.0
  Co  Co73  1  0.00000000  0.50000000  0.22500000  1.0
  Co  Co74  1  1.00000000  0.83333333  0.22500000  1.0
  Co  Co75  1  0.33333333  0.16666667  0.22500000  1.0
  Co  Co76  1  0.33333333  0.50000000  0.22500000  1.0
  Co  Co77  1  0.33333333  0.83333333  0.22500000  1.0
  Co  Co78  1  0.66666667  0.16666667  0.22500000  1.0
  Co  Co79  1  0.66666667  0.50000000  0.22500000  1.0
  Co  Co80  1  0.66666667  0.83333333  0.22500000  1.0
  Co  Co81  1  0.00000000  0.00000000  0.27500000  1.0
  Co  Co82  1  0.00000000  0.33333333  0.27500000  1.0
  Co  Co83  1  0.00000000  0.66666667  0.27500000  1.0
  Co  Co84  1  0.33333333  0.00000000  0.27500000  1.0
  Co  Co85  1  0.33333333  0.33333333  0.27500000  1.0
  Co  Co86  1  0.33333333  0.66666667  0.27500000  1.0
  Co  Co87  1  0.66666667  0.00000000  0.27500000  1.0
  Co  Co88  1  0.66666667  0.33333333  0.27500000  1.0
  Co  Co89  1  0.66666667  0.66666667  0.27500000  1.0
  Ni  Ni90  1  0.16666667  0.16666667  0.27500000  1.0
  Ni  Ni91  1  0.16666667  0.50000000  0.27500000  1.0
  Ni  Ni92  1  0.16666667  0.83333333  0.27500000  1.0
  Ni  Ni93  1  0.50000000  0.16666667  0.27500000  1.0
  Ni  Ni94  1  0.50000000  0.50000000  0.27500000  1.0
  Ni  Ni95  1  0.50000000  0.83333333  0.27500000  1.0
  Ni  Ni96  1  0.83333333  0.16666667  0.27500000  1.0
  Ni  Ni97  1  0.83333333  0.50000000  0.27500000  1.0
  Ni  Ni98  1  0.83333333  0.83333333  0.27500000  1.0
  Ni  Ni99  1  0.16666667  0.00000000  0.22500000  1.0
  Ni  Ni100  1  0.16666667  0.33333333  0.22500000  1.0
  Ni  Ni101  1  0.16666667  0.66666667  0.22500000  1.0
  Ni  Ni102  1  0.50000000  0.00000000  0.22500000  1.0
  Ni  Ni103  1  0.50000000  0.33333333  0.22500000  1.0
  Ni  Ni104  1  0.50000000  0.66666667  0.22500000  1.0
  Ni  Ni105  1  0.83333333  0.00000000  0.22500000  1.0
  Ni  Ni106  1  0.83333333  0.33333333  0.22500000  1.0
  Ni  Ni107  1  0.83333333  0.66666667  0.22500000  1.0
  Co  Co108  1  0.00000000  0.16666667  0.32500000  1.0
  Co  Co109  1  0.00000000  0.50000000  0.32500000  1.0
  Co  Co110  1  1.00000000  0.83333333  0.32500000  1.0
  Co  Co111  1  0.33333333  0.16666667  0.32500000  1.0
  Co  Co112  1  0.33333333  0.50000000  0.32500000  1.0
  Co  Co113  1  0.33333333  0.83333333  0.32500000  1.0
  Co  Co114  1  0.66666667  0.16666667  0.32500000  1.0
  Co  Co115  1  0.66666667  0.50000000  0.32500000  1.0
  Co  Co116  1  0.66666667  0.83333333  0.32500000  1.0
  Co  Co117  1  0.00000000  0.00000000  0.37500000  1.0
  Co  Co118  1  0.00000000  0.33333333  0.37500000  1.0
  Co  Co119  1  0.00000000  0.66666667  0.37500000  1.0
  Co  Co120  1  0.33333333  0.00000000  0.37500000  1.0
  Co  Co121  1  0.33333333  0.33333333  0.37500000  1.0
  Co  Co122  1  0.33333333  0.66666667  0.37500000  1.0
  Co  Co123  1  0.66666667  0.00000000  0.37500000  1.0
  Co  Co124  1  0.66666667  0.33333333  0.37500000  1.0
  Co  Co125  1  0.66666667  0.66666667  0.37500000  1.0
  Ni  Ni126  1  0.16666667  0.16666667  0.37500000  1.0
  Ni  Ni127  1  0.16666667  0.50000000  0.37500000  1.0
  Ni  Ni128  1  0.16666667  0.83333333  0.37500000  1.0
  Ni  Ni129  1  0.50000000  0.16666667  0.37500000  1.0
  Ni  Ni130  1  0.50000000  0.50000000  0.37500000  1.0
  Ni  Ni131  1  0.50000000  0.83333333  0.37500000  1.0
  Ni  Ni132  1  0.83333333  0.16666667  0.37500000  1.0
  Ni  Ni133  1  0.83333333  0.50000000  0.37500000  1.0
  Ni  Ni134  1  0.83333333  0.83333333  0.37500000  1.0
  Ni  Ni135  1  0.16666667  0.00000000  0.32500000  1.0
  Ni  Ni136  1  0.16666667  0.33333333  0.32500000  1.0
  Ni  Ni137  1  0.16666667  0.66666667  0.32500000  1.0
  Ni  Ni138  1  0.50000000  0.00000000  0.32500000  1.0
  Ni  Ni139  1  0.50000000  0.33333333  0.32500000  1.0
  Ni  Ni140  1  0.50000000  0.66666667  0.32500000  1.0
  Ni  Ni141  1  0.83333333  0.00000000  0.32500000  1.0
  Ni  Ni142  1  0.83333333  0.33333333  0.32500000  1.0
  Ni  Ni143  1  0.83333333  0.66666667  0.32500000  1.0
