# generated using pymatgen
data_CoNi3
_symmetry_space_group_name_H-M   'P 1'
_cell_length_a   12.20675700
_cell_length_b   39.61366102
_cell_length_c   44.91766953
_cell_angle_alpha   139.10660535
_cell_angle_beta   90.00000000
_cell_angle_gamma   90.00000000
_symmetry_Int_Tables_number   1
_chemical_formula_structural   CoNi3
_chemical_formula_sum   'Co144 Ni432'
_cell_volume   14219.16530094
_cell_formula_units_Z   144
loop_
 _symmetry_equiv_pos_site_id
 _symmetry_equiv_pos_as_xyz
  1  'x, y, z'
loop_
 _atom_site_type_symbol
 _atom_site_label
 _atom_site_symmetry_multiplicity
 _atom_site_fract_x
 _atom_site_fract_y
 _atom_site_fract_z
 _atom_site_occupancy
  Co  Co0  1  0.25000000  0.11111111  0.06020267  1.0
  Co  Co1  1  0.25000000  0.44444444  0.06020267  1.0
  Co  Co2  1  0.25000000  0.77777778  0.06020267  1.0
  Co  Co3  1  0.58333333  0.11111111  0.06020267  1.0
  Co  Co4  1  0.58333333  0.44444444  0.06020267  1.0
  Co  Co5  1  0.58333333  0.77777778  0.06020267  1.0
  Co  Co6  1  0.91666667  0.11111111  0.06020267  1.0
  Co  Co7  1  0.91666667  0.44444444  0.06020267  1.0
  Co  Co8  1  0.91666667  0.77777778  0.06020267  1.0
  Co  Co9  1  0.25000000  0.27777778  0.00464712  1.0
  Co  Co10  1  0.25000000  0.61111111  0.00464712  1.0
  Co  Co11  1  0.25000000  0.94444444  0.00464712  1.0
  Co  Co12  1  0.58333333  0.27777778  0.00464712  1.0
  Co  Co13  1  0.58333333  0.61111111  0.00464712  1.0
  Co  Co14  1  0.58333333  0.94444444  0.00464712  1.0
  Co  Co15  1  0.91666667  0.27777778  0.00464712  1.0
  Co  Co16  1  0.91666667  0.61111111  0.00464712  1.0
  Co  Co17  1  0.91666667  0.94444444  0.00464712  1.0
  Co  Co18  1  0.08333333  0.05555556  0.07872119  1.0
  Co  Co19  1  0.08333333  0.38888889  0.07872119  1.0
  Co  Co20  1  0.08333333  0.72222222  0.07872119  1.0
  Co  Co21  1  0.41666667  0.05555556  0.07872119  1.0
  Co  Co22  1  0.41666667  0.38888889  0.07872119  1.0
  Co  Co23  1  0.41666667  0.72222222  0.07872119  1.0
  Co  Co24  1  0.75000000  0.05555556  0.07872119  1.0
  Co  Co25  1  0.75000000  0.38888889  0.07872119  1.0
  Co  Co26  1  0.75000000  0.72222222  0.07872119  1.0
  Co  Co27  1  0.08333333  0.22222222  0.02316563  1.0
  Co  Co28  1  0.08333333  0.55555556  0.02316563  1.0
  Co  Co29  1  0.08333333  0.88888889  0.02316563  1.0
  Co  Co30  1  0.41666667  0.22222222  0.02316563  1.0
  Co  Co31  1  0.41666667  0.55555556  0.02316563  1.0
  Co  Co32  1  0.41666667  0.88888889  0.02316563  1.0
  Co  Co33  1  0.75000000  0.22222222  0.02316563  1.0
  Co  Co34  1  0.75000000  0.55555556  0.02316563  1.0
  Co  Co35  1  0.75000000  0.88888889  0.02316563  1.0
  Ni  Ni36  1  0.08333333  0.13885392  0.10644068  1.0
  Ni  Ni37  1  0.08333333  0.47218725  0.10644068  1.0
  Ni  Ni38  1  0.08333333  0.80552058  0.10644068  1.0
  Ni  Ni39  1  0.41666667  0.13885392  0.10644068  1.0
  Ni  Ni40  1  0.41666667  0.47218725  0.10644068  1.0
  Ni  Ni41  1  0.41666667  0.80552058  0.10644068  1.0
  Ni  Ni42  1  0.75000000  0.13885392  0.10644068  1.0
  Ni  Ni43  1  0.75000000  0.47218725  0.10644068  1.0
  Ni  Ni44  1  0.75000000  0.80552058  0.10644068  1.0
  Ni  Ni45  1  0.08333333  0.30552058  0.05088512  1.0
  Ni  Ni46  1  0.08333333  0.63885392  0.05088512  1.0
  Ni  Ni47  1  0.08333333  0.97218725  0.05088512  1.0
  Ni  Ni48  1  0.41666667  0.30552058  0.05088512  1.0
  Ni  Ni49  1  0.41666667  0.63885392  0.05088512  1.0
  Ni  Ni50  1  0.41666667  0.97218725  0.05088512  1.0
  Ni  Ni51  1  0.75000000  0.30552058  0.05088512  1.0
  Ni  Ni52  1  0.75000000  0.63885392  0.05088512  1.0
  Ni  Ni53  1  0.75000000  0.97218725  0.05088512  1.0
  Ni  Ni54  1  0.08333333  0.13885392  0.05095507  1.0
  Ni  Ni55  1  0.08333333  0.47218725  0.05095507  1.0
  Ni  Ni56  1  0.08333333  0.80552058  0.05095507  1.0
  Ni  Ni57  1  0.41666667  0.13885392  0.05095507  1.0
  Ni  Ni58  1  0.41666667  0.47218725  0.05095507  1.0
  Ni  Ni59  1  0.41666667  0.80552058  0.05095507  1.0
  Ni  Ni60  1  0.75000000  0.13885392  0.05095507  1.0
  Ni  Ni61  1  0.75000000  0.47218725  0.05095507  1.0
  Ni  Ni62  1  0.75000000  0.80552058  0.05095507  1.0
  Ni  Ni63  1  0.08333333  0.30552058  0.10651062  1.0
  Ni  Ni64  1  0.08333333  0.63885392  0.10651062  1.0
  Ni  Ni65  1  0.08333333  0.97218725  0.10651062  1.0
  Ni  Ni66  1  0.41666667  0.30552058  0.10651062  1.0
  Ni  Ni67  1  0.41666667  0.63885392  0.10651062  1.0
  Ni  Ni68  1  0.41666667  0.97218725  0.10651062  1.0
  Ni  Ni69  1  0.75000000  0.30552058  0.10651063  1.0
  Ni  Ni70  1  0.75000000  0.63885392  0.10651062  1.0
  Ni  Ni71  1  0.75000000  0.97218725  0.10651062  1.0
  Ni  Ni72  1  0.08333333  0.05562550  0.02321226  1.0
  Ni  Ni73  1  0.08333333  0.38895883  0.02321226  1.0
  Ni  Ni74  1  0.08333333  0.72229217  0.02321226  1.0
  Ni  Ni75  1  0.41666667  0.05562550  0.02321226  1.0
  Ni  Ni76  1  0.41666667  0.38895883  0.02321226  1.0
  Ni  Ni77  1  0.41666667  0.72229217  0.02321226  1.0
  Ni  Ni78  1  0.75000000  0.05562550  0.02321226  1.0
  Ni  Ni79  1  0.75000000  0.38895883  0.02321226  1.0
  Ni  Ni80  1  0.75000000  0.72229217  0.02321226  1.0
  Ni  Ni81  1  0.08333333  0.22229217  0.07876782  1.0
  Ni  Ni82  1  0.08333333  0.55562550  0.07876782  1.0
  Ni  Ni83  1  0.08333333  0.88895883  0.07876782  1.0
  Ni  Ni84  1  0.41666667  0.22229217  0.07876782  1.0
  Ni  Ni85  1  0.41666667  0.55562550  0.07876782  1.0
  Ni  Ni86  1  0.41666667  0.88895883  0.07876782  1.0
  Ni  Ni87  1  0.75000000  0.22229217  0.07876782  1.0
  Ni  Ni88  1  0.75000000  0.55562550  0.07876782  1.0
  Ni  Ni89  1  0.75000000  0.88895883  0.07876782  1.0
  Ni  Ni90  1  0.25000000  0.02781275  0.03248318  1.0
  Ni  Ni91  1  0.25000000  0.36114608  0.03248318  1.0
  Ni  Ni92  1  0.25000000  0.69447942  0.03248318  1.0
  Ni  Ni93  1  0.58333333  0.02781275  0.03248318  1.0
  Ni  Ni94  1  0.58333333  0.36114608  0.03248318  1.0
  Ni  Ni95  1  0.58333333  0.69447942  0.03248318  1.0
  Ni  Ni96  1  0.91666667  0.02781275  0.03248318  1.0
  Ni  Ni97  1  0.91666667  0.36114608  0.03248318  1.0
  Ni  Ni98  1  0.91666667  0.69447942  0.03248318  1.0
  Ni  Ni99  1  0.25000000  0.19447942  0.08803874  1.0
  Ni  Ni100  1  0.25000000  0.52781275  0.08803874  1.0
  Ni  Ni101  1  0.25000000  0.86114608  0.08803874  1.0
  Ni  Ni102  1  0.58333333  0.19447942  0.08803874  1.0
  Ni  Ni103  1  0.58333333  0.52781275  0.08803874  1.0
  Ni  Ni104  1  0.58333333  0.86114608  0.08803874  1.0
  Ni  Ni105  1  0.91666667  0.19447942  0.08803874  1.0
  Ni  Ni106  1  0.91666667  0.52781275  0.08803874  1.0
  Ni  Ni107  1  0.91666667  0.86114608  0.08803874  1.0
  Ni  Ni108  1  0.25000000  0.02781275  0.08796879  1.0
  Ni  Ni109  1  0.25000000  0.36114608  0.08796879  1.0
  Ni  Ni110  1  0.25000000  0.69447942  0.08796879  1.0
  Ni  Ni111  1  0.58333333  0.02781275  0.08796879  1.0
  Ni  Ni112  1  0.58333333  0.36114608  0.08796879  1.0
  Ni  Ni113  1  0.58333333  0.69447942  0.08796879  1.0
  Ni  Ni114  1  0.91666667  0.02781275  0.08796879  1.0
  Ni  Ni115  1  0.91666667  0.36114608  0.08796879  1.0
  Ni  Ni116  1  0.91666667  0.69447942  0.08796879  1.0
  Ni  Ni117  1  0.25000000  0.19447942  0.03241324  1.0
  Ni  Ni118  1  0.25000000  0.52781275  0.03241324  1.0
  Ni  Ni119  1  0.25000000  0.86114608  0.03241324  1.0
  Ni  Ni120  1  0.58333333  0.19447942  0.03241324  1.0
  Ni  Ni121  1  0.58333333  0.52781275  0.03241324  1.0
  Ni  Ni122  1  0.58333333  0.86114608  0.03241324  1.0
  Ni  Ni123  1  0.91666667  0.19447942  0.03241324  1.0
  Ni  Ni124  1  0.91666667  0.52781275  0.03241324  1.0
  Ni  Ni125  1  0.91666667  0.86114608  0.03241324  1.0
  Ni  Ni126  1  0.25000000  0.11104117  0.00460049  1.0
  Ni  Ni127  1  0.25000000  0.44437450  0.00460049  1.0
  Ni  Ni128  1  0.25000000  0.77770783  0.00460049  1.0
  Ni  Ni129  1  0.58333333  0.11104117  0.00460049  1.0
  Ni  Ni130  1  0.58333333  0.44437450  0.00460049  1.0
  Ni  Ni131  1  0.58333333  0.77770783  0.00460049  1.0
  Ni  Ni132  1  0.91666667  0.11104117  0.00460049  1.0
  Ni  Ni133  1  0.91666667  0.44437450  0.00460049  1.0
  Ni  Ni134  1  0.91666667  0.77770783  0.00460049  1.0
  Ni  Ni135  1  0.25000000  0.27770783  0.06015604  1.0
  Ni  Ni136  1  0.25000000  0.61104117  0.06015604  1.0
  Ni  Ni137  1  0.25000000  0.94437450  0.06015604  1.0
  Ni  Ni138  1  0.58333333  0.27770783  0.06015604  1.0
  Ni  Ni139  1  0.58333333  0.61104117  0.06015604  1.0
  Ni  Ni140  1  0.58333333  0.94437450  0.06015604  1.0
  Ni  Ni141  1  0.91666667  0.27770783  0.06015604  1.0
  Ni  Ni142  1  0.91666667  0.61104117  0.06015604  1.0
  Ni  Ni143  1  0.91666667  0.94437450  0.06015604  1.0
  Co  Co144  1  0.25000000  0.11111111  0.17131378  1.0
  Co  Co145  1  0.25000000  0.44444444  0.17131378  1.0
  Co  Co146  1  0.25000000  0.77777778  0.17131378  1.0
  Co  Co147  1  0.58333333  0.11111111  0.17131378  1.0
  Co  Co148  1  0.58333333  0.44444444  0.17131378  1.0
  Co  Co149  1  0.58333333  0.77777778  0.17131378  1.0
  Co  Co150  1  0.91666667  0.11111111  0.17131378  1.0
  Co  Co151  1  0.91666667  0.44444444  0.17131378  1.0
  Co  Co152  1  0.91666667  0.77777778  0.17131378  1.0
  Co  Co153  1  0.25000000  0.27777778  0.11575823  1.0
  Co  Co154  1  0.25000000  0.61111111  0.11575823  1.0
  Co  Co155  1  0.25000000  0.94444444  0.11575823  1.0
  Co  Co156  1  0.58333333  0.27777778  0.11575823  1.0
  Co  Co157  1  0.58333333  0.61111111  0.11575823  1.0
  Co  Co158  1  0.58333333  0.94444444  0.11575823  1.0
  Co  Co159  1  0.91666667  0.27777778  0.11575823  1.0
  Co  Co160  1  0.91666667  0.61111111  0.11575823  1.0
  Co  Co161  1  0.91666667  0.94444444  0.11575823  1.0
  Co  Co162  1  0.08333333  0.05555556  0.18983230  1.0
  Co  Co163  1  0.08333333  0.38888889  0.18983230  1.0
  Co  Co164  1  0.08333333  0.72222222  0.18983230  1.0
  Co  Co165  1  0.41666667  0.05555556  0.18983230  1.0
  Co  Co166  1  0.41666667  0.38888889  0.18983230  1.0
  Co  Co167  1  0.41666667  0.72222222  0.18983230  1.0
  Co  Co168  1  0.75000000  0.05555556  0.18983230  1.0
  Co  Co169  1  0.75000000  0.38888889  0.18983230  1.0
  Co  Co170  1  0.75000000  0.72222222  0.18983230  1.0
  Co  Co171  1  0.08333333  0.22222222  0.13427675  1.0
  Co  Co172  1  0.08333333  0.55555556  0.13427675  1.0
  Co  Co173  1  0.08333333  0.88888889  0.13427675  1.0
  Co  Co174  1  0.41666667  0.22222222  0.13427675  1.0
  Co  Co175  1  0.41666667  0.55555556  0.13427675  1.0
  Co  Co176  1  0.41666667  0.88888889  0.13427675  1.0
  Co  Co177  1  0.75000000  0.22222222  0.13427675  1.0
  Co  Co178  1  0.75000000  0.55555556  0.13427675  1.0
  Co  Co179  1  0.75000000  0.88888889  0.13427675  1.0
  Ni  Ni180  1  0.08333333  0.13885392  0.21755179  1.0
  Ni  Ni181  1  0.08333333  0.47218725  0.21755179  1.0
  Ni  Ni182  1  0.08333333  0.80552058  0.21755179  1.0
  Ni  Ni183  1  0.41666667  0.13885392  0.21755179  1.0
  Ni  Ni184  1  0.41666667  0.47218725  0.21755179  1.0
  Ni  Ni185  1  0.41666667  0.80552058  0.21755179  1.0
  Ni  Ni186  1  0.75000000  0.13885392  0.21755179  1.0
  Ni  Ni187  1  0.75000000  0.47218725  0.21755179  1.0
  Ni  Ni188  1  0.75000000  0.80552058  0.21755179  1.0
  Ni  Ni189  1  0.08333333  0.30552058  0.16199624  1.0
  Ni  Ni190  1  0.08333333  0.63885392  0.16199624  1.0
  Ni  Ni191  1  0.08333333  0.97218725  0.16199624  1.0
  Ni  Ni192  1  0.41666667  0.30552058  0.16199624  1.0
  Ni  Ni193  1  0.41666667  0.63885392  0.16199624  1.0
  Ni  Ni194  1  0.41666667  0.97218725  0.16199624  1.0
  Ni  Ni195  1  0.75000000  0.30552058  0.16199624  1.0
  Ni  Ni196  1  0.75000000  0.63885392  0.16199624  1.0
  Ni  Ni197  1  0.75000000  0.97218725  0.16199624  1.0
  Ni  Ni198  1  0.08333333  0.13885392  0.16206618  1.0
  Ni  Ni199  1  0.08333333  0.47218725  0.16206618  1.0
  Ni  Ni200  1  0.08333333  0.80552058  0.16206618  1.0
  Ni  Ni201  1  0.41666667  0.13885392  0.16206618  1.0
  Ni  Ni202  1  0.41666667  0.47218725  0.16206618  1.0
  Ni  Ni203  1  0.41666667  0.80552058  0.16206618  1.0
  Ni  Ni204  1  0.75000000  0.13885392  0.16206618  1.0
  Ni  Ni205  1  0.75000000  0.47218725  0.16206618  1.0
  Ni  Ni206  1  0.75000000  0.80552058  0.16206618  1.0
  Ni  Ni207  1  0.08333333  0.30552058  0.21762174  1.0
  Ni  Ni208  1  0.08333333  0.63885392  0.21762174  1.0
  Ni  Ni209  1  0.08333333  0.97218725  0.21762174  1.0
  Ni  Ni210  1  0.41666667  0.30552058  0.21762174  1.0
  Ni  Ni211  1  0.41666667  0.63885392  0.21762174  1.0
  Ni  Ni212  1  0.41666667  0.97218725  0.21762174  1.0
  Ni  Ni213  1  0.75000000  0.30552058  0.21762174  1.0
  Ni  Ni214  1  0.75000000  0.63885392  0.21762174  1.0
  Ni  Ni215  1  0.75000000  0.97218725  0.21762174  1.0
  Ni  Ni216  1  0.08333333  0.05562550  0.13432337  1.0
  Ni  Ni217  1  0.08333333  0.38895883  0.13432338  1.0
  Ni  Ni218  1  0.08333333  0.72229217  0.13432337  1.0
  Ni  Ni219  1  0.41666667  0.05562550  0.13432337  1.0
  Ni  Ni220  1  0.41666667  0.38895883  0.13432338  1.0
  Ni  Ni221  1  0.41666667  0.72229217  0.13432337  1.0
  Ni  Ni222  1  0.75000000  0.05562550  0.13432337  1.0
  Ni  Ni223  1  0.75000000  0.38895883  0.13432338  1.0
  Ni  Ni224  1  0.75000000  0.72229217  0.13432337  1.0
  Ni  Ni225  1  0.08333333  0.22229217  0.18987893  1.0
  Ni  Ni226  1  0.08333333  0.55562550  0.18987893  1.0
  Ni  Ni227  1  0.08333333  0.88895883  0.18987893  1.0
  Ni  Ni228  1  0.41666667  0.22229217  0.18987893  1.0
  Ni  Ni229  1  0.41666667  0.55562550  0.18987893  1.0
  Ni  Ni230  1  0.41666667  0.88895883  0.18987893  1.0
  Ni  Ni231  1  0.75000000  0.22229217  0.18987893  1.0
  Ni  Ni232  1  0.75000000  0.55562550  0.18987893  1.0
  Ni  Ni233  1  0.75000000  0.88895883  0.18987893  1.0
  Ni  Ni234  1  0.25000000  0.02781275  0.14359429  1.0
  Ni  Ni235  1  0.25000000  0.36114608  0.14359429  1.0
  Ni  Ni236  1  0.25000000  0.69447942  0.14359429  1.0
  Ni  Ni237  1  0.58333333  0.02781275  0.14359429  1.0
  Ni  Ni238  1  0.58333333  0.36114608  0.14359429  1.0
  Ni  Ni239  1  0.58333333  0.69447942  0.14359429  1.0
  Ni  Ni240  1  0.91666667  0.02781275  0.14359429  1.0
  Ni  Ni241  1  0.91666667  0.36114608  0.14359429  1.0
  Ni  Ni242  1  0.91666667  0.69447942  0.14359429  1.0
  Ni  Ni243  1  0.25000000  0.19447942  0.19914985  1.0
  Ni  Ni244  1  0.25000000  0.52781275  0.19914985  1.0
  Ni  Ni245  1  0.25000000  0.86114608  0.19914985  1.0
  Ni  Ni246  1  0.58333333  0.19447942  0.19914985  1.0
  Ni  Ni247  1  0.58333333  0.52781275  0.19914985  1.0
  Ni  Ni248  1  0.58333333  0.86114608  0.19914985  1.0
  Ni  Ni249  1  0.91666667  0.19447942  0.19914985  1.0
  Ni  Ni250  1  0.91666667  0.52781275  0.19914985  1.0
  Ni  Ni251  1  0.91666667  0.86114608  0.19914985  1.0
  Ni  Ni252  1  0.25000000  0.02781275  0.19907990  1.0
  Ni  Ni253  1  0.25000000  0.36114608  0.19907990  1.0
  Ni  Ni254  1  0.25000000  0.69447942  0.19907990  1.0
  Ni  Ni255  1  0.58333333  0.02781275  0.19907990  1.0
  Ni  Ni256  1  0.58333333  0.36114608  0.19907990  1.0
  Ni  Ni257  1  0.58333333  0.69447942  0.19907990  1.0
  Ni  Ni258  1  0.91666667  0.02781275  0.19907990  1.0
  Ni  Ni259  1  0.91666667  0.36114608  0.19907990  1.0
  Ni  Ni260  1  0.91666667  0.69447942  0.19907990  1.0
  Ni  Ni261  1  0.25000000  0.19447942  0.14352435  1.0
  Ni  Ni262  1  0.25000000  0.52781275  0.14352435  1.0
  Ni  Ni263  1  0.25000000  0.86114608  0.14352435  1.0
  Ni  Ni264  1  0.58333333  0.19447942  0.14352435  1.0
  Ni  Ni265  1  0.58333333  0.52781275  0.14352435  1.0
  Ni  Ni266  1  0.58333333  0.86114608  0.14352435  1.0
  Ni  Ni267  1  0.91666667  0.19447942  0.14352435  1.0
  Ni  Ni268  1  0.91666667  0.52781275  0.14352435  1.0
  Ni  Ni269  1  0.91666667  0.86114608  0.14352435  1.0
  Ni  Ni270  1  0.25000000  0.11104117  0.11571160  1.0
  Ni  Ni271  1  0.25000000  0.44437450  0.11571160  1.0
  Ni  Ni272  1  0.25000000  0.77770783  0.11571160  1.0
  Ni  Ni273  1  0.58333333  0.11104117  0.11571160  1.0
  Ni  Ni274  1  0.58333333  0.44437450  0.11571160  1.0
  Ni  Ni275  1  0.58333333  0.77770783  0.11571160  1.0
  Ni  Ni276  1  0.91666667  0.11104117  0.11571160  1.0
  Ni  Ni277  1  0.91666667  0.44437450  0.11571160  1.0
  Ni  Ni278  1  0.91666667  0.77770783  0.11571160  1.0
  Ni  Ni279  1  0.25000000  0.27770783  0.17126715  1.0
  Ni  Ni280  1  0.25000000  0.61104117  0.17126715  1.0
  Ni  Ni281  1  0.25000000  0.94437450  0.17126715  1.0
  Ni  Ni282  1  0.58333333  0.27770783  0.17126715  1.0
  Ni  Ni283  1  0.58333333  0.61104117  0.17126715  1.0
  Ni  Ni284  1  0.58333333  0.94437450  0.17126715  1.0
  Ni  Ni285  1  0.91666667  0.27770783  0.17126715  1.0
  Ni  Ni286  1  0.91666667  0.61104117  0.17126715  1.0
  Ni  Ni287  1  0.91666667  0.94437450  0.17126715  1.0
  Co  Co288  1  0.25000000  0.11111111  0.28242489  1.0
  Co  Co289  1  0.25000000  0.44444444  0.28242489  1.0
  Co  Co290  1  0.25000000  0.77777778  0.28242489  1.0
  Co  Co291  1  0.58333333  0.11111111  0.28242489  1.0
  Co  Co292  1  0.58333333  0.44444444  0.28242489  1.0
  Co  Co293  1  0.58333333  0.77777778  0.28242489  1.0
  Co  Co294  1  0.91666667  0.11111111  0.28242489  1.0
  Co  Co295  1  0.91666667  0.44444444  0.28242489  1.0
  Co  Co296  1  0.91666667  0.77777778  0.28242489  1.0
  Co  Co297  1  0.25000000  0.27777778  0.22686934  1.0
  Co  Co298  1  0.25000000  0.61111111  0.22686934  1.0
  Co  Co299  1  0.25000000  0.94444444  0.22686934  1.0
  Co  Co300  1  0.58333333  0.27777778  0.22686934  1.0
  Co  Co301  1  0.58333333  0.61111111  0.22686934  1.0
  Co  Co302  1  0.58333333  0.94444444  0.22686934  1.0
  Co  Co303  1  0.91666667  0.27777778  0.22686934  1.0
  Co  Co304  1  0.91666667  0.61111111  0.22686934  1.0
  Co  Co305  1  0.91666667  0.94444444  0.22686934  1.0
  Co  Co306  1  0.08333333  0.05555556  0.30094341  1.0
  Co  Co307  1  0.08333333  0.38888889  0.30094341  1.0
  Co  Co308  1  0.08333333  0.72222222  0.30094341  1.0
  Co  Co309  1  0.41666667  0.05555556  0.30094341  1.0
  Co  Co310  1  0.41666667  0.38888889  0.30094341  1.0
  Co  Co311  1  0.41666667  0.72222222  0.30094341  1.0
  Co  Co312  1  0.75000000  0.05555556  0.30094341  1.0
  Co  Co313  1  0.75000000  0.38888889  0.30094341  1.0
  Co  Co314  1  0.75000000  0.72222222  0.30094341  1.0
  Co  Co315  1  0.08333333  0.22222222  0.24538786  1.0
  Co  Co316  1  0.08333333  0.55555556  0.24538786  1.0
  Co  Co317  1  0.08333333  0.88888889  0.24538786  1.0
  Co  Co318  1  0.41666667  0.22222222  0.24538786  1.0
  Co  Co319  1  0.41666667  0.55555556  0.24538786  1.0
  Co  Co320  1  0.41666667  0.88888889  0.24538786  1.0
  Co  Co321  1  0.75000000  0.22222222  0.24538786  1.0
  Co  Co322  1  0.75000000  0.55555556  0.24538786  1.0
  Co  Co323  1  0.75000000  0.88888889  0.24538786  1.0
  Ni  Ni324  1  0.08333333  0.13885392  0.32866290  1.0
  Ni  Ni325  1  0.08333333  0.47218725  0.32866290  1.0
  Ni  Ni326  1  0.08333333  0.80552058  0.32866290  1.0
  Ni  Ni327  1  0.41666667  0.13885392  0.32866290  1.0
  Ni  Ni328  1  0.41666667  0.47218725  0.32866290  1.0
  Ni  Ni329  1  0.41666667  0.80552058  0.32866290  1.0
  Ni  Ni330  1  0.75000000  0.13885392  0.32866290  1.0
  Ni  Ni331  1  0.75000000  0.47218725  0.32866290  1.0
  Ni  Ni332  1  0.75000000  0.80552058  0.32866290  1.0
  Ni  Ni333  1  0.08333333  0.30552058  0.27310735  1.0
  Ni  Ni334  1  0.08333333  0.63885392  0.27310735  1.0
  Ni  Ni335  1  0.08333333  0.97218725  0.27310735  1.0
  Ni  Ni336  1  0.41666667  0.30552058  0.27310735  1.0
  Ni  Ni337  1  0.41666667  0.63885392  0.27310735  1.0
  Ni  Ni338  1  0.41666667  0.97218725  0.27310735  1.0
  Ni  Ni339  1  0.75000000  0.30552058  0.27310735  1.0
  Ni  Ni340  1  0.75000000  0.63885392  0.27310735  1.0
  Ni  Ni341  1  0.75000000  0.97218725  0.27310735  1.0
  Ni  Ni342  1  0.08333333  0.13885392  0.27317729  1.0
  Ni  Ni343  1  0.08333333  0.47218725  0.27317729  1.0
  Ni  Ni344  1  0.08333333  0.80552058  0.27317729  1.0
  Ni  Ni345  1  0.41666667  0.13885392  0.27317729  1.0
  Ni  Ni346  1  0.41666667  0.47218725  0.27317729  1.0
  Ni  Ni347  1  0.41666667  0.80552058  0.27317729  1.0
  Ni  Ni348  1  0.75000000  0.13885392  0.27317729  1.0
  Ni  Ni349  1  0.75000000  0.47218725  0.27317729  1.0
  Ni  Ni350  1  0.75000000  0.80552058  0.27317729  1.0
  Ni  Ni351  1  0.08333333  0.30552058  0.32873285  1.0
  Ni  Ni352  1  0.08333333  0.63885392  0.32873285  1.0
  Ni  Ni353  1  0.08333333  0.97218725  0.32873285  1.0
  Ni  Ni354  1  0.41666667  0.30552058  0.32873285  1.0
  Ni  Ni355  1  0.41666667  0.63885392  0.32873285  1.0
  Ni  Ni356  1  0.41666667  0.97218725  0.32873285  1.0
  Ni  Ni357  1  0.75000000  0.30552058  0.32873285  1.0
  Ni  Ni358  1  0.75000000  0.63885392  0.32873285  1.0
  Ni  Ni359  1  0.75000000  0.97218725  0.32873285  1.0
  Ni  Ni360  1  0.08333333  0.05562550  0.24543449  1.0
  Ni  Ni361  1  0.08333333  0.38895883  0.24543449  1.0
  Ni  Ni362  1  0.08333333  0.72229217  0.24543449  1.0
  Ni  Ni363  1  0.41666667  0.05562550  0.24543449  1.0
  Ni  Ni364  1  0.41666667  0.38895883  0.24543449  1.0
  Ni  Ni365  1  0.41666667  0.72229217  0.24543449  1.0
  Ni  Ni366  1  0.75000000  0.05562550  0.24543449  1.0
  Ni  Ni367  1  0.75000000  0.38895883  0.24543449  1.0
  Ni  Ni368  1  0.75000000  0.72229217  0.24543449  1.0
  Ni  Ni369  1  0.08333333  0.22229217  0.30099004  1.0
  Ni  Ni370  1  0.08333333  0.55562550  0.30099004  1.0
  Ni  Ni371  1  0.08333333  0.88895883  0.30099004  1.0
  Ni  Ni372  1  0.41666667  0.22229217  0.30099004  1.0
  Ni  Ni373  1  0.41666667  0.55562550  0.30099004  1.0
  Ni  Ni374  1  0.41666667  0.88895883  0.30099004  1.0
  Ni  Ni375  1  0.75000000  0.22229217  0.30099004  1.0
  Ni  Ni376  1  0.75000000  0.55562550  0.30099004  1.0
  Ni  Ni377  1  0.75000000  0.88895883  0.30099004  1.0
  Ni  Ni378  1  0.25000000  0.02781275  0.25470540  1.0
  Ni  Ni379  1  0.25000000  0.36114608  0.25470540  1.0
  Ni  Ni380  1  0.25000000  0.69447942  0.25470540  1.0
  Ni  Ni381  1  0.58333333  0.02781275  0.25470540  1.0
  Ni  Ni382  1  0.58333333  0.36114608  0.25470540  1.0
  Ni  Ni383  1  0.58333333  0.69447942  0.25470540  1.0
  Ni  Ni384  1  0.91666667  0.02781275  0.25470540  1.0
  Ni  Ni385  1  0.91666667  0.36114608  0.25470540  1.0
  Ni  Ni386  1  0.91666667  0.69447942  0.25470540  1.0
  Ni  Ni387  1  0.25000000  0.19447942  0.31026096  1.0
  Ni  Ni388  1  0.25000000  0.52781275  0.31026096  1.0
  Ni  Ni389  1  0.25000000  0.86114608  0.31026096  1.0
  Ni  Ni390  1  0.58333333  0.19447942  0.31026096  1.0
  Ni  Ni391  1  0.58333333  0.52781275  0.31026096  1.0
  Ni  Ni392  1  0.58333333  0.86114608  0.31026096  1.0
  Ni  Ni393  1  0.91666667  0.19447942  0.31026096  1.0
  Ni  Ni394  1  0.91666667  0.52781275  0.31026096  1.0
  Ni  Ni395  1  0.91666667  0.86114608  0.31026096  1.0
  Ni  Ni396  1  0.25000000  0.02781275  0.31019101  1.0
  Ni  Ni397  1  0.25000000  0.36114608  0.31019101  1.0
  Ni  Ni398  1  0.25000000  0.69447942  0.31019101  1.0
  Ni  Ni399  1  0.58333333  0.02781275  0.31019101  1.0
  Ni  Ni400  1  0.58333333  0.36114608  0.31019101  1.0
  Ni  Ni401  1  0.58333333  0.69447942  0.31019101  1.0
  Ni  Ni402  1  0.91666667  0.02781275  0.31019101  1.0
  Ni  Ni403  1  0.91666667  0.36114608  0.31019101  1.0
  Ni  Ni404  1  0.91666667  0.69447942  0.31019101  1.0
  Ni  Ni405  1  0.25000000  0.19447942  0.25463546  1.0
  Ni  Ni406  1  0.25000000  0.52781275  0.25463546  1.0
  Ni  Ni407  1  0.25000000  0.86114608  0.25463546  1.0
  Ni  Ni408  1  0.58333333  0.19447942  0.25463546  1.0
  Ni  Ni409  1  0.58333333  0.52781275  0.25463546  1.0
  Ni  Ni410  1  0.58333333  0.86114608  0.25463546  1.0
  Ni  Ni411  1  0.91666667  0.19447942  0.25463546  1.0
  Ni  Ni412  1  0.91666667  0.52781275  0.25463546  1.0
  Ni  Ni413  1  0.91666667  0.86114608  0.25463546  1.0
  Ni  Ni414  1  0.25000000  0.11104117  0.22682271  1.0
  Ni  Ni415  1  0.25000000  0.44437450  0.22682271  1.0
  Ni  Ni416  1  0.25000000  0.77770783  0.22682271  1.0
  Ni  Ni417  1  0.58333333  0.11104117  0.22682271  1.0
  Ni  Ni418  1  0.58333333  0.44437450  0.22682271  1.0
  Ni  Ni419  1  0.58333333  0.77770783  0.22682271  1.0
  Ni  Ni420  1  0.91666667  0.11104117  0.22682271  1.0
  Ni  Ni421  1  0.91666667  0.44437450  0.22682271  1.0
  Ni  Ni422  1  0.91666667  0.77770783  0.22682271  1.0
  Ni  Ni423  1  0.25000000  0.27770783  0.28237826  1.0
  Ni  Ni424  1  0.25000000  0.61104117  0.28237826  1.0
  Ni  Ni425  1  0.25000000  0.94437450  0.28237826  1.0
  Ni  Ni426  1  0.58333333  0.27770783  0.28237826  1.0
  Ni  Ni427  1  0.58333333  0.61104117  0.28237826  1.0
  Ni  Ni428  1  0.58333333  0.94437450  0.28237826  1.0
  Ni  Ni429  1  0.91666667  0.27770783  0.28237826  1.0
  Ni  Ni430  1  0.91666667  0.61104117  0.28237826  1.0
  Ni  Ni431  1  0.91666667  0.94437450  0.28237826  1.0
  Co  Co432  1  0.25000000  0.11111111  0.39353600  1.0
  Co  Co433  1  0.25000000  0.44444444  0.39353600  1.0
  Co  Co434  1  0.25000000  0.77777778  0.39353600  1.0
  Co  Co435  1  0.58333333  0.11111111  0.39353600  1.0
  Co  Co436  1  0.58333333  0.44444444  0.39353600  1.0
  Co  Co437  1  0.58333333  0.77777778  0.39353600  1.0
  Co  Co438  1  0.91666667  0.11111111  0.39353600  1.0
  Co  Co439  1  0.91666667  0.44444444  0.39353600  1.0
  Co  Co440  1  0.91666667  0.77777778  0.39353600  1.0
  Co  Co441  1  0.25000000  0.27777778  0.33798045  1.0
  Co  Co442  1  0.25000000  0.61111111  0.33798045  1.0
  Co  Co443  1  0.25000000  0.94444444  0.33798045  1.0
  Co  Co444  1  0.58333333  0.27777778  0.33798045  1.0
  Co  Co445  1  0.58333333  0.61111111  0.33798045  1.0
  Co  Co446  1  0.58333333  0.94444444  0.33798045  1.0
  Co  Co447  1  0.91666667  0.27777778  0.33798045  1.0
  Co  Co448  1  0.91666667  0.61111111  0.33798045  1.0
  Co  Co449  1  0.91666667  0.94444444  0.33798045  1.0
  Co  Co450  1  0.08333333  0.05555556  0.41205452  1.0
  Co  Co451  1  0.08333333  0.38888889  0.41205452  1.0
  Co  Co452  1  0.08333333  0.72222222  0.41205452  1.0
  Co  Co453  1  0.41666667  0.05555556  0.41205452  1.0
  Co  Co454  1  0.41666667  0.38888889  0.41205452  1.0
  Co  Co455  1  0.41666667  0.72222222  0.41205452  1.0
  Co  Co456  1  0.75000000  0.05555556  0.41205452  1.0
  Co  Co457  1  0.75000000  0.38888889  0.41205452  1.0
  Co  Co458  1  0.75000000  0.72222222  0.41205452  1.0
  Co  Co459  1  0.08333333  0.22222222  0.35649897  1.0
  Co  Co460  1  0.08333333  0.55555556  0.35649897  1.0
  Co  Co461  1  0.08333333  0.88888889  0.35649897  1.0
  Co  Co462  1  0.41666667  0.22222222  0.35649897  1.0
  Co  Co463  1  0.41666667  0.55555556  0.35649897  1.0
  Co  Co464  1  0.41666667  0.88888889  0.35649897  1.0
  Co  Co465  1  0.75000000  0.22222222  0.35649897  1.0
  Co  Co466  1  0.75000000  0.55555556  0.35649897  1.0
  Co  Co467  1  0.75000000  0.88888889  0.35649897  1.0
  Ni  Ni468  1  0.08333333  0.13885392  0.43977401  1.0
  Ni  Ni469  1  0.08333333  0.47218725  0.43977401  1.0
  Ni  Ni470  1  0.08333333  0.80552058  0.43977401  1.0
  Ni  Ni471  1  0.41666667  0.13885392  0.43977401  1.0
  Ni  Ni472  1  0.41666667  0.47218725  0.43977401  1.0
  Ni  Ni473  1  0.41666667  0.80552058  0.43977401  1.0
  Ni  Ni474  1  0.75000000  0.13885392  0.43977401  1.0
  Ni  Ni475  1  0.75000000  0.47218725  0.43977401  1.0
  Ni  Ni476  1  0.75000000  0.80552058  0.43977401  1.0
  Ni  Ni477  1  0.08333333  0.30552058  0.38421846  1.0
  Ni  Ni478  1  0.08333333  0.63885392  0.38421846  1.0
  Ni  Ni479  1  0.08333333  0.97218725  0.38421846  1.0
  Ni  Ni480  1  0.41666667  0.30552058  0.38421846  1.0
  Ni  Ni481  1  0.41666667  0.63885392  0.38421846  1.0
  Ni  Ni482  1  0.41666667  0.97218725  0.38421846  1.0
  Ni  Ni483  1  0.75000000  0.30552058  0.38421846  1.0
  Ni  Ni484  1  0.75000000  0.63885392  0.38421846  1.0
  Ni  Ni485  1  0.75000000  0.97218725  0.38421846  1.0
  Ni  Ni486  1  0.08333333  0.13885392  0.38428840  1.0
  Ni  Ni487  1  0.08333333  0.47218725  0.38428840  1.0
  Ni  Ni488  1  0.08333333  0.80552058  0.38428840  1.0
  Ni  Ni489  1  0.41666667  0.13885392  0.38428840  1.0
  Ni  Ni490  1  0.41666667  0.47218725  0.38428840  1.0
  Ni  Ni491  1  0.41666667  0.80552058  0.38428840  1.0
  Ni  Ni492  1  0.75000000  0.13885392  0.38428840  1.0
  Ni  Ni493  1  0.75000000  0.47218725  0.38428840  1.0
  Ni  Ni494  1  0.75000000  0.80552058  0.38428840  1.0
  Ni  Ni495  1  0.08333333  0.30552058  0.43984396  1.0
  Ni  Ni496  1  0.08333333  0.63885392  0.43984396  1.0
  Ni  Ni497  1  0.08333333  0.97218725  0.43984396  1.0
  Ni  Ni498  1  0.41666667  0.30552058  0.43984396  1.0
  Ni  Ni499  1  0.41666667  0.63885392  0.43984396  1.0
  Ni  Ni500  1  0.41666667  0.97218725  0.43984396  1.0
  Ni  Ni501  1  0.75000000  0.30552058  0.43984396  1.0
  Ni  Ni502  1  0.75000000  0.63885392  0.43984396  1.0
  Ni  Ni503  1  0.75000000  0.97218725  0.43984396  1.0
  Ni  Ni504  1  0.08333333  0.05562550  0.35654560  1.0
  Ni  Ni505  1  0.08333333  0.38895883  0.35654560  1.0
  Ni  Ni506  1  0.08333333  0.72229217  0.35654560  1.0
  Ni  Ni507  1  0.41666667  0.05562550  0.35654560  1.0
  Ni  Ni508  1  0.41666667  0.38895883  0.35654560  1.0
  Ni  Ni509  1  0.41666667  0.72229217  0.35654560  1.0
  Ni  Ni510  1  0.75000000  0.05562550  0.35654560  1.0
  Ni  Ni511  1  0.75000000  0.38895883  0.35654560  1.0
  Ni  Ni512  1  0.75000000  0.72229217  0.35654560  1.0
  Ni  Ni513  1  0.08333333  0.22229217  0.41210115  1.0
  Ni  Ni514  1  0.08333333  0.55562550  0.41210115  1.0
  Ni  Ni515  1  0.08333333  0.88895883  0.41210115  1.0
  Ni  Ni516  1  0.41666667  0.22229217  0.41210115  1.0
  Ni  Ni517  1  0.41666667  0.55562550  0.41210115  1.0
  Ni  Ni518  1  0.41666667  0.88895883  0.41210115  1.0
  Ni  Ni519  1  0.75000000  0.22229217  0.41210115  1.0
  Ni  Ni520  1  0.75000000  0.55562550  0.41210115  1.0
  Ni  Ni521  1  0.75000000  0.88895883  0.41210115  1.0
  Ni  Ni522  1  0.25000000  0.02781275  0.36581651  1.0
  Ni  Ni523  1  0.25000000  0.36114608  0.36581651  1.0
  Ni  Ni524  1  0.25000000  0.69447942  0.36581651  1.0
  Ni  Ni525  1  0.58333333  0.02781275  0.36581651  1.0
  Ni  Ni526  1  0.58333333  0.36114608  0.36581651  1.0
  Ni  Ni527  1  0.58333333  0.69447942  0.36581651  1.0
  Ni  Ni528  1  0.91666667  0.02781275  0.36581651  1.0
  Ni  Ni529  1  0.91666667  0.36114608  0.36581651  1.0
  Ni  Ni530  1  0.91666667  0.69447942  0.36581651  1.0
  Ni  Ni531  1  0.25000000  0.19447942  0.42137207  1.0
  Ni  Ni532  1  0.25000000  0.52781275  0.42137207  1.0
  Ni  Ni533  1  0.25000000  0.86114608  0.42137207  1.0
  Ni  Ni534  1  0.58333333  0.19447942  0.42137207  1.0
  Ni  Ni535  1  0.58333333  0.52781275  0.42137207  1.0
  Ni  Ni536  1  0.58333333  0.86114608  0.42137207  1.0
  Ni  Ni537  1  0.91666667  0.19447942  0.42137207  1.0
  Ni  Ni538  1  0.91666667  0.52781275  0.42137207  1.0
  Ni  Ni539  1  0.91666667  0.86114608  0.42137207  1.0
  Ni  Ni540  1  0.25000000  0.02781275  0.42130212  1.0
  Ni  Ni541  1  0.25000000  0.36114608  0.42130212  1.0
  Ni  Ni542  1  0.25000000  0.69447942  0.42130212  1.0
  Ni  Ni543  1  0.58333333  0.02781275  0.42130212  1.0
  Ni  Ni544  1  0.58333333  0.36114608  0.42130212  1.0
  Ni  Ni545  1  0.58333333  0.69447942  0.42130212  1.0
  Ni  Ni546  1  0.91666667  0.02781275  0.42130212  1.0
  Ni  Ni547  1  0.91666667  0.36114608  0.42130212  1.0
  Ni  Ni548  1  0.91666667  0.69447942  0.42130212  1.0
  Ni  Ni549  1  0.25000000  0.19447942  0.36574657  1.0
  Ni  Ni550  1  0.25000000  0.52781275  0.36574657  1.0
  Ni  Ni551  1  0.25000000  0.86114608  0.36574657  1.0
  Ni  Ni552  1  0.58333333  0.19447942  0.36574657  1.0
  Ni  Ni553  1  0.58333333  0.52781275  0.36574657  1.0
  Ni  Ni554  1  0.58333333  0.86114608  0.36574657  1.0
  Ni  Ni555  1  0.91666667  0.19447942  0.36574657  1.0
  Ni  Ni556  1  0.91666667  0.52781275  0.36574657  1.0
  Ni  Ni557  1  0.91666667  0.86114608  0.36574657  1.0
  Ni  Ni558  1  0.25000000  0.11104117  0.33793382  1.0
  Ni  Ni559  1  0.25000000  0.44437450  0.33793382  1.0
  Ni  Ni560  1  0.25000000  0.77770783  0.33793382  1.0
  Ni  Ni561  1  0.58333333  0.11104117  0.33793382  1.0
  Ni  Ni562  1  0.58333333  0.44437450  0.33793382  1.0
  Ni  Ni563  1  0.58333333  0.77770783  0.33793382  1.0
  Ni  Ni564  1  0.91666667  0.11104117  0.33793382  1.0
  Ni  Ni565  1  0.91666667  0.44437450  0.33793382  1.0
  Ni  Ni566  1  0.91666667  0.77770783  0.33793382  1.0
  Ni  Ni567  1  0.25000000  0.27770783  0.39348937  1.0
  Ni  Ni568  1  0.25000000  0.61104117  0.39348937  1.0
  Ni  Ni569  1  0.25000000  0.94437450  0.39348937  1.0
  Ni  Ni570  1  0.58333333  0.27770783  0.39348937  1.0
  Ni  Ni571  1  0.58333333  0.61104117  0.39348937  1.0
  Ni  Ni572  1  0.58333333  0.94437450  0.39348937  1.0
  Ni  Ni573  1  0.91666667  0.27770783  0.39348937  1.0
  Ni  Ni574  1  0.91666667  0.61104117  0.39348937  1.0
  Ni  Ni575  1  0.91666667  0.94437450  0.39348937  1.0
