# generated using pymatgen
data_CoNi
_symmetry_space_group_name_H-M   'P 1'
_cell_length_a   11.88482700
_cell_length_b   11.78936999
_cell_length_c   45.76267211
_cell_angle_alpha   144.66614500
_cell_angle_beta   90.00000000
_cell_angle_gamma   90.00000000
_symmetry_Int_Tables_number   1
_chemical_formula_structural   CoNi
_chemical_formula_sum   'Co72 Ni72'
_cell_volume   3708.32586601
_cell_formula_units_Z   72
loop_
 _symmetry_equiv_pos_site_id
 _symmetry_equiv_pos_as_xyz
  1  'x, y, z'
loop_
 _atom_site_type_symbol
 _atom_site_label
 _atom_site_symmetry_multiplicity
 _atom_site_fract_x
 _atom_site_fract_y
 _atom_site_fract_z
 _atom_site_occupancy
  Co  Co0  1  0.00000000  0.00000000  0.02631579  1.0
  Co  Co1  1  0.00000000  0.33333333  0.02631579  1.0
  Co  Co2  1  0.00000000  0.66666667  0.02631579  1.0
  Co  Co3  1  0.33333333  0.00000000  0.02631579  1.0
  Co  Co4  1  0.33333333  0.33333333  0.02631579  1.0
  Co  Co5  1  0.33333333  0.66666667  0.02631579  1.0
  Co  Co6  1  0.66666667  0.00000000  0.02631579  1.0
  Co  Co7  1  0.66666667  0.33333333  0.02631579  1.0
  Co  Co8  1  0.66666667  0.66666667  0.02631579  1.0
  Ni  Ni9  1  0.16666667  0.16666667  0.02631579  1.0
  Ni  Ni10  1  0.16666667  0.50000000  0.02631579  1.0
  Ni  Ni11  1  0.16666667  0.83333333  0.02631579  1.0
  Ni  Ni12  1  0.50000000  0.16666667  0.02631579  1.0
  Ni  Ni13  1  0.50000000  0.50000000  0.02631579  1.0
  Ni  Ni14  1  0.50000000  0.83333333  0.02631579  1.0
  Ni  Ni15  1  0.83333333  0.16666667  0.02631579  1.0
  Ni  Ni16  1  0.83333333  0.50000000  0.02631579  1.0
  Ni  Ni17  1  0.83333333  0.83333333  0.02631579  1.0
  Co  Co18  1  0.00000000  0.00000000  0.07894737  1.0
  Co  Co19  1  0.00000000  0.33333333  0.07894737  1.0
  Co  Co20  1  0.00000000  0.66666667  0.07894737  1.0
  Co  Co21  1  0.33333333  0.00000000  0.07894737  1.0
  Co  Co22  1  0.33333333  0.33333333  0.07894737  1.0
  Co  Co23  1  0.33333333  0.66666667  0.07894737  1.0
  Co  Co24  1  0.66666667  0.00000000  0.07894737  1.0
  Co  Co25  1  0.66666667  0.33333333  0.07894737  1.0
  Co  Co26  1  0.66666667  0.66666667  0.07894737  1.0
  Ni  Ni27  1  0.16666667  0.16666667  0.07894737  1.0
  Ni  Ni28  1  0.16666667  0.50000000  0.07894737  1.0
  Ni  Ni29  1  0.16666667  0.83333333  0.07894737  1.0
  Ni  Ni30  1  0.50000000  0.16666667  0.07894737  1.0
  Ni  Ni31  1  0.50000000  0.50000000  0.07894737  1.0
  Ni  Ni32  1  0.50000000  0.83333333  0.07894737  1.0
  Ni  Ni33  1  0.83333333  0.16666667  0.07894737  1.0
  Ni  Ni34  1  0.83333333  0.50000000  0.07894737  1.0
  Ni  Ni35  1  0.83333333  0.83333333  0.07894737  1.0
  Co  Co36  1  0.00000000  0.00000000  0.13157895  1.0
  Co  Co37  1  0.00000000  0.33333333  0.13157895  1.0
  Co  Co38  1  0.00000000  0.66666667  0.13157895  1.0
  Co  Co39  1  0.33333333  0.00000000  0.13157895  1.0
  Co  Co40  1  0.33333333  0.33333333  0.13157895  1.0
  Co  Co41  1  0.33333333  0.66666667  0.13157895  1.0
  Co  Co42  1  0.66666667  0.00000000  0.13157895  1.0
  Co  Co43  1  0.66666667  0.33333333  0.13157895  1.0
  Co  Co44  1  0.66666667  0.66666667  0.13157895  1.0
  Ni  Ni45  1  0.16666667  0.16666667  0.13157895  1.0
  Ni  Ni46  1  0.16666667  0.50000000  0.13157895  1.0
  Ni  Ni47  1  0.16666667  0.83333333  0.13157895  1.0
  Ni  Ni48  1  0.50000000  0.16666667  0.13157895  1.0
  Ni  Ni49  1  0.50000000  0.50000000  0.13157895  1.0
  Ni  Ni50  1  0.50000000  0.83333333  0.13157895  1.0
  Ni  Ni51  1  0.83333333  0.16666667  0.13157895  1.0
  Ni  Ni52  1  0.83333333  0.50000000  0.13157895  1.0
  Ni  Ni53  1  0.83333333  0.83333333  0.13157895  1.0
  Co  Co54  1  0.00000000  0.00000000  0.18421053  1.0
  Co  Co55  1  0.00000000  0.33333333  0.18421053  1.0
  Co  Co56  1  0.00000000  0.66666667  0.18421053  1.0
  Co  Co57  1  0.33333333  0.00000000  0.18421053  1.0
  Co  Co58  1  0.33333333  0.33333333  0.18421053  1.0
  Co  Co59  1  0.33333333  0.66666667  0.18421053  1.0
  Co  Co60  1  0.66666667  0.00000000  0.18421053  1.0
  Co  Co61  1  0.66666667  0.33333333  0.18421053  1.0
  Co  Co62  1  0.66666667  0.66666667  0.18421053  1.0
  Ni  Ni63  1  0.16666667  0.16666667  0.18421053  1.0
  Ni  Ni64  1  0.16666667  0.50000000  0.18421053  1.0
  Ni  Ni65  1  0.16666667  0.83333333  0.18421053  1.0
  Ni  Ni66  1  0.50000000  0.16666667  0.18421053  1.0
  Ni  Ni67  1  0.50000000  0.50000000  0.18421053  1.0
  Ni  Ni68  1  0.50000000  0.83333333  0.18421053  1.0
  Ni  Ni69  1  0.83333333  0.16666667  0.18421053  1.0
  Ni  Ni70  1  0.83333333  0.50000000  0.18421053  1.0
  Ni  Ni71  1  0.83333333  0.83333333  0.18421053  1.0
  Co  Co72  1  0.00000000  0.00000000  0.23684211  1.0
  Co  Co73  1  0.00000000  0.33333333  0.23684211  1.0
  Co  Co74  1  0.00000000  0.66666667  0.23684211  1.0
  Co  Co75  1  0.33333333  0.00000000  0.23684211  1.0
  Co  Co76  1  0.33333333  0.33333333  0.23684211  1.0
  Co  Co77  1  0.33333333  0.66666667  0.23684211  1.0
  Co  Co78  1  0.66666667  0.00000000  0.23684211  1.0
  Co  Co79  1  0.66666667  0.33333333  0.23684211  1.0
  Co  Co80  1  0.66666667  0.66666667  0.23684211  1.0
  Ni  Ni81  1  0.16666667  0.16666667  0.23684211  1.0
  Ni  Ni82  1  0.16666667  0.50000000  0.23684211  1.0
  Ni  Ni83  1  0.16666667  0.83333333  0.23684211  1.0
  Ni  Ni84  1  0.50000000  0.16666667  0.23684211  1.0
  Ni  Ni85  1  0.50000000  0.50000000  0.23684211  1.0
  Ni  Ni86  1  0.50000000  0.83333333  0.23684211  1.0
  Ni  Ni87  1  0.83333333  0.16666667  0.23684211  1.0
  Ni  Ni88  1  0.83333333  0.50000000  0.23684211  1.0
  Ni  Ni89  1  0.83333333  0.83333333  0.23684211  1.0
  Co  Co90  1  0.00000000  0.00000000  0.28947368  1.0
  Co  Co91  1  0.00000000  0.33333333  0.28947368  1.0
  Co  Co92  1  0.00000000  0.66666667  0.28947368  1.0
  Co  Co93  1  0.33333333  0.00000000  0.28947368  1.0
  Co  Co94  1  0.33333333  0.33333333  0.28947368  1.0
  Co  Co95  1  0.33333333  0.66666667  0.28947368  1.0
  Co  Co96  1  0.66666667  0.00000000  0.28947368  1.0
  Co  Co97  1  0.66666667  0.33333333  0.28947368  1.0
  Co  Co98  1  0.66666667  0.66666667  0.28947368  1.0
  Ni  Ni99  1  0.16666667  0.16666667  0.28947368  1.0
  Ni  Ni100  1  0.16666667  0.50000000  0.28947368  1.0
  Ni  Ni101  1  0.16666667  0.83333333  0.28947368  1.0
  Ni  Ni102  1  0.50000000  0.16666667  0.28947368  1.0
  Ni  Ni103  1  0.50000000  0.50000000  0.28947368  1.0
  Ni  Ni104  1  0.50000000  0.83333333  0.28947368  1.0
  Ni  Ni105  1  0.83333333  0.16666667  0.28947368  1.0
  Ni  Ni106  1  0.83333333  0.50000000  0.28947368  1.0
  Ni  Ni107  1  0.83333333  0.83333333  0.28947368  1.0
  Co  Co108  1  0.00000000  0.00000000  0.34210526  1.0
  Co  Co109  1  0.00000000  0.33333333  0.34210526  1.0
  Co  Co110  1  0.00000000  0.66666667  0.34210526  1.0
  Co  Co111  1  0.33333333  0.00000000  0.34210526  1.0
  Co  Co112  1  0.33333333  0.33333333  0.34210526  1.0
  Co  Co113  1  0.33333333  0.66666667  0.34210526  1.0
  Co  Co114  1  0.66666667  0.00000000  0.34210526  1.0
  Co  Co115  1  0.66666667  0.33333333  0.34210526  1.0
  Co  Co116  1  0.66666667  0.66666667  0.34210526  1.0
  Ni  Ni117  1  0.16666667  0.16666667  0.34210526  1.0
  Ni  Ni118  1  0.16666667  0.50000000  0.34210526  1.0
  Ni  Ni119  1  0.16666667  0.83333333  0.34210526  1.0
  Ni  Ni120  1  0.50000000  0.16666667  0.34210526  1.0
  Ni  Ni121  1  0.50000000  0.50000000  0.34210526  1.0
  Ni  Ni122  1  0.50000000  0.83333333  0.34210526  1.0
  Ni  Ni123  1  0.83333333  0.16666667  0.34210526  1.0
  Ni  Ni124  1  0.83333333  0.50000000  0.34210526  1.0
  Ni  Ni125  1  0.83333333  0.83333333  0.34210526  1.0
  Co  Co126  1  0.00000000  0.00000000  0.39473684  1.0
  Co  Co127  1  0.00000000  0.33333333  0.39473684  1.0
  Co  Co128  1  0.00000000  0.66666667  0.39473684  1.0
  Co  Co129  1  0.33333333  0.00000000  0.39473684  1.0
  Co  Co130  1  0.33333333  0.33333333  0.39473684  1.0
  Co  Co131  1  0.33333333  0.66666667  0.39473684  1.0
  Co  Co132  1  0.66666667  0.00000000  0.39473684  1.0
  Co  Co133  1  0.66666667  0.33333333  0.39473684  1.0
  Co  Co134  1  0.66666667  0.66666667  0.39473684  1.0
  Ni  Ni135  1  0.16666667  0.16666667  0.39473684  1.0
  Ni  Ni136  1  0.16666667  0.50000000  0.39473684  1.0
  Ni  Ni137  1  0.16666667  0.83333333  0.39473684  1.0
  Ni  Ni138  1  0.50000000  0.16666667  0.39473684  1.0
  Ni  Ni139  1  0.50000000  0.50000000  0.39473684  1.0
  Ni  Ni140  1  0.50000000  0.83333333  0.39473684  1.0
  Ni  Ni141  1  0.83333333  0.16666667  0.39473684  1.0
  Ni  Ni142  1  0.83333333  0.50000000  0.39473684  1.0
  Ni  Ni143  1  0.83333333  0.83333333  0.39473684  1.0
