# generated using pymatgen
data_CoNi3
_symmetry_space_group_name_H-M   'P 1'
_cell_length_a   25.93322859
_cell_length_b   19.31792859
_cell_length_c   52.89594700
_cell_angle_alpha   50.81048574
_cell_angle_beta   90.00000000
_cell_angle_gamma   47.83856792
_symmetry_Int_Tables_number   1
_chemical_formula_structural   CoNi3
_chemical_formula_sum   'Co90 Ni270'
_cell_volume   10269.39716179
_cell_formula_units_Z   90
loop_
 _symmetry_equiv_pos_site_id
 _symmetry_equiv_pos_as_xyz
  1  'x, y, z'
loop_
 _atom_site_type_symbol
 _atom_site_label
 _atom_site_symmetry_multiplicity
 _atom_site_fract_x
 _atom_site_fract_y
 _atom_site_fract_z
 _atom_site_occupancy
  Co  Co0  1  0.11111111  0.00000000  0.01920656  1.0
  Co  Co1  1  0.11111111  0.33333333  0.01920656  1.0
  Co  Co2  1  0.11111111  0.66666667  0.01920656  1.0
  Co  Co3  1  0.44444444  0.00000000  0.01920656  1.0
  Co  Co4  1  0.44444444  0.33333333  0.01920656  1.0
  Co  Co5  1  0.44444444  0.66666667  0.01920656  1.0
  Co  Co6  1  0.77777778  0.00000000  0.01920656  1.0
  Co  Co7  1  0.77777778  0.33333333  0.01920656  1.0
  Co  Co8  1  0.77777778  0.66666667  0.01920656  1.0
  Co  Co9  1  0.22222222  0.00000000  0.05766810  1.0
  Co  Co10  1  0.22222222  0.33333333  0.05766810  1.0
  Co  Co11  1  0.22222222  0.66666667  0.05766810  1.0
  Co  Co12  1  0.55555556  0.00000000  0.05766810  1.0
  Co  Co13  1  0.55555556  0.33333333  0.05766810  1.0
  Co  Co14  1  0.55555556  0.66666667  0.05766810  1.0
  Co  Co15  1  0.88888889  0.00000000  0.05766810  1.0
  Co  Co16  1  0.88888889  0.33333333  0.05766810  1.0
  Co  Co17  1  0.88888889  0.66666667  0.05766810  1.0
  Ni  Ni18  1  0.05562550  0.16645683  0.01925498  1.0
  Ni  Ni19  1  0.05562550  0.49979017  0.01925498  1.0
  Ni  Ni20  1  0.05562550  0.83312350  0.01925498  1.0
  Ni  Ni21  1  0.38895883  0.16645683  0.01925498  1.0
  Ni  Ni22  1  0.38895883  0.49979017  0.01925498  1.0
  Ni  Ni23  1  0.38895883  0.83312350  0.01925498  1.0
  Ni  Ni24  1  0.72229217  0.16645683  0.01925498  1.0
  Ni  Ni25  1  0.72229217  0.49979017  0.01925498  1.0
  Ni  Ni26  1  0.72229217  0.83312350  0.01925498  1.0
  Ni  Ni27  1  0.05562550  0.00000000  0.05766810  1.0
  Ni  Ni28  1  0.05562550  0.33333333  0.05766810  1.0
  Ni  Ni29  1  0.05562550  0.66666667  0.05766810  1.0
  Ni  Ni30  1  0.38895883  0.00000000  0.05766810  1.0
  Ni  Ni31  1  0.38895883  0.33333333  0.05766810  1.0
  Ni  Ni32  1  0.38895883  0.66666667  0.05766810  1.0
  Ni  Ni33  1  0.72229217  0.00000000  0.05766810  1.0
  Ni  Ni34  1  0.72229217  0.33333333  0.05766810  1.0
  Ni  Ni35  1  0.72229217  0.66666667  0.05766810  1.0
  Ni  Ni36  1  0.22208233  0.16687650  0.01915813  1.0
  Ni  Ni37  1  0.22208233  0.50020983  0.01915813  1.0
  Ni  Ni38  1  0.22208233  0.83354317  0.01915813  1.0
  Ni  Ni39  1  0.55541567  0.16687650  0.01915813  1.0
  Ni  Ni40  1  0.55541567  0.50020983  0.01915813  1.0
  Ni  Ni41  1  0.55541567  0.83354317  0.01915813  1.0
  Ni  Ni42  1  0.88874900  0.16687650  0.01915813  1.0
  Ni  Ni43  1  0.88874900  0.50020983  0.01915813  1.0
  Ni  Ni44  1  0.88874900  0.83354317  0.01915813  1.0
  Ni  Ni45  1  0.27770783  0.16687650  0.05761967  1.0
  Ni  Ni46  1  0.27770783  0.50020983  0.05761967  1.0
  Ni  Ni47  1  0.27770783  0.83354317  0.05761967  1.0
  Ni  Ni48  1  0.61104117  0.16687650  0.05761967  1.0
  Ni  Ni49  1  0.61104117  0.50020983  0.05761967  1.0
  Ni  Ni50  1  0.61104117  0.83354317  0.05761967  1.0
  Ni  Ni51  1  0.94437450  0.16687650  0.05761967  1.0
  Ni  Ni52  1  0.94437450  0.50020983  0.05761967  1.0
  Ni  Ni53  1  0.94437450  0.83354317  0.05761967  1.0
  Ni  Ni54  1  0.27770783  0.33333333  0.01920656  1.0
  Ni  Ni55  1  0.27770783  0.66666667  0.01920656  1.0
  Ni  Ni56  1  0.27770783  0.00000000  0.01920656  1.0
  Ni  Ni57  1  0.61104117  0.33333333  0.01920656  1.0
  Ni  Ni58  1  0.61104117  0.66666667  0.01920656  1.0
  Ni  Ni59  1  0.61104117  0.00000000  0.01920656  1.0
  Ni  Ni60  1  0.94437450  0.33333333  0.01920656  1.0
  Ni  Ni61  1  0.94437450  0.66666667  0.01920656  1.0
  Ni  Ni62  1  0.94437450  0.00000000  0.01920656  1.0
  Ni  Ni63  1  0.11125100  0.16645683  0.05771652  1.0
  Ni  Ni64  1  0.11125100  0.49979017  0.05771652  1.0
  Ni  Ni65  1  0.11125100  0.83312350  0.05771652  1.0
  Ni  Ni66  1  0.44458433  0.16645683  0.05771652  1.0
  Ni  Ni67  1  0.44458433  0.49979017  0.05771652  1.0
  Ni  Ni68  1  0.44458433  0.83312350  0.05771652  1.0
  Ni  Ni69  1  0.77791767  0.16645683  0.05771652  1.0
  Ni  Ni70  1  0.77791767  0.49979017  0.05771652  1.0
  Ni  Ni71  1  0.77791767  0.83312350  0.05771652  1.0
  Co  Co72  1  0.11111111  0.00000000  0.09612963  1.0
  Co  Co73  1  0.11111111  0.33333333  0.09612963  1.0
  Co  Co74  1  0.11111111  0.66666667  0.09612963  1.0
  Co  Co75  1  0.44444444  0.00000000  0.09612963  1.0
  Co  Co76  1  0.44444444  0.33333333  0.09612963  1.0
  Co  Co77  1  0.44444444  0.66666667  0.09612963  1.0
  Co  Co78  1  0.77777778  0.00000000  0.09612963  1.0
  Co  Co79  1  0.77777778  0.33333333  0.09612963  1.0
  Co  Co80  1  0.77777778  0.66666667  0.09612963  1.0
  Co  Co81  1  0.22222222  0.00000000  0.13459117  1.0
  Co  Co82  1  0.22222222  0.33333333  0.13459117  1.0
  Co  Co83  1  0.22222222  0.66666667  0.13459117  1.0
  Co  Co84  1  0.55555556  0.00000000  0.13459117  1.0
  Co  Co85  1  0.55555556  0.33333333  0.13459117  1.0
  Co  Co86  1  0.55555556  0.66666667  0.13459117  1.0
  Co  Co87  1  0.88888889  0.00000000  0.13459117  1.0
  Co  Co88  1  0.88888889  0.33333333  0.13459117  1.0
  Co  Co89  1  0.88888889  0.66666667  0.13459117  1.0
  Ni  Ni90  1  0.05562550  0.16645683  0.09617806  1.0
  Ni  Ni91  1  0.05562550  0.49979017  0.09617806  1.0
  Ni  Ni92  1  0.05562550  0.83312350  0.09617806  1.0
  Ni  Ni93  1  0.38895883  0.16645683  0.09617806  1.0
  Ni  Ni94  1  0.38895883  0.49979017  0.09617806  1.0
  Ni  Ni95  1  0.38895883  0.83312350  0.09617806  1.0
  Ni  Ni96  1  0.72229217  0.16645683  0.09617806  1.0
  Ni  Ni97  1  0.72229217  0.49979017  0.09617806  1.0
  Ni  Ni98  1  0.72229217  0.83312350  0.09617806  1.0
  Ni  Ni99  1  0.05562550  0.00000000  0.13459117  1.0
  Ni  Ni100  1  0.05562550  0.33333333  0.13459117  1.0
  Ni  Ni101  1  0.05562550  0.66666667  0.13459117  1.0
  Ni  Ni102  1  0.38895883  0.00000000  0.13459117  1.0
  Ni  Ni103  1  0.38895883  0.33333333  0.13459117  1.0
  Ni  Ni104  1  0.38895883  0.66666667  0.13459117  1.0
  Ni  Ni105  1  0.72229217  0.00000000  0.13459117  1.0
  Ni  Ni106  1  0.72229217  0.33333333  0.13459117  1.0
  Ni  Ni107  1  0.72229217  0.66666667  0.13459117  1.0
  Ni  Ni108  1  0.22208233  0.16687650  0.09608121  1.0
  Ni  Ni109  1  0.22208233  0.50020983  0.09608121  1.0
  Ni  Ni110  1  0.22208233  0.83354317  0.09608121  1.0
  Ni  Ni111  1  0.55541567  0.16687650  0.09608121  1.0
  Ni  Ni112  1  0.55541567  0.50020983  0.09608121  1.0
  Ni  Ni113  1  0.55541567  0.83354317  0.09608121  1.0
  Ni  Ni114  1  0.88874900  0.16687650  0.09608121  1.0
  Ni  Ni115  1  0.88874900  0.50020983  0.09608121  1.0
  Ni  Ni116  1  0.88874900  0.83354317  0.09608121  1.0
  Ni  Ni117  1  0.27770783  0.16687650  0.13454275  1.0
  Ni  Ni118  1  0.27770783  0.50020983  0.13454275  1.0
  Ni  Ni119  1  0.27770783  0.83354317  0.13454275  1.0
  Ni  Ni120  1  0.61104117  0.16687650  0.13454275  1.0
  Ni  Ni121  1  0.61104117  0.50020983  0.13454275  1.0
  Ni  Ni122  1  0.61104117  0.83354317  0.13454275  1.0
  Ni  Ni123  1  0.94437450  0.16687650  0.13454275  1.0
  Ni  Ni124  1  0.94437450  0.50020983  0.13454275  1.0
  Ni  Ni125  1  0.94437450  0.83354317  0.13454275  1.0
  Ni  Ni126  1  0.27770783  0.33333333  0.09612963  1.0
  Ni  Ni127  1  0.27770783  0.66666667  0.09612963  1.0
  Ni  Ni128  1  0.27770783  0.00000000  0.09612963  1.0
  Ni  Ni129  1  0.61104117  0.33333333  0.09612963  1.0
  Ni  Ni130  1  0.61104117  0.66666667  0.09612963  1.0
  Ni  Ni131  1  0.61104117  0.00000000  0.09612963  1.0
  Ni  Ni132  1  0.94437450  0.33333333  0.09612963  1.0
  Ni  Ni133  1  0.94437450  0.66666667  0.09612963  1.0
  Ni  Ni134  1  0.94437450  0.00000000  0.09612963  1.0
  Ni  Ni135  1  0.11125100  0.16645683  0.13463960  1.0
  Ni  Ni136  1  0.11125100  0.49979017  0.13463960  1.0
  Ni  Ni137  1  0.11125100  0.83312350  0.13463960  1.0
  Ni  Ni138  1  0.44458433  0.16645683  0.13463960  1.0
  Ni  Ni139  1  0.44458433  0.49979017  0.13463960  1.0
  Ni  Ni140  1  0.44458433  0.83312350  0.13463960  1.0
  Ni  Ni141  1  0.77791767  0.16645683  0.13463960  1.0
  Ni  Ni142  1  0.77791767  0.49979017  0.13463960  1.0
  Ni  Ni143  1  0.77791767  0.83312350  0.13463960  1.0
  Co  Co144  1  0.11111111  0.00000000  0.17305271  1.0
  Co  Co145  1  0.11111111  0.33333333  0.17305271  1.0
  Co  Co146  1  0.11111111  0.66666667  0.17305271  1.0
  Co  Co147  1  0.44444444  0.00000000  0.17305271  1.0
  Co  Co148  1  0.44444444  0.33333333  0.17305271  1.0
  Co  Co149  1  0.44444444  0.66666667  0.17305271  1.0
  Co  Co150  1  0.77777778  0.00000000  0.17305271  1.0
  Co  Co151  1  0.77777778  0.33333333  0.17305271  1.0
  Co  Co152  1  0.77777778  0.66666667  0.17305271  1.0
  Co  Co153  1  0.22222222  0.00000000  0.21151425  1.0
  Co  Co154  1  0.22222222  0.33333333  0.21151425  1.0
  Co  Co155  1  0.22222222  0.66666667  0.21151425  1.0
  Co  Co156  1  0.55555556  0.00000000  0.21151425  1.0
  Co  Co157  1  0.55555556  0.33333333  0.21151425  1.0
  Co  Co158  1  0.55555556  0.66666667  0.21151425  1.0
  Co  Co159  1  0.88888889  0.00000000  0.21151425  1.0
  Co  Co160  1  0.88888889  0.33333333  0.21151425  1.0
  Co  Co161  1  0.88888889  0.66666667  0.21151425  1.0
  Ni  Ni162  1  0.05562550  0.16645683  0.17310113  1.0
  Ni  Ni163  1  0.05562550  0.49979017  0.17310113  1.0
  Ni  Ni164  1  0.05562550  0.83312350  0.17310113  1.0
  Ni  Ni165  1  0.38895883  0.16645683  0.17310113  1.0
  Ni  Ni166  1  0.38895883  0.49979017  0.17310113  1.0
  Ni  Ni167  1  0.38895883  0.83312350  0.17310113  1.0
  Ni  Ni168  1  0.72229217  0.16645683  0.17310113  1.0
  Ni  Ni169  1  0.72229217  0.49979017  0.17310113  1.0
  Ni  Ni170  1  0.72229217  0.83312350  0.17310113  1.0
  Ni  Ni171  1  0.05562550  0.00000000  0.21151425  1.0
  Ni  Ni172  1  0.05562550  0.33333333  0.21151425  1.0
  Ni  Ni173  1  0.05562550  0.66666667  0.21151425  1.0
  Ni  Ni174  1  0.38895883  0.00000000  0.21151425  1.0
  Ni  Ni175  1  0.38895883  0.33333333  0.21151425  1.0
  Ni  Ni176  1  0.38895883  0.66666667  0.21151425  1.0
  Ni  Ni177  1  0.72229217  0.00000000  0.21151425  1.0
  Ni  Ni178  1  0.72229217  0.33333333  0.21151425  1.0
  Ni  Ni179  1  0.72229217  0.66666667  0.21151425  1.0
  Ni  Ni180  1  0.22208233  0.16687650  0.17300429  1.0
  Ni  Ni181  1  0.22208233  0.50020983  0.17300429  1.0
  Ni  Ni182  1  0.22208233  0.83354317  0.17300429  1.0
  Ni  Ni183  1  0.55541567  0.16687650  0.17300429  1.0
  Ni  Ni184  1  0.55541567  0.50020983  0.17300429  1.0
  Ni  Ni185  1  0.55541567  0.83354317  0.17300429  1.0
  Ni  Ni186  1  0.88874900  0.16687650  0.17300429  1.0
  Ni  Ni187  1  0.88874900  0.50020983  0.17300429  1.0
  Ni  Ni188  1  0.88874900  0.83354317  0.17300429  1.0
  Ni  Ni189  1  0.27770783  0.16687650  0.21146583  1.0
  Ni  Ni190  1  0.27770783  0.50020983  0.21146583  1.0
  Ni  Ni191  1  0.27770783  0.83354317  0.21146583  1.0
  Ni  Ni192  1  0.61104117  0.16687650  0.21146583  1.0
  Ni  Ni193  1  0.61104117  0.50020983  0.21146583  1.0
  Ni  Ni194  1  0.61104117  0.83354317  0.21146583  1.0
  Ni  Ni195  1  0.94437450  0.16687650  0.21146583  1.0
  Ni  Ni196  1  0.94437450  0.50020983  0.21146583  1.0
  Ni  Ni197  1  0.94437450  0.83354317  0.21146583  1.0
  Ni  Ni198  1  0.27770783  0.33333333  0.17305271  1.0
  Ni  Ni199  1  0.27770783  0.66666667  0.17305271  1.0
  Ni  Ni200  1  0.27770783  0.00000000  0.17305271  1.0
  Ni  Ni201  1  0.61104117  0.33333333  0.17305271  1.0
  Ni  Ni202  1  0.61104117  0.66666667  0.17305271  1.0
  Ni  Ni203  1  0.61104117  0.00000000  0.17305271  1.0
  Ni  Ni204  1  0.94437450  0.33333333  0.17305271  1.0
  Ni  Ni205  1  0.94437450  0.66666667  0.17305271  1.0
  Ni  Ni206  1  0.94437450  0.00000000  0.17305271  1.0
  Ni  Ni207  1  0.11125100  0.16645683  0.21156267  1.0
  Ni  Ni208  1  0.11125100  0.49979017  0.21156267  1.0
  Ni  Ni209  1  0.11125100  0.83312350  0.21156267  1.0
  Ni  Ni210  1  0.44458433  0.16645683  0.21156267  1.0
  Ni  Ni211  1  0.44458433  0.49979017  0.21156267  1.0
  Ni  Ni212  1  0.44458433  0.83312350  0.21156267  1.0
  Ni  Ni213  1  0.77791767  0.16645683  0.21156267  1.0
  Ni  Ni214  1  0.77791767  0.49979017  0.21156267  1.0
  Ni  Ni215  1  0.77791767  0.83312350  0.21156267  1.0
  Co  Co216  1  0.11111111  0.00000000  0.24997579  1.0
  Co  Co217  1  0.11111111  0.33333333  0.24997579  1.0
  Co  Co218  1  0.11111111  0.66666667  0.24997579  1.0
  Co  Co219  1  0.44444444  0.00000000  0.24997579  1.0
  Co  Co220  1  0.44444444  0.33333333  0.24997579  1.0
  Co  Co221  1  0.44444444  0.66666667  0.24997579  1.0
  Co  Co222  1  0.77777778  0.00000000  0.24997579  1.0
  Co  Co223  1  0.77777778  0.33333333  0.24997579  1.0
  Co  Co224  1  0.77777778  0.66666667  0.24997579  1.0
  Co  Co225  1  0.22222222  0.00000000  0.28843733  1.0
  Co  Co226  1  0.22222222  0.33333333  0.28843733  1.0
  Co  Co227  1  0.22222222  0.66666667  0.28843733  1.0
  Co  Co228  1  0.55555556  0.00000000  0.28843733  1.0
  Co  Co229  1  0.55555556  0.33333333  0.28843733  1.0
  Co  Co230  1  0.55555556  0.66666667  0.28843733  1.0
  Co  Co231  1  0.88888889  0.00000000  0.28843733  1.0
  Co  Co232  1  0.88888889  0.33333333  0.28843733  1.0
  Co  Co233  1  0.88888889  0.66666667  0.28843733  1.0
  Ni  Ni234  1  0.05562550  0.16645683  0.25002421  1.0
  Ni  Ni235  1  0.05562550  0.49979017  0.25002421  1.0
  Ni  Ni236  1  0.05562550  0.83312350  0.25002421  1.0
  Ni  Ni237  1  0.38895883  0.16645683  0.25002421  1.0
  Ni  Ni238  1  0.38895883  0.49979017  0.25002421  1.0
  Ni  Ni239  1  0.38895883  0.83312350  0.25002421  1.0
  Ni  Ni240  1  0.72229217  0.16645683  0.25002421  1.0
  Ni  Ni241  1  0.72229217  0.49979017  0.25002421  1.0
  Ni  Ni242  1  0.72229217  0.83312350  0.25002421  1.0
  Ni  Ni243  1  0.05562550  0.00000000  0.28843733  1.0
  Ni  Ni244  1  0.05562550  0.33333333  0.28843733  1.0
  Ni  Ni245  1  0.05562550  0.66666667  0.28843733  1.0
  Ni  Ni246  1  0.38895883  0.00000000  0.28843733  1.0
  Ni  Ni247  1  0.38895883  0.33333333  0.28843733  1.0
  Ni  Ni248  1  0.38895883  0.66666667  0.28843733  1.0
  Ni  Ni249  1  0.72229217  0.00000000  0.28843733  1.0
  Ni  Ni250  1  0.72229217  0.33333333  0.28843733  1.0
  Ni  Ni251  1  0.72229217  0.66666667  0.28843733  1.0
  Ni  Ni252  1  0.22208233  0.16687650  0.24992737  1.0
  Ni  Ni253  1  0.22208233  0.50020983  0.24992737  1.0
  Ni  Ni254  1  0.22208233  0.83354317  0.24992737  1.0
  Ni  Ni255  1  0.55541567  0.16687650  0.24992737  1.0
  Ni  Ni256  1  0.55541567  0.50020983  0.24992737  1.0
  Ni  Ni257  1  0.55541567  0.83354317  0.24992737  1.0
  Ni  Ni258  1  0.88874900  0.16687650  0.24992737  1.0
  Ni  Ni259  1  0.88874900  0.50020983  0.24992737  1.0
  Ni  Ni260  1  0.88874900  0.83354317  0.24992737  1.0
  Ni  Ni261  1  0.27770783  0.16687650  0.28838890  1.0
  Ni  Ni262  1  0.27770783  0.50020983  0.28838890  1.0
  Ni  Ni263  1  0.27770783  0.83354317  0.28838890  1.0
  Ni  Ni264  1  0.61104117  0.16687650  0.28838890  1.0
  Ni  Ni265  1  0.61104117  0.50020983  0.28838890  1.0
  Ni  Ni266  1  0.61104117  0.83354317  0.28838890  1.0
  Ni  Ni267  1  0.94437450  0.16687650  0.28838890  1.0
  Ni  Ni268  1  0.94437450  0.50020983  0.28838890  1.0
  Ni  Ni269  1  0.94437450  0.83354317  0.28838890  1.0
  Ni  Ni270  1  0.27770783  0.33333333  0.24997579  1.0
  Ni  Ni271  1  0.27770783  0.66666667  0.24997579  1.0
  Ni  Ni272  1  0.27770783  0.00000000  0.24997579  1.0
  Ni  Ni273  1  0.61104117  0.33333333  0.24997579  1.0
  Ni  Ni274  1  0.61104117  0.66666667  0.24997579  1.0
  Ni  Ni275  1  0.61104117  0.00000000  0.24997579  1.0
  Ni  Ni276  1  0.94437450  0.33333333  0.24997579  1.0
  Ni  Ni277  1  0.94437450  0.66666667  0.24997579  1.0
  Ni  Ni278  1  0.94437450  0.00000000  0.24997579  1.0
  Ni  Ni279  1  0.11125100  0.16645683  0.28848575  1.0
  Ni  Ni280  1  0.11125100  0.49979017  0.28848575  1.0
  Ni  Ni281  1  0.11125100  0.83312350  0.28848575  1.0
  Ni  Ni282  1  0.44458433  0.16645683  0.28848575  1.0
  Ni  Ni283  1  0.44458433  0.49979017  0.28848575  1.0
  Ni  Ni284  1  0.44458433  0.83312350  0.28848575  1.0
  Ni  Ni285  1  0.77791767  0.16645683  0.28848575  1.0
  Ni  Ni286  1  0.77791767  0.49979017  0.28848575  1.0
  Ni  Ni287  1  0.77791767  0.83312350  0.28848575  1.0
  Co  Co288  1  0.11111111  0.00000000  0.32689887  1.0
  Co  Co289  1  0.11111111  0.33333333  0.32689887  1.0
  Co  Co290  1  0.11111111  0.66666667  0.32689887  1.0
  Co  Co291  1  0.44444444  0.00000000  0.32689887  1.0
  Co  Co292  1  0.44444444  0.33333333  0.32689887  1.0
  Co  Co293  1  0.44444444  0.66666667  0.32689887  1.0
  Co  Co294  1  0.77777778  0.00000000  0.32689887  1.0
  Co  Co295  1  0.77777778  0.33333333  0.32689887  1.0
  Co  Co296  1  0.77777778  0.66666667  0.32689887  1.0
  Co  Co297  1  0.22222222  0.00000000  0.36536040  1.0
  Co  Co298  1  0.22222222  0.33333333  0.36536040  1.0
  Co  Co299  1  0.22222222  0.66666667  0.36536040  1.0
  Co  Co300  1  0.55555556  0.00000000  0.36536040  1.0
  Co  Co301  1  0.55555556  0.33333333  0.36536040  1.0
  Co  Co302  1  0.55555556  0.66666667  0.36536040  1.0
  Co  Co303  1  0.88888889  0.00000000  0.36536040  1.0
  Co  Co304  1  0.88888889  0.33333333  0.36536040  1.0
  Co  Co305  1  0.88888889  0.66666667  0.36536040  1.0
  Ni  Ni306  1  0.05562550  0.16645683  0.32694729  1.0
  Ni  Ni307  1  0.05562550  0.49979017  0.32694729  1.0
  Ni  Ni308  1  0.05562550  0.83312350  0.32694729  1.0
  Ni  Ni309  1  0.38895883  0.16645683  0.32694729  1.0
  Ni  Ni310  1  0.38895883  0.49979017  0.32694729  1.0
  Ni  Ni311  1  0.38895883  0.83312350  0.32694729  1.0
  Ni  Ni312  1  0.72229217  0.16645683  0.32694729  1.0
  Ni  Ni313  1  0.72229217  0.49979017  0.32694729  1.0
  Ni  Ni314  1  0.72229217  0.83312350  0.32694729  1.0
  Ni  Ni315  1  0.05562550  0.00000000  0.36536040  1.0
  Ni  Ni316  1  0.05562550  0.33333333  0.36536040  1.0
  Ni  Ni317  1  0.05562550  0.66666667  0.36536040  1.0
  Ni  Ni318  1  0.38895883  0.00000000  0.36536040  1.0
  Ni  Ni319  1  0.38895883  0.33333333  0.36536040  1.0
  Ni  Ni320  1  0.38895883  0.66666667  0.36536040  1.0
  Ni  Ni321  1  0.72229217  0.00000000  0.36536040  1.0
  Ni  Ni322  1  0.72229217  0.33333333  0.36536040  1.0
  Ni  Ni323  1  0.72229217  0.66666667  0.36536040  1.0
  Ni  Ni324  1  0.22208233  0.16687650  0.32685044  1.0
  Ni  Ni325  1  0.22208233  0.50020983  0.32685044  1.0
  Ni  Ni326  1  0.22208233  0.83354317  0.32685044  1.0
  Ni  Ni327  1  0.55541567  0.16687650  0.32685044  1.0
  Ni  Ni328  1  0.55541567  0.50020983  0.32685044  1.0
  Ni  Ni329  1  0.55541567  0.83354317  0.32685044  1.0
  Ni  Ni330  1  0.88874900  0.16687650  0.32685044  1.0
  Ni  Ni331  1  0.88874900  0.50020983  0.32685044  1.0
  Ni  Ni332  1  0.88874900  0.83354317  0.32685044  1.0
  Ni  Ni333  1  0.27770783  0.16687650  0.36531198  1.0
  Ni  Ni334  1  0.27770783  0.50020983  0.36531198  1.0
  Ni  Ni335  1  0.27770783  0.83354317  0.36531198  1.0
  Ni  Ni336  1  0.61104117  0.16687650  0.36531198  1.0
  Ni  Ni337  1  0.61104117  0.50020983  0.36531198  1.0
  Ni  Ni338  1  0.61104117  0.83354317  0.36531198  1.0
  Ni  Ni339  1  0.94437450  0.16687650  0.36531198  1.0
  Ni  Ni340  1  0.94437450  0.50020983  0.36531198  1.0
  Ni  Ni341  1  0.94437450  0.83354317  0.36531198  1.0
  Ni  Ni342  1  0.27770783  0.33333333  0.32689887  1.0
  Ni  Ni343  1  0.27770783  0.66666667  0.32689887  1.0
  Ni  Ni344  1  0.27770783  0.00000000  0.32689887  1.0
  Ni  Ni345  1  0.61104117  0.33333333  0.32689887  1.0
  Ni  Ni346  1  0.61104117  0.66666667  0.32689887  1.0
  Ni  Ni347  1  0.61104117  0.00000000  0.32689887  1.0
  Ni  Ni348  1  0.94437450  0.33333333  0.32689887  1.0
  Ni  Ni349  1  0.94437450  0.66666667  0.32689887  1.0
  Ni  Ni350  1  0.94437450  0.00000000  0.32689887  1.0
  Ni  Ni351  1  0.11125100  0.16645683  0.36540883  1.0
  Ni  Ni352  1  0.11125100  0.49979017  0.36540883  1.0
  Ni  Ni353  1  0.11125100  0.83312350  0.36540883  1.0
  Ni  Ni354  1  0.44458433  0.16645683  0.36540883  1.0
  Ni  Ni355  1  0.44458433  0.49979017  0.36540883  1.0
  Ni  Ni356  1  0.44458433  0.83312350  0.36540883  1.0
  Ni  Ni357  1  0.77791767  0.16645683  0.36540883  1.0
  Ni  Ni358  1  0.77791767  0.49979017  0.36540883  1.0
  Ni  Ni359  1  0.77791767  0.83312350  0.36540883  1.0
