# generated using pymatgen
data_CoNi3
_symmetry_space_group_name_H-M   'P 1'
_cell_length_a   19.31792859
_cell_length_b   28.63908368
_cell_length_c   27.63449580
_cell_angle_alpha   97.27574897
_cell_angle_beta   92.64234869
_cell_angle_gamma   109.63664184
_symmetry_Int_Tables_number   1
_chemical_formula_structural   CoNi3
_chemical_formula_sum   'Co144 Ni432'
_cell_volume   14219.16530094
_cell_formula_units_Z   144
loop_
 _symmetry_equiv_pos_site_id
 _symmetry_equiv_pos_as_xyz
  1  'x, y, z'
loop_
 _atom_site_type_symbol
 _atom_site_label
 _atom_site_symmetry_multiplicity
 _atom_site_fract_x
 _atom_site_fract_y
 _atom_site_fract_z
 _atom_site_occupancy
  Co  Co0  1  0.30246914  0.32407407  0.10648148  1.0
  Co  Co1  1  0.30246914  0.65740741  0.10648148  1.0
  Co  Co2  1  0.30246914  0.99074074  0.10648148  1.0
  Co  Co3  1  0.63580247  0.32407407  0.10648148  1.0
  Co  Co4  1  0.63580247  0.65740741  0.10648148  1.0
  Co  Co5  1  0.63580247  0.99074074  0.10648148  1.0
  Co  Co6  1  0.96913580  0.32407407  0.10648148  1.0
  Co  Co7  1  0.96913580  0.65740741  0.10648148  1.0
  Co  Co8  1  0.96913580  0.99074074  0.10648148  1.0
  Co  Co9  1  0.04320988  0.21296296  0.05092593  1.0
  Co  Co10  1  0.04320988  0.54629630  0.05092593  1.0
  Co  Co11  1  0.04320988  0.87962963  0.05092593  1.0
  Co  Co12  1  0.37654321  0.21296296  0.05092593  1.0
  Co  Co13  1  0.37654321  0.54629630  0.05092593  1.0
  Co  Co14  1  0.37654321  0.87962963  0.05092593  1.0
  Co  Co15  1  0.70987654  0.21296296  0.05092593  1.0
  Co  Co16  1  0.70987654  0.54629630  0.05092593  1.0
  Co  Co17  1  0.70987654  0.87962963  0.05092593  1.0
  Co  Co18  1  0.21604938  0.23148148  0.00462963  1.0
  Co  Co19  1  0.21604938  0.56481481  0.00462963  1.0
  Co  Co20  1  0.21604938  0.89814815  0.00462963  1.0
  Co  Co21  1  0.54938272  0.23148148  0.00462963  1.0
  Co  Co22  1  0.54938272  0.56481481  0.00462963  1.0
  Co  Co23  1  0.54938272  0.89814815  0.00462963  1.0
  Co  Co24  1  0.88271605  0.23148148  0.00462963  1.0
  Co  Co25  1  0.88271605  0.56481481  0.00462963  1.0
  Co  Co26  1  0.88271605  0.89814815  0.00462963  1.0
  Co  Co27  1  0.14197531  0.00925926  0.06018519  1.0
  Co  Co28  1  0.14197531  0.34259259  0.06018519  1.0
  Co  Co29  1  0.14197531  0.67592593  0.06018519  1.0
  Co  Co30  1  0.47530864  0.00925926  0.06018519  1.0
  Co  Co31  1  0.47530864  0.34259259  0.06018519  1.0
  Co  Co32  1  0.47530864  0.67592593  0.06018519  1.0
  Co  Co33  1  0.80864198  0.00925926  0.06018519  1.0
  Co  Co34  1  0.80864198  0.34259259  0.06018519  1.0
  Co  Co35  1  0.80864198  0.67592593  0.06018519  1.0
  Co  Co36  1  0.15432099  0.21296296  0.21759259  1.0
  Co  Co37  1  0.15432099  0.54629630  0.21759259  1.0
  Co  Co38  1  0.15432099  0.87962963  0.21759259  1.0
  Co  Co39  1  0.48765432  0.21296296  0.21759259  1.0
  Co  Co40  1  0.48765432  0.54629630  0.21759259  1.0
  Co  Co41  1  0.48765432  0.87962963  0.21759259  1.0
  Co  Co42  1  0.82098765  0.21296296  0.21759259  1.0
  Co  Co43  1  0.82098765  0.54629630  0.21759259  1.0
  Co  Co44  1  0.82098765  0.87962963  0.21759259  1.0
  Co  Co45  1  0.22839506  0.10185185  0.16203704  1.0
  Co  Co46  1  0.22839506  0.43518519  0.16203704  1.0
  Co  Co47  1  0.22839506  0.76851852  0.16203704  1.0
  Co  Co48  1  0.56172840  0.10185185  0.16203704  1.0
  Co  Co49  1  0.56172840  0.43518519  0.16203704  1.0
  Co  Co50  1  0.56172840  0.76851852  0.16203704  1.0
  Co  Co51  1  0.89506173  0.10185185  0.16203704  1.0
  Co  Co52  1  0.89506173  0.43518519  0.16203704  1.0
  Co  Co53  1  0.89506173  0.76851852  0.16203704  1.0
  Co  Co54  1  0.06790123  0.12037037  0.11574074  1.0
  Co  Co55  1  0.06790123  0.45370370  0.11574074  1.0
  Co  Co56  1  0.06790123  0.78703704  0.11574074  1.0
  Co  Co57  1  0.40123457  0.12037037  0.11574074  1.0
  Co  Co58  1  0.40123457  0.45370370  0.11574074  1.0
  Co  Co59  1  0.40123457  0.78703704  0.11574074  1.0
  Co  Co60  1  0.73456790  0.12037037  0.11574074  1.0
  Co  Co61  1  0.73456790  0.45370370  0.11574074  1.0
  Co  Co62  1  0.73456790  0.78703704  0.11574074  1.0
  Co  Co63  1  0.32716049  0.23148148  0.17129630  1.0
  Co  Co64  1  0.32716049  0.56481481  0.17129630  1.0
  Co  Co65  1  0.32716049  0.89814815  0.17129630  1.0
  Co  Co66  1  0.66049383  0.23148148  0.17129630  1.0
  Co  Co67  1  0.66049383  0.56481481  0.17129630  1.0
  Co  Co68  1  0.66049383  0.89814815  0.17129630  1.0
  Co  Co69  1  0.99382716  0.23148148  0.17129630  1.0
  Co  Co70  1  0.99382716  0.56481481  0.17129630  1.0
  Co  Co71  1  0.99382716  0.89814815  0.17129630  1.0
  Co  Co72  1  0.00617284  0.10185185  0.32870370  1.0
  Co  Co73  1  0.00617284  0.43518519  0.32870370  1.0
  Co  Co74  1  0.00617284  0.76851852  0.32870370  1.0
  Co  Co75  1  0.33950617  0.10185185  0.32870370  1.0
  Co  Co76  1  0.33950617  0.43518519  0.32870370  1.0
  Co  Co77  1  0.33950617  0.76851852  0.32870370  1.0
  Co  Co78  1  0.67283951  0.10185185  0.32870370  1.0
  Co  Co79  1  0.67283951  0.43518519  0.32870370  1.0
  Co  Co80  1  0.67283951  0.76851852  0.32870370  1.0
  Co  Co81  1  0.08024691  0.32407407  0.27314815  1.0
  Co  Co82  1  0.08024691  0.65740741  0.27314815  1.0
  Co  Co83  1  0.08024691  0.99074074  0.27314815  1.0
  Co  Co84  1  0.41358025  0.32407407  0.27314815  1.0
  Co  Co85  1  0.41358025  0.65740741  0.27314815  1.0
  Co  Co86  1  0.41358025  0.99074074  0.27314815  1.0
  Co  Co87  1  0.74691358  0.32407407  0.27314815  1.0
  Co  Co88  1  0.74691358  0.65740741  0.27314815  1.0
  Co  Co89  1  0.74691358  0.99074074  0.27314815  1.0
  Co  Co90  1  0.25308642  0.00925926  0.22685185  1.0
  Co  Co91  1  0.25308642  0.34259259  0.22685185  1.0
  Co  Co92  1  0.25308642  0.67592593  0.22685185  1.0
  Co  Co93  1  0.58641975  0.00925926  0.22685185  1.0
  Co  Co94  1  0.58641975  0.34259259  0.22685185  1.0
  Co  Co95  1  0.58641975  0.67592593  0.22685185  1.0
  Co  Co96  1  0.91975309  0.00925926  0.22685185  1.0
  Co  Co97  1  0.91975309  0.34259259  0.22685185  1.0
  Co  Co98  1  0.91975309  0.67592593  0.22685185  1.0
  Co  Co99  1  0.17901235  0.12037037  0.28240741  1.0
  Co  Co100  1  0.17901235  0.45370370  0.28240741  1.0
  Co  Co101  1  0.17901235  0.78703704  0.28240741  1.0
  Co  Co102  1  0.51234568  0.12037037  0.28240741  1.0
  Co  Co103  1  0.51234568  0.45370370  0.28240741  1.0
  Co  Co104  1  0.51234568  0.78703704  0.28240741  1.0
  Co  Co105  1  0.84567901  0.12037037  0.28240741  1.0
  Co  Co106  1  0.84567901  0.45370370  0.28240741  1.0
  Co  Co107  1  0.84567901  0.78703704  0.28240741  1.0
  Co  Co108  1  0.19135802  0.32407407  0.43981481  1.0
  Co  Co109  1  0.19135802  0.65740741  0.43981481  1.0
  Co  Co110  1  0.19135802  0.99074074  0.43981481  1.0
  Co  Co111  1  0.52469136  0.32407407  0.43981481  1.0
  Co  Co112  1  0.52469136  0.65740741  0.43981481  1.0
  Co  Co113  1  0.52469136  0.99074074  0.43981481  1.0
  Co  Co114  1  0.85802469  0.32407407  0.43981481  1.0
  Co  Co115  1  0.85802469  0.65740741  0.43981481  1.0
  Co  Co116  1  0.85802469  0.99074074  0.43981481  1.0
  Co  Co117  1  0.26543210  0.21296296  0.38425926  1.0
  Co  Co118  1  0.26543210  0.54629630  0.38425926  1.0
  Co  Co119  1  0.26543210  0.87962963  0.38425926  1.0
  Co  Co120  1  0.59876543  0.21296296  0.38425926  1.0
  Co  Co121  1  0.59876543  0.54629630  0.38425926  1.0
  Co  Co122  1  0.59876543  0.87962963  0.38425926  1.0
  Co  Co123  1  0.93209877  0.21296296  0.38425926  1.0
  Co  Co124  1  0.93209877  0.54629630  0.38425926  1.0
  Co  Co125  1  0.93209877  0.87962963  0.38425926  1.0
  Co  Co126  1  0.10493827  0.23148148  0.33796296  1.0
  Co  Co127  1  0.10493827  0.56481481  0.33796296  1.0
  Co  Co128  1  0.10493827  0.89814815  0.33796296  1.0
  Co  Co129  1  0.43827160  0.23148148  0.33796296  1.0
  Co  Co130  1  0.43827160  0.56481481  0.33796296  1.0
  Co  Co131  1  0.43827160  0.89814815  0.33796296  1.0
  Co  Co132  1  0.77160494  0.23148148  0.33796296  1.0
  Co  Co133  1  0.77160494  0.56481481  0.33796296  1.0
  Co  Co134  1  0.77160494  0.89814815  0.33796296  1.0
  Co  Co135  1  0.03086420  0.00925926  0.39351852  1.0
  Co  Co136  1  0.03086420  0.34259259  0.39351852  1.0
  Co  Co137  1  0.03086420  0.67592593  0.39351852  1.0
  Co  Co138  1  0.36419753  0.00925926  0.39351852  1.0
  Co  Co139  1  0.36419753  0.34259259  0.39351852  1.0
  Co  Co140  1  0.36419753  0.67592593  0.39351852  1.0
  Co  Co141  1  0.69753086  0.00925926  0.39351852  1.0
  Co  Co142  1  0.69753086  0.34259259  0.39351852  1.0
  Co  Co143  1  0.69753086  0.67592593  0.39351852  1.0
  Ni  Ni144  1  0.27159717  0.06479150  0.08802125  1.0
  Ni  Ni145  1  0.27159717  0.39812483  0.08802125  1.0
  Ni  Ni146  1  0.27159717  0.73145817  0.08802125  1.0
  Ni  Ni147  1  0.60493050  0.06479150  0.08802125  1.0
  Ni  Ni148  1  0.60493050  0.39812483  0.08802125  1.0
  Ni  Ni149  1  0.60493050  0.73145817  0.08802125  1.0
  Ni  Ni150  1  0.93826383  0.06479150  0.08802125  1.0
  Ni  Ni151  1  0.93826383  0.39812483  0.08802125  1.0
  Ni  Ni152  1  0.93826383  0.73145817  0.08802125  1.0
  Ni  Ni153  1  0.01233791  0.28701372  0.03246569  1.0
  Ni  Ni154  1  0.01233791  0.62034706  0.03246569  1.0
  Ni  Ni155  1  0.01233791  0.95368039  0.03246569  1.0
  Ni  Ni156  1  0.34567124  0.28701372  0.03246569  1.0
  Ni  Ni157  1  0.34567124  0.62034706  0.03246569  1.0
  Ni  Ni158  1  0.34567124  0.95368039  0.03246569  1.0
  Ni  Ni159  1  0.67900457  0.28701372  0.03246569  1.0
  Ni  Ni160  1  0.67900457  0.62034706  0.03246569  1.0
  Ni  Ni161  1  0.67900457  0.95368039  0.03246569  1.0
  Ni  Ni162  1  0.01243117  0.12041700  0.03239575  1.0
  Ni  Ni163  1  0.01243117  0.45375033  0.03239575  1.0
  Ni  Ni164  1  0.01243117  0.78708367  0.03239575  1.0
  Ni  Ni165  1  0.34576450  0.12041700  0.03239575  1.0
  Ni  Ni166  1  0.34576450  0.45375033  0.03239575  1.0
  Ni  Ni167  1  0.34576450  0.78708367  0.03239575  1.0
  Ni  Ni168  1  0.67909783  0.12041700  0.03239575  1.0
  Ni  Ni169  1  0.67909783  0.45375033  0.03239575  1.0
  Ni  Ni170  1  0.67909783  0.78708367  0.03239575  1.0
  Ni  Ni171  1  0.27169043  0.23152811  0.08795131  1.0
  Ni  Ni172  1  0.27169043  0.56486144  0.08795131  1.0
  Ni  Ni173  1  0.27169043  0.89819478  0.08795131  1.0
  Ni  Ni174  1  0.60502376  0.23152811  0.08795131  1.0
  Ni  Ni175  1  0.60502376  0.56486144  0.08795131  1.0
  Ni  Ni176  1  0.60502376  0.89819478  0.08795131  1.0
  Ni  Ni177  1  0.93835709  0.23152811  0.08795131  1.0
  Ni  Ni178  1  0.93835709  0.56486144  0.08795131  1.0
  Ni  Ni179  1  0.93835709  0.89819478  0.08795131  1.0
  Ni  Ni180  1  0.14189759  0.17590261  0.06013856  1.0
  Ni  Ni181  1  0.14189759  0.50923594  0.06013856  1.0
  Ni  Ni182  1  0.14189759  0.84256928  0.06013856  1.0
  Ni  Ni183  1  0.47523093  0.17590261  0.06013856  1.0
  Ni  Ni184  1  0.47523093  0.50923594  0.06013856  1.0
  Ni  Ni185  1  0.47523093  0.84256928  0.06013856  1.0
  Ni  Ni186  1  0.80856426  0.17590261  0.06013856  1.0
  Ni  Ni187  1  0.80856426  0.50923594  0.06013856  1.0
  Ni  Ni188  1  0.80856426  0.84256928  0.06013856  1.0
  Ni  Ni189  1  0.21597167  0.06479150  0.00458300  1.0
  Ni  Ni190  1  0.21597167  0.39812483  0.00458300  1.0
  Ni  Ni191  1  0.21597167  0.73145817  0.00458300  1.0
  Ni  Ni192  1  0.54930500  0.06479150  0.00458300  1.0
  Ni  Ni193  1  0.54930500  0.39812483  0.00458300  1.0
  Ni  Ni194  1  0.54930500  0.73145817  0.00458300  1.0
  Ni  Ni195  1  0.88263833  0.06479150  0.00458300  1.0
  Ni  Ni196  1  0.88263833  0.39812483  0.00458300  1.0
  Ni  Ni197  1  0.88263833  0.73145817  0.00458300  1.0
  Ni  Ni198  1  0.24692135  0.15743072  0.02308986  1.0
  Ni  Ni199  1  0.24692135  0.49076406  0.02308986  1.0
  Ni  Ni200  1  0.24692135  0.82409739  0.02308986  1.0
  Ni  Ni201  1  0.58025469  0.15743072  0.02308986  1.0
  Ni  Ni202  1  0.58025469  0.49076406  0.02308986  1.0
  Ni  Ni203  1  0.58025469  0.82409739  0.02308986  1.0
  Ni  Ni204  1  0.91358802  0.15743072  0.02308986  1.0
  Ni  Ni205  1  0.91358802  0.49076406  0.02308986  1.0
  Ni  Ni206  1  0.91358802  0.82409739  0.02308986  1.0
  Ni  Ni207  1  0.17284728  0.26854183  0.07864542  1.0
  Ni  Ni208  1  0.17284728  0.60187517  0.07864542  1.0
  Ni  Ni209  1  0.17284728  0.93520850  0.07864542  1.0
  Ni  Ni210  1  0.50618061  0.26854183  0.07864542  1.0
  Ni  Ni211  1  0.50618061  0.60187517  0.07864542  1.0
  Ni  Ni212  1  0.50618061  0.93520850  0.07864542  1.0
  Ni  Ni213  1  0.83951394  0.26854183  0.07864542  1.0
  Ni  Ni214  1  0.83951394  0.60187517  0.07864542  1.0
  Ni  Ni215  1  0.83951394  0.93520850  0.07864542  1.0
  Ni  Ni216  1  0.17275402  0.10180522  0.07871536  1.0
  Ni  Ni217  1  0.17275402  0.43513856  0.07871536  1.0
  Ni  Ni218  1  0.17275402  0.76847189  0.07871536  1.0
  Ni  Ni219  1  0.50608735  0.10180522  0.07871536  1.0
  Ni  Ni220  1  0.50608735  0.43513856  0.07871536  1.0
  Ni  Ni221  1  0.50608735  0.76847189  0.07871536  1.0
  Ni  Ni222  1  0.83942069  0.10180522  0.07871536  1.0
  Ni  Ni223  1  0.83942069  0.43513856  0.07871536  1.0
  Ni  Ni224  1  0.83942069  0.76847189  0.07871536  1.0
  Ni  Ni225  1  0.24682809  0.32402744  0.02315981  1.0
  Ni  Ni226  1  0.24682809  0.65736078  0.02315981  1.0
  Ni  Ni227  1  0.24682809  0.99069411  0.02315981  1.0
  Ni  Ni228  1  0.58016143  0.32402744  0.02315981  1.0
  Ni  Ni229  1  0.58016143  0.65736078  0.02315981  1.0
  Ni  Ni230  1  0.58016143  0.99069411  0.02315981  1.0
  Ni  Ni231  1  0.91349476  0.32402744  0.02315981  1.0
  Ni  Ni232  1  0.91349476  0.65736078  0.02315981  1.0
  Ni  Ni233  1  0.91349476  0.99069411  0.02315981  1.0
  Ni  Ni234  1  0.04328759  0.04631961  0.05097256  1.0
  Ni  Ni235  1  0.04328759  0.37965294  0.05097256  1.0
  Ni  Ni236  1  0.04328759  0.71298628  0.05097256  1.0
  Ni  Ni237  1  0.37662093  0.04631961  0.05097256  1.0
  Ni  Ni238  1  0.37662093  0.37965294  0.05097256  1.0
  Ni  Ni239  1  0.37662093  0.71298628  0.05097256  1.0
  Ni  Ni240  1  0.70995426  0.04631961  0.05097256  1.0
  Ni  Ni241  1  0.70995426  0.37965294  0.05097256  1.0
  Ni  Ni242  1  0.70995426  0.71298628  0.05097256  1.0
  Ni  Ni243  1  0.30254685  0.15743072  0.10652811  1.0
  Ni  Ni244  1  0.30254685  0.49076406  0.10652811  1.0
  Ni  Ni245  1  0.30254685  0.82409739  0.10652811  1.0
  Ni  Ni246  1  0.63588019  0.15743072  0.10652811  1.0
  Ni  Ni247  1  0.63588019  0.49076406  0.10652811  1.0
  Ni  Ni248  1  0.63588019  0.82409739  0.10652811  1.0
  Ni  Ni249  1  0.96921352  0.15743072  0.10652811  1.0
  Ni  Ni250  1  0.96921352  0.49076406  0.10652811  1.0
  Ni  Ni251  1  0.96921352  0.82409739  0.10652811  1.0
  Ni  Ni252  1  0.12344902  0.28701372  0.19913236  1.0
  Ni  Ni253  1  0.12344902  0.62034706  0.19913236  1.0
  Ni  Ni254  1  0.12344902  0.95368039  0.19913236  1.0
  Ni  Ni255  1  0.45678235  0.28701372  0.19913236  1.0
  Ni  Ni256  1  0.45678235  0.62034706  0.19913236  1.0
  Ni  Ni257  1  0.45678235  0.95368039  0.19913236  1.0
  Ni  Ni258  1  0.79011569  0.28701372  0.19913236  1.0
  Ni  Ni259  1  0.79011569  0.62034706  0.19913236  1.0
  Ni  Ni260  1  0.79011569  0.95368039  0.19913236  1.0
  Ni  Ni261  1  0.19752309  0.17590261  0.14357681  1.0
  Ni  Ni262  1  0.19752309  0.50923594  0.14357681  1.0
  Ni  Ni263  1  0.19752309  0.84256928  0.14357681  1.0
  Ni  Ni264  1  0.53085643  0.17590261  0.14357681  1.0
  Ni  Ni265  1  0.53085643  0.50923594  0.14357681  1.0
  Ni  Ni266  1  0.53085643  0.84256928  0.14357681  1.0
  Ni  Ni267  1  0.86418976  0.17590261  0.14357681  1.0
  Ni  Ni268  1  0.86418976  0.50923594  0.14357681  1.0
  Ni  Ni269  1  0.86418976  0.84256928  0.14357681  1.0
  Ni  Ni270  1  0.19761635  0.00930589  0.14350686  1.0
  Ni  Ni271  1  0.19761635  0.34263922  0.14350686  1.0
  Ni  Ni272  1  0.19761635  0.67597256  0.14350686  1.0
  Ni  Ni273  1  0.53094969  0.00930589  0.14350686  1.0
  Ni  Ni274  1  0.53094969  0.34263922  0.14350686  1.0
  Ni  Ni275  1  0.53094969  0.67597256  0.14350686  1.0
  Ni  Ni276  1  0.86428302  0.00930589  0.14350686  1.0
  Ni  Ni277  1  0.86428302  0.34263922  0.14350686  1.0
  Ni  Ni278  1  0.86428302  0.67597256  0.14350686  1.0
  Ni  Ni279  1  0.12354228  0.12041700  0.19906242  1.0
  Ni  Ni280  1  0.12354228  0.45375033  0.19906242  1.0
  Ni  Ni281  1  0.12354228  0.78708367  0.19906242  1.0
  Ni  Ni282  1  0.45687561  0.12041700  0.19906242  1.0
  Ni  Ni283  1  0.45687561  0.45375033  0.19906242  1.0
  Ni  Ni284  1  0.45687561  0.78708367  0.19906242  1.0
  Ni  Ni285  1  0.79020894  0.12041700  0.19906242  1.0
  Ni  Ni286  1  0.79020894  0.45375033  0.19906242  1.0
  Ni  Ni287  1  0.79020894  0.78708367  0.19906242  1.0
  Ni  Ni288  1  0.32708278  0.06479150  0.17124967  1.0
  Ni  Ni289  1  0.32708278  0.39812483  0.17124967  1.0
  Ni  Ni290  1  0.32708278  0.73145817  0.17124967  1.0
  Ni  Ni291  1  0.66041611  0.06479150  0.17124967  1.0
  Ni  Ni292  1  0.66041611  0.39812483  0.17124967  1.0
  Ni  Ni293  1  0.66041611  0.73145817  0.17124967  1.0
  Ni  Ni294  1  0.99374944  0.06479150  0.17124967  1.0
  Ni  Ni295  1  0.99374944  0.39812483  0.17124967  1.0
  Ni  Ni296  1  0.99374944  0.73145817  0.17124967  1.0
  Ni  Ni297  1  0.06782352  0.28701372  0.11569411  1.0
  Ni  Ni298  1  0.06782352  0.62034706  0.11569411  1.0
  Ni  Ni299  1  0.06782352  0.95368039  0.11569411  1.0
  Ni  Ni300  1  0.40115685  0.28701372  0.11569411  1.0
  Ni  Ni301  1  0.40115685  0.62034706  0.11569411  1.0
  Ni  Ni302  1  0.40115685  0.95368039  0.11569411  1.0
  Ni  Ni303  1  0.73449019  0.28701372  0.11569411  1.0
  Ni  Ni304  1  0.73449019  0.62034706  0.11569411  1.0
  Ni  Ni305  1  0.73449019  0.95368039  0.11569411  1.0
  Ni  Ni306  1  0.09877320  0.04631961  0.13420097  1.0
  Ni  Ni307  1  0.09877320  0.37965294  0.13420097  1.0
  Ni  Ni308  1  0.09877320  0.71298628  0.13420097  1.0
  Ni  Ni309  1  0.43210654  0.04631961  0.13420097  1.0
  Ni  Ni310  1  0.43210654  0.37965294  0.13420097  1.0
  Ni  Ni311  1  0.43210654  0.71298628  0.13420097  1.0
  Ni  Ni312  1  0.76543987  0.04631961  0.13420097  1.0
  Ni  Ni313  1  0.76543987  0.37965294  0.13420097  1.0
  Ni  Ni314  1  0.76543987  0.71298628  0.13420097  1.0
  Ni  Ni315  1  0.02469913  0.15743072  0.18975653  1.0
  Ni  Ni316  1  0.02469913  0.49076406  0.18975653  1.0
  Ni  Ni317  1  0.02469913  0.82409739  0.18975653  1.0
  Ni  Ni318  1  0.35803246  0.15743072  0.18975653  1.0
  Ni  Ni319  1  0.35803246  0.49076406  0.18975653  1.0
  Ni  Ni320  1  0.35803246  0.82409739  0.18975653  1.0
  Ni  Ni321  1  0.69136580  0.15743072  0.18975653  1.0
  Ni  Ni322  1  0.69136580  0.49076406  0.18975653  1.0
  Ni  Ni323  1  0.69136580  0.82409739  0.18975653  1.0
  Ni  Ni324  1  0.02460587  0.32402744  0.18982647  1.0
  Ni  Ni325  1  0.02460587  0.65736078  0.18982647  1.0
  Ni  Ni326  1  0.02460587  0.99069411  0.18982647  1.0
  Ni  Ni327  1  0.35793920  0.32402744  0.18982647  1.0
  Ni  Ni328  1  0.35793920  0.65736078  0.18982647  1.0
  Ni  Ni329  1  0.35793920  0.99069411  0.18982647  1.0
  Ni  Ni330  1  0.69127254  0.32402744  0.18982647  1.0
  Ni  Ni331  1  0.69127254  0.65736078  0.18982647  1.0
  Ni  Ni332  1  0.69127254  0.99069411  0.18982647  1.0
  Ni  Ni333  1  0.09867994  0.21291633  0.13427092  1.0
  Ni  Ni334  1  0.09867994  0.54624967  0.13427092  1.0
  Ni  Ni335  1  0.09867994  0.87958300  0.13427092  1.0
  Ni  Ni336  1  0.43201328  0.21291633  0.13427092  1.0
  Ni  Ni337  1  0.43201328  0.54624967  0.13427092  1.0
  Ni  Ni338  1  0.43201328  0.87958300  0.13427092  1.0
  Ni  Ni339  1  0.76534661  0.21291633  0.13427092  1.0
  Ni  Ni340  1  0.76534661  0.54624967  0.13427092  1.0
  Ni  Ni341  1  0.76534661  0.87958300  0.13427092  1.0
  Ni  Ni342  1  0.22847278  0.26854183  0.16208367  1.0
  Ni  Ni343  1  0.22847278  0.60187517  0.16208367  1.0
  Ni  Ni344  1  0.22847278  0.93520850  0.16208367  1.0
  Ni  Ni345  1  0.56180611  0.26854183  0.16208367  1.0
  Ni  Ni346  1  0.56180611  0.60187517  0.16208367  1.0
  Ni  Ni347  1  0.56180611  0.93520850  0.16208367  1.0
  Ni  Ni348  1  0.89513944  0.26854183  0.16208367  1.0
  Ni  Ni349  1  0.89513944  0.60187517  0.16208367  1.0
  Ni  Ni350  1  0.89513944  0.93520850  0.16208367  1.0
  Ni  Ni351  1  0.15439870  0.04631961  0.21763922  1.0
  Ni  Ni352  1  0.15439870  0.37965294  0.21763922  1.0
  Ni  Ni353  1  0.15439870  0.71298628  0.21763922  1.0
  Ni  Ni354  1  0.48773204  0.04631961  0.21763922  1.0
  Ni  Ni355  1  0.48773204  0.37965294  0.21763922  1.0
  Ni  Ni356  1  0.48773204  0.71298628  0.21763922  1.0
  Ni  Ni357  1  0.82106537  0.04631961  0.21763922  1.0
  Ni  Ni358  1  0.82106537  0.37965294  0.21763922  1.0
  Ni  Ni359  1  0.82106537  0.71298628  0.21763922  1.0
  Ni  Ni360  1  0.30863420  0.17590261  0.31024347  1.0
  Ni  Ni361  1  0.30863420  0.50923594  0.31024347  1.0
  Ni  Ni362  1  0.30863420  0.84256928  0.31024347  1.0
  Ni  Ni363  1  0.64196754  0.17590261  0.31024347  1.0
  Ni  Ni364  1  0.64196754  0.50923594  0.31024347  1.0
  Ni  Ni365  1  0.64196754  0.84256928  0.31024347  1.0
  Ni  Ni366  1  0.97530087  0.17590261  0.31024347  1.0
  Ni  Ni367  1  0.97530087  0.50923594  0.31024347  1.0
  Ni  Ni368  1  0.97530087  0.84256928  0.31024347  1.0
  Ni  Ni369  1  0.04937494  0.06479150  0.25468792  1.0
  Ni  Ni370  1  0.04937494  0.39812483  0.25468792  1.0
  Ni  Ni371  1  0.04937494  0.73145817  0.25468792  1.0
  Ni  Ni372  1  0.38270828  0.06479150  0.25468792  1.0
  Ni  Ni373  1  0.38270828  0.39812483  0.25468792  1.0
  Ni  Ni374  1  0.38270828  0.73145817  0.25468792  1.0
  Ni  Ni375  1  0.71604161  0.06479150  0.25468792  1.0
  Ni  Ni376  1  0.71604161  0.39812483  0.25468792  1.0
  Ni  Ni377  1  0.71604161  0.73145817  0.25468792  1.0
  Ni  Ni378  1  0.04946820  0.23152811  0.25461797  1.0
  Ni  Ni379  1  0.04946820  0.56486144  0.25461797  1.0
  Ni  Ni380  1  0.04946820  0.89819478  0.25461797  1.0
  Ni  Ni381  1  0.38280154  0.23152811  0.25461797  1.0
  Ni  Ni382  1  0.38280154  0.56486144  0.25461797  1.0
  Ni  Ni383  1  0.38280154  0.89819478  0.25461797  1.0
  Ni  Ni384  1  0.71613487  0.23152811  0.25461797  1.0
  Ni  Ni385  1  0.71613487  0.56486144  0.25461797  1.0
  Ni  Ni386  1  0.71613487  0.89819478  0.25461797  1.0
  Ni  Ni387  1  0.30872746  0.00930589  0.31017353  1.0
  Ni  Ni388  1  0.30872746  0.34263922  0.31017353  1.0
  Ni  Ni389  1  0.30872746  0.67597256  0.31017353  1.0
  Ni  Ni390  1  0.64206080  0.00930589  0.31017353  1.0
  Ni  Ni391  1  0.64206080  0.34263922  0.31017353  1.0
  Ni  Ni392  1  0.64206080  0.67597256  0.31017353  1.0
  Ni  Ni393  1  0.97539413  0.00930589  0.31017353  1.0
  Ni  Ni394  1  0.97539413  0.34263922  0.31017353  1.0
  Ni  Ni395  1  0.97539413  0.67597256  0.31017353  1.0
  Ni  Ni396  1  0.17893463  0.28701372  0.28236078  1.0
  Ni  Ni397  1  0.17893463  0.62034706  0.28236078  1.0
  Ni  Ni398  1  0.17893463  0.95368039  0.28236078  1.0
  Ni  Ni399  1  0.51226796  0.28701372  0.28236078  1.0
  Ni  Ni400  1  0.51226796  0.62034706  0.28236078  1.0
  Ni  Ni401  1  0.51226796  0.95368039  0.28236078  1.0
  Ni  Ni402  1  0.84560130  0.28701372  0.28236078  1.0
  Ni  Ni403  1  0.84560130  0.62034706  0.28236078  1.0
  Ni  Ni404  1  0.84560130  0.95368039  0.28236078  1.0
  Ni  Ni405  1  0.25300870  0.17590261  0.22680522  1.0
  Ni  Ni406  1  0.25300870  0.50923594  0.22680522  1.0
  Ni  Ni407  1  0.25300870  0.84256928  0.22680522  1.0
  Ni  Ni408  1  0.58634204  0.17590261  0.22680522  1.0
  Ni  Ni409  1  0.58634204  0.50923594  0.22680522  1.0
  Ni  Ni410  1  0.58634204  0.84256928  0.22680522  1.0
  Ni  Ni411  1  0.91967537  0.17590261  0.22680522  1.0
  Ni  Ni412  1  0.91967537  0.50923594  0.22680522  1.0
  Ni  Ni413  1  0.91967537  0.84256928  0.22680522  1.0
  Ni  Ni414  1  0.28395839  0.26854183  0.24531208  1.0
  Ni  Ni415  1  0.28395839  0.60187517  0.24531208  1.0
  Ni  Ni416  1  0.28395839  0.93520850  0.24531208  1.0
  Ni  Ni417  1  0.61729172  0.26854183  0.24531208  1.0
  Ni  Ni418  1  0.61729172  0.60187517  0.24531208  1.0
  Ni  Ni419  1  0.61729172  0.93520850  0.24531208  1.0
  Ni  Ni420  1  0.95062506  0.26854183  0.24531208  1.0
  Ni  Ni421  1  0.95062506  0.60187517  0.24531208  1.0
  Ni  Ni422  1  0.95062506  0.93520850  0.24531208  1.0
  Ni  Ni423  1  0.20988431  0.04631961  0.30086764  1.0
  Ni  Ni424  1  0.20988431  0.37965294  0.30086764  1.0
  Ni  Ni425  1  0.20988431  0.71298628  0.30086764  1.0
  Ni  Ni426  1  0.54321765  0.04631961  0.30086764  1.0
  Ni  Ni427  1  0.54321765  0.37965294  0.30086764  1.0
  Ni  Ni428  1  0.54321765  0.71298628  0.30086764  1.0
  Ni  Ni429  1  0.87655098  0.04631961  0.30086764  1.0
  Ni  Ni430  1  0.87655098  0.37965294  0.30086764  1.0
  Ni  Ni431  1  0.87655098  0.71298628  0.30086764  1.0
  Ni  Ni432  1  0.20979106  0.21291633  0.30093758  1.0
  Ni  Ni433  1  0.20979106  0.54624967  0.30093758  1.0
  Ni  Ni434  1  0.20979106  0.87958300  0.30093758  1.0
  Ni  Ni435  1  0.54312439  0.21291633  0.30093758  1.0
  Ni  Ni436  1  0.54312439  0.54624967  0.30093758  1.0
  Ni  Ni437  1  0.54312439  0.87958300  0.30093758  1.0
  Ni  Ni438  1  0.87645772  0.21291633  0.30093758  1.0
  Ni  Ni439  1  0.87645772  0.54624967  0.30093758  1.0
  Ni  Ni440  1  0.87645772  0.87958300  0.30093758  1.0
  Ni  Ni441  1  0.28386513  0.10180522  0.24538203  1.0
  Ni  Ni442  1  0.28386513  0.43513856  0.24538203  1.0
  Ni  Ni443  1  0.28386513  0.76847189  0.24538203  1.0
  Ni  Ni444  1  0.61719846  0.10180522  0.24538203  1.0
  Ni  Ni445  1  0.61719846  0.43513856  0.24538203  1.0
  Ni  Ni446  1  0.61719846  0.76847189  0.24538203  1.0
  Ni  Ni447  1  0.95053180  0.10180522  0.24538203  1.0
  Ni  Ni448  1  0.95053180  0.43513856  0.24538203  1.0
  Ni  Ni449  1  0.95053180  0.76847189  0.24538203  1.0
  Ni  Ni450  1  0.08032463  0.15743072  0.27319478  1.0
  Ni  Ni451  1  0.08032463  0.49076406  0.27319478  1.0
  Ni  Ni452  1  0.08032463  0.82409739  0.27319478  1.0
  Ni  Ni453  1  0.41365796  0.15743072  0.27319478  1.0
  Ni  Ni454  1  0.41365796  0.49076406  0.27319478  1.0
  Ni  Ni455  1  0.41365796  0.82409739  0.27319478  1.0
  Ni  Ni456  1  0.74699130  0.15743072  0.27319478  1.0
  Ni  Ni457  1  0.74699130  0.49076406  0.27319478  1.0
  Ni  Ni458  1  0.74699130  0.82409739  0.27319478  1.0
  Ni  Ni459  1  0.00625056  0.26854183  0.32875033  1.0
  Ni  Ni460  1  0.00625056  0.60187517  0.32875033  1.0
  Ni  Ni461  1  0.00625056  0.93520850  0.32875033  1.0
  Ni  Ni462  1  0.33958389  0.26854183  0.32875033  1.0
  Ni  Ni463  1  0.33958389  0.60187517  0.32875033  1.0
  Ni  Ni464  1  0.33958389  0.93520850  0.32875033  1.0
  Ni  Ni465  1  0.67291722  0.26854183  0.32875033  1.0
  Ni  Ni466  1  0.67291722  0.60187517  0.32875033  1.0
  Ni  Ni467  1  0.67291722  0.93520850  0.32875033  1.0
  Ni  Ni468  1  0.16048606  0.06479150  0.42135458  1.0
  Ni  Ni469  1  0.16048606  0.39812483  0.42135458  1.0
  Ni  Ni470  1  0.16048606  0.73145817  0.42135458  1.0
  Ni  Ni471  1  0.49381939  0.06479150  0.42135458  1.0
  Ni  Ni472  1  0.49381939  0.39812483  0.42135458  1.0
  Ni  Ni473  1  0.49381939  0.73145817  0.42135458  1.0
  Ni  Ni474  1  0.82715272  0.06479150  0.42135458  1.0
  Ni  Ni475  1  0.82715272  0.39812483  0.42135458  1.0
  Ni  Ni476  1  0.82715272  0.73145817  0.42135458  1.0
  Ni  Ni477  1  0.23456013  0.28701372  0.36579903  1.0
  Ni  Ni478  1  0.23456013  0.62034706  0.36579903  1.0
  Ni  Ni479  1  0.23456013  0.95368039  0.36579903  1.0
  Ni  Ni480  1  0.56789346  0.28701372  0.36579903  1.0
  Ni  Ni481  1  0.56789346  0.62034706  0.36579903  1.0
  Ni  Ni482  1  0.56789346  0.95368039  0.36579903  1.0
  Ni  Ni483  1  0.90122680  0.28701372  0.36579903  1.0
  Ni  Ni484  1  0.90122680  0.62034706  0.36579903  1.0
  Ni  Ni485  1  0.90122680  0.95368039  0.36579903  1.0
  Ni  Ni486  1  0.23465339  0.12041700  0.36572908  1.0
  Ni  Ni487  1  0.23465339  0.45375033  0.36572908  1.0
  Ni  Ni488  1  0.23465339  0.78708367  0.36572908  1.0
  Ni  Ni489  1  0.56798672  0.12041700  0.36572908  1.0
  Ni  Ni490  1  0.56798672  0.45375033  0.36572908  1.0
  Ni  Ni491  1  0.56798672  0.78708367  0.36572908  1.0
  Ni  Ni492  1  0.90132006  0.12041700  0.36572908  1.0
  Ni  Ni493  1  0.90132006  0.45375033  0.36572908  1.0
  Ni  Ni494  1  0.90132006  0.78708367  0.36572908  1.0
  Ni  Ni495  1  0.16057931  0.23152811  0.42128464  1.0
  Ni  Ni496  1  0.16057931  0.56486144  0.42128464  1.0
  Ni  Ni497  1  0.16057931  0.89819478  0.42128464  1.0
  Ni  Ni498  1  0.49391265  0.23152811  0.42128464  1.0
  Ni  Ni499  1  0.49391265  0.56486144  0.42128464  1.0
  Ni  Ni500  1  0.49391265  0.89819478  0.42128464  1.0
  Ni  Ni501  1  0.82724598  0.23152811  0.42128464  1.0
  Ni  Ni502  1  0.82724598  0.56486144  0.42128464  1.0
  Ni  Ni503  1  0.82724598  0.89819478  0.42128464  1.0
  Ni  Ni504  1  0.03078648  0.17590261  0.39347189  1.0
  Ni  Ni505  1  0.03078648  0.50923594  0.39347189  1.0
  Ni  Ni506  1  0.03078648  0.84256928  0.39347189  1.0
  Ni  Ni507  1  0.36411981  0.17590261  0.39347189  1.0
  Ni  Ni508  1  0.36411981  0.50923594  0.39347189  1.0
  Ni  Ni509  1  0.36411981  0.84256928  0.39347189  1.0
  Ni  Ni510  1  0.69745315  0.17590261  0.39347189  1.0
  Ni  Ni511  1  0.69745315  0.50923594  0.39347189  1.0
  Ni  Ni512  1  0.69745315  0.84256928  0.39347189  1.0
  Ni  Ni513  1  0.10486056  0.06479150  0.33791633  1.0
  Ni  Ni514  1  0.10486056  0.39812483  0.33791633  1.0
  Ni  Ni515  1  0.10486056  0.73145817  0.33791633  1.0
  Ni  Ni516  1  0.43819389  0.06479150  0.33791633  1.0
  Ni  Ni517  1  0.43819389  0.39812483  0.33791633  1.0
  Ni  Ni518  1  0.43819389  0.73145817  0.33791633  1.0
  Ni  Ni519  1  0.77152722  0.06479150  0.33791633  1.0
  Ni  Ni520  1  0.77152722  0.39812483  0.33791633  1.0
  Ni  Ni521  1  0.77152722  0.73145817  0.33791633  1.0
  Ni  Ni522  1  0.13581024  0.15743072  0.35642319  1.0
  Ni  Ni523  1  0.13581024  0.49076406  0.35642319  1.0
  Ni  Ni524  1  0.13581024  0.82409739  0.35642319  1.0
  Ni  Ni525  1  0.46914357  0.15743072  0.35642319  1.0
  Ni  Ni526  1  0.46914357  0.49076406  0.35642319  1.0
  Ni  Ni527  1  0.46914357  0.82409739  0.35642319  1.0
  Ni  Ni528  1  0.80247691  0.15743072  0.35642319  1.0
  Ni  Ni529  1  0.80247691  0.49076406  0.35642319  1.0
  Ni  Ni530  1  0.80247691  0.82409739  0.35642319  1.0
  Ni  Ni531  1  0.06173617  0.26854183  0.41197875  1.0
  Ni  Ni532  1  0.06173617  0.60187517  0.41197875  1.0
  Ni  Ni533  1  0.06173617  0.93520850  0.41197875  1.0
  Ni  Ni534  1  0.39506950  0.26854183  0.41197875  1.0
  Ni  Ni535  1  0.39506950  0.60187517  0.41197875  1.0
  Ni  Ni536  1  0.39506950  0.93520850  0.41197875  1.0
  Ni  Ni537  1  0.72840283  0.26854183  0.41197875  1.0
  Ni  Ni538  1  0.72840283  0.60187517  0.41197875  1.0
  Ni  Ni539  1  0.72840283  0.93520850  0.41197875  1.0
  Ni  Ni540  1  0.06164291  0.10180522  0.41204869  1.0
  Ni  Ni541  1  0.06164291  0.43513856  0.41204869  1.0
  Ni  Ni542  1  0.06164291  0.76847189  0.41204869  1.0
  Ni  Ni543  1  0.39497624  0.10180522  0.41204869  1.0
  Ni  Ni544  1  0.39497624  0.43513856  0.41204869  1.0
  Ni  Ni545  1  0.39497624  0.76847189  0.41204869  1.0
  Ni  Ni546  1  0.72830957  0.10180522  0.41204869  1.0
  Ni  Ni547  1  0.72830957  0.43513856  0.41204869  1.0
  Ni  Ni548  1  0.72830957  0.76847189  0.41204869  1.0
  Ni  Ni549  1  0.13571698  0.32402744  0.35649314  1.0
  Ni  Ni550  1  0.13571698  0.65736078  0.35649314  1.0
  Ni  Ni551  1  0.13571698  0.99069411  0.35649314  1.0
  Ni  Ni552  1  0.46905031  0.32402744  0.35649314  1.0
  Ni  Ni553  1  0.46905031  0.65736078  0.35649314  1.0
  Ni  Ni554  1  0.46905031  0.99069411  0.35649314  1.0
  Ni  Ni555  1  0.80238365  0.32402744  0.35649314  1.0
  Ni  Ni556  1  0.80238365  0.65736078  0.35649314  1.0
  Ni  Ni557  1  0.80238365  0.99069411  0.35649314  1.0
  Ni  Ni558  1  0.26550981  0.04631961  0.38430589  1.0
  Ni  Ni559  1  0.26550981  0.37965294  0.38430589  1.0
  Ni  Ni560  1  0.26550981  0.71298628  0.38430589  1.0
  Ni  Ni561  1  0.59884315  0.04631961  0.38430589  1.0
  Ni  Ni562  1  0.59884315  0.37965294  0.38430589  1.0
  Ni  Ni563  1  0.59884315  0.71298628  0.38430589  1.0
  Ni  Ni564  1  0.93217648  0.04631961  0.38430589  1.0
  Ni  Ni565  1  0.93217648  0.37965294  0.38430589  1.0
  Ni  Ni566  1  0.93217648  0.71298628  0.38430589  1.0
  Ni  Ni567  1  0.19143574  0.15743072  0.43986144  1.0
  Ni  Ni568  1  0.19143574  0.49076406  0.43986144  1.0
  Ni  Ni569  1  0.19143574  0.82409739  0.43986144  1.0
  Ni  Ni570  1  0.52476907  0.15743072  0.43986144  1.0
  Ni  Ni571  1  0.52476907  0.49076406  0.43986144  1.0
  Ni  Ni572  1  0.52476907  0.82409739  0.43986144  1.0
  Ni  Ni573  1  0.85810241  0.15743072  0.43986144  1.0
  Ni  Ni574  1  0.85810241  0.49076406  0.43986144  1.0
  Ni  Ni575  1  0.85810241  0.82409739  0.43986144  1.0
