# generated using pymatgen
data_CoNi
_symmetry_space_group_name_H-M   'P 1'
_cell_length_a   11.88869803
_cell_length_b   18.79768210
_cell_length_c   42.03289500
_cell_angle_alpha   116.56505118
_cell_angle_beta   135.00000000
_cell_angle_gamma   71.56505118
_symmetry_Int_Tables_number   1
_chemical_formula_structural   CoNi
_chemical_formula_sum   'Co108 Ni108'
_cell_volume   5940.97733742
_cell_formula_units_Z   108
loop_
 _symmetry_equiv_pos_site_id
 _symmetry_equiv_pos_as_xyz
  1  'x, y, z'
loop_
 _atom_site_type_symbol
 _atom_site_label
 _atom_site_symmetry_multiplicity
 _atom_site_fract_x
 _atom_site_fract_y
 _atom_site_fract_z
 _atom_site_occupancy
  Co  Co0  1  0.16666667  0.08333333  0.00833333  1.0
  Co  Co1  1  0.16666667  0.41666667  0.00833333  1.0
  Co  Co2  1  0.16666667  0.75000000  0.00833333  1.0
  Co  Co3  1  0.50000000  0.08333333  0.00833333  1.0
  Co  Co4  1  0.50000000  0.41666667  0.00833333  1.0
  Co  Co5  1  0.50000000  0.75000000  0.00833333  1.0
  Co  Co6  1  0.83333333  0.08333333  0.00833333  1.0
  Co  Co7  1  0.83333333  0.41666667  0.00833333  1.0
  Co  Co8  1  0.83333333  0.75000000  0.00833333  1.0
  Co  Co9  1  0.16666667  0.25000000  0.04166667  1.0
  Co  Co10  1  0.16666667  0.58333333  0.04166667  1.0
  Co  Co11  1  0.16666667  0.91666667  0.04166667  1.0
  Co  Co12  1  0.50000000  0.25000000  0.04166667  1.0
  Co  Co13  1  0.50000000  0.58333333  0.04166667  1.0
  Co  Co14  1  0.50000000  0.91666667  0.04166667  1.0
  Co  Co15  1  0.83333333  0.25000000  0.04166667  1.0
  Co  Co16  1  0.83333333  0.58333333  0.04166667  1.0
  Co  Co17  1  0.83333333  0.91666667  0.04166667  1.0
  Ni  Ni18  1  0.00000000  0.00000000  0.05833333  1.0
  Ni  Ni19  1  0.00000000  0.33333333  0.05833333  1.0
  Ni  Ni20  1  0.00000000  0.66666667  0.05833333  1.0
  Ni  Ni21  1  0.33333333  0.00000000  0.05833333  1.0
  Ni  Ni22  1  0.33333333  0.33333333  0.05833333  1.0
  Ni  Ni23  1  0.33333333  0.66666667  0.05833333  1.0
  Ni  Ni24  1  0.66666667  0.00000000  0.05833333  1.0
  Ni  Ni25  1  0.66666667  0.33333333  0.05833333  1.0
  Ni  Ni26  1  0.66666667  0.66666667  0.05833333  1.0
  Ni  Ni27  1  0.00000000  0.16666667  0.02500000  1.0
  Ni  Ni28  1  0.00000000  0.50000000  0.02500000  1.0
  Ni  Ni29  1  0.00000000  0.83333333  0.02500000  1.0
  Ni  Ni30  1  0.33333333  0.16666667  0.02500000  1.0
  Ni  Ni31  1  0.33333333  0.50000000  0.02500000  1.0
  Ni  Ni32  1  0.33333333  0.83333333  0.02500000  1.0
  Ni  Ni33  1  0.66666667  0.16666667  0.02500000  1.0
  Ni  Ni34  1  0.66666667  0.50000000  0.02500000  1.0
  Ni  Ni35  1  0.66666667  0.83333333  0.02500000  1.0
  Co  Co36  1  0.16666667  0.08333333  0.07500000  1.0
  Co  Co37  1  0.16666667  0.41666667  0.07500000  1.0
  Co  Co38  1  0.16666667  0.75000000  0.07500000  1.0
  Co  Co39  1  0.50000000  0.08333333  0.07500000  1.0
  Co  Co40  1  0.50000000  0.41666667  0.07500000  1.0
  Co  Co41  1  0.50000000  0.75000000  0.07500000  1.0
  Co  Co42  1  0.83333333  0.08333333  0.07500000  1.0
  Co  Co43  1  0.83333333  0.41666667  0.07500000  1.0
  Co  Co44  1  0.83333333  0.75000000  0.07500000  1.0
  Co  Co45  1  0.16666667  0.25000000  0.10833333  1.0
  Co  Co46  1  0.16666667  0.58333333  0.10833333  1.0
  Co  Co47  1  0.16666667  0.91666667  0.10833333  1.0
  Co  Co48  1  0.50000000  0.25000000  0.10833333  1.0
  Co  Co49  1  0.50000000  0.58333333  0.10833333  1.0
  Co  Co50  1  0.50000000  0.91666667  0.10833333  1.0
  Co  Co51  1  0.83333333  0.25000000  0.10833333  1.0
  Co  Co52  1  0.83333333  0.58333333  0.10833333  1.0
  Co  Co53  1  0.83333333  0.91666667  0.10833333  1.0
  Ni  Ni54  1  0.00000000  0.00000000  0.12500000  1.0
  Ni  Ni55  1  0.00000000  0.33333333  0.12500000  1.0
  Ni  Ni56  1  0.00000000  0.66666667  0.12500000  1.0
  Ni  Ni57  1  0.33333333  0.00000000  0.12500000  1.0
  Ni  Ni58  1  0.33333333  0.33333333  0.12500000  1.0
  Ni  Ni59  1  0.33333333  0.66666667  0.12500000  1.0
  Ni  Ni60  1  0.66666667  0.00000000  0.12500000  1.0
  Ni  Ni61  1  0.66666667  0.33333333  0.12500000  1.0
  Ni  Ni62  1  0.66666667  0.66666667  0.12500000  1.0
  Ni  Ni63  1  0.00000000  0.16666667  0.09166667  1.0
  Ni  Ni64  1  0.00000000  0.50000000  0.09166667  1.0
  Ni  Ni65  1  0.00000000  0.83333333  0.09166667  1.0
  Ni  Ni66  1  0.33333333  0.16666667  0.09166667  1.0
  Ni  Ni67  1  0.33333333  0.50000000  0.09166667  1.0
  Ni  Ni68  1  0.33333333  0.83333333  0.09166667  1.0
  Ni  Ni69  1  0.66666667  0.16666667  0.09166667  1.0
  Ni  Ni70  1  0.66666667  0.50000000  0.09166667  1.0
  Ni  Ni71  1  0.66666667  0.83333333  0.09166667  1.0
  Co  Co72  1  0.16666667  0.08333333  0.14166667  1.0
  Co  Co73  1  0.16666667  0.41666667  0.14166667  1.0
  Co  Co74  1  0.16666667  0.75000000  0.14166667  1.0
  Co  Co75  1  0.50000000  0.08333333  0.14166667  1.0
  Co  Co76  1  0.50000000  0.41666667  0.14166667  1.0
  Co  Co77  1  0.50000000  0.75000000  0.14166667  1.0
  Co  Co78  1  0.83333333  0.08333333  0.14166667  1.0
  Co  Co79  1  0.83333333  0.41666667  0.14166667  1.0
  Co  Co80  1  0.83333333  0.75000000  0.14166667  1.0
  Co  Co81  1  0.16666667  0.25000000  0.17500000  1.0
  Co  Co82  1  0.16666667  0.58333333  0.17500000  1.0
  Co  Co83  1  0.16666667  0.91666667  0.17500000  1.0
  Co  Co84  1  0.50000000  0.25000000  0.17500000  1.0
  Co  Co85  1  0.50000000  0.58333333  0.17500000  1.0
  Co  Co86  1  0.50000000  0.91666667  0.17500000  1.0
  Co  Co87  1  0.83333333  0.25000000  0.17500000  1.0
  Co  Co88  1  0.83333333  0.58333333  0.17500000  1.0
  Co  Co89  1  0.83333333  0.91666667  0.17500000  1.0
  Ni  Ni90  1  0.00000000  0.00000000  0.19166667  1.0
  Ni  Ni91  1  0.00000000  0.33333333  0.19166667  1.0
  Ni  Ni92  1  0.00000000  0.66666667  0.19166667  1.0
  Ni  Ni93  1  0.33333333  0.00000000  0.19166667  1.0
  Ni  Ni94  1  0.33333333  0.33333333  0.19166667  1.0
  Ni  Ni95  1  0.33333333  0.66666667  0.19166667  1.0
  Ni  Ni96  1  0.66666667  0.00000000  0.19166667  1.0
  Ni  Ni97  1  0.66666667  0.33333333  0.19166667  1.0
  Ni  Ni98  1  0.66666667  0.66666667  0.19166667  1.0
  Ni  Ni99  1  0.00000000  0.16666667  0.15833333  1.0
  Ni  Ni100  1  0.00000000  0.50000000  0.15833333  1.0
  Ni  Ni101  1  0.00000000  0.83333333  0.15833333  1.0
  Ni  Ni102  1  0.33333333  0.16666667  0.15833333  1.0
  Ni  Ni103  1  0.33333333  0.50000000  0.15833333  1.0
  Ni  Ni104  1  0.33333333  0.83333333  0.15833333  1.0
  Ni  Ni105  1  0.66666667  0.16666667  0.15833333  1.0
  Ni  Ni106  1  0.66666667  0.50000000  0.15833333  1.0
  Ni  Ni107  1  0.66666667  0.83333333  0.15833333  1.0
  Co  Co108  1  0.16666667  0.08333333  0.20833333  1.0
  Co  Co109  1  0.16666667  0.41666667  0.20833333  1.0
  Co  Co110  1  0.16666667  0.75000000  0.20833333  1.0
  Co  Co111  1  0.50000000  0.08333333  0.20833333  1.0
  Co  Co112  1  0.50000000  0.41666667  0.20833333  1.0
  Co  Co113  1  0.50000000  0.75000000  0.20833333  1.0
  Co  Co114  1  0.83333333  0.08333333  0.20833333  1.0
  Co  Co115  1  0.83333333  0.41666667  0.20833333  1.0
  Co  Co116  1  0.83333333  0.75000000  0.20833333  1.0
  Co  Co117  1  0.16666667  0.25000000  0.24166667  1.0
  Co  Co118  1  0.16666667  0.58333333  0.24166667  1.0
  Co  Co119  1  0.16666667  0.91666667  0.24166667  1.0
  Co  Co120  1  0.50000000  0.25000000  0.24166667  1.0
  Co  Co121  1  0.50000000  0.58333333  0.24166667  1.0
  Co  Co122  1  0.50000000  0.91666667  0.24166667  1.0
  Co  Co123  1  0.83333333  0.25000000  0.24166667  1.0
  Co  Co124  1  0.83333333  0.58333333  0.24166667  1.0
  Co  Co125  1  0.83333333  0.91666667  0.24166667  1.0
  Ni  Ni126  1  0.00000000  0.00000000  0.25833333  1.0
  Ni  Ni127  1  0.00000000  0.33333333  0.25833333  1.0
  Ni  Ni128  1  0.00000000  0.66666667  0.25833333  1.0
  Ni  Ni129  1  0.33333333  0.00000000  0.25833333  1.0
  Ni  Ni130  1  0.33333333  0.33333333  0.25833333  1.0
  Ni  Ni131  1  0.33333333  0.66666667  0.25833333  1.0
  Ni  Ni132  1  0.66666667  0.00000000  0.25833333  1.0
  Ni  Ni133  1  0.66666667  0.33333333  0.25833333  1.0
  Ni  Ni134  1  0.66666667  0.66666667  0.25833333  1.0
  Ni  Ni135  1  0.00000000  0.16666667  0.22500000  1.0
  Ni  Ni136  1  0.00000000  0.50000000  0.22500000  1.0
  Ni  Ni137  1  0.00000000  0.83333333  0.22500000  1.0
  Ni  Ni138  1  0.33333333  0.16666667  0.22500000  1.0
  Ni  Ni139  1  0.33333333  0.50000000  0.22500000  1.0
  Ni  Ni140  1  0.33333333  0.83333333  0.22500000  1.0
  Ni  Ni141  1  0.66666667  0.16666667  0.22500000  1.0
  Ni  Ni142  1  0.66666667  0.50000000  0.22500000  1.0
  Ni  Ni143  1  0.66666667  0.83333333  0.22500000  1.0
  Co  Co144  1  0.16666667  0.08333333  0.27500000  1.0
  Co  Co145  1  0.16666667  0.41666667  0.27500000  1.0
  Co  Co146  1  0.16666667  0.75000000  0.27500000  1.0
  Co  Co147  1  0.50000000  0.08333333  0.27500000  1.0
  Co  Co148  1  0.50000000  0.41666667  0.27500000  1.0
  Co  Co149  1  0.50000000  0.75000000  0.27500000  1.0
  Co  Co150  1  0.83333333  0.08333333  0.27500000  1.0
  Co  Co151  1  0.83333333  0.41666667  0.27500000  1.0
  Co  Co152  1  0.83333333  0.75000000  0.27500000  1.0
  Co  Co153  1  0.16666667  0.25000000  0.30833333  1.0
  Co  Co154  1  0.16666667  0.58333333  0.30833333  1.0
  Co  Co155  1  0.16666667  0.91666667  0.30833333  1.0
  Co  Co156  1  0.50000000  0.25000000  0.30833333  1.0
  Co  Co157  1  0.50000000  0.58333333  0.30833333  1.0
  Co  Co158  1  0.50000000  0.91666667  0.30833333  1.0
  Co  Co159  1  0.83333333  0.25000000  0.30833333  1.0
  Co  Co160  1  0.83333333  0.58333333  0.30833333  1.0
  Co  Co161  1  0.83333333  0.91666667  0.30833333  1.0
  Ni  Ni162  1  0.00000000  0.00000000  0.32500000  1.0
  Ni  Ni163  1  0.00000000  0.33333333  0.32500000  1.0
  Ni  Ni164  1  0.00000000  0.66666667  0.32500000  1.0
  Ni  Ni165  1  0.33333333  0.00000000  0.32500000  1.0
  Ni  Ni166  1  0.33333333  0.33333333  0.32500000  1.0
  Ni  Ni167  1  0.33333333  0.66666667  0.32500000  1.0
  Ni  Ni168  1  0.66666667  0.00000000  0.32500000  1.0
  Ni  Ni169  1  0.66666667  0.33333333  0.32500000  1.0
  Ni  Ni170  1  0.66666667  0.66666667  0.32500000  1.0
  Ni  Ni171  1  0.00000000  0.16666667  0.29166667  1.0
  Ni  Ni172  1  0.00000000  0.50000000  0.29166667  1.0
  Ni  Ni173  1  0.00000000  0.83333333  0.29166667  1.0
  Ni  Ni174  1  0.33333333  0.16666667  0.29166667  1.0
  Ni  Ni175  1  0.33333333  0.50000000  0.29166667  1.0
  Ni  Ni176  1  0.33333333  0.83333333  0.29166667  1.0
  Ni  Ni177  1  0.66666667  0.16666667  0.29166667  1.0
  Ni  Ni178  1  0.66666667  0.50000000  0.29166667  1.0
  Ni  Ni179  1  0.66666667  0.83333333  0.29166667  1.0
  Co  Co180  1  0.16666667  0.08333333  0.34166667  1.0
  Co  Co181  1  0.16666667  0.41666667  0.34166667  1.0
  Co  Co182  1  0.16666667  0.75000000  0.34166667  1.0
  Co  Co183  1  0.50000000  0.08333333  0.34166667  1.0
  Co  Co184  1  0.50000000  0.41666667  0.34166667  1.0
  Co  Co185  1  0.50000000  0.75000000  0.34166667  1.0
  Co  Co186  1  0.83333333  0.08333333  0.34166667  1.0
  Co  Co187  1  0.83333333  0.41666667  0.34166667  1.0
  Co  Co188  1  0.83333333  0.75000000  0.34166667  1.0
  Co  Co189  1  0.16666667  0.25000000  0.37500000  1.0
  Co  Co190  1  0.16666667  0.58333333  0.37500000  1.0
  Co  Co191  1  0.16666667  0.91666667  0.37500000  1.0
  Co  Co192  1  0.50000000  0.25000000  0.37500000  1.0
  Co  Co193  1  0.50000000  0.58333333  0.37500000  1.0
  Co  Co194  1  0.50000000  0.91666667  0.37500000  1.0
  Co  Co195  1  0.83333333  0.25000000  0.37500000  1.0
  Co  Co196  1  0.83333333  0.58333333  0.37500000  1.0
  Co  Co197  1  0.83333333  0.91666667  0.37500000  1.0
  Ni  Ni198  1  0.00000000  0.00000000  0.39166667  1.0
  Ni  Ni199  1  0.00000000  0.33333333  0.39166667  1.0
  Ni  Ni200  1  0.00000000  0.66666667  0.39166667  1.0
  Ni  Ni201  1  0.33333333  0.00000000  0.39166667  1.0
  Ni  Ni202  1  0.33333333  0.33333333  0.39166667  1.0
  Ni  Ni203  1  0.33333333  0.66666667  0.39166667  1.0
  Ni  Ni204  1  0.66666667  0.00000000  0.39166667  1.0
  Ni  Ni205  1  0.66666667  0.33333333  0.39166667  1.0
  Ni  Ni206  1  0.66666667  0.66666667  0.39166667  1.0
  Ni  Ni207  1  0.00000000  0.16666667  0.35833333  1.0
  Ni  Ni208  1  0.00000000  0.50000000  0.35833333  1.0
  Ni  Ni209  1  0.00000000  0.83333333  0.35833333  1.0
  Ni  Ni210  1  0.33333333  0.16666667  0.35833333  1.0
  Ni  Ni211  1  0.33333333  0.50000000  0.35833333  1.0
  Ni  Ni212  1  0.33333333  0.83333333  0.35833333  1.0
  Ni  Ni213  1  0.66666667  0.16666667  0.35833333  1.0
  Ni  Ni214  1  0.66666667  0.50000000  0.35833333  1.0
  Ni  Ni215  1  0.66666667  0.83333333  0.35833333  1.0
