# generated using pymatgen
data_CoNi3
_symmetry_space_group_name_H-M   'P 1'
_cell_length_a   14.97255651
_cell_length_b   32.33751243
_cell_length_c   32.55135200
_cell_angle_alpha   67.82233861
_cell_angle_beta   90.00000000
_cell_angle_gamma   62.41856169
_symmetry_Int_Tables_number   1
_chemical_formula_structural   CoNi3
_chemical_formula_sum   'Co108 Ni324'
_cell_volume   12639.25804528
_cell_formula_units_Z   108
loop_
 _symmetry_equiv_pos_site_id
 _symmetry_equiv_pos_as_xyz
  1  'x, y, z'
loop_
 _atom_site_type_symbol
 _atom_site_label
 _atom_site_symmetry_multiplicity
 _atom_site_fract_x
 _atom_site_fract_y
 _atom_site_fract_z
 _atom_site_occupancy
  Co  Co0  1  0.11111111  0.05555556  0.11981134  1.0
  Co  Co1  1  0.11111111  0.38888889  0.11981134  1.0
  Co  Co2  1  0.11111111  0.72222222  0.11981134  1.0
  Co  Co3  1  0.44444444  0.05555556  0.11981134  1.0
  Co  Co4  1  0.44444444  0.38888889  0.11981134  1.0
  Co  Co5  1  0.44444444  0.72222222  0.11981134  1.0
  Co  Co6  1  0.77777778  0.05555556  0.11981134  1.0
  Co  Co7  1  0.77777778  0.38888889  0.11981134  1.0
  Co  Co8  1  0.77777778  0.72222222  0.11981134  1.0
  Co  Co9  1  0.11111111  0.22222222  0.05731134  1.0
  Co  Co10  1  0.11111111  0.55555556  0.05731134  1.0
  Co  Co11  1  0.11111111  0.88888889  0.05731134  1.0
  Co  Co12  1  0.44444444  0.22222222  0.05731134  1.0
  Co  Co13  1  0.44444444  0.55555556  0.05731134  1.0
  Co  Co14  1  0.44444444  0.88888889  0.05731134  1.0
  Co  Co15  1  0.77777778  0.22222222  0.05731134  1.0
  Co  Co16  1  0.77777778  0.55555556  0.05731134  1.0
  Co  Co17  1  0.77777778  0.88888889  0.05731134  1.0
  Co  Co18  1  0.22222222  0.11111111  0.03647801  1.0
  Co  Co19  1  0.22222222  0.44444444  0.03647801  1.0
  Co  Co20  1  0.22222222  0.77777778  0.03647801  1.0
  Co  Co21  1  0.55555556  0.11111111  0.03647801  1.0
  Co  Co22  1  0.55555556  0.44444444  0.03647801  1.0
  Co  Co23  1  0.55555556  0.77777778  0.03647801  1.0
  Co  Co24  1  0.88888889  0.11111111  0.03647801  1.0
  Co  Co25  1  0.88888889  0.44444444  0.03647801  1.0
  Co  Co26  1  0.88888889  0.77777778  0.03647801  1.0
  Co  Co27  1  0.22222222  0.27777778  0.09897801  1.0
  Co  Co28  1  0.22222222  0.61111111  0.09897801  1.0
  Co  Co29  1  0.22222222  0.94444444  0.09897801  1.0
  Co  Co30  1  0.55555556  0.27777778  0.09897801  1.0
  Co  Co31  1  0.55555556  0.61111111  0.09897801  1.0
  Co  Co32  1  0.55555556  0.94444444  0.09897801  1.0
  Co  Co33  1  0.88888889  0.27777778  0.09897801  1.0
  Co  Co34  1  0.88888889  0.61111111  0.09897801  1.0
  Co  Co35  1  0.88888889  0.94444444  0.09897801  1.0
  Ni  Ni36  1  0.05562550  0.11104117  0.03650423  1.0
  Ni  Ni37  1  0.05562550  0.44437450  0.03650423  1.0
  Ni  Ni38  1  0.05562550  0.77770783  0.03650423  1.0
  Ni  Ni39  1  0.38895883  0.11104117  0.03650423  1.0
  Ni  Ni40  1  0.38895883  0.44437450  0.03650423  1.0
  Ni  Ni41  1  0.38895883  0.77770783  0.03650423  1.0
  Ni  Ni42  1  0.72229217  0.11104117  0.03650423  1.0
  Ni  Ni43  1  0.72229217  0.44437450  0.03650423  1.0
  Ni  Ni44  1  0.72229217  0.77770783  0.03650423  1.0
  Ni  Ni45  1  0.05562550  0.27770783  0.09900423  1.0
  Ni  Ni46  1  0.05562550  0.61104117  0.09900423  1.0
  Ni  Ni47  1  0.05562550  0.94437450  0.09900423  1.0
  Ni  Ni48  1  0.38895883  0.27770783  0.09900423  1.0
  Ni  Ni49  1  0.38895883  0.61104117  0.09900423  1.0
  Ni  Ni50  1  0.38895883  0.94437450  0.09900423  1.0
  Ni  Ni51  1  0.72229217  0.27770783  0.09900423  1.0
  Ni  Ni52  1  0.72229217  0.61104117  0.09900423  1.0
  Ni  Ni53  1  0.72229217  0.94437450  0.09900423  1.0
  Ni  Ni54  1  0.05562550  0.02781275  0.06771489  1.0
  Ni  Ni55  1  0.05562550  0.36114608  0.06771489  1.0
  Ni  Ni56  1  0.05562550  0.69447942  0.06771489  1.0
  Ni  Ni57  1  0.38895883  0.02781275  0.06771489  1.0
  Ni  Ni58  1  0.38895883  0.36114608  0.06771489  1.0
  Ni  Ni59  1  0.38895883  0.69447942  0.06771489  1.0
  Ni  Ni60  1  0.72229217  0.02781275  0.06771489  1.0
  Ni  Ni61  1  0.72229217  0.36114608  0.06771489  1.0
  Ni  Ni62  1  0.72229217  0.69447942  0.06771489  1.0
  Ni  Ni63  1  0.05562550  0.19447942  0.00521489  1.0
  Ni  Ni64  1  0.05562550  0.52781275  0.00521489  1.0
  Ni  Ni65  1  0.05562550  0.86114608  0.00521489  1.0
  Ni  Ni66  1  0.38895883  0.19447942  0.00521489  1.0
  Ni  Ni67  1  0.38895883  0.52781275  0.00521489  1.0
  Ni  Ni68  1  0.38895883  0.86114608  0.00521489  1.0
  Ni  Ni69  1  0.72229217  0.19447942  0.00521489  1.0
  Ni  Ni70  1  0.72229217  0.52781275  0.00521489  1.0
  Ni  Ni71  1  0.72229217  0.86114608  0.00521489  1.0
  Ni  Ni72  1  0.22208233  0.02781275  0.06771489  1.0
  Ni  Ni73  1  0.22208233  0.36114608  0.06771489  1.0
  Ni  Ni74  1  0.22208233  0.69447942  0.06771489  1.0
  Ni  Ni75  1  0.55541567  0.02781275  0.06771489  1.0
  Ni  Ni76  1  0.55541567  0.36114608  0.06771489  1.0
  Ni  Ni77  1  0.55541567  0.69447942  0.06771489  1.0
  Ni  Ni78  1  0.88874900  0.02781275  0.06771489  1.0
  Ni  Ni79  1  0.88874900  0.36114608  0.06771489  1.0
  Ni  Ni80  1  0.88874900  0.69447942  0.06771489  1.0
  Ni  Ni81  1  0.22208233  0.19447942  0.00521489  1.0
  Ni  Ni82  1  0.22208233  0.52781275  0.00521489  1.0
  Ni  Ni83  1  0.22208233  0.86114608  0.00521489  1.0
  Ni  Ni84  1  0.55541567  0.19447942  0.00521489  1.0
  Ni  Ni85  1  0.55541567  0.52781275  0.00521489  1.0
  Ni  Ni86  1  0.55541567  0.86114608  0.00521489  1.0
  Ni  Ni87  1  0.88874900  0.19447942  0.00521489  1.0
  Ni  Ni88  1  0.88874900  0.52781275  0.00521489  1.0
  Ni  Ni89  1  0.88874900  0.86114608  0.00521489  1.0
  Ni  Ni90  1  0.27770783  0.05562550  0.11978511  1.0
  Ni  Ni91  1  0.27770783  0.38895883  0.11978511  1.0
  Ni  Ni92  1  0.27770783  0.72229217  0.11978511  1.0
  Ni  Ni93  1  0.61104117  0.05562550  0.11978511  1.0
  Ni  Ni94  1  0.61104117  0.38895883  0.11978511  1.0
  Ni  Ni95  1  0.61104117  0.72229217  0.11978511  1.0
  Ni  Ni96  1  0.94437450  0.05562550  0.11978511  1.0
  Ni  Ni97  1  0.94437450  0.38895883  0.11978511  1.0
  Ni  Ni98  1  0.94437450  0.72229217  0.11978511  1.0
  Ni  Ni99  1  0.27770783  0.22229217  0.05728511  1.0
  Ni  Ni100  1  0.27770783  0.55562550  0.05728511  1.0
  Ni  Ni101  1  0.27770783  0.88895883  0.05728511  1.0
  Ni  Ni102  1  0.61104117  0.22229217  0.05728511  1.0
  Ni  Ni103  1  0.61104117  0.55562550  0.05728511  1.0
  Ni  Ni104  1  0.61104117  0.88895883  0.05728511  1.0
  Ni  Ni105  1  0.94437450  0.22229217  0.05728511  1.0
  Ni  Ni106  1  0.94437450  0.55562550  0.05728511  1.0
  Ni  Ni107  1  0.94437450  0.88895883  0.05728511  1.0
  Ni  Ni108  1  0.27770783  0.13885392  0.08857445  1.0
  Ni  Ni109  1  0.27770783  0.47218725  0.08857445  1.0
  Ni  Ni110  1  0.27770783  0.80552058  0.08857445  1.0
  Ni  Ni111  1  0.61104117  0.13885392  0.08857445  1.0
  Ni  Ni112  1  0.61104117  0.47218725  0.08857445  1.0
  Ni  Ni113  1  0.61104117  0.80552058  0.08857445  1.0
  Ni  Ni114  1  0.94437450  0.13885392  0.08857445  1.0
  Ni  Ni115  1  0.94437450  0.47218725  0.08857445  1.0
  Ni  Ni116  1  0.94437450  0.80552058  0.08857445  1.0
  Ni  Ni117  1  0.27770783  0.30552058  0.02607445  1.0
  Ni  Ni118  1  0.27770783  0.63885392  0.02607445  1.0
  Ni  Ni119  1  0.27770783  0.97218725  0.02607445  1.0
  Ni  Ni120  1  0.61104117  0.30552058  0.02607445  1.0
  Ni  Ni121  1  0.61104117  0.63885392  0.02607445  1.0
  Ni  Ni122  1  0.61104117  0.97218725  0.02607445  1.0
  Ni  Ni123  1  0.94437450  0.30552058  0.02607445  1.0
  Ni  Ni124  1  0.94437450  0.63885392  0.02607445  1.0
  Ni  Ni125  1  0.94437450  0.97218725  0.02607445  1.0
  Ni  Ni126  1  0.11125100  0.13885392  0.08857445  1.0
  Ni  Ni127  1  0.11125100  0.47218725  0.08857445  1.0
  Ni  Ni128  1  0.11125100  0.80552058  0.08857445  1.0
  Ni  Ni129  1  0.44458433  0.13885392  0.08857445  1.0
  Ni  Ni130  1  0.44458433  0.47218725  0.08857445  1.0
  Ni  Ni131  1  0.44458433  0.80552058  0.08857445  1.0
  Ni  Ni132  1  0.77791767  0.13885392  0.08857445  1.0
  Ni  Ni133  1  0.77791767  0.47218725  0.08857445  1.0
  Ni  Ni134  1  0.77791767  0.80552058  0.08857445  1.0
  Ni  Ni135  1  0.11125100  0.30552058  0.02607445  1.0
  Ni  Ni136  1  0.11125100  0.63885392  0.02607445  1.0
  Ni  Ni137  1  0.11125100  0.97218725  0.02607445  1.0
  Ni  Ni138  1  0.44458433  0.30552058  0.02607445  1.0
  Ni  Ni139  1  0.44458433  0.63885392  0.02607445  1.0
  Ni  Ni140  1  0.44458433  0.97218725  0.02607445  1.0
  Ni  Ni141  1  0.77791767  0.30552058  0.02607445  1.0
  Ni  Ni142  1  0.77791767  0.63885392  0.02607445  1.0
  Ni  Ni143  1  0.77791767  0.97218725  0.02607445  1.0
  Co  Co144  1  0.11111111  0.05555556  0.24481134  1.0
  Co  Co145  1  0.11111111  0.38888889  0.24481134  1.0
  Co  Co146  1  0.11111111  0.72222222  0.24481134  1.0
  Co  Co147  1  0.44444444  0.05555556  0.24481134  1.0
  Co  Co148  1  0.44444444  0.38888889  0.24481134  1.0
  Co  Co149  1  0.44444444  0.72222222  0.24481134  1.0
  Co  Co150  1  0.77777778  0.05555556  0.24481134  1.0
  Co  Co151  1  0.77777778  0.38888889  0.24481134  1.0
  Co  Co152  1  0.77777778  0.72222222  0.24481134  1.0
  Co  Co153  1  0.11111111  0.22222222  0.18231134  1.0
  Co  Co154  1  0.11111111  0.55555556  0.18231134  1.0
  Co  Co155  1  0.11111111  0.88888889  0.18231134  1.0
  Co  Co156  1  0.44444444  0.22222222  0.18231134  1.0
  Co  Co157  1  0.44444444  0.55555556  0.18231134  1.0
  Co  Co158  1  0.44444444  0.88888889  0.18231134  1.0
  Co  Co159  1  0.77777778  0.22222222  0.18231134  1.0
  Co  Co160  1  0.77777778  0.55555556  0.18231134  1.0
  Co  Co161  1  0.77777778  0.88888889  0.18231134  1.0
  Co  Co162  1  0.22222222  0.11111111  0.16147801  1.0
  Co  Co163  1  0.22222222  0.44444444  0.16147801  1.0
  Co  Co164  1  0.22222222  0.77777778  0.16147801  1.0
  Co  Co165  1  0.55555556  0.11111111  0.16147801  1.0
  Co  Co166  1  0.55555556  0.44444444  0.16147801  1.0
  Co  Co167  1  0.55555556  0.77777778  0.16147801  1.0
  Co  Co168  1  0.88888889  0.11111111  0.16147801  1.0
  Co  Co169  1  0.88888889  0.44444444  0.16147801  1.0
  Co  Co170  1  0.88888889  0.77777778  0.16147801  1.0
  Co  Co171  1  0.22222222  0.27777778  0.22397801  1.0
  Co  Co172  1  0.22222222  0.61111111  0.22397801  1.0
  Co  Co173  1  0.22222222  0.94444444  0.22397801  1.0
  Co  Co174  1  0.55555556  0.27777778  0.22397801  1.0
  Co  Co175  1  0.55555556  0.61111111  0.22397801  1.0
  Co  Co176  1  0.55555556  0.94444444  0.22397801  1.0
  Co  Co177  1  0.88888889  0.27777778  0.22397801  1.0
  Co  Co178  1  0.88888889  0.61111111  0.22397801  1.0
  Co  Co179  1  0.88888889  0.94444444  0.22397801  1.0
  Ni  Ni180  1  0.05562550  0.11104117  0.16150423  1.0
  Ni  Ni181  1  0.05562550  0.44437450  0.16150423  1.0
  Ni  Ni182  1  0.05562550  0.77770783  0.16150423  1.0
  Ni  Ni183  1  0.38895883  0.11104117  0.16150423  1.0
  Ni  Ni184  1  0.38895883  0.44437450  0.16150423  1.0
  Ni  Ni185  1  0.38895883  0.77770783  0.16150423  1.0
  Ni  Ni186  1  0.72229217  0.11104117  0.16150423  1.0
  Ni  Ni187  1  0.72229217  0.44437450  0.16150423  1.0
  Ni  Ni188  1  0.72229217  0.77770783  0.16150423  1.0
  Ni  Ni189  1  0.05562550  0.27770783  0.22400423  1.0
  Ni  Ni190  1  0.05562550  0.61104117  0.22400423  1.0
  Ni  Ni191  1  0.05562550  0.94437450  0.22400423  1.0
  Ni  Ni192  1  0.38895883  0.27770783  0.22400423  1.0
  Ni  Ni193  1  0.38895883  0.61104117  0.22400423  1.0
  Ni  Ni194  1  0.38895883  0.94437450  0.22400423  1.0
  Ni  Ni195  1  0.72229217  0.27770783  0.22400423  1.0
  Ni  Ni196  1  0.72229217  0.61104117  0.22400423  1.0
  Ni  Ni197  1  0.72229217  0.94437450  0.22400423  1.0
  Ni  Ni198  1  0.05562550  0.02781275  0.19271489  1.0
  Ni  Ni199  1  0.05562550  0.36114608  0.19271489  1.0
  Ni  Ni200  1  0.05562550  0.69447942  0.19271489  1.0
  Ni  Ni201  1  0.38895883  0.02781275  0.19271489  1.0
  Ni  Ni202  1  0.38895883  0.36114608  0.19271489  1.0
  Ni  Ni203  1  0.38895883  0.69447942  0.19271489  1.0
  Ni  Ni204  1  0.72229217  0.02781275  0.19271489  1.0
  Ni  Ni205  1  0.72229217  0.36114608  0.19271489  1.0
  Ni  Ni206  1  0.72229217  0.69447942  0.19271489  1.0
  Ni  Ni207  1  0.05562550  0.19447942  0.13021489  1.0
  Ni  Ni208  1  0.05562550  0.52781275  0.13021489  1.0
  Ni  Ni209  1  0.05562550  0.86114608  0.13021489  1.0
  Ni  Ni210  1  0.38895883  0.19447942  0.13021489  1.0
  Ni  Ni211  1  0.38895883  0.52781275  0.13021489  1.0
  Ni  Ni212  1  0.38895883  0.86114608  0.13021489  1.0
  Ni  Ni213  1  0.72229217  0.19447942  0.13021489  1.0
  Ni  Ni214  1  0.72229217  0.52781275  0.13021489  1.0
  Ni  Ni215  1  0.72229217  0.86114608  0.13021489  1.0
  Ni  Ni216  1  0.22208233  0.02781275  0.19271489  1.0
  Ni  Ni217  1  0.22208233  0.36114608  0.19271489  1.0
  Ni  Ni218  1  0.22208233  0.69447942  0.19271489  1.0
  Ni  Ni219  1  0.55541567  0.02781275  0.19271489  1.0
  Ni  Ni220  1  0.55541567  0.36114608  0.19271489  1.0
  Ni  Ni221  1  0.55541567  0.69447942  0.19271489  1.0
  Ni  Ni222  1  0.88874900  0.02781275  0.19271489  1.0
  Ni  Ni223  1  0.88874900  0.36114608  0.19271489  1.0
  Ni  Ni224  1  0.88874900  0.69447942  0.19271489  1.0
  Ni  Ni225  1  0.22208233  0.19447942  0.13021489  1.0
  Ni  Ni226  1  0.22208233  0.52781275  0.13021489  1.0
  Ni  Ni227  1  0.22208233  0.86114608  0.13021489  1.0
  Ni  Ni228  1  0.55541567  0.19447942  0.13021489  1.0
  Ni  Ni229  1  0.55541567  0.52781275  0.13021489  1.0
  Ni  Ni230  1  0.55541567  0.86114608  0.13021489  1.0
  Ni  Ni231  1  0.88874900  0.19447942  0.13021489  1.0
  Ni  Ni232  1  0.88874900  0.52781275  0.13021489  1.0
  Ni  Ni233  1  0.88874900  0.86114608  0.13021489  1.0
  Ni  Ni234  1  0.27770783  0.05562550  0.24478511  1.0
  Ni  Ni235  1  0.27770783  0.38895883  0.24478511  1.0
  Ni  Ni236  1  0.27770783  0.72229217  0.24478511  1.0
  Ni  Ni237  1  0.61104117  0.05562550  0.24478511  1.0
  Ni  Ni238  1  0.61104117  0.38895883  0.24478511  1.0
  Ni  Ni239  1  0.61104117  0.72229217  0.24478511  1.0
  Ni  Ni240  1  0.94437450  0.05562550  0.24478511  1.0
  Ni  Ni241  1  0.94437450  0.38895883  0.24478511  1.0
  Ni  Ni242  1  0.94437450  0.72229217  0.24478511  1.0
  Ni  Ni243  1  0.27770783  0.22229217  0.18228511  1.0
  Ni  Ni244  1  0.27770783  0.55562550  0.18228511  1.0
  Ni  Ni245  1  0.27770783  0.88895883  0.18228511  1.0
  Ni  Ni246  1  0.61104117  0.22229217  0.18228511  1.0
  Ni  Ni247  1  0.61104117  0.55562550  0.18228511  1.0
  Ni  Ni248  1  0.61104117  0.88895883  0.18228511  1.0
  Ni  Ni249  1  0.94437450  0.22229217  0.18228511  1.0
  Ni  Ni250  1  0.94437450  0.55562550  0.18228511  1.0
  Ni  Ni251  1  0.94437450  0.88895883  0.18228511  1.0
  Ni  Ni252  1  0.27770783  0.13885392  0.21357445  1.0
  Ni  Ni253  1  0.27770783  0.47218725  0.21357445  1.0
  Ni  Ni254  1  0.27770783  0.80552058  0.21357445  1.0
  Ni  Ni255  1  0.61104117  0.13885392  0.21357445  1.0
  Ni  Ni256  1  0.61104117  0.47218725  0.21357445  1.0
  Ni  Ni257  1  0.61104117  0.80552058  0.21357445  1.0
  Ni  Ni258  1  0.94437450  0.13885392  0.21357445  1.0
  Ni  Ni259  1  0.94437450  0.47218725  0.21357445  1.0
  Ni  Ni260  1  0.94437450  0.80552058  0.21357445  1.0
  Ni  Ni261  1  0.27770783  0.30552058  0.15107445  1.0
  Ni  Ni262  1  0.27770783  0.63885392  0.15107445  1.0
  Ni  Ni263  1  0.27770783  0.97218725  0.15107445  1.0
  Ni  Ni264  1  0.61104117  0.30552058  0.15107445  1.0
  Ni  Ni265  1  0.61104117  0.63885392  0.15107445  1.0
  Ni  Ni266  1  0.61104117  0.97218725  0.15107445  1.0
  Ni  Ni267  1  0.94437450  0.30552058  0.15107445  1.0
  Ni  Ni268  1  0.94437450  0.63885392  0.15107445  1.0
  Ni  Ni269  1  0.94437450  0.97218725  0.15107445  1.0
  Ni  Ni270  1  0.11125100  0.13885392  0.21357445  1.0
  Ni  Ni271  1  0.11125100  0.47218725  0.21357445  1.0
  Ni  Ni272  1  0.11125100  0.80552058  0.21357445  1.0
  Ni  Ni273  1  0.44458433  0.13885392  0.21357445  1.0
  Ni  Ni274  1  0.44458433  0.47218725  0.21357445  1.0
  Ni  Ni275  1  0.44458433  0.80552058  0.21357445  1.0
  Ni  Ni276  1  0.77791767  0.13885392  0.21357445  1.0
  Ni  Ni277  1  0.77791767  0.47218725  0.21357445  1.0
  Ni  Ni278  1  0.77791767  0.80552058  0.21357445  1.0
  Ni  Ni279  1  0.11125100  0.30552058  0.15107445  1.0
  Ni  Ni280  1  0.11125100  0.63885392  0.15107445  1.0
  Ni  Ni281  1  0.11125100  0.97218725  0.15107445  1.0
  Ni  Ni282  1  0.44458433  0.30552058  0.15107445  1.0
  Ni  Ni283  1  0.44458433  0.63885392  0.15107445  1.0
  Ni  Ni284  1  0.44458433  0.97218725  0.15107445  1.0
  Ni  Ni285  1  0.77791767  0.30552058  0.15107445  1.0
  Ni  Ni286  1  0.77791767  0.63885392  0.15107445  1.0
  Ni  Ni287  1  0.77791767  0.97218725  0.15107445  1.0
  Co  Co288  1  0.11111111  0.05555556  0.36981134  1.0
  Co  Co289  1  0.11111111  0.38888889  0.36981134  1.0
  Co  Co290  1  0.11111111  0.72222222  0.36981134  1.0
  Co  Co291  1  0.44444444  0.05555556  0.36981134  1.0
  Co  Co292  1  0.44444444  0.38888889  0.36981134  1.0
  Co  Co293  1  0.44444444  0.72222222  0.36981134  1.0
  Co  Co294  1  0.77777778  0.05555556  0.36981134  1.0
  Co  Co295  1  0.77777778  0.38888889  0.36981134  1.0
  Co  Co296  1  0.77777778  0.72222222  0.36981134  1.0
  Co  Co297  1  0.11111111  0.22222222  0.30731134  1.0
  Co  Co298  1  0.11111111  0.55555556  0.30731134  1.0
  Co  Co299  1  0.11111111  0.88888889  0.30731134  1.0
  Co  Co300  1  0.44444444  0.22222222  0.30731134  1.0
  Co  Co301  1  0.44444444  0.55555556  0.30731134  1.0
  Co  Co302  1  0.44444444  0.88888889  0.30731134  1.0
  Co  Co303  1  0.77777778  0.22222222  0.30731134  1.0
  Co  Co304  1  0.77777778  0.55555556  0.30731134  1.0
  Co  Co305  1  0.77777778  0.88888889  0.30731134  1.0
  Co  Co306  1  0.22222222  0.11111111  0.28647801  1.0
  Co  Co307  1  0.22222222  0.44444444  0.28647801  1.0
  Co  Co308  1  0.22222222  0.77777778  0.28647801  1.0
  Co  Co309  1  0.55555556  0.11111111  0.28647801  1.0
  Co  Co310  1  0.55555556  0.44444444  0.28647801  1.0
  Co  Co311  1  0.55555556  0.77777778  0.28647801  1.0
  Co  Co312  1  0.88888889  0.11111111  0.28647801  1.0
  Co  Co313  1  0.88888889  0.44444444  0.28647801  1.0
  Co  Co314  1  0.88888889  0.77777778  0.28647801  1.0
  Co  Co315  1  0.22222222  0.27777778  0.34897801  1.0
  Co  Co316  1  0.22222222  0.61111111  0.34897801  1.0
  Co  Co317  1  0.22222222  0.94444444  0.34897801  1.0
  Co  Co318  1  0.55555556  0.27777778  0.34897801  1.0
  Co  Co319  1  0.55555556  0.61111111  0.34897801  1.0
  Co  Co320  1  0.55555556  0.94444444  0.34897801  1.0
  Co  Co321  1  0.88888889  0.27777778  0.34897801  1.0
  Co  Co322  1  0.88888889  0.61111111  0.34897801  1.0
  Co  Co323  1  0.88888889  0.94444444  0.34897801  1.0
  Ni  Ni324  1  0.05562550  0.11104117  0.28650423  1.0
  Ni  Ni325  1  0.05562550  0.44437450  0.28650423  1.0
  Ni  Ni326  1  0.05562550  0.77770783  0.28650423  1.0
  Ni  Ni327  1  0.38895883  0.11104117  0.28650423  1.0
  Ni  Ni328  1  0.38895883  0.44437450  0.28650423  1.0
  Ni  Ni329  1  0.38895883  0.77770783  0.28650423  1.0
  Ni  Ni330  1  0.72229217  0.11104117  0.28650423  1.0
  Ni  Ni331  1  0.72229217  0.44437450  0.28650423  1.0
  Ni  Ni332  1  0.72229217  0.77770783  0.28650423  1.0
  Ni  Ni333  1  0.05562550  0.27770783  0.34900423  1.0
  Ni  Ni334  1  0.05562550  0.61104117  0.34900423  1.0
  Ni  Ni335  1  0.05562550  0.94437450  0.34900423  1.0
  Ni  Ni336  1  0.38895883  0.27770783  0.34900423  1.0
  Ni  Ni337  1  0.38895883  0.61104117  0.34900423  1.0
  Ni  Ni338  1  0.38895883  0.94437450  0.34900423  1.0
  Ni  Ni339  1  0.72229217  0.27770783  0.34900423  1.0
  Ni  Ni340  1  0.72229217  0.61104117  0.34900423  1.0
  Ni  Ni341  1  0.72229217  0.94437450  0.34900423  1.0
  Ni  Ni342  1  0.05562550  0.02781275  0.31771489  1.0
  Ni  Ni343  1  0.05562550  0.36114608  0.31771489  1.0
  Ni  Ni344  1  0.05562550  0.69447942  0.31771489  1.0
  Ni  Ni345  1  0.38895883  0.02781275  0.31771489  1.0
  Ni  Ni346  1  0.38895883  0.36114608  0.31771489  1.0
  Ni  Ni347  1  0.38895883  0.69447942  0.31771489  1.0
  Ni  Ni348  1  0.72229217  0.02781275  0.31771489  1.0
  Ni  Ni349  1  0.72229217  0.36114608  0.31771489  1.0
  Ni  Ni350  1  0.72229217  0.69447942  0.31771489  1.0
  Ni  Ni351  1  0.05562550  0.19447942  0.25521489  1.0
  Ni  Ni352  1  0.05562550  0.52781275  0.25521489  1.0
  Ni  Ni353  1  0.05562550  0.86114608  0.25521489  1.0
  Ni  Ni354  1  0.38895883  0.19447942  0.25521489  1.0
  Ni  Ni355  1  0.38895883  0.52781275  0.25521489  1.0
  Ni  Ni356  1  0.38895883  0.86114608  0.25521489  1.0
  Ni  Ni357  1  0.72229217  0.19447942  0.25521489  1.0
  Ni  Ni358  1  0.72229217  0.52781275  0.25521489  1.0
  Ni  Ni359  1  0.72229217  0.86114608  0.25521489  1.0
  Ni  Ni360  1  0.22208233  0.02781275  0.31771489  1.0
  Ni  Ni361  1  0.22208233  0.36114608  0.31771489  1.0
  Ni  Ni362  1  0.22208233  0.69447942  0.31771489  1.0
  Ni  Ni363  1  0.55541567  0.02781275  0.31771489  1.0
  Ni  Ni364  1  0.55541567  0.36114608  0.31771489  1.0
  Ni  Ni365  1  0.55541567  0.69447942  0.31771489  1.0
  Ni  Ni366  1  0.88874900  0.02781275  0.31771489  1.0
  Ni  Ni367  1  0.88874900  0.36114608  0.31771489  1.0
  Ni  Ni368  1  0.88874900  0.69447942  0.31771489  1.0
  Ni  Ni369  1  0.22208233  0.19447942  0.25521489  1.0
  Ni  Ni370  1  0.22208233  0.52781275  0.25521489  1.0
  Ni  Ni371  1  0.22208233  0.86114608  0.25521489  1.0
  Ni  Ni372  1  0.55541567  0.19447942  0.25521489  1.0
  Ni  Ni373  1  0.55541567  0.52781275  0.25521489  1.0
  Ni  Ni374  1  0.55541567  0.86114608  0.25521489  1.0
  Ni  Ni375  1  0.88874900  0.19447942  0.25521489  1.0
  Ni  Ni376  1  0.88874900  0.52781275  0.25521489  1.0
  Ni  Ni377  1  0.88874900  0.86114608  0.25521489  1.0
  Ni  Ni378  1  0.27770783  0.05562550  0.36978511  1.0
  Ni  Ni379  1  0.27770783  0.38895883  0.36978511  1.0
  Ni  Ni380  1  0.27770783  0.72229217  0.36978511  1.0
  Ni  Ni381  1  0.61104117  0.05562550  0.36978511  1.0
  Ni  Ni382  1  0.61104117  0.38895883  0.36978511  1.0
  Ni  Ni383  1  0.61104117  0.72229217  0.36978511  1.0
  Ni  Ni384  1  0.94437450  0.05562550  0.36978511  1.0
  Ni  Ni385  1  0.94437450  0.38895883  0.36978511  1.0
  Ni  Ni386  1  0.94437450  0.72229217  0.36978511  1.0
  Ni  Ni387  1  0.27770783  0.22229217  0.30728511  1.0
  Ni  Ni388  1  0.27770783  0.55562550  0.30728511  1.0
  Ni  Ni389  1  0.27770783  0.88895883  0.30728511  1.0
  Ni  Ni390  1  0.61104117  0.22229217  0.30728511  1.0
  Ni  Ni391  1  0.61104117  0.55562550  0.30728511  1.0
  Ni  Ni392  1  0.61104117  0.88895883  0.30728511  1.0
  Ni  Ni393  1  0.94437450  0.22229217  0.30728511  1.0
  Ni  Ni394  1  0.94437450  0.55562550  0.30728511  1.0
  Ni  Ni395  1  0.94437450  0.88895883  0.30728511  1.0
  Ni  Ni396  1  0.27770783  0.13885392  0.33857445  1.0
  Ni  Ni397  1  0.27770783  0.47218725  0.33857445  1.0
  Ni  Ni398  1  0.27770783  0.80552058  0.33857445  1.0
  Ni  Ni399  1  0.61104117  0.13885392  0.33857445  1.0
  Ni  Ni400  1  0.61104117  0.47218725  0.33857445  1.0
  Ni  Ni401  1  0.61104117  0.80552058  0.33857445  1.0
  Ni  Ni402  1  0.94437450  0.13885392  0.33857445  1.0
  Ni  Ni403  1  0.94437450  0.47218725  0.33857445  1.0
  Ni  Ni404  1  0.94437450  0.80552058  0.33857445  1.0
  Ni  Ni405  1  0.27770783  0.30552058  0.27607445  1.0
  Ni  Ni406  1  0.27770783  0.63885392  0.27607445  1.0
  Ni  Ni407  1  0.27770783  0.97218725  0.27607445  1.0
  Ni  Ni408  1  0.61104117  0.30552058  0.27607445  1.0
  Ni  Ni409  1  0.61104117  0.63885392  0.27607445  1.0
  Ni  Ni410  1  0.61104117  0.97218725  0.27607445  1.0
  Ni  Ni411  1  0.94437450  0.30552058  0.27607445  1.0
  Ni  Ni412  1  0.94437450  0.63885392  0.27607445  1.0
  Ni  Ni413  1  0.94437450  0.97218725  0.27607445  1.0
  Ni  Ni414  1  0.11125100  0.13885392  0.33857445  1.0
  Ni  Ni415  1  0.11125100  0.47218725  0.33857445  1.0
  Ni  Ni416  1  0.11125100  0.80552058  0.33857445  1.0
  Ni  Ni417  1  0.44458433  0.13885392  0.33857445  1.0
  Ni  Ni418  1  0.44458433  0.47218725  0.33857445  1.0
  Ni  Ni419  1  0.44458433  0.80552058  0.33857445  1.0
  Ni  Ni420  1  0.77791767  0.13885392  0.33857445  1.0
  Ni  Ni421  1  0.77791767  0.47218725  0.33857445  1.0
  Ni  Ni422  1  0.77791767  0.80552058  0.33857445  1.0
  Ni  Ni423  1  0.11125100  0.30552058  0.27607445  1.0
  Ni  Ni424  1  0.11125100  0.63885392  0.27607445  1.0
  Ni  Ni425  1  0.11125100  0.97218725  0.27607445  1.0
  Ni  Ni426  1  0.44458433  0.30552058  0.27607445  1.0
  Ni  Ni427  1  0.44458433  0.63885392  0.27607445  1.0
  Ni  Ni428  1  0.44458433  0.97218725  0.27607445  1.0
  Ni  Ni429  1  0.77791767  0.30552058  0.27607445  1.0
  Ni  Ni430  1  0.77791767  0.63885392  0.27607445  1.0
  Ni  Ni431  1  0.77791767  0.97218725  0.27607445  1.0
