# generated using pymatgen
data_Cr2Ni
_symmetry_space_group_name_H-M   'P 1'
_cell_length_a   19.68904801
_cell_length_b   24.11406057
_cell_length_c   29.35069984
_cell_angle_alpha   90.00000000
_cell_angle_beta   90.00000000
_cell_angle_gamma   114.09484255
_symmetry_Int_Tables_number   1
_chemical_formula_structural   Cr2Ni
_chemical_formula_sum   'Cr288 Ni144'
_cell_volume   12721.04834867
_cell_formula_units_Z   144
loop_
 _symmetry_equiv_pos_site_id
 _symmetry_equiv_pos_as_xyz
  1  'x, y, z'
loop_
 _atom_site_type_symbol
 _atom_site_label
 _atom_site_symmetry_multiplicity
 _atom_site_fract_x
 _atom_site_fract_y
 _atom_site_fract_z
 _atom_site_occupancy
  Cr  Cr0  1  0.23750000  0.07916667  0.05625000  1.0
  Cr  Cr1  1  0.23750000  0.41250000  0.05625000  1.0
  Cr  Cr2  1  0.23750000  0.74583333  0.05625000  1.0
  Cr  Cr3  1  0.57083333  0.07916667  0.05625000  1.0
  Cr  Cr4  1  0.57083333  0.41250000  0.05625000  1.0
  Cr  Cr5  1  0.57083333  0.74583333  0.05625000  1.0
  Cr  Cr6  1  0.90416667  0.07916667  0.05625000  1.0
  Cr  Cr7  1  0.90416667  0.41250000  0.05625000  1.0
  Cr  Cr8  1  0.90416667  0.74583333  0.05625000  1.0
  Cr  Cr9  1  0.13750000  0.21250000  0.00625000  1.0
  Cr  Cr10  1  0.13750000  0.54583333  0.00625000  1.0
  Cr  Cr11  1  0.13750000  0.87916667  0.00625000  1.0
  Cr  Cr12  1  0.47083333  0.21250000  0.00625000  1.0
  Cr  Cr13  1  0.47083333  0.54583333  0.00625000  1.0
  Cr  Cr14  1  0.47083333  0.87916667  0.00625000  1.0
  Cr  Cr15  1  0.80416667  0.21250000  0.00625000  1.0
  Cr  Cr16  1  0.80416667  0.54583333  0.00625000  1.0
  Cr  Cr17  1  0.80416667  0.87916667  0.00625000  1.0
  Cr  Cr18  1  0.30416667  0.04583333  0.00625000  1.0
  Cr  Cr19  1  0.30416667  0.37916667  0.00625000  1.0
  Cr  Cr20  1  0.30416667  0.71250000  0.00625000  1.0
  Cr  Cr21  1  0.63750000  0.04583333  0.00625000  1.0
  Cr  Cr22  1  0.63750000  0.37916667  0.00625000  1.0
  Cr  Cr23  1  0.63750000  0.71250000  0.00625000  1.0
  Cr  Cr24  1  0.97083333  0.04583333  0.00625000  1.0
  Cr  Cr25  1  0.97083333  0.37916667  0.00625000  1.0
  Cr  Cr26  1  0.97083333  0.71250000  0.00625000  1.0
  Cr  Cr27  1  0.07083333  0.24583333  0.05625000  1.0
  Cr  Cr28  1  0.07083333  0.57916667  0.05625000  1.0
  Cr  Cr29  1  0.07083333  0.91250000  0.05625000  1.0
  Cr  Cr30  1  0.40416667  0.24583333  0.05625000  1.0
  Cr  Cr31  1  0.40416667  0.57916667  0.05625000  1.0
  Cr  Cr32  1  0.40416667  0.91250000  0.05625000  1.0
  Cr  Cr33  1  0.73750000  0.24583333  0.05625000  1.0
  Cr  Cr34  1  0.73750000  0.57916667  0.05625000  1.0
  Cr  Cr35  1  0.73750000  0.91250000  0.05625000  1.0
  Cr  Cr36  1  0.12083333  0.17916667  0.08125000  1.0
  Cr  Cr37  1  0.12083333  0.51250000  0.08125000  1.0
  Cr  Cr38  1  0.12083333  0.84583333  0.08125000  1.0
  Cr  Cr39  1  0.45416667  0.17916667  0.08125000  1.0
  Cr  Cr40  1  0.45416667  0.51250000  0.08125000  1.0
  Cr  Cr41  1  0.45416667  0.84583333  0.08125000  1.0
  Cr  Cr42  1  0.78750000  0.17916667  0.08125000  1.0
  Cr  Cr43  1  0.78750000  0.51250000  0.08125000  1.0
  Cr  Cr44  1  0.78750000  0.84583333  0.08125000  1.0
  Cr  Cr45  1  0.02083333  0.31250000  0.03125000  1.0
  Cr  Cr46  1  0.02083333  0.64583333  0.03125000  1.0
  Cr  Cr47  1  0.02083333  0.97916667  0.03125000  1.0
  Cr  Cr48  1  0.35416667  0.31250000  0.03125000  1.0
  Cr  Cr49  1  0.35416667  0.64583333  0.03125000  1.0
  Cr  Cr50  1  0.35416667  0.97916667  0.03125000  1.0
  Cr  Cr51  1  0.68750000  0.31250000  0.03125000  1.0
  Cr  Cr52  1  0.68750000  0.64583333  0.03125000  1.0
  Cr  Cr53  1  0.68750000  0.97916667  0.03125000  1.0
  Cr  Cr54  1  0.02083333  0.14583333  0.03125000  1.0
  Cr  Cr55  1  0.02083333  0.47916667  0.03125000  1.0
  Cr  Cr56  1  0.02083333  0.81250000  0.03125000  1.0
  Cr  Cr57  1  0.35416667  0.14583333  0.03125000  1.0
  Cr  Cr58  1  0.35416667  0.47916667  0.03125000  1.0
  Cr  Cr59  1  0.35416667  0.81250000  0.03125000  1.0
  Cr  Cr60  1  0.68750000  0.14583333  0.03125000  1.0
  Cr  Cr61  1  0.68750000  0.47916667  0.03125000  1.0
  Cr  Cr62  1  0.68750000  0.81250000  0.03125000  1.0
  Cr  Cr63  1  0.12083333  0.01250000  0.08125000  1.0
  Cr  Cr64  1  0.12083333  0.34583333  0.08125000  1.0
  Cr  Cr65  1  0.12083333  0.67916667  0.08125000  1.0
  Cr  Cr66  1  0.45416667  0.01250000  0.08125000  1.0
  Cr  Cr67  1  0.45416667  0.34583333  0.08125000  1.0
  Cr  Cr68  1  0.45416667  0.67916667  0.08125000  1.0
  Cr  Cr69  1  0.78750000  0.01250000  0.08125000  1.0
  Cr  Cr70  1  0.78750000  0.34583333  0.08125000  1.0
  Cr  Cr71  1  0.78750000  0.67916667  0.08125000  1.0
  Cr  Cr72  1  0.10416667  0.14583333  0.15625000  1.0
  Cr  Cr73  1  0.10416667  0.47916667  0.15625000  1.0
  Cr  Cr74  1  0.10416667  0.81250000  0.15625000  1.0
  Cr  Cr75  1  0.43750000  0.14583333  0.15625000  1.0
  Cr  Cr76  1  0.43750000  0.47916667  0.15625000  1.0
  Cr  Cr77  1  0.43750000  0.81250000  0.15625000  1.0
  Cr  Cr78  1  0.77083333  0.14583333  0.15625000  1.0
  Cr  Cr79  1  0.77083333  0.47916667  0.15625000  1.0
  Cr  Cr80  1  0.77083333  0.81250000  0.15625000  1.0
  Cr  Cr81  1  0.00416667  0.27916667  0.10625000  1.0
  Cr  Cr82  1  0.00416667  0.61250000  0.10625000  1.0
  Cr  Cr83  1  0.00416667  0.94583333  0.10625000  1.0
  Cr  Cr84  1  0.33750000  0.27916667  0.10625000  1.0
  Cr  Cr85  1  0.33750000  0.61250000  0.10625000  1.0
  Cr  Cr86  1  0.33750000  0.94583333  0.10625000  1.0
  Cr  Cr87  1  0.67083333  0.27916667  0.10625000  1.0
  Cr  Cr88  1  0.67083333  0.61250000  0.10625000  1.0
  Cr  Cr89  1  0.67083333  0.94583333  0.10625000  1.0
  Cr  Cr90  1  0.17083333  0.11250000  0.10625000  1.0
  Cr  Cr91  1  0.17083333  0.44583333  0.10625000  1.0
  Cr  Cr92  1  0.17083333  0.77916667  0.10625000  1.0
  Cr  Cr93  1  0.50416667  0.11250000  0.10625000  1.0
  Cr  Cr94  1  0.50416667  0.44583333  0.10625000  1.0
  Cr  Cr95  1  0.50416667  0.77916667  0.10625000  1.0
  Cr  Cr96  1  0.83750000  0.11250000  0.10625000  1.0
  Cr  Cr97  1  0.83750000  0.44583333  0.10625000  1.0
  Cr  Cr98  1  0.83750000  0.77916667  0.10625000  1.0
  Cr  Cr99  1  0.27083333  0.31250000  0.15625000  1.0
  Cr  Cr100  1  0.27083333  0.64583333  0.15625000  1.0
  Cr  Cr101  1  0.27083333  0.97916667  0.15625000  1.0
  Cr  Cr102  1  0.60416667  0.31250000  0.15625000  1.0
  Cr  Cr103  1  0.60416667  0.64583333  0.15625000  1.0
  Cr  Cr104  1  0.60416667  0.97916667  0.15625000  1.0
  Cr  Cr105  1  0.93750000  0.31250000  0.15625000  1.0
  Cr  Cr106  1  0.93750000  0.64583333  0.15625000  1.0
  Cr  Cr107  1  0.93750000  0.97916667  0.15625000  1.0
  Cr  Cr108  1  0.32083333  0.24583333  0.18125000  1.0
  Cr  Cr109  1  0.32083333  0.57916667  0.18125000  1.0
  Cr  Cr110  1  0.32083333  0.91250000  0.18125000  1.0
  Cr  Cr111  1  0.65416667  0.24583333  0.18125000  1.0
  Cr  Cr112  1  0.65416667  0.57916667  0.18125000  1.0
  Cr  Cr113  1  0.65416667  0.91250000  0.18125000  1.0
  Cr  Cr114  1  0.98750000  0.24583333  0.18125000  1.0
  Cr  Cr115  1  0.98750000  0.57916667  0.18125000  1.0
  Cr  Cr116  1  0.98750000  0.91250000  0.18125000  1.0
  Cr  Cr117  1  0.22083333  0.04583333  0.13125000  1.0
  Cr  Cr118  1  0.22083333  0.37916667  0.13125000  1.0
  Cr  Cr119  1  0.22083333  0.71250000  0.13125000  1.0
  Cr  Cr120  1  0.55416667  0.04583333  0.13125000  1.0
  Cr  Cr121  1  0.55416667  0.37916667  0.13125000  1.0
  Cr  Cr122  1  0.55416667  0.71250000  0.13125000  1.0
  Cr  Cr123  1  0.88750000  0.04583333  0.13125000  1.0
  Cr  Cr124  1  0.88750000  0.37916667  0.13125000  1.0
  Cr  Cr125  1  0.88750000  0.71250000  0.13125000  1.0
  Cr  Cr126  1  0.22083333  0.21250000  0.13125000  1.0
  Cr  Cr127  1  0.22083333  0.54583333  0.13125000  1.0
  Cr  Cr128  1  0.22083333  0.87916667  0.13125000  1.0
  Cr  Cr129  1  0.55416667  0.21250000  0.13125000  1.0
  Cr  Cr130  1  0.55416667  0.54583333  0.13125000  1.0
  Cr  Cr131  1  0.55416667  0.87916667  0.13125000  1.0
  Cr  Cr132  1  0.88750000  0.21250000  0.13125000  1.0
  Cr  Cr133  1  0.88750000  0.54583333  0.13125000  1.0
  Cr  Cr134  1  0.88750000  0.87916667  0.13125000  1.0
  Cr  Cr135  1  0.32083333  0.07916667  0.18125000  1.0
  Cr  Cr136  1  0.32083333  0.41250000  0.18125000  1.0
  Cr  Cr137  1  0.32083333  0.74583333  0.18125000  1.0
  Cr  Cr138  1  0.65416667  0.07916667  0.18125000  1.0
  Cr  Cr139  1  0.65416667  0.41250000  0.18125000  1.0
  Cr  Cr140  1  0.65416667  0.74583333  0.18125000  1.0
  Cr  Cr141  1  0.98750000  0.07916667  0.18125000  1.0
  Cr  Cr142  1  0.98750000  0.41250000  0.18125000  1.0
  Cr  Cr143  1  0.98750000  0.74583333  0.18125000  1.0
  Cr  Cr144  1  0.30416667  0.21250000  0.25625000  1.0
  Cr  Cr145  1  0.30416667  0.54583333  0.25625000  1.0
  Cr  Cr146  1  0.30416667  0.87916667  0.25625000  1.0
  Cr  Cr147  1  0.63750000  0.21250000  0.25625000  1.0
  Cr  Cr148  1  0.63750000  0.54583333  0.25625000  1.0
  Cr  Cr149  1  0.63750000  0.87916667  0.25625000  1.0
  Cr  Cr150  1  0.97083333  0.21250000  0.25625000  1.0
  Cr  Cr151  1  0.97083333  0.54583333  0.25625000  1.0
  Cr  Cr152  1  0.97083333  0.87916667  0.25625000  1.0
  Cr  Cr153  1  0.20416667  0.01250000  0.20625000  1.0
  Cr  Cr154  1  0.20416667  0.34583333  0.20625000  1.0
  Cr  Cr155  1  0.20416667  0.67916667  0.20625000  1.0
  Cr  Cr156  1  0.53750000  0.01250000  0.20625000  1.0
  Cr  Cr157  1  0.53750000  0.34583333  0.20625000  1.0
  Cr  Cr158  1  0.53750000  0.67916667  0.20625000  1.0
  Cr  Cr159  1  0.87083333  0.01250000  0.20625000  1.0
  Cr  Cr160  1  0.87083333  0.34583333  0.20625000  1.0
  Cr  Cr161  1  0.87083333  0.67916667  0.20625000  1.0
  Cr  Cr162  1  0.03750000  0.17916667  0.20625000  1.0
  Cr  Cr163  1  0.03750000  0.51250000  0.20625000  1.0
  Cr  Cr164  1  0.03750000  0.84583333  0.20625000  1.0
  Cr  Cr165  1  0.37083333  0.17916667  0.20625000  1.0
  Cr  Cr166  1  0.37083333  0.51250000  0.20625000  1.0
  Cr  Cr167  1  0.37083333  0.84583333  0.20625000  1.0
  Cr  Cr168  1  0.70416667  0.17916667  0.20625000  1.0
  Cr  Cr169  1  0.70416667  0.51250000  0.20625000  1.0
  Cr  Cr170  1  0.70416667  0.84583333  0.20625000  1.0
  Cr  Cr171  1  0.13750000  0.04583333  0.25625000  1.0
  Cr  Cr172  1  0.13750000  0.37916667  0.25625000  1.0
  Cr  Cr173  1  0.13750000  0.71250000  0.25625000  1.0
  Cr  Cr174  1  0.47083333  0.04583333  0.25625000  1.0
  Cr  Cr175  1  0.47083333  0.37916667  0.25625000  1.0
  Cr  Cr176  1  0.47083333  0.71250000  0.25625000  1.0
  Cr  Cr177  1  0.80416667  0.04583333  0.25625000  1.0
  Cr  Cr178  1  0.80416667  0.37916667  0.25625000  1.0
  Cr  Cr179  1  0.80416667  0.71250000  0.25625000  1.0
  Cr  Cr180  1  0.18750000  0.31250000  0.28125000  1.0
  Cr  Cr181  1  0.18750000  0.64583333  0.28125000  1.0
  Cr  Cr182  1  0.18750000  0.97916667  0.28125000  1.0
  Cr  Cr183  1  0.52083333  0.31250000  0.28125000  1.0
  Cr  Cr184  1  0.52083333  0.64583333  0.28125000  1.0
  Cr  Cr185  1  0.52083333  0.97916667  0.28125000  1.0
  Cr  Cr186  1  0.85416667  0.31250000  0.28125000  1.0
  Cr  Cr187  1  0.85416667  0.64583333  0.28125000  1.0
  Cr  Cr188  1  0.85416667  0.97916667  0.28125000  1.0
  Cr  Cr189  1  0.08750000  0.11250000  0.23125000  1.0
  Cr  Cr190  1  0.08750000  0.44583333  0.23125000  1.0
  Cr  Cr191  1  0.08750000  0.77916667  0.23125000  1.0
  Cr  Cr192  1  0.42083333  0.11250000  0.23125000  1.0
  Cr  Cr193  1  0.42083333  0.44583333  0.23125000  1.0
  Cr  Cr194  1  0.42083333  0.77916667  0.23125000  1.0
  Cr  Cr195  1  0.75416667  0.11250000  0.23125000  1.0
  Cr  Cr196  1  0.75416667  0.44583333  0.23125000  1.0
  Cr  Cr197  1  0.75416667  0.77916667  0.23125000  1.0
  Cr  Cr198  1  0.08750000  0.27916667  0.23125000  1.0
  Cr  Cr199  1  0.08750000  0.61250000  0.23125000  1.0
  Cr  Cr200  1  0.08750000  0.94583333  0.23125000  1.0
  Cr  Cr201  1  0.42083333  0.27916667  0.23125000  1.0
  Cr  Cr202  1  0.42083333  0.61250000  0.23125000  1.0
  Cr  Cr203  1  0.42083333  0.94583333  0.23125000  1.0
  Cr  Cr204  1  0.75416667  0.27916667  0.23125000  1.0
  Cr  Cr205  1  0.75416667  0.61250000  0.23125000  1.0
  Cr  Cr206  1  0.75416667  0.94583333  0.23125000  1.0
  Cr  Cr207  1  0.18750000  0.14583333  0.28125000  1.0
  Cr  Cr208  1  0.18750000  0.47916667  0.28125000  1.0
  Cr  Cr209  1  0.18750000  0.81250000  0.28125000  1.0
  Cr  Cr210  1  0.52083333  0.14583333  0.28125000  1.0
  Cr  Cr211  1  0.52083333  0.47916667  0.28125000  1.0
  Cr  Cr212  1  0.52083333  0.81250000  0.28125000  1.0
  Cr  Cr213  1  0.85416667  0.14583333  0.28125000  1.0
  Cr  Cr214  1  0.85416667  0.47916667  0.28125000  1.0
  Cr  Cr215  1  0.85416667  0.81250000  0.28125000  1.0
  Cr  Cr216  1  0.17083333  0.27916667  0.35625000  1.0
  Cr  Cr217  1  0.17083333  0.61250000  0.35625000  1.0
  Cr  Cr218  1  0.17083333  0.94583333  0.35625000  1.0
  Cr  Cr219  1  0.50416667  0.27916667  0.35625000  1.0
  Cr  Cr220  1  0.50416667  0.61250000  0.35625000  1.0
  Cr  Cr221  1  0.50416667  0.94583333  0.35625000  1.0
  Cr  Cr222  1  0.83750000  0.27916667  0.35625000  1.0
  Cr  Cr223  1  0.83750000  0.61250000  0.35625000  1.0
  Cr  Cr224  1  0.83750000  0.94583333  0.35625000  1.0
  Cr  Cr225  1  0.07083333  0.07916667  0.30625000  1.0
  Cr  Cr226  1  0.07083333  0.41250000  0.30625000  1.0
  Cr  Cr227  1  0.07083333  0.74583333  0.30625000  1.0
  Cr  Cr228  1  0.40416667  0.07916667  0.30625000  1.0
  Cr  Cr229  1  0.40416667  0.41250000  0.30625000  1.0
  Cr  Cr230  1  0.40416667  0.74583333  0.30625000  1.0
  Cr  Cr231  1  0.73750000  0.07916667  0.30625000  1.0
  Cr  Cr232  1  0.73750000  0.41250000  0.30625000  1.0
  Cr  Cr233  1  0.73750000  0.74583333  0.30625000  1.0
  Cr  Cr234  1  0.23750000  0.24583333  0.30625000  1.0
  Cr  Cr235  1  0.23750000  0.57916667  0.30625000  1.0
  Cr  Cr236  1  0.23750000  0.91250000  0.30625000  1.0
  Cr  Cr237  1  0.57083333  0.24583333  0.30625000  1.0
  Cr  Cr238  1  0.57083333  0.57916667  0.30625000  1.0
  Cr  Cr239  1  0.57083333  0.91250000  0.30625000  1.0
  Cr  Cr240  1  0.90416667  0.24583333  0.30625000  1.0
  Cr  Cr241  1  0.90416667  0.57916667  0.30625000  1.0
  Cr  Cr242  1  0.90416667  0.91250000  0.30625000  1.0
  Cr  Cr243  1  0.00416667  0.11250000  0.35625000  1.0
  Cr  Cr244  1  0.00416667  0.44583333  0.35625000  1.0
  Cr  Cr245  1  0.00416667  0.77916667  0.35625000  1.0
  Cr  Cr246  1  0.33750000  0.11250000  0.35625000  1.0
  Cr  Cr247  1  0.33750000  0.44583333  0.35625000  1.0
  Cr  Cr248  1  0.33750000  0.77916667  0.35625000  1.0
  Cr  Cr249  1  0.67083333  0.11250000  0.35625000  1.0
  Cr  Cr250  1  0.67083333  0.44583333  0.35625000  1.0
  Cr  Cr251  1  0.67083333  0.77916667  0.35625000  1.0
  Cr  Cr252  1  0.05416667  0.04583333  0.38125000  1.0
  Cr  Cr253  1  0.05416667  0.37916667  0.38125000  1.0
  Cr  Cr254  1  0.05416667  0.71250000  0.38125000  1.0
  Cr  Cr255  1  0.38750000  0.04583333  0.38125000  1.0
  Cr  Cr256  1  0.38750000  0.37916667  0.38125000  1.0
  Cr  Cr257  1  0.38750000  0.71250000  0.38125000  1.0
  Cr  Cr258  1  0.72083333  0.04583333  0.38125000  1.0
  Cr  Cr259  1  0.72083333  0.37916667  0.38125000  1.0
  Cr  Cr260  1  0.72083333  0.71250000  0.38125000  1.0
  Cr  Cr261  1  0.28750000  0.17916667  0.33125000  1.0
  Cr  Cr262  1  0.28750000  0.51250000  0.33125000  1.0
  Cr  Cr263  1  0.28750000  0.84583333  0.33125000  1.0
  Cr  Cr264  1  0.62083333  0.17916667  0.33125000  1.0
  Cr  Cr265  1  0.62083333  0.51250000  0.33125000  1.0
  Cr  Cr266  1  0.62083333  0.84583333  0.33125000  1.0
  Cr  Cr267  1  0.95416667  0.17916667  0.33125000  1.0
  Cr  Cr268  1  0.95416667  0.51250000  0.33125000  1.0
  Cr  Cr269  1  0.95416667  0.84583333  0.33125000  1.0
  Cr  Cr270  1  0.28750000  0.01250000  0.33125000  1.0
  Cr  Cr271  1  0.28750000  0.34583333  0.33125000  1.0
  Cr  Cr272  1  0.28750000  0.67916667  0.33125000  1.0
  Cr  Cr273  1  0.62083333  0.01250000  0.33125000  1.0
  Cr  Cr274  1  0.62083333  0.34583333  0.33125000  1.0
  Cr  Cr275  1  0.62083333  0.67916667  0.33125000  1.0
  Cr  Cr276  1  0.95416667  0.01250000  0.33125000  1.0
  Cr  Cr277  1  0.95416667  0.34583333  0.33125000  1.0
  Cr  Cr278  1  0.95416667  0.67916667  0.33125000  1.0
  Cr  Cr279  1  0.05416667  0.21250000  0.38125000  1.0
  Cr  Cr280  1  0.05416667  0.54583333  0.38125000  1.0
  Cr  Cr281  1  0.05416667  0.87916667  0.38125000  1.0
  Cr  Cr282  1  0.38750000  0.21250000  0.38125000  1.0
  Cr  Cr283  1  0.38750000  0.54583333  0.38125000  1.0
  Cr  Cr284  1  0.38750000  0.87916667  0.38125000  1.0
  Cr  Cr285  1  0.72083333  0.21250000  0.38125000  1.0
  Cr  Cr286  1  0.72083333  0.54583333  0.38125000  1.0
  Cr  Cr287  1  0.72083333  0.87916667  0.38125000  1.0
  Ni  Ni288  1  0.22083333  0.29583333  0.06875000  1.0
  Ni  Ni289  1  0.22083333  0.62916667  0.06875000  1.0
  Ni  Ni290  1  0.22083333  0.96250000  0.06875000  1.0
  Ni  Ni291  1  0.55416667  0.29583333  0.06875000  1.0
  Ni  Ni292  1  0.55416667  0.62916667  0.06875000  1.0
  Ni  Ni293  1  0.55416667  0.96250000  0.06875000  1.0
  Ni  Ni294  1  0.88750000  0.29583333  0.06875000  1.0
  Ni  Ni295  1  0.88750000  0.62916667  0.06875000  1.0
  Ni  Ni296  1  0.88750000  0.96250000  0.06875000  1.0
  Ni  Ni297  1  0.12083333  0.09583333  0.01875000  1.0
  Ni  Ni298  1  0.12083333  0.42916667  0.01875000  1.0
  Ni  Ni299  1  0.12083333  0.76250000  0.01875000  1.0
  Ni  Ni300  1  0.45416667  0.09583333  0.01875000  1.0
  Ni  Ni301  1  0.45416667  0.42916667  0.01875000  1.0
  Ni  Ni302  1  0.45416667  0.76250000  0.01875000  1.0
  Ni  Ni303  1  0.78750000  0.09583333  0.01875000  1.0
  Ni  Ni304  1  0.78750000  0.42916667  0.01875000  1.0
  Ni  Ni305  1  0.78750000  0.76250000  0.01875000  1.0
  Ni  Ni306  1  0.02083333  0.06250000  0.09375000  1.0
  Ni  Ni307  1  0.02083333  0.39583333  0.09375000  1.0
  Ni  Ni308  1  0.02083333  0.72916667  0.09375000  1.0
  Ni  Ni309  1  0.35416667  0.06250000  0.09375000  1.0
  Ni  Ni310  1  0.35416667  0.39583333  0.09375000  1.0
  Ni  Ni311  1  0.35416667  0.72916667  0.09375000  1.0
  Ni  Ni312  1  0.68750000  0.06250000  0.09375000  1.0
  Ni  Ni313  1  0.68750000  0.39583333  0.09375000  1.0
  Ni  Ni314  1  0.68750000  0.72916667  0.09375000  1.0
  Ni  Ni315  1  0.25416667  0.19583333  0.04375000  1.0
  Ni  Ni316  1  0.25416667  0.52916667  0.04375000  1.0
  Ni  Ni317  1  0.25416667  0.86250000  0.04375000  1.0
  Ni  Ni318  1  0.58750000  0.19583333  0.04375000  1.0
  Ni  Ni319  1  0.58750000  0.52916667  0.04375000  1.0
  Ni  Ni320  1  0.58750000  0.86250000  0.04375000  1.0
  Ni  Ni321  1  0.92083333  0.19583333  0.04375000  1.0
  Ni  Ni322  1  0.92083333  0.52916667  0.04375000  1.0
  Ni  Ni323  1  0.92083333  0.86250000  0.04375000  1.0
  Ni  Ni324  1  0.08750000  0.02916667  0.16875000  1.0
  Ni  Ni325  1  0.08750000  0.36250000  0.16875000  1.0
  Ni  Ni326  1  0.08750000  0.69583333  0.16875000  1.0
  Ni  Ni327  1  0.42083333  0.02916667  0.16875000  1.0
  Ni  Ni328  1  0.42083333  0.36250000  0.16875000  1.0
  Ni  Ni329  1  0.42083333  0.69583333  0.16875000  1.0
  Ni  Ni330  1  0.75416667  0.02916667  0.16875000  1.0
  Ni  Ni331  1  0.75416667  0.36250000  0.16875000  1.0
  Ni  Ni332  1  0.75416667  0.69583333  0.16875000  1.0
  Ni  Ni333  1  0.32083333  0.16250000  0.11875000  1.0
  Ni  Ni334  1  0.32083333  0.49583333  0.11875000  1.0
  Ni  Ni335  1  0.32083333  0.82916667  0.11875000  1.0
  Ni  Ni336  1  0.65416667  0.16250000  0.11875000  1.0
  Ni  Ni337  1  0.65416667  0.49583333  0.11875000  1.0
  Ni  Ni338  1  0.65416667  0.82916667  0.11875000  1.0
  Ni  Ni339  1  0.98750000  0.16250000  0.11875000  1.0
  Ni  Ni340  1  0.98750000  0.49583333  0.11875000  1.0
  Ni  Ni341  1  0.98750000  0.82916667  0.11875000  1.0
  Ni  Ni342  1  0.22083333  0.12916667  0.19375000  1.0
  Ni  Ni343  1  0.22083333  0.46250000  0.19375000  1.0
  Ni  Ni344  1  0.22083333  0.79583333  0.19375000  1.0
  Ni  Ni345  1  0.55416667  0.12916667  0.19375000  1.0
  Ni  Ni346  1  0.55416667  0.46250000  0.19375000  1.0
  Ni  Ni347  1  0.55416667  0.79583333  0.19375000  1.0
  Ni  Ni348  1  0.88750000  0.12916667  0.19375000  1.0
  Ni  Ni349  1  0.88750000  0.46250000  0.19375000  1.0
  Ni  Ni350  1  0.88750000  0.79583333  0.19375000  1.0
  Ni  Ni351  1  0.12083333  0.26250000  0.14375000  1.0
  Ni  Ni352  1  0.12083333  0.59583333  0.14375000  1.0
  Ni  Ni353  1  0.12083333  0.92916667  0.14375000  1.0
  Ni  Ni354  1  0.45416667  0.26250000  0.14375000  1.0
  Ni  Ni355  1  0.45416667  0.59583333  0.14375000  1.0
  Ni  Ni356  1  0.45416667  0.92916667  0.14375000  1.0
  Ni  Ni357  1  0.78750000  0.26250000  0.14375000  1.0
  Ni  Ni358  1  0.78750000  0.59583333  0.14375000  1.0
  Ni  Ni359  1  0.78750000  0.92916667  0.14375000  1.0
  Ni  Ni360  1  0.28750000  0.09583333  0.26875000  1.0
  Ni  Ni361  1  0.28750000  0.42916667  0.26875000  1.0
  Ni  Ni362  1  0.28750000  0.76250000  0.26875000  1.0
  Ni  Ni363  1  0.62083333  0.09583333  0.26875000  1.0
  Ni  Ni364  1  0.62083333  0.42916667  0.26875000  1.0
  Ni  Ni365  1  0.62083333  0.76250000  0.26875000  1.0
  Ni  Ni366  1  0.95416667  0.09583333  0.26875000  1.0
  Ni  Ni367  1  0.95416667  0.42916667  0.26875000  1.0
  Ni  Ni368  1  0.95416667  0.76250000  0.26875000  1.0
  Ni  Ni369  1  0.18750000  0.22916667  0.21875000  1.0
  Ni  Ni370  1  0.18750000  0.56250000  0.21875000  1.0
  Ni  Ni371  1  0.18750000  0.89583333  0.21875000  1.0
  Ni  Ni372  1  0.52083333  0.22916667  0.21875000  1.0
  Ni  Ni373  1  0.52083333  0.56250000  0.21875000  1.0
  Ni  Ni374  1  0.52083333  0.89583333  0.21875000  1.0
  Ni  Ni375  1  0.85416667  0.22916667  0.21875000  1.0
  Ni  Ni376  1  0.85416667  0.56250000  0.21875000  1.0
  Ni  Ni377  1  0.85416667  0.89583333  0.21875000  1.0
  Ni  Ni378  1  0.08750000  0.19583333  0.29375000  1.0
  Ni  Ni379  1  0.08750000  0.52916667  0.29375000  1.0
  Ni  Ni380  1  0.08750000  0.86250000  0.29375000  1.0
  Ni  Ni381  1  0.42083333  0.19583333  0.29375000  1.0
  Ni  Ni382  1  0.42083333  0.52916667  0.29375000  1.0
  Ni  Ni383  1  0.42083333  0.86250000  0.29375000  1.0
  Ni  Ni384  1  0.75416667  0.19583333  0.29375000  1.0
  Ni  Ni385  1  0.75416667  0.52916667  0.29375000  1.0
  Ni  Ni386  1  0.75416667  0.86250000  0.29375000  1.0
  Ni  Ni387  1  0.32083333  0.32916667  0.24375000  1.0
  Ni  Ni388  1  0.32083333  0.66250000  0.24375000  1.0
  Ni  Ni389  1  0.32083333  0.99583333  0.24375000  1.0
  Ni  Ni390  1  0.65416667  0.32916667  0.24375000  1.0
  Ni  Ni391  1  0.65416667  0.66250000  0.24375000  1.0
  Ni  Ni392  1  0.65416667  0.99583333  0.24375000  1.0
  Ni  Ni393  1  0.98750000  0.32916667  0.24375000  1.0
  Ni  Ni394  1  0.98750000  0.66250000  0.24375000  1.0
  Ni  Ni395  1  0.98750000  0.99583333  0.24375000  1.0
  Ni  Ni396  1  0.15416667  0.16250000  0.36875000  1.0
  Ni  Ni397  1  0.15416667  0.49583333  0.36875000  1.0
  Ni  Ni398  1  0.15416667  0.82916667  0.36875000  1.0
  Ni  Ni399  1  0.48750000  0.16250000  0.36875000  1.0
  Ni  Ni400  1  0.48750000  0.49583333  0.36875000  1.0
  Ni  Ni401  1  0.48750000  0.82916667  0.36875000  1.0
  Ni  Ni402  1  0.82083333  0.16250000  0.36875000  1.0
  Ni  Ni403  1  0.82083333  0.49583333  0.36875000  1.0
  Ni  Ni404  1  0.82083333  0.82916667  0.36875000  1.0
  Ni  Ni405  1  0.05416667  0.29583333  0.31875000  1.0
  Ni  Ni406  1  0.05416667  0.62916667  0.31875000  1.0
  Ni  Ni407  1  0.05416667  0.96250000  0.31875000  1.0
  Ni  Ni408  1  0.38750000  0.29583333  0.31875000  1.0
  Ni  Ni409  1  0.38750000  0.62916667  0.31875000  1.0
  Ni  Ni410  1  0.38750000  0.96250000  0.31875000  1.0
  Ni  Ni411  1  0.72083333  0.29583333  0.31875000  1.0
  Ni  Ni412  1  0.72083333  0.62916667  0.31875000  1.0
  Ni  Ni413  1  0.72083333  0.96250000  0.31875000  1.0
  Ni  Ni414  1  0.28750000  0.26250000  0.39375000  1.0
  Ni  Ni415  1  0.28750000  0.59583333  0.39375000  1.0
  Ni  Ni416  1  0.28750000  0.92916667  0.39375000  1.0
  Ni  Ni417  1  0.62083333  0.26250000  0.39375000  1.0
  Ni  Ni418  1  0.62083333  0.59583333  0.39375000  1.0
  Ni  Ni419  1  0.62083333  0.92916667  0.39375000  1.0
  Ni  Ni420  1  0.95416667  0.26250000  0.39375000  1.0
  Ni  Ni421  1  0.95416667  0.59583333  0.39375000  1.0
  Ni  Ni422  1  0.95416667  0.92916667  0.39375000  1.0
  Ni  Ni423  1  0.18750000  0.06250000  0.34375000  1.0
  Ni  Ni424  1  0.18750000  0.39583333  0.34375000  1.0
  Ni  Ni425  1  0.18750000  0.72916667  0.34375000  1.0
  Ni  Ni426  1  0.52083333  0.06250000  0.34375000  1.0
  Ni  Ni427  1  0.52083333  0.39583333  0.34375000  1.0
  Ni  Ni428  1  0.52083333  0.72916667  0.34375000  1.0
  Ni  Ni429  1  0.85416667  0.06250000  0.34375000  1.0
  Ni  Ni430  1  0.85416667  0.39583333  0.34375000  1.0
  Ni  Ni431  1  0.85416667  0.72916667  0.34375000  1.0
