# generated using pymatgen
data_Cr2Ni
_symmetry_space_group_name_H-M   'P 1'
_cell_length_a   13.92225936
_cell_length_b   13.92225936
_cell_length_c   32.48527184
_cell_angle_alpha   90.00000000
_cell_angle_beta   60.00000000
_cell_angle_gamma   60.00000000
_symmetry_Int_Tables_number   1
_chemical_formula_structural   Cr2Ni
_chemical_formula_sum   'Cr108 Ni54'
_cell_volume   4452.36692204
_cell_formula_units_Z   54
loop_
 _symmetry_equiv_pos_site_id
 _symmetry_equiv_pos_as_xyz
  1  'x, y, z'
loop_
 _atom_site_type_symbol
 _atom_site_label
 _atom_site_symmetry_multiplicity
 _atom_site_fract_x
 _atom_site_fract_y
 _atom_site_fract_z
 _atom_site_occupancy
  Cr  Cr0  1  0.08333333  0.20833333  0.11607143  1.0
  Cr  Cr1  1  0.08333333  0.54166667  0.11607143  1.0
  Cr  Cr2  1  0.08333333  0.87500000  0.11607143  1.0
  Cr  Cr3  1  0.41666667  0.20833333  0.11607143  1.0
  Cr  Cr4  1  0.41666667  0.54166667  0.11607143  1.0
  Cr  Cr5  1  0.41666667  0.87500000  0.11607143  1.0
  Cr  Cr6  1  0.75000000  0.20833333  0.11607143  1.0
  Cr  Cr7  1  0.75000000  0.54166667  0.11607143  1.0
  Cr  Cr8  1  0.75000000  0.87500000  0.11607143  1.0
  Cr  Cr9  1  0.25000000  0.04166667  0.11607143  1.0
  Cr  Cr10  1  0.25000000  0.37500000  0.11607143  1.0
  Cr  Cr11  1  0.25000000  0.70833333  0.11607143  1.0
  Cr  Cr12  1  0.58333333  0.04166667  0.11607143  1.0
  Cr  Cr13  1  0.58333333  0.37500000  0.11607143  1.0
  Cr  Cr14  1  0.58333333  0.70833333  0.11607143  1.0
  Cr  Cr15  1  0.91666667  0.04166667  0.11607143  1.0
  Cr  Cr16  1  0.91666667  0.37500000  0.11607143  1.0
  Cr  Cr17  1  0.91666667  0.70833333  0.11607143  1.0
  Cr  Cr18  1  0.08333333  0.04166667  0.11607143  1.0
  Cr  Cr19  1  0.08333333  0.37500000  0.11607143  1.0
  Cr  Cr20  1  0.08333333  0.70833333  0.11607143  1.0
  Cr  Cr21  1  0.41666667  0.04166667  0.11607143  1.0
  Cr  Cr22  1  0.41666667  0.37500000  0.11607143  1.0
  Cr  Cr23  1  0.41666667  0.70833333  0.11607143  1.0
  Cr  Cr24  1  0.75000000  0.04166667  0.11607143  1.0
  Cr  Cr25  1  0.75000000  0.37500000  0.11607143  1.0
  Cr  Cr26  1  0.75000000  0.70833333  0.11607143  1.0
  Cr  Cr27  1  0.25000000  0.04166667  0.04464286  1.0
  Cr  Cr28  1  0.25000000  0.37500000  0.04464286  1.0
  Cr  Cr29  1  0.25000000  0.70833333  0.04464286  1.0
  Cr  Cr30  1  0.58333333  0.04166667  0.04464286  1.0
  Cr  Cr31  1  0.58333333  0.37500000  0.04464286  1.0
  Cr  Cr32  1  0.58333333  0.70833333  0.04464286  1.0
  Cr  Cr33  1  0.91666667  0.04166667  0.04464286  1.0
  Cr  Cr34  1  0.91666667  0.37500000  0.04464286  1.0
  Cr  Cr35  1  0.91666667  0.70833333  0.04464286  1.0
  Ni  Ni36  1  0.16666667  0.25000000  0.02678571  1.0
  Ni  Ni37  1  0.16666667  0.58333333  0.02678571  1.0
  Ni  Ni38  1  0.16666667  0.91666667  0.02678571  1.0
  Ni  Ni39  1  0.50000000  0.25000000  0.02678571  1.0
  Ni  Ni40  1  0.50000000  0.58333333  0.02678571  1.0
  Ni  Ni41  1  0.50000000  0.91666667  0.02678571  1.0
  Ni  Ni42  1  0.83333333  0.25000000  0.02678571  1.0
  Ni  Ni43  1  0.83333333  0.58333333  0.02678571  1.0
  Ni  Ni44  1  0.83333333  0.91666667  0.02678571  1.0
  Ni  Ni45  1  0.00000000  0.16666667  0.06250000  1.0
  Ni  Ni46  1  0.00000000  0.50000000  0.06250000  1.0
  Ni  Ni47  1  0.00000000  0.83333333  0.06250000  1.0
  Ni  Ni48  1  0.33333333  0.16666667  0.06250000  1.0
  Ni  Ni49  1  0.33333333  0.50000000  0.06250000  1.0
  Ni  Ni50  1  0.33333333  0.83333333  0.06250000  1.0
  Ni  Ni51  1  0.66666667  0.16666667  0.06250000  1.0
  Ni  Ni52  1  0.66666667  0.50000000  0.06250000  1.0
  Ni  Ni53  1  0.66666667  0.83333333  0.06250000  1.0
  Cr  Cr54  1  0.08333333  0.20833333  0.25892857  1.0
  Cr  Cr55  1  0.08333333  0.54166667  0.25892857  1.0
  Cr  Cr56  1  0.08333333  0.87500000  0.25892857  1.0
  Cr  Cr57  1  0.41666667  0.20833333  0.25892857  1.0
  Cr  Cr58  1  0.41666667  0.54166667  0.25892857  1.0
  Cr  Cr59  1  0.41666667  0.87500000  0.25892857  1.0
  Cr  Cr60  1  0.75000000  0.20833333  0.25892857  1.0
  Cr  Cr61  1  0.75000000  0.54166667  0.25892857  1.0
  Cr  Cr62  1  0.75000000  0.87500000  0.25892857  1.0
  Cr  Cr63  1  0.25000000  0.04166667  0.25892857  1.0
  Cr  Cr64  1  0.25000000  0.37500000  0.25892857  1.0
  Cr  Cr65  1  0.25000000  0.70833333  0.25892857  1.0
  Cr  Cr66  1  0.58333333  0.04166667  0.25892857  1.0
  Cr  Cr67  1  0.58333333  0.37500000  0.25892857  1.0
  Cr  Cr68  1  0.58333333  0.70833333  0.25892857  1.0
  Cr  Cr69  1  0.91666667  0.04166667  0.25892857  1.0
  Cr  Cr70  1  0.91666667  0.37500000  0.25892857  1.0
  Cr  Cr71  1  0.91666667  0.70833333  0.25892857  1.0
  Cr  Cr72  1  0.08333333  0.04166667  0.25892857  1.0
  Cr  Cr73  1  0.08333333  0.37500000  0.25892857  1.0
  Cr  Cr74  1  0.08333333  0.70833333  0.25892857  1.0
  Cr  Cr75  1  0.41666667  0.04166667  0.25892857  1.0
  Cr  Cr76  1  0.41666667  0.37500000  0.25892857  1.0
  Cr  Cr77  1  0.41666667  0.70833333  0.25892857  1.0
  Cr  Cr78  1  0.75000000  0.04166667  0.25892857  1.0
  Cr  Cr79  1  0.75000000  0.37500000  0.25892857  1.0
  Cr  Cr80  1  0.75000000  0.70833333  0.25892857  1.0
  Cr  Cr81  1  0.25000000  0.04166667  0.18750000  1.0
  Cr  Cr82  1  0.25000000  0.37500000  0.18750000  1.0
  Cr  Cr83  1  0.25000000  0.70833333  0.18750000  1.0
  Cr  Cr84  1  0.58333333  0.04166667  0.18750000  1.0
  Cr  Cr85  1  0.58333333  0.37500000  0.18750000  1.0
  Cr  Cr86  1  0.58333333  0.70833333  0.18750000  1.0
  Cr  Cr87  1  0.91666667  0.04166667  0.18750000  1.0
  Cr  Cr88  1  0.91666667  0.37500000  0.18750000  1.0
  Cr  Cr89  1  0.91666667  0.70833333  0.18750000  1.0
  Ni  Ni90  1  0.16666667  0.25000000  0.16964286  1.0
  Ni  Ni91  1  0.16666667  0.58333333  0.16964286  1.0
  Ni  Ni92  1  0.16666667  0.91666667  0.16964286  1.0
  Ni  Ni93  1  0.50000000  0.25000000  0.16964286  1.0
  Ni  Ni94  1  0.50000000  0.58333333  0.16964286  1.0
  Ni  Ni95  1  0.50000000  0.91666667  0.16964286  1.0
  Ni  Ni96  1  0.83333333  0.25000000  0.16964286  1.0
  Ni  Ni97  1  0.83333333  0.58333333  0.16964286  1.0
  Ni  Ni98  1  0.83333333  0.91666667  0.16964286  1.0
  Ni  Ni99  1  0.00000000  0.16666667  0.20535714  1.0
  Ni  Ni100  1  0.00000000  0.50000000  0.20535714  1.0
  Ni  Ni101  1  0.00000000  0.83333333  0.20535714  1.0
  Ni  Ni102  1  0.33333333  0.16666667  0.20535714  1.0
  Ni  Ni103  1  0.33333333  0.50000000  0.20535714  1.0
  Ni  Ni104  1  0.33333333  0.83333333  0.20535714  1.0
  Ni  Ni105  1  0.66666667  0.16666667  0.20535714  1.0
  Ni  Ni106  1  0.66666667  0.50000000  0.20535714  1.0
  Ni  Ni107  1  0.66666667  0.83333333  0.20535714  1.0
  Cr  Cr108  1  0.08333333  0.20833333  0.40178571  1.0
  Cr  Cr109  1  0.08333333  0.54166667  0.40178571  1.0
  Cr  Cr110  1  0.08333333  0.87500000  0.40178571  1.0
  Cr  Cr111  1  0.41666667  0.20833333  0.40178571  1.0
  Cr  Cr112  1  0.41666667  0.54166667  0.40178571  1.0
  Cr  Cr113  1  0.41666667  0.87500000  0.40178571  1.0
  Cr  Cr114  1  0.75000000  0.20833333  0.40178571  1.0
  Cr  Cr115  1  0.75000000  0.54166667  0.40178571  1.0
  Cr  Cr116  1  0.75000000  0.87500000  0.40178571  1.0
  Cr  Cr117  1  0.25000000  0.04166667  0.40178571  1.0
  Cr  Cr118  1  0.25000000  0.37500000  0.40178571  1.0
  Cr  Cr119  1  0.25000000  0.70833333  0.40178571  1.0
  Cr  Cr120  1  0.58333333  0.04166667  0.40178571  1.0
  Cr  Cr121  1  0.58333333  0.37500000  0.40178571  1.0
  Cr  Cr122  1  0.58333333  0.70833333  0.40178571  1.0
  Cr  Cr123  1  0.91666667  0.04166667  0.40178571  1.0
  Cr  Cr124  1  0.91666667  0.37500000  0.40178571  1.0
  Cr  Cr125  1  0.91666667  0.70833333  0.40178571  1.0
  Cr  Cr126  1  0.08333333  0.04166667  0.40178571  1.0
  Cr  Cr127  1  0.08333333  0.37500000  0.40178571  1.0
  Cr  Cr128  1  0.08333333  0.70833333  0.40178571  1.0
  Cr  Cr129  1  0.41666667  0.04166667  0.40178571  1.0
  Cr  Cr130  1  0.41666667  0.37500000  0.40178571  1.0
  Cr  Cr131  1  0.41666667  0.70833333  0.40178571  1.0
  Cr  Cr132  1  0.75000000  0.04166667  0.40178571  1.0
  Cr  Cr133  1  0.75000000  0.37500000  0.40178571  1.0
  Cr  Cr134  1  0.75000000  0.70833333  0.40178571  1.0
  Cr  Cr135  1  0.25000000  0.04166667  0.33035714  1.0
  Cr  Cr136  1  0.25000000  0.37500000  0.33035714  1.0
  Cr  Cr137  1  0.25000000  0.70833333  0.33035714  1.0
  Cr  Cr138  1  0.58333333  0.04166667  0.33035714  1.0
  Cr  Cr139  1  0.58333333  0.37500000  0.33035714  1.0
  Cr  Cr140  1  0.58333333  0.70833333  0.33035714  1.0
  Cr  Cr141  1  0.91666667  0.04166667  0.33035714  1.0
  Cr  Cr142  1  0.91666667  0.37500000  0.33035714  1.0
  Cr  Cr143  1  0.91666667  0.70833333  0.33035714  1.0
  Ni  Ni144  1  0.16666667  0.25000000  0.31250000  1.0
  Ni  Ni145  1  0.16666667  0.58333333  0.31250000  1.0
  Ni  Ni146  1  0.16666667  0.91666667  0.31250000  1.0
  Ni  Ni147  1  0.50000000  0.25000000  0.31250000  1.0
  Ni  Ni148  1  0.50000000  0.58333333  0.31250000  1.0
  Ni  Ni149  1  0.50000000  0.91666667  0.31250000  1.0
  Ni  Ni150  1  0.83333333  0.25000000  0.31250000  1.0
  Ni  Ni151  1  0.83333333  0.58333333  0.31250000  1.0
  Ni  Ni152  1  0.83333333  0.91666667  0.31250000  1.0
  Ni  Ni153  1  0.00000000  0.16666667  0.34821429  1.0
  Ni  Ni154  1  0.00000000  0.50000000  0.34821429  1.0
  Ni  Ni155  1  0.00000000  0.83333333  0.34821429  1.0
  Ni  Ni156  1  0.33333333  0.16666667  0.34821429  1.0
  Ni  Ni157  1  0.33333333  0.50000000  0.34821429  1.0
  Ni  Ni158  1  0.33333333  0.83333333  0.34821429  1.0
  Ni  Ni159  1  0.66666667  0.16666667  0.34821429  1.0
  Ni  Ni160  1  0.66666667  0.50000000  0.34821429  1.0
  Ni  Ni161  1  0.66666667  0.83333333  0.34821429  1.0
