# generated using pymatgen
data_Cr2Ni
_symmetry_space_group_name_H-M   'P 1'
_cell_length_a   24.11406057
_cell_length_b   24.11406057
_cell_length_c   55.68903744
_cell_angle_alpha   30.00000000
_cell_angle_beta   90.00000000
_cell_angle_gamma   99.59406823
_symmetry_Int_Tables_number   1
_chemical_formula_structural   Cr2Ni
_chemical_formula_sum   'Cr360 Ni180'
_cell_volume   15265.25801841
_cell_formula_units_Z   180
loop_
 _symmetry_equiv_pos_site_id
 _symmetry_equiv_pos_as_xyz
  1  'x, y, z'
loop_
 _atom_site_type_symbol
 _atom_site_label
 _atom_site_symmetry_multiplicity
 _atom_site_fract_x
 _atom_site_fract_y
 _atom_site_fract_z
 _atom_site_occupancy
  Cr  Cr0  1  0.18750000  0.12500000  0.07552083  1.0
  Cr  Cr1  1  0.18750000  0.45833333  0.07552083  1.0
  Cr  Cr2  1  0.18750000  0.79166667  0.07552083  1.0
  Cr  Cr3  1  0.52083333  0.12500000  0.07552083  1.0
  Cr  Cr4  1  0.52083333  0.45833333  0.07552083  1.0
  Cr  Cr5  1  0.52083333  0.79166667  0.07552083  1.0
  Cr  Cr6  1  0.85416667  0.12500000  0.07552083  1.0
  Cr  Cr7  1  0.85416667  0.45833333  0.07552083  1.0
  Cr  Cr8  1  0.85416667  0.79166667  0.07552083  1.0
  Cr  Cr9  1  0.02083333  0.12500000  0.03385417  1.0
  Cr  Cr10  1  0.02083333  0.45833333  0.03385417  1.0
  Cr  Cr11  1  0.02083333  0.79166667  0.03385417  1.0
  Cr  Cr12  1  0.35416667  0.12500000  0.03385417  1.0
  Cr  Cr13  1  0.35416667  0.45833333  0.03385417  1.0
  Cr  Cr14  1  0.35416667  0.79166667  0.03385417  1.0
  Cr  Cr15  1  0.68750000  0.12500000  0.03385417  1.0
  Cr  Cr16  1  0.68750000  0.45833333  0.03385417  1.0
  Cr  Cr17  1  0.68750000  0.79166667  0.03385417  1.0
  Cr  Cr18  1  0.27083333  0.29166667  0.01302083  1.0
  Cr  Cr19  1  0.27083333  0.62500000  0.01302083  1.0
  Cr  Cr20  1  0.27083333  0.95833333  0.01302083  1.0
  Cr  Cr21  1  0.60416667  0.29166667  0.01302083  1.0
  Cr  Cr22  1  0.60416667  0.62500000  0.01302083  1.0
  Cr  Cr23  1  0.60416667  0.95833333  0.01302083  1.0
  Cr  Cr24  1  0.93750000  0.29166667  0.01302083  1.0
  Cr  Cr25  1  0.93750000  0.62500000  0.01302083  1.0
  Cr  Cr26  1  0.93750000  0.95833333  0.01302083  1.0
  Cr  Cr27  1  0.10416667  0.29166667  0.05468750  1.0
  Cr  Cr28  1  0.10416667  0.62500000  0.05468750  1.0
  Cr  Cr29  1  0.10416667  0.95833333  0.05468750  1.0
  Cr  Cr30  1  0.43750000  0.29166667  0.05468750  1.0
  Cr  Cr31  1  0.43750000  0.62500000  0.05468750  1.0
  Cr  Cr32  1  0.43750000  0.95833333  0.05468750  1.0
  Cr  Cr33  1  0.77083333  0.29166667  0.05468750  1.0
  Cr  Cr34  1  0.77083333  0.62500000  0.05468750  1.0
  Cr  Cr35  1  0.77083333  0.95833333  0.05468750  1.0
  Cr  Cr36  1  0.18750000  0.29166667  0.07552083  1.0
  Cr  Cr37  1  0.18750000  0.62500000  0.07552083  1.0
  Cr  Cr38  1  0.18750000  0.95833333  0.07552083  1.0
  Cr  Cr39  1  0.52083333  0.29166667  0.07552083  1.0
  Cr  Cr40  1  0.52083333  0.62500000  0.07552083  1.0
  Cr  Cr41  1  0.52083333  0.95833333  0.07552083  1.0
  Cr  Cr42  1  0.85416667  0.29166667  0.07552083  1.0
  Cr  Cr43  1  0.85416667  0.62500000  0.07552083  1.0
  Cr  Cr44  1  0.85416667  0.95833333  0.07552083  1.0
  Cr  Cr45  1  0.02083333  0.29166667  0.03385417  1.0
  Cr  Cr46  1  0.02083333  0.62500000  0.03385417  1.0
  Cr  Cr47  1  0.02083333  0.95833333  0.03385417  1.0
  Cr  Cr48  1  0.35416667  0.29166667  0.03385417  1.0
  Cr  Cr49  1  0.35416667  0.62500000  0.03385417  1.0
  Cr  Cr50  1  0.35416667  0.95833333  0.03385417  1.0
  Cr  Cr51  1  0.68750000  0.29166667  0.03385417  1.0
  Cr  Cr52  1  0.68750000  0.62500000  0.03385417  1.0
  Cr  Cr53  1  0.68750000  0.95833333  0.03385417  1.0
  Cr  Cr54  1  0.18750000  0.29166667  0.03385417  1.0
  Cr  Cr55  1  0.18750000  0.62500000  0.03385417  1.0
  Cr  Cr56  1  0.18750000  0.95833333  0.03385417  1.0
  Cr  Cr57  1  0.52083333  0.29166667  0.03385417  1.0
  Cr  Cr58  1  0.52083333  0.62500000  0.03385417  1.0
  Cr  Cr59  1  0.52083333  0.95833333  0.03385417  1.0
  Cr  Cr60  1  0.85416667  0.29166667  0.03385417  1.0
  Cr  Cr61  1  0.85416667  0.62500000  0.03385417  1.0
  Cr  Cr62  1  0.85416667  0.95833333  0.03385417  1.0
  Cr  Cr63  1  0.02083333  0.29166667  0.07552083  1.0
  Cr  Cr64  1  0.02083333  0.62500000  0.07552083  1.0
  Cr  Cr65  1  0.02083333  0.95833333  0.07552083  1.0
  Cr  Cr66  1  0.35416667  0.29166667  0.07552083  1.0
  Cr  Cr67  1  0.35416667  0.62500000  0.07552083  1.0
  Cr  Cr68  1  0.35416667  0.95833333  0.07552083  1.0
  Cr  Cr69  1  0.68750000  0.29166667  0.07552083  1.0
  Cr  Cr70  1  0.68750000  0.62500000  0.07552083  1.0
  Cr  Cr71  1  0.68750000  0.95833333  0.07552083  1.0
  Ni  Ni72  1  0.29166667  0.08333333  0.00781250  1.0
  Ni  Ni73  1  0.29166667  0.41666667  0.00781250  1.0
  Ni  Ni74  1  0.29166667  0.75000000  0.00781250  1.0
  Ni  Ni75  1  0.62500000  0.08333333  0.00781250  1.0
  Ni  Ni76  1  0.62500000  0.41666667  0.00781250  1.0
  Ni  Ni77  1  0.62500000  0.75000000  0.00781250  1.0
  Ni  Ni78  1  0.95833333  0.08333333  0.00781250  1.0
  Ni  Ni79  1  0.95833333  0.41666667  0.00781250  1.0
  Ni  Ni80  1  0.95833333  0.75000000  0.00781250  1.0
  Ni  Ni81  1  0.12500000  0.08333333  0.04947917  1.0
  Ni  Ni82  1  0.12500000  0.41666667  0.04947917  1.0
  Ni  Ni83  1  0.12500000  0.75000000  0.04947917  1.0
  Ni  Ni84  1  0.45833333  0.08333333  0.04947917  1.0
  Ni  Ni85  1  0.45833333  0.41666667  0.04947917  1.0
  Ni  Ni86  1  0.45833333  0.75000000  0.04947917  1.0
  Ni  Ni87  1  0.79166667  0.08333333  0.04947917  1.0
  Ni  Ni88  1  0.79166667  0.41666667  0.04947917  1.0
  Ni  Ni89  1  0.79166667  0.75000000  0.04947917  1.0
  Ni  Ni90  1  0.25000000  0.16666667  0.01822917  1.0
  Ni  Ni91  1  0.25000000  0.50000000  0.01822917  1.0
  Ni  Ni92  1  0.25000000  0.83333333  0.01822917  1.0
  Ni  Ni93  1  0.58333333  0.16666667  0.01822917  1.0
  Ni  Ni94  1  0.58333333  0.50000000  0.01822917  1.0
  Ni  Ni95  1  0.58333333  0.83333333  0.01822917  1.0
  Ni  Ni96  1  0.91666667  0.16666667  0.01822917  1.0
  Ni  Ni97  1  0.91666667  0.50000000  0.01822917  1.0
  Ni  Ni98  1  0.91666667  0.83333333  0.01822917  1.0
  Ni  Ni99  1  0.08333333  0.16666667  0.05989583  1.0
  Ni  Ni100  1  0.08333333  0.50000000  0.05989583  1.0
  Ni  Ni101  1  0.08333333  0.83333333  0.05989583  1.0
  Ni  Ni102  1  0.41666667  0.16666667  0.05989583  1.0
  Ni  Ni103  1  0.41666667  0.50000000  0.05989583  1.0
  Ni  Ni104  1  0.41666667  0.83333333  0.05989583  1.0
  Ni  Ni105  1  0.75000000  0.16666667  0.05989583  1.0
  Ni  Ni106  1  0.75000000  0.50000000  0.05989583  1.0
  Ni  Ni107  1  0.75000000  0.83333333  0.05989583  1.0
  Cr  Cr108  1  0.18750000  0.12500000  0.15885417  1.0
  Cr  Cr109  1  0.18750000  0.45833333  0.15885417  1.0
  Cr  Cr110  1  0.18750000  0.79166667  0.15885417  1.0
  Cr  Cr111  1  0.52083333  0.12500000  0.15885417  1.0
  Cr  Cr112  1  0.52083333  0.45833333  0.15885417  1.0
  Cr  Cr113  1  0.52083333  0.79166667  0.15885417  1.0
  Cr  Cr114  1  0.85416667  0.12500000  0.15885417  1.0
  Cr  Cr115  1  0.85416667  0.45833333  0.15885417  1.0
  Cr  Cr116  1  0.85416667  0.79166667  0.15885417  1.0
  Cr  Cr117  1  0.02083333  0.12500000  0.11718750  1.0
  Cr  Cr118  1  0.02083333  0.45833333  0.11718750  1.0
  Cr  Cr119  1  0.02083333  0.79166667  0.11718750  1.0
  Cr  Cr120  1  0.35416667  0.12500000  0.11718750  1.0
  Cr  Cr121  1  0.35416667  0.45833333  0.11718750  1.0
  Cr  Cr122  1  0.35416667  0.79166667  0.11718750  1.0
  Cr  Cr123  1  0.68750000  0.12500000  0.11718750  1.0
  Cr  Cr124  1  0.68750000  0.45833333  0.11718750  1.0
  Cr  Cr125  1  0.68750000  0.79166667  0.11718750  1.0
  Cr  Cr126  1  0.27083333  0.29166667  0.09635417  1.0
  Cr  Cr127  1  0.27083333  0.62500000  0.09635417  1.0
  Cr  Cr128  1  0.27083333  0.95833333  0.09635417  1.0
  Cr  Cr129  1  0.60416667  0.29166667  0.09635417  1.0
  Cr  Cr130  1  0.60416667  0.62500000  0.09635417  1.0
  Cr  Cr131  1  0.60416667  0.95833333  0.09635417  1.0
  Cr  Cr132  1  0.93750000  0.29166667  0.09635417  1.0
  Cr  Cr133  1  0.93750000  0.62500000  0.09635417  1.0
  Cr  Cr134  1  0.93750000  0.95833333  0.09635417  1.0
  Cr  Cr135  1  0.10416667  0.29166667  0.13802083  1.0
  Cr  Cr136  1  0.10416667  0.62500000  0.13802083  1.0
  Cr  Cr137  1  0.10416667  0.95833333  0.13802083  1.0
  Cr  Cr138  1  0.43750000  0.29166667  0.13802083  1.0
  Cr  Cr139  1  0.43750000  0.62500000  0.13802083  1.0
  Cr  Cr140  1  0.43750000  0.95833333  0.13802083  1.0
  Cr  Cr141  1  0.77083333  0.29166667  0.13802083  1.0
  Cr  Cr142  1  0.77083333  0.62500000  0.13802083  1.0
  Cr  Cr143  1  0.77083333  0.95833333  0.13802083  1.0
  Cr  Cr144  1  0.18750000  0.29166667  0.15885417  1.0
  Cr  Cr145  1  0.18750000  0.62500000  0.15885417  1.0
  Cr  Cr146  1  0.18750000  0.95833333  0.15885417  1.0
  Cr  Cr147  1  0.52083333  0.29166667  0.15885417  1.0
  Cr  Cr148  1  0.52083333  0.62500000  0.15885417  1.0
  Cr  Cr149  1  0.52083333  0.95833333  0.15885417  1.0
  Cr  Cr150  1  0.85416667  0.29166667  0.15885417  1.0
  Cr  Cr151  1  0.85416667  0.62500000  0.15885417  1.0
  Cr  Cr152  1  0.85416667  0.95833333  0.15885417  1.0
  Cr  Cr153  1  0.02083333  0.29166667  0.11718750  1.0
  Cr  Cr154  1  0.02083333  0.62500000  0.11718750  1.0
  Cr  Cr155  1  0.02083333  0.95833333  0.11718750  1.0
  Cr  Cr156  1  0.35416667  0.29166667  0.11718750  1.0
  Cr  Cr157  1  0.35416667  0.62500000  0.11718750  1.0
  Cr  Cr158  1  0.35416667  0.95833333  0.11718750  1.0
  Cr  Cr159  1  0.68750000  0.29166667  0.11718750  1.0
  Cr  Cr160  1  0.68750000  0.62500000  0.11718750  1.0
  Cr  Cr161  1  0.68750000  0.95833333  0.11718750  1.0
  Cr  Cr162  1  0.18750000  0.29166667  0.11718750  1.0
  Cr  Cr163  1  0.18750000  0.62500000  0.11718750  1.0
  Cr  Cr164  1  0.18750000  0.95833333  0.11718750  1.0
  Cr  Cr165  1  0.52083333  0.29166667  0.11718750  1.0
  Cr  Cr166  1  0.52083333  0.62500000  0.11718750  1.0
  Cr  Cr167  1  0.52083333  0.95833333  0.11718750  1.0
  Cr  Cr168  1  0.85416667  0.29166667  0.11718750  1.0
  Cr  Cr169  1  0.85416667  0.62500000  0.11718750  1.0
  Cr  Cr170  1  0.85416667  0.95833333  0.11718750  1.0
  Cr  Cr171  1  0.02083333  0.29166667  0.15885417  1.0
  Cr  Cr172  1  0.02083333  0.62500000  0.15885417  1.0
  Cr  Cr173  1  0.02083333  0.95833333  0.15885417  1.0
  Cr  Cr174  1  0.35416667  0.29166667  0.15885417  1.0
  Cr  Cr175  1  0.35416667  0.62500000  0.15885417  1.0
  Cr  Cr176  1  0.35416667  0.95833333  0.15885417  1.0
  Cr  Cr177  1  0.68750000  0.29166667  0.15885417  1.0
  Cr  Cr178  1  0.68750000  0.62500000  0.15885417  1.0
  Cr  Cr179  1  0.68750000  0.95833333  0.15885417  1.0
  Ni  Ni180  1  0.29166667  0.08333333  0.09114583  1.0
  Ni  Ni181  1  0.29166667  0.41666667  0.09114583  1.0
  Ni  Ni182  1  0.29166667  0.75000000  0.09114583  1.0
  Ni  Ni183  1  0.62500000  0.08333333  0.09114583  1.0
  Ni  Ni184  1  0.62500000  0.41666667  0.09114583  1.0
  Ni  Ni185  1  0.62500000  0.75000000  0.09114583  1.0
  Ni  Ni186  1  0.95833333  0.08333333  0.09114583  1.0
  Ni  Ni187  1  0.95833333  0.41666667  0.09114583  1.0
  Ni  Ni188  1  0.95833333  0.75000000  0.09114583  1.0
  Ni  Ni189  1  0.12500000  0.08333333  0.13281250  1.0
  Ni  Ni190  1  0.12500000  0.41666667  0.13281250  1.0
  Ni  Ni191  1  0.12500000  0.75000000  0.13281250  1.0
  Ni  Ni192  1  0.45833333  0.08333333  0.13281250  1.0
  Ni  Ni193  1  0.45833333  0.41666667  0.13281250  1.0
  Ni  Ni194  1  0.45833333  0.75000000  0.13281250  1.0
  Ni  Ni195  1  0.79166667  0.08333333  0.13281250  1.0
  Ni  Ni196  1  0.79166667  0.41666667  0.13281250  1.0
  Ni  Ni197  1  0.79166667  0.75000000  0.13281250  1.0
  Ni  Ni198  1  0.25000000  0.16666667  0.10156250  1.0
  Ni  Ni199  1  0.25000000  0.50000000  0.10156250  1.0
  Ni  Ni200  1  0.25000000  0.83333333  0.10156250  1.0
  Ni  Ni201  1  0.58333333  0.16666667  0.10156250  1.0
  Ni  Ni202  1  0.58333333  0.50000000  0.10156250  1.0
  Ni  Ni203  1  0.58333333  0.83333333  0.10156250  1.0
  Ni  Ni204  1  0.91666667  0.16666667  0.10156250  1.0
  Ni  Ni205  1  0.91666667  0.50000000  0.10156250  1.0
  Ni  Ni206  1  0.91666667  0.83333333  0.10156250  1.0
  Ni  Ni207  1  0.08333333  0.16666667  0.14322917  1.0
  Ni  Ni208  1  0.08333333  0.50000000  0.14322917  1.0
  Ni  Ni209  1  0.08333333  0.83333333  0.14322917  1.0
  Ni  Ni210  1  0.41666667  0.16666667  0.14322917  1.0
  Ni  Ni211  1  0.41666667  0.50000000  0.14322917  1.0
  Ni  Ni212  1  0.41666667  0.83333333  0.14322917  1.0
  Ni  Ni213  1  0.75000000  0.16666667  0.14322917  1.0
  Ni  Ni214  1  0.75000000  0.50000000  0.14322917  1.0
  Ni  Ni215  1  0.75000000  0.83333333  0.14322917  1.0
  Cr  Cr216  1  0.18750000  0.12500000  0.24218750  1.0
  Cr  Cr217  1  0.18750000  0.45833333  0.24218750  1.0
  Cr  Cr218  1  0.18750000  0.79166667  0.24218750  1.0
  Cr  Cr219  1  0.52083333  0.12500000  0.24218750  1.0
  Cr  Cr220  1  0.52083333  0.45833333  0.24218750  1.0
  Cr  Cr221  1  0.52083333  0.79166667  0.24218750  1.0
  Cr  Cr222  1  0.85416667  0.12500000  0.24218750  1.0
  Cr  Cr223  1  0.85416667  0.45833333  0.24218750  1.0
  Cr  Cr224  1  0.85416667  0.79166667  0.24218750  1.0
  Cr  Cr225  1  0.02083333  0.12500000  0.20052083  1.0
  Cr  Cr226  1  0.02083333  0.45833333  0.20052083  1.0
  Cr  Cr227  1  0.02083333  0.79166667  0.20052083  1.0
  Cr  Cr228  1  0.35416667  0.12500000  0.20052083  1.0
  Cr  Cr229  1  0.35416667  0.45833333  0.20052083  1.0
  Cr  Cr230  1  0.35416667  0.79166667  0.20052083  1.0
  Cr  Cr231  1  0.68750000  0.12500000  0.20052083  1.0
  Cr  Cr232  1  0.68750000  0.45833333  0.20052083  1.0
  Cr  Cr233  1  0.68750000  0.79166667  0.20052083  1.0
  Cr  Cr234  1  0.27083333  0.29166667  0.17968750  1.0
  Cr  Cr235  1  0.27083333  0.62500000  0.17968750  1.0
  Cr  Cr236  1  0.27083333  0.95833333  0.17968750  1.0
  Cr  Cr237  1  0.60416667  0.29166667  0.17968750  1.0
  Cr  Cr238  1  0.60416667  0.62500000  0.17968750  1.0
  Cr  Cr239  1  0.60416667  0.95833333  0.17968750  1.0
  Cr  Cr240  1  0.93750000  0.29166667  0.17968750  1.0
  Cr  Cr241  1  0.93750000  0.62500000  0.17968750  1.0
  Cr  Cr242  1  0.93750000  0.95833333  0.17968750  1.0
  Cr  Cr243  1  0.10416667  0.29166667  0.22135417  1.0
  Cr  Cr244  1  0.10416667  0.62500000  0.22135417  1.0
  Cr  Cr245  1  0.10416667  0.95833333  0.22135417  1.0
  Cr  Cr246  1  0.43750000  0.29166667  0.22135417  1.0
  Cr  Cr247  1  0.43750000  0.62500000  0.22135417  1.0
  Cr  Cr248  1  0.43750000  0.95833333  0.22135417  1.0
  Cr  Cr249  1  0.77083333  0.29166667  0.22135417  1.0
  Cr  Cr250  1  0.77083333  0.62500000  0.22135417  1.0
  Cr  Cr251  1  0.77083333  0.95833333  0.22135417  1.0
  Cr  Cr252  1  0.18750000  0.29166667  0.24218750  1.0
  Cr  Cr253  1  0.18750000  0.62500000  0.24218750  1.0
  Cr  Cr254  1  0.18750000  0.95833333  0.24218750  1.0
  Cr  Cr255  1  0.52083333  0.29166667  0.24218750  1.0
  Cr  Cr256  1  0.52083333  0.62500000  0.24218750  1.0
  Cr  Cr257  1  0.52083333  0.95833333  0.24218750  1.0
  Cr  Cr258  1  0.85416667  0.29166667  0.24218750  1.0
  Cr  Cr259  1  0.85416667  0.62500000  0.24218750  1.0
  Cr  Cr260  1  0.85416667  0.95833333  0.24218750  1.0
  Cr  Cr261  1  0.02083333  0.29166667  0.20052083  1.0
  Cr  Cr262  1  0.02083333  0.62500000  0.20052083  1.0
  Cr  Cr263  1  0.02083333  0.95833333  0.20052083  1.0
  Cr  Cr264  1  0.35416667  0.29166667  0.20052083  1.0
  Cr  Cr265  1  0.35416667  0.62500000  0.20052083  1.0
  Cr  Cr266  1  0.35416667  0.95833333  0.20052083  1.0
  Cr  Cr267  1  0.68750000  0.29166667  0.20052083  1.0
  Cr  Cr268  1  0.68750000  0.62500000  0.20052083  1.0
  Cr  Cr269  1  0.68750000  0.95833333  0.20052083  1.0
  Cr  Cr270  1  0.18750000  0.29166667  0.20052083  1.0
  Cr  Cr271  1  0.18750000  0.62500000  0.20052083  1.0
  Cr  Cr272  1  0.18750000  0.95833333  0.20052083  1.0
  Cr  Cr273  1  0.52083333  0.29166667  0.20052083  1.0
  Cr  Cr274  1  0.52083333  0.62500000  0.20052083  1.0
  Cr  Cr275  1  0.52083333  0.95833333  0.20052083  1.0
  Cr  Cr276  1  0.85416667  0.29166667  0.20052083  1.0
  Cr  Cr277  1  0.85416667  0.62500000  0.20052083  1.0
  Cr  Cr278  1  0.85416667  0.95833333  0.20052083  1.0
  Cr  Cr279  1  0.02083333  0.29166667  0.24218750  1.0
  Cr  Cr280  1  0.02083333  0.62500000  0.24218750  1.0
  Cr  Cr281  1  0.02083333  0.95833333  0.24218750  1.0
  Cr  Cr282  1  0.35416667  0.29166667  0.24218750  1.0
  Cr  Cr283  1  0.35416667  0.62500000  0.24218750  1.0
  Cr  Cr284  1  0.35416667  0.95833333  0.24218750  1.0
  Cr  Cr285  1  0.68750000  0.29166667  0.24218750  1.0
  Cr  Cr286  1  0.68750000  0.62500000  0.24218750  1.0
  Cr  Cr287  1  0.68750000  0.95833333  0.24218750  1.0
  Ni  Ni288  1  0.29166667  0.08333333  0.17447917  1.0
  Ni  Ni289  1  0.29166667  0.41666667  0.17447917  1.0
  Ni  Ni290  1  0.29166667  0.75000000  0.17447917  1.0
  Ni  Ni291  1  0.62500000  0.08333333  0.17447917  1.0
  Ni  Ni292  1  0.62500000  0.41666667  0.17447917  1.0
  Ni  Ni293  1  0.62500000  0.75000000  0.17447917  1.0
  Ni  Ni294  1  0.95833333  0.08333333  0.17447917  1.0
  Ni  Ni295  1  0.95833333  0.41666667  0.17447917  1.0
  Ni  Ni296  1  0.95833333  0.75000000  0.17447917  1.0
  Ni  Ni297  1  0.12500000  0.08333333  0.21614583  1.0
  Ni  Ni298  1  0.12500000  0.41666667  0.21614583  1.0
  Ni  Ni299  1  0.12500000  0.75000000  0.21614583  1.0
  Ni  Ni300  1  0.45833333  0.08333333  0.21614583  1.0
  Ni  Ni301  1  0.45833333  0.41666667  0.21614583  1.0
  Ni  Ni302  1  0.45833333  0.75000000  0.21614583  1.0
  Ni  Ni303  1  0.79166667  0.08333333  0.21614583  1.0
  Ni  Ni304  1  0.79166667  0.41666667  0.21614583  1.0
  Ni  Ni305  1  0.79166667  0.75000000  0.21614583  1.0
  Ni  Ni306  1  0.25000000  0.16666667  0.18489583  1.0
  Ni  Ni307  1  0.25000000  0.50000000  0.18489583  1.0
  Ni  Ni308  1  0.25000000  0.83333333  0.18489583  1.0
  Ni  Ni309  1  0.58333333  0.16666667  0.18489583  1.0
  Ni  Ni310  1  0.58333333  0.50000000  0.18489583  1.0
  Ni  Ni311  1  0.58333333  0.83333333  0.18489583  1.0
  Ni  Ni312  1  0.91666667  0.16666667  0.18489583  1.0
  Ni  Ni313  1  0.91666667  0.50000000  0.18489583  1.0
  Ni  Ni314  1  0.91666667  0.83333333  0.18489583  1.0
  Ni  Ni315  1  0.08333333  0.16666667  0.22656250  1.0
  Ni  Ni316  1  0.08333333  0.50000000  0.22656250  1.0
  Ni  Ni317  1  0.08333333  0.83333333  0.22656250  1.0
  Ni  Ni318  1  0.41666667  0.16666667  0.22656250  1.0
  Ni  Ni319  1  0.41666667  0.50000000  0.22656250  1.0
  Ni  Ni320  1  0.41666667  0.83333333  0.22656250  1.0
  Ni  Ni321  1  0.75000000  0.16666667  0.22656250  1.0
  Ni  Ni322  1  0.75000000  0.50000000  0.22656250  1.0
  Ni  Ni323  1  0.75000000  0.83333333  0.22656250  1.0
  Cr  Cr324  1  0.18750000  0.12500000  0.32552083  1.0
  Cr  Cr325  1  0.18750000  0.45833333  0.32552083  1.0
  Cr  Cr326  1  0.18750000  0.79166667  0.32552083  1.0
  Cr  Cr327  1  0.52083333  0.12500000  0.32552083  1.0
  Cr  Cr328  1  0.52083333  0.45833333  0.32552083  1.0
  Cr  Cr329  1  0.52083333  0.79166667  0.32552083  1.0
  Cr  Cr330  1  0.85416667  0.12500000  0.32552083  1.0
  Cr  Cr331  1  0.85416667  0.45833333  0.32552083  1.0
  Cr  Cr332  1  0.85416667  0.79166667  0.32552083  1.0
  Cr  Cr333  1  0.02083333  0.12500000  0.28385417  1.0
  Cr  Cr334  1  0.02083333  0.45833333  0.28385417  1.0
  Cr  Cr335  1  0.02083333  0.79166667  0.28385417  1.0
  Cr  Cr336  1  0.35416667  0.12500000  0.28385417  1.0
  Cr  Cr337  1  0.35416667  0.45833333  0.28385417  1.0
  Cr  Cr338  1  0.35416667  0.79166667  0.28385417  1.0
  Cr  Cr339  1  0.68750000  0.12500000  0.28385417  1.0
  Cr  Cr340  1  0.68750000  0.45833333  0.28385417  1.0
  Cr  Cr341  1  0.68750000  0.79166667  0.28385417  1.0
  Cr  Cr342  1  0.27083333  0.29166667  0.26302083  1.0
  Cr  Cr343  1  0.27083333  0.62500000  0.26302083  1.0
  Cr  Cr344  1  0.27083333  0.95833333  0.26302083  1.0
  Cr  Cr345  1  0.60416667  0.29166667  0.26302083  1.0
  Cr  Cr346  1  0.60416667  0.62500000  0.26302083  1.0
  Cr  Cr347  1  0.60416667  0.95833333  0.26302083  1.0
  Cr  Cr348  1  0.93750000  0.29166667  0.26302083  1.0
  Cr  Cr349  1  0.93750000  0.62500000  0.26302083  1.0
  Cr  Cr350  1  0.93750000  0.95833333  0.26302083  1.0
  Cr  Cr351  1  0.10416667  0.29166667  0.30468750  1.0
  Cr  Cr352  1  0.10416667  0.62500000  0.30468750  1.0
  Cr  Cr353  1  0.10416667  0.95833333  0.30468750  1.0
  Cr  Cr354  1  0.43750000  0.29166667  0.30468750  1.0
  Cr  Cr355  1  0.43750000  0.62500000  0.30468750  1.0
  Cr  Cr356  1  0.43750000  0.95833333  0.30468750  1.0
  Cr  Cr357  1  0.77083333  0.29166667  0.30468750  1.0
  Cr  Cr358  1  0.77083333  0.62500000  0.30468750  1.0
  Cr  Cr359  1  0.77083333  0.95833333  0.30468750  1.0
  Cr  Cr360  1  0.18750000  0.29166667  0.32552083  1.0
  Cr  Cr361  1  0.18750000  0.62500000  0.32552083  1.0
  Cr  Cr362  1  0.18750000  0.95833333  0.32552083  1.0
  Cr  Cr363  1  0.52083333  0.29166667  0.32552083  1.0
  Cr  Cr364  1  0.52083333  0.62500000  0.32552083  1.0
  Cr  Cr365  1  0.52083333  0.95833333  0.32552083  1.0
  Cr  Cr366  1  0.85416667  0.29166667  0.32552083  1.0
  Cr  Cr367  1  0.85416667  0.62500000  0.32552083  1.0
  Cr  Cr368  1  0.85416667  0.95833333  0.32552083  1.0
  Cr  Cr369  1  0.02083333  0.29166667  0.28385417  1.0
  Cr  Cr370  1  0.02083333  0.62500000  0.28385417  1.0
  Cr  Cr371  1  0.02083333  0.95833333  0.28385417  1.0
  Cr  Cr372  1  0.35416667  0.29166667  0.28385417  1.0
  Cr  Cr373  1  0.35416667  0.62500000  0.28385417  1.0
  Cr  Cr374  1  0.35416667  0.95833333  0.28385417  1.0
  Cr  Cr375  1  0.68750000  0.29166667  0.28385417  1.0
  Cr  Cr376  1  0.68750000  0.62500000  0.28385417  1.0
  Cr  Cr377  1  0.68750000  0.95833333  0.28385417  1.0
  Cr  Cr378  1  0.18750000  0.29166667  0.28385417  1.0
  Cr  Cr379  1  0.18750000  0.62500000  0.28385417  1.0
  Cr  Cr380  1  0.18750000  0.95833333  0.28385417  1.0
  Cr  Cr381  1  0.52083333  0.29166667  0.28385417  1.0
  Cr  Cr382  1  0.52083333  0.62500000  0.28385417  1.0
  Cr  Cr383  1  0.52083333  0.95833333  0.28385417  1.0
  Cr  Cr384  1  0.85416667  0.29166667  0.28385417  1.0
  Cr  Cr385  1  0.85416667  0.62500000  0.28385417  1.0
  Cr  Cr386  1  0.85416667  0.95833333  0.28385417  1.0
  Cr  Cr387  1  0.02083333  0.29166667  0.32552083  1.0
  Cr  Cr388  1  0.02083333  0.62500000  0.32552083  1.0
  Cr  Cr389  1  0.02083333  0.95833333  0.32552083  1.0
  Cr  Cr390  1  0.35416667  0.29166667  0.32552083  1.0
  Cr  Cr391  1  0.35416667  0.62500000  0.32552083  1.0
  Cr  Cr392  1  0.35416667  0.95833333  0.32552083  1.0
  Cr  Cr393  1  0.68750000  0.29166667  0.32552083  1.0
  Cr  Cr394  1  0.68750000  0.62500000  0.32552083  1.0
  Cr  Cr395  1  0.68750000  0.95833333  0.32552083  1.0
  Ni  Ni396  1  0.29166667  0.08333333  0.25781250  1.0
  Ni  Ni397  1  0.29166667  0.41666667  0.25781250  1.0
  Ni  Ni398  1  0.29166667  0.75000000  0.25781250  1.0
  Ni  Ni399  1  0.62500000  0.08333333  0.25781250  1.0
  Ni  Ni400  1  0.62500000  0.41666667  0.25781250  1.0
  Ni  Ni401  1  0.62500000  0.75000000  0.25781250  1.0
  Ni  Ni402  1  0.95833333  0.08333333  0.25781250  1.0
  Ni  Ni403  1  0.95833333  0.41666667  0.25781250  1.0
  Ni  Ni404  1  0.95833333  0.75000000  0.25781250  1.0
  Ni  Ni405  1  0.12500000  0.08333333  0.29947917  1.0
  Ni  Ni406  1  0.12500000  0.41666667  0.29947917  1.0
  Ni  Ni407  1  0.12500000  0.75000000  0.29947917  1.0
  Ni  Ni408  1  0.45833333  0.08333333  0.29947917  1.0
  Ni  Ni409  1  0.45833333  0.41666667  0.29947917  1.0
  Ni  Ni410  1  0.45833333  0.75000000  0.29947917  1.0
  Ni  Ni411  1  0.79166667  0.08333333  0.29947917  1.0
  Ni  Ni412  1  0.79166667  0.41666667  0.29947917  1.0
  Ni  Ni413  1  0.79166667  0.75000000  0.29947917  1.0
  Ni  Ni414  1  0.25000000  0.16666667  0.26822917  1.0
  Ni  Ni415  1  0.25000000  0.50000000  0.26822917  1.0
  Ni  Ni416  1  0.25000000  0.83333333  0.26822917  1.0
  Ni  Ni417  1  0.58333333  0.16666667  0.26822917  1.0
  Ni  Ni418  1  0.58333333  0.50000000  0.26822917  1.0
  Ni  Ni419  1  0.58333333  0.83333333  0.26822917  1.0
  Ni  Ni420  1  0.91666667  0.16666667  0.26822917  1.0
  Ni  Ni421  1  0.91666667  0.50000000  0.26822917  1.0
  Ni  Ni422  1  0.91666667  0.83333333  0.26822917  1.0
  Ni  Ni423  1  0.08333333  0.16666667  0.30989583  1.0
  Ni  Ni424  1  0.08333333  0.50000000  0.30989583  1.0
  Ni  Ni425  1  0.08333333  0.83333333  0.30989583  1.0
  Ni  Ni426  1  0.41666667  0.16666667  0.30989583  1.0
  Ni  Ni427  1  0.41666667  0.50000000  0.30989583  1.0
  Ni  Ni428  1  0.41666667  0.83333333  0.30989583  1.0
  Ni  Ni429  1  0.75000000  0.16666667  0.30989583  1.0
  Ni  Ni430  1  0.75000000  0.50000000  0.30989583  1.0
  Ni  Ni431  1  0.75000000  0.83333333  0.30989583  1.0
  Cr  Cr432  1  0.18750000  0.12500000  0.40885417  1.0
  Cr  Cr433  1  0.18750000  0.45833333  0.40885417  1.0
  Cr  Cr434  1  0.18750000  0.79166667  0.40885417  1.0
  Cr  Cr435  1  0.52083333  0.12500000  0.40885417  1.0
  Cr  Cr436  1  0.52083333  0.45833333  0.40885417  1.0
  Cr  Cr437  1  0.52083333  0.79166667  0.40885417  1.0
  Cr  Cr438  1  0.85416667  0.12500000  0.40885417  1.0
  Cr  Cr439  1  0.85416667  0.45833333  0.40885417  1.0
  Cr  Cr440  1  0.85416667  0.79166667  0.40885417  1.0
  Cr  Cr441  1  0.02083333  0.12500000  0.36718750  1.0
  Cr  Cr442  1  0.02083333  0.45833333  0.36718750  1.0
  Cr  Cr443  1  0.02083333  0.79166667  0.36718750  1.0
  Cr  Cr444  1  0.35416667  0.12500000  0.36718750  1.0
  Cr  Cr445  1  0.35416667  0.45833333  0.36718750  1.0
  Cr  Cr446  1  0.35416667  0.79166667  0.36718750  1.0
  Cr  Cr447  1  0.68750000  0.12500000  0.36718750  1.0
  Cr  Cr448  1  0.68750000  0.45833333  0.36718750  1.0
  Cr  Cr449  1  0.68750000  0.79166667  0.36718750  1.0
  Cr  Cr450  1  0.27083333  0.29166667  0.34635417  1.0
  Cr  Cr451  1  0.27083333  0.62500000  0.34635417  1.0
  Cr  Cr452  1  0.27083333  0.95833333  0.34635417  1.0
  Cr  Cr453  1  0.60416667  0.29166667  0.34635417  1.0
  Cr  Cr454  1  0.60416667  0.62500000  0.34635417  1.0
  Cr  Cr455  1  0.60416667  0.95833333  0.34635417  1.0
  Cr  Cr456  1  0.93750000  0.29166667  0.34635417  1.0
  Cr  Cr457  1  0.93750000  0.62500000  0.34635417  1.0
  Cr  Cr458  1  0.93750000  0.95833333  0.34635417  1.0
  Cr  Cr459  1  0.10416667  0.29166667  0.38802083  1.0
  Cr  Cr460  1  0.10416667  0.62500000  0.38802083  1.0
  Cr  Cr461  1  0.10416667  0.95833333  0.38802083  1.0
  Cr  Cr462  1  0.43750000  0.29166667  0.38802083  1.0
  Cr  Cr463  1  0.43750000  0.62500000  0.38802083  1.0
  Cr  Cr464  1  0.43750000  0.95833333  0.38802083  1.0
  Cr  Cr465  1  0.77083333  0.29166667  0.38802083  1.0
  Cr  Cr466  1  0.77083333  0.62500000  0.38802083  1.0
  Cr  Cr467  1  0.77083333  0.95833333  0.38802083  1.0
  Cr  Cr468  1  0.18750000  0.29166667  0.40885417  1.0
  Cr  Cr469  1  0.18750000  0.62500000  0.40885417  1.0
  Cr  Cr470  1  0.18750000  0.95833333  0.40885417  1.0
  Cr  Cr471  1  0.52083333  0.29166667  0.40885417  1.0
  Cr  Cr472  1  0.52083333  0.62500000  0.40885417  1.0
  Cr  Cr473  1  0.52083333  0.95833333  0.40885417  1.0
  Cr  Cr474  1  0.85416667  0.29166667  0.40885417  1.0
  Cr  Cr475  1  0.85416667  0.62500000  0.40885417  1.0
  Cr  Cr476  1  0.85416667  0.95833333  0.40885417  1.0
  Cr  Cr477  1  0.02083333  0.29166667  0.36718750  1.0
  Cr  Cr478  1  0.02083333  0.62500000  0.36718750  1.0
  Cr  Cr479  1  0.02083333  0.95833333  0.36718750  1.0
  Cr  Cr480  1  0.35416667  0.29166667  0.36718750  1.0
  Cr  Cr481  1  0.35416667  0.62500000  0.36718750  1.0
  Cr  Cr482  1  0.35416667  0.95833333  0.36718750  1.0
  Cr  Cr483  1  0.68750000  0.29166667  0.36718750  1.0
  Cr  Cr484  1  0.68750000  0.62500000  0.36718750  1.0
  Cr  Cr485  1  0.68750000  0.95833333  0.36718750  1.0
  Cr  Cr486  1  0.18750000  0.29166667  0.36718750  1.0
  Cr  Cr487  1  0.18750000  0.62500000  0.36718750  1.0
  Cr  Cr488  1  0.18750000  0.95833333  0.36718750  1.0
  Cr  Cr489  1  0.52083333  0.29166667  0.36718750  1.0
  Cr  Cr490  1  0.52083333  0.62500000  0.36718750  1.0
  Cr  Cr491  1  0.52083333  0.95833333  0.36718750  1.0
  Cr  Cr492  1  0.85416667  0.29166667  0.36718750  1.0
  Cr  Cr493  1  0.85416667  0.62500000  0.36718750  1.0
  Cr  Cr494  1  0.85416667  0.95833333  0.36718750  1.0
  Cr  Cr495  1  0.02083333  0.29166667  0.40885417  1.0
  Cr  Cr496  1  0.02083333  0.62500000  0.40885417  1.0
  Cr  Cr497  1  0.02083333  0.95833333  0.40885417  1.0
  Cr  Cr498  1  0.35416667  0.29166667  0.40885417  1.0
  Cr  Cr499  1  0.35416667  0.62500000  0.40885417  1.0
  Cr  Cr500  1  0.35416667  0.95833333  0.40885417  1.0
  Cr  Cr501  1  0.68750000  0.29166667  0.40885417  1.0
  Cr  Cr502  1  0.68750000  0.62500000  0.40885417  1.0
  Cr  Cr503  1  0.68750000  0.95833333  0.40885417  1.0
  Ni  Ni504  1  0.29166667  0.08333333  0.34114583  1.0
  Ni  Ni505  1  0.29166667  0.41666667  0.34114583  1.0
  Ni  Ni506  1  0.29166667  0.75000000  0.34114583  1.0
  Ni  Ni507  1  0.62500000  0.08333333  0.34114583  1.0
  Ni  Ni508  1  0.62500000  0.41666667  0.34114583  1.0
  Ni  Ni509  1  0.62500000  0.75000000  0.34114583  1.0
  Ni  Ni510  1  0.95833333  0.08333333  0.34114583  1.0
  Ni  Ni511  1  0.95833333  0.41666667  0.34114583  1.0
  Ni  Ni512  1  0.95833333  0.75000000  0.34114583  1.0
  Ni  Ni513  1  0.12500000  0.08333333  0.38281250  1.0
  Ni  Ni514  1  0.12500000  0.41666667  0.38281250  1.0
  Ni  Ni515  1  0.12500000  0.75000000  0.38281250  1.0
  Ni  Ni516  1  0.45833333  0.08333333  0.38281250  1.0
  Ni  Ni517  1  0.45833333  0.41666667  0.38281250  1.0
  Ni  Ni518  1  0.45833333  0.75000000  0.38281250  1.0
  Ni  Ni519  1  0.79166667  0.08333333  0.38281250  1.0
  Ni  Ni520  1  0.79166667  0.41666667  0.38281250  1.0
  Ni  Ni521  1  0.79166667  0.75000000  0.38281250  1.0
  Ni  Ni522  1  0.25000000  0.16666667  0.35156250  1.0
  Ni  Ni523  1  0.25000000  0.50000000  0.35156250  1.0
  Ni  Ni524  1  0.25000000  0.83333333  0.35156250  1.0
  Ni  Ni525  1  0.58333333  0.16666667  0.35156250  1.0
  Ni  Ni526  1  0.58333333  0.50000000  0.35156250  1.0
  Ni  Ni527  1  0.58333333  0.83333333  0.35156250  1.0
  Ni  Ni528  1  0.91666667  0.16666667  0.35156250  1.0
  Ni  Ni529  1  0.91666667  0.50000000  0.35156250  1.0
  Ni  Ni530  1  0.91666667  0.83333333  0.35156250  1.0
  Ni  Ni531  1  0.08333333  0.16666667  0.39322917  1.0
  Ni  Ni532  1  0.08333333  0.50000000  0.39322917  1.0
  Ni  Ni533  1  0.08333333  0.83333333  0.39322917  1.0
  Ni  Ni534  1  0.41666667  0.16666667  0.39322917  1.0
  Ni  Ni535  1  0.41666667  0.50000000  0.39322917  1.0
  Ni  Ni536  1  0.41666667  0.83333333  0.39322917  1.0
  Ni  Ni537  1  0.75000000  0.16666667  0.39322917  1.0
  Ni  Ni538  1  0.75000000  0.50000000  0.39322917  1.0
  Ni  Ni539  1  0.75000000  0.83333333  0.39322917  1.0
