# generated using pymatgen
data_Cr3Ni
_symmetry_space_group_name_H-M   'P 1'
_cell_length_a   17.27959801
_cell_length_b   21.16309904
_cell_length_c   25.75890385
_cell_angle_alpha   90.00000000
_cell_angle_beta   90.00000000
_cell_angle_gamma   114.09484255
_symmetry_Int_Tables_number   1
_chemical_formula_structural   Cr3Ni
_chemical_formula_sum   'Cr216 Ni72'
_cell_volume   8599.03376812
_cell_formula_units_Z   72
loop_
 _symmetry_equiv_pos_site_id
 _symmetry_equiv_pos_as_xyz
  1  'x, y, z'
loop_
 _atom_site_type_symbol
 _atom_site_label
 _atom_site_symmetry_multiplicity
 _atom_site_fract_x
 _atom_site_fract_y
 _atom_site_fract_z
 _atom_site_occupancy
  Cr  Cr0  1  0.20833333  0.29166667  0.06250000  1.0
  Cr  Cr1  1  0.20833333  0.62500000  0.06250000  1.0
  Cr  Cr2  1  0.20833333  0.95833333  0.06250000  1.0
  Cr  Cr3  1  0.54166667  0.29166667  0.06250000  1.0
  Cr  Cr4  1  0.54166667  0.62500000  0.06250000  1.0
  Cr  Cr5  1  0.54166667  0.95833333  0.06250000  1.0
  Cr  Cr6  1  0.87500000  0.29166667  0.06250000  1.0
  Cr  Cr7  1  0.87500000  0.62500000  0.06250000  1.0
  Cr  Cr8  1  0.87500000  0.95833333  0.06250000  1.0
  Cr  Cr9  1  0.10833333  0.09166667  0.01250000  1.0
  Cr  Cr10  1  0.10833333  0.42500000  0.01250000  1.0
  Cr  Cr11  1  0.10833333  0.75833333  0.01250000  1.0
  Cr  Cr12  1  0.44166667  0.09166667  0.01250000  1.0
  Cr  Cr13  1  0.44166667  0.42500000  0.01250000  1.0
  Cr  Cr14  1  0.44166667  0.75833333  0.01250000  1.0
  Cr  Cr15  1  0.77500000  0.09166667  0.01250000  1.0
  Cr  Cr16  1  0.77500000  0.42500000  0.01250000  1.0
  Cr  Cr17  1  0.77500000  0.75833333  0.01250000  1.0
  Cr  Cr18  1  0.27500000  0.09166667  0.01250000  1.0
  Cr  Cr19  1  0.27500000  0.42500000  0.01250000  1.0
  Cr  Cr20  1  0.27500000  0.75833333  0.01250000  1.0
  Cr  Cr21  1  0.60833333  0.09166667  0.01250000  1.0
  Cr  Cr22  1  0.60833333  0.42500000  0.01250000  1.0
  Cr  Cr23  1  0.60833333  0.75833333  0.01250000  1.0
  Cr  Cr24  1  0.94166667  0.09166667  0.01250000  1.0
  Cr  Cr25  1  0.94166667  0.42500000  0.01250000  1.0
  Cr  Cr26  1  0.94166667  0.75833333  0.01250000  1.0
  Cr  Cr27  1  0.04166667  0.29166667  0.06250000  1.0
  Cr  Cr28  1  0.04166667  0.62500000  0.06250000  1.0
  Cr  Cr29  1  0.04166667  0.95833333  0.06250000  1.0
  Cr  Cr30  1  0.37500000  0.29166667  0.06250000  1.0
  Cr  Cr31  1  0.37500000  0.62500000  0.06250000  1.0
  Cr  Cr32  1  0.37500000  0.95833333  0.06250000  1.0
  Cr  Cr33  1  0.70833333  0.29166667  0.06250000  1.0
  Cr  Cr34  1  0.70833333  0.62500000  0.06250000  1.0
  Cr  Cr35  1  0.70833333  0.95833333  0.06250000  1.0
  Cr  Cr36  1  0.00833333  0.05833333  0.08750000  1.0
  Cr  Cr37  1  0.00833333  0.39166667  0.08750000  1.0
  Cr  Cr38  1  0.00833333  0.72500000  0.08750000  1.0
  Cr  Cr39  1  0.34166667  0.05833333  0.08750000  1.0
  Cr  Cr40  1  0.34166667  0.39166667  0.08750000  1.0
  Cr  Cr41  1  0.34166667  0.72500000  0.08750000  1.0
  Cr  Cr42  1  0.67500000  0.05833333  0.08750000  1.0
  Cr  Cr43  1  0.67500000  0.39166667  0.08750000  1.0
  Cr  Cr44  1  0.67500000  0.72500000  0.08750000  1.0
  Cr  Cr45  1  0.24166667  0.19166667  0.03750000  1.0
  Cr  Cr46  1  0.24166667  0.52500000  0.03750000  1.0
  Cr  Cr47  1  0.24166667  0.85833333  0.03750000  1.0
  Cr  Cr48  1  0.57500000  0.19166667  0.03750000  1.0
  Cr  Cr49  1  0.57500000  0.52500000  0.03750000  1.0
  Cr  Cr50  1  0.57500000  0.85833333  0.03750000  1.0
  Cr  Cr51  1  0.90833333  0.19166667  0.03750000  1.0
  Cr  Cr52  1  0.90833333  0.52500000  0.03750000  1.0
  Cr  Cr53  1  0.90833333  0.85833333  0.03750000  1.0
  Cr  Cr54  1  0.07500000  0.02500000  0.16250000  1.0
  Cr  Cr55  1  0.07500000  0.35833333  0.16250000  1.0
  Cr  Cr56  1  0.07500000  0.69166667  0.16250000  1.0
  Cr  Cr57  1  0.40833333  0.02500000  0.16250000  1.0
  Cr  Cr58  1  0.40833333  0.35833333  0.16250000  1.0
  Cr  Cr59  1  0.40833333  0.69166667  0.16250000  1.0
  Cr  Cr60  1  0.74166667  0.02500000  0.16250000  1.0
  Cr  Cr61  1  0.74166667  0.35833333  0.16250000  1.0
  Cr  Cr62  1  0.74166667  0.69166667  0.16250000  1.0
  Cr  Cr63  1  0.30833333  0.15833333  0.11250000  1.0
  Cr  Cr64  1  0.30833333  0.49166667  0.11250000  1.0
  Cr  Cr65  1  0.30833333  0.82500000  0.11250000  1.0
  Cr  Cr66  1  0.64166667  0.15833333  0.11250000  1.0
  Cr  Cr67  1  0.64166667  0.49166667  0.11250000  1.0
  Cr  Cr68  1  0.64166667  0.82500000  0.11250000  1.0
  Cr  Cr69  1  0.97500000  0.15833333  0.11250000  1.0
  Cr  Cr70  1  0.97500000  0.49166667  0.11250000  1.0
  Cr  Cr71  1  0.97500000  0.82500000  0.11250000  1.0
  Cr  Cr72  1  0.14166667  0.15833333  0.11250000  1.0
  Cr  Cr73  1  0.14166667  0.49166667  0.11250000  1.0
  Cr  Cr74  1  0.14166667  0.82500000  0.11250000  1.0
  Cr  Cr75  1  0.47500000  0.15833333  0.11250000  1.0
  Cr  Cr76  1  0.47500000  0.49166667  0.11250000  1.0
  Cr  Cr77  1  0.47500000  0.82500000  0.11250000  1.0
  Cr  Cr78  1  0.80833333  0.15833333  0.11250000  1.0
  Cr  Cr79  1  0.80833333  0.49166667  0.11250000  1.0
  Cr  Cr80  1  0.80833333  0.82500000  0.11250000  1.0
  Cr  Cr81  1  0.24166667  0.02500000  0.16250000  1.0
  Cr  Cr82  1  0.24166667  0.35833333  0.16250000  1.0
  Cr  Cr83  1  0.24166667  0.69166667  0.16250000  1.0
  Cr  Cr84  1  0.57500000  0.02500000  0.16250000  1.0
  Cr  Cr85  1  0.57500000  0.35833333  0.16250000  1.0
  Cr  Cr86  1  0.57500000  0.69166667  0.16250000  1.0
  Cr  Cr87  1  0.90833333  0.02500000  0.16250000  1.0
  Cr  Cr88  1  0.90833333  0.35833333  0.16250000  1.0
  Cr  Cr89  1  0.90833333  0.69166667  0.16250000  1.0
  Cr  Cr90  1  0.20833333  0.12500000  0.18750000  1.0
  Cr  Cr91  1  0.20833333  0.45833333  0.18750000  1.0
  Cr  Cr92  1  0.20833333  0.79166667  0.18750000  1.0
  Cr  Cr93  1  0.54166667  0.12500000  0.18750000  1.0
  Cr  Cr94  1  0.54166667  0.45833333  0.18750000  1.0
  Cr  Cr95  1  0.54166667  0.79166667  0.18750000  1.0
  Cr  Cr96  1  0.87500000  0.12500000  0.18750000  1.0
  Cr  Cr97  1  0.87500000  0.45833333  0.18750000  1.0
  Cr  Cr98  1  0.87500000  0.79166667  0.18750000  1.0
  Cr  Cr99  1  0.10833333  0.25833333  0.13750000  1.0
  Cr  Cr100  1  0.10833333  0.59166667  0.13750000  1.0
  Cr  Cr101  1  0.10833333  0.92500000  0.13750000  1.0
  Cr  Cr102  1  0.44166667  0.25833333  0.13750000  1.0
  Cr  Cr103  1  0.44166667  0.59166667  0.13750000  1.0
  Cr  Cr104  1  0.44166667  0.92500000  0.13750000  1.0
  Cr  Cr105  1  0.77500000  0.25833333  0.13750000  1.0
  Cr  Cr106  1  0.77500000  0.59166667  0.13750000  1.0
  Cr  Cr107  1  0.77500000  0.92500000  0.13750000  1.0
  Cr  Cr108  1  0.27500000  0.09166667  0.26250000  1.0
  Cr  Cr109  1  0.27500000  0.42500000  0.26250000  1.0
  Cr  Cr110  1  0.27500000  0.75833333  0.26250000  1.0
  Cr  Cr111  1  0.60833333  0.09166667  0.26250000  1.0
  Cr  Cr112  1  0.60833333  0.42500000  0.26250000  1.0
  Cr  Cr113  1  0.60833333  0.75833333  0.26250000  1.0
  Cr  Cr114  1  0.94166667  0.09166667  0.26250000  1.0
  Cr  Cr115  1  0.94166667  0.42500000  0.26250000  1.0
  Cr  Cr116  1  0.94166667  0.75833333  0.26250000  1.0
  Cr  Cr117  1  0.17500000  0.22500000  0.21250000  1.0
  Cr  Cr118  1  0.17500000  0.55833333  0.21250000  1.0
  Cr  Cr119  1  0.17500000  0.89166667  0.21250000  1.0
  Cr  Cr120  1  0.50833333  0.22500000  0.21250000  1.0
  Cr  Cr121  1  0.50833333  0.55833333  0.21250000  1.0
  Cr  Cr122  1  0.50833333  0.89166667  0.21250000  1.0
  Cr  Cr123  1  0.84166667  0.22500000  0.21250000  1.0
  Cr  Cr124  1  0.84166667  0.55833333  0.21250000  1.0
  Cr  Cr125  1  0.84166667  0.89166667  0.21250000  1.0
  Cr  Cr126  1  0.00833333  0.22500000  0.21250000  1.0
  Cr  Cr127  1  0.00833333  0.55833333  0.21250000  1.0
  Cr  Cr128  1  0.00833333  0.89166667  0.21250000  1.0
  Cr  Cr129  1  0.34166667  0.22500000  0.21250000  1.0
  Cr  Cr130  1  0.34166667  0.55833333  0.21250000  1.0
  Cr  Cr131  1  0.34166667  0.89166667  0.21250000  1.0
  Cr  Cr132  1  0.67500000  0.22500000  0.21250000  1.0
  Cr  Cr133  1  0.67500000  0.55833333  0.21250000  1.0
  Cr  Cr134  1  0.67500000  0.89166667  0.21250000  1.0
  Cr  Cr135  1  0.10833333  0.09166667  0.26250000  1.0
  Cr  Cr136  1  0.10833333  0.42500000  0.26250000  1.0
  Cr  Cr137  1  0.10833333  0.75833333  0.26250000  1.0
  Cr  Cr138  1  0.44166667  0.09166667  0.26250000  1.0
  Cr  Cr139  1  0.44166667  0.42500000  0.26250000  1.0
  Cr  Cr140  1  0.44166667  0.75833333  0.26250000  1.0
  Cr  Cr141  1  0.77500000  0.09166667  0.26250000  1.0
  Cr  Cr142  1  0.77500000  0.42500000  0.26250000  1.0
  Cr  Cr143  1  0.77500000  0.75833333  0.26250000  1.0
  Cr  Cr144  1  0.07500000  0.19166667  0.28750000  1.0
  Cr  Cr145  1  0.07500000  0.52500000  0.28750000  1.0
  Cr  Cr146  1  0.07500000  0.85833333  0.28750000  1.0
  Cr  Cr147  1  0.40833333  0.19166667  0.28750000  1.0
  Cr  Cr148  1  0.40833333  0.52500000  0.28750000  1.0
  Cr  Cr149  1  0.40833333  0.85833333  0.28750000  1.0
  Cr  Cr150  1  0.74166667  0.19166667  0.28750000  1.0
  Cr  Cr151  1  0.74166667  0.52500000  0.28750000  1.0
  Cr  Cr152  1  0.74166667  0.85833333  0.28750000  1.0
  Cr  Cr153  1  0.30833333  0.32500000  0.23750000  1.0
  Cr  Cr154  1  0.30833333  0.65833333  0.23750000  1.0
  Cr  Cr155  1  0.30833333  0.99166667  0.23750000  1.0
  Cr  Cr156  1  0.64166667  0.32500000  0.23750000  1.0
  Cr  Cr157  1  0.64166667  0.65833333  0.23750000  1.0
  Cr  Cr158  1  0.64166667  0.99166667  0.23750000  1.0
  Cr  Cr159  1  0.97500000  0.32500000  0.23750000  1.0
  Cr  Cr160  1  0.97500000  0.65833333  0.23750000  1.0
  Cr  Cr161  1  0.97500000  0.99166667  0.23750000  1.0
  Cr  Cr162  1  0.14166667  0.15833333  0.36250000  1.0
  Cr  Cr163  1  0.14166667  0.49166667  0.36250000  1.0
  Cr  Cr164  1  0.14166667  0.82500000  0.36250000  1.0
  Cr  Cr165  1  0.47500000  0.15833333  0.36250000  1.0
  Cr  Cr166  1  0.47500000  0.49166667  0.36250000  1.0
  Cr  Cr167  1  0.47500000  0.82500000  0.36250000  1.0
  Cr  Cr168  1  0.80833333  0.15833333  0.36250000  1.0
  Cr  Cr169  1  0.80833333  0.49166667  0.36250000  1.0
  Cr  Cr170  1  0.80833333  0.82500000  0.36250000  1.0
  Cr  Cr171  1  0.04166667  0.29166667  0.31250000  1.0
  Cr  Cr172  1  0.04166667  0.62500000  0.31250000  1.0
  Cr  Cr173  1  0.04166667  0.95833333  0.31250000  1.0
  Cr  Cr174  1  0.37500000  0.29166667  0.31250000  1.0
  Cr  Cr175  1  0.37500000  0.62500000  0.31250000  1.0
  Cr  Cr176  1  0.37500000  0.95833333  0.31250000  1.0
  Cr  Cr177  1  0.70833333  0.29166667  0.31250000  1.0
  Cr  Cr178  1  0.70833333  0.62500000  0.31250000  1.0
  Cr  Cr179  1  0.70833333  0.95833333  0.31250000  1.0
  Cr  Cr180  1  0.20833333  0.29166667  0.31250000  1.0
  Cr  Cr181  1  0.20833333  0.62500000  0.31250000  1.0
  Cr  Cr182  1  0.20833333  0.95833333  0.31250000  1.0
  Cr  Cr183  1  0.54166667  0.29166667  0.31250000  1.0
  Cr  Cr184  1  0.54166667  0.62500000  0.31250000  1.0
  Cr  Cr185  1  0.54166667  0.95833333  0.31250000  1.0
  Cr  Cr186  1  0.87500000  0.29166667  0.31250000  1.0
  Cr  Cr187  1  0.87500000  0.62500000  0.31250000  1.0
  Cr  Cr188  1  0.87500000  0.95833333  0.31250000  1.0
  Cr  Cr189  1  0.30833333  0.15833333  0.36250000  1.0
  Cr  Cr190  1  0.30833333  0.49166667  0.36250000  1.0
  Cr  Cr191  1  0.30833333  0.82500000  0.36250000  1.0
  Cr  Cr192  1  0.64166667  0.15833333  0.36250000  1.0
  Cr  Cr193  1  0.64166667  0.49166667  0.36250000  1.0
  Cr  Cr194  1  0.64166667  0.82500000  0.36250000  1.0
  Cr  Cr195  1  0.97500000  0.15833333  0.36250000  1.0
  Cr  Cr196  1  0.97500000  0.49166667  0.36250000  1.0
  Cr  Cr197  1  0.97500000  0.82500000  0.36250000  1.0
  Cr  Cr198  1  0.27500000  0.25833333  0.38750000  1.0
  Cr  Cr199  1  0.27500000  0.59166667  0.38750000  1.0
  Cr  Cr200  1  0.27500000  0.92500000  0.38750000  1.0
  Cr  Cr201  1  0.60833333  0.25833333  0.38750000  1.0
  Cr  Cr202  1  0.60833333  0.59166667  0.38750000  1.0
  Cr  Cr203  1  0.60833333  0.92500000  0.38750000  1.0
  Cr  Cr204  1  0.94166667  0.25833333  0.38750000  1.0
  Cr  Cr205  1  0.94166667  0.59166667  0.38750000  1.0
  Cr  Cr206  1  0.94166667  0.92500000  0.38750000  1.0
  Cr  Cr207  1  0.17500000  0.05833333  0.33750000  1.0
  Cr  Cr208  1  0.17500000  0.39166667  0.33750000  1.0
  Cr  Cr209  1  0.17500000  0.72500000  0.33750000  1.0
  Cr  Cr210  1  0.50833333  0.05833333  0.33750000  1.0
  Cr  Cr211  1  0.50833333  0.39166667  0.33750000  1.0
  Cr  Cr212  1  0.50833333  0.72500000  0.33750000  1.0
  Cr  Cr213  1  0.84166667  0.05833333  0.33750000  1.0
  Cr  Cr214  1  0.84166667  0.39166667  0.33750000  1.0
  Cr  Cr215  1  0.84166667  0.72500000  0.33750000  1.0
  Ni  Ni216  1  0.07500000  0.19166667  0.03750000  1.0
  Ni  Ni217  1  0.07500000  0.52500000  0.03750000  1.0
  Ni  Ni218  1  0.07500000  0.85833333  0.03750000  1.0
  Ni  Ni219  1  0.40833333  0.19166667  0.03750000  1.0
  Ni  Ni220  1  0.40833333  0.52500000  0.03750000  1.0
  Ni  Ni221  1  0.40833333  0.85833333  0.03750000  1.0
  Ni  Ni222  1  0.74166667  0.19166667  0.03750000  1.0
  Ni  Ni223  1  0.74166667  0.52500000  0.03750000  1.0
  Ni  Ni224  1  0.74166667  0.85833333  0.03750000  1.0
  Ni  Ni225  1  0.17500000  0.05833333  0.08750000  1.0
  Ni  Ni226  1  0.17500000  0.39166667  0.08750000  1.0
  Ni  Ni227  1  0.17500000  0.72500000  0.08750000  1.0
  Ni  Ni228  1  0.50833333  0.05833333  0.08750000  1.0
  Ni  Ni229  1  0.50833333  0.39166667  0.08750000  1.0
  Ni  Ni230  1  0.50833333  0.72500000  0.08750000  1.0
  Ni  Ni231  1  0.84166667  0.05833333  0.08750000  1.0
  Ni  Ni232  1  0.84166667  0.39166667  0.08750000  1.0
  Ni  Ni233  1  0.84166667  0.72500000  0.08750000  1.0
  Ni  Ni234  1  0.27500000  0.25833333  0.13750000  1.0
  Ni  Ni235  1  0.27500000  0.59166667  0.13750000  1.0
  Ni  Ni236  1  0.27500000  0.92500000  0.13750000  1.0
  Ni  Ni237  1  0.60833333  0.25833333  0.13750000  1.0
  Ni  Ni238  1  0.60833333  0.59166667  0.13750000  1.0
  Ni  Ni239  1  0.60833333  0.92500000  0.13750000  1.0
  Ni  Ni240  1  0.94166667  0.25833333  0.13750000  1.0
  Ni  Ni241  1  0.94166667  0.59166667  0.13750000  1.0
  Ni  Ni242  1  0.94166667  0.92500000  0.13750000  1.0
  Ni  Ni243  1  0.04166667  0.12500000  0.18750000  1.0
  Ni  Ni244  1  0.04166667  0.45833333  0.18750000  1.0
  Ni  Ni245  1  0.04166667  0.79166667  0.18750000  1.0
  Ni  Ni246  1  0.37500000  0.12500000  0.18750000  1.0
  Ni  Ni247  1  0.37500000  0.45833333  0.18750000  1.0
  Ni  Ni248  1  0.37500000  0.79166667  0.18750000  1.0
  Ni  Ni249  1  0.70833333  0.12500000  0.18750000  1.0
  Ni  Ni250  1  0.70833333  0.45833333  0.18750000  1.0
  Ni  Ni251  1  0.70833333  0.79166667  0.18750000  1.0
  Ni  Ni252  1  0.14166667  0.32500000  0.23750000  1.0
  Ni  Ni253  1  0.14166667  0.65833333  0.23750000  1.0
  Ni  Ni254  1  0.14166667  0.99166667  0.23750000  1.0
  Ni  Ni255  1  0.47500000  0.32500000  0.23750000  1.0
  Ni  Ni256  1  0.47500000  0.65833333  0.23750000  1.0
  Ni  Ni257  1  0.47500000  0.99166667  0.23750000  1.0
  Ni  Ni258  1  0.80833333  0.32500000  0.23750000  1.0
  Ni  Ni259  1  0.80833333  0.65833333  0.23750000  1.0
  Ni  Ni260  1  0.80833333  0.99166667  0.23750000  1.0
  Ni  Ni261  1  0.24166667  0.19166667  0.28750000  1.0
  Ni  Ni262  1  0.24166667  0.52500000  0.28750000  1.0
  Ni  Ni263  1  0.24166667  0.85833333  0.28750000  1.0
  Ni  Ni264  1  0.57500000  0.19166667  0.28750000  1.0
  Ni  Ni265  1  0.57500000  0.52500000  0.28750000  1.0
  Ni  Ni266  1  0.57500000  0.85833333  0.28750000  1.0
  Ni  Ni267  1  0.90833333  0.19166667  0.28750000  1.0
  Ni  Ni268  1  0.90833333  0.52500000  0.28750000  1.0
  Ni  Ni269  1  0.90833333  0.85833333  0.28750000  1.0
  Ni  Ni270  1  0.00833333  0.05833333  0.33750000  1.0
  Ni  Ni271  1  0.00833333  0.39166667  0.33750000  1.0
  Ni  Ni272  1  0.00833333  0.72500000  0.33750000  1.0
  Ni  Ni273  1  0.34166667  0.05833333  0.33750000  1.0
  Ni  Ni274  1  0.34166667  0.39166667  0.33750000  1.0
  Ni  Ni275  1  0.34166667  0.72500000  0.33750000  1.0
  Ni  Ni276  1  0.67500000  0.05833333  0.33750000  1.0
  Ni  Ni277  1  0.67500000  0.39166667  0.33750000  1.0
  Ni  Ni278  1  0.67500000  0.72500000  0.33750000  1.0
  Ni  Ni279  1  0.10833333  0.25833333  0.38750000  1.0
  Ni  Ni280  1  0.10833333  0.59166667  0.38750000  1.0
  Ni  Ni281  1  0.10833333  0.92500000  0.38750000  1.0
  Ni  Ni282  1  0.44166667  0.25833333  0.38750000  1.0
  Ni  Ni283  1  0.44166667  0.59166667  0.38750000  1.0
  Ni  Ni284  1  0.44166667  0.92500000  0.38750000  1.0
  Ni  Ni285  1  0.77500000  0.25833333  0.38750000  1.0
  Ni  Ni286  1  0.77500000  0.59166667  0.38750000  1.0
  Ni  Ni287  1  0.77500000  0.92500000  0.38750000  1.0
