# generated using pymatgen
data_Cr3Ni
_symmetry_space_group_name_H-M   'P 1'
_cell_length_a   20.12749387
_cell_length_b   24.01230406
_cell_length_c   27.67600220
_cell_angle_alpha   91.52287957
_cell_angle_beta   94.06588248
_cell_angle_gamma   110.88671433
_symmetry_Int_Tables_number   1
_chemical_formula_structural   Cr3Ni
_chemical_formula_sum   'Cr324 Ni108'
_cell_volume   12446.27872174
_cell_formula_units_Z   108
loop_
 _symmetry_equiv_pos_site_id
 _symmetry_equiv_pos_as_xyz
  1  'x, y, z'
loop_
 _atom_site_type_symbol
 _atom_site_label
 _atom_site_symmetry_multiplicity
 _atom_site_fract_x
 _atom_site_fract_y
 _atom_site_fract_z
 _atom_site_occupancy
  Cr  Cr0  1  0.29444444  0.11388889  0.95416667  1.0
  Cr  Cr1  1  0.29444444  0.44722222  0.95416667  1.0
  Cr  Cr2  1  0.29444444  0.78055556  0.95416667  1.0
  Cr  Cr3  1  0.62777778  0.11388889  0.95416667  1.0
  Cr  Cr4  1  0.62777778  0.44722222  0.95416667  1.0
  Cr  Cr5  1  0.62777778  0.78055556  0.95416667  1.0
  Cr  Cr6  1  0.96111111  0.11388889  0.95416667  1.0
  Cr  Cr7  1  0.96111111  0.44722222  0.95416667  1.0
  Cr  Cr8  1  0.96111111  0.78055556  0.95416667  1.0
  Cr  Cr9  1  0.21666667  0.25833333  0.98750000  1.0
  Cr  Cr10  1  0.21666667  0.59166667  0.98750000  1.0
  Cr  Cr11  1  0.21666667  0.92500000  0.98750000  1.0
  Cr  Cr12  1  0.55000000  0.25833333  0.98750000  1.0
  Cr  Cr13  1  0.55000000  0.59166667  0.98750000  1.0
  Cr  Cr14  1  0.55000000  0.92500000  0.98750000  1.0
  Cr  Cr15  1  0.88333333  0.25833333  0.98750000  1.0
  Cr  Cr16  1  0.88333333  0.59166667  0.98750000  1.0
  Cr  Cr17  1  0.88333333  0.92500000  0.98750000  1.0
  Cr  Cr18  1  0.11388889  0.29444444  0.99583333  1.0
  Cr  Cr19  1  0.11388889  0.62777778  0.99583333  1.0
  Cr  Cr20  1  0.11388889  0.96111111  0.99583333  1.0
  Cr  Cr21  1  0.44722222  0.29444444  0.99583333  1.0
  Cr  Cr22  1  0.44722222  0.62777778  0.99583333  1.0
  Cr  Cr23  1  0.44722222  0.96111111  0.99583333  1.0
  Cr  Cr24  1  0.78055556  0.29444444  0.99583333  1.0
  Cr  Cr25  1  0.78055556  0.62777778  0.99583333  1.0
  Cr  Cr26  1  0.78055556  0.96111111  0.99583333  1.0
  Cr  Cr27  1  0.19166667  0.15000000  0.96250000  1.0
  Cr  Cr28  1  0.19166667  0.48333333  0.96250000  1.0
  Cr  Cr29  1  0.19166667  0.81666667  0.96250000  1.0
  Cr  Cr30  1  0.52500000  0.15000000  0.96250000  1.0
  Cr  Cr31  1  0.52500000  0.48333333  0.96250000  1.0
  Cr  Cr32  1  0.52500000  0.81666667  0.96250000  1.0
  Cr  Cr33  1  0.85833333  0.15000000  0.96250000  1.0
  Cr  Cr34  1  0.85833333  0.48333333  0.96250000  1.0
  Cr  Cr35  1  0.85833333  0.81666667  0.96250000  1.0
  Cr  Cr36  1  0.06388889  0.07777778  0.94583333  1.0
  Cr  Cr37  1  0.06388889  0.41111111  0.94583333  1.0
  Cr  Cr38  1  0.06388889  0.74444444  0.94583333  1.0
  Cr  Cr39  1  0.39722222  0.07777778  0.94583333  1.0
  Cr  Cr40  1  0.39722222  0.41111111  0.94583333  1.0
  Cr  Cr41  1  0.39722222  0.74444444  0.94583333  1.0
  Cr  Cr42  1  0.73055556  0.07777778  0.94583333  1.0
  Cr  Cr43  1  0.73055556  0.41111111  0.94583333  1.0
  Cr  Cr44  1  0.73055556  0.74444444  0.94583333  1.0
  Cr  Cr45  1  0.31944444  0.22222222  0.97916667  1.0
  Cr  Cr46  1  0.31944444  0.55555556  0.97916667  1.0
  Cr  Cr47  1  0.31944444  0.88888889  0.97916667  1.0
  Cr  Cr48  1  0.65277778  0.22222222  0.97916667  1.0
  Cr  Cr49  1  0.65277778  0.55555556  0.97916667  1.0
  Cr  Cr50  1  0.65277778  0.88888889  0.97916667  1.0
  Cr  Cr51  1  0.98611111  0.22222222  0.97916667  1.0
  Cr  Cr52  1  0.98611111  0.55555556  0.97916667  1.0
  Cr  Cr53  1  0.98611111  0.88888889  0.97916667  1.0
  Cr  Cr54  1  0.11666667  0.15833333  0.88750000  1.0
  Cr  Cr55  1  0.11666667  0.49166667  0.88750000  1.0
  Cr  Cr56  1  0.11666667  0.82500000  0.88750000  1.0
  Cr  Cr57  1  0.45000000  0.15833333  0.88750000  1.0
  Cr  Cr58  1  0.45000000  0.49166667  0.88750000  1.0
  Cr  Cr59  1  0.45000000  0.82500000  0.88750000  1.0
  Cr  Cr60  1  0.78333333  0.15833333  0.88750000  1.0
  Cr  Cr61  1  0.78333333  0.49166667  0.88750000  1.0
  Cr  Cr62  1  0.78333333  0.82500000  0.88750000  1.0
  Cr  Cr63  1  0.03888889  0.30277778  0.92083333  1.0
  Cr  Cr64  1  0.03888889  0.63611111  0.92083333  1.0
  Cr  Cr65  1  0.03888889  0.96944444  0.92083333  1.0
  Cr  Cr66  1  0.37222222  0.30277778  0.92083333  1.0
  Cr  Cr67  1  0.37222222  0.63611111  0.92083333  1.0
  Cr  Cr68  1  0.37222222  0.96944444  0.92083333  1.0
  Cr  Cr69  1  0.70555556  0.30277778  0.92083333  1.0
  Cr  Cr70  1  0.70555556  0.63611111  0.92083333  1.0
  Cr  Cr71  1  0.70555556  0.96944444  0.92083333  1.0
  Cr  Cr72  1  0.26944444  0.00555556  0.92916667  1.0
  Cr  Cr73  1  0.26944444  0.33888889  0.92916667  1.0
  Cr  Cr74  1  0.26944444  0.67222222  0.92916667  1.0
  Cr  Cr75  1  0.60277778  0.00555556  0.92916667  1.0
  Cr  Cr76  1  0.60277778  0.33888889  0.92916667  1.0
  Cr  Cr77  1  0.60277778  0.67222222  0.92916667  1.0
  Cr  Cr78  1  0.93611111  0.00555556  0.92916667  1.0
  Cr  Cr79  1  0.93611111  0.33888889  0.92916667  1.0
  Cr  Cr80  1  0.93611111  0.67222222  0.92916667  1.0
  Cr  Cr81  1  0.01388889  0.19444444  0.89583333  1.0
  Cr  Cr82  1  0.01388889  0.52777778  0.89583333  1.0
  Cr  Cr83  1  0.01388889  0.86111111  0.89583333  1.0
  Cr  Cr84  1  0.34722222  0.19444444  0.89583333  1.0
  Cr  Cr85  1  0.34722222  0.52777778  0.89583333  1.0
  Cr  Cr86  1  0.34722222  0.86111111  0.89583333  1.0
  Cr  Cr87  1  0.68055556  0.19444444  0.89583333  1.0
  Cr  Cr88  1  0.68055556  0.52777778  0.89583333  1.0
  Cr  Cr89  1  0.68055556  0.86111111  0.89583333  1.0
  Cr  Cr90  1  0.21944444  0.12222222  0.87916667  1.0
  Cr  Cr91  1  0.21944444  0.45555556  0.87916667  1.0
  Cr  Cr92  1  0.21944444  0.78888889  0.87916667  1.0
  Cr  Cr93  1  0.55277778  0.12222222  0.87916667  1.0
  Cr  Cr94  1  0.55277778  0.45555556  0.87916667  1.0
  Cr  Cr95  1  0.55277778  0.78888889  0.87916667  1.0
  Cr  Cr96  1  0.88611111  0.12222222  0.87916667  1.0
  Cr  Cr97  1  0.88611111  0.45555556  0.87916667  1.0
  Cr  Cr98  1  0.88611111  0.78888889  0.87916667  1.0
  Cr  Cr99  1  0.14166667  0.26666667  0.91250000  1.0
  Cr  Cr100  1  0.14166667  0.60000000  0.91250000  1.0
  Cr  Cr101  1  0.14166667  0.93333333  0.91250000  1.0
  Cr  Cr102  1  0.47500000  0.26666667  0.91250000  1.0
  Cr  Cr103  1  0.47500000  0.60000000  0.91250000  1.0
  Cr  Cr104  1  0.47500000  0.93333333  0.91250000  1.0
  Cr  Cr105  1  0.80833333  0.26666667  0.91250000  1.0
  Cr  Cr106  1  0.80833333  0.60000000  0.91250000  1.0
  Cr  Cr107  1  0.80833333  0.93333333  0.91250000  1.0
  Cr  Cr108  1  0.27222222  0.20277778  0.82083333  1.0
  Cr  Cr109  1  0.27222222  0.53611111  0.82083333  1.0
  Cr  Cr110  1  0.27222222  0.86944444  0.82083333  1.0
  Cr  Cr111  1  0.60555556  0.20277778  0.82083333  1.0
  Cr  Cr112  1  0.60555556  0.53611111  0.82083333  1.0
  Cr  Cr113  1  0.60555556  0.86944444  0.82083333  1.0
  Cr  Cr114  1  0.93888889  0.20277778  0.82083333  1.0
  Cr  Cr115  1  0.93888889  0.53611111  0.82083333  1.0
  Cr  Cr116  1  0.93888889  0.86944444  0.82083333  1.0
  Cr  Cr117  1  0.19444444  0.01388889  0.85416667  1.0
  Cr  Cr118  1  0.19444444  0.34722222  0.85416667  1.0
  Cr  Cr119  1  0.19444444  0.68055556  0.85416667  1.0
  Cr  Cr120  1  0.52777778  0.01388889  0.85416667  1.0
  Cr  Cr121  1  0.52777778  0.34722222  0.85416667  1.0
  Cr  Cr122  1  0.52777778  0.68055556  0.85416667  1.0
  Cr  Cr123  1  0.86111111  0.01388889  0.85416667  1.0
  Cr  Cr124  1  0.86111111  0.34722222  0.85416667  1.0
  Cr  Cr125  1  0.86111111  0.68055556  0.85416667  1.0
  Cr  Cr126  1  0.09166667  0.05000000  0.86250000  1.0
  Cr  Cr127  1  0.09166667  0.38333333  0.86250000  1.0
  Cr  Cr128  1  0.09166667  0.71666667  0.86250000  1.0
  Cr  Cr129  1  0.42500000  0.05000000  0.86250000  1.0
  Cr  Cr130  1  0.42500000  0.38333333  0.86250000  1.0
  Cr  Cr131  1  0.42500000  0.71666667  0.86250000  1.0
  Cr  Cr132  1  0.75833333  0.05000000  0.86250000  1.0
  Cr  Cr133  1  0.75833333  0.38333333  0.86250000  1.0
  Cr  Cr134  1  0.75833333  0.71666667  0.86250000  1.0
  Cr  Cr135  1  0.16944444  0.23888889  0.82916667  1.0
  Cr  Cr136  1  0.16944444  0.57222222  0.82916667  1.0
  Cr  Cr137  1  0.16944444  0.90555556  0.82916667  1.0
  Cr  Cr138  1  0.50277778  0.23888889  0.82916667  1.0
  Cr  Cr139  1  0.50277778  0.57222222  0.82916667  1.0
  Cr  Cr140  1  0.50277778  0.90555556  0.82916667  1.0
  Cr  Cr141  1  0.83611111  0.23888889  0.82916667  1.0
  Cr  Cr142  1  0.83611111  0.57222222  0.82916667  1.0
  Cr  Cr143  1  0.83611111  0.90555556  0.82916667  1.0
  Cr  Cr144  1  0.04166667  0.16666667  0.81250000  1.0
  Cr  Cr145  1  0.04166667  0.50000000  0.81250000  1.0
  Cr  Cr146  1  0.04166667  0.83333333  0.81250000  1.0
  Cr  Cr147  1  0.37500000  0.16666667  0.81250000  1.0
  Cr  Cr148  1  0.37500000  0.50000000  0.81250000  1.0
  Cr  Cr149  1  0.37500000  0.83333333  0.81250000  1.0
  Cr  Cr150  1  0.70833333  0.16666667  0.81250000  1.0
  Cr  Cr151  1  0.70833333  0.50000000  0.81250000  1.0
  Cr  Cr152  1  0.70833333  0.83333333  0.81250000  1.0
  Cr  Cr153  1  0.29722222  0.31111111  0.84583333  1.0
  Cr  Cr154  1  0.29722222  0.64444444  0.84583333  1.0
  Cr  Cr155  1  0.29722222  0.97777778  0.84583333  1.0
  Cr  Cr156  1  0.63055556  0.31111111  0.84583333  1.0
  Cr  Cr157  1  0.63055556  0.64444444  0.84583333  1.0
  Cr  Cr158  1  0.63055556  0.97777778  0.84583333  1.0
  Cr  Cr159  1  0.96388889  0.31111111  0.84583333  1.0
  Cr  Cr160  1  0.96388889  0.64444444  0.84583333  1.0
  Cr  Cr161  1  0.96388889  0.97777778  0.84583333  1.0
  Cr  Cr162  1  0.09444444  0.24722222  0.75416667  1.0
  Cr  Cr163  1  0.09444444  0.58055556  0.75416667  1.0
  Cr  Cr164  1  0.09444444  0.91388889  0.75416667  1.0
  Cr  Cr165  1  0.42777778  0.24722222  0.75416667  1.0
  Cr  Cr166  1  0.42777778  0.58055556  0.75416667  1.0
  Cr  Cr167  1  0.42777778  0.91388889  0.75416667  1.0
  Cr  Cr168  1  0.76111111  0.24722222  0.75416667  1.0
  Cr  Cr169  1  0.76111111  0.58055556  0.75416667  1.0
  Cr  Cr170  1  0.76111111  0.91388889  0.75416667  1.0
  Cr  Cr171  1  0.01666667  0.05833333  0.78750000  1.0
  Cr  Cr172  1  0.01666667  0.39166667  0.78750000  1.0
  Cr  Cr173  1  0.01666667  0.72500000  0.78750000  1.0
  Cr  Cr174  1  0.35000000  0.05833333  0.78750000  1.0
  Cr  Cr175  1  0.35000000  0.39166667  0.78750000  1.0
  Cr  Cr176  1  0.35000000  0.72500000  0.78750000  1.0
  Cr  Cr177  1  0.68333333  0.05833333  0.78750000  1.0
  Cr  Cr178  1  0.68333333  0.39166667  0.78750000  1.0
  Cr  Cr179  1  0.68333333  0.72500000  0.78750000  1.0
  Cr  Cr180  1  0.24722222  0.09444444  0.79583333  1.0
  Cr  Cr181  1  0.24722222  0.42777778  0.79583333  1.0
  Cr  Cr182  1  0.24722222  0.76111111  0.79583333  1.0
  Cr  Cr183  1  0.58055556  0.09444444  0.79583333  1.0
  Cr  Cr184  1  0.58055556  0.42777778  0.79583333  1.0
  Cr  Cr185  1  0.58055556  0.76111111  0.79583333  1.0
  Cr  Cr186  1  0.91388889  0.09444444  0.79583333  1.0
  Cr  Cr187  1  0.91388889  0.42777778  0.79583333  1.0
  Cr  Cr188  1  0.91388889  0.76111111  0.79583333  1.0
  Cr  Cr189  1  0.32500000  0.28333333  0.76250000  1.0
  Cr  Cr190  1  0.32500000  0.61666667  0.76250000  1.0
  Cr  Cr191  1  0.32500000  0.95000000  0.76250000  1.0
  Cr  Cr192  1  0.65833333  0.28333333  0.76250000  1.0
  Cr  Cr193  1  0.65833333  0.61666667  0.76250000  1.0
  Cr  Cr194  1  0.65833333  0.95000000  0.76250000  1.0
  Cr  Cr195  1  0.99166667  0.28333333  0.76250000  1.0
  Cr  Cr196  1  0.99166667  0.61666667  0.76250000  1.0
  Cr  Cr197  1  0.99166667  0.95000000  0.76250000  1.0
  Cr  Cr198  1  0.19722222  0.21111111  0.74583333  1.0
  Cr  Cr199  1  0.19722222  0.54444444  0.74583333  1.0
  Cr  Cr200  1  0.19722222  0.87777778  0.74583333  1.0
  Cr  Cr201  1  0.53055556  0.21111111  0.74583333  1.0
  Cr  Cr202  1  0.53055556  0.54444444  0.74583333  1.0
  Cr  Cr203  1  0.53055556  0.87777778  0.74583333  1.0
  Cr  Cr204  1  0.86388889  0.21111111  0.74583333  1.0
  Cr  Cr205  1  0.86388889  0.54444444  0.74583333  1.0
  Cr  Cr206  1  0.86388889  0.87777778  0.74583333  1.0
  Cr  Cr207  1  0.11944444  0.02222222  0.77916667  1.0
  Cr  Cr208  1  0.11944444  0.35555556  0.77916667  1.0
  Cr  Cr209  1  0.11944444  0.68888889  0.77916667  1.0
  Cr  Cr210  1  0.45277778  0.02222222  0.77916667  1.0
  Cr  Cr211  1  0.45277778  0.35555556  0.77916667  1.0
  Cr  Cr212  1  0.45277778  0.68888889  0.77916667  1.0
  Cr  Cr213  1  0.78611111  0.02222222  0.77916667  1.0
  Cr  Cr214  1  0.78611111  0.35555556  0.77916667  1.0
  Cr  Cr215  1  0.78611111  0.68888889  0.77916667  1.0
  Cr  Cr216  1  0.25000000  0.29166667  0.68750000  1.0
  Cr  Cr217  1  0.25000000  0.62500000  0.68750000  1.0
  Cr  Cr218  1  0.25000000  0.95833333  0.68750000  1.0
  Cr  Cr219  1  0.58333333  0.29166667  0.68750000  1.0
  Cr  Cr220  1  0.58333333  0.62500000  0.68750000  1.0
  Cr  Cr221  1  0.58333333  0.95833333  0.68750000  1.0
  Cr  Cr222  1  0.91666667  0.29166667  0.68750000  1.0
  Cr  Cr223  1  0.91666667  0.62500000  0.68750000  1.0
  Cr  Cr224  1  0.91666667  0.95833333  0.68750000  1.0
  Cr  Cr225  1  0.17222222  0.10277778  0.72083333  1.0
  Cr  Cr226  1  0.17222222  0.43611111  0.72083333  1.0
  Cr  Cr227  1  0.17222222  0.76944444  0.72083333  1.0
  Cr  Cr228  1  0.50555556  0.10277778  0.72083333  1.0
  Cr  Cr229  1  0.50555556  0.43611111  0.72083333  1.0
  Cr  Cr230  1  0.50555556  0.76944444  0.72083333  1.0
  Cr  Cr231  1  0.83888889  0.10277778  0.72083333  1.0
  Cr  Cr232  1  0.83888889  0.43611111  0.72083333  1.0
  Cr  Cr233  1  0.83888889  0.76944444  0.72083333  1.0
  Cr  Cr234  1  0.06944444  0.13888889  0.72916667  1.0
  Cr  Cr235  1  0.06944444  0.47222222  0.72916667  1.0
  Cr  Cr236  1  0.06944444  0.80555556  0.72916667  1.0
  Cr  Cr237  1  0.40277778  0.13888889  0.72916667  1.0
  Cr  Cr238  1  0.40277778  0.47222222  0.72916667  1.0
  Cr  Cr239  1  0.40277778  0.80555556  0.72916667  1.0
  Cr  Cr240  1  0.73611111  0.13888889  0.72916667  1.0
  Cr  Cr241  1  0.73611111  0.47222222  0.72916667  1.0
  Cr  Cr242  1  0.73611111  0.80555556  0.72916667  1.0
  Cr  Cr243  1  0.14722222  0.32777778  0.69583333  1.0
  Cr  Cr244  1  0.14722222  0.66111111  0.69583333  1.0
  Cr  Cr245  1  0.14722222  0.99444444  0.69583333  1.0
  Cr  Cr246  1  0.48055556  0.32777778  0.69583333  1.0
  Cr  Cr247  1  0.48055556  0.66111111  0.69583333  1.0
  Cr  Cr248  1  0.48055556  0.99444444  0.69583333  1.0
  Cr  Cr249  1  0.81388889  0.32777778  0.69583333  1.0
  Cr  Cr250  1  0.81388889  0.66111111  0.69583333  1.0
  Cr  Cr251  1  0.81388889  0.99444444  0.69583333  1.0
  Cr  Cr252  1  0.01944444  0.25555556  0.67916667  1.0
  Cr  Cr253  1  0.01944444  0.58888889  0.67916667  1.0
  Cr  Cr254  1  0.01944444  0.92222222  0.67916667  1.0
  Cr  Cr255  1  0.35277778  0.25555556  0.67916667  1.0
  Cr  Cr256  1  0.35277778  0.58888889  0.67916667  1.0
  Cr  Cr257  1  0.35277778  0.92222222  0.67916667  1.0
  Cr  Cr258  1  0.68611111  0.25555556  0.67916667  1.0
  Cr  Cr259  1  0.68611111  0.58888889  0.67916667  1.0
  Cr  Cr260  1  0.68611111  0.92222222  0.67916667  1.0
  Cr  Cr261  1  0.27500000  0.06666667  0.71250000  1.0
  Cr  Cr262  1  0.27500000  0.40000000  0.71250000  1.0
  Cr  Cr263  1  0.27500000  0.73333333  0.71250000  1.0
  Cr  Cr264  1  0.60833333  0.06666667  0.71250000  1.0
  Cr  Cr265  1  0.60833333  0.40000000  0.71250000  1.0
  Cr  Cr266  1  0.60833333  0.73333333  0.71250000  1.0
  Cr  Cr267  1  0.94166667  0.06666667  0.71250000  1.0
  Cr  Cr268  1  0.94166667  0.40000000  0.71250000  1.0
  Cr  Cr269  1  0.94166667  0.73333333  0.71250000  1.0
  Cr  Cr270  1  0.07222222  0.00277778  0.62083333  1.0
  Cr  Cr271  1  0.07222222  0.33611111  0.62083333  1.0
  Cr  Cr272  1  0.07222222  0.66944444  0.62083333  1.0
  Cr  Cr273  1  0.40555556  0.00277778  0.62083333  1.0
  Cr  Cr274  1  0.40555556  0.33611111  0.62083333  1.0
  Cr  Cr275  1  0.40555556  0.66944444  0.62083333  1.0
  Cr  Cr276  1  0.73888889  0.00277778  0.62083333  1.0
  Cr  Cr277  1  0.73888889  0.33611111  0.62083333  1.0
  Cr  Cr278  1  0.73888889  0.66944444  0.62083333  1.0
  Cr  Cr279  1  0.32777778  0.14722222  0.65416667  1.0
  Cr  Cr280  1  0.32777778  0.48055556  0.65416667  1.0
  Cr  Cr281  1  0.32777778  0.81388889  0.65416667  1.0
  Cr  Cr282  1  0.66111111  0.14722222  0.65416667  1.0
  Cr  Cr283  1  0.66111111  0.48055556  0.65416667  1.0
  Cr  Cr284  1  0.66111111  0.81388889  0.65416667  1.0
  Cr  Cr285  1  0.99444444  0.14722222  0.65416667  1.0
  Cr  Cr286  1  0.99444444  0.48055556  0.65416667  1.0
  Cr  Cr287  1  0.99444444  0.81388889  0.65416667  1.0
  Cr  Cr288  1  0.22500000  0.18333333  0.66250000  1.0
  Cr  Cr289  1  0.22500000  0.51666667  0.66250000  1.0
  Cr  Cr290  1  0.22500000  0.85000000  0.66250000  1.0
  Cr  Cr291  1  0.55833333  0.18333333  0.66250000  1.0
  Cr  Cr292  1  0.55833333  0.51666667  0.66250000  1.0
  Cr  Cr293  1  0.55833333  0.85000000  0.66250000  1.0
  Cr  Cr294  1  0.89166667  0.18333333  0.66250000  1.0
  Cr  Cr295  1  0.89166667  0.51666667  0.66250000  1.0
  Cr  Cr296  1  0.89166667  0.85000000  0.66250000  1.0
  Cr  Cr297  1  0.30277778  0.03888889  0.62916667  1.0
  Cr  Cr298  1  0.30277778  0.37222222  0.62916667  1.0
  Cr  Cr299  1  0.30277778  0.70555556  0.62916667  1.0
  Cr  Cr300  1  0.63611111  0.03888889  0.62916667  1.0
  Cr  Cr301  1  0.63611111  0.37222222  0.62916667  1.0
  Cr  Cr302  1  0.63611111  0.70555556  0.62916667  1.0
  Cr  Cr303  1  0.96944444  0.03888889  0.62916667  1.0
  Cr  Cr304  1  0.96944444  0.37222222  0.62916667  1.0
  Cr  Cr305  1  0.96944444  0.70555556  0.62916667  1.0
  Cr  Cr306  1  0.17500000  0.30000000  0.61250000  1.0
  Cr  Cr307  1  0.17500000  0.63333333  0.61250000  1.0
  Cr  Cr308  1  0.17500000  0.96666667  0.61250000  1.0
  Cr  Cr309  1  0.50833333  0.30000000  0.61250000  1.0
  Cr  Cr310  1  0.50833333  0.63333333  0.61250000  1.0
  Cr  Cr311  1  0.50833333  0.96666667  0.61250000  1.0
  Cr  Cr312  1  0.84166667  0.30000000  0.61250000  1.0
  Cr  Cr313  1  0.84166667  0.63333333  0.61250000  1.0
  Cr  Cr314  1  0.84166667  0.96666667  0.61250000  1.0
  Cr  Cr315  1  0.09722222  0.11111111  0.64583333  1.0
  Cr  Cr316  1  0.09722222  0.44444444  0.64583333  1.0
  Cr  Cr317  1  0.09722222  0.77777778  0.64583333  1.0
  Cr  Cr318  1  0.43055556  0.11111111  0.64583333  1.0
  Cr  Cr319  1  0.43055556  0.44444444  0.64583333  1.0
  Cr  Cr320  1  0.43055556  0.77777778  0.64583333  1.0
  Cr  Cr321  1  0.76388889  0.11111111  0.64583333  1.0
  Cr  Cr322  1  0.76388889  0.44444444  0.64583333  1.0
  Cr  Cr323  1  0.76388889  0.77777778  0.64583333  1.0
  Ni  Ni324  1  0.16666667  0.04166667  0.93750000  1.0
  Ni  Ni325  1  0.16666667  0.37500000  0.93750000  1.0
  Ni  Ni326  1  0.16666667  0.70833333  0.93750000  1.0
  Ni  Ni327  1  0.50000000  0.04166667  0.93750000  1.0
  Ni  Ni328  1  0.50000000  0.37500000  0.93750000  1.0
  Ni  Ni329  1  0.50000000  0.70833333  0.93750000  1.0
  Ni  Ni330  1  0.83333333  0.04166667  0.93750000  1.0
  Ni  Ni331  1  0.83333333  0.37500000  0.93750000  1.0
  Ni  Ni332  1  0.83333333  0.70833333  0.93750000  1.0
  Ni  Ni333  1  0.08888889  0.18611111  0.97083333  1.0
  Ni  Ni334  1  0.08888889  0.51944444  0.97083333  1.0
  Ni  Ni335  1  0.08888889  0.85277778  0.97083333  1.0
  Ni  Ni336  1  0.42222222  0.18611111  0.97083333  1.0
  Ni  Ni337  1  0.42222222  0.51944444  0.97083333  1.0
  Ni  Ni338  1  0.42222222  0.85277778  0.97083333  1.0
  Ni  Ni339  1  0.75555556  0.18611111  0.97083333  1.0
  Ni  Ni340  1  0.75555556  0.51944444  0.97083333  1.0
  Ni  Ni341  1  0.75555556  0.85277778  0.97083333  1.0
  Ni  Ni342  1  0.32222222  0.08611111  0.87083333  1.0
  Ni  Ni343  1  0.32222222  0.41944444  0.87083333  1.0
  Ni  Ni344  1  0.32222222  0.75277778  0.87083333  1.0
  Ni  Ni345  1  0.65555556  0.08611111  0.87083333  1.0
  Ni  Ni346  1  0.65555556  0.41944444  0.87083333  1.0
  Ni  Ni347  1  0.65555556  0.75277778  0.87083333  1.0
  Ni  Ni348  1  0.98888889  0.08611111  0.87083333  1.0
  Ni  Ni349  1  0.98888889  0.41944444  0.87083333  1.0
  Ni  Ni350  1  0.98888889  0.75277778  0.87083333  1.0
  Ni  Ni351  1  0.24444444  0.23055556  0.90416667  1.0
  Ni  Ni352  1  0.24444444  0.56388889  0.90416667  1.0
  Ni  Ni353  1  0.24444444  0.89722222  0.90416667  1.0
  Ni  Ni354  1  0.57777778  0.23055556  0.90416667  1.0
  Ni  Ni355  1  0.57777778  0.56388889  0.90416667  1.0
  Ni  Ni356  1  0.57777778  0.89722222  0.90416667  1.0
  Ni  Ni357  1  0.91111111  0.23055556  0.90416667  1.0
  Ni  Ni358  1  0.91111111  0.56388889  0.90416667  1.0
  Ni  Ni359  1  0.91111111  0.89722222  0.90416667  1.0
  Ni  Ni360  1  0.14444444  0.13055556  0.80416667  1.0
  Ni  Ni361  1  0.14444444  0.46388889  0.80416667  1.0
  Ni  Ni362  1  0.14444444  0.79722222  0.80416667  1.0
  Ni  Ni363  1  0.47777778  0.13055556  0.80416667  1.0
  Ni  Ni364  1  0.47777778  0.46388889  0.80416667  1.0
  Ni  Ni365  1  0.47777778  0.79722222  0.80416667  1.0
  Ni  Ni366  1  0.81111111  0.13055556  0.80416667  1.0
  Ni  Ni367  1  0.81111111  0.46388889  0.80416667  1.0
  Ni  Ni368  1  0.81111111  0.79722222  0.80416667  1.0
  Ni  Ni369  1  0.06666667  0.27500000  0.83750000  1.0
  Ni  Ni370  1  0.06666667  0.60833333  0.83750000  1.0
  Ni  Ni371  1  0.06666667  0.94166667  0.83750000  1.0
  Ni  Ni372  1  0.40000000  0.27500000  0.83750000  1.0
  Ni  Ni373  1  0.40000000  0.60833333  0.83750000  1.0
  Ni  Ni374  1  0.40000000  0.94166667  0.83750000  1.0
  Ni  Ni375  1  0.73333333  0.27500000  0.83750000  1.0
  Ni  Ni376  1  0.73333333  0.60833333  0.83750000  1.0
  Ni  Ni377  1  0.73333333  0.94166667  0.83750000  1.0
  Ni  Ni378  1  0.30000000  0.17500000  0.73750000  1.0
  Ni  Ni379  1  0.30000000  0.50833333  0.73750000  1.0
  Ni  Ni380  1  0.30000000  0.84166667  0.73750000  1.0
  Ni  Ni381  1  0.63333333  0.17500000  0.73750000  1.0
  Ni  Ni382  1  0.63333333  0.50833333  0.73750000  1.0
  Ni  Ni383  1  0.63333333  0.84166667  0.73750000  1.0
  Ni  Ni384  1  0.96666667  0.17500000  0.73750000  1.0
  Ni  Ni385  1  0.96666667  0.50833333  0.73750000  1.0
  Ni  Ni386  1  0.96666667  0.84166667  0.73750000  1.0
  Ni  Ni387  1  0.22222222  0.31944444  0.77083333  1.0
  Ni  Ni388  1  0.22222222  0.65277778  0.77083333  1.0
  Ni  Ni389  1  0.22222222  0.98611111  0.77083333  1.0
  Ni  Ni390  1  0.55555556  0.31944444  0.77083333  1.0
  Ni  Ni391  1  0.55555556  0.65277778  0.77083333  1.0
  Ni  Ni392  1  0.55555556  0.98611111  0.77083333  1.0
  Ni  Ni393  1  0.88888889  0.31944444  0.77083333  1.0
  Ni  Ni394  1  0.88888889  0.65277778  0.77083333  1.0
  Ni  Ni395  1  0.88888889  0.98611111  0.77083333  1.0
  Ni  Ni396  1  0.12222222  0.21944444  0.67083333  1.0
  Ni  Ni397  1  0.12222222  0.55277778  0.67083333  1.0
  Ni  Ni398  1  0.12222222  0.88611111  0.67083333  1.0
  Ni  Ni399  1  0.45555556  0.21944444  0.67083333  1.0
  Ni  Ni400  1  0.45555556  0.55277778  0.67083333  1.0
  Ni  Ni401  1  0.45555556  0.88611111  0.67083333  1.0
  Ni  Ni402  1  0.78888889  0.21944444  0.67083333  1.0
  Ni  Ni403  1  0.78888889  0.55277778  0.67083333  1.0
  Ni  Ni404  1  0.78888889  0.88611111  0.67083333  1.0
  Ni  Ni405  1  0.04444444  0.03055556  0.70416667  1.0
  Ni  Ni406  1  0.04444444  0.36388889  0.70416667  1.0
  Ni  Ni407  1  0.04444444  0.69722222  0.70416667  1.0
  Ni  Ni408  1  0.37777778  0.03055556  0.70416667  1.0
  Ni  Ni409  1  0.37777778  0.36388889  0.70416667  1.0
  Ni  Ni410  1  0.37777778  0.69722222  0.70416667  1.0
  Ni  Ni411  1  0.71111111  0.03055556  0.70416667  1.0
  Ni  Ni412  1  0.71111111  0.36388889  0.70416667  1.0
  Ni  Ni413  1  0.71111111  0.69722222  0.70416667  1.0
  Ni  Ni414  1  0.27777778  0.26388889  0.60416667  1.0
  Ni  Ni415  1  0.27777778  0.59722222  0.60416667  1.0
  Ni  Ni416  1  0.27777778  0.93055556  0.60416667  1.0
  Ni  Ni417  1  0.61111111  0.26388889  0.60416667  1.0
  Ni  Ni418  1  0.61111111  0.59722222  0.60416667  1.0
  Ni  Ni419  1  0.61111111  0.93055556  0.60416667  1.0
  Ni  Ni420  1  0.94444444  0.26388889  0.60416667  1.0
  Ni  Ni421  1  0.94444444  0.59722222  0.60416667  1.0
  Ni  Ni422  1  0.94444444  0.93055556  0.60416667  1.0
  Ni  Ni423  1  0.20000000  0.07500000  0.63750000  1.0
  Ni  Ni424  1  0.20000000  0.40833333  0.63750000  1.0
  Ni  Ni425  1  0.20000000  0.74166667  0.63750000  1.0
  Ni  Ni426  1  0.53333333  0.07500000  0.63750000  1.0
  Ni  Ni427  1  0.53333333  0.40833333  0.63750000  1.0
  Ni  Ni428  1  0.53333333  0.74166667  0.63750000  1.0
  Ni  Ni429  1  0.86666667  0.07500000  0.63750000  1.0
  Ni  Ni430  1  0.86666667  0.40833333  0.63750000  1.0
  Ni  Ni431  1  0.86666667  0.74166667  0.63750000  1.0
