# generated using pymatgen
data_Cr3Ni
_symmetry_space_group_name_H-M   'P 1'
_cell_length_a   10.76967601
_cell_length_b   20.12749387
_cell_length_c   27.97834769
_cell_angle_alpha   96.08173313
_cell_angle_beta   90.00000001
_cell_angle_gamma   105.51772296
_symmetry_Int_Tables_number   1
_chemical_formula_structural   Cr3Ni
_chemical_formula_sum   'Cr162 Ni54'
_cell_volume   5808.26340348
_cell_formula_units_Z   54
loop_
 _symmetry_equiv_pos_site_id
 _symmetry_equiv_pos_as_xyz
  1  'x, y, z'
loop_
 _atom_site_type_symbol
 _atom_site_label
 _atom_site_symmetry_multiplicity
 _atom_site_fract_x
 _atom_site_fract_y
 _atom_site_fract_z
 _atom_site_occupancy
  Cr  Cr0  1  0.06845238  0.11607143  0.09821429  1.0
  Cr  Cr1  1  0.06845238  0.44940476  0.09821429  1.0
  Cr  Cr2  1  0.06845238  0.78273810  0.09821429  1.0
  Cr  Cr3  1  0.40178571  0.11607143  0.09821429  1.0
  Cr  Cr4  1  0.40178571  0.44940476  0.09821429  1.0
  Cr  Cr5  1  0.40178571  0.78273810  0.09821429  1.0
  Cr  Cr6  1  0.73511905  0.11607143  0.09821429  1.0
  Cr  Cr7  1  0.73511905  0.44940476  0.09821429  1.0
  Cr  Cr8  1  0.73511905  0.78273810  0.09821429  1.0
  Cr  Cr9  1  0.13988095  0.25892857  0.02678571  1.0
  Cr  Cr10  1  0.13988095  0.59226190  0.02678571  1.0
  Cr  Cr11  1  0.13988095  0.92559524  0.02678571  1.0
  Cr  Cr12  1  0.47321429  0.25892857  0.02678571  1.0
  Cr  Cr13  1  0.47321429  0.59226190  0.02678571  1.0
  Cr  Cr14  1  0.47321429  0.92559524  0.02678571  1.0
  Cr  Cr15  1  0.80654762  0.25892857  0.02678571  1.0
  Cr  Cr16  1  0.80654762  0.59226190  0.02678571  1.0
  Cr  Cr17  1  0.80654762  0.92559524  0.02678571  1.0
  Cr  Cr18  1  0.13392857  0.24702381  0.11607143  1.0
  Cr  Cr19  1  0.13392857  0.58035714  0.11607143  1.0
  Cr  Cr20  1  0.13392857  0.91369048  0.11607143  1.0
  Cr  Cr21  1  0.46726190  0.24702381  0.11607143  1.0
  Cr  Cr22  1  0.46726190  0.58035714  0.11607143  1.0
  Cr  Cr23  1  0.46726190  0.91369048  0.11607143  1.0
  Cr  Cr24  1  0.80059524  0.24702381  0.11607143  1.0
  Cr  Cr25  1  0.80059524  0.58035714  0.11607143  1.0
  Cr  Cr26  1  0.80059524  0.91369048  0.11607143  1.0
  Cr  Cr27  1  0.20535714  0.05654762  0.04464286  1.0
  Cr  Cr28  1  0.20535714  0.38988095  0.04464286  1.0
  Cr  Cr29  1  0.20535714  0.72321429  0.04464286  1.0
  Cr  Cr30  1  0.53869048  0.05654762  0.04464286  1.0
  Cr  Cr31  1  0.53869048  0.38988095  0.04464286  1.0
  Cr  Cr32  1  0.53869048  0.72321429  0.04464286  1.0
  Cr  Cr33  1  0.87202381  0.05654762  0.04464286  1.0
  Cr  Cr34  1  0.87202381  0.38988095  0.04464286  1.0
  Cr  Cr35  1  0.87202381  0.72321429  0.04464286  1.0
  Cr  Cr36  1  0.07440476  0.12797619  0.00892857  1.0
  Cr  Cr37  1  0.07440476  0.46130952  0.00892857  1.0
  Cr  Cr38  1  0.07440476  0.79464286  0.00892857  1.0
  Cr  Cr39  1  0.40773810  0.12797619  0.00892857  1.0
  Cr  Cr40  1  0.40773810  0.46130952  0.00892857  1.0
  Cr  Cr41  1  0.40773810  0.79464286  0.00892857  1.0
  Cr  Cr42  1  0.74107143  0.12797619  0.00892857  1.0
  Cr  Cr43  1  0.74107143  0.46130952  0.00892857  1.0
  Cr  Cr44  1  0.74107143  0.79464286  0.00892857  1.0
  Cr  Cr45  1  0.00297619  0.31845238  0.08035714  1.0
  Cr  Cr46  1  0.00297619  0.65178571  0.08035714  1.0
  Cr  Cr47  1  0.00297619  0.98511905  0.08035714  1.0
  Cr  Cr48  1  0.33630952  0.31845238  0.08035714  1.0
  Cr  Cr49  1  0.33630952  0.65178571  0.08035714  1.0
  Cr  Cr50  1  0.33630952  0.98511905  0.08035714  1.0
  Cr  Cr51  1  0.66964286  0.31845238  0.08035714  1.0
  Cr  Cr52  1  0.66964286  0.65178571  0.08035714  1.0
  Cr  Cr53  1  0.66964286  0.98511905  0.08035714  1.0
  Cr  Cr54  1  0.25892857  0.16369048  0.24107143  1.0
  Cr  Cr55  1  0.25892857  0.49702381  0.24107143  1.0
  Cr  Cr56  1  0.25892857  0.83035714  0.24107143  1.0
  Cr  Cr57  1  0.59226190  0.16369048  0.24107143  1.0
  Cr  Cr58  1  0.59226190  0.49702381  0.24107143  1.0
  Cr  Cr59  1  0.59226190  0.83035714  0.24107143  1.0
  Cr  Cr60  1  0.92559524  0.16369048  0.24107143  1.0
  Cr  Cr61  1  0.92559524  0.49702381  0.24107143  1.0
  Cr  Cr62  1  0.92559524  0.83035714  0.24107143  1.0
  Cr  Cr63  1  0.33035714  0.30654762  0.16964286  1.0
  Cr  Cr64  1  0.33035714  0.63988095  0.16964286  1.0
  Cr  Cr65  1  0.33035714  0.97321429  0.16964286  1.0
  Cr  Cr66  1  0.66369048  0.30654762  0.16964286  1.0
  Cr  Cr67  1  0.66369048  0.63988095  0.16964286  1.0
  Cr  Cr68  1  0.66369048  0.97321429  0.16964286  1.0
  Cr  Cr69  1  0.99702381  0.30654762  0.16964286  1.0
  Cr  Cr70  1  0.99702381  0.63988095  0.16964286  1.0
  Cr  Cr71  1  0.99702381  0.97321429  0.16964286  1.0
  Cr  Cr72  1  0.32440476  0.29464286  0.25892857  1.0
  Cr  Cr73  1  0.32440476  0.62797619  0.25892857  1.0
  Cr  Cr74  1  0.32440476  0.96130952  0.25892857  1.0
  Cr  Cr75  1  0.65773810  0.29464286  0.25892857  1.0
  Cr  Cr76  1  0.65773810  0.62797619  0.25892857  1.0
  Cr  Cr77  1  0.65773810  0.96130952  0.25892857  1.0
  Cr  Cr78  1  0.99107143  0.29464286  0.25892857  1.0
  Cr  Cr79  1  0.99107143  0.62797619  0.25892857  1.0
  Cr  Cr80  1  0.99107143  0.96130952  0.25892857  1.0
  Cr  Cr81  1  0.06250000  0.10416667  0.18750000  1.0
  Cr  Cr82  1  0.06250000  0.43750000  0.18750000  1.0
  Cr  Cr83  1  0.06250000  0.77083333  0.18750000  1.0
  Cr  Cr84  1  0.39583333  0.10416667  0.18750000  1.0
  Cr  Cr85  1  0.39583333  0.43750000  0.18750000  1.0
  Cr  Cr86  1  0.39583333  0.77083333  0.18750000  1.0
  Cr  Cr87  1  0.72916667  0.10416667  0.18750000  1.0
  Cr  Cr88  1  0.72916667  0.43750000  0.18750000  1.0
  Cr  Cr89  1  0.72916667  0.77083333  0.18750000  1.0
  Cr  Cr90  1  0.26488095  0.17559524  0.15178571  1.0
  Cr  Cr91  1  0.26488095  0.50892857  0.15178571  1.0
  Cr  Cr92  1  0.26488095  0.84226190  0.15178571  1.0
  Cr  Cr93  1  0.59821429  0.17559524  0.15178571  1.0
  Cr  Cr94  1  0.59821429  0.50892857  0.15178571  1.0
  Cr  Cr95  1  0.59821429  0.84226190  0.15178571  1.0
  Cr  Cr96  1  0.93154762  0.17559524  0.15178571  1.0
  Cr  Cr97  1  0.93154762  0.50892857  0.15178571  1.0
  Cr  Cr98  1  0.93154762  0.84226190  0.15178571  1.0
  Cr  Cr99  1  0.19345238  0.03273810  0.22321429  1.0
  Cr  Cr100  1  0.19345238  0.36607143  0.22321429  1.0
  Cr  Cr101  1  0.19345238  0.69940476  0.22321429  1.0
  Cr  Cr102  1  0.52678571  0.03273810  0.22321429  1.0
  Cr  Cr103  1  0.52678571  0.36607143  0.22321429  1.0
  Cr  Cr104  1  0.52678571  0.69940476  0.22321429  1.0
  Cr  Cr105  1  0.86011905  0.03273810  0.22321429  1.0
  Cr  Cr106  1  0.86011905  0.36607143  0.22321429  1.0
  Cr  Cr107  1  0.86011905  0.69940476  0.22321429  1.0
  Cr  Cr108  1  0.11607143  0.21130952  0.38392857  1.0
  Cr  Cr109  1  0.11607143  0.54464286  0.38392857  1.0
  Cr  Cr110  1  0.11607143  0.87797619  0.38392857  1.0
  Cr  Cr111  1  0.44940476  0.21130952  0.38392857  1.0
  Cr  Cr112  1  0.44940476  0.54464286  0.38392857  1.0
  Cr  Cr113  1  0.44940476  0.87797619  0.38392857  1.0
  Cr  Cr114  1  0.78273810  0.21130952  0.38392857  1.0
  Cr  Cr115  1  0.78273810  0.54464286  0.38392857  1.0
  Cr  Cr116  1  0.78273810  0.87797619  0.38392857  1.0
  Cr  Cr117  1  0.18750000  0.02083333  0.31250000  1.0
  Cr  Cr118  1  0.18750000  0.35416667  0.31250000  1.0
  Cr  Cr119  1  0.18750000  0.68750000  0.31250000  1.0
  Cr  Cr120  1  0.52083333  0.02083333  0.31250000  1.0
  Cr  Cr121  1  0.52083333  0.35416667  0.31250000  1.0
  Cr  Cr122  1  0.52083333  0.68750000  0.31250000  1.0
  Cr  Cr123  1  0.85416667  0.02083333  0.31250000  1.0
  Cr  Cr124  1  0.85416667  0.35416667  0.31250000  1.0
  Cr  Cr125  1  0.85416667  0.68750000  0.31250000  1.0
  Cr  Cr126  1  0.18154762  0.00892857  0.40178571  1.0
  Cr  Cr127  1  0.18154762  0.34226190  0.40178571  1.0
  Cr  Cr128  1  0.18154762  0.67559524  0.40178571  1.0
  Cr  Cr129  1  0.51488095  0.00892857  0.40178571  1.0
  Cr  Cr130  1  0.51488095  0.34226190  0.40178571  1.0
  Cr  Cr131  1  0.51488095  0.67559524  0.40178571  1.0
  Cr  Cr132  1  0.84821429  0.00892857  0.40178571  1.0
  Cr  Cr133  1  0.84821429  0.34226190  0.40178571  1.0
  Cr  Cr134  1  0.84821429  0.67559524  0.40178571  1.0
  Cr  Cr135  1  0.25297619  0.15178571  0.33035714  1.0
  Cr  Cr136  1  0.25297619  0.48511905  0.33035714  1.0
  Cr  Cr137  1  0.25297619  0.81845238  0.33035714  1.0
  Cr  Cr138  1  0.58630952  0.15178571  0.33035714  1.0
  Cr  Cr139  1  0.58630952  0.48511905  0.33035714  1.0
  Cr  Cr140  1  0.58630952  0.81845238  0.33035714  1.0
  Cr  Cr141  1  0.91964286  0.15178571  0.33035714  1.0
  Cr  Cr142  1  0.91964286  0.48511905  0.33035714  1.0
  Cr  Cr143  1  0.91964286  0.81845238  0.33035714  1.0
  Cr  Cr144  1  0.12202381  0.22321429  0.29464286  1.0
  Cr  Cr145  1  0.12202381  0.55654762  0.29464286  1.0
  Cr  Cr146  1  0.12202381  0.88988095  0.29464286  1.0
  Cr  Cr147  1  0.45535714  0.22321429  0.29464286  1.0
  Cr  Cr148  1  0.45535714  0.55654762  0.29464286  1.0
  Cr  Cr149  1  0.45535714  0.88988095  0.29464286  1.0
  Cr  Cr150  1  0.78869048  0.22321429  0.29464286  1.0
  Cr  Cr151  1  0.78869048  0.55654762  0.29464286  1.0
  Cr  Cr152  1  0.78869048  0.88988095  0.29464286  1.0
  Cr  Cr153  1  0.05059524  0.08035714  0.36607143  1.0
  Cr  Cr154  1  0.05059524  0.41369048  0.36607143  1.0
  Cr  Cr155  1  0.05059524  0.74702381  0.36607143  1.0
  Cr  Cr156  1  0.38392857  0.08035714  0.36607143  1.0
  Cr  Cr157  1  0.38392857  0.41369048  0.36607143  1.0
  Cr  Cr158  1  0.38392857  0.74702381  0.36607143  1.0
  Cr  Cr159  1  0.71726190  0.08035714  0.36607143  1.0
  Cr  Cr160  1  0.71726190  0.41369048  0.36607143  1.0
  Cr  Cr161  1  0.71726190  0.74702381  0.36607143  1.0
  Ni  Ni162  1  0.27083333  0.18750000  0.06250000  1.0
  Ni  Ni163  1  0.27083333  0.52083333  0.06250000  1.0
  Ni  Ni164  1  0.27083333  0.85416667  0.06250000  1.0
  Ni  Ni165  1  0.60416667  0.18750000  0.06250000  1.0
  Ni  Ni166  1  0.60416667  0.52083333  0.06250000  1.0
  Ni  Ni167  1  0.60416667  0.85416667  0.06250000  1.0
  Ni  Ni168  1  0.93750000  0.18750000  0.06250000  1.0
  Ni  Ni169  1  0.93750000  0.52083333  0.06250000  1.0
  Ni  Ni170  1  0.93750000  0.85416667  0.06250000  1.0
  Ni  Ni171  1  0.19940476  0.04464286  0.13392857  1.0
  Ni  Ni172  1  0.19940476  0.37797619  0.13392857  1.0
  Ni  Ni173  1  0.19940476  0.71130952  0.13392857  1.0
  Ni  Ni174  1  0.53273810  0.04464286  0.13392857  1.0
  Ni  Ni175  1  0.53273810  0.37797619  0.13392857  1.0
  Ni  Ni176  1  0.53273810  0.71130952  0.13392857  1.0
  Ni  Ni177  1  0.86607143  0.04464286  0.13392857  1.0
  Ni  Ni178  1  0.86607143  0.37797619  0.13392857  1.0
  Ni  Ni179  1  0.86607143  0.71130952  0.13392857  1.0
  Ni  Ni180  1  0.12797619  0.23511905  0.20535714  1.0
  Ni  Ni181  1  0.12797619  0.56845238  0.20535714  1.0
  Ni  Ni182  1  0.12797619  0.90178571  0.20535714  1.0
  Ni  Ni183  1  0.46130952  0.23511905  0.20535714  1.0
  Ni  Ni184  1  0.46130952  0.56845238  0.20535714  1.0
  Ni  Ni185  1  0.46130952  0.90178571  0.20535714  1.0
  Ni  Ni186  1  0.79464286  0.23511905  0.20535714  1.0
  Ni  Ni187  1  0.79464286  0.56845238  0.20535714  1.0
  Ni  Ni188  1  0.79464286  0.90178571  0.20535714  1.0
  Ni  Ni189  1  0.05654762  0.09226190  0.27678571  1.0
  Ni  Ni190  1  0.05654762  0.42559524  0.27678571  1.0
  Ni  Ni191  1  0.05654762  0.75892857  0.27678571  1.0
  Ni  Ni192  1  0.38988095  0.09226190  0.27678571  1.0
  Ni  Ni193  1  0.38988095  0.42559524  0.27678571  1.0
  Ni  Ni194  1  0.38988095  0.75892857  0.27678571  1.0
  Ni  Ni195  1  0.72321429  0.09226190  0.27678571  1.0
  Ni  Ni196  1  0.72321429  0.42559524  0.27678571  1.0
  Ni  Ni197  1  0.72321429  0.75892857  0.27678571  1.0
  Ni  Ni198  1  0.31845238  0.28273810  0.34821429  1.0
  Ni  Ni199  1  0.31845238  0.61607143  0.34821429  1.0
  Ni  Ni200  1  0.31845238  0.94940476  0.34821429  1.0
  Ni  Ni201  1  0.65178571  0.28273810  0.34821429  1.0
  Ni  Ni202  1  0.65178571  0.61607143  0.34821429  1.0
  Ni  Ni203  1  0.65178571  0.94940476  0.34821429  1.0
  Ni  Ni204  1  0.98511905  0.28273810  0.34821429  1.0
  Ni  Ni205  1  0.98511905  0.61607143  0.34821429  1.0
  Ni  Ni206  1  0.98511905  0.94940476  0.34821429  1.0
  Ni  Ni207  1  0.24702381  0.13988095  0.41964286  1.0
  Ni  Ni208  1  0.24702381  0.47321429  0.41964286  1.0
  Ni  Ni209  1  0.24702381  0.80654762  0.41964286  1.0
  Ni  Ni210  1  0.58035714  0.13988095  0.41964286  1.0
  Ni  Ni211  1  0.58035714  0.47321429  0.41964286  1.0
  Ni  Ni212  1  0.58035714  0.80654762  0.41964286  1.0
  Ni  Ni213  1  0.91369048  0.13988095  0.41964286  1.0
  Ni  Ni214  1  0.91369048  0.47321429  0.41964286  1.0
  Ni  Ni215  1  0.91369048  0.80654762  0.41964286  1.0
