# generated using pymatgen
data_Cr3Ni
_symmetry_space_group_name_H-M   'P 1'
_cell_length_a   15.23062187
_cell_length_b   24.01230406
_cell_length_c   96.49512180
_cell_angle_alpha   155.84345247
_cell_angle_beta   125.36198913
_cell_angle_gamma   71.50982507
_symmetry_Int_Tables_number   1
_chemical_formula_structural   Cr3Ni
_chemical_formula_sum   'Cr243 Ni81'
_cell_volume   9127.27106261
_cell_formula_units_Z   81
loop_
 _symmetry_equiv_pos_site_id
 _symmetry_equiv_pos_as_xyz
  1  'x, y, z'
loop_
 _atom_site_type_symbol
 _atom_site_label
 _atom_site_symmetry_multiplicity
 _atom_site_fract_x
 _atom_site_fract_y
 _atom_site_fract_z
 _atom_site_occupancy
  Cr  Cr0  1  0.16666667  0.00000000  0.03409091  1.0
  Cr  Cr1  1  0.16666667  0.33333333  0.03409091  1.0
  Cr  Cr2  1  0.16666667  0.66666667  0.03409091  1.0
  Cr  Cr3  1  0.50000000  0.00000000  0.03409091  1.0
  Cr  Cr4  1  0.50000000  0.33333333  0.03409091  1.0
  Cr  Cr5  1  0.50000000  0.66666667  0.03409091  1.0
  Cr  Cr6  1  0.83333333  0.00000000  0.03409091  1.0
  Cr  Cr7  1  0.83333333  0.33333333  0.03409091  1.0
  Cr  Cr8  1  0.83333333  0.66666667  0.03409091  1.0
  Cr  Cr9  1  0.08333333  0.16666667  0.01136364  1.0
  Cr  Cr10  1  0.08333333  0.50000000  0.01136364  1.0
  Cr  Cr11  1  0.08333333  0.83333333  0.01136364  1.0
  Cr  Cr12  1  0.41666667  0.16666667  0.01136364  1.0
  Cr  Cr13  1  0.41666667  0.50000000  0.01136364  1.0
  Cr  Cr14  1  0.41666667  0.83333333  0.01136364  1.0
  Cr  Cr15  1  0.75000000  0.16666667  0.01136364  1.0
  Cr  Cr16  1  0.75000000  0.50000000  0.01136364  1.0
  Cr  Cr17  1  0.75000000  0.83333333  0.01136364  1.0
  Cr  Cr18  1  0.25000000  0.16666667  0.01136364  1.0
  Cr  Cr19  1  0.25000000  0.50000000  0.01136364  1.0
  Cr  Cr20  1  0.25000000  0.83333333  0.01136364  1.0
  Cr  Cr21  1  0.58333333  0.16666667  0.01136364  1.0
  Cr  Cr22  1  0.58333333  0.50000000  0.01136364  1.0
  Cr  Cr23  1  0.58333333  0.83333333  0.01136364  1.0
  Cr  Cr24  1  0.91666667  0.16666667  0.01136364  1.0
  Cr  Cr25  1  0.91666667  0.50000000  0.01136364  1.0
  Cr  Cr26  1  0.91666667  0.83333333  0.01136364  1.0
  Ni  Ni27  1  0.00000000  0.00000000  0.03409091  1.0
  Ni  Ni28  1  0.00000000  0.33333333  0.03409091  1.0
  Ni  Ni29  1  0.00000000  0.66666667  0.03409091  1.0
  Ni  Ni30  1  0.33333333  0.00000000  0.03409091  1.0
  Ni  Ni31  1  0.33333333  0.33333333  0.03409091  1.0
  Ni  Ni32  1  0.33333333  0.66666667  0.03409091  1.0
  Ni  Ni33  1  0.66666667  0.00000000  0.03409091  1.0
  Ni  Ni34  1  0.66666667  0.33333333  0.03409091  1.0
  Ni  Ni35  1  0.66666667  0.66666667  0.03409091  1.0
  Cr  Cr36  1  0.16666667  0.00000000  0.07954545  1.0
  Cr  Cr37  1  0.16666667  0.33333333  0.07954545  1.0
  Cr  Cr38  1  0.16666667  0.66666667  0.07954545  1.0
  Cr  Cr39  1  0.50000000  0.00000000  0.07954545  1.0
  Cr  Cr40  1  0.50000000  0.33333333  0.07954545  1.0
  Cr  Cr41  1  0.50000000  0.66666667  0.07954545  1.0
  Cr  Cr42  1  0.83333333  0.00000000  0.07954545  1.0
  Cr  Cr43  1  0.83333333  0.33333333  0.07954545  1.0
  Cr  Cr44  1  0.83333333  0.66666667  0.07954545  1.0
  Cr  Cr45  1  0.08333333  0.16666667  0.05681818  1.0
  Cr  Cr46  1  0.08333333  0.50000000  0.05681818  1.0
  Cr  Cr47  1  0.08333333  0.83333333  0.05681818  1.0
  Cr  Cr48  1  0.41666667  0.16666667  0.05681818  1.0
  Cr  Cr49  1  0.41666667  0.50000000  0.05681818  1.0
  Cr  Cr50  1  0.41666667  0.83333333  0.05681818  1.0
  Cr  Cr51  1  0.75000000  0.16666667  0.05681818  1.0
  Cr  Cr52  1  0.75000000  0.50000000  0.05681818  1.0
  Cr  Cr53  1  0.75000000  0.83333333  0.05681818  1.0
  Cr  Cr54  1  0.25000000  0.16666667  0.05681818  1.0
  Cr  Cr55  1  0.25000000  0.50000000  0.05681818  1.0
  Cr  Cr56  1  0.25000000  0.83333333  0.05681818  1.0
  Cr  Cr57  1  0.58333333  0.16666667  0.05681818  1.0
  Cr  Cr58  1  0.58333333  0.50000000  0.05681818  1.0
  Cr  Cr59  1  0.58333333  0.83333333  0.05681818  1.0
  Cr  Cr60  1  0.91666667  0.16666667  0.05681818  1.0
  Cr  Cr61  1  0.91666667  0.50000000  0.05681818  1.0
  Cr  Cr62  1  0.91666667  0.83333333  0.05681818  1.0
  Ni  Ni63  1  0.00000000  0.00000000  0.07954545  1.0
  Ni  Ni64  1  0.00000000  0.33333333  0.07954545  1.0
  Ni  Ni65  1  0.00000000  0.66666667  0.07954545  1.0
  Ni  Ni66  1  0.33333333  0.00000000  0.07954545  1.0
  Ni  Ni67  1  0.33333333  0.33333333  0.07954545  1.0
  Ni  Ni68  1  0.33333333  0.66666667  0.07954545  1.0
  Ni  Ni69  1  0.66666667  0.00000000  0.07954545  1.0
  Ni  Ni70  1  0.66666667  0.33333333  0.07954545  1.0
  Ni  Ni71  1  0.66666667  0.66666667  0.07954545  1.0
  Cr  Cr72  1  0.16666667  0.00000000  0.12500000  1.0
  Cr  Cr73  1  0.16666667  0.33333333  0.12500000  1.0
  Cr  Cr74  1  0.16666667  0.66666667  0.12500000  1.0
  Cr  Cr75  1  0.50000000  0.00000000  0.12500000  1.0
  Cr  Cr76  1  0.50000000  0.33333333  0.12500000  1.0
  Cr  Cr77  1  0.50000000  0.66666667  0.12500000  1.0
  Cr  Cr78  1  0.83333333  0.00000000  0.12500000  1.0
  Cr  Cr79  1  0.83333333  0.33333333  0.12500000  1.0
  Cr  Cr80  1  0.83333333  0.66666667  0.12500000  1.0
  Cr  Cr81  1  0.08333333  0.16666667  0.10227273  1.0
  Cr  Cr82  1  0.08333333  0.50000000  0.10227273  1.0
  Cr  Cr83  1  0.08333333  0.83333333  0.10227273  1.0
  Cr  Cr84  1  0.41666667  0.16666667  0.10227273  1.0
  Cr  Cr85  1  0.41666667  0.50000000  0.10227273  1.0
  Cr  Cr86  1  0.41666667  0.83333333  0.10227273  1.0
  Cr  Cr87  1  0.75000000  0.16666667  0.10227273  1.0
  Cr  Cr88  1  0.75000000  0.50000000  0.10227273  1.0
  Cr  Cr89  1  0.75000000  0.83333333  0.10227273  1.0
  Cr  Cr90  1  0.25000000  0.16666667  0.10227273  1.0
  Cr  Cr91  1  0.25000000  0.50000000  0.10227273  1.0
  Cr  Cr92  1  0.25000000  0.83333333  0.10227273  1.0
  Cr  Cr93  1  0.58333333  0.16666667  0.10227273  1.0
  Cr  Cr94  1  0.58333333  0.50000000  0.10227273  1.0
  Cr  Cr95  1  0.58333333  0.83333333  0.10227273  1.0
  Cr  Cr96  1  0.91666667  0.16666667  0.10227273  1.0
  Cr  Cr97  1  0.91666667  0.50000000  0.10227273  1.0
  Cr  Cr98  1  0.91666667  0.83333333  0.10227273  1.0
  Ni  Ni99  1  0.00000000  0.00000000  0.12500000  1.0
  Ni  Ni100  1  0.00000000  0.33333333  0.12500000  1.0
  Ni  Ni101  1  0.00000000  0.66666667  0.12500000  1.0
  Ni  Ni102  1  0.33333333  0.00000000  0.12500000  1.0
  Ni  Ni103  1  0.33333333  0.33333333  0.12500000  1.0
  Ni  Ni104  1  0.33333333  0.66666667  0.12500000  1.0
  Ni  Ni105  1  0.66666667  0.00000000  0.12500000  1.0
  Ni  Ni106  1  0.66666667  0.33333333  0.12500000  1.0
  Ni  Ni107  1  0.66666667  0.66666667  0.12500000  1.0
  Cr  Cr108  1  0.16666667  0.00000000  0.17045455  1.0
  Cr  Cr109  1  0.16666667  0.33333333  0.17045455  1.0
  Cr  Cr110  1  0.16666667  0.66666667  0.17045455  1.0
  Cr  Cr111  1  0.50000000  0.00000000  0.17045455  1.0
  Cr  Cr112  1  0.50000000  0.33333333  0.17045455  1.0
  Cr  Cr113  1  0.50000000  0.66666667  0.17045455  1.0
  Cr  Cr114  1  0.83333333  0.00000000  0.17045455  1.0
  Cr  Cr115  1  0.83333333  0.33333333  0.17045455  1.0
  Cr  Cr116  1  0.83333333  0.66666667  0.17045455  1.0
  Cr  Cr117  1  0.08333333  0.16666667  0.14772727  1.0
  Cr  Cr118  1  0.08333333  0.50000000  0.14772727  1.0
  Cr  Cr119  1  0.08333333  0.83333333  0.14772727  1.0
  Cr  Cr120  1  0.41666667  0.16666667  0.14772727  1.0
  Cr  Cr121  1  0.41666667  0.50000000  0.14772727  1.0
  Cr  Cr122  1  0.41666667  0.83333333  0.14772727  1.0
  Cr  Cr123  1  0.75000000  0.16666667  0.14772727  1.0
  Cr  Cr124  1  0.75000000  0.50000000  0.14772727  1.0
  Cr  Cr125  1  0.75000000  0.83333333  0.14772727  1.0
  Cr  Cr126  1  0.25000000  0.16666667  0.14772727  1.0
  Cr  Cr127  1  0.25000000  0.50000000  0.14772727  1.0
  Cr  Cr128  1  0.25000000  0.83333333  0.14772727  1.0
  Cr  Cr129  1  0.58333333  0.16666667  0.14772727  1.0
  Cr  Cr130  1  0.58333333  0.50000000  0.14772727  1.0
  Cr  Cr131  1  0.58333333  0.83333333  0.14772727  1.0
  Cr  Cr132  1  0.91666667  0.16666667  0.14772727  1.0
  Cr  Cr133  1  0.91666667  0.50000000  0.14772727  1.0
  Cr  Cr134  1  0.91666667  0.83333333  0.14772727  1.0
  Ni  Ni135  1  0.00000000  0.00000000  0.17045455  1.0
  Ni  Ni136  1  0.00000000  0.33333333  0.17045455  1.0
  Ni  Ni137  1  0.00000000  0.66666667  0.17045455  1.0
  Ni  Ni138  1  0.33333333  0.00000000  0.17045455  1.0
  Ni  Ni139  1  0.33333333  0.33333333  0.17045455  1.0
  Ni  Ni140  1  0.33333333  0.66666667  0.17045455  1.0
  Ni  Ni141  1  0.66666667  0.00000000  0.17045455  1.0
  Ni  Ni142  1  0.66666667  0.33333333  0.17045455  1.0
  Ni  Ni143  1  0.66666667  0.66666667  0.17045455  1.0
  Cr  Cr144  1  0.16666667  0.00000000  0.21590909  1.0
  Cr  Cr145  1  0.16666667  0.33333333  0.21590909  1.0
  Cr  Cr146  1  0.16666667  0.66666667  0.21590909  1.0
  Cr  Cr147  1  0.50000000  0.00000000  0.21590909  1.0
  Cr  Cr148  1  0.50000000  0.33333333  0.21590909  1.0
  Cr  Cr149  1  0.50000000  0.66666667  0.21590909  1.0
  Cr  Cr150  1  0.83333333  0.00000000  0.21590909  1.0
  Cr  Cr151  1  0.83333333  0.33333333  0.21590909  1.0
  Cr  Cr152  1  0.83333333  0.66666667  0.21590909  1.0
  Cr  Cr153  1  0.08333333  0.16666667  0.19318182  1.0
  Cr  Cr154  1  0.08333333  0.50000000  0.19318182  1.0
  Cr  Cr155  1  0.08333333  0.83333333  0.19318182  1.0
  Cr  Cr156  1  0.41666667  0.16666667  0.19318182  1.0
  Cr  Cr157  1  0.41666667  0.50000000  0.19318182  1.0
  Cr  Cr158  1  0.41666667  0.83333333  0.19318182  1.0
  Cr  Cr159  1  0.75000000  0.16666667  0.19318182  1.0
  Cr  Cr160  1  0.75000000  0.50000000  0.19318182  1.0
  Cr  Cr161  1  0.75000000  0.83333333  0.19318182  1.0
  Cr  Cr162  1  0.25000000  0.16666667  0.19318182  1.0
  Cr  Cr163  1  0.25000000  0.50000000  0.19318182  1.0
  Cr  Cr164  1  0.25000000  0.83333333  0.19318182  1.0
  Cr  Cr165  1  0.58333333  0.16666667  0.19318182  1.0
  Cr  Cr166  1  0.58333333  0.50000000  0.19318182  1.0
  Cr  Cr167  1  0.58333333  0.83333333  0.19318182  1.0
  Cr  Cr168  1  0.91666667  0.16666667  0.19318182  1.0
  Cr  Cr169  1  0.91666667  0.50000000  0.19318182  1.0
  Cr  Cr170  1  0.91666667  0.83333333  0.19318182  1.0
  Ni  Ni171  1  0.00000000  0.00000000  0.21590909  1.0
  Ni  Ni172  1  0.00000000  0.33333333  0.21590909  1.0
  Ni  Ni173  1  0.00000000  0.66666667  0.21590909  1.0
  Ni  Ni174  1  0.33333333  0.00000000  0.21590909  1.0
  Ni  Ni175  1  0.33333333  0.33333333  0.21590909  1.0
  Ni  Ni176  1  0.33333333  0.66666667  0.21590909  1.0
  Ni  Ni177  1  0.66666667  0.00000000  0.21590909  1.0
  Ni  Ni178  1  0.66666667  0.33333333  0.21590909  1.0
  Ni  Ni179  1  0.66666667  0.66666667  0.21590909  1.0
  Cr  Cr180  1  0.16666667  0.00000000  0.26136364  1.0
  Cr  Cr181  1  0.16666667  0.33333333  0.26136364  1.0
  Cr  Cr182  1  0.16666667  0.66666667  0.26136364  1.0
  Cr  Cr183  1  0.50000000  0.00000000  0.26136364  1.0
  Cr  Cr184  1  0.50000000  0.33333333  0.26136364  1.0
  Cr  Cr185  1  0.50000000  0.66666667  0.26136364  1.0
  Cr  Cr186  1  0.83333333  0.00000000  0.26136364  1.0
  Cr  Cr187  1  0.83333333  0.33333333  0.26136364  1.0
  Cr  Cr188  1  0.83333333  0.66666667  0.26136364  1.0
  Cr  Cr189  1  0.08333333  0.16666667  0.23863636  1.0
  Cr  Cr190  1  0.08333333  0.50000000  0.23863636  1.0
  Cr  Cr191  1  0.08333333  0.83333333  0.23863636  1.0
  Cr  Cr192  1  0.41666667  0.16666667  0.23863636  1.0
  Cr  Cr193  1  0.41666667  0.50000000  0.23863636  1.0
  Cr  Cr194  1  0.41666667  0.83333333  0.23863636  1.0
  Cr  Cr195  1  0.75000000  0.16666667  0.23863636  1.0
  Cr  Cr196  1  0.75000000  0.50000000  0.23863636  1.0
  Cr  Cr197  1  0.75000000  0.83333333  0.23863636  1.0
  Cr  Cr198  1  0.25000000  0.16666667  0.23863636  1.0
  Cr  Cr199  1  0.25000000  0.50000000  0.23863636  1.0
  Cr  Cr200  1  0.25000000  0.83333333  0.23863636  1.0
  Cr  Cr201  1  0.58333333  0.16666667  0.23863636  1.0
  Cr  Cr202  1  0.58333333  0.50000000  0.23863636  1.0
  Cr  Cr203  1  0.58333333  0.83333333  0.23863636  1.0
  Cr  Cr204  1  0.91666667  0.16666667  0.23863636  1.0
  Cr  Cr205  1  0.91666667  0.50000000  0.23863636  1.0
  Cr  Cr206  1  0.91666667  0.83333333  0.23863636  1.0
  Ni  Ni207  1  0.00000000  0.00000000  0.26136364  1.0
  Ni  Ni208  1  0.00000000  0.33333333  0.26136364  1.0
  Ni  Ni209  1  0.00000000  0.66666667  0.26136364  1.0
  Ni  Ni210  1  0.33333333  0.00000000  0.26136364  1.0
  Ni  Ni211  1  0.33333333  0.33333333  0.26136364  1.0
  Ni  Ni212  1  0.33333333  0.66666667  0.26136364  1.0
  Ni  Ni213  1  0.66666667  0.00000000  0.26136364  1.0
  Ni  Ni214  1  0.66666667  0.33333333  0.26136364  1.0
  Ni  Ni215  1  0.66666667  0.66666667  0.26136364  1.0
  Cr  Cr216  1  0.16666667  0.00000000  0.30681818  1.0
  Cr  Cr217  1  0.16666667  0.33333333  0.30681818  1.0
  Cr  Cr218  1  0.16666667  0.66666667  0.30681818  1.0
  Cr  Cr219  1  0.50000000  0.00000000  0.30681818  1.0
  Cr  Cr220  1  0.50000000  0.33333333  0.30681818  1.0
  Cr  Cr221  1  0.50000000  0.66666667  0.30681818  1.0
  Cr  Cr222  1  0.83333333  0.00000000  0.30681818  1.0
  Cr  Cr223  1  0.83333333  0.33333333  0.30681818  1.0
  Cr  Cr224  1  0.83333333  0.66666667  0.30681818  1.0
  Cr  Cr225  1  0.08333333  0.16666667  0.28409091  1.0
  Cr  Cr226  1  0.08333333  0.50000000  0.28409091  1.0
  Cr  Cr227  1  0.08333333  0.83333333  0.28409091  1.0
  Cr  Cr228  1  0.41666667  0.16666667  0.28409091  1.0
  Cr  Cr229  1  0.41666667  0.50000000  0.28409091  1.0
  Cr  Cr230  1  0.41666667  0.83333333  0.28409091  1.0
  Cr  Cr231  1  0.75000000  0.16666667  0.28409091  1.0
  Cr  Cr232  1  0.75000000  0.50000000  0.28409091  1.0
  Cr  Cr233  1  0.75000000  0.83333333  0.28409091  1.0
  Cr  Cr234  1  0.25000000  0.16666667  0.28409091  1.0
  Cr  Cr235  1  0.25000000  0.50000000  0.28409091  1.0
  Cr  Cr236  1  0.25000000  0.83333333  0.28409091  1.0
  Cr  Cr237  1  0.58333333  0.16666667  0.28409091  1.0
  Cr  Cr238  1  0.58333333  0.50000000  0.28409091  1.0
  Cr  Cr239  1  0.58333333  0.83333333  0.28409091  1.0
  Cr  Cr240  1  0.91666667  0.16666667  0.28409091  1.0
  Cr  Cr241  1  0.91666667  0.50000000  0.28409091  1.0
  Cr  Cr242  1  0.91666667  0.83333333  0.28409091  1.0
  Ni  Ni243  1  0.00000000  0.00000000  0.30681818  1.0
  Ni  Ni244  1  0.00000000  0.33333333  0.30681818  1.0
  Ni  Ni245  1  0.00000000  0.66666667  0.30681818  1.0
  Ni  Ni246  1  0.33333333  0.00000000  0.30681818  1.0
  Ni  Ni247  1  0.33333333  0.33333333  0.30681818  1.0
  Ni  Ni248  1  0.33333333  0.66666667  0.30681818  1.0
  Ni  Ni249  1  0.66666667  0.00000000  0.30681818  1.0
  Ni  Ni250  1  0.66666667  0.33333333  0.30681818  1.0
  Ni  Ni251  1  0.66666667  0.66666667  0.30681818  1.0
  Cr  Cr252  1  0.16666667  0.00000000  0.35227273  1.0
  Cr  Cr253  1  0.16666667  0.33333333  0.35227273  1.0
  Cr  Cr254  1  0.16666667  0.66666667  0.35227273  1.0
  Cr  Cr255  1  0.50000000  0.00000000  0.35227273  1.0
  Cr  Cr256  1  0.50000000  0.33333333  0.35227273  1.0
  Cr  Cr257  1  0.50000000  0.66666667  0.35227273  1.0
  Cr  Cr258  1  0.83333333  0.00000000  0.35227273  1.0
  Cr  Cr259  1  0.83333333  0.33333333  0.35227273  1.0
  Cr  Cr260  1  0.83333333  0.66666667  0.35227273  1.0
  Cr  Cr261  1  0.08333333  0.16666667  0.32954545  1.0
  Cr  Cr262  1  0.08333333  0.50000000  0.32954545  1.0
  Cr  Cr263  1  0.08333333  0.83333333  0.32954545  1.0
  Cr  Cr264  1  0.41666667  0.16666667  0.32954545  1.0
  Cr  Cr265  1  0.41666667  0.50000000  0.32954545  1.0
  Cr  Cr266  1  0.41666667  0.83333333  0.32954545  1.0
  Cr  Cr267  1  0.75000000  0.16666667  0.32954545  1.0
  Cr  Cr268  1  0.75000000  0.50000000  0.32954545  1.0
  Cr  Cr269  1  0.75000000  0.83333333  0.32954545  1.0
  Cr  Cr270  1  0.25000000  0.16666667  0.32954545  1.0
  Cr  Cr271  1  0.25000000  0.50000000  0.32954545  1.0
  Cr  Cr272  1  0.25000000  0.83333333  0.32954545  1.0
  Cr  Cr273  1  0.58333333  0.16666667  0.32954545  1.0
  Cr  Cr274  1  0.58333333  0.50000000  0.32954545  1.0
  Cr  Cr275  1  0.58333333  0.83333333  0.32954545  1.0
  Cr  Cr276  1  0.91666667  0.16666667  0.32954545  1.0
  Cr  Cr277  1  0.91666667  0.50000000  0.32954545  1.0
  Cr  Cr278  1  0.91666667  0.83333333  0.32954545  1.0
  Ni  Ni279  1  0.00000000  0.00000000  0.35227273  1.0
  Ni  Ni280  1  0.00000000  0.33333333  0.35227273  1.0
  Ni  Ni281  1  0.00000000  0.66666667  0.35227273  1.0
  Ni  Ni282  1  0.33333333  0.00000000  0.35227273  1.0
  Ni  Ni283  1  0.33333333  0.33333333  0.35227273  1.0
  Ni  Ni284  1  0.33333333  0.66666667  0.35227273  1.0
  Ni  Ni285  1  0.66666667  0.00000000  0.35227273  1.0
  Ni  Ni286  1  0.66666667  0.33333333  0.35227273  1.0
  Ni  Ni287  1  0.66666667  0.66666667  0.35227273  1.0
  Cr  Cr288  1  0.16666667  0.00000000  0.39772727  1.0
  Cr  Cr289  1  0.16666667  0.33333333  0.39772727  1.0
  Cr  Cr290  1  0.16666667  0.66666667  0.39772727  1.0
  Cr  Cr291  1  0.50000000  0.00000000  0.39772727  1.0
  Cr  Cr292  1  0.50000000  0.33333333  0.39772727  1.0
  Cr  Cr293  1  0.50000000  0.66666667  0.39772727  1.0
  Cr  Cr294  1  0.83333333  0.00000000  0.39772727  1.0
  Cr  Cr295  1  0.83333333  0.33333333  0.39772727  1.0
  Cr  Cr296  1  0.83333333  0.66666667  0.39772727  1.0
  Cr  Cr297  1  0.08333333  0.16666667  0.37500000  1.0
  Cr  Cr298  1  0.08333333  0.50000000  0.37500000  1.0
  Cr  Cr299  1  0.08333333  0.83333333  0.37500000  1.0
  Cr  Cr300  1  0.41666667  0.16666667  0.37500000  1.0
  Cr  Cr301  1  0.41666667  0.50000000  0.37500000  1.0
  Cr  Cr302  1  0.41666667  0.83333333  0.37500000  1.0
  Cr  Cr303  1  0.75000000  0.16666667  0.37500000  1.0
  Cr  Cr304  1  0.75000000  0.50000000  0.37500000  1.0
  Cr  Cr305  1  0.75000000  0.83333333  0.37500000  1.0
  Cr  Cr306  1  0.25000000  0.16666667  0.37500000  1.0
  Cr  Cr307  1  0.25000000  0.50000000  0.37500000  1.0
  Cr  Cr308  1  0.25000000  0.83333333  0.37500000  1.0
  Cr  Cr309  1  0.58333333  0.16666667  0.37500000  1.0
  Cr  Cr310  1  0.58333333  0.50000000  0.37500000  1.0
  Cr  Cr311  1  0.58333333  0.83333333  0.37500000  1.0
  Cr  Cr312  1  0.91666667  0.16666667  0.37500000  1.0
  Cr  Cr313  1  0.91666667  0.50000000  0.37500000  1.0
  Cr  Cr314  1  0.91666667  0.83333333  0.37500000  1.0
  Ni  Ni315  1  0.00000000  0.00000000  0.39772727  1.0
  Ni  Ni316  1  0.00000000  0.33333333  0.39772727  1.0
  Ni  Ni317  1  0.00000000  0.66666667  0.39772727  1.0
  Ni  Ni318  1  0.33333333  0.00000000  0.39772727  1.0
  Ni  Ni319  1  0.33333333  0.33333333  0.39772727  1.0
  Ni  Ni320  1  0.33333333  0.66666667  0.39772727  1.0
  Ni  Ni321  1  0.66666667  0.00000000  0.39772727  1.0
  Ni  Ni322  1  0.66666667  0.33333333  0.39772727  1.0
  Ni  Ni323  1  0.66666667  0.66666667  0.39772727  1.0
