# generated using pymatgen
data_Cr3Ni
_symmetry_space_group_name_H-M   'P 1'
_cell_length_a   13.15842570
_cell_length_b   25.24059928
_cell_length_c   43.86141900
_cell_angle_alpha   100.20230178
_cell_angle_beta   131.68690494
_cell_angle_gamma   110.28614380
_symmetry_Int_Tables_number   1
_chemical_formula_structural   Cr3Ni
_chemical_formula_sum   'Cr216 Ni72'
_cell_volume   8297.51914783
_cell_formula_units_Z   72
loop_
 _symmetry_equiv_pos_site_id
 _symmetry_equiv_pos_as_xyz
  1  'x, y, z'
loop_
 _atom_site_type_symbol
 _atom_site_label
 _atom_site_symmetry_multiplicity
 _atom_site_fract_x
 _atom_site_fract_y
 _atom_site_fract_z
 _atom_site_occupancy
  Cr  Cr0  1  0.00000000  0.08333333  0.06875000  1.0
  Cr  Cr1  1  1.00000000  0.41666667  0.06875000  1.0
  Cr  Cr2  1  1.00000000  0.75000000  0.06875000  1.0
  Cr  Cr3  1  0.33333333  0.08333333  0.06875000  1.0
  Cr  Cr4  1  0.33333333  0.41666667  0.06875000  1.0
  Cr  Cr5  1  0.33333333  0.75000000  0.06875000  1.0
  Cr  Cr6  1  0.66666667  0.08333333  0.06875000  1.0
  Cr  Cr7  1  0.66666667  0.41666667  0.06875000  1.0
  Cr  Cr8  1  0.66666667  0.75000000  0.06875000  1.0
  Cr  Cr9  1  0.33333333  0.25000000  0.01875000  1.0
  Cr  Cr10  1  0.33333333  0.58333333  0.01875000  1.0
  Cr  Cr11  1  0.33333333  0.91666667  0.01875000  1.0
  Cr  Cr12  1  0.66666667  0.25000000  0.01875000  1.0
  Cr  Cr13  1  0.66666667  0.58333333  0.01875000  1.0
  Cr  Cr14  1  0.66666667  0.91666667  0.01875000  1.0
  Cr  Cr15  1  0.00000000  0.25000000  0.01875000  1.0
  Cr  Cr16  1  0.00000000  0.58333333  0.01875000  1.0
  Cr  Cr17  1  0.00000000  0.91666667  0.01875000  1.0
  Cr  Cr18  1  0.16666667  0.12500000  0.05625000  1.0
  Cr  Cr19  1  0.16666667  0.45833333  0.05625000  1.0
  Cr  Cr20  1  0.16666667  0.79166667  0.05625000  1.0
  Cr  Cr21  1  0.50000000  0.12500000  0.05625000  1.0
  Cr  Cr22  1  0.50000000  0.45833333  0.05625000  1.0
  Cr  Cr23  1  0.50000000  0.79166667  0.05625000  1.0
  Cr  Cr24  1  0.83333333  0.12500000  0.05625000  1.0
  Cr  Cr25  1  0.83333333  0.45833333  0.05625000  1.0
  Cr  Cr26  1  0.83333333  0.79166667  0.05625000  1.0
  Cr  Cr27  1  0.16666667  0.29166667  0.00625000  1.0
  Cr  Cr28  1  0.16666667  0.62500000  0.00625000  1.0
  Cr  Cr29  1  0.16666667  0.95833333  0.00625000  1.0
  Cr  Cr30  1  0.50000000  0.29166667  0.00625000  1.0
  Cr  Cr31  1  0.50000000  0.62500000  0.00625000  1.0
  Cr  Cr32  1  0.50000000  0.95833333  0.00625000  1.0
  Cr  Cr33  1  0.83333333  0.29166667  0.00625000  1.0
  Cr  Cr34  1  0.83333333  0.62500000  0.00625000  1.0
  Cr  Cr35  1  0.83333333  0.95833333  0.00625000  1.0
  Cr  Cr36  1  0.16666667  0.04166667  0.08125000  1.0
  Cr  Cr37  1  0.16666667  0.37500000  0.08125000  1.0
  Cr  Cr38  1  0.16666667  0.70833333  0.08125000  1.0
  Cr  Cr39  1  0.50000000  0.04166667  0.08125000  1.0
  Cr  Cr40  1  0.50000000  0.37500000  0.08125000  1.0
  Cr  Cr41  1  0.50000000  0.70833333  0.08125000  1.0
  Cr  Cr42  1  0.83333333  0.04166667  0.08125000  1.0
  Cr  Cr43  1  0.83333333  0.37500000  0.08125000  1.0
  Cr  Cr44  1  0.83333333  0.70833333  0.08125000  1.0
  Cr  Cr45  1  0.16666667  0.20833333  0.03125000  1.0
  Cr  Cr46  1  0.16666667  0.54166667  0.03125000  1.0
  Cr  Cr47  1  0.16666667  0.87500000  0.03125000  1.0
  Cr  Cr48  1  0.50000000  0.20833333  0.03125000  1.0
  Cr  Cr49  1  0.50000000  0.54166667  0.03125000  1.0
  Cr  Cr50  1  0.50000000  0.87500000  0.03125000  1.0
  Cr  Cr51  1  0.83333333  0.20833333  0.03125000  1.0
  Cr  Cr52  1  0.83333333  0.54166667  0.03125000  1.0
  Cr  Cr53  1  0.83333333  0.87500000  0.03125000  1.0
  Ni  Ni54  1  0.00000000  0.16666667  0.04375000  1.0
  Ni  Ni55  1  0.00000000  0.50000000  0.04375000  1.0
  Ni  Ni56  1  1.00000000  0.83333333  0.04375000  1.0
  Ni  Ni57  1  0.33333333  0.16666667  0.04375000  1.0
  Ni  Ni58  1  0.33333333  0.50000000  0.04375000  1.0
  Ni  Ni59  1  0.33333333  0.83333333  0.04375000  1.0
  Ni  Ni60  1  0.66666667  0.16666667  0.04375000  1.0
  Ni  Ni61  1  0.66666667  0.50000000  0.04375000  1.0
  Ni  Ni62  1  0.66666667  0.83333333  0.04375000  1.0
  Ni  Ni63  1  0.00000000  0.00000000  0.09375000  1.0
  Ni  Ni64  1  0.00000000  0.33333333  0.09375000  1.0
  Ni  Ni65  1  0.00000000  0.66666667  0.09375000  1.0
  Ni  Ni66  1  0.33333333  0.00000000  0.09375000  1.0
  Ni  Ni67  1  0.33333333  0.33333333  0.09375000  1.0
  Ni  Ni68  1  0.33333333  0.66666667  0.09375000  1.0
  Ni  Ni69  1  0.66666667  0.00000000  0.09375000  1.0
  Ni  Ni70  1  0.66666667  0.33333333  0.09375000  1.0
  Ni  Ni71  1  0.66666667  0.66666667  0.09375000  1.0
  Cr  Cr72  1  0.00000000  0.08333333  0.16875000  1.0
  Cr  Cr73  1  1.00000000  0.41666667  0.16875000  1.0
  Cr  Cr74  1  1.00000000  0.75000000  0.16875000  1.0
  Cr  Cr75  1  0.33333333  0.08333333  0.16875000  1.0
  Cr  Cr76  1  0.33333333  0.41666667  0.16875000  1.0
  Cr  Cr77  1  0.33333333  0.75000000  0.16875000  1.0
  Cr  Cr78  1  0.66666667  0.08333333  0.16875000  1.0
  Cr  Cr79  1  0.66666667  0.41666667  0.16875000  1.0
  Cr  Cr80  1  0.66666667  0.75000000  0.16875000  1.0
  Cr  Cr81  1  0.33333333  0.25000000  0.11875000  1.0
  Cr  Cr82  1  0.33333333  0.58333333  0.11875000  1.0
  Cr  Cr83  1  0.33333333  0.91666667  0.11875000  1.0
  Cr  Cr84  1  0.66666667  0.25000000  0.11875000  1.0
  Cr  Cr85  1  0.66666667  0.58333333  0.11875000  1.0
  Cr  Cr86  1  0.66666667  0.91666667  0.11875000  1.0
  Cr  Cr87  1  0.00000000  0.25000000  0.11875000  1.0
  Cr  Cr88  1  0.00000000  0.58333333  0.11875000  1.0
  Cr  Cr89  1  0.00000000  0.91666667  0.11875000  1.0
  Cr  Cr90  1  0.16666667  0.12500000  0.15625000  1.0
  Cr  Cr91  1  0.16666667  0.45833333  0.15625000  1.0
  Cr  Cr92  1  0.16666667  0.79166667  0.15625000  1.0
  Cr  Cr93  1  0.50000000  0.12500000  0.15625000  1.0
  Cr  Cr94  1  0.50000000  0.45833333  0.15625000  1.0
  Cr  Cr95  1  0.50000000  0.79166667  0.15625000  1.0
  Cr  Cr96  1  0.83333333  0.12500000  0.15625000  1.0
  Cr  Cr97  1  0.83333333  0.45833333  0.15625000  1.0
  Cr  Cr98  1  0.83333333  0.79166667  0.15625000  1.0
  Cr  Cr99  1  0.16666667  0.29166667  0.10625000  1.0
  Cr  Cr100  1  0.16666667  0.62500000  0.10625000  1.0
  Cr  Cr101  1  0.16666667  0.95833333  0.10625000  1.0
  Cr  Cr102  1  0.50000000  0.29166667  0.10625000  1.0
  Cr  Cr103  1  0.50000000  0.62500000  0.10625000  1.0
  Cr  Cr104  1  0.50000000  0.95833333  0.10625000  1.0
  Cr  Cr105  1  0.83333333  0.29166667  0.10625000  1.0
  Cr  Cr106  1  0.83333333  0.62500000  0.10625000  1.0
  Cr  Cr107  1  0.83333333  0.95833333  0.10625000  1.0
  Cr  Cr108  1  0.16666667  0.04166667  0.18125000  1.0
  Cr  Cr109  1  0.16666667  0.37500000  0.18125000  1.0
  Cr  Cr110  1  0.16666667  0.70833333  0.18125000  1.0
  Cr  Cr111  1  0.50000000  0.04166667  0.18125000  1.0
  Cr  Cr112  1  0.50000000  0.37500000  0.18125000  1.0
  Cr  Cr113  1  0.50000000  0.70833333  0.18125000  1.0
  Cr  Cr114  1  0.83333333  0.04166667  0.18125000  1.0
  Cr  Cr115  1  0.83333333  0.37500000  0.18125000  1.0
  Cr  Cr116  1  0.83333333  0.70833333  0.18125000  1.0
  Cr  Cr117  1  0.16666667  0.20833333  0.13125000  1.0
  Cr  Cr118  1  0.16666667  0.54166667  0.13125000  1.0
  Cr  Cr119  1  0.16666667  0.87500000  0.13125000  1.0
  Cr  Cr120  1  0.50000000  0.20833333  0.13125000  1.0
  Cr  Cr121  1  0.50000000  0.54166667  0.13125000  1.0
  Cr  Cr122  1  0.50000000  0.87500000  0.13125000  1.0
  Cr  Cr123  1  0.83333333  0.20833333  0.13125000  1.0
  Cr  Cr124  1  0.83333333  0.54166667  0.13125000  1.0
  Cr  Cr125  1  0.83333333  0.87500000  0.13125000  1.0
  Ni  Ni126  1  0.00000000  0.16666667  0.14375000  1.0
  Ni  Ni127  1  0.00000000  0.50000000  0.14375000  1.0
  Ni  Ni128  1  1.00000000  0.83333333  0.14375000  1.0
  Ni  Ni129  1  0.33333333  0.16666667  0.14375000  1.0
  Ni  Ni130  1  0.33333333  0.50000000  0.14375000  1.0
  Ni  Ni131  1  0.33333333  0.83333333  0.14375000  1.0
  Ni  Ni132  1  0.66666667  0.16666667  0.14375000  1.0
  Ni  Ni133  1  0.66666667  0.50000000  0.14375000  1.0
  Ni  Ni134  1  0.66666667  0.83333333  0.14375000  1.0
  Ni  Ni135  1  0.00000000  0.00000000  0.19375000  1.0
  Ni  Ni136  1  0.00000000  0.33333333  0.19375000  1.0
  Ni  Ni137  1  0.00000000  0.66666667  0.19375000  1.0
  Ni  Ni138  1  0.33333333  0.00000000  0.19375000  1.0
  Ni  Ni139  1  0.33333333  0.33333333  0.19375000  1.0
  Ni  Ni140  1  0.33333333  0.66666667  0.19375000  1.0
  Ni  Ni141  1  0.66666667  0.00000000  0.19375000  1.0
  Ni  Ni142  1  0.66666667  0.33333333  0.19375000  1.0
  Ni  Ni143  1  0.66666667  0.66666667  0.19375000  1.0
  Cr  Cr144  1  0.00000000  0.08333333  0.26875000  1.0
  Cr  Cr145  1  1.00000000  0.41666667  0.26875000  1.0
  Cr  Cr146  1  1.00000000  0.75000000  0.26875000  1.0
  Cr  Cr147  1  0.33333333  0.08333333  0.26875000  1.0
  Cr  Cr148  1  0.33333333  0.41666667  0.26875000  1.0
  Cr  Cr149  1  0.33333333  0.75000000  0.26875000  1.0
  Cr  Cr150  1  0.66666667  0.08333333  0.26875000  1.0
  Cr  Cr151  1  0.66666667  0.41666667  0.26875000  1.0
  Cr  Cr152  1  0.66666667  0.75000000  0.26875000  1.0
  Cr  Cr153  1  0.33333333  0.25000000  0.21875000  1.0
  Cr  Cr154  1  0.33333333  0.58333333  0.21875000  1.0
  Cr  Cr155  1  0.33333333  0.91666667  0.21875000  1.0
  Cr  Cr156  1  0.66666667  0.25000000  0.21875000  1.0
  Cr  Cr157  1  0.66666667  0.58333333  0.21875000  1.0
  Cr  Cr158  1  0.66666667  0.91666667  0.21875000  1.0
  Cr  Cr159  1  0.00000000  0.25000000  0.21875000  1.0
  Cr  Cr160  1  0.00000000  0.58333333  0.21875000  1.0
  Cr  Cr161  1  0.00000000  0.91666667  0.21875000  1.0
  Cr  Cr162  1  0.16666667  0.12500000  0.25625000  1.0
  Cr  Cr163  1  0.16666667  0.45833333  0.25625000  1.0
  Cr  Cr164  1  0.16666667  0.79166667  0.25625000  1.0
  Cr  Cr165  1  0.50000000  0.12500000  0.25625000  1.0
  Cr  Cr166  1  0.50000000  0.45833333  0.25625000  1.0
  Cr  Cr167  1  0.50000000  0.79166667  0.25625000  1.0
  Cr  Cr168  1  0.83333333  0.12500000  0.25625000  1.0
  Cr  Cr169  1  0.83333333  0.45833333  0.25625000  1.0
  Cr  Cr170  1  0.83333333  0.79166667  0.25625000  1.0
  Cr  Cr171  1  0.16666667  0.29166667  0.20625000  1.0
  Cr  Cr172  1  0.16666667  0.62500000  0.20625000  1.0
  Cr  Cr173  1  0.16666667  0.95833333  0.20625000  1.0
  Cr  Cr174  1  0.50000000  0.29166667  0.20625000  1.0
  Cr  Cr175  1  0.50000000  0.62500000  0.20625000  1.0
  Cr  Cr176  1  0.50000000  0.95833333  0.20625000  1.0
  Cr  Cr177  1  0.83333333  0.29166667  0.20625000  1.0
  Cr  Cr178  1  0.83333333  0.62500000  0.20625000  1.0
  Cr  Cr179  1  0.83333333  0.95833333  0.20625000  1.0
  Cr  Cr180  1  0.16666667  0.04166667  0.28125000  1.0
  Cr  Cr181  1  0.16666667  0.37500000  0.28125000  1.0
  Cr  Cr182  1  0.16666667  0.70833333  0.28125000  1.0
  Cr  Cr183  1  0.50000000  0.04166667  0.28125000  1.0
  Cr  Cr184  1  0.50000000  0.37500000  0.28125000  1.0
  Cr  Cr185  1  0.50000000  0.70833333  0.28125000  1.0
  Cr  Cr186  1  0.83333333  0.04166667  0.28125000  1.0
  Cr  Cr187  1  0.83333333  0.37500000  0.28125000  1.0
  Cr  Cr188  1  0.83333333  0.70833333  0.28125000  1.0
  Cr  Cr189  1  0.16666667  0.20833333  0.23125000  1.0
  Cr  Cr190  1  0.16666667  0.54166667  0.23125000  1.0
  Cr  Cr191  1  0.16666667  0.87500000  0.23125000  1.0
  Cr  Cr192  1  0.50000000  0.20833333  0.23125000  1.0
  Cr  Cr193  1  0.50000000  0.54166667  0.23125000  1.0
  Cr  Cr194  1  0.50000000  0.87500000  0.23125000  1.0
  Cr  Cr195  1  0.83333333  0.20833333  0.23125000  1.0
  Cr  Cr196  1  0.83333333  0.54166667  0.23125000  1.0
  Cr  Cr197  1  0.83333333  0.87500000  0.23125000  1.0
  Ni  Ni198  1  0.00000000  0.16666667  0.24375000  1.0
  Ni  Ni199  1  0.00000000  0.50000000  0.24375000  1.0
  Ni  Ni200  1  1.00000000  0.83333333  0.24375000  1.0
  Ni  Ni201  1  0.33333333  0.16666667  0.24375000  1.0
  Ni  Ni202  1  0.33333333  0.50000000  0.24375000  1.0
  Ni  Ni203  1  0.33333333  0.83333333  0.24375000  1.0
  Ni  Ni204  1  0.66666667  0.16666667  0.24375000  1.0
  Ni  Ni205  1  0.66666667  0.50000000  0.24375000  1.0
  Ni  Ni206  1  0.66666667  0.83333333  0.24375000  1.0
  Ni  Ni207  1  0.00000000  0.00000000  0.29375000  1.0
  Ni  Ni208  1  0.00000000  0.33333333  0.29375000  1.0
  Ni  Ni209  1  0.00000000  0.66666667  0.29375000  1.0
  Ni  Ni210  1  0.33333333  0.00000000  0.29375000  1.0
  Ni  Ni211  1  0.33333333  0.33333333  0.29375000  1.0
  Ni  Ni212  1  0.33333333  0.66666667  0.29375000  1.0
  Ni  Ni213  1  0.66666667  0.00000000  0.29375000  1.0
  Ni  Ni214  1  0.66666667  0.33333333  0.29375000  1.0
  Ni  Ni215  1  0.66666667  0.66666667  0.29375000  1.0
  Cr  Cr216  1  0.00000000  0.08333333  0.36875000  1.0
  Cr  Cr217  1  1.00000000  0.41666667  0.36875000  1.0
  Cr  Cr218  1  1.00000000  0.75000000  0.36875000  1.0
  Cr  Cr219  1  0.33333333  0.08333333  0.36875000  1.0
  Cr  Cr220  1  0.33333333  0.41666667  0.36875000  1.0
  Cr  Cr221  1  0.33333333  0.75000000  0.36875000  1.0
  Cr  Cr222  1  0.66666667  0.08333333  0.36875000  1.0
  Cr  Cr223  1  0.66666667  0.41666667  0.36875000  1.0
  Cr  Cr224  1  0.66666667  0.75000000  0.36875000  1.0
  Cr  Cr225  1  0.33333333  0.25000000  0.31875000  1.0
  Cr  Cr226  1  0.33333333  0.58333333  0.31875000  1.0
  Cr  Cr227  1  0.33333333  0.91666667  0.31875000  1.0
  Cr  Cr228  1  0.66666667  0.25000000  0.31875000  1.0
  Cr  Cr229  1  0.66666667  0.58333333  0.31875000  1.0
  Cr  Cr230  1  0.66666667  0.91666667  0.31875000  1.0
  Cr  Cr231  1  0.00000000  0.25000000  0.31875000  1.0
  Cr  Cr232  1  0.00000000  0.58333333  0.31875000  1.0
  Cr  Cr233  1  0.00000000  0.91666667  0.31875000  1.0
  Cr  Cr234  1  0.16666667  0.12500000  0.35625000  1.0
  Cr  Cr235  1  0.16666667  0.45833333  0.35625000  1.0
  Cr  Cr236  1  0.16666667  0.79166667  0.35625000  1.0
  Cr  Cr237  1  0.50000000  0.12500000  0.35625000  1.0
  Cr  Cr238  1  0.50000000  0.45833333  0.35625000  1.0
  Cr  Cr239  1  0.50000000  0.79166667  0.35625000  1.0
  Cr  Cr240  1  0.83333333  0.12500000  0.35625000  1.0
  Cr  Cr241  1  0.83333333  0.45833333  0.35625000  1.0
  Cr  Cr242  1  0.83333333  0.79166667  0.35625000  1.0
  Cr  Cr243  1  0.16666667  0.29166667  0.30625000  1.0
  Cr  Cr244  1  0.16666667  0.62500000  0.30625000  1.0
  Cr  Cr245  1  0.16666667  0.95833333  0.30625000  1.0
  Cr  Cr246  1  0.50000000  0.29166667  0.30625000  1.0
  Cr  Cr247  1  0.50000000  0.62500000  0.30625000  1.0
  Cr  Cr248  1  0.50000000  0.95833333  0.30625000  1.0
  Cr  Cr249  1  0.83333333  0.29166667  0.30625000  1.0
  Cr  Cr250  1  0.83333333  0.62500000  0.30625000  1.0
  Cr  Cr251  1  0.83333333  0.95833333  0.30625000  1.0
  Cr  Cr252  1  0.16666667  0.04166667  0.38125000  1.0
  Cr  Cr253  1  0.16666667  0.37500000  0.38125000  1.0
  Cr  Cr254  1  0.16666667  0.70833333  0.38125000  1.0
  Cr  Cr255  1  0.50000000  0.04166667  0.38125000  1.0
  Cr  Cr256  1  0.50000000  0.37500000  0.38125000  1.0
  Cr  Cr257  1  0.50000000  0.70833333  0.38125000  1.0
  Cr  Cr258  1  0.83333333  0.04166667  0.38125000  1.0
  Cr  Cr259  1  0.83333333  0.37500000  0.38125000  1.0
  Cr  Cr260  1  0.83333333  0.70833333  0.38125000  1.0
  Cr  Cr261  1  0.16666667  0.20833333  0.33125000  1.0
  Cr  Cr262  1  0.16666667  0.54166667  0.33125000  1.0
  Cr  Cr263  1  0.16666667  0.87500000  0.33125000  1.0
  Cr  Cr264  1  0.50000000  0.20833333  0.33125000  1.0
  Cr  Cr265  1  0.50000000  0.54166667  0.33125000  1.0
  Cr  Cr266  1  0.50000000  0.87500000  0.33125000  1.0
  Cr  Cr267  1  0.83333333  0.20833333  0.33125000  1.0
  Cr  Cr268  1  0.83333333  0.54166667  0.33125000  1.0
  Cr  Cr269  1  0.83333333  0.87500000  0.33125000  1.0
  Ni  Ni270  1  0.00000000  0.16666667  0.34375000  1.0
  Ni  Ni271  1  0.00000000  0.50000000  0.34375000  1.0
  Ni  Ni272  1  1.00000000  0.83333333  0.34375000  1.0
  Ni  Ni273  1  0.33333333  0.16666667  0.34375000  1.0
  Ni  Ni274  1  0.33333333  0.50000000  0.34375000  1.0
  Ni  Ni275  1  0.33333333  0.83333333  0.34375000  1.0
  Ni  Ni276  1  0.66666667  0.16666667  0.34375000  1.0
  Ni  Ni277  1  0.66666667  0.50000000  0.34375000  1.0
  Ni  Ni278  1  0.66666667  0.83333333  0.34375000  1.0
  Ni  Ni279  1  0.00000000  0.00000000  0.39375000  1.0
  Ni  Ni280  1  0.00000000  0.33333333  0.39375000  1.0
  Ni  Ni281  1  0.00000000  0.66666667  0.39375000  1.0
  Ni  Ni282  1  0.33333333  0.00000000  0.39375000  1.0
  Ni  Ni283  1  0.33333333  0.33333333  0.39375000  1.0
  Ni  Ni284  1  0.33333333  0.66666667  0.39375000  1.0
  Ni  Ni285  1  0.66666667  0.00000000  0.39375000  1.0
  Ni  Ni286  1  0.66666667  0.33333333  0.39375000  1.0
  Ni  Ni287  1  0.66666667  0.66666667  0.39375000  1.0
