# generated using pymatgen
data_Cr3Ni
_symmetry_space_group_name_H-M   'P 1'
_cell_length_a   10.70781300
_cell_length_b   10.70781300
_cell_length_c   28.55416800
_cell_angle_alpha   90.00000000
_cell_angle_beta   90.00000000
_cell_angle_gamma   90.00000000
_symmetry_Int_Tables_number   1
_chemical_formula_structural   Cr3Ni
_chemical_formula_sum   'Cr81 Ni27'
_cell_volume   3273.94264284
_cell_formula_units_Z   27
loop_
 _symmetry_equiv_pos_site_id
 _symmetry_equiv_pos_as_xyz
  1  'x, y, z'
loop_
 _atom_site_type_symbol
 _atom_site_label
 _atom_site_symmetry_multiplicity
 _atom_site_fract_x
 _atom_site_fract_y
 _atom_site_fract_z
 _atom_site_occupancy
  Cr  Cr0  1  0.16666667  0.16666667  0.09375000  1.0
  Cr  Cr1  1  0.16666667  0.50000000  0.09375000  1.0
  Cr  Cr2  1  0.16666667  0.83333333  0.09375000  1.0
  Cr  Cr3  1  0.50000000  0.16666667  0.09375000  1.0
  Cr  Cr4  1  0.50000000  0.50000000  0.09375000  1.0
  Cr  Cr5  1  0.50000000  0.83333333  0.09375000  1.0
  Cr  Cr6  1  0.83333333  0.16666667  0.09375000  1.0
  Cr  Cr7  1  0.83333333  0.50000000  0.09375000  1.0
  Cr  Cr8  1  0.83333333  0.83333333  0.09375000  1.0
  Cr  Cr9  1  0.16666667  0.00000000  0.03125000  1.0
  Cr  Cr10  1  0.16666667  0.33333333  0.03125000  1.0
  Cr  Cr11  1  0.16666667  0.66666667  0.03125000  1.0
  Cr  Cr12  1  0.50000000  0.00000000  0.03125000  1.0
  Cr  Cr13  1  0.50000000  0.33333333  0.03125000  1.0
  Cr  Cr14  1  0.50000000  0.66666667  0.03125000  1.0
  Cr  Cr15  1  0.83333333  0.00000000  0.03125000  1.0
  Cr  Cr16  1  0.83333333  0.33333333  0.03125000  1.0
  Cr  Cr17  1  0.83333333  0.66666667  0.03125000  1.0
  Cr  Cr18  1  0.00000000  0.16666667  0.03125000  1.0
  Cr  Cr19  1  0.00000000  0.50000000  0.03125000  1.0
  Cr  Cr20  1  0.00000000  0.83333333  0.03125000  1.0
  Cr  Cr21  1  0.33333333  0.16666667  0.03125000  1.0
  Cr  Cr22  1  0.33333333  0.50000000  0.03125000  1.0
  Cr  Cr23  1  0.33333333  0.83333333  0.03125000  1.0
  Cr  Cr24  1  0.66666667  0.16666667  0.03125000  1.0
  Cr  Cr25  1  0.66666667  0.50000000  0.03125000  1.0
  Cr  Cr26  1  0.66666667  0.83333333  0.03125000  1.0
  Ni  Ni27  1  0.00000000  0.00000000  0.09375000  1.0
  Ni  Ni28  1  0.00000000  0.33333333  0.09375000  1.0
  Ni  Ni29  1  0.00000000  0.66666667  0.09375000  1.0
  Ni  Ni30  1  0.33333333  0.00000000  0.09375000  1.0
  Ni  Ni31  1  0.33333333  0.33333333  0.09375000  1.0
  Ni  Ni32  1  0.33333333  0.66666667  0.09375000  1.0
  Ni  Ni33  1  0.66666667  0.00000000  0.09375000  1.0
  Ni  Ni34  1  0.66666667  0.33333333  0.09375000  1.0
  Ni  Ni35  1  0.66666667  0.66666667  0.09375000  1.0
  Cr  Cr36  1  0.16666667  0.16666667  0.21875000  1.0
  Cr  Cr37  1  0.16666667  0.50000000  0.21875000  1.0
  Cr  Cr38  1  0.16666667  0.83333333  0.21875000  1.0
  Cr  Cr39  1  0.50000000  0.16666667  0.21875000  1.0
  Cr  Cr40  1  0.50000000  0.50000000  0.21875000  1.0
  Cr  Cr41  1  0.50000000  0.83333333  0.21875000  1.0
  Cr  Cr42  1  0.83333333  0.16666667  0.21875000  1.0
  Cr  Cr43  1  0.83333333  0.50000000  0.21875000  1.0
  Cr  Cr44  1  0.83333333  0.83333333  0.21875000  1.0
  Cr  Cr45  1  0.16666667  0.00000000  0.15625000  1.0
  Cr  Cr46  1  0.16666667  0.33333333  0.15625000  1.0
  Cr  Cr47  1  0.16666667  0.66666667  0.15625000  1.0
  Cr  Cr48  1  0.50000000  0.00000000  0.15625000  1.0
  Cr  Cr49  1  0.50000000  0.33333333  0.15625000  1.0
  Cr  Cr50  1  0.50000000  0.66666667  0.15625000  1.0
  Cr  Cr51  1  0.83333333  0.00000000  0.15625000  1.0
  Cr  Cr52  1  0.83333333  0.33333333  0.15625000  1.0
  Cr  Cr53  1  0.83333333  0.66666667  0.15625000  1.0
  Cr  Cr54  1  0.00000000  0.16666667  0.15625000  1.0
  Cr  Cr55  1  0.00000000  0.50000000  0.15625000  1.0
  Cr  Cr56  1  0.00000000  0.83333333  0.15625000  1.0
  Cr  Cr57  1  0.33333333  0.16666667  0.15625000  1.0
  Cr  Cr58  1  0.33333333  0.50000000  0.15625000  1.0
  Cr  Cr59  1  0.33333333  0.83333333  0.15625000  1.0
  Cr  Cr60  1  0.66666667  0.16666667  0.15625000  1.0
  Cr  Cr61  1  0.66666667  0.50000000  0.15625000  1.0
  Cr  Cr62  1  0.66666667  0.83333333  0.15625000  1.0
  Ni  Ni63  1  0.00000000  0.00000000  0.21875000  1.0
  Ni  Ni64  1  0.00000000  0.33333333  0.21875000  1.0
  Ni  Ni65  1  0.00000000  0.66666667  0.21875000  1.0
  Ni  Ni66  1  0.33333333  0.00000000  0.21875000  1.0
  Ni  Ni67  1  0.33333333  0.33333333  0.21875000  1.0
  Ni  Ni68  1  0.33333333  0.66666667  0.21875000  1.0
  Ni  Ni69  1  0.66666667  0.00000000  0.21875000  1.0
  Ni  Ni70  1  0.66666667  0.33333333  0.21875000  1.0
  Ni  Ni71  1  0.66666667  0.66666667  0.21875000  1.0
  Cr  Cr72  1  0.16666667  0.16666667  0.34375000  1.0
  Cr  Cr73  1  0.16666667  0.50000000  0.34375000  1.0
  Cr  Cr74  1  0.16666667  0.83333333  0.34375000  1.0
  Cr  Cr75  1  0.50000000  0.16666667  0.34375000  1.0
  Cr  Cr76  1  0.50000000  0.50000000  0.34375000  1.0
  Cr  Cr77  1  0.50000000  0.83333333  0.34375000  1.0
  Cr  Cr78  1  0.83333333  0.16666667  0.34375000  1.0
  Cr  Cr79  1  0.83333333  0.50000000  0.34375000  1.0
  Cr  Cr80  1  0.83333333  0.83333333  0.34375000  1.0
  Cr  Cr81  1  0.16666667  0.00000000  0.28125000  1.0
  Cr  Cr82  1  0.16666667  0.33333333  0.28125000  1.0
  Cr  Cr83  1  0.16666667  0.66666667  0.28125000  1.0
  Cr  Cr84  1  0.50000000  0.00000000  0.28125000  1.0
  Cr  Cr85  1  0.50000000  0.33333333  0.28125000  1.0
  Cr  Cr86  1  0.50000000  0.66666667  0.28125000  1.0
  Cr  Cr87  1  0.83333333  0.00000000  0.28125000  1.0
  Cr  Cr88  1  0.83333333  0.33333333  0.28125000  1.0
  Cr  Cr89  1  0.83333333  0.66666667  0.28125000  1.0
  Cr  Cr90  1  0.00000000  0.16666667  0.28125000  1.0
  Cr  Cr91  1  0.00000000  0.50000000  0.28125000  1.0
  Cr  Cr92  1  0.00000000  0.83333333  0.28125000  1.0
  Cr  Cr93  1  0.33333333  0.16666667  0.28125000  1.0
  Cr  Cr94  1  0.33333333  0.50000000  0.28125000  1.0
  Cr  Cr95  1  0.33333333  0.83333333  0.28125000  1.0
  Cr  Cr96  1  0.66666667  0.16666667  0.28125000  1.0
  Cr  Cr97  1  0.66666667  0.50000000  0.28125000  1.0
  Cr  Cr98  1  0.66666667  0.83333333  0.28125000  1.0
  Ni  Ni99  1  0.00000000  0.00000000  0.34375000  1.0
  Ni  Ni100  1  0.00000000  0.33333333  0.34375000  1.0
  Ni  Ni101  1  0.00000000  0.66666667  0.34375000  1.0
  Ni  Ni102  1  0.33333333  0.00000000  0.34375000  1.0
  Ni  Ni103  1  0.33333333  0.33333333  0.34375000  1.0
  Ni  Ni104  1  0.33333333  0.66666667  0.34375000  1.0
  Ni  Ni105  1  0.66666667  0.00000000  0.34375000  1.0
  Ni  Ni106  1  0.66666667  0.33333333  0.34375000  1.0
  Ni  Ni107  1  0.66666667  0.66666667  0.34375000  1.0
