# generated using pymatgen
data_Cr3Ni
_symmetry_space_group_name_H-M   'P 1'
_cell_length_a   10.76967601
_cell_length_b   33.08101898
_cell_length_c   28.71913602
_cell_angle_alpha   99.36813591
_cell_angle_beta   89.99999999
_cell_angle_gamma   99.36813590
_symmetry_Int_Tables_number   1
_chemical_formula_structural   Cr3Ni
_chemical_formula_sum   'Cr270 Ni90'
_cell_volume   9957.02297739
_cell_formula_units_Z   90
loop_
 _symmetry_equiv_pos_site_id
 _symmetry_equiv_pos_as_xyz
  1  'x, y, z'
loop_
 _atom_site_type_symbol
 _atom_site_label
 _atom_site_symmetry_multiplicity
 _atom_site_fract_x
 _atom_site_fract_y
 _atom_site_fract_z
 _atom_site_occupancy
  Cr  Cr0  1  0.29166667  0.22916667  0.98437500  1.0
  Cr  Cr1  1  0.29166667  0.56250000  0.98437500  1.0
  Cr  Cr2  1  0.29166667  0.89583333  0.98437500  1.0
  Cr  Cr3  1  0.62500000  0.22916667  0.98437500  1.0
  Cr  Cr4  1  0.62500000  0.56250000  0.98437500  1.0
  Cr  Cr5  1  0.62500000  0.89583333  0.98437500  1.0
  Cr  Cr6  1  0.95833333  0.22916667  0.98437500  1.0
  Cr  Cr7  1  0.95833333  0.56250000  0.98437500  1.0
  Cr  Cr8  1  0.95833333  0.89583333  0.98437500  1.0
  Cr  Cr9  1  0.18055556  0.00694444  0.94270833  1.0
  Cr  Cr10  1  0.18055556  0.34027778  0.94270833  1.0
  Cr  Cr11  1  0.18055556  0.67361111  0.94270833  1.0
  Cr  Cr12  1  0.51388889  0.00694444  0.94270833  1.0
  Cr  Cr13  1  0.51388889  0.34027778  0.94270833  1.0
  Cr  Cr14  1  0.51388889  0.67361111  0.94270833  1.0
  Cr  Cr15  1  0.84722222  0.00694444  0.94270833  1.0
  Cr  Cr16  1  0.84722222  0.34027778  0.94270833  1.0
  Cr  Cr17  1  0.84722222  0.67361111  0.94270833  1.0
  Cr  Cr18  1  0.04166667  0.06250000  0.95312500  1.0
  Cr  Cr19  1  0.04166667  0.39583333  0.95312500  1.0
  Cr  Cr20  1  0.04166667  0.72916667  0.95312500  1.0
  Cr  Cr21  1  0.37500000  0.06250000  0.95312500  1.0
  Cr  Cr22  1  0.37500000  0.39583333  0.95312500  1.0
  Cr  Cr23  1  0.37500000  0.72916667  0.95312500  1.0
  Cr  Cr24  1  0.70833333  0.06250000  0.95312500  1.0
  Cr  Cr25  1  0.70833333  0.39583333  0.95312500  1.0
  Cr  Cr26  1  0.70833333  0.72916667  0.95312500  1.0
  Cr  Cr27  1  0.15277778  0.28472222  0.99479167  1.0
  Cr  Cr28  1  0.15277778  0.61805556  0.99479167  1.0
  Cr  Cr29  1  0.15277778  0.95138889  0.99479167  1.0
  Cr  Cr30  1  0.48611111  0.28472222  0.99479167  1.0
  Cr  Cr31  1  0.48611111  0.61805556  0.99479167  1.0
  Cr  Cr32  1  0.48611111  0.95138889  0.99479167  1.0
  Cr  Cr33  1  0.81944444  0.28472222  0.99479167  1.0
  Cr  Cr34  1  0.81944444  0.61805556  0.99479167  1.0
  Cr  Cr35  1  0.81944444  0.95138889  0.99479167  1.0
  Cr  Cr36  1  0.09722222  0.17361111  0.97395833  1.0
  Cr  Cr37  1  0.09722222  0.50694444  0.97395833  1.0
  Cr  Cr38  1  0.09722222  0.84027778  0.97395833  1.0
  Cr  Cr39  1  0.43055556  0.17361111  0.97395833  1.0
  Cr  Cr40  1  0.43055556  0.50694444  0.97395833  1.0
  Cr  Cr41  1  0.43055556  0.84027778  0.97395833  1.0
  Cr  Cr42  1  0.76388889  0.17361111  0.97395833  1.0
  Cr  Cr43  1  0.76388889  0.50694444  0.97395833  1.0
  Cr  Cr44  1  0.76388889  0.84027778  0.97395833  1.0
  Cr  Cr45  1  0.31944444  0.28472222  0.93229167  1.0
  Cr  Cr46  1  0.31944444  0.61805556  0.93229167  1.0
  Cr  Cr47  1  0.31944444  0.95138889  0.93229167  1.0
  Cr  Cr48  1  0.65277778  0.28472222  0.93229167  1.0
  Cr  Cr49  1  0.65277778  0.61805556  0.93229167  1.0
  Cr  Cr50  1  0.65277778  0.95138889  0.93229167  1.0
  Cr  Cr51  1  0.98611111  0.28472222  0.93229167  1.0
  Cr  Cr52  1  0.98611111  0.61805556  0.93229167  1.0
  Cr  Cr53  1  0.98611111  0.95138889  0.93229167  1.0
  Cr  Cr54  1  0.06944444  0.11805556  0.90104167  1.0
  Cr  Cr55  1  0.06944444  0.45138889  0.90104167  1.0
  Cr  Cr56  1  0.06944444  0.78472222  0.90104167  1.0
  Cr  Cr57  1  0.40277778  0.11805556  0.90104167  1.0
  Cr  Cr58  1  0.40277778  0.45138889  0.90104167  1.0
  Cr  Cr59  1  0.40277778  0.78472222  0.90104167  1.0
  Cr  Cr60  1  0.73611111  0.11805556  0.90104167  1.0
  Cr  Cr61  1  0.73611111  0.45138889  0.90104167  1.0
  Cr  Cr62  1  0.73611111  0.78472222  0.90104167  1.0
  Cr  Cr63  1  0.29166667  0.22916667  0.85937500  1.0
  Cr  Cr64  1  0.29166667  0.56250000  0.85937500  1.0
  Cr  Cr65  1  0.29166667  0.89583333  0.85937500  1.0
  Cr  Cr66  1  0.62500000  0.22916667  0.85937500  1.0
  Cr  Cr67  1  0.62500000  0.56250000  0.85937500  1.0
  Cr  Cr68  1  0.62500000  0.89583333  0.85937500  1.0
  Cr  Cr69  1  0.95833333  0.22916667  0.85937500  1.0
  Cr  Cr70  1  0.95833333  0.56250000  0.85937500  1.0
  Cr  Cr71  1  0.95833333  0.89583333  0.85937500  1.0
  Cr  Cr72  1  0.15277778  0.28472222  0.86979167  1.0
  Cr  Cr73  1  0.15277778  0.61805556  0.86979167  1.0
  Cr  Cr74  1  0.15277778  0.95138889  0.86979167  1.0
  Cr  Cr75  1  0.48611111  0.28472222  0.86979167  1.0
  Cr  Cr76  1  0.48611111  0.61805556  0.86979167  1.0
  Cr  Cr77  1  0.48611111  0.95138889  0.86979167  1.0
  Cr  Cr78  1  0.81944444  0.28472222  0.86979167  1.0
  Cr  Cr79  1  0.81944444  0.61805556  0.86979167  1.0
  Cr  Cr80  1  0.81944444  0.95138889  0.86979167  1.0
  Cr  Cr81  1  0.26388889  0.17361111  0.91145833  1.0
  Cr  Cr82  1  0.26388889  0.50694444  0.91145833  1.0
  Cr  Cr83  1  0.26388889  0.84027778  0.91145833  1.0
  Cr  Cr84  1  0.59722222  0.17361111  0.91145833  1.0
  Cr  Cr85  1  0.59722222  0.50694444  0.91145833  1.0
  Cr  Cr86  1  0.59722222  0.84027778  0.91145833  1.0
  Cr  Cr87  1  0.93055556  0.17361111  0.91145833  1.0
  Cr  Cr88  1  0.93055556  0.50694444  0.91145833  1.0
  Cr  Cr89  1  0.93055556  0.84027778  0.91145833  1.0
  Cr  Cr90  1  0.20833333  0.06250000  0.89062500  1.0
  Cr  Cr91  1  0.20833333  0.39583333  0.89062500  1.0
  Cr  Cr92  1  0.20833333  0.72916667  0.89062500  1.0
  Cr  Cr93  1  0.54166667  0.06250000  0.89062500  1.0
  Cr  Cr94  1  0.54166667  0.39583333  0.89062500  1.0
  Cr  Cr95  1  0.54166667  0.72916667  0.89062500  1.0
  Cr  Cr96  1  0.87500000  0.06250000  0.89062500  1.0
  Cr  Cr97  1  0.87500000  0.39583333  0.89062500  1.0
  Cr  Cr98  1  0.87500000  0.72916667  0.89062500  1.0
  Cr  Cr99  1  0.09722222  0.17361111  0.84895833  1.0
  Cr  Cr100  1  0.09722222  0.50694444  0.84895833  1.0
  Cr  Cr101  1  0.09722222  0.84027778  0.84895833  1.0
  Cr  Cr102  1  0.43055556  0.17361111  0.84895833  1.0
  Cr  Cr103  1  0.43055556  0.50694444  0.84895833  1.0
  Cr  Cr104  1  0.43055556  0.84027778  0.84895833  1.0
  Cr  Cr105  1  0.76388889  0.17361111  0.84895833  1.0
  Cr  Cr106  1  0.76388889  0.50694444  0.84895833  1.0
  Cr  Cr107  1  0.76388889  0.84027778  0.84895833  1.0
  Cr  Cr108  1  0.18055556  0.00694444  0.81770833  1.0
  Cr  Cr109  1  0.18055556  0.34027778  0.81770833  1.0
  Cr  Cr110  1  0.18055556  0.67361111  0.81770833  1.0
  Cr  Cr111  1  0.51388889  0.00694444  0.81770833  1.0
  Cr  Cr112  1  0.51388889  0.34027778  0.81770833  1.0
  Cr  Cr113  1  0.51388889  0.67361111  0.81770833  1.0
  Cr  Cr114  1  0.84722222  0.00694444  0.81770833  1.0
  Cr  Cr115  1  0.84722222  0.34027778  0.81770833  1.0
  Cr  Cr116  1  0.84722222  0.67361111  0.81770833  1.0
  Cr  Cr117  1  0.06944444  0.11805556  0.77604167  1.0
  Cr  Cr118  1  0.06944444  0.45138889  0.77604167  1.0
  Cr  Cr119  1  0.06944444  0.78472222  0.77604167  1.0
  Cr  Cr120  1  0.40277778  0.11805556  0.77604167  1.0
  Cr  Cr121  1  0.40277778  0.45138889  0.77604167  1.0
  Cr  Cr122  1  0.40277778  0.78472222  0.77604167  1.0
  Cr  Cr123  1  0.73611111  0.11805556  0.77604167  1.0
  Cr  Cr124  1  0.73611111  0.45138889  0.77604167  1.0
  Cr  Cr125  1  0.73611111  0.78472222  0.77604167  1.0
  Cr  Cr126  1  0.26388889  0.17361111  0.78645833  1.0
  Cr  Cr127  1  0.26388889  0.50694444  0.78645833  1.0
  Cr  Cr128  1  0.26388889  0.84027778  0.78645833  1.0
  Cr  Cr129  1  0.59722222  0.17361111  0.78645833  1.0
  Cr  Cr130  1  0.59722222  0.50694444  0.78645833  1.0
  Cr  Cr131  1  0.59722222  0.84027778  0.78645833  1.0
  Cr  Cr132  1  0.93055556  0.17361111  0.78645833  1.0
  Cr  Cr133  1  0.93055556  0.50694444  0.78645833  1.0
  Cr  Cr134  1  0.93055556  0.84027778  0.78645833  1.0
  Cr  Cr135  1  0.04166667  0.06250000  0.82812500  1.0
  Cr  Cr136  1  0.04166667  0.39583333  0.82812500  1.0
  Cr  Cr137  1  0.04166667  0.72916667  0.82812500  1.0
  Cr  Cr138  1  0.37500000  0.06250000  0.82812500  1.0
  Cr  Cr139  1  0.37500000  0.39583333  0.82812500  1.0
  Cr  Cr140  1  0.37500000  0.72916667  0.82812500  1.0
  Cr  Cr141  1  0.70833333  0.06250000  0.82812500  1.0
  Cr  Cr142  1  0.70833333  0.39583333  0.82812500  1.0
  Cr  Cr143  1  0.70833333  0.72916667  0.82812500  1.0
  Cr  Cr144  1  0.31944444  0.28472222  0.80729167  1.0
  Cr  Cr145  1  0.31944444  0.61805556  0.80729167  1.0
  Cr  Cr146  1  0.31944444  0.95138889  0.80729167  1.0
  Cr  Cr147  1  0.65277778  0.28472222  0.80729167  1.0
  Cr  Cr148  1  0.65277778  0.61805556  0.80729167  1.0
  Cr  Cr149  1  0.65277778  0.95138889  0.80729167  1.0
  Cr  Cr150  1  0.98611111  0.28472222  0.80729167  1.0
  Cr  Cr151  1  0.98611111  0.61805556  0.80729167  1.0
  Cr  Cr152  1  0.98611111  0.95138889  0.80729167  1.0
  Cr  Cr153  1  0.20833333  0.06250000  0.76562500  1.0
  Cr  Cr154  1  0.20833333  0.39583333  0.76562500  1.0
  Cr  Cr155  1  0.20833333  0.72916667  0.76562500  1.0
  Cr  Cr156  1  0.54166667  0.06250000  0.76562500  1.0
  Cr  Cr157  1  0.54166667  0.39583333  0.76562500  1.0
  Cr  Cr158  1  0.54166667  0.72916667  0.76562500  1.0
  Cr  Cr159  1  0.87500000  0.06250000  0.76562500  1.0
  Cr  Cr160  1  0.87500000  0.39583333  0.76562500  1.0
  Cr  Cr161  1  0.87500000  0.72916667  0.76562500  1.0
  Cr  Cr162  1  0.29166667  0.22916667  0.73437500  1.0
  Cr  Cr163  1  0.29166667  0.56250000  0.73437500  1.0
  Cr  Cr164  1  0.29166667  0.89583333  0.73437500  1.0
  Cr  Cr165  1  0.62500000  0.22916667  0.73437500  1.0
  Cr  Cr166  1  0.62500000  0.56250000  0.73437500  1.0
  Cr  Cr167  1  0.62500000  0.89583333  0.73437500  1.0
  Cr  Cr168  1  0.95833333  0.22916667  0.73437500  1.0
  Cr  Cr169  1  0.95833333  0.56250000  0.73437500  1.0
  Cr  Cr170  1  0.95833333  0.89583333  0.73437500  1.0
  Cr  Cr171  1  0.18055556  0.00694444  0.69270833  1.0
  Cr  Cr172  1  0.18055556  0.34027778  0.69270833  1.0
  Cr  Cr173  1  0.18055556  0.67361111  0.69270833  1.0
  Cr  Cr174  1  0.51388889  0.00694444  0.69270833  1.0
  Cr  Cr175  1  0.51388889  0.34027778  0.69270833  1.0
  Cr  Cr176  1  0.51388889  0.67361111  0.69270833  1.0
  Cr  Cr177  1  0.84722222  0.00694444  0.69270833  1.0
  Cr  Cr178  1  0.84722222  0.34027778  0.69270833  1.0
  Cr  Cr179  1  0.84722222  0.67361111  0.69270833  1.0
  Cr  Cr180  1  0.04166667  0.06250000  0.70312500  1.0
  Cr  Cr181  1  0.04166667  0.39583333  0.70312500  1.0
  Cr  Cr182  1  0.04166667  0.72916667  0.70312500  1.0
  Cr  Cr183  1  0.37500000  0.06250000  0.70312500  1.0
  Cr  Cr184  1  0.37500000  0.39583333  0.70312500  1.0
  Cr  Cr185  1  0.37500000  0.72916667  0.70312500  1.0
  Cr  Cr186  1  0.70833333  0.06250000  0.70312500  1.0
  Cr  Cr187  1  0.70833333  0.39583333  0.70312500  1.0
  Cr  Cr188  1  0.70833333  0.72916667  0.70312500  1.0
  Cr  Cr189  1  0.15277778  0.28472222  0.74479167  1.0
  Cr  Cr190  1  0.15277778  0.61805556  0.74479167  1.0
  Cr  Cr191  1  0.15277778  0.95138889  0.74479167  1.0
  Cr  Cr192  1  0.48611111  0.28472222  0.74479167  1.0
  Cr  Cr193  1  0.48611111  0.61805556  0.74479167  1.0
  Cr  Cr194  1  0.48611111  0.95138889  0.74479167  1.0
  Cr  Cr195  1  0.81944444  0.28472222  0.74479167  1.0
  Cr  Cr196  1  0.81944444  0.61805556  0.74479167  1.0
  Cr  Cr197  1  0.81944444  0.95138889  0.74479167  1.0
  Cr  Cr198  1  0.09722222  0.17361111  0.72395833  1.0
  Cr  Cr199  1  0.09722222  0.50694444  0.72395833  1.0
  Cr  Cr200  1  0.09722222  0.84027778  0.72395833  1.0
  Cr  Cr201  1  0.43055556  0.17361111  0.72395833  1.0
  Cr  Cr202  1  0.43055556  0.50694444  0.72395833  1.0
  Cr  Cr203  1  0.43055556  0.84027778  0.72395833  1.0
  Cr  Cr204  1  0.76388889  0.17361111  0.72395833  1.0
  Cr  Cr205  1  0.76388889  0.50694444  0.72395833  1.0
  Cr  Cr206  1  0.76388889  0.84027778  0.72395833  1.0
  Cr  Cr207  1  0.31944444  0.28472222  0.68229167  1.0
  Cr  Cr208  1  0.31944444  0.61805556  0.68229167  1.0
  Cr  Cr209  1  0.31944444  0.95138889  0.68229167  1.0
  Cr  Cr210  1  0.65277778  0.28472222  0.68229167  1.0
  Cr  Cr211  1  0.65277778  0.61805556  0.68229167  1.0
  Cr  Cr212  1  0.65277778  0.95138889  0.68229167  1.0
  Cr  Cr213  1  0.98611111  0.28472222  0.68229167  1.0
  Cr  Cr214  1  0.98611111  0.61805556  0.68229167  1.0
  Cr  Cr215  1  0.98611111  0.95138889  0.68229167  1.0
  Cr  Cr216  1  0.06944444  0.11805556  0.65104167  1.0
  Cr  Cr217  1  0.06944444  0.45138889  0.65104167  1.0
  Cr  Cr218  1  0.06944444  0.78472222  0.65104167  1.0
  Cr  Cr219  1  0.40277778  0.11805556  0.65104167  1.0
  Cr  Cr220  1  0.40277778  0.45138889  0.65104167  1.0
  Cr  Cr221  1  0.40277778  0.78472222  0.65104167  1.0
  Cr  Cr222  1  0.73611111  0.11805556  0.65104167  1.0
  Cr  Cr223  1  0.73611111  0.45138889  0.65104167  1.0
  Cr  Cr224  1  0.73611111  0.78472222  0.65104167  1.0
  Cr  Cr225  1  0.29166667  0.22916667  0.60937500  1.0
  Cr  Cr226  1  0.29166667  0.56250000  0.60937500  1.0
  Cr  Cr227  1  0.29166667  0.89583333  0.60937500  1.0
  Cr  Cr228  1  0.62500000  0.22916667  0.60937500  1.0
  Cr  Cr229  1  0.62500000  0.56250000  0.60937500  1.0
  Cr  Cr230  1  0.62500000  0.89583333  0.60937500  1.0
  Cr  Cr231  1  0.95833333  0.22916667  0.60937500  1.0
  Cr  Cr232  1  0.95833333  0.56250000  0.60937500  1.0
  Cr  Cr233  1  0.95833333  0.89583333  0.60937500  1.0
  Cr  Cr234  1  0.15277778  0.28472222  0.61979167  1.0
  Cr  Cr235  1  0.15277778  0.61805556  0.61979167  1.0
  Cr  Cr236  1  0.15277778  0.95138889  0.61979167  1.0
  Cr  Cr237  1  0.48611111  0.28472222  0.61979167  1.0
  Cr  Cr238  1  0.48611111  0.61805556  0.61979167  1.0
  Cr  Cr239  1  0.48611111  0.95138889  0.61979167  1.0
  Cr  Cr240  1  0.81944444  0.28472222  0.61979167  1.0
  Cr  Cr241  1  0.81944444  0.61805556  0.61979167  1.0
  Cr  Cr242  1  0.81944444  0.95138889  0.61979167  1.0
  Cr  Cr243  1  0.26388889  0.17361111  0.66145833  1.0
  Cr  Cr244  1  0.26388889  0.50694444  0.66145833  1.0
  Cr  Cr245  1  0.26388889  0.84027778  0.66145833  1.0
  Cr  Cr246  1  0.59722222  0.17361111  0.66145833  1.0
  Cr  Cr247  1  0.59722222  0.50694444  0.66145833  1.0
  Cr  Cr248  1  0.59722222  0.84027778  0.66145833  1.0
  Cr  Cr249  1  0.93055556  0.17361111  0.66145833  1.0
  Cr  Cr250  1  0.93055556  0.50694444  0.66145833  1.0
  Cr  Cr251  1  0.93055556  0.84027778  0.66145833  1.0
  Cr  Cr252  1  0.20833333  0.06250000  0.64062500  1.0
  Cr  Cr253  1  0.20833333  0.39583333  0.64062500  1.0
  Cr  Cr254  1  0.20833333  0.72916667  0.64062500  1.0
  Cr  Cr255  1  0.54166667  0.06250000  0.64062500  1.0
  Cr  Cr256  1  0.54166667  0.39583333  0.64062500  1.0
  Cr  Cr257  1  0.54166667  0.72916667  0.64062500  1.0
  Cr  Cr258  1  0.87500000  0.06250000  0.64062500  1.0
  Cr  Cr259  1  0.87500000  0.39583333  0.64062500  1.0
  Cr  Cr260  1  0.87500000  0.72916667  0.64062500  1.0
  Cr  Cr261  1  0.09722222  0.17361111  0.59895833  1.0
  Cr  Cr262  1  0.09722222  0.50694444  0.59895833  1.0
  Cr  Cr263  1  0.09722222  0.84027778  0.59895833  1.0
  Cr  Cr264  1  0.43055556  0.17361111  0.59895833  1.0
  Cr  Cr265  1  0.43055556  0.50694444  0.59895833  1.0
  Cr  Cr266  1  0.43055556  0.84027778  0.59895833  1.0
  Cr  Cr267  1  0.76388889  0.17361111  0.59895833  1.0
  Cr  Cr268  1  0.76388889  0.50694444  0.59895833  1.0
  Cr  Cr269  1  0.76388889  0.84027778  0.59895833  1.0
  Ni  Ni270  1  0.23611111  0.11805556  0.96354167  1.0
  Ni  Ni271  1  0.23611111  0.45138889  0.96354167  1.0
  Ni  Ni272  1  0.23611111  0.78472222  0.96354167  1.0
  Ni  Ni273  1  0.56944444  0.11805556  0.96354167  1.0
  Ni  Ni274  1  0.56944444  0.45138889  0.96354167  1.0
  Ni  Ni275  1  0.56944444  0.78472222  0.96354167  1.0
  Ni  Ni276  1  0.90277778  0.11805556  0.96354167  1.0
  Ni  Ni277  1  0.90277778  0.45138889  0.96354167  1.0
  Ni  Ni278  1  0.90277778  0.78472222  0.96354167  1.0
  Ni  Ni279  1  0.12500000  0.22916667  0.92187500  1.0
  Ni  Ni280  1  0.12500000  0.56250000  0.92187500  1.0
  Ni  Ni281  1  0.12500000  0.89583333  0.92187500  1.0
  Ni  Ni282  1  0.45833333  0.22916667  0.92187500  1.0
  Ni  Ni283  1  0.45833333  0.56250000  0.92187500  1.0
  Ni  Ni284  1  0.45833333  0.89583333  0.92187500  1.0
  Ni  Ni285  1  0.79166667  0.22916667  0.92187500  1.0
  Ni  Ni286  1  0.79166667  0.56250000  0.92187500  1.0
  Ni  Ni287  1  0.79166667  0.89583333  0.92187500  1.0
  Ni  Ni288  1  0.01388889  0.00694444  0.88020833  1.0
  Ni  Ni289  1  0.01388889  0.34027778  0.88020833  1.0
  Ni  Ni290  1  0.01388889  0.67361111  0.88020833  1.0
  Ni  Ni291  1  0.34722222  0.00694444  0.88020833  1.0
  Ni  Ni292  1  0.34722222  0.34027778  0.88020833  1.0
  Ni  Ni293  1  0.34722222  0.67361111  0.88020833  1.0
  Ni  Ni294  1  0.68055556  0.00694444  0.88020833  1.0
  Ni  Ni295  1  0.68055556  0.34027778  0.88020833  1.0
  Ni  Ni296  1  0.68055556  0.67361111  0.88020833  1.0
  Ni  Ni297  1  0.23611111  0.11805556  0.83854167  1.0
  Ni  Ni298  1  0.23611111  0.45138889  0.83854167  1.0
  Ni  Ni299  1  0.23611111  0.78472222  0.83854167  1.0
  Ni  Ni300  1  0.56944444  0.11805556  0.83854167  1.0
  Ni  Ni301  1  0.56944444  0.45138889  0.83854167  1.0
  Ni  Ni302  1  0.56944444  0.78472222  0.83854167  1.0
  Ni  Ni303  1  0.90277778  0.11805556  0.83854167  1.0
  Ni  Ni304  1  0.90277778  0.45138889  0.83854167  1.0
  Ni  Ni305  1  0.90277778  0.78472222  0.83854167  1.0
  Ni  Ni306  1  0.12500000  0.22916667  0.79687500  1.0
  Ni  Ni307  1  0.12500000  0.56250000  0.79687500  1.0
  Ni  Ni308  1  0.12500000  0.89583333  0.79687500  1.0
  Ni  Ni309  1  0.45833333  0.22916667  0.79687500  1.0
  Ni  Ni310  1  0.45833333  0.56250000  0.79687500  1.0
  Ni  Ni311  1  0.45833333  0.89583333  0.79687500  1.0
  Ni  Ni312  1  0.79166667  0.22916667  0.79687500  1.0
  Ni  Ni313  1  0.79166667  0.56250000  0.79687500  1.0
  Ni  Ni314  1  0.79166667  0.89583333  0.79687500  1.0
  Ni  Ni315  1  0.01388889  0.00694444  0.75520833  1.0
  Ni  Ni316  1  0.01388889  0.34027778  0.75520833  1.0
  Ni  Ni317  1  0.01388889  0.67361111  0.75520833  1.0
  Ni  Ni318  1  0.34722222  0.00694444  0.75520833  1.0
  Ni  Ni319  1  0.34722222  0.34027778  0.75520833  1.0
  Ni  Ni320  1  0.34722222  0.67361111  0.75520833  1.0
  Ni  Ni321  1  0.68055556  0.00694444  0.75520833  1.0
  Ni  Ni322  1  0.68055556  0.34027778  0.75520833  1.0
  Ni  Ni323  1  0.68055556  0.67361111  0.75520833  1.0
  Ni  Ni324  1  0.23611111  0.11805556  0.71354167  1.0
  Ni  Ni325  1  0.23611111  0.45138889  0.71354167  1.0
  Ni  Ni326  1  0.23611111  0.78472222  0.71354167  1.0
  Ni  Ni327  1  0.56944444  0.11805556  0.71354167  1.0
  Ni  Ni328  1  0.56944444  0.45138889  0.71354167  1.0
  Ni  Ni329  1  0.56944444  0.78472222  0.71354167  1.0
  Ni  Ni330  1  0.90277778  0.11805556  0.71354167  1.0
  Ni  Ni331  1  0.90277778  0.45138889  0.71354167  1.0
  Ni  Ni332  1  0.90277778  0.78472222  0.71354167  1.0
  Ni  Ni333  1  0.12500000  0.22916667  0.67187500  1.0
  Ni  Ni334  1  0.12500000  0.56250000  0.67187500  1.0
  Ni  Ni335  1  0.12500000  0.89583333  0.67187500  1.0
  Ni  Ni336  1  0.45833333  0.22916667  0.67187500  1.0
  Ni  Ni337  1  0.45833333  0.56250000  0.67187500  1.0
  Ni  Ni338  1  0.45833333  0.89583333  0.67187500  1.0
  Ni  Ni339  1  0.79166667  0.22916667  0.67187500  1.0
  Ni  Ni340  1  0.79166667  0.56250000  0.67187500  1.0
  Ni  Ni341  1  0.79166667  0.89583333  0.67187500  1.0
  Ni  Ni342  1  0.01388889  0.00694444  0.63020833  1.0
  Ni  Ni343  1  0.01388889  0.34027778  0.63020833  1.0
  Ni  Ni344  1  0.01388889  0.67361111  0.63020833  1.0
  Ni  Ni345  1  0.34722222  0.00694444  0.63020833  1.0
  Ni  Ni346  1  0.34722222  0.34027778  0.63020833  1.0
  Ni  Ni347  1  0.34722222  0.67361111  0.63020833  1.0
  Ni  Ni348  1  0.68055556  0.00694444  0.63020833  1.0
  Ni  Ni349  1  0.68055556  0.34027778  0.63020833  1.0
  Ni  Ni350  1  0.68055556  0.67361111  0.63020833  1.0
  Ni  Ni351  1  0.23611111  0.11805556  0.58854167  1.0
  Ni  Ni352  1  0.23611111  0.45138889  0.58854167  1.0
  Ni  Ni353  1  0.23611111  0.78472222  0.58854167  1.0
  Ni  Ni354  1  0.56944444  0.11805556  0.58854167  1.0
  Ni  Ni355  1  0.56944444  0.45138889  0.58854167  1.0
  Ni  Ni356  1  0.56944444  0.78472222  0.58854167  1.0
  Ni  Ni357  1  0.90277778  0.11805556  0.58854167  1.0
  Ni  Ni358  1  0.90277778  0.45138889  0.58854167  1.0
  Ni  Ni359  1  0.90277778  0.78472222  0.58854167  1.0
