# generated using pymatgen
data_Cr3Ni
_symmetry_space_group_name_H-M   'P 1'
_cell_length_a   12.21852093
_cell_length_b   17.27959801
_cell_length_c   28.50988217
_cell_angle_alpha   90.00000000
_cell_angle_beta   90.00000000
_cell_angle_gamma   90.00000000
_symmetry_Int_Tables_number   1
_chemical_formula_structural   Cr3Ni
_chemical_formula_sum   'Cr162 Ni54'
_cell_volume   6019.32363768
_cell_formula_units_Z   54
loop_
 _symmetry_equiv_pos_site_id
 _symmetry_equiv_pos_as_xyz
  1  'x, y, z'
loop_
 _atom_site_type_symbol
 _atom_site_label
 _atom_site_symmetry_multiplicity
 _atom_site_fract_x
 _atom_site_fract_y
 _atom_site_fract_z
 _atom_site_occupancy
  Cr  Cr0  1  0.00000000  0.25000000  0.96428571  1.0
  Cr  Cr1  1  0.00000000  0.58333333  0.96428571  1.0
  Cr  Cr2  1  0.00000000  0.91666667  0.96428571  1.0
  Cr  Cr3  1  0.33333333  0.25000000  0.96428571  1.0
  Cr  Cr4  1  0.33333333  0.58333333  0.96428571  1.0
  Cr  Cr5  1  0.33333333  0.91666667  0.96428571  1.0
  Cr  Cr6  1  0.66666667  0.25000000  0.96428571  1.0
  Cr  Cr7  1  0.66666667  0.58333333  0.96428571  1.0
  Cr  Cr8  1  0.66666667  0.91666667  0.96428571  1.0
  Cr  Cr9  1  0.16666667  0.08333333  0.89285714  1.0
  Cr  Cr10  1  0.16666667  0.41666667  0.89285714  1.0
  Cr  Cr11  1  0.16666667  0.75000000  0.89285714  1.0
  Cr  Cr12  1  0.50000000  0.08333333  0.89285714  1.0
  Cr  Cr13  1  0.50000000  0.41666667  0.89285714  1.0
  Cr  Cr14  1  0.50000000  0.75000000  0.89285714  1.0
  Cr  Cr15  1  0.83333333  0.08333333  0.89285714  1.0
  Cr  Cr16  1  0.83333333  0.41666667  0.89285714  1.0
  Cr  Cr17  1  0.83333333  0.75000000  0.89285714  1.0
  Cr  Cr18  1  0.33333333  0.08333333  0.96428571  1.0
  Cr  Cr19  1  0.33333333  0.41666667  0.96428571  1.0
  Cr  Cr20  1  0.33333333  0.75000000  0.96428571  1.0
  Cr  Cr21  1  0.66666667  0.08333333  0.96428571  1.0
  Cr  Cr22  1  0.66666667  0.41666667  0.96428571  1.0
  Cr  Cr23  1  0.66666667  0.75000000  0.96428571  1.0
  Cr  Cr24  1  0.00000000  0.08333333  0.96428571  1.0
  Cr  Cr25  1  1.00000000  0.41666667  0.96428571  1.0
  Cr  Cr26  1  1.00000000  0.75000000  0.96428571  1.0
  Cr  Cr27  1  0.16666667  0.25000000  0.89285714  1.0
  Cr  Cr28  1  0.16666667  0.58333333  0.89285714  1.0
  Cr  Cr29  1  0.16666667  0.91666667  0.89285714  1.0
  Cr  Cr30  1  0.50000000  0.25000000  0.89285714  1.0
  Cr  Cr31  1  0.50000000  0.58333333  0.89285714  1.0
  Cr  Cr32  1  0.50000000  0.91666667  0.89285714  1.0
  Cr  Cr33  1  0.83333333  0.25000000  0.89285714  1.0
  Cr  Cr34  1  0.83333333  0.58333333  0.89285714  1.0
  Cr  Cr35  1  0.83333333  0.91666667  0.89285714  1.0
  Cr  Cr36  1  0.33333333  0.16666667  0.89285714  1.0
  Cr  Cr37  1  0.33333333  0.50000000  0.89285714  1.0
  Cr  Cr38  1  0.33333333  0.83333333  0.89285714  1.0
  Cr  Cr39  1  0.66666667  0.16666667  0.89285714  1.0
  Cr  Cr40  1  0.66666667  0.50000000  0.89285714  1.0
  Cr  Cr41  1  0.66666667  0.83333333  0.89285714  1.0
  Cr  Cr42  1  0.00000000  0.16666667  0.89285714  1.0
  Cr  Cr43  1  0.00000000  0.50000000  0.89285714  1.0
  Cr  Cr44  1  0.00000000  0.83333333  0.89285714  1.0
  Cr  Cr45  1  0.16666667  0.33333333  0.96428571  1.0
  Cr  Cr46  1  0.16666667  0.66666667  0.96428571  1.0
  Cr  Cr47  1  0.16666667  0.00000000  0.96428571  1.0
  Cr  Cr48  1  0.50000000  0.33333333  0.96428571  1.0
  Cr  Cr49  1  0.50000000  0.66666667  0.96428571  1.0
  Cr  Cr50  1  0.50000000  0.00000000  0.96428571  1.0
  Cr  Cr51  1  0.83333333  0.33333333  0.96428571  1.0
  Cr  Cr52  1  0.83333333  0.66666667  0.96428571  1.0
  Cr  Cr53  1  0.83333333  0.00000000  0.96428571  1.0
  Cr  Cr54  1  0.00000000  0.25000000  0.82142857  1.0
  Cr  Cr55  1  0.00000000  0.58333333  0.82142857  1.0
  Cr  Cr56  1  0.00000000  0.91666667  0.82142857  1.0
  Cr  Cr57  1  0.33333333  0.25000000  0.82142857  1.0
  Cr  Cr58  1  0.33333333  0.58333333  0.82142857  1.0
  Cr  Cr59  1  0.33333333  0.91666667  0.82142857  1.0
  Cr  Cr60  1  0.66666667  0.25000000  0.82142857  1.0
  Cr  Cr61  1  0.66666667  0.58333333  0.82142857  1.0
  Cr  Cr62  1  0.66666667  0.91666667  0.82142857  1.0
  Cr  Cr63  1  0.16666667  0.08333333  0.75000000  1.0
  Cr  Cr64  1  0.16666667  0.41666667  0.75000000  1.0
  Cr  Cr65  1  0.16666667  0.75000000  0.75000000  1.0
  Cr  Cr66  1  0.50000000  0.08333333  0.75000000  1.0
  Cr  Cr67  1  0.50000000  0.41666667  0.75000000  1.0
  Cr  Cr68  1  0.50000000  0.75000000  0.75000000  1.0
  Cr  Cr69  1  0.83333333  0.08333333  0.75000000  1.0
  Cr  Cr70  1  0.83333333  0.41666667  0.75000000  1.0
  Cr  Cr71  1  0.83333333  0.75000000  0.75000000  1.0
  Cr  Cr72  1  0.33333333  0.08333333  0.82142857  1.0
  Cr  Cr73  1  0.33333333  0.41666667  0.82142857  1.0
  Cr  Cr74  1  0.33333333  0.75000000  0.82142857  1.0
  Cr  Cr75  1  0.66666667  0.08333333  0.82142857  1.0
  Cr  Cr76  1  0.66666667  0.41666667  0.82142857  1.0
  Cr  Cr77  1  0.66666667  0.75000000  0.82142857  1.0
  Cr  Cr78  1  0.00000000  0.08333333  0.82142857  1.0
  Cr  Cr79  1  1.00000000  0.41666667  0.82142857  1.0
  Cr  Cr80  1  1.00000000  0.75000000  0.82142857  1.0
  Cr  Cr81  1  0.16666667  0.25000000  0.75000000  1.0
  Cr  Cr82  1  0.16666667  0.58333333  0.75000000  1.0
  Cr  Cr83  1  0.16666667  0.91666667  0.75000000  1.0
  Cr  Cr84  1  0.50000000  0.25000000  0.75000000  1.0
  Cr  Cr85  1  0.50000000  0.58333333  0.75000000  1.0
  Cr  Cr86  1  0.50000000  0.91666667  0.75000000  1.0
  Cr  Cr87  1  0.83333333  0.25000000  0.75000000  1.0
  Cr  Cr88  1  0.83333333  0.58333333  0.75000000  1.0
  Cr  Cr89  1  0.83333333  0.91666667  0.75000000  1.0
  Cr  Cr90  1  0.00000000  0.16666667  0.75000000  1.0
  Cr  Cr91  1  0.00000000  0.50000000  0.75000000  1.0
  Cr  Cr92  1  0.00000000  0.83333333  0.75000000  1.0
  Cr  Cr93  1  0.33333333  0.16666667  0.75000000  1.0
  Cr  Cr94  1  0.33333333  0.50000000  0.75000000  1.0
  Cr  Cr95  1  0.33333333  0.83333333  0.75000000  1.0
  Cr  Cr96  1  0.66666667  0.16666667  0.75000000  1.0
  Cr  Cr97  1  0.66666667  0.50000000  0.75000000  1.0
  Cr  Cr98  1  0.66666667  0.83333333  0.75000000  1.0
  Cr  Cr99  1  0.16666667  0.33333333  0.82142857  1.0
  Cr  Cr100  1  0.16666667  0.66666667  0.82142857  1.0
  Cr  Cr101  1  0.16666667  0.00000000  0.82142857  1.0
  Cr  Cr102  1  0.50000000  0.33333333  0.82142857  1.0
  Cr  Cr103  1  0.50000000  0.66666667  0.82142857  1.0
  Cr  Cr104  1  0.50000000  0.00000000  0.82142857  1.0
  Cr  Cr105  1  0.83333333  0.33333333  0.82142857  1.0
  Cr  Cr106  1  0.83333333  0.66666667  0.82142857  1.0
  Cr  Cr107  1  0.83333333  0.00000000  0.82142857  1.0
  Cr  Cr108  1  0.00000000  0.25000000  0.67857143  1.0
  Cr  Cr109  1  0.00000000  0.58333333  0.67857143  1.0
  Cr  Cr110  1  0.00000000  0.91666667  0.67857143  1.0
  Cr  Cr111  1  0.33333333  0.25000000  0.67857143  1.0
  Cr  Cr112  1  0.33333333  0.58333333  0.67857143  1.0
  Cr  Cr113  1  0.33333333  0.91666667  0.67857143  1.0
  Cr  Cr114  1  0.66666667  0.25000000  0.67857143  1.0
  Cr  Cr115  1  0.66666667  0.58333333  0.67857143  1.0
  Cr  Cr116  1  0.66666667  0.91666667  0.67857143  1.0
  Cr  Cr117  1  0.16666667  0.08333333  0.60714286  1.0
  Cr  Cr118  1  0.16666667  0.41666667  0.60714286  1.0
  Cr  Cr119  1  0.16666667  0.75000000  0.60714286  1.0
  Cr  Cr120  1  0.50000000  0.08333333  0.60714286  1.0
  Cr  Cr121  1  0.50000000  0.41666667  0.60714286  1.0
  Cr  Cr122  1  0.50000000  0.75000000  0.60714286  1.0
  Cr  Cr123  1  0.83333333  0.08333333  0.60714286  1.0
  Cr  Cr124  1  0.83333333  0.41666667  0.60714286  1.0
  Cr  Cr125  1  0.83333333  0.75000000  0.60714286  1.0
  Cr  Cr126  1  0.33333333  0.08333333  0.67857143  1.0
  Cr  Cr127  1  0.33333333  0.41666667  0.67857143  1.0
  Cr  Cr128  1  0.33333333  0.75000000  0.67857143  1.0
  Cr  Cr129  1  0.66666667  0.08333333  0.67857143  1.0
  Cr  Cr130  1  0.66666667  0.41666667  0.67857143  1.0
  Cr  Cr131  1  0.66666667  0.75000000  0.67857143  1.0
  Cr  Cr132  1  0.00000000  0.08333333  0.67857143  1.0
  Cr  Cr133  1  1.00000000  0.41666667  0.67857143  1.0
  Cr  Cr134  1  1.00000000  0.75000000  0.67857143  1.0
  Cr  Cr135  1  0.16666667  0.25000000  0.60714286  1.0
  Cr  Cr136  1  0.16666667  0.58333333  0.60714286  1.0
  Cr  Cr137  1  0.16666667  0.91666667  0.60714286  1.0
  Cr  Cr138  1  0.50000000  0.25000000  0.60714286  1.0
  Cr  Cr139  1  0.50000000  0.58333333  0.60714286  1.0
  Cr  Cr140  1  0.50000000  0.91666667  0.60714286  1.0
  Cr  Cr141  1  0.83333333  0.25000000  0.60714286  1.0
  Cr  Cr142  1  0.83333333  0.58333333  0.60714286  1.0
  Cr  Cr143  1  0.83333333  0.91666667  0.60714286  1.0
  Cr  Cr144  1  0.33333333  0.16666667  0.60714286  1.0
  Cr  Cr145  1  0.33333333  0.50000000  0.60714286  1.0
  Cr  Cr146  1  0.33333333  0.83333333  0.60714286  1.0
  Cr  Cr147  1  0.66666667  0.16666667  0.60714286  1.0
  Cr  Cr148  1  0.66666667  0.50000000  0.60714286  1.0
  Cr  Cr149  1  0.66666667  0.83333333  0.60714286  1.0
  Cr  Cr150  1  0.00000000  0.16666667  0.60714286  1.0
  Cr  Cr151  1  0.00000000  0.50000000  0.60714286  1.0
  Cr  Cr152  1  0.00000000  0.83333333  0.60714286  1.0
  Cr  Cr153  1  0.16666667  0.33333333  0.67857143  1.0
  Cr  Cr154  1  0.16666667  0.66666667  0.67857143  1.0
  Cr  Cr155  1  0.16666667  0.00000000  0.67857143  1.0
  Cr  Cr156  1  0.50000000  0.33333333  0.67857143  1.0
  Cr  Cr157  1  0.50000000  0.66666667  0.67857143  1.0
  Cr  Cr158  1  0.50000000  0.00000000  0.67857143  1.0
  Cr  Cr159  1  0.83333333  0.33333333  0.67857143  1.0
  Cr  Cr160  1  0.83333333  0.66666667  0.67857143  1.0
  Cr  Cr161  1  0.83333333  0.00000000  0.67857143  1.0
  Ni  Ni162  1  0.33333333  0.33333333  0.89285714  1.0
  Ni  Ni163  1  0.33333333  0.66666667  0.89285714  1.0
  Ni  Ni164  1  0.33333333  0.00000000  0.89285714  1.0
  Ni  Ni165  1  0.66666667  0.33333333  0.89285714  1.0
  Ni  Ni166  1  0.66666667  0.66666667  0.89285714  1.0
  Ni  Ni167  1  0.66666667  0.00000000  0.89285714  1.0
  Ni  Ni168  1  1.00000000  0.33333333  0.89285714  1.0
  Ni  Ni169  1  0.00000000  0.66666667  0.89285714  1.0
  Ni  Ni170  1  0.00000000  0.00000000  0.89285714  1.0
  Ni  Ni171  1  0.16666667  0.16666667  0.96428571  1.0
  Ni  Ni172  1  0.16666667  0.50000000  0.96428571  1.0
  Ni  Ni173  1  0.16666667  0.83333333  0.96428571  1.0
  Ni  Ni174  1  0.50000000  0.16666667  0.96428571  1.0
  Ni  Ni175  1  0.50000000  0.50000000  0.96428571  1.0
  Ni  Ni176  1  0.50000000  0.83333333  0.96428571  1.0
  Ni  Ni177  1  0.83333333  0.16666667  0.96428571  1.0
  Ni  Ni178  1  0.83333333  0.50000000  0.96428571  1.0
  Ni  Ni179  1  0.83333333  0.83333333  0.96428571  1.0
  Ni  Ni180  1  0.33333333  0.33333333  0.75000000  1.0
  Ni  Ni181  1  0.33333333  0.66666667  0.75000000  1.0
  Ni  Ni182  1  0.33333333  0.00000000  0.75000000  1.0
  Ni  Ni183  1  0.66666667  0.33333333  0.75000000  1.0
  Ni  Ni184  1  0.66666667  0.66666667  0.75000000  1.0
  Ni  Ni185  1  0.66666667  0.00000000  0.75000000  1.0
  Ni  Ni186  1  1.00000000  0.33333333  0.75000000  1.0
  Ni  Ni187  1  0.00000000  0.66666667  0.75000000  1.0
  Ni  Ni188  1  0.00000000  0.00000000  0.75000000  1.0
  Ni  Ni189  1  0.16666667  0.16666667  0.82142857  1.0
  Ni  Ni190  1  0.16666667  0.50000000  0.82142857  1.0
  Ni  Ni191  1  0.16666667  0.83333333  0.82142857  1.0
  Ni  Ni192  1  0.50000000  0.16666667  0.82142857  1.0
  Ni  Ni193  1  0.50000000  0.50000000  0.82142857  1.0
  Ni  Ni194  1  0.50000000  0.83333333  0.82142857  1.0
  Ni  Ni195  1  0.83333333  0.16666667  0.82142857  1.0
  Ni  Ni196  1  0.83333333  0.50000000  0.82142857  1.0
  Ni  Ni197  1  0.83333333  0.83333333  0.82142857  1.0
  Ni  Ni198  1  0.00000000  0.00000000  0.60714286  1.0
  Ni  Ni199  1  0.00000000  0.33333333  0.60714286  1.0
  Ni  Ni200  1  0.00000000  0.66666667  0.60714286  1.0
  Ni  Ni201  1  0.33333333  0.00000000  0.60714286  1.0
  Ni  Ni202  1  0.33333333  0.33333333  0.60714286  1.0
  Ni  Ni203  1  0.33333333  0.66666667  0.60714286  1.0
  Ni  Ni204  1  0.66666667  0.00000000  0.60714286  1.0
  Ni  Ni205  1  0.66666667  0.33333333  0.60714286  1.0
  Ni  Ni206  1  0.66666667  0.66666667  0.60714286  1.0
  Ni  Ni207  1  0.16666667  0.16666667  0.67857143  1.0
  Ni  Ni208  1  0.16666667  0.50000000  0.67857143  1.0
  Ni  Ni209  1  0.16666667  0.83333333  0.67857143  1.0
  Ni  Ni210  1  0.50000000  0.16666667  0.67857143  1.0
  Ni  Ni211  1  0.50000000  0.50000000  0.67857143  1.0
  Ni  Ni212  1  0.50000000  0.83333333  0.67857143  1.0
  Ni  Ni213  1  0.83333333  0.16666667  0.67857143  1.0
  Ni  Ni214  1  0.83333333  0.50000000  0.67857143  1.0
  Ni  Ni215  1  0.83333333  0.83333333  0.67857143  1.0
