# generated using pymatgen
data_Cr3Ni
_symmetry_space_group_name_H-M   'P 1'
_cell_length_a   12.21852093
_cell_length_b   32.32716777
_cell_length_c   48.87408372
_cell_angle_alpha   40.89339465
_cell_angle_beta   60.00000000
_cell_angle_gamma   79.10660535
_symmetry_Int_Tables_number   1
_chemical_formula_structural   Cr3Ni
_chemical_formula_sum   'Cr270 Ni90'
_cell_volume   10318.84052174
_cell_formula_units_Z   90
loop_
 _symmetry_equiv_pos_site_id
 _symmetry_equiv_pos_as_xyz
  1  'x, y, z'
loop_
 _atom_site_type_symbol
 _atom_site_label
 _atom_site_symmetry_multiplicity
 _atom_site_fract_x
 _atom_site_fract_y
 _atom_site_fract_z
 _atom_site_occupancy
  Cr  Cr0  1  0.25000000  0.04166667  0.02604167  1.0
  Cr  Cr1  1  0.25000000  0.37500000  0.02604167  1.0
  Cr  Cr2  1  0.25000000  0.70833333  0.02604167  1.0
  Cr  Cr3  1  0.58333333  0.04166667  0.02604167  1.0
  Cr  Cr4  1  0.58333333  0.37500000  0.02604167  1.0
  Cr  Cr5  1  0.58333333  0.70833333  0.02604167  1.0
  Cr  Cr6  1  0.91666667  0.04166667  0.02604167  1.0
  Cr  Cr7  1  0.91666667  0.37500000  0.02604167  1.0
  Cr  Cr8  1  0.91666667  0.70833333  0.02604167  1.0
  Cr  Cr9  1  0.25000000  0.20833333  0.06770833  1.0
  Cr  Cr10  1  0.25000000  0.54166667  0.06770833  1.0
  Cr  Cr11  1  0.25000000  0.87500000  0.06770833  1.0
  Cr  Cr12  1  0.58333333  0.20833333  0.06770833  1.0
  Cr  Cr13  1  0.58333333  0.54166667  0.06770833  1.0
  Cr  Cr14  1  0.58333333  0.87500000  0.06770833  1.0
  Cr  Cr15  1  0.91666667  0.20833333  0.06770833  1.0
  Cr  Cr16  1  0.91666667  0.54166667  0.06770833  1.0
  Cr  Cr17  1  0.91666667  0.87500000  0.06770833  1.0
  Cr  Cr18  1  0.08333333  0.12500000  0.00520833  1.0
  Cr  Cr19  1  0.08333333  0.45833333  0.00520833  1.0
  Cr  Cr20  1  0.08333333  0.79166667  0.00520833  1.0
  Cr  Cr21  1  0.41666667  0.12500000  0.00520833  1.0
  Cr  Cr22  1  0.41666667  0.45833333  0.00520833  1.0
  Cr  Cr23  1  0.41666667  0.79166667  0.00520833  1.0
  Cr  Cr24  1  0.75000000  0.12500000  0.00520833  1.0
  Cr  Cr25  1  0.75000000  0.45833333  0.00520833  1.0
  Cr  Cr26  1  0.75000000  0.79166667  0.00520833  1.0
  Cr  Cr27  1  0.08333333  0.29166667  0.04687500  1.0
  Cr  Cr28  1  0.08333333  0.62500000  0.04687500  1.0
  Cr  Cr29  1  0.08333333  0.95833333  0.04687500  1.0
  Cr  Cr30  1  0.41666667  0.29166667  0.04687500  1.0
  Cr  Cr31  1  0.41666667  0.62500000  0.04687500  1.0
  Cr  Cr32  1  0.41666667  0.95833333  0.04687500  1.0
  Cr  Cr33  1  0.75000000  0.29166667  0.04687500  1.0
  Cr  Cr34  1  0.75000000  0.62500000  0.04687500  1.0
  Cr  Cr35  1  0.75000000  0.95833333  0.04687500  1.0
  Cr  Cr36  1  0.16666667  0.08333333  0.05729167  1.0
  Cr  Cr37  1  0.16666667  0.41666667  0.05729167  1.0
  Cr  Cr38  1  0.16666667  0.75000000  0.05729167  1.0
  Cr  Cr39  1  0.50000000  0.08333333  0.05729167  1.0
  Cr  Cr40  1  0.50000000  0.41666667  0.05729167  1.0
  Cr  Cr41  1  0.50000000  0.75000000  0.05729167  1.0
  Cr  Cr42  1  0.83333333  0.08333333  0.05729167  1.0
  Cr  Cr43  1  0.83333333  0.41666667  0.05729167  1.0
  Cr  Cr44  1  0.83333333  0.75000000  0.05729167  1.0
  Cr  Cr45  1  0.16666667  0.25000000  0.01562500  1.0
  Cr  Cr46  1  0.16666667  0.58333333  0.01562500  1.0
  Cr  Cr47  1  0.16666667  0.91666667  0.01562500  1.0
  Cr  Cr48  1  0.50000000  0.25000000  0.01562500  1.0
  Cr  Cr49  1  0.50000000  0.58333333  0.01562500  1.0
  Cr  Cr50  1  0.50000000  0.91666667  0.01562500  1.0
  Cr  Cr51  1  0.83333333  0.25000000  0.01562500  1.0
  Cr  Cr52  1  0.83333333  0.58333333  0.01562500  1.0
  Cr  Cr53  1  0.83333333  0.91666667  0.01562500  1.0
  Ni  Ni54  1  0.00000000  0.16666667  0.03645833  1.0
  Ni  Ni55  1  0.00000000  0.50000000  0.03645833  1.0
  Ni  Ni56  1  0.00000000  0.83333333  0.03645833  1.0
  Ni  Ni57  1  0.33333333  0.16666667  0.03645833  1.0
  Ni  Ni58  1  0.33333333  0.50000000  0.03645833  1.0
  Ni  Ni59  1  0.33333333  0.83333333  0.03645833  1.0
  Ni  Ni60  1  0.66666667  0.16666667  0.03645833  1.0
  Ni  Ni61  1  0.66666667  0.50000000  0.03645833  1.0
  Ni  Ni62  1  0.66666667  0.83333333  0.03645833  1.0
  Ni  Ni63  1  0.00000000  0.00000000  0.07812500  1.0
  Ni  Ni64  1  0.00000000  0.33333333  0.07812500  1.0
  Ni  Ni65  1  0.00000000  0.66666667  0.07812500  1.0
  Ni  Ni66  1  0.33333333  0.00000000  0.07812500  1.0
  Ni  Ni67  1  0.33333333  0.33333333  0.07812500  1.0
  Ni  Ni68  1  0.33333333  0.66666667  0.07812500  1.0
  Ni  Ni69  1  0.66666667  0.00000000  0.07812500  1.0
  Ni  Ni70  1  0.66666667  0.33333333  0.07812500  1.0
  Ni  Ni71  1  0.66666667  0.66666667  0.07812500  1.0
  Cr  Cr72  1  0.25000000  0.04166667  0.10937500  1.0
  Cr  Cr73  1  0.25000000  0.37500000  0.10937500  1.0
  Cr  Cr74  1  0.25000000  0.70833333  0.10937500  1.0
  Cr  Cr75  1  0.58333333  0.04166667  0.10937500  1.0
  Cr  Cr76  1  0.58333333  0.37500000  0.10937500  1.0
  Cr  Cr77  1  0.58333333  0.70833333  0.10937500  1.0
  Cr  Cr78  1  0.91666667  0.04166667  0.10937500  1.0
  Cr  Cr79  1  0.91666667  0.37500000  0.10937500  1.0
  Cr  Cr80  1  0.91666667  0.70833333  0.10937500  1.0
  Cr  Cr81  1  0.25000000  0.20833333  0.15104167  1.0
  Cr  Cr82  1  0.25000000  0.54166667  0.15104167  1.0
  Cr  Cr83  1  0.25000000  0.87500000  0.15104167  1.0
  Cr  Cr84  1  0.58333333  0.20833333  0.15104167  1.0
  Cr  Cr85  1  0.58333333  0.54166667  0.15104167  1.0
  Cr  Cr86  1  0.58333333  0.87500000  0.15104167  1.0
  Cr  Cr87  1  0.91666667  0.20833333  0.15104167  1.0
  Cr  Cr88  1  0.91666667  0.54166667  0.15104167  1.0
  Cr  Cr89  1  0.91666667  0.87500000  0.15104167  1.0
  Cr  Cr90  1  0.08333333  0.12500000  0.08854167  1.0
  Cr  Cr91  1  0.08333333  0.45833333  0.08854167  1.0
  Cr  Cr92  1  0.08333333  0.79166667  0.08854167  1.0
  Cr  Cr93  1  0.41666667  0.12500000  0.08854167  1.0
  Cr  Cr94  1  0.41666667  0.45833333  0.08854167  1.0
  Cr  Cr95  1  0.41666667  0.79166667  0.08854167  1.0
  Cr  Cr96  1  0.75000000  0.12500000  0.08854167  1.0
  Cr  Cr97  1  0.75000000  0.45833333  0.08854167  1.0
  Cr  Cr98  1  0.75000000  0.79166667  0.08854167  1.0
  Cr  Cr99  1  0.08333333  0.29166667  0.13020833  1.0
  Cr  Cr100  1  0.08333333  0.62500000  0.13020833  1.0
  Cr  Cr101  1  0.08333333  0.95833333  0.13020833  1.0
  Cr  Cr102  1  0.41666667  0.29166667  0.13020833  1.0
  Cr  Cr103  1  0.41666667  0.62500000  0.13020833  1.0
  Cr  Cr104  1  0.41666667  0.95833333  0.13020833  1.0
  Cr  Cr105  1  0.75000000  0.29166667  0.13020833  1.0
  Cr  Cr106  1  0.75000000  0.62500000  0.13020833  1.0
  Cr  Cr107  1  0.75000000  0.95833333  0.13020833  1.0
  Cr  Cr108  1  0.16666667  0.08333333  0.14062500  1.0
  Cr  Cr109  1  0.16666667  0.41666667  0.14062500  1.0
  Cr  Cr110  1  0.16666667  0.75000000  0.14062500  1.0
  Cr  Cr111  1  0.50000000  0.08333333  0.14062500  1.0
  Cr  Cr112  1  0.50000000  0.41666667  0.14062500  1.0
  Cr  Cr113  1  0.50000000  0.75000000  0.14062500  1.0
  Cr  Cr114  1  0.83333333  0.08333333  0.14062500  1.0
  Cr  Cr115  1  0.83333333  0.41666667  0.14062500  1.0
  Cr  Cr116  1  0.83333333  0.75000000  0.14062500  1.0
  Cr  Cr117  1  0.16666667  0.25000000  0.09895833  1.0
  Cr  Cr118  1  0.16666667  0.58333333  0.09895833  1.0
  Cr  Cr119  1  0.16666667  0.91666667  0.09895833  1.0
  Cr  Cr120  1  0.50000000  0.25000000  0.09895833  1.0
  Cr  Cr121  1  0.50000000  0.58333333  0.09895833  1.0
  Cr  Cr122  1  0.50000000  0.91666667  0.09895833  1.0
  Cr  Cr123  1  0.83333333  0.25000000  0.09895833  1.0
  Cr  Cr124  1  0.83333333  0.58333333  0.09895833  1.0
  Cr  Cr125  1  0.83333333  0.91666667  0.09895833  1.0
  Ni  Ni126  1  0.00000000  0.16666667  0.11979167  1.0
  Ni  Ni127  1  0.00000000  0.50000000  0.11979167  1.0
  Ni  Ni128  1  0.00000000  0.83333333  0.11979167  1.0
  Ni  Ni129  1  0.33333333  0.16666667  0.11979167  1.0
  Ni  Ni130  1  0.33333333  0.50000000  0.11979167  1.0
  Ni  Ni131  1  0.33333333  0.83333333  0.11979167  1.0
  Ni  Ni132  1  0.66666667  0.16666667  0.11979167  1.0
  Ni  Ni133  1  0.66666667  0.50000000  0.11979167  1.0
  Ni  Ni134  1  0.66666667  0.83333333  0.11979167  1.0
  Ni  Ni135  1  0.00000000  0.00000000  0.16145833  1.0
  Ni  Ni136  1  0.00000000  0.33333333  0.16145833  1.0
  Ni  Ni137  1  0.00000000  0.66666667  0.16145833  1.0
  Ni  Ni138  1  0.33333333  0.00000000  0.16145833  1.0
  Ni  Ni139  1  0.33333333  0.33333333  0.16145833  1.0
  Ni  Ni140  1  0.33333333  0.66666667  0.16145833  1.0
  Ni  Ni141  1  0.66666667  0.00000000  0.16145833  1.0
  Ni  Ni142  1  0.66666667  0.33333333  0.16145833  1.0
  Ni  Ni143  1  0.66666667  0.66666667  0.16145833  1.0
  Cr  Cr144  1  0.25000000  0.04166667  0.19270833  1.0
  Cr  Cr145  1  0.25000000  0.37500000  0.19270833  1.0
  Cr  Cr146  1  0.25000000  0.70833333  0.19270833  1.0
  Cr  Cr147  1  0.58333333  0.04166667  0.19270833  1.0
  Cr  Cr148  1  0.58333333  0.37500000  0.19270833  1.0
  Cr  Cr149  1  0.58333333  0.70833333  0.19270833  1.0
  Cr  Cr150  1  0.91666667  0.04166667  0.19270833  1.0
  Cr  Cr151  1  0.91666667  0.37500000  0.19270833  1.0
  Cr  Cr152  1  0.91666667  0.70833333  0.19270833  1.0
  Cr  Cr153  1  0.25000000  0.20833333  0.23437500  1.0
  Cr  Cr154  1  0.25000000  0.54166667  0.23437500  1.0
  Cr  Cr155  1  0.25000000  0.87500000  0.23437500  1.0
  Cr  Cr156  1  0.58333333  0.20833333  0.23437500  1.0
  Cr  Cr157  1  0.58333333  0.54166667  0.23437500  1.0
  Cr  Cr158  1  0.58333333  0.87500000  0.23437500  1.0
  Cr  Cr159  1  0.91666667  0.20833333  0.23437500  1.0
  Cr  Cr160  1  0.91666667  0.54166667  0.23437500  1.0
  Cr  Cr161  1  0.91666667  0.87500000  0.23437500  1.0
  Cr  Cr162  1  0.08333333  0.12500000  0.17187500  1.0
  Cr  Cr163  1  0.08333333  0.45833333  0.17187500  1.0
  Cr  Cr164  1  0.08333333  0.79166667  0.17187500  1.0
  Cr  Cr165  1  0.41666667  0.12500000  0.17187500  1.0
  Cr  Cr166  1  0.41666667  0.45833333  0.17187500  1.0
  Cr  Cr167  1  0.41666667  0.79166667  0.17187500  1.0
  Cr  Cr168  1  0.75000000  0.12500000  0.17187500  1.0
  Cr  Cr169  1  0.75000000  0.45833333  0.17187500  1.0
  Cr  Cr170  1  0.75000000  0.79166667  0.17187500  1.0
  Cr  Cr171  1  0.08333333  0.29166667  0.21354167  1.0
  Cr  Cr172  1  0.08333333  0.62500000  0.21354167  1.0
  Cr  Cr173  1  0.08333333  0.95833333  0.21354167  1.0
  Cr  Cr174  1  0.41666667  0.29166667  0.21354167  1.0
  Cr  Cr175  1  0.41666667  0.62500000  0.21354167  1.0
  Cr  Cr176  1  0.41666667  0.95833333  0.21354167  1.0
  Cr  Cr177  1  0.75000000  0.29166667  0.21354167  1.0
  Cr  Cr178  1  0.75000000  0.62500000  0.21354167  1.0
  Cr  Cr179  1  0.75000000  0.95833333  0.21354167  1.0
  Cr  Cr180  1  0.16666667  0.08333333  0.22395833  1.0
  Cr  Cr181  1  0.16666667  0.41666667  0.22395833  1.0
  Cr  Cr182  1  0.16666667  0.75000000  0.22395833  1.0
  Cr  Cr183  1  0.50000000  0.08333333  0.22395833  1.0
  Cr  Cr184  1  0.50000000  0.41666667  0.22395833  1.0
  Cr  Cr185  1  0.50000000  0.75000000  0.22395833  1.0
  Cr  Cr186  1  0.83333333  0.08333333  0.22395833  1.0
  Cr  Cr187  1  0.83333333  0.41666667  0.22395833  1.0
  Cr  Cr188  1  0.83333333  0.75000000  0.22395833  1.0
  Cr  Cr189  1  0.16666667  0.25000000  0.18229167  1.0
  Cr  Cr190  1  0.16666667  0.58333333  0.18229167  1.0
  Cr  Cr191  1  0.16666667  0.91666667  0.18229167  1.0
  Cr  Cr192  1  0.50000000  0.25000000  0.18229167  1.0
  Cr  Cr193  1  0.50000000  0.58333333  0.18229167  1.0
  Cr  Cr194  1  0.50000000  0.91666667  0.18229167  1.0
  Cr  Cr195  1  0.83333333  0.25000000  0.18229167  1.0
  Cr  Cr196  1  0.83333333  0.58333333  0.18229167  1.0
  Cr  Cr197  1  0.83333333  0.91666667  0.18229167  1.0
  Ni  Ni198  1  0.00000000  0.16666667  0.20312500  1.0
  Ni  Ni199  1  0.00000000  0.50000000  0.20312500  1.0
  Ni  Ni200  1  0.00000000  0.83333333  0.20312500  1.0
  Ni  Ni201  1  0.33333333  0.16666667  0.20312500  1.0
  Ni  Ni202  1  0.33333333  0.50000000  0.20312500  1.0
  Ni  Ni203  1  0.33333333  0.83333333  0.20312500  1.0
  Ni  Ni204  1  0.66666667  0.16666667  0.20312500  1.0
  Ni  Ni205  1  0.66666667  0.50000000  0.20312500  1.0
  Ni  Ni206  1  0.66666667  0.83333333  0.20312500  1.0
  Ni  Ni207  1  0.00000000  0.00000000  0.24479167  1.0
  Ni  Ni208  1  0.00000000  0.33333333  0.24479167  1.0
  Ni  Ni209  1  0.00000000  0.66666667  0.24479167  1.0
  Ni  Ni210  1  0.33333333  0.00000000  0.24479167  1.0
  Ni  Ni211  1  0.33333333  0.33333333  0.24479167  1.0
  Ni  Ni212  1  0.33333333  0.66666667  0.24479167  1.0
  Ni  Ni213  1  0.66666667  0.00000000  0.24479167  1.0
  Ni  Ni214  1  0.66666667  0.33333333  0.24479167  1.0
  Ni  Ni215  1  0.66666667  0.66666667  0.24479167  1.0
  Cr  Cr216  1  0.25000000  0.04166667  0.27604167  1.0
  Cr  Cr217  1  0.25000000  0.37500000  0.27604167  1.0
  Cr  Cr218  1  0.25000000  0.70833333  0.27604167  1.0
  Cr  Cr219  1  0.58333333  0.04166667  0.27604167  1.0
  Cr  Cr220  1  0.58333333  0.37500000  0.27604167  1.0
  Cr  Cr221  1  0.58333333  0.70833333  0.27604167  1.0
  Cr  Cr222  1  0.91666667  0.04166667  0.27604167  1.0
  Cr  Cr223  1  0.91666667  0.37500000  0.27604167  1.0
  Cr  Cr224  1  0.91666667  0.70833333  0.27604167  1.0
  Cr  Cr225  1  0.25000000  0.20833333  0.31770833  1.0
  Cr  Cr226  1  0.25000000  0.54166667  0.31770833  1.0
  Cr  Cr227  1  0.25000000  0.87500000  0.31770833  1.0
  Cr  Cr228  1  0.58333333  0.20833333  0.31770833  1.0
  Cr  Cr229  1  0.58333333  0.54166667  0.31770833  1.0
  Cr  Cr230  1  0.58333333  0.87500000  0.31770833  1.0
  Cr  Cr231  1  0.91666667  0.20833333  0.31770833  1.0
  Cr  Cr232  1  0.91666667  0.54166667  0.31770833  1.0
  Cr  Cr233  1  0.91666667  0.87500000  0.31770833  1.0
  Cr  Cr234  1  0.08333333  0.12500000  0.25520833  1.0
  Cr  Cr235  1  0.08333333  0.45833333  0.25520833  1.0
  Cr  Cr236  1  0.08333333  0.79166667  0.25520833  1.0
  Cr  Cr237  1  0.41666667  0.12500000  0.25520833  1.0
  Cr  Cr238  1  0.41666667  0.45833333  0.25520833  1.0
  Cr  Cr239  1  0.41666667  0.79166667  0.25520833  1.0
  Cr  Cr240  1  0.75000000  0.12500000  0.25520833  1.0
  Cr  Cr241  1  0.75000000  0.45833333  0.25520833  1.0
  Cr  Cr242  1  0.75000000  0.79166667  0.25520833  1.0
  Cr  Cr243  1  0.08333333  0.29166667  0.29687500  1.0
  Cr  Cr244  1  0.08333333  0.62500000  0.29687500  1.0
  Cr  Cr245  1  0.08333333  0.95833333  0.29687500  1.0
  Cr  Cr246  1  0.41666667  0.29166667  0.29687500  1.0
  Cr  Cr247  1  0.41666667  0.62500000  0.29687500  1.0
  Cr  Cr248  1  0.41666667  0.95833333  0.29687500  1.0
  Cr  Cr249  1  0.75000000  0.29166667  0.29687500  1.0
  Cr  Cr250  1  0.75000000  0.62500000  0.29687500  1.0
  Cr  Cr251  1  0.75000000  0.95833333  0.29687500  1.0
  Cr  Cr252  1  0.16666667  0.08333333  0.30729167  1.0
  Cr  Cr253  1  0.16666667  0.41666667  0.30729167  1.0
  Cr  Cr254  1  0.16666667  0.75000000  0.30729167  1.0
  Cr  Cr255  1  0.50000000  0.08333333  0.30729167  1.0
  Cr  Cr256  1  0.50000000  0.41666667  0.30729167  1.0
  Cr  Cr257  1  0.50000000  0.75000000  0.30729167  1.0
  Cr  Cr258  1  0.83333333  0.08333333  0.30729167  1.0
  Cr  Cr259  1  0.83333333  0.41666667  0.30729167  1.0
  Cr  Cr260  1  0.83333333  0.75000000  0.30729167  1.0
  Cr  Cr261  1  0.16666667  0.25000000  0.26562500  1.0
  Cr  Cr262  1  0.16666667  0.58333333  0.26562500  1.0
  Cr  Cr263  1  0.16666667  0.91666667  0.26562500  1.0
  Cr  Cr264  1  0.50000000  0.25000000  0.26562500  1.0
  Cr  Cr265  1  0.50000000  0.58333333  0.26562500  1.0
  Cr  Cr266  1  0.50000000  0.91666667  0.26562500  1.0
  Cr  Cr267  1  0.83333333  0.25000000  0.26562500  1.0
  Cr  Cr268  1  0.83333333  0.58333333  0.26562500  1.0
  Cr  Cr269  1  0.83333333  0.91666667  0.26562500  1.0
  Ni  Ni270  1  0.00000000  0.16666667  0.28645833  1.0
  Ni  Ni271  1  0.00000000  0.50000000  0.28645833  1.0
  Ni  Ni272  1  0.00000000  0.83333333  0.28645833  1.0
  Ni  Ni273  1  0.33333333  0.16666667  0.28645833  1.0
  Ni  Ni274  1  0.33333333  0.50000000  0.28645833  1.0
  Ni  Ni275  1  0.33333333  0.83333333  0.28645833  1.0
  Ni  Ni276  1  0.66666667  0.16666667  0.28645833  1.0
  Ni  Ni277  1  0.66666667  0.50000000  0.28645833  1.0
  Ni  Ni278  1  0.66666667  0.83333333  0.28645833  1.0
  Ni  Ni279  1  0.00000000  0.00000000  0.32812500  1.0
  Ni  Ni280  1  0.00000000  0.33333333  0.32812500  1.0
  Ni  Ni281  1  0.00000000  0.66666667  0.32812500  1.0
  Ni  Ni282  1  0.33333333  0.00000000  0.32812500  1.0
  Ni  Ni283  1  0.33333333  0.33333333  0.32812500  1.0
  Ni  Ni284  1  0.33333333  0.66666667  0.32812500  1.0
  Ni  Ni285  1  0.66666667  0.00000000  0.32812500  1.0
  Ni  Ni286  1  0.66666667  0.33333333  0.32812500  1.0
  Ni  Ni287  1  0.66666667  0.66666667  0.32812500  1.0
  Cr  Cr288  1  0.25000000  0.04166667  0.35937500  1.0
  Cr  Cr289  1  0.25000000  0.37500000  0.35937500  1.0
  Cr  Cr290  1  0.25000000  0.70833333  0.35937500  1.0
  Cr  Cr291  1  0.58333333  0.04166667  0.35937500  1.0
  Cr  Cr292  1  0.58333333  0.37500000  0.35937500  1.0
  Cr  Cr293  1  0.58333333  0.70833333  0.35937500  1.0
  Cr  Cr294  1  0.91666667  0.04166667  0.35937500  1.0
  Cr  Cr295  1  0.91666667  0.37500000  0.35937500  1.0
  Cr  Cr296  1  0.91666667  0.70833333  0.35937500  1.0
  Cr  Cr297  1  0.25000000  0.20833333  0.40104167  1.0
  Cr  Cr298  1  0.25000000  0.54166667  0.40104167  1.0
  Cr  Cr299  1  0.25000000  0.87500000  0.40104167  1.0
  Cr  Cr300  1  0.58333333  0.20833333  0.40104167  1.0
  Cr  Cr301  1  0.58333333  0.54166667  0.40104167  1.0
  Cr  Cr302  1  0.58333333  0.87500000  0.40104167  1.0
  Cr  Cr303  1  0.91666667  0.20833333  0.40104167  1.0
  Cr  Cr304  1  0.91666667  0.54166667  0.40104167  1.0
  Cr  Cr305  1  0.91666667  0.87500000  0.40104167  1.0
  Cr  Cr306  1  0.08333333  0.12500000  0.33854167  1.0
  Cr  Cr307  1  0.08333333  0.45833333  0.33854167  1.0
  Cr  Cr308  1  0.08333333  0.79166667  0.33854167  1.0
  Cr  Cr309  1  0.41666667  0.12500000  0.33854167  1.0
  Cr  Cr310  1  0.41666667  0.45833333  0.33854167  1.0
  Cr  Cr311  1  0.41666667  0.79166667  0.33854167  1.0
  Cr  Cr312  1  0.75000000  0.12500000  0.33854167  1.0
  Cr  Cr313  1  0.75000000  0.45833333  0.33854167  1.0
  Cr  Cr314  1  0.75000000  0.79166667  0.33854167  1.0
  Cr  Cr315  1  0.08333333  0.29166667  0.38020833  1.0
  Cr  Cr316  1  0.08333333  0.62500000  0.38020833  1.0
  Cr  Cr317  1  0.08333333  0.95833333  0.38020833  1.0
  Cr  Cr318  1  0.41666667  0.29166667  0.38020833  1.0
  Cr  Cr319  1  0.41666667  0.62500000  0.38020833  1.0
  Cr  Cr320  1  0.41666667  0.95833333  0.38020833  1.0
  Cr  Cr321  1  0.75000000  0.29166667  0.38020833  1.0
  Cr  Cr322  1  0.75000000  0.62500000  0.38020833  1.0
  Cr  Cr323  1  0.75000000  0.95833333  0.38020833  1.0
  Cr  Cr324  1  0.16666667  0.08333333  0.39062500  1.0
  Cr  Cr325  1  0.16666667  0.41666667  0.39062500  1.0
  Cr  Cr326  1  0.16666667  0.75000000  0.39062500  1.0
  Cr  Cr327  1  0.50000000  0.08333333  0.39062500  1.0
  Cr  Cr328  1  0.50000000  0.41666667  0.39062500  1.0
  Cr  Cr329  1  0.50000000  0.75000000  0.39062500  1.0
  Cr  Cr330  1  0.83333333  0.08333333  0.39062500  1.0
  Cr  Cr331  1  0.83333333  0.41666667  0.39062500  1.0
  Cr  Cr332  1  0.83333333  0.75000000  0.39062500  1.0
  Cr  Cr333  1  0.16666667  0.25000000  0.34895833  1.0
  Cr  Cr334  1  0.16666667  0.58333333  0.34895833  1.0
  Cr  Cr335  1  0.16666667  0.91666667  0.34895833  1.0
  Cr  Cr336  1  0.50000000  0.25000000  0.34895833  1.0
  Cr  Cr337  1  0.50000000  0.58333333  0.34895833  1.0
  Cr  Cr338  1  0.50000000  0.91666667  0.34895833  1.0
  Cr  Cr339  1  0.83333333  0.25000000  0.34895833  1.0
  Cr  Cr340  1  0.83333333  0.58333333  0.34895833  1.0
  Cr  Cr341  1  0.83333333  0.91666667  0.34895833  1.0
  Ni  Ni342  1  0.00000000  0.16666667  0.36979167  1.0
  Ni  Ni343  1  0.00000000  0.50000000  0.36979167  1.0
  Ni  Ni344  1  0.00000000  0.83333333  0.36979167  1.0
  Ni  Ni345  1  0.33333333  0.16666667  0.36979167  1.0
  Ni  Ni346  1  0.33333333  0.50000000  0.36979167  1.0
  Ni  Ni347  1  0.33333333  0.83333333  0.36979167  1.0
  Ni  Ni348  1  0.66666667  0.16666667  0.36979167  1.0
  Ni  Ni349  1  0.66666667  0.50000000  0.36979167  1.0
  Ni  Ni350  1  0.66666667  0.83333333  0.36979167  1.0
  Ni  Ni351  1  0.00000000  0.00000000  0.41145833  1.0
  Ni  Ni352  1  0.00000000  0.33333333  0.41145833  1.0
  Ni  Ni353  1  0.00000000  0.66666667  0.41145833  1.0
  Ni  Ni354  1  0.33333333  0.00000000  0.41145833  1.0
  Ni  Ni355  1  0.33333333  0.33333333  0.41145833  1.0
  Ni  Ni356  1  0.33333333  0.66666667  0.41145833  1.0
  Ni  Ni357  1  0.66666667  0.00000000  0.41145833  1.0
  Ni  Ni358  1  0.66666667  0.33333333  0.41145833  1.0
  Ni  Ni359  1  0.66666667  0.66666667  0.41145833  1.0
