# generated using pymatgen
data_Cr3Ni
_symmetry_space_group_name_H-M   'P 1'
_cell_length_a   15.23062187
_cell_length_b   36.41875423
_cell_length_c   74.56441230
_cell_angle_alpha   126.85982149
_cell_angle_beta   54.63801086
_cell_angle_gamma   77.93014443
_symmetry_Int_Tables_number   1
_chemical_formula_structural   Cr3Ni
_chemical_formula_sum   'Cr378 Ni126'
_cell_volume   14105.78255131
_cell_formula_units_Z   126
loop_
 _symmetry_equiv_pos_site_id
 _symmetry_equiv_pos_as_xyz
  1  'x, y, z'
loop_
 _atom_site_type_symbol
 _atom_site_label
 _atom_site_symmetry_multiplicity
 _atom_site_fract_x
 _atom_site_fract_y
 _atom_site_fract_z
 _atom_site_occupancy
  Cr  Cr0  1  0.00000000  0.16666667  0.02205882  1.0
  Cr  Cr1  1  0.00000000  0.50000000  0.02205882  1.0
  Cr  Cr2  1  0.00000000  0.83333333  0.02205882  1.0
  Cr  Cr3  1  0.33333333  0.16666667  0.02205882  1.0
  Cr  Cr4  1  0.33333333  0.50000000  0.02205882  1.0
  Cr  Cr5  1  0.33333333  0.83333333  0.02205882  1.0
  Cr  Cr6  1  0.66666667  0.16666667  0.02205882  1.0
  Cr  Cr7  1  0.66666667  0.50000000  0.02205882  1.0
  Cr  Cr8  1  0.66666667  0.83333333  0.02205882  1.0
  Cr  Cr9  1  0.16666667  0.00000000  0.05147059  1.0
  Cr  Cr10  1  0.16666667  0.33333333  0.05147059  1.0
  Cr  Cr11  1  0.16666667  0.66666667  0.05147059  1.0
  Cr  Cr12  1  0.50000000  0.00000000  0.05147059  1.0
  Cr  Cr13  1  0.50000000  0.33333333  0.05147059  1.0
  Cr  Cr14  1  0.50000000  0.66666667  0.05147059  1.0
  Cr  Cr15  1  0.83333333  0.00000000  0.05147059  1.0
  Cr  Cr16  1  0.83333333  0.33333333  0.05147059  1.0
  Cr  Cr17  1  0.83333333  0.66666667  0.05147059  1.0
  Cr  Cr18  1  0.16666667  0.25000000  0.03676471  1.0
  Cr  Cr19  1  0.16666667  0.58333333  0.03676471  1.0
  Cr  Cr20  1  0.16666667  0.91666667  0.03676471  1.0
  Cr  Cr21  1  0.50000000  0.25000000  0.03676471  1.0
  Cr  Cr22  1  0.50000000  0.58333333  0.03676471  1.0
  Cr  Cr23  1  0.50000000  0.91666667  0.03676471  1.0
  Cr  Cr24  1  0.83333333  0.25000000  0.03676471  1.0
  Cr  Cr25  1  0.83333333  0.58333333  0.03676471  1.0
  Cr  Cr26  1  0.83333333  0.91666667  0.03676471  1.0
  Cr  Cr27  1  0.00000000  0.08333333  0.00735294  1.0
  Cr  Cr28  1  0.00000000  0.41666667  0.00735294  1.0
  Cr  Cr29  1  1.00000000  0.75000000  0.00735294  1.0
  Cr  Cr30  1  0.33333333  0.08333333  0.00735294  1.0
  Cr  Cr31  1  0.33333333  0.41666667  0.00735294  1.0
  Cr  Cr32  1  0.33333333  0.75000000  0.00735294  1.0
  Cr  Cr33  1  0.66666667  0.08333333  0.00735294  1.0
  Cr  Cr34  1  0.66666667  0.41666667  0.00735294  1.0
  Cr  Cr35  1  0.66666667  0.75000000  0.00735294  1.0
  Cr  Cr36  1  0.00000000  0.25000000  0.03676471  1.0
  Cr  Cr37  1  1.00000000  0.58333333  0.03676471  1.0
  Cr  Cr38  1  1.00000000  0.91666667  0.03676471  1.0
  Cr  Cr39  1  0.33333333  0.25000000  0.03676471  1.0
  Cr  Cr40  1  0.33333333  0.58333333  0.03676471  1.0
  Cr  Cr41  1  0.33333333  0.91666667  0.03676471  1.0
  Cr  Cr42  1  0.66666667  0.25000000  0.03676471  1.0
  Cr  Cr43  1  0.66666667  0.58333333  0.03676471  1.0
  Cr  Cr44  1  0.66666667  0.91666667  0.03676471  1.0
  Cr  Cr45  1  0.16666667  0.08333333  0.00735294  1.0
  Cr  Cr46  1  0.16666667  0.41666667  0.00735294  1.0
  Cr  Cr47  1  0.16666667  0.75000000  0.00735294  1.0
  Cr  Cr48  1  0.50000000  0.08333333  0.00735294  1.0
  Cr  Cr49  1  0.50000000  0.41666667  0.00735294  1.0
  Cr  Cr50  1  0.50000000  0.75000000  0.00735294  1.0
  Cr  Cr51  1  0.83333333  0.08333333  0.00735294  1.0
  Cr  Cr52  1  0.83333333  0.41666667  0.00735294  1.0
  Cr  Cr53  1  0.83333333  0.75000000  0.00735294  1.0
  Ni  Ni54  1  0.16666667  0.16666667  0.02205882  1.0
  Ni  Ni55  1  0.16666667  0.50000000  0.02205882  1.0
  Ni  Ni56  1  0.16666667  0.83333333  0.02205882  1.0
  Ni  Ni57  1  0.50000000  0.16666667  0.02205882  1.0
  Ni  Ni58  1  0.50000000  0.50000000  0.02205882  1.0
  Ni  Ni59  1  0.50000000  0.83333333  0.02205882  1.0
  Ni  Ni60  1  0.83333333  0.16666667  0.02205882  1.0
  Ni  Ni61  1  0.83333333  0.50000000  0.02205882  1.0
  Ni  Ni62  1  0.83333333  0.83333333  0.02205882  1.0
  Ni  Ni63  1  0.00000000  0.00000000  0.05147059  1.0
  Ni  Ni64  1  0.00000000  0.33333333  0.05147059  1.0
  Ni  Ni65  1  0.00000000  0.66666667  0.05147059  1.0
  Ni  Ni66  1  0.33333333  0.00000000  0.05147059  1.0
  Ni  Ni67  1  0.33333333  0.33333333  0.05147059  1.0
  Ni  Ni68  1  0.33333333  0.66666667  0.05147059  1.0
  Ni  Ni69  1  0.66666667  0.00000000  0.05147059  1.0
  Ni  Ni70  1  0.66666667  0.33333333  0.05147059  1.0
  Ni  Ni71  1  0.66666667  0.66666667  0.05147059  1.0
  Cr  Cr72  1  0.00000000  0.16666667  0.08088235  1.0
  Cr  Cr73  1  0.00000000  0.50000000  0.08088235  1.0
  Cr  Cr74  1  0.00000000  0.83333333  0.08088235  1.0
  Cr  Cr75  1  0.33333333  0.16666667  0.08088235  1.0
  Cr  Cr76  1  0.33333333  0.50000000  0.08088235  1.0
  Cr  Cr77  1  0.33333333  0.83333333  0.08088235  1.0
  Cr  Cr78  1  0.66666667  0.16666667  0.08088235  1.0
  Cr  Cr79  1  0.66666667  0.50000000  0.08088235  1.0
  Cr  Cr80  1  0.66666667  0.83333333  0.08088235  1.0
  Cr  Cr81  1  0.16666667  0.00000000  0.11029412  1.0
  Cr  Cr82  1  0.16666667  0.33333333  0.11029412  1.0
  Cr  Cr83  1  0.16666667  0.66666667  0.11029412  1.0
  Cr  Cr84  1  0.50000000  0.00000000  0.11029412  1.0
  Cr  Cr85  1  0.50000000  0.33333333  0.11029412  1.0
  Cr  Cr86  1  0.50000000  0.66666667  0.11029412  1.0
  Cr  Cr87  1  0.83333333  0.00000000  0.11029412  1.0
  Cr  Cr88  1  0.83333333  0.33333333  0.11029412  1.0
  Cr  Cr89  1  0.83333333  0.66666667  0.11029412  1.0
  Cr  Cr90  1  0.16666667  0.25000000  0.09558824  1.0
  Cr  Cr91  1  0.16666667  0.58333333  0.09558824  1.0
  Cr  Cr92  1  0.16666667  0.91666667  0.09558824  1.0
  Cr  Cr93  1  0.50000000  0.25000000  0.09558824  1.0
  Cr  Cr94  1  0.50000000  0.58333333  0.09558824  1.0
  Cr  Cr95  1  0.50000000  0.91666667  0.09558824  1.0
  Cr  Cr96  1  0.83333333  0.25000000  0.09558824  1.0
  Cr  Cr97  1  0.83333333  0.58333333  0.09558824  1.0
  Cr  Cr98  1  0.83333333  0.91666667  0.09558824  1.0
  Cr  Cr99  1  0.00000000  0.08333333  0.06617647  1.0
  Cr  Cr100  1  0.00000000  0.41666667  0.06617647  1.0
  Cr  Cr101  1  1.00000000  0.75000000  0.06617647  1.0
  Cr  Cr102  1  0.33333333  0.08333333  0.06617647  1.0
  Cr  Cr103  1  0.33333333  0.41666667  0.06617647  1.0
  Cr  Cr104  1  0.33333333  0.75000000  0.06617647  1.0
  Cr  Cr105  1  0.66666667  0.08333333  0.06617647  1.0
  Cr  Cr106  1  0.66666667  0.41666667  0.06617647  1.0
  Cr  Cr107  1  0.66666667  0.75000000  0.06617647  1.0
  Cr  Cr108  1  0.00000000  0.25000000  0.09558824  1.0
  Cr  Cr109  1  1.00000000  0.58333333  0.09558824  1.0
  Cr  Cr110  1  1.00000000  0.91666667  0.09558824  1.0
  Cr  Cr111  1  0.33333333  0.25000000  0.09558824  1.0
  Cr  Cr112  1  0.33333333  0.58333333  0.09558824  1.0
  Cr  Cr113  1  0.33333333  0.91666667  0.09558824  1.0
  Cr  Cr114  1  0.66666667  0.25000000  0.09558824  1.0
  Cr  Cr115  1  0.66666667  0.58333333  0.09558824  1.0
  Cr  Cr116  1  0.66666667  0.91666667  0.09558824  1.0
  Cr  Cr117  1  0.16666667  0.08333333  0.06617647  1.0
  Cr  Cr118  1  0.16666667  0.41666667  0.06617647  1.0
  Cr  Cr119  1  0.16666667  0.75000000  0.06617647  1.0
  Cr  Cr120  1  0.50000000  0.08333333  0.06617647  1.0
  Cr  Cr121  1  0.50000000  0.41666667  0.06617647  1.0
  Cr  Cr122  1  0.50000000  0.75000000  0.06617647  1.0
  Cr  Cr123  1  0.83333333  0.08333333  0.06617647  1.0
  Cr  Cr124  1  0.83333333  0.41666667  0.06617647  1.0
  Cr  Cr125  1  0.83333333  0.75000000  0.06617647  1.0
  Ni  Ni126  1  0.16666667  0.16666667  0.08088235  1.0
  Ni  Ni127  1  0.16666667  0.50000000  0.08088235  1.0
  Ni  Ni128  1  0.16666667  0.83333333  0.08088235  1.0
  Ni  Ni129  1  0.50000000  0.16666667  0.08088235  1.0
  Ni  Ni130  1  0.50000000  0.50000000  0.08088235  1.0
  Ni  Ni131  1  0.50000000  0.83333333  0.08088235  1.0
  Ni  Ni132  1  0.83333333  0.16666667  0.08088235  1.0
  Ni  Ni133  1  0.83333333  0.50000000  0.08088235  1.0
  Ni  Ni134  1  0.83333333  0.83333333  0.08088235  1.0
  Ni  Ni135  1  0.00000000  0.00000000  0.11029412  1.0
  Ni  Ni136  1  0.00000000  0.33333333  0.11029412  1.0
  Ni  Ni137  1  0.00000000  0.66666667  0.11029412  1.0
  Ni  Ni138  1  0.33333333  0.00000000  0.11029412  1.0
  Ni  Ni139  1  0.33333333  0.33333333  0.11029412  1.0
  Ni  Ni140  1  0.33333333  0.66666667  0.11029412  1.0
  Ni  Ni141  1  0.66666667  0.00000000  0.11029412  1.0
  Ni  Ni142  1  0.66666667  0.33333333  0.11029412  1.0
  Ni  Ni143  1  0.66666667  0.66666667  0.11029412  1.0
  Cr  Cr144  1  0.00000000  0.16666667  0.13970588  1.0
  Cr  Cr145  1  0.00000000  0.50000000  0.13970588  1.0
  Cr  Cr146  1  0.00000000  0.83333333  0.13970588  1.0
  Cr  Cr147  1  0.33333333  0.16666667  0.13970588  1.0
  Cr  Cr148  1  0.33333333  0.50000000  0.13970588  1.0
  Cr  Cr149  1  0.33333333  0.83333333  0.13970588  1.0
  Cr  Cr150  1  0.66666667  0.16666667  0.13970588  1.0
  Cr  Cr151  1  0.66666667  0.50000000  0.13970588  1.0
  Cr  Cr152  1  0.66666667  0.83333333  0.13970588  1.0
  Cr  Cr153  1  0.16666667  0.00000000  0.16911765  1.0
  Cr  Cr154  1  0.16666667  0.33333333  0.16911765  1.0
  Cr  Cr155  1  0.16666667  0.66666667  0.16911765  1.0
  Cr  Cr156  1  0.50000000  0.00000000  0.16911765  1.0
  Cr  Cr157  1  0.50000000  0.33333333  0.16911765  1.0
  Cr  Cr158  1  0.50000000  0.66666667  0.16911765  1.0
  Cr  Cr159  1  0.83333333  0.00000000  0.16911765  1.0
  Cr  Cr160  1  0.83333333  0.33333333  0.16911765  1.0
  Cr  Cr161  1  0.83333333  0.66666667  0.16911765  1.0
  Cr  Cr162  1  0.16666667  0.25000000  0.15441176  1.0
  Cr  Cr163  1  0.16666667  0.58333333  0.15441176  1.0
  Cr  Cr164  1  0.16666667  0.91666667  0.15441176  1.0
  Cr  Cr165  1  0.50000000  0.25000000  0.15441176  1.0
  Cr  Cr166  1  0.50000000  0.58333333  0.15441176  1.0
  Cr  Cr167  1  0.50000000  0.91666667  0.15441176  1.0
  Cr  Cr168  1  0.83333333  0.25000000  0.15441176  1.0
  Cr  Cr169  1  0.83333333  0.58333333  0.15441176  1.0
  Cr  Cr170  1  0.83333333  0.91666667  0.15441176  1.0
  Cr  Cr171  1  0.00000000  0.08333333  0.12500000  1.0
  Cr  Cr172  1  0.00000000  0.41666667  0.12500000  1.0
  Cr  Cr173  1  1.00000000  0.75000000  0.12500000  1.0
  Cr  Cr174  1  0.33333333  0.08333333  0.12500000  1.0
  Cr  Cr175  1  0.33333333  0.41666667  0.12500000  1.0
  Cr  Cr176  1  0.33333333  0.75000000  0.12500000  1.0
  Cr  Cr177  1  0.66666667  0.08333333  0.12500000  1.0
  Cr  Cr178  1  0.66666667  0.41666667  0.12500000  1.0
  Cr  Cr179  1  0.66666667  0.75000000  0.12500000  1.0
  Cr  Cr180  1  0.00000000  0.25000000  0.15441176  1.0
  Cr  Cr181  1  1.00000000  0.58333333  0.15441176  1.0
  Cr  Cr182  1  1.00000000  0.91666667  0.15441176  1.0
  Cr  Cr183  1  0.33333333  0.25000000  0.15441176  1.0
  Cr  Cr184  1  0.33333333  0.58333333  0.15441176  1.0
  Cr  Cr185  1  0.33333333  0.91666667  0.15441176  1.0
  Cr  Cr186  1  0.66666667  0.25000000  0.15441176  1.0
  Cr  Cr187  1  0.66666667  0.58333333  0.15441176  1.0
  Cr  Cr188  1  0.66666667  0.91666667  0.15441176  1.0
  Cr  Cr189  1  0.16666667  0.08333333  0.12500000  1.0
  Cr  Cr190  1  0.16666667  0.41666667  0.12500000  1.0
  Cr  Cr191  1  0.16666667  0.75000000  0.12500000  1.0
  Cr  Cr192  1  0.50000000  0.08333333  0.12500000  1.0
  Cr  Cr193  1  0.50000000  0.41666667  0.12500000  1.0
  Cr  Cr194  1  0.50000000  0.75000000  0.12500000  1.0
  Cr  Cr195  1  0.83333333  0.08333333  0.12500000  1.0
  Cr  Cr196  1  0.83333333  0.41666667  0.12500000  1.0
  Cr  Cr197  1  0.83333333  0.75000000  0.12500000  1.0
  Ni  Ni198  1  0.16666667  0.16666667  0.13970588  1.0
  Ni  Ni199  1  0.16666667  0.50000000  0.13970588  1.0
  Ni  Ni200  1  0.16666667  0.83333333  0.13970588  1.0
  Ni  Ni201  1  0.50000000  0.16666667  0.13970588  1.0
  Ni  Ni202  1  0.50000000  0.50000000  0.13970588  1.0
  Ni  Ni203  1  0.50000000  0.83333333  0.13970588  1.0
  Ni  Ni204  1  0.83333333  0.16666667  0.13970588  1.0
  Ni  Ni205  1  0.83333333  0.50000000  0.13970588  1.0
  Ni  Ni206  1  0.83333333  0.83333333  0.13970588  1.0
  Ni  Ni207  1  0.00000000  0.00000000  0.16911765  1.0
  Ni  Ni208  1  0.00000000  0.33333333  0.16911765  1.0
  Ni  Ni209  1  0.00000000  0.66666667  0.16911765  1.0
  Ni  Ni210  1  0.33333333  0.00000000  0.16911765  1.0
  Ni  Ni211  1  0.33333333  0.33333333  0.16911765  1.0
  Ni  Ni212  1  0.33333333  0.66666667  0.16911765  1.0
  Ni  Ni213  1  0.66666667  0.00000000  0.16911765  1.0
  Ni  Ni214  1  0.66666667  0.33333333  0.16911765  1.0
  Ni  Ni215  1  0.66666667  0.66666667  0.16911765  1.0
  Cr  Cr216  1  0.00000000  0.16666667  0.19852941  1.0
  Cr  Cr217  1  0.00000000  0.50000000  0.19852941  1.0
  Cr  Cr218  1  0.00000000  0.83333333  0.19852941  1.0
  Cr  Cr219  1  0.33333333  0.16666667  0.19852941  1.0
  Cr  Cr220  1  0.33333333  0.50000000  0.19852941  1.0
  Cr  Cr221  1  0.33333333  0.83333333  0.19852941  1.0
  Cr  Cr222  1  0.66666667  0.16666667  0.19852941  1.0
  Cr  Cr223  1  0.66666667  0.50000000  0.19852941  1.0
  Cr  Cr224  1  0.66666667  0.83333333  0.19852941  1.0
  Cr  Cr225  1  0.16666667  0.00000000  0.22794118  1.0
  Cr  Cr226  1  0.16666667  0.33333333  0.22794118  1.0
  Cr  Cr227  1  0.16666667  0.66666667  0.22794118  1.0
  Cr  Cr228  1  0.50000000  0.00000000  0.22794118  1.0
  Cr  Cr229  1  0.50000000  0.33333333  0.22794118  1.0
  Cr  Cr230  1  0.50000000  0.66666667  0.22794118  1.0
  Cr  Cr231  1  0.83333333  0.00000000  0.22794118  1.0
  Cr  Cr232  1  0.83333333  0.33333333  0.22794118  1.0
  Cr  Cr233  1  0.83333333  0.66666667  0.22794118  1.0
  Cr  Cr234  1  0.16666667  0.25000000  0.21323529  1.0
  Cr  Cr235  1  0.16666667  0.58333333  0.21323529  1.0
  Cr  Cr236  1  0.16666667  0.91666667  0.21323529  1.0
  Cr  Cr237  1  0.50000000  0.25000000  0.21323529  1.0
  Cr  Cr238  1  0.50000000  0.58333333  0.21323529  1.0
  Cr  Cr239  1  0.50000000  0.91666667  0.21323529  1.0
  Cr  Cr240  1  0.83333333  0.25000000  0.21323529  1.0
  Cr  Cr241  1  0.83333333  0.58333333  0.21323529  1.0
  Cr  Cr242  1  0.83333333  0.91666667  0.21323529  1.0
  Cr  Cr243  1  0.00000000  0.08333333  0.18382353  1.0
  Cr  Cr244  1  0.00000000  0.41666667  0.18382353  1.0
  Cr  Cr245  1  1.00000000  0.75000000  0.18382353  1.0
  Cr  Cr246  1  0.33333333  0.08333333  0.18382353  1.0
  Cr  Cr247  1  0.33333333  0.41666667  0.18382353  1.0
  Cr  Cr248  1  0.33333333  0.75000000  0.18382353  1.0
  Cr  Cr249  1  0.66666667  0.08333333  0.18382353  1.0
  Cr  Cr250  1  0.66666667  0.41666667  0.18382353  1.0
  Cr  Cr251  1  0.66666667  0.75000000  0.18382353  1.0
  Cr  Cr252  1  0.00000000  0.25000000  0.21323529  1.0
  Cr  Cr253  1  1.00000000  0.58333333  0.21323529  1.0
  Cr  Cr254  1  1.00000000  0.91666667  0.21323529  1.0
  Cr  Cr255  1  0.33333333  0.25000000  0.21323529  1.0
  Cr  Cr256  1  0.33333333  0.58333333  0.21323529  1.0
  Cr  Cr257  1  0.33333333  0.91666667  0.21323529  1.0
  Cr  Cr258  1  0.66666667  0.25000000  0.21323529  1.0
  Cr  Cr259  1  0.66666667  0.58333333  0.21323529  1.0
  Cr  Cr260  1  0.66666667  0.91666667  0.21323529  1.0
  Cr  Cr261  1  0.16666667  0.08333333  0.18382353  1.0
  Cr  Cr262  1  0.16666667  0.41666667  0.18382353  1.0
  Cr  Cr263  1  0.16666667  0.75000000  0.18382353  1.0
  Cr  Cr264  1  0.50000000  0.08333333  0.18382353  1.0
  Cr  Cr265  1  0.50000000  0.41666667  0.18382353  1.0
  Cr  Cr266  1  0.50000000  0.75000000  0.18382353  1.0
  Cr  Cr267  1  0.83333333  0.08333333  0.18382353  1.0
  Cr  Cr268  1  0.83333333  0.41666667  0.18382353  1.0
  Cr  Cr269  1  0.83333333  0.75000000  0.18382353  1.0
  Ni  Ni270  1  0.16666667  0.16666667  0.19852941  1.0
  Ni  Ni271  1  0.16666667  0.50000000  0.19852941  1.0
  Ni  Ni272  1  0.16666667  0.83333333  0.19852941  1.0
  Ni  Ni273  1  0.50000000  0.16666667  0.19852941  1.0
  Ni  Ni274  1  0.50000000  0.50000000  0.19852941  1.0
  Ni  Ni275  1  0.50000000  0.83333333  0.19852941  1.0
  Ni  Ni276  1  0.83333333  0.16666667  0.19852941  1.0
  Ni  Ni277  1  0.83333333  0.50000000  0.19852941  1.0
  Ni  Ni278  1  0.83333333  0.83333333  0.19852941  1.0
  Ni  Ni279  1  0.00000000  0.00000000  0.22794118  1.0
  Ni  Ni280  1  0.00000000  0.33333333  0.22794118  1.0
  Ni  Ni281  1  0.00000000  0.66666667  0.22794118  1.0
  Ni  Ni282  1  0.33333333  0.00000000  0.22794118  1.0
  Ni  Ni283  1  0.33333333  0.33333333  0.22794118  1.0
  Ni  Ni284  1  0.33333333  0.66666667  0.22794118  1.0
  Ni  Ni285  1  0.66666667  0.00000000  0.22794118  1.0
  Ni  Ni286  1  0.66666667  0.33333333  0.22794118  1.0
  Ni  Ni287  1  0.66666667  0.66666667  0.22794118  1.0
  Cr  Cr288  1  0.00000000  0.16666667  0.25735294  1.0
  Cr  Cr289  1  0.00000000  0.50000000  0.25735294  1.0
  Cr  Cr290  1  0.00000000  0.83333333  0.25735294  1.0
  Cr  Cr291  1  0.33333333  0.16666667  0.25735294  1.0
  Cr  Cr292  1  0.33333333  0.50000000  0.25735294  1.0
  Cr  Cr293  1  0.33333333  0.83333333  0.25735294  1.0
  Cr  Cr294  1  0.66666667  0.16666667  0.25735294  1.0
  Cr  Cr295  1  0.66666667  0.50000000  0.25735294  1.0
  Cr  Cr296  1  0.66666667  0.83333333  0.25735294  1.0
  Cr  Cr297  1  0.16666667  0.00000000  0.28676471  1.0
  Cr  Cr298  1  0.16666667  0.33333333  0.28676471  1.0
  Cr  Cr299  1  0.16666667  0.66666667  0.28676471  1.0
  Cr  Cr300  1  0.50000000  0.00000000  0.28676471  1.0
  Cr  Cr301  1  0.50000000  0.33333333  0.28676471  1.0
  Cr  Cr302  1  0.50000000  0.66666667  0.28676471  1.0
  Cr  Cr303  1  0.83333333  0.00000000  0.28676471  1.0
  Cr  Cr304  1  0.83333333  0.33333333  0.28676471  1.0
  Cr  Cr305  1  0.83333333  0.66666667  0.28676471  1.0
  Cr  Cr306  1  0.16666667  0.25000000  0.27205882  1.0
  Cr  Cr307  1  0.16666667  0.58333333  0.27205882  1.0
  Cr  Cr308  1  0.16666667  0.91666667  0.27205882  1.0
  Cr  Cr309  1  0.50000000  0.25000000  0.27205882  1.0
  Cr  Cr310  1  0.50000000  0.58333333  0.27205882  1.0
  Cr  Cr311  1  0.50000000  0.91666667  0.27205882  1.0
  Cr  Cr312  1  0.83333333  0.25000000  0.27205882  1.0
  Cr  Cr313  1  0.83333333  0.58333333  0.27205882  1.0
  Cr  Cr314  1  0.83333333  0.91666667  0.27205882  1.0
  Cr  Cr315  1  0.00000000  0.08333333  0.24264706  1.0
  Cr  Cr316  1  0.00000000  0.41666667  0.24264706  1.0
  Cr  Cr317  1  1.00000000  0.75000000  0.24264706  1.0
  Cr  Cr318  1  0.33333333  0.08333333  0.24264706  1.0
  Cr  Cr319  1  0.33333333  0.41666667  0.24264706  1.0
  Cr  Cr320  1  0.33333333  0.75000000  0.24264706  1.0
  Cr  Cr321  1  0.66666667  0.08333333  0.24264706  1.0
  Cr  Cr322  1  0.66666667  0.41666667  0.24264706  1.0
  Cr  Cr323  1  0.66666667  0.75000000  0.24264706  1.0
  Cr  Cr324  1  0.00000000  0.25000000  0.27205882  1.0
  Cr  Cr325  1  1.00000000  0.58333333  0.27205882  1.0
  Cr  Cr326  1  1.00000000  0.91666667  0.27205882  1.0
  Cr  Cr327  1  0.33333333  0.25000000  0.27205882  1.0
  Cr  Cr328  1  0.33333333  0.58333333  0.27205882  1.0
  Cr  Cr329  1  0.33333333  0.91666667  0.27205882  1.0
  Cr  Cr330  1  0.66666667  0.25000000  0.27205882  1.0
  Cr  Cr331  1  0.66666667  0.58333333  0.27205882  1.0
  Cr  Cr332  1  0.66666667  0.91666667  0.27205882  1.0
  Cr  Cr333  1  0.16666667  0.08333333  0.24264706  1.0
  Cr  Cr334  1  0.16666667  0.41666667  0.24264706  1.0
  Cr  Cr335  1  0.16666667  0.75000000  0.24264706  1.0
  Cr  Cr336  1  0.50000000  0.08333333  0.24264706  1.0
  Cr  Cr337  1  0.50000000  0.41666667  0.24264706  1.0
  Cr  Cr338  1  0.50000000  0.75000000  0.24264706  1.0
  Cr  Cr339  1  0.83333333  0.08333333  0.24264706  1.0
  Cr  Cr340  1  0.83333333  0.41666667  0.24264706  1.0
  Cr  Cr341  1  0.83333333  0.75000000  0.24264706  1.0
  Ni  Ni342  1  0.16666667  0.16666667  0.25735294  1.0
  Ni  Ni343  1  0.16666667  0.50000000  0.25735294  1.0
  Ni  Ni344  1  0.16666667  0.83333333  0.25735294  1.0
  Ni  Ni345  1  0.50000000  0.16666667  0.25735294  1.0
  Ni  Ni346  1  0.50000000  0.50000000  0.25735294  1.0
  Ni  Ni347  1  0.50000000  0.83333333  0.25735294  1.0
  Ni  Ni348  1  0.83333333  0.16666667  0.25735294  1.0
  Ni  Ni349  1  0.83333333  0.50000000  0.25735294  1.0
  Ni  Ni350  1  0.83333333  0.83333333  0.25735294  1.0
  Ni  Ni351  1  0.00000000  0.00000000  0.28676471  1.0
  Ni  Ni352  1  0.00000000  0.33333333  0.28676471  1.0
  Ni  Ni353  1  0.00000000  0.66666667  0.28676471  1.0
  Ni  Ni354  1  0.33333333  0.00000000  0.28676471  1.0
  Ni  Ni355  1  0.33333333  0.33333333  0.28676471  1.0
  Ni  Ni356  1  0.33333333  0.66666667  0.28676471  1.0
  Ni  Ni357  1  0.66666667  0.00000000  0.28676471  1.0
  Ni  Ni358  1  0.66666667  0.33333333  0.28676471  1.0
  Ni  Ni359  1  0.66666667  0.66666667  0.28676471  1.0
  Cr  Cr360  1  0.00000000  0.16666667  0.31617647  1.0
  Cr  Cr361  1  0.00000000  0.50000000  0.31617647  1.0
  Cr  Cr362  1  0.00000000  0.83333333  0.31617647  1.0
  Cr  Cr363  1  0.33333333  0.16666667  0.31617647  1.0
  Cr  Cr364  1  0.33333333  0.50000000  0.31617647  1.0
  Cr  Cr365  1  0.33333333  0.83333333  0.31617647  1.0
  Cr  Cr366  1  0.66666667  0.16666667  0.31617647  1.0
  Cr  Cr367  1  0.66666667  0.50000000  0.31617647  1.0
  Cr  Cr368  1  0.66666667  0.83333333  0.31617647  1.0
  Cr  Cr369  1  0.16666667  0.00000000  0.34558824  1.0
  Cr  Cr370  1  0.16666667  0.33333333  0.34558824  1.0
  Cr  Cr371  1  0.16666667  0.66666667  0.34558824  1.0
  Cr  Cr372  1  0.50000000  0.00000000  0.34558824  1.0
  Cr  Cr373  1  0.50000000  0.33333333  0.34558824  1.0
  Cr  Cr374  1  0.50000000  0.66666667  0.34558824  1.0
  Cr  Cr375  1  0.83333333  0.00000000  0.34558824  1.0
  Cr  Cr376  1  0.83333333  0.33333333  0.34558824  1.0
  Cr  Cr377  1  0.83333333  0.66666667  0.34558824  1.0
  Cr  Cr378  1  0.16666667  0.25000000  0.33088235  1.0
  Cr  Cr379  1  0.16666667  0.58333333  0.33088235  1.0
  Cr  Cr380  1  0.16666667  0.91666667  0.33088235  1.0
  Cr  Cr381  1  0.50000000  0.25000000  0.33088235  1.0
  Cr  Cr382  1  0.50000000  0.58333333  0.33088235  1.0
  Cr  Cr383  1  0.50000000  0.91666667  0.33088235  1.0
  Cr  Cr384  1  0.83333333  0.25000000  0.33088235  1.0
  Cr  Cr385  1  0.83333333  0.58333333  0.33088235  1.0
  Cr  Cr386  1  0.83333333  0.91666667  0.33088235  1.0
  Cr  Cr387  1  0.00000000  0.08333333  0.30147059  1.0
  Cr  Cr388  1  0.00000000  0.41666667  0.30147059  1.0
  Cr  Cr389  1  1.00000000  0.75000000  0.30147059  1.0
  Cr  Cr390  1  0.33333333  0.08333333  0.30147059  1.0
  Cr  Cr391  1  0.33333333  0.41666667  0.30147059  1.0
  Cr  Cr392  1  0.33333333  0.75000000  0.30147059  1.0
  Cr  Cr393  1  0.66666667  0.08333333  0.30147059  1.0
  Cr  Cr394  1  0.66666667  0.41666667  0.30147059  1.0
  Cr  Cr395  1  0.66666667  0.75000000  0.30147059  1.0
  Cr  Cr396  1  0.00000000  0.25000000  0.33088235  1.0
  Cr  Cr397  1  1.00000000  0.58333333  0.33088235  1.0
  Cr  Cr398  1  1.00000000  0.91666667  0.33088235  1.0
  Cr  Cr399  1  0.33333333  0.25000000  0.33088235  1.0
  Cr  Cr400  1  0.33333333  0.58333333  0.33088235  1.0
  Cr  Cr401  1  0.33333333  0.91666667  0.33088235  1.0
  Cr  Cr402  1  0.66666667  0.25000000  0.33088235  1.0
  Cr  Cr403  1  0.66666667  0.58333333  0.33088235  1.0
  Cr  Cr404  1  0.66666667  0.91666667  0.33088235  1.0
  Cr  Cr405  1  0.16666667  0.08333333  0.30147059  1.0
  Cr  Cr406  1  0.16666667  0.41666667  0.30147059  1.0
  Cr  Cr407  1  0.16666667  0.75000000  0.30147059  1.0
  Cr  Cr408  1  0.50000000  0.08333333  0.30147059  1.0
  Cr  Cr409  1  0.50000000  0.41666667  0.30147059  1.0
  Cr  Cr410  1  0.50000000  0.75000000  0.30147059  1.0
  Cr  Cr411  1  0.83333333  0.08333333  0.30147059  1.0
  Cr  Cr412  1  0.83333333  0.41666667  0.30147059  1.0
  Cr  Cr413  1  0.83333333  0.75000000  0.30147059  1.0
  Ni  Ni414  1  0.16666667  0.16666667  0.31617647  1.0
  Ni  Ni415  1  0.16666667  0.50000000  0.31617647  1.0
  Ni  Ni416  1  0.16666667  0.83333333  0.31617647  1.0
  Ni  Ni417  1  0.50000000  0.16666667  0.31617647  1.0
  Ni  Ni418  1  0.50000000  0.50000000  0.31617647  1.0
  Ni  Ni419  1  0.50000000  0.83333333  0.31617647  1.0
  Ni  Ni420  1  0.83333333  0.16666667  0.31617647  1.0
  Ni  Ni421  1  0.83333333  0.50000000  0.31617647  1.0
  Ni  Ni422  1  0.83333333  0.83333333  0.31617647  1.0
  Ni  Ni423  1  0.00000000  0.00000000  0.34558824  1.0
  Ni  Ni424  1  0.00000000  0.33333333  0.34558824  1.0
  Ni  Ni425  1  0.00000000  0.66666667  0.34558824  1.0
  Ni  Ni426  1  0.33333333  0.00000000  0.34558824  1.0
  Ni  Ni427  1  0.33333333  0.33333333  0.34558824  1.0
  Ni  Ni428  1  0.33333333  0.66666667  0.34558824  1.0
  Ni  Ni429  1  0.66666667  0.00000000  0.34558824  1.0
  Ni  Ni430  1  0.66666667  0.33333333  0.34558824  1.0
  Ni  Ni431  1  0.66666667  0.66666667  0.34558824  1.0
  Cr  Cr432  1  0.00000000  0.16666667  0.37500000  1.0
  Cr  Cr433  1  0.00000000  0.50000000  0.37500000  1.0
  Cr  Cr434  1  0.00000000  0.83333333  0.37500000  1.0
  Cr  Cr435  1  0.33333333  0.16666667  0.37500000  1.0
  Cr  Cr436  1  0.33333333  0.50000000  0.37500000  1.0
  Cr  Cr437  1  0.33333333  0.83333333  0.37500000  1.0
  Cr  Cr438  1  0.66666667  0.16666667  0.37500000  1.0
  Cr  Cr439  1  0.66666667  0.50000000  0.37500000  1.0
  Cr  Cr440  1  0.66666667  0.83333333  0.37500000  1.0
  Cr  Cr441  1  0.16666667  0.00000000  0.40441176  1.0
  Cr  Cr442  1  0.16666667  0.33333333  0.40441176  1.0
  Cr  Cr443  1  0.16666667  0.66666667  0.40441176  1.0
  Cr  Cr444  1  0.50000000  0.00000000  0.40441176  1.0
  Cr  Cr445  1  0.50000000  0.33333333  0.40441176  1.0
  Cr  Cr446  1  0.50000000  0.66666667  0.40441176  1.0
  Cr  Cr447  1  0.83333333  0.00000000  0.40441176  1.0
  Cr  Cr448  1  0.83333333  0.33333333  0.40441176  1.0
  Cr  Cr449  1  0.83333333  0.66666667  0.40441176  1.0
  Cr  Cr450  1  0.16666667  0.25000000  0.38970588  1.0
  Cr  Cr451  1  0.16666667  0.58333333  0.38970588  1.0
  Cr  Cr452  1  0.16666667  0.91666667  0.38970588  1.0
  Cr  Cr453  1  0.50000000  0.25000000  0.38970588  1.0
  Cr  Cr454  1  0.50000000  0.58333333  0.38970588  1.0
  Cr  Cr455  1  0.50000000  0.91666667  0.38970588  1.0
  Cr  Cr456  1  0.83333333  0.25000000  0.38970588  1.0
  Cr  Cr457  1  0.83333333  0.58333333  0.38970588  1.0
  Cr  Cr458  1  0.83333333  0.91666667  0.38970588  1.0
  Cr  Cr459  1  0.00000000  0.08333333  0.36029412  1.0
  Cr  Cr460  1  0.00000000  0.41666667  0.36029412  1.0
  Cr  Cr461  1  1.00000000  0.75000000  0.36029412  1.0
  Cr  Cr462  1  0.33333333  0.08333333  0.36029412  1.0
  Cr  Cr463  1  0.33333333  0.41666667  0.36029412  1.0
  Cr  Cr464  1  0.33333333  0.75000000  0.36029412  1.0
  Cr  Cr465  1  0.66666667  0.08333333  0.36029412  1.0
  Cr  Cr466  1  0.66666667  0.41666667  0.36029412  1.0
  Cr  Cr467  1  0.66666667  0.75000000  0.36029412  1.0
  Cr  Cr468  1  0.00000000  0.25000000  0.38970588  1.0
  Cr  Cr469  1  1.00000000  0.58333333  0.38970588  1.0
  Cr  Cr470  1  1.00000000  0.91666667  0.38970588  1.0
  Cr  Cr471  1  0.33333333  0.25000000  0.38970588  1.0
  Cr  Cr472  1  0.33333333  0.58333333  0.38970588  1.0
  Cr  Cr473  1  0.33333333  0.91666667  0.38970588  1.0
  Cr  Cr474  1  0.66666667  0.25000000  0.38970588  1.0
  Cr  Cr475  1  0.66666667  0.58333333  0.38970588  1.0
  Cr  Cr476  1  0.66666667  0.91666667  0.38970588  1.0
  Cr  Cr477  1  0.16666667  0.08333333  0.36029412  1.0
  Cr  Cr478  1  0.16666667  0.41666667  0.36029412  1.0
  Cr  Cr479  1  0.16666667  0.75000000  0.36029412  1.0
  Cr  Cr480  1  0.50000000  0.08333333  0.36029412  1.0
  Cr  Cr481  1  0.50000000  0.41666667  0.36029412  1.0
  Cr  Cr482  1  0.50000000  0.75000000  0.36029412  1.0
  Cr  Cr483  1  0.83333333  0.08333333  0.36029412  1.0
  Cr  Cr484  1  0.83333333  0.41666667  0.36029412  1.0
  Cr  Cr485  1  0.83333333  0.75000000  0.36029412  1.0
  Ni  Ni486  1  0.16666667  0.16666667  0.37500000  1.0
  Ni  Ni487  1  0.16666667  0.50000000  0.37500000  1.0
  Ni  Ni488  1  0.16666667  0.83333333  0.37500000  1.0
  Ni  Ni489  1  0.50000000  0.16666667  0.37500000  1.0
  Ni  Ni490  1  0.50000000  0.50000000  0.37500000  1.0
  Ni  Ni491  1  0.50000000  0.83333333  0.37500000  1.0
  Ni  Ni492  1  0.83333333  0.16666667  0.37500000  1.0
  Ni  Ni493  1  0.83333333  0.50000000  0.37500000  1.0
  Ni  Ni494  1  0.83333333  0.83333333  0.37500000  1.0
  Ni  Ni495  1  0.00000000  0.00000000  0.40441176  1.0
  Ni  Ni496  1  0.00000000  0.33333333  0.40441176  1.0
  Ni  Ni497  1  0.00000000  0.66666667  0.40441176  1.0
  Ni  Ni498  1  0.33333333  0.00000000  0.40441176  1.0
  Ni  Ni499  1  0.33333333  0.33333333  0.40441176  1.0
  Ni  Ni500  1  0.33333333  0.66666667  0.40441176  1.0
  Ni  Ni501  1  0.66666667  0.00000000  0.40441176  1.0
  Ni  Ni502  1  0.66666667  0.33333333  0.40441176  1.0
  Ni  Ni503  1  0.66666667  0.66666667  0.40441176  1.0
