# generated using pymatgen
data_Cr4Ni
_symmetry_space_group_name_H-M   'P 1'
_cell_length_a   30.45671736
_cell_length_b   30.45671733
_cell_length_c   34.11440060
_cell_angle_alpha   85.13514547
_cell_angle_beta   85.13514546
_cell_angle_gamma   163.59509677
_symmetry_Int_Tables_number   1
_chemical_formula_structural   Cr4Ni
_chemical_formula_sum   'Cr216 Ni54'
_cell_volume   7186.99012107
_cell_formula_units_Z   54
loop_
 _symmetry_equiv_pos_site_id
 _symmetry_equiv_pos_as_xyz
  1  'x, y, z'
loop_
 _atom_site_type_symbol
 _atom_site_label
 _atom_site_symmetry_multiplicity
 _atom_site_fract_x
 _atom_site_fract_y
 _atom_site_fract_z
 _atom_site_occupancy
  Cr  Cr0  1  0.13369367  0.19963967  0.03571429  1.0
  Cr  Cr1  1  0.13369367  0.53297300  0.03571429  1.0
  Cr  Cr2  1  0.13369367  0.86630633  0.03571429  1.0
  Cr  Cr3  1  0.46702700  0.19963967  0.03571429  1.0
  Cr  Cr4  1  0.46702700  0.53297300  0.03571429  1.0
  Cr  Cr5  1  0.46702700  0.86630633  0.03571429  1.0
  Cr  Cr6  1  0.80036033  0.19963967  0.03571429  1.0
  Cr  Cr7  1  0.80036033  0.53297300  0.03571429  1.0
  Cr  Cr8  1  0.80036033  0.86630633  0.03571429  1.0
  Cr  Cr9  1  0.26691533  0.06641800  0.03571429  1.0
  Cr  Cr10  1  0.26691533  0.39975133  0.03571429  1.0
  Cr  Cr11  1  0.26691533  0.73308467  0.03571429  1.0
  Cr  Cr12  1  0.60024867  0.06641800  0.03571429  1.0
  Cr  Cr13  1  0.60024867  0.39975133  0.03571429  1.0
  Cr  Cr14  1  0.60024867  0.73308467  0.03571429  1.0
  Cr  Cr15  1  0.93358200  0.06641800  0.03571429  1.0
  Cr  Cr16  1  0.93358200  0.39975133  0.03571429  1.0
  Cr  Cr17  1  0.93358200  0.73308467  0.03571429  1.0
  Cr  Cr18  1  0.06641800  0.26691533  0.03571429  1.0
  Cr  Cr19  1  0.06641800  0.60024867  0.03571429  1.0
  Cr  Cr20  1  0.06641800  0.93358200  0.03571429  1.0
  Cr  Cr21  1  0.39975133  0.26691533  0.03571429  1.0
  Cr  Cr22  1  0.39975133  0.60024867  0.03571429  1.0
  Cr  Cr23  1  0.39975133  0.93358200  0.03571429  1.0
  Cr  Cr24  1  0.73308467  0.26691533  0.03571429  1.0
  Cr  Cr25  1  0.73308467  0.60024867  0.03571429  1.0
  Cr  Cr26  1  0.73308467  0.93358200  0.03571429  1.0
  Cr  Cr27  1  0.19963967  0.13369367  0.03571429  1.0
  Cr  Cr28  1  0.19963967  0.46702700  0.03571429  1.0
  Cr  Cr29  1  0.19963967  0.80036033  0.03571429  1.0
  Cr  Cr30  1  0.53297300  0.13369367  0.03571429  1.0
  Cr  Cr31  1  0.53297300  0.46702700  0.03571429  1.0
  Cr  Cr32  1  0.53297300  0.80036033  0.03571429  1.0
  Cr  Cr33  1  0.86630633  0.13369367  0.03571429  1.0
  Cr  Cr34  1  0.86630633  0.46702700  0.03571429  1.0
  Cr  Cr35  1  0.86630633  0.80036033  0.03571429  1.0
  Ni  Ni36  1  0.00000000  0.00000000  0.03571429  1.0
  Ni  Ni37  1  0.00000000  0.33333333  0.03571429  1.0
  Ni  Ni38  1  0.00000000  0.66666667  0.03571429  1.0
  Ni  Ni39  1  0.33333333  0.00000000  0.03571429  1.0
  Ni  Ni40  1  0.33333333  0.33333333  0.03571429  1.0
  Ni  Ni41  1  0.33333333  0.66666667  0.03571429  1.0
  Ni  Ni42  1  0.66666667  0.00000000  0.03571429  1.0
  Ni  Ni43  1  0.66666667  0.33333333  0.03571429  1.0
  Ni  Ni44  1  0.66666667  0.66666667  0.03571429  1.0
  Cr  Cr45  1  0.13369367  0.19963967  0.10714286  1.0
  Cr  Cr46  1  0.13369367  0.53297300  0.10714286  1.0
  Cr  Cr47  1  0.13369367  0.86630633  0.10714286  1.0
  Cr  Cr48  1  0.46702700  0.19963967  0.10714286  1.0
  Cr  Cr49  1  0.46702700  0.53297300  0.10714286  1.0
  Cr  Cr50  1  0.46702700  0.86630633  0.10714286  1.0
  Cr  Cr51  1  0.80036033  0.19963967  0.10714286  1.0
  Cr  Cr52  1  0.80036033  0.53297300  0.10714286  1.0
  Cr  Cr53  1  0.80036033  0.86630633  0.10714286  1.0
  Cr  Cr54  1  0.26691533  0.06641800  0.10714286  1.0
  Cr  Cr55  1  0.26691533  0.39975133  0.10714286  1.0
  Cr  Cr56  1  0.26691533  0.73308467  0.10714286  1.0
  Cr  Cr57  1  0.60024867  0.06641800  0.10714286  1.0
  Cr  Cr58  1  0.60024867  0.39975133  0.10714286  1.0
  Cr  Cr59  1  0.60024867  0.73308467  0.10714286  1.0
  Cr  Cr60  1  0.93358200  0.06641800  0.10714286  1.0
  Cr  Cr61  1  0.93358200  0.39975133  0.10714286  1.0
  Cr  Cr62  1  0.93358200  0.73308467  0.10714286  1.0
  Cr  Cr63  1  0.06641800  0.26691533  0.10714286  1.0
  Cr  Cr64  1  0.06641800  0.60024867  0.10714286  1.0
  Cr  Cr65  1  0.06641800  0.93358200  0.10714286  1.0
  Cr  Cr66  1  0.39975133  0.26691533  0.10714286  1.0
  Cr  Cr67  1  0.39975133  0.60024867  0.10714286  1.0
  Cr  Cr68  1  0.39975133  0.93358200  0.10714286  1.0
  Cr  Cr69  1  0.73308467  0.26691533  0.10714286  1.0
  Cr  Cr70  1  0.73308467  0.60024867  0.10714286  1.0
  Cr  Cr71  1  0.73308467  0.93358200  0.10714286  1.0
  Cr  Cr72  1  0.19963967  0.13369367  0.10714286  1.0
  Cr  Cr73  1  0.19963967  0.46702700  0.10714286  1.0
  Cr  Cr74  1  0.19963967  0.80036033  0.10714286  1.0
  Cr  Cr75  1  0.53297300  0.13369367  0.10714286  1.0
  Cr  Cr76  1  0.53297300  0.46702700  0.10714286  1.0
  Cr  Cr77  1  0.53297300  0.80036033  0.10714286  1.0
  Cr  Cr78  1  0.86630633  0.13369367  0.10714286  1.0
  Cr  Cr79  1  0.86630633  0.46702700  0.10714286  1.0
  Cr  Cr80  1  0.86630633  0.80036033  0.10714286  1.0
  Ni  Ni81  1  0.00000000  0.00000000  0.10714286  1.0
  Ni  Ni82  1  0.00000000  0.33333333  0.10714286  1.0
  Ni  Ni83  1  0.00000000  0.66666667  0.10714286  1.0
  Ni  Ni84  1  0.33333333  0.00000000  0.10714286  1.0
  Ni  Ni85  1  0.33333333  0.33333333  0.10714286  1.0
  Ni  Ni86  1  0.33333333  0.66666667  0.10714286  1.0
  Ni  Ni87  1  0.66666667  0.00000000  0.10714286  1.0
  Ni  Ni88  1  0.66666667  0.33333333  0.10714286  1.0
  Ni  Ni89  1  0.66666667  0.66666667  0.10714286  1.0
  Cr  Cr90  1  0.13369367  0.19963967  0.17857143  1.0
  Cr  Cr91  1  0.13369367  0.53297300  0.17857143  1.0
  Cr  Cr92  1  0.13369367  0.86630633  0.17857143  1.0
  Cr  Cr93  1  0.46702700  0.19963967  0.17857143  1.0
  Cr  Cr94  1  0.46702700  0.53297300  0.17857143  1.0
  Cr  Cr95  1  0.46702700  0.86630633  0.17857143  1.0
  Cr  Cr96  1  0.80036033  0.19963967  0.17857143  1.0
  Cr  Cr97  1  0.80036033  0.53297300  0.17857143  1.0
  Cr  Cr98  1  0.80036033  0.86630633  0.17857143  1.0
  Cr  Cr99  1  0.26691533  0.06641800  0.17857143  1.0
  Cr  Cr100  1  0.26691533  0.39975133  0.17857143  1.0
  Cr  Cr101  1  0.26691533  0.73308467  0.17857143  1.0
  Cr  Cr102  1  0.60024867  0.06641800  0.17857143  1.0
  Cr  Cr103  1  0.60024867  0.39975133  0.17857143  1.0
  Cr  Cr104  1  0.60024867  0.73308467  0.17857143  1.0
  Cr  Cr105  1  0.93358200  0.06641800  0.17857143  1.0
  Cr  Cr106  1  0.93358200  0.39975133  0.17857143  1.0
  Cr  Cr107  1  0.93358200  0.73308467  0.17857143  1.0
  Cr  Cr108  1  0.06641800  0.26691533  0.17857143  1.0
  Cr  Cr109  1  0.06641800  0.60024867  0.17857143  1.0
  Cr  Cr110  1  0.06641800  0.93358200  0.17857143  1.0
  Cr  Cr111  1  0.39975133  0.26691533  0.17857143  1.0
  Cr  Cr112  1  0.39975133  0.60024867  0.17857143  1.0
  Cr  Cr113  1  0.39975133  0.93358200  0.17857143  1.0
  Cr  Cr114  1  0.73308467  0.26691533  0.17857143  1.0
  Cr  Cr115  1  0.73308467  0.60024867  0.17857143  1.0
  Cr  Cr116  1  0.73308467  0.93358200  0.17857143  1.0
  Cr  Cr117  1  0.19963967  0.13369367  0.17857143  1.0
  Cr  Cr118  1  0.19963967  0.46702700  0.17857143  1.0
  Cr  Cr119  1  0.19963967  0.80036033  0.17857143  1.0
  Cr  Cr120  1  0.53297300  0.13369367  0.17857143  1.0
  Cr  Cr121  1  0.53297300  0.46702700  0.17857143  1.0
  Cr  Cr122  1  0.53297300  0.80036033  0.17857143  1.0
  Cr  Cr123  1  0.86630633  0.13369367  0.17857143  1.0
  Cr  Cr124  1  0.86630633  0.46702700  0.17857143  1.0
  Cr  Cr125  1  0.86630633  0.80036033  0.17857143  1.0
  Ni  Ni126  1  0.00000000  0.00000000  0.17857143  1.0
  Ni  Ni127  1  0.00000000  0.33333333  0.17857143  1.0
  Ni  Ni128  1  0.00000000  0.66666667  0.17857143  1.0
  Ni  Ni129  1  0.33333333  0.00000000  0.17857143  1.0
  Ni  Ni130  1  0.33333333  0.33333333  0.17857143  1.0
  Ni  Ni131  1  0.33333333  0.66666667  0.17857143  1.0
  Ni  Ni132  1  0.66666667  0.00000000  0.17857143  1.0
  Ni  Ni133  1  0.66666667  0.33333333  0.17857143  1.0
  Ni  Ni134  1  0.66666667  0.66666667  0.17857143  1.0
  Cr  Cr135  1  0.13369367  0.19963967  0.25000000  1.0
  Cr  Cr136  1  0.13369367  0.53297300  0.25000000  1.0
  Cr  Cr137  1  0.13369367  0.86630633  0.25000000  1.0
  Cr  Cr138  1  0.46702700  0.19963967  0.25000000  1.0
  Cr  Cr139  1  0.46702700  0.53297300  0.25000000  1.0
  Cr  Cr140  1  0.46702700  0.86630633  0.25000000  1.0
  Cr  Cr141  1  0.80036033  0.19963967  0.25000000  1.0
  Cr  Cr142  1  0.80036033  0.53297300  0.25000000  1.0
  Cr  Cr143  1  0.80036033  0.86630633  0.25000000  1.0
  Cr  Cr144  1  0.26691533  0.06641800  0.25000000  1.0
  Cr  Cr145  1  0.26691533  0.39975133  0.25000000  1.0
  Cr  Cr146  1  0.26691533  0.73308467  0.25000000  1.0
  Cr  Cr147  1  0.60024867  0.06641800  0.25000000  1.0
  Cr  Cr148  1  0.60024867  0.39975133  0.25000000  1.0
  Cr  Cr149  1  0.60024867  0.73308467  0.25000000  1.0
  Cr  Cr150  1  0.93358200  0.06641800  0.25000000  1.0
  Cr  Cr151  1  0.93358200  0.39975133  0.25000000  1.0
  Cr  Cr152  1  0.93358200  0.73308467  0.25000000  1.0
  Cr  Cr153  1  0.06641800  0.26691533  0.25000000  1.0
  Cr  Cr154  1  0.06641800  0.60024867  0.25000000  1.0
  Cr  Cr155  1  0.06641800  0.93358200  0.25000000  1.0
  Cr  Cr156  1  0.39975133  0.26691533  0.25000000  1.0
  Cr  Cr157  1  0.39975133  0.60024867  0.25000000  1.0
  Cr  Cr158  1  0.39975133  0.93358200  0.25000000  1.0
  Cr  Cr159  1  0.73308467  0.26691533  0.25000000  1.0
  Cr  Cr160  1  0.73308467  0.60024867  0.25000000  1.0
  Cr  Cr161  1  0.73308467  0.93358200  0.25000000  1.0
  Cr  Cr162  1  0.19963967  0.13369367  0.25000000  1.0
  Cr  Cr163  1  0.19963967  0.46702700  0.25000000  1.0
  Cr  Cr164  1  0.19963967  0.80036033  0.25000000  1.0
  Cr  Cr165  1  0.53297300  0.13369367  0.25000000  1.0
  Cr  Cr166  1  0.53297300  0.46702700  0.25000000  1.0
  Cr  Cr167  1  0.53297300  0.80036033  0.25000000  1.0
  Cr  Cr168  1  0.86630633  0.13369367  0.25000000  1.0
  Cr  Cr169  1  0.86630633  0.46702700  0.25000000  1.0
  Cr  Cr170  1  0.86630633  0.80036033  0.25000000  1.0
  Ni  Ni171  1  0.00000000  0.00000000  0.25000000  1.0
  Ni  Ni172  1  0.00000000  0.33333333  0.25000000  1.0
  Ni  Ni173  1  0.00000000  0.66666667  0.25000000  1.0
  Ni  Ni174  1  0.33333333  0.00000000  0.25000000  1.0
  Ni  Ni175  1  0.33333333  0.33333333  0.25000000  1.0
  Ni  Ni176  1  0.33333333  0.66666667  0.25000000  1.0
  Ni  Ni177  1  0.66666667  0.00000000  0.25000000  1.0
  Ni  Ni178  1  0.66666667  0.33333333  0.25000000  1.0
  Ni  Ni179  1  0.66666667  0.66666667  0.25000000  1.0
  Cr  Cr180  1  0.13369367  0.19963967  0.32142857  1.0
  Cr  Cr181  1  0.13369367  0.53297300  0.32142857  1.0
  Cr  Cr182  1  0.13369367  0.86630633  0.32142857  1.0
  Cr  Cr183  1  0.46702700  0.19963967  0.32142857  1.0
  Cr  Cr184  1  0.46702700  0.53297300  0.32142857  1.0
  Cr  Cr185  1  0.46702700  0.86630633  0.32142857  1.0
  Cr  Cr186  1  0.80036033  0.19963967  0.32142857  1.0
  Cr  Cr187  1  0.80036033  0.53297300  0.32142857  1.0
  Cr  Cr188  1  0.80036033  0.86630633  0.32142857  1.0
  Cr  Cr189  1  0.26691533  0.06641800  0.32142857  1.0
  Cr  Cr190  1  0.26691533  0.39975133  0.32142857  1.0
  Cr  Cr191  1  0.26691533  0.73308467  0.32142857  1.0
  Cr  Cr192  1  0.60024867  0.06641800  0.32142857  1.0
  Cr  Cr193  1  0.60024867  0.39975133  0.32142857  1.0
  Cr  Cr194  1  0.60024867  0.73308467  0.32142857  1.0
  Cr  Cr195  1  0.93358200  0.06641800  0.32142857  1.0
  Cr  Cr196  1  0.93358200  0.39975133  0.32142857  1.0
  Cr  Cr197  1  0.93358200  0.73308467  0.32142857  1.0
  Cr  Cr198  1  0.06641800  0.26691533  0.32142857  1.0
  Cr  Cr199  1  0.06641800  0.60024867  0.32142857  1.0
  Cr  Cr200  1  0.06641800  0.93358200  0.32142857  1.0
  Cr  Cr201  1  0.39975133  0.26691533  0.32142857  1.0
  Cr  Cr202  1  0.39975133  0.60024867  0.32142857  1.0
  Cr  Cr203  1  0.39975133  0.93358200  0.32142857  1.0
  Cr  Cr204  1  0.73308467  0.26691533  0.32142857  1.0
  Cr  Cr205  1  0.73308467  0.60024867  0.32142857  1.0
  Cr  Cr206  1  0.73308467  0.93358200  0.32142857  1.0
  Cr  Cr207  1  0.19963967  0.13369367  0.32142857  1.0
  Cr  Cr208  1  0.19963967  0.46702700  0.32142857  1.0
  Cr  Cr209  1  0.19963967  0.80036033  0.32142857  1.0
  Cr  Cr210  1  0.53297300  0.13369367  0.32142857  1.0
  Cr  Cr211  1  0.53297300  0.46702700  0.32142857  1.0
  Cr  Cr212  1  0.53297300  0.80036033  0.32142857  1.0
  Cr  Cr213  1  0.86630633  0.13369367  0.32142857  1.0
  Cr  Cr214  1  0.86630633  0.46702700  0.32142857  1.0
  Cr  Cr215  1  0.86630633  0.80036033  0.32142857  1.0
  Ni  Ni216  1  0.00000000  0.00000000  0.32142857  1.0
  Ni  Ni217  1  0.00000000  0.33333333  0.32142857  1.0
  Ni  Ni218  1  0.00000000  0.66666667  0.32142857  1.0
  Ni  Ni219  1  0.33333333  0.00000000  0.32142857  1.0
  Ni  Ni220  1  0.33333333  0.33333333  0.32142857  1.0
  Ni  Ni221  1  0.33333333  0.66666667  0.32142857  1.0
  Ni  Ni222  1  0.66666667  0.00000000  0.32142857  1.0
  Ni  Ni223  1  0.66666667  0.33333333  0.32142857  1.0
  Ni  Ni224  1  0.66666667  0.66666667  0.32142857  1.0
  Cr  Cr225  1  0.13369367  0.19963967  0.39285714  1.0
  Cr  Cr226  1  0.13369367  0.53297300  0.39285714  1.0
  Cr  Cr227  1  0.13369367  0.86630633  0.39285714  1.0
  Cr  Cr228  1  0.46702700  0.19963967  0.39285714  1.0
  Cr  Cr229  1  0.46702700  0.53297300  0.39285714  1.0
  Cr  Cr230  1  0.46702700  0.86630633  0.39285714  1.0
  Cr  Cr231  1  0.80036033  0.19963967  0.39285714  1.0
  Cr  Cr232  1  0.80036033  0.53297300  0.39285714  1.0
  Cr  Cr233  1  0.80036033  0.86630633  0.39285714  1.0
  Cr  Cr234  1  0.26691533  0.06641800  0.39285714  1.0
  Cr  Cr235  1  0.26691533  0.39975133  0.39285714  1.0
  Cr  Cr236  1  0.26691533  0.73308467  0.39285714  1.0
  Cr  Cr237  1  0.60024867  0.06641800  0.39285714  1.0
  Cr  Cr238  1  0.60024867  0.39975133  0.39285714  1.0
  Cr  Cr239  1  0.60024867  0.73308467  0.39285714  1.0
  Cr  Cr240  1  0.93358200  0.06641800  0.39285714  1.0
  Cr  Cr241  1  0.93358200  0.39975133  0.39285714  1.0
  Cr  Cr242  1  0.93358200  0.73308467  0.39285714  1.0
  Cr  Cr243  1  0.06641800  0.26691533  0.39285714  1.0
  Cr  Cr244  1  0.06641800  0.60024867  0.39285714  1.0
  Cr  Cr245  1  0.06641800  0.93358200  0.39285714  1.0
  Cr  Cr246  1  0.39975133  0.26691533  0.39285714  1.0
  Cr  Cr247  1  0.39975133  0.60024867  0.39285714  1.0
  Cr  Cr248  1  0.39975133  0.93358200  0.39285714  1.0
  Cr  Cr249  1  0.73308467  0.26691533  0.39285714  1.0
  Cr  Cr250  1  0.73308467  0.60024867  0.39285714  1.0
  Cr  Cr251  1  0.73308467  0.93358200  0.39285714  1.0
  Cr  Cr252  1  0.19963967  0.13369367  0.39285714  1.0
  Cr  Cr253  1  0.19963967  0.46702700  0.39285714  1.0
  Cr  Cr254  1  0.19963967  0.80036033  0.39285714  1.0
  Cr  Cr255  1  0.53297300  0.13369367  0.39285714  1.0
  Cr  Cr256  1  0.53297300  0.46702700  0.39285714  1.0
  Cr  Cr257  1  0.53297300  0.80036033  0.39285714  1.0
  Cr  Cr258  1  0.86630633  0.13369367  0.39285714  1.0
  Cr  Cr259  1  0.86630633  0.46702700  0.39285714  1.0
  Cr  Cr260  1  0.86630633  0.80036033  0.39285714  1.0
  Ni  Ni261  1  0.00000000  0.00000000  0.39285714  1.0
  Ni  Ni262  1  0.00000000  0.33333333  0.39285714  1.0
  Ni  Ni263  1  0.00000000  0.66666667  0.39285714  1.0
  Ni  Ni264  1  0.33333333  0.00000000  0.39285714  1.0
  Ni  Ni265  1  0.33333333  0.33333333  0.39285714  1.0
  Ni  Ni266  1  0.33333333  0.66666667  0.39285714  1.0
  Ni  Ni267  1  0.66666667  0.00000000  0.39285714  1.0
  Ni  Ni268  1  0.66666667  0.33333333  0.39285714  1.0
  Ni  Ni269  1  0.66666667  0.66666667  0.39285714  1.0
