# generated using pymatgen
data_Cr4Ni
_symmetry_space_group_name_H-M   'P 1'
_cell_length_a   8.69059799
_cell_length_b   30.71299121
_cell_length_c   27.38410252
_cell_angle_alpha   100.49242570
_cell_angle_beta   90.00000000
_cell_angle_gamma   90.00000018
_symmetry_Int_Tables_number   1
_chemical_formula_structural   Cr4Ni
_chemical_formula_sum   'Cr216 Ni54'
_cell_volume   7186.99012107
_cell_formula_units_Z   54
loop_
 _symmetry_equiv_pos_site_id
 _symmetry_equiv_pos_as_xyz
  1  'x, y, z'
loop_
 _atom_site_type_symbol
 _atom_site_label
 _atom_site_symmetry_multiplicity
 _atom_site_fract_x
 _atom_site_fract_y
 _atom_site_fract_z
 _atom_site_occupancy
  Cr  Cr0  1  0.31684683  0.08268988  0.05023164  1.0
  Cr  Cr1  1  0.31684683  0.41602321  0.05023164  1.0
  Cr  Cr2  1  0.31684683  0.74935655  0.05023164  1.0
  Cr  Cr3  1  0.65018017  0.08268988  0.05023164  1.0
  Cr  Cr4  1  0.65018017  0.41602321  0.05023164  1.0
  Cr  Cr5  1  0.65018017  0.74935655  0.05023164  1.0
  Cr  Cr6  1  0.98351350  0.08268988  0.05023164  1.0
  Cr  Cr7  1  0.98351350  0.41602321  0.05023164  1.0
  Cr  Cr8  1  0.98351350  0.74935655  0.05023164  1.0
  Cr  Cr9  1  0.15018017  0.14480202  0.03589807  1.0
  Cr  Cr10  1  0.15018017  0.47813536  0.03589807  1.0
  Cr  Cr11  1  0.15018017  0.81146869  0.03589807  1.0
  Cr  Cr12  1  0.48351350  0.14480202  0.03589807  1.0
  Cr  Cr13  1  0.48351350  0.47813536  0.03589807  1.0
  Cr  Cr14  1  0.48351350  0.81146869  0.03589807  1.0
  Cr  Cr15  1  0.81684683  0.14480202  0.03589807  1.0
  Cr  Cr16  1  0.81684683  0.47813536  0.03589807  1.0
  Cr  Cr17  1  0.81684683  0.81146869  0.03589807  1.0
  Cr  Cr18  1  0.31684683  0.20763040  0.02139921  1.0
  Cr  Cr19  1  0.31684683  0.54096374  0.02139921  1.0
  Cr  Cr20  1  0.31684683  0.87429707  0.02139921  1.0
  Cr  Cr21  1  0.65018017  0.20763040  0.02139921  1.0
  Cr  Cr22  1  0.65018017  0.54096374  0.02139921  1.0
  Cr  Cr23  1  0.65018017  0.87429707  0.02139921  1.0
  Cr  Cr24  1  0.98351350  0.20763040  0.02139921  1.0
  Cr  Cr25  1  0.98351350  0.54096374  0.02139921  1.0
  Cr  Cr26  1  0.98351350  0.87429707  0.02139921  1.0
  Cr  Cr27  1  0.15018017  0.26974255  0.00706564  1.0
  Cr  Cr28  1  0.15018017  0.60307588  0.00706564  1.0
  Cr  Cr29  1  0.15018017  0.93640921  0.00706564  1.0
  Cr  Cr30  1  0.48351350  0.26974255  0.00706564  1.0
  Cr  Cr31  1  0.48351350  0.60307588  0.00706564  1.0
  Cr  Cr32  1  0.48351350  0.93640921  0.00706564  1.0
  Cr  Cr33  1  0.81684683  0.26974255  0.00706564  1.0
  Cr  Cr34  1  0.81684683  0.60307588  0.00706564  1.0
  Cr  Cr35  1  0.81684683  0.93640921  0.00706564  1.0
  Cr  Cr36  1  0.15018017  0.10649940  0.12166021  1.0
  Cr  Cr37  1  0.15018017  0.43983274  0.12166021  1.0
  Cr  Cr38  1  0.15018017  0.77316607  0.12166021  1.0
  Cr  Cr39  1  0.48351350  0.10649940  0.12166021  1.0
  Cr  Cr40  1  0.48351350  0.43983274  0.12166021  1.0
  Cr  Cr41  1  0.48351350  0.77316607  0.12166021  1.0
  Cr  Cr42  1  0.81684683  0.10649940  0.12166021  1.0
  Cr  Cr43  1  0.81684683  0.43983274  0.12166021  1.0
  Cr  Cr44  1  0.81684683  0.77316607  0.12166021  1.0
  Cr  Cr45  1  0.31684683  0.16861155  0.10732664  1.0
  Cr  Cr46  1  0.31684683  0.50194488  0.10732664  1.0
  Cr  Cr47  1  0.31684683  0.83527821  0.10732664  1.0
  Cr  Cr48  1  0.65018017  0.16861155  0.10732664  1.0
  Cr  Cr49  1  0.65018017  0.50194488  0.10732664  1.0
  Cr  Cr50  1  0.65018017  0.83527821  0.10732664  1.0
  Cr  Cr51  1  0.98351350  0.16861155  0.10732664  1.0
  Cr  Cr52  1  0.98351350  0.50194488  0.10732664  1.0
  Cr  Cr53  1  0.98351350  0.83527821  0.10732664  1.0
  Cr  Cr54  1  0.15018017  0.23143993  0.09282779  1.0
  Cr  Cr55  1  0.15018017  0.56477326  0.09282779  1.0
  Cr  Cr56  1  0.15018017  0.89810660  0.09282779  1.0
  Cr  Cr57  1  0.48351350  0.23143993  0.09282779  1.0
  Cr  Cr58  1  0.48351350  0.56477326  0.09282779  1.0
  Cr  Cr59  1  0.48351350  0.89810660  0.09282779  1.0
  Cr  Cr60  1  0.81684683  0.23143993  0.09282779  1.0
  Cr  Cr61  1  0.81684683  0.56477326  0.09282779  1.0
  Cr  Cr62  1  0.81684683  0.89810660  0.09282779  1.0
  Cr  Cr63  1  0.31684683  0.29355207  0.07849421  1.0
  Cr  Cr64  1  0.31684683  0.62688540  0.07849421  1.0
  Cr  Cr65  1  0.31684683  0.96021874  0.07849421  1.0
  Cr  Cr66  1  0.65018017  0.29355207  0.07849421  1.0
  Cr  Cr67  1  0.65018017  0.62688540  0.07849421  1.0
  Cr  Cr68  1  0.65018017  0.96021874  0.07849421  1.0
  Cr  Cr69  1  0.98351350  0.29355207  0.07849421  1.0
  Cr  Cr70  1  0.98351350  0.62688540  0.07849421  1.0
  Cr  Cr71  1  0.98351350  0.96021874  0.07849421  1.0
  Cr  Cr72  1  0.31684683  0.13030893  0.19308879  1.0
  Cr  Cr73  1  0.31684683  0.46364226  0.19308879  1.0
  Cr  Cr74  1  0.31684683  0.79697560  0.19308879  1.0
  Cr  Cr75  1  0.65018017  0.13030893  0.19308879  1.0
  Cr  Cr76  1  0.65018017  0.46364226  0.19308879  1.0
  Cr  Cr77  1  0.65018017  0.79697560  0.19308879  1.0
  Cr  Cr78  1  0.98351350  0.13030893  0.19308879  1.0
  Cr  Cr79  1  0.98351350  0.46364226  0.19308879  1.0
  Cr  Cr80  1  0.98351350  0.79697560  0.19308879  1.0
  Cr  Cr81  1  0.15018017  0.19242107  0.17875521  1.0
  Cr  Cr82  1  0.15018017  0.52575440  0.17875521  1.0
  Cr  Cr83  1  0.15018017  0.85908774  0.17875521  1.0
  Cr  Cr84  1  0.48351350  0.19242107  0.17875521  1.0
  Cr  Cr85  1  0.48351350  0.52575440  0.17875521  1.0
  Cr  Cr86  1  0.48351350  0.85908774  0.17875521  1.0
  Cr  Cr87  1  0.81684683  0.19242107  0.17875521  1.0
  Cr  Cr88  1  0.81684683  0.52575440  0.17875521  1.0
  Cr  Cr89  1  0.81684683  0.85908774  0.17875521  1.0
  Cr  Cr90  1  0.31684683  0.25524945  0.16425636  1.0
  Cr  Cr91  1  0.31684683  0.58858279  0.16425636  1.0
  Cr  Cr92  1  0.31684683  0.92191612  0.16425636  1.0
  Cr  Cr93  1  0.65018017  0.25524945  0.16425636  1.0
  Cr  Cr94  1  0.65018017  0.58858279  0.16425636  1.0
  Cr  Cr95  1  0.65018017  0.92191612  0.16425636  1.0
  Cr  Cr96  1  0.98351350  0.25524945  0.16425636  1.0
  Cr  Cr97  1  0.98351350  0.58858279  0.16425636  1.0
  Cr  Cr98  1  0.98351350  0.92191612  0.16425636  1.0
  Cr  Cr99  1  0.15018017  0.31736160  0.14992279  1.0
  Cr  Cr100  1  0.15018017  0.65069493  0.14992279  1.0
  Cr  Cr101  1  0.15018017  0.98402826  0.14992279  1.0
  Cr  Cr102  1  0.48351350  0.31736160  0.14992279  1.0
  Cr  Cr103  1  0.48351350  0.65069493  0.14992279  1.0
  Cr  Cr104  1  0.48351350  0.98402826  0.14992279  1.0
  Cr  Cr105  1  0.81684683  0.31736160  0.14992279  1.0
  Cr  Cr106  1  0.81684683  0.65069493  0.14992279  1.0
  Cr  Cr107  1  0.81684683  0.98402826  0.14992279  1.0
  Cr  Cr108  1  0.15018017  0.15411845  0.26451736  1.0
  Cr  Cr109  1  0.15018017  0.48745179  0.26451736  1.0
  Cr  Cr110  1  0.15018017  0.82078512  0.26451736  1.0
  Cr  Cr111  1  0.48351350  0.15411845  0.26451736  1.0
  Cr  Cr112  1  0.48351350  0.48745179  0.26451736  1.0
  Cr  Cr113  1  0.48351350  0.82078512  0.26451736  1.0
  Cr  Cr114  1  0.81684683  0.15411845  0.26451736  1.0
  Cr  Cr115  1  0.81684683  0.48745179  0.26451736  1.0
  Cr  Cr116  1  0.81684683  0.82078512  0.26451736  1.0
  Cr  Cr117  1  0.31684683  0.21623060  0.25018379  1.0
  Cr  Cr118  1  0.31684683  0.54956393  0.25018379  1.0
  Cr  Cr119  1  0.31684683  0.88289726  0.25018379  1.0
  Cr  Cr120  1  0.65018017  0.21623060  0.25018379  1.0
  Cr  Cr121  1  0.65018017  0.54956393  0.25018379  1.0
  Cr  Cr122  1  0.65018017  0.88289726  0.25018379  1.0
  Cr  Cr123  1  0.98351350  0.21623060  0.25018379  1.0
  Cr  Cr124  1  0.98351350  0.54956393  0.25018379  1.0
  Cr  Cr125  1  0.98351350  0.88289726  0.25018379  1.0
  Cr  Cr126  1  0.15018017  0.27905898  0.23568493  1.0
  Cr  Cr127  1  0.15018017  0.61239231  0.23568493  1.0
  Cr  Cr128  1  0.15018017  0.94572564  0.23568493  1.0
  Cr  Cr129  1  0.48351350  0.27905898  0.23568493  1.0
  Cr  Cr130  1  0.48351350  0.61239231  0.23568493  1.0
  Cr  Cr131  1  0.48351350  0.94572564  0.23568493  1.0
  Cr  Cr132  1  0.81684683  0.27905898  0.23568493  1.0
  Cr  Cr133  1  0.81684683  0.61239231  0.23568493  1.0
  Cr  Cr134  1  0.81684683  0.94572564  0.23568493  1.0
  Cr  Cr135  1  0.31684683  0.00783779  0.22135136  1.0
  Cr  Cr136  1  0.31684683  0.34117112  0.22135136  1.0
  Cr  Cr137  1  0.31684683  0.67450445  0.22135136  1.0
  Cr  Cr138  1  0.65018017  0.00783779  0.22135136  1.0
  Cr  Cr139  1  0.65018017  0.34117112  0.22135136  1.0
  Cr  Cr140  1  0.65018017  0.67450445  0.22135136  1.0
  Cr  Cr141  1  0.98351350  0.00783779  0.22135136  1.0
  Cr  Cr142  1  0.98351350  0.34117112  0.22135136  1.0
  Cr  Cr143  1  0.98351350  0.67450445  0.22135136  1.0
  Cr  Cr144  1  0.31684683  0.17792798  0.33594593  1.0
  Cr  Cr145  1  0.31684683  0.51126131  0.33594593  1.0
  Cr  Cr146  1  0.31684683  0.84459464  0.33594593  1.0
  Cr  Cr147  1  0.65018017  0.17792798  0.33594593  1.0
  Cr  Cr148  1  0.65018017  0.51126131  0.33594593  1.0
  Cr  Cr149  1  0.65018017  0.84459464  0.33594593  1.0
  Cr  Cr150  1  0.98351350  0.17792798  0.33594593  1.0
  Cr  Cr151  1  0.98351350  0.51126131  0.33594593  1.0
  Cr  Cr152  1  0.98351350  0.84459464  0.33594593  1.0
  Cr  Cr153  1  0.15018017  0.24004012  0.32161236  1.0
  Cr  Cr154  1  0.15018017  0.57337345  0.32161236  1.0
  Cr  Cr155  1  0.15018017  0.90670679  0.32161236  1.0
  Cr  Cr156  1  0.48351350  0.24004012  0.32161236  1.0
  Cr  Cr157  1  0.48351350  0.57337345  0.32161236  1.0
  Cr  Cr158  1  0.48351350  0.90670679  0.32161236  1.0
  Cr  Cr159  1  0.81684683  0.24004012  0.32161236  1.0
  Cr  Cr160  1  0.81684683  0.57337345  0.32161236  1.0
  Cr  Cr161  1  0.81684683  0.90670679  0.32161236  1.0
  Cr  Cr162  1  0.31684683  0.30286850  0.30711350  1.0
  Cr  Cr163  1  0.31684683  0.63620183  0.30711350  1.0
  Cr  Cr164  1  0.31684683  0.96953517  0.30711350  1.0
  Cr  Cr165  1  0.65018017  0.30286850  0.30711350  1.0
  Cr  Cr166  1  0.65018017  0.63620183  0.30711350  1.0
  Cr  Cr167  1  0.65018017  0.96953517  0.30711350  1.0
  Cr  Cr168  1  0.98351350  0.30286850  0.30711350  1.0
  Cr  Cr169  1  0.98351350  0.63620183  0.30711350  1.0
  Cr  Cr170  1  0.98351350  0.96953517  0.30711350  1.0
  Cr  Cr171  1  0.15018017  0.03164731  0.29277993  1.0
  Cr  Cr172  1  0.15018017  0.36498064  0.29277993  1.0
  Cr  Cr173  1  0.15018017  0.69831398  0.29277993  1.0
  Cr  Cr174  1  0.48351350  0.03164731  0.29277993  1.0
  Cr  Cr175  1  0.48351350  0.36498064  0.29277993  1.0
  Cr  Cr176  1  0.48351350  0.69831398  0.29277993  1.0
  Cr  Cr177  1  0.81684683  0.03164731  0.29277993  1.0
  Cr  Cr178  1  0.81684683  0.36498064  0.29277993  1.0
  Cr  Cr179  1  0.81684683  0.69831398  0.29277993  1.0
  Cr  Cr180  1  0.15018017  0.20173750  0.40737450  1.0
  Cr  Cr181  1  0.15018017  0.53507083  0.40737450  1.0
  Cr  Cr182  1  0.15018017  0.86840417  0.40737450  1.0
  Cr  Cr183  1  0.48351350  0.20173750  0.40737450  1.0
  Cr  Cr184  1  0.48351350  0.53507083  0.40737450  1.0
  Cr  Cr185  1  0.48351350  0.86840417  0.40737450  1.0
  Cr  Cr186  1  0.81684683  0.20173750  0.40737450  1.0
  Cr  Cr187  1  0.81684683  0.53507083  0.40737450  1.0
  Cr  Cr188  1  0.81684683  0.86840417  0.40737450  1.0
  Cr  Cr189  1  0.31684683  0.26384964  0.39304093  1.0
  Cr  Cr190  1  0.31684683  0.59718298  0.39304093  1.0
  Cr  Cr191  1  0.31684683  0.93051631  0.39304093  1.0
  Cr  Cr192  1  0.65018017  0.26384964  0.39304093  1.0
  Cr  Cr193  1  0.65018017  0.59718298  0.39304093  1.0
  Cr  Cr194  1  0.65018017  0.93051631  0.39304093  1.0
  Cr  Cr195  1  0.98351350  0.26384964  0.39304093  1.0
  Cr  Cr196  1  0.98351350  0.59718298  0.39304093  1.0
  Cr  Cr197  1  0.98351350  0.93051631  0.39304093  1.0
  Cr  Cr198  1  0.15018017  0.32667802  0.37854207  1.0
  Cr  Cr199  1  0.15018017  0.66001136  0.37854207  1.0
  Cr  Cr200  1  0.15018017  0.99334469  0.37854207  1.0
  Cr  Cr201  1  0.48351350  0.32667802  0.37854207  1.0
  Cr  Cr202  1  0.48351350  0.66001136  0.37854207  1.0
  Cr  Cr203  1  0.48351350  0.99334469  0.37854207  1.0
  Cr  Cr204  1  0.81684683  0.32667802  0.37854207  1.0
  Cr  Cr205  1  0.81684683  0.66001136  0.37854207  1.0
  Cr  Cr206  1  0.81684683  0.99334469  0.37854207  1.0
  Cr  Cr207  1  0.31684683  0.05545683  0.36420850  1.0
  Cr  Cr208  1  0.31684683  0.38879017  0.36420850  1.0
  Cr  Cr209  1  0.31684683  0.72212350  0.36420850  1.0
  Cr  Cr210  1  0.65018017  0.05545683  0.36420850  1.0
  Cr  Cr211  1  0.65018017  0.38879017  0.36420850  1.0
  Cr  Cr212  1  0.65018017  0.72212350  0.36420850  1.0
  Cr  Cr213  1  0.98351350  0.05545683  0.36420850  1.0
  Cr  Cr214  1  0.98351350  0.38879017  0.36420850  1.0
  Cr  Cr215  1  0.98351350  0.72212350  0.36420850  1.0
  Ni  Ni216  1  0.15018017  0.02145431  0.06436293  1.0
  Ni  Ni217  1  0.15018017  0.35478764  0.06436293  1.0
  Ni  Ni218  1  0.15018017  0.68812098  0.06436293  1.0
  Ni  Ni219  1  0.48351350  0.02145431  0.06436293  1.0
  Ni  Ni220  1  0.48351350  0.35478764  0.06436293  1.0
  Ni  Ni221  1  0.48351350  0.68812098  0.06436293  1.0
  Ni  Ni222  1  0.81684683  0.02145431  0.06436293  1.0
  Ni  Ni223  1  0.81684683  0.35478764  0.06436293  1.0
  Ni  Ni224  1  0.81684683  0.68812098  0.06436293  1.0
  Ni  Ni225  1  0.31684683  0.04526383  0.13579150  1.0
  Ni  Ni226  1  0.31684683  0.37859717  0.13579150  1.0
  Ni  Ni227  1  0.31684683  0.71193050  0.13579150  1.0
  Ni  Ni228  1  0.65018017  0.04526383  0.13579150  1.0
  Ni  Ni229  1  0.65018017  0.37859717  0.13579150  1.0
  Ni  Ni230  1  0.65018017  0.71193050  0.13579150  1.0
  Ni  Ni231  1  0.98351350  0.04526383  0.13579150  1.0
  Ni  Ni232  1  0.98351350  0.37859717  0.13579150  1.0
  Ni  Ni233  1  0.98351350  0.71193050  0.13579150  1.0
  Ni  Ni234  1  0.15018017  0.06907336  0.20722007  1.0
  Ni  Ni235  1  0.15018017  0.40240669  0.20722007  1.0
  Ni  Ni236  1  0.15018017  0.73574002  0.20722007  1.0
  Ni  Ni237  1  0.48351350  0.06907336  0.20722007  1.0
  Ni  Ni238  1  0.48351350  0.40240669  0.20722007  1.0
  Ni  Ni239  1  0.48351350  0.73574002  0.20722007  1.0
  Ni  Ni240  1  0.81684683  0.06907336  0.20722007  1.0
  Ni  Ni241  1  0.81684683  0.40240669  0.20722007  1.0
  Ni  Ni242  1  0.81684683  0.73574002  0.20722007  1.0
  Ni  Ni243  1  0.31684683  0.09288288  0.27864864  1.0
  Ni  Ni244  1  0.31684683  0.42621621  0.27864864  1.0
  Ni  Ni245  1  0.31684683  0.75954955  0.27864864  1.0
  Ni  Ni246  1  0.65018017  0.09288288  0.27864864  1.0
  Ni  Ni247  1  0.65018017  0.42621621  0.27864864  1.0
  Ni  Ni248  1  0.65018017  0.75954955  0.27864864  1.0
  Ni  Ni249  1  0.98351350  0.09288288  0.27864864  1.0
  Ni  Ni250  1  0.98351350  0.42621621  0.27864864  1.0
  Ni  Ni251  1  0.98351350  0.75954955  0.27864864  1.0
  Ni  Ni252  1  0.15018017  0.11669240  0.35007721  1.0
  Ni  Ni253  1  0.15018017  0.45002574  0.35007721  1.0
  Ni  Ni254  1  0.15018017  0.78335907  0.35007721  1.0
  Ni  Ni255  1  0.48351350  0.11669240  0.35007721  1.0
  Ni  Ni256  1  0.48351350  0.45002574  0.35007721  1.0
  Ni  Ni257  1  0.48351350  0.78335907  0.35007721  1.0
  Ni  Ni258  1  0.81684683  0.11669240  0.35007721  1.0
  Ni  Ni259  1  0.81684683  0.45002574  0.35007721  1.0
  Ni  Ni260  1  0.81684683  0.78335907  0.35007721  1.0
  Ni  Ni261  1  0.31684683  0.14050193  0.42150579  1.0
  Ni  Ni262  1  0.31684683  0.47383526  0.42150579  1.0
  Ni  Ni263  1  0.31684683  0.80716860  0.42150579  1.0
  Ni  Ni264  1  0.65018017  0.14050193  0.42150579  1.0
  Ni  Ni265  1  0.65018017  0.47383526  0.42150579  1.0
  Ni  Ni266  1  0.65018017  0.80716860  0.42150579  1.0
  Ni  Ni267  1  0.98351350  0.14050193  0.42150579  1.0
  Ni  Ni268  1  0.98351350  0.47383526  0.42150579  1.0
  Ni  Ni269  1  0.98351350  0.80716860  0.42150579  1.0
