# generated using pymatgen
data_Cr4Ni
_symmetry_space_group_name_H-M   'P 1'
_cell_length_a   25.06893732
_cell_length_b   30.71299121
_cell_length_c   25.98669984
_cell_angle_alpha   85.03213207
_cell_angle_beta   83.38390860
_cell_angle_gamma   79.65734394
_symmetry_Int_Tables_number   1
_chemical_formula_structural   Cr4Ni
_chemical_formula_sum   'Cr540 Ni135'
_cell_volume   19507.54461433
_cell_formula_units_Z   135
loop_
 _symmetry_equiv_pos_site_id
 _symmetry_equiv_pos_as_xyz
  1  'x, y, z'
loop_
 _atom_site_type_symbol
 _atom_site_label
 _atom_site_symmetry_multiplicity
 _atom_site_fract_x
 _atom_site_fract_y
 _atom_site_fract_z
 _atom_site_occupancy
  Cr  Cr0  1  0.06583689  0.06594600  0.01850639  1.0
  Cr  Cr1  1  0.06583689  0.39927933  0.01850639  1.0
  Cr  Cr2  1  0.06583689  0.73261267  0.01850639  1.0
  Cr  Cr3  1  0.39917022  0.06594600  0.01850639  1.0
  Cr  Cr4  1  0.39917022  0.39927933  0.01850639  1.0
  Cr  Cr5  1  0.39917022  0.73261267  0.01850639  1.0
  Cr  Cr6  1  0.73250355  0.06594600  0.01850639  1.0
  Cr  Cr7  1  0.73250355  0.39927933  0.01850639  1.0
  Cr  Cr8  1  0.73250355  0.73261267  0.01850639  1.0
  Cr  Cr9  1  0.21842145  0.13283600  0.01322561  1.0
  Cr  Cr10  1  0.21842145  0.46616933  0.01322561  1.0
  Cr  Cr11  1  0.21842145  0.79950267  0.01322561  1.0
  Cr  Cr12  1  0.55175478  0.13283600  0.01322561  1.0
  Cr  Cr13  1  0.55175478  0.46616933  0.01322561  1.0
  Cr  Cr14  1  0.55175478  0.79950267  0.01322561  1.0
  Cr  Cr15  1  0.88508811  0.13283600  0.01322561  1.0
  Cr  Cr16  1  0.88508811  0.46616933  0.01322561  1.0
  Cr  Cr17  1  0.88508811  0.79950267  0.01322561  1.0
  Cr  Cr18  1  0.03751029  0.20049733  0.00788392  1.0
  Cr  Cr19  1  0.03751029  0.53383067  0.00788392  1.0
  Cr  Cr20  1  0.03751029  0.86716400  0.00788392  1.0
  Cr  Cr21  1  0.37084362  0.20049733  0.00788392  1.0
  Cr  Cr22  1  0.37084362  0.53383067  0.00788392  1.0
  Cr  Cr23  1  0.37084362  0.86716400  0.00788392  1.0
  Cr  Cr24  1  0.70417696  0.20049733  0.00788392  1.0
  Cr  Cr25  1  0.70417696  0.53383067  0.00788392  1.0
  Cr  Cr26  1  0.70417696  0.86716400  0.00788392  1.0
  Cr  Cr27  1  0.19009485  0.26738733  0.00260313  1.0
  Cr  Cr28  1  0.19009485  0.60072067  0.00260313  1.0
  Cr  Cr29  1  0.19009485  0.93405400  0.00260313  1.0
  Cr  Cr30  1  0.52342818  0.26738733  0.00260313  1.0
  Cr  Cr31  1  0.52342818  0.60072067  0.00260313  1.0
  Cr  Cr32  1  0.52342818  0.93405400  0.00260313  1.0
  Cr  Cr33  1  0.85676152  0.26738733  0.00260313  1.0
  Cr  Cr34  1  0.85676152  0.60072067  0.00260313  1.0
  Cr  Cr35  1  0.85676152  0.93405400  0.00260313  1.0
  Cr  Cr36  1  0.30267899  0.06594600  0.04482218  1.0
  Cr  Cr37  1  0.30267899  0.39927933  0.04482218  1.0
  Cr  Cr38  1  0.30267899  0.73261267  0.04482218  1.0
  Cr  Cr39  1  0.63601232  0.06594600  0.04482218  1.0
  Cr  Cr40  1  0.63601232  0.39927933  0.04482218  1.0
  Cr  Cr41  1  0.63601232  0.73261267  0.04482218  1.0
  Cr  Cr42  1  0.96934566  0.06594600  0.04482218  1.0
  Cr  Cr43  1  0.96934566  0.39927933  0.04482218  1.0
  Cr  Cr44  1  0.96934566  0.73261267  0.04482218  1.0
  Cr  Cr45  1  0.12193022  0.13283600  0.03954139  1.0
  Cr  Cr46  1  0.12193022  0.46616933  0.03954139  1.0
  Cr  Cr47  1  0.12193022  0.79950267  0.03954139  1.0
  Cr  Cr48  1  0.45526355  0.13283600  0.03954139  1.0
  Cr  Cr49  1  0.45526355  0.46616933  0.03954139  1.0
  Cr  Cr50  1  0.45526355  0.79950267  0.03954139  1.0
  Cr  Cr51  1  0.78859689  0.13283600  0.03954139  1.0
  Cr  Cr52  1  0.78859689  0.46616933  0.03954139  1.0
  Cr  Cr53  1  0.78859689  0.79950267  0.03954139  1.0
  Cr  Cr54  1  0.27435239  0.20049733  0.03419971  1.0
  Cr  Cr55  1  0.27435239  0.53383067  0.03419971  1.0
  Cr  Cr56  1  0.27435239  0.86716400  0.03419971  1.0
  Cr  Cr57  1  0.60768573  0.20049733  0.03419971  1.0
  Cr  Cr58  1  0.60768573  0.53383067  0.03419971  1.0
  Cr  Cr59  1  0.60768573  0.86716400  0.03419971  1.0
  Cr  Cr60  1  0.94101906  0.20049733  0.03419971  1.0
  Cr  Cr61  1  0.94101906  0.53383067  0.03419971  1.0
  Cr  Cr62  1  0.94101906  0.86716400  0.03419971  1.0
  Cr  Cr63  1  0.09360362  0.26738733  0.02891892  1.0
  Cr  Cr64  1  0.09360362  0.60072067  0.02891892  1.0
  Cr  Cr65  1  0.09360362  0.93405400  0.02891892  1.0
  Cr  Cr66  1  0.42693696  0.26738733  0.02891892  1.0
  Cr  Cr67  1  0.42693696  0.60072067  0.02891892  1.0
  Cr  Cr68  1  0.42693696  0.93405400  0.02891892  1.0
  Cr  Cr69  1  0.76027029  0.26738733  0.02891892  1.0
  Cr  Cr70  1  0.76027029  0.60072067  0.02891892  1.0
  Cr  Cr71  1  0.76027029  0.93405400  0.02891892  1.0
  Cr  Cr72  1  0.20618776  0.06594600  0.07113797  1.0
  Cr  Cr73  1  0.20618776  0.39927933  0.07113797  1.0
  Cr  Cr74  1  0.20618776  0.73261267  0.07113797  1.0
  Cr  Cr75  1  0.53952110  0.06594600  0.07113797  1.0
  Cr  Cr76  1  0.53952110  0.39927933  0.07113797  1.0
  Cr  Cr77  1  0.53952110  0.73261267  0.07113797  1.0
  Cr  Cr78  1  0.87285443  0.06594600  0.07113797  1.0
  Cr  Cr79  1  0.87285443  0.39927933  0.07113797  1.0
  Cr  Cr80  1  0.87285443  0.73261267  0.07113797  1.0
  Cr  Cr81  1  0.02543899  0.13283600  0.06585718  1.0
  Cr  Cr82  1  0.02543899  0.46616933  0.06585718  1.0
  Cr  Cr83  1  0.02543899  0.79950267  0.06585718  1.0
  Cr  Cr84  1  0.35877232  0.13283600  0.06585718  1.0
  Cr  Cr85  1  0.35877232  0.46616933  0.06585718  1.0
  Cr  Cr86  1  0.35877232  0.79950267  0.06585718  1.0
  Cr  Cr87  1  0.69210566  0.13283600  0.06585718  1.0
  Cr  Cr88  1  0.69210566  0.46616933  0.06585718  1.0
  Cr  Cr89  1  0.69210566  0.79950267  0.06585718  1.0
  Cr  Cr90  1  0.17786117  0.20049733  0.06051550  1.0
  Cr  Cr91  1  0.17786117  0.53383067  0.06051550  1.0
  Cr  Cr92  1  0.17786117  0.86716400  0.06051550  1.0
  Cr  Cr93  1  0.51119450  0.20049733  0.06051550  1.0
  Cr  Cr94  1  0.51119450  0.53383067  0.06051550  1.0
  Cr  Cr95  1  0.51119450  0.86716400  0.06051550  1.0
  Cr  Cr96  1  0.84452783  0.20049733  0.06051550  1.0
  Cr  Cr97  1  0.84452783  0.53383067  0.06051550  1.0
  Cr  Cr98  1  0.84452783  0.86716400  0.06051550  1.0
  Cr  Cr99  1  0.33044573  0.26738733  0.05523471  1.0
  Cr  Cr100  1  0.33044573  0.60072067  0.05523471  1.0
  Cr  Cr101  1  0.33044573  0.93405400  0.05523471  1.0
  Cr  Cr102  1  0.66377906  0.26738733  0.05523471  1.0
  Cr  Cr103  1  0.66377906  0.60072067  0.05523471  1.0
  Cr  Cr104  1  0.66377906  0.93405400  0.05523471  1.0
  Cr  Cr105  1  0.99711239  0.26738733  0.05523471  1.0
  Cr  Cr106  1  0.99711239  0.60072067  0.05523471  1.0
  Cr  Cr107  1  0.99711239  0.93405400  0.05523471  1.0
  Cr  Cr108  1  0.10969654  0.06594600  0.09745376  1.0
  Cr  Cr109  1  0.10969654  0.39927933  0.09745376  1.0
  Cr  Cr110  1  0.10969654  0.73261267  0.09745376  1.0
  Cr  Cr111  1  0.44302987  0.06594600  0.09745376  1.0
  Cr  Cr112  1  0.44302987  0.39927933  0.09745376  1.0
  Cr  Cr113  1  0.44302987  0.73261267  0.09745376  1.0
  Cr  Cr114  1  0.77636320  0.06594600  0.09745376  1.0
  Cr  Cr115  1  0.77636320  0.39927933  0.09745376  1.0
  Cr  Cr116  1  0.77636320  0.73261267  0.09745376  1.0
  Cr  Cr117  1  0.26228110  0.13283600  0.09217297  1.0
  Cr  Cr118  1  0.26228110  0.46616933  0.09217297  1.0
  Cr  Cr119  1  0.26228110  0.79950267  0.09217297  1.0
  Cr  Cr120  1  0.59561443  0.13283600  0.09217297  1.0
  Cr  Cr121  1  0.59561443  0.46616933  0.09217297  1.0
  Cr  Cr122  1  0.59561443  0.79950267  0.09217297  1.0
  Cr  Cr123  1  0.92894776  0.13283600  0.09217297  1.0
  Cr  Cr124  1  0.92894776  0.46616933  0.09217297  1.0
  Cr  Cr125  1  0.92894776  0.79950267  0.09217297  1.0
  Cr  Cr126  1  0.08136994  0.20049733  0.08683129  1.0
  Cr  Cr127  1  0.08136994  0.53383067  0.08683129  1.0
  Cr  Cr128  1  0.08136994  0.86716400  0.08683129  1.0
  Cr  Cr129  1  0.41470327  0.20049733  0.08683129  1.0
  Cr  Cr130  1  0.41470327  0.53383067  0.08683129  1.0
  Cr  Cr131  1  0.41470327  0.86716400  0.08683129  1.0
  Cr  Cr132  1  0.74803661  0.20049733  0.08683129  1.0
  Cr  Cr133  1  0.74803661  0.53383067  0.08683129  1.0
  Cr  Cr134  1  0.74803661  0.86716400  0.08683129  1.0
  Cr  Cr135  1  0.23395450  0.26738733  0.08155050  1.0
  Cr  Cr136  1  0.23395450  0.60072067  0.08155050  1.0
  Cr  Cr137  1  0.23395450  0.93405400  0.08155050  1.0
  Cr  Cr138  1  0.56728783  0.26738733  0.08155050  1.0
  Cr  Cr139  1  0.56728783  0.60072067  0.08155050  1.0
  Cr  Cr140  1  0.56728783  0.93405400  0.08155050  1.0
  Cr  Cr141  1  0.90062117  0.26738733  0.08155050  1.0
  Cr  Cr142  1  0.90062117  0.60072067  0.08155050  1.0
  Cr  Cr143  1  0.90062117  0.93405400  0.08155050  1.0
  Cr  Cr144  1  0.01320531  0.06594600  0.12376955  1.0
  Cr  Cr145  1  0.01320531  0.39927933  0.12376955  1.0
  Cr  Cr146  1  0.01320531  0.73261267  0.12376955  1.0
  Cr  Cr147  1  0.34653864  0.06594600  0.12376955  1.0
  Cr  Cr148  1  0.34653864  0.39927933  0.12376955  1.0
  Cr  Cr149  1  0.34653864  0.73261267  0.12376955  1.0
  Cr  Cr150  1  0.67987197  0.06594600  0.12376955  1.0
  Cr  Cr151  1  0.67987197  0.39927933  0.12376955  1.0
  Cr  Cr152  1  0.67987197  0.73261267  0.12376955  1.0
  Cr  Cr153  1  0.16578987  0.13283600  0.11848876  1.0
  Cr  Cr154  1  0.16578987  0.46616933  0.11848876  1.0
  Cr  Cr155  1  0.16578987  0.79950267  0.11848876  1.0
  Cr  Cr156  1  0.49912320  0.13283600  0.11848876  1.0
  Cr  Cr157  1  0.49912320  0.46616933  0.11848876  1.0
  Cr  Cr158  1  0.49912320  0.79950267  0.11848876  1.0
  Cr  Cr159  1  0.83245654  0.13283600  0.11848876  1.0
  Cr  Cr160  1  0.83245654  0.46616933  0.11848876  1.0
  Cr  Cr161  1  0.83245654  0.79950267  0.11848876  1.0
  Cr  Cr162  1  0.31821204  0.20049733  0.11314708  1.0
  Cr  Cr163  1  0.31821204  0.53383067  0.11314708  1.0
  Cr  Cr164  1  0.31821204  0.86716400  0.11314708  1.0
  Cr  Cr165  1  0.65154538  0.20049733  0.11314708  1.0
  Cr  Cr166  1  0.65154538  0.53383067  0.11314708  1.0
  Cr  Cr167  1  0.65154538  0.86716400  0.11314708  1.0
  Cr  Cr168  1  0.98487871  0.20049733  0.11314708  1.0
  Cr  Cr169  1  0.98487871  0.53383067  0.11314708  1.0
  Cr  Cr170  1  0.98487871  0.86716400  0.11314708  1.0
  Cr  Cr171  1  0.13746327  0.26738733  0.10786629  1.0
  Cr  Cr172  1  0.13746327  0.60072067  0.10786629  1.0
  Cr  Cr173  1  0.13746327  0.93405400  0.10786629  1.0
  Cr  Cr174  1  0.47079661  0.26738733  0.10786629  1.0
  Cr  Cr175  1  0.47079661  0.60072067  0.10786629  1.0
  Cr  Cr176  1  0.47079661  0.93405400  0.10786629  1.0
  Cr  Cr177  1  0.80412994  0.26738733  0.10786629  1.0
  Cr  Cr178  1  0.80412994  0.60072067  0.10786629  1.0
  Cr  Cr179  1  0.80412994  0.93405400  0.10786629  1.0
  Cr  Cr180  1  0.25004741  0.06594600  0.15008534  1.0
  Cr  Cr181  1  0.25004741  0.39927933  0.15008534  1.0
  Cr  Cr182  1  0.25004741  0.73261267  0.15008534  1.0
  Cr  Cr183  1  0.58338075  0.06594600  0.15008534  1.0
  Cr  Cr184  1  0.58338075  0.39927933  0.15008534  1.0
  Cr  Cr185  1  0.58338075  0.73261267  0.15008534  1.0
  Cr  Cr186  1  0.91671408  0.06594600  0.15008534  1.0
  Cr  Cr187  1  0.91671408  0.39927933  0.15008534  1.0
  Cr  Cr188  1  0.91671408  0.73261267  0.15008534  1.0
  Cr  Cr189  1  0.06929864  0.13283600  0.14480455  1.0
  Cr  Cr190  1  0.06929864  0.46616933  0.14480455  1.0
  Cr  Cr191  1  0.06929864  0.79950267  0.14480455  1.0
  Cr  Cr192  1  0.40263197  0.13283600  0.14480455  1.0
  Cr  Cr193  1  0.40263197  0.46616933  0.14480455  1.0
  Cr  Cr194  1  0.40263197  0.79950267  0.14480455  1.0
  Cr  Cr195  1  0.73596531  0.13283600  0.14480455  1.0
  Cr  Cr196  1  0.73596531  0.46616933  0.14480455  1.0
  Cr  Cr197  1  0.73596531  0.79950267  0.14480455  1.0
  Cr  Cr198  1  0.22172082  0.20049733  0.13946287  1.0
  Cr  Cr199  1  0.22172082  0.53383067  0.13946287  1.0
  Cr  Cr200  1  0.22172082  0.86716400  0.13946287  1.0
  Cr  Cr201  1  0.55505415  0.20049733  0.13946287  1.0
  Cr  Cr202  1  0.55505415  0.53383067  0.13946287  1.0
  Cr  Cr203  1  0.55505415  0.86716400  0.13946287  1.0
  Cr  Cr204  1  0.88838748  0.20049733  0.13946287  1.0
  Cr  Cr205  1  0.88838748  0.53383067  0.13946287  1.0
  Cr  Cr206  1  0.88838748  0.86716400  0.13946287  1.0
  Cr  Cr207  1  0.04097204  0.26738733  0.13418208  1.0
  Cr  Cr208  1  0.04097204  0.60072067  0.13418208  1.0
  Cr  Cr209  1  0.04097204  0.93405400  0.13418208  1.0
  Cr  Cr210  1  0.37430538  0.26738733  0.13418208  1.0
  Cr  Cr211  1  0.37430538  0.60072067  0.13418208  1.0
  Cr  Cr212  1  0.37430538  0.93405400  0.13418208  1.0
  Cr  Cr213  1  0.70763871  0.26738733  0.13418208  1.0
  Cr  Cr214  1  0.70763871  0.60072067  0.13418208  1.0
  Cr  Cr215  1  0.70763871  0.93405400  0.13418208  1.0
  Cr  Cr216  1  0.15355618  0.06594600  0.17640113  1.0
  Cr  Cr217  1  0.15355618  0.39927933  0.17640113  1.0
  Cr  Cr218  1  0.15355618  0.73261267  0.17640113  1.0
  Cr  Cr219  1  0.48688952  0.06594600  0.17640113  1.0
  Cr  Cr220  1  0.48688952  0.39927933  0.17640113  1.0
  Cr  Cr221  1  0.48688952  0.73261267  0.17640113  1.0
  Cr  Cr222  1  0.82022285  0.06594600  0.17640113  1.0
  Cr  Cr223  1  0.82022285  0.39927933  0.17640113  1.0
  Cr  Cr224  1  0.82022285  0.73261267  0.17640113  1.0
  Cr  Cr225  1  0.30614075  0.13283600  0.17112034  1.0
  Cr  Cr226  1  0.30614075  0.46616933  0.17112034  1.0
  Cr  Cr227  1  0.30614075  0.79950267  0.17112034  1.0
  Cr  Cr228  1  0.63947408  0.13283600  0.17112034  1.0
  Cr  Cr229  1  0.63947408  0.46616933  0.17112034  1.0
  Cr  Cr230  1  0.63947408  0.79950267  0.17112034  1.0
  Cr  Cr231  1  0.97280741  0.13283600  0.17112034  1.0
  Cr  Cr232  1  0.97280741  0.46616933  0.17112034  1.0
  Cr  Cr233  1  0.97280741  0.79950267  0.17112034  1.0
  Cr  Cr234  1  0.12522959  0.20049733  0.16577866  1.0
  Cr  Cr235  1  0.12522959  0.53383067  0.16577866  1.0
  Cr  Cr236  1  0.12522959  0.86716400  0.16577866  1.0
  Cr  Cr237  1  0.45856292  0.20049733  0.16577866  1.0
  Cr  Cr238  1  0.45856292  0.53383067  0.16577866  1.0
  Cr  Cr239  1  0.45856292  0.86716400  0.16577866  1.0
  Cr  Cr240  1  0.79189625  0.20049733  0.16577866  1.0
  Cr  Cr241  1  0.79189625  0.53383067  0.16577866  1.0
  Cr  Cr242  1  0.79189625  0.86716400  0.16577866  1.0
  Cr  Cr243  1  0.27781415  0.26738733  0.16049787  1.0
  Cr  Cr244  1  0.27781415  0.60072067  0.16049787  1.0
  Cr  Cr245  1  0.27781415  0.93405400  0.16049787  1.0
  Cr  Cr246  1  0.61114748  0.26738733  0.16049787  1.0
  Cr  Cr247  1  0.61114748  0.60072067  0.16049787  1.0
  Cr  Cr248  1  0.61114748  0.93405400  0.16049787  1.0
  Cr  Cr249  1  0.94448082  0.26738733  0.16049787  1.0
  Cr  Cr250  1  0.94448082  0.60072067  0.16049787  1.0
  Cr  Cr251  1  0.94448082  0.93405400  0.16049787  1.0
  Cr  Cr252  1  0.05706496  0.06594600  0.20271692  1.0
  Cr  Cr253  1  0.05706496  0.39927933  0.20271692  1.0
  Cr  Cr254  1  0.05706496  0.73261267  0.20271692  1.0
  Cr  Cr255  1  0.39039829  0.06594600  0.20271692  1.0
  Cr  Cr256  1  0.39039829  0.39927933  0.20271692  1.0
  Cr  Cr257  1  0.39039829  0.73261267  0.20271692  1.0
  Cr  Cr258  1  0.72373162  0.06594600  0.20271692  1.0
  Cr  Cr259  1  0.72373162  0.39927933  0.20271692  1.0
  Cr  Cr260  1  0.72373162  0.73261267  0.20271692  1.0
  Cr  Cr261  1  0.20964952  0.13283600  0.19743613  1.0
  Cr  Cr262  1  0.20964952  0.46616933  0.19743613  1.0
  Cr  Cr263  1  0.20964952  0.79950267  0.19743613  1.0
  Cr  Cr264  1  0.54298285  0.13283600  0.19743613  1.0
  Cr  Cr265  1  0.54298285  0.46616933  0.19743613  1.0
  Cr  Cr266  1  0.54298285  0.79950267  0.19743613  1.0
  Cr  Cr267  1  0.87631618  0.13283600  0.19743613  1.0
  Cr  Cr268  1  0.87631618  0.46616933  0.19743613  1.0
  Cr  Cr269  1  0.87631618  0.79950267  0.19743613  1.0
  Cr  Cr270  1  0.02873836  0.20049733  0.19209445  1.0
  Cr  Cr271  1  0.02873836  0.53383067  0.19209445  1.0
  Cr  Cr272  1  0.02873836  0.86716400  0.19209445  1.0
  Cr  Cr273  1  0.36207169  0.20049733  0.19209445  1.0
  Cr  Cr274  1  0.36207169  0.53383067  0.19209445  1.0
  Cr  Cr275  1  0.36207169  0.86716400  0.19209445  1.0
  Cr  Cr276  1  0.69540503  0.20049733  0.19209445  1.0
  Cr  Cr277  1  0.69540503  0.53383067  0.19209445  1.0
  Cr  Cr278  1  0.69540503  0.86716400  0.19209445  1.0
  Cr  Cr279  1  0.18132292  0.26738733  0.18681366  1.0
  Cr  Cr280  1  0.18132292  0.60072067  0.18681366  1.0
  Cr  Cr281  1  0.18132292  0.93405400  0.18681366  1.0
  Cr  Cr282  1  0.51465625  0.26738733  0.18681366  1.0
  Cr  Cr283  1  0.51465625  0.60072067  0.18681366  1.0
  Cr  Cr284  1  0.51465625  0.93405400  0.18681366  1.0
  Cr  Cr285  1  0.84798959  0.26738733  0.18681366  1.0
  Cr  Cr286  1  0.84798959  0.60072067  0.18681366  1.0
  Cr  Cr287  1  0.84798959  0.93405400  0.18681366  1.0
  Cr  Cr288  1  0.29390706  0.06594600  0.22903271  1.0
  Cr  Cr289  1  0.29390706  0.39927933  0.22903271  1.0
  Cr  Cr290  1  0.29390706  0.73261267  0.22903271  1.0
  Cr  Cr291  1  0.62724039  0.06594600  0.22903271  1.0
  Cr  Cr292  1  0.62724039  0.39927933  0.22903271  1.0
  Cr  Cr293  1  0.62724039  0.73261267  0.22903271  1.0
  Cr  Cr294  1  0.96057373  0.06594600  0.22903271  1.0
  Cr  Cr295  1  0.96057373  0.39927933  0.22903271  1.0
  Cr  Cr296  1  0.96057373  0.73261267  0.22903271  1.0
  Cr  Cr297  1  0.11315829  0.13283600  0.22375192  1.0
  Cr  Cr298  1  0.11315829  0.46616933  0.22375192  1.0
  Cr  Cr299  1  0.11315829  0.79950267  0.22375192  1.0
  Cr  Cr300  1  0.44649162  0.13283600  0.22375192  1.0
  Cr  Cr301  1  0.44649162  0.46616933  0.22375192  1.0
  Cr  Cr302  1  0.44649162  0.79950267  0.22375192  1.0
  Cr  Cr303  1  0.77982496  0.13283600  0.22375192  1.0
  Cr  Cr304  1  0.77982496  0.46616933  0.22375192  1.0
  Cr  Cr305  1  0.77982496  0.79950267  0.22375192  1.0
  Cr  Cr306  1  0.26558046  0.20049733  0.21841024  1.0
  Cr  Cr307  1  0.26558046  0.53383067  0.21841024  1.0
  Cr  Cr308  1  0.26558046  0.86716400  0.21841024  1.0
  Cr  Cr309  1  0.59891380  0.20049733  0.21841024  1.0
  Cr  Cr310  1  0.59891380  0.53383067  0.21841024  1.0
  Cr  Cr311  1  0.59891380  0.86716400  0.21841024  1.0
  Cr  Cr312  1  0.93224713  0.20049733  0.21841024  1.0
  Cr  Cr313  1  0.93224713  0.53383067  0.21841024  1.0
  Cr  Cr314  1  0.93224713  0.86716400  0.21841024  1.0
  Cr  Cr315  1  0.08483169  0.26738733  0.21312945  1.0
  Cr  Cr316  1  0.08483169  0.60072067  0.21312945  1.0
  Cr  Cr317  1  0.08483169  0.93405400  0.21312945  1.0
  Cr  Cr318  1  0.41816503  0.26738733  0.21312945  1.0
  Cr  Cr319  1  0.41816503  0.60072067  0.21312945  1.0
  Cr  Cr320  1  0.41816503  0.93405400  0.21312945  1.0
  Cr  Cr321  1  0.75149836  0.26738733  0.21312945  1.0
  Cr  Cr322  1  0.75149836  0.60072067  0.21312945  1.0
  Cr  Cr323  1  0.75149836  0.93405400  0.21312945  1.0
  Cr  Cr324  1  0.19741583  0.06594600  0.25534850  1.0
  Cr  Cr325  1  0.19741583  0.39927933  0.25534850  1.0
  Cr  Cr326  1  0.19741583  0.73261267  0.25534850  1.0
  Cr  Cr327  1  0.53074917  0.06594600  0.25534850  1.0
  Cr  Cr328  1  0.53074917  0.39927933  0.25534850  1.0
  Cr  Cr329  1  0.53074917  0.73261267  0.25534850  1.0
  Cr  Cr330  1  0.86408250  0.06594600  0.25534850  1.0
  Cr  Cr331  1  0.86408250  0.39927933  0.25534850  1.0
  Cr  Cr332  1  0.86408250  0.73261267  0.25534850  1.0
  Cr  Cr333  1  0.01666706  0.13283600  0.25006771  1.0
  Cr  Cr334  1  0.01666706  0.46616933  0.25006771  1.0
  Cr  Cr335  1  0.01666706  0.79950267  0.25006771  1.0
  Cr  Cr336  1  0.35000039  0.13283600  0.25006771  1.0
  Cr  Cr337  1  0.35000039  0.46616933  0.25006771  1.0
  Cr  Cr338  1  0.35000039  0.79950267  0.25006771  1.0
  Cr  Cr339  1  0.68333373  0.13283600  0.25006771  1.0
  Cr  Cr340  1  0.68333373  0.46616933  0.25006771  1.0
  Cr  Cr341  1  0.68333373  0.79950267  0.25006771  1.0
  Cr  Cr342  1  0.16908924  0.20049733  0.24472603  1.0
  Cr  Cr343  1  0.16908924  0.53383067  0.24472603  1.0
  Cr  Cr344  1  0.16908924  0.86716400  0.24472603  1.0
  Cr  Cr345  1  0.50242257  0.20049733  0.24472603  1.0
  Cr  Cr346  1  0.50242257  0.53383067  0.24472603  1.0
  Cr  Cr347  1  0.50242257  0.86716400  0.24472603  1.0
  Cr  Cr348  1  0.83575590  0.20049733  0.24472603  1.0
  Cr  Cr349  1  0.83575590  0.53383067  0.24472603  1.0
  Cr  Cr350  1  0.83575590  0.86716400  0.24472603  1.0
  Cr  Cr351  1  0.32167380  0.26738733  0.23944524  1.0
  Cr  Cr352  1  0.32167380  0.60072067  0.23944524  1.0
  Cr  Cr353  1  0.32167380  0.93405400  0.23944524  1.0
  Cr  Cr354  1  0.65500713  0.26738733  0.23944524  1.0
  Cr  Cr355  1  0.65500713  0.60072067  0.23944524  1.0
  Cr  Cr356  1  0.65500713  0.93405400  0.23944524  1.0
  Cr  Cr357  1  0.98834046  0.26738733  0.23944524  1.0
  Cr  Cr358  1  0.98834046  0.60072067  0.23944524  1.0
  Cr  Cr359  1  0.98834046  0.93405400  0.23944524  1.0
  Cr  Cr360  1  0.10092461  0.06594600  0.28166429  1.0
  Cr  Cr361  1  0.10092461  0.39927933  0.28166429  1.0
  Cr  Cr362  1  0.10092461  0.73261267  0.28166429  1.0
  Cr  Cr363  1  0.43425794  0.06594600  0.28166429  1.0
  Cr  Cr364  1  0.43425794  0.39927933  0.28166429  1.0
  Cr  Cr365  1  0.43425794  0.73261267  0.28166429  1.0
  Cr  Cr366  1  0.76759127  0.06594600  0.28166429  1.0
  Cr  Cr367  1  0.76759127  0.39927933  0.28166429  1.0
  Cr  Cr368  1  0.76759127  0.73261267  0.28166429  1.0
  Cr  Cr369  1  0.25350917  0.13283600  0.27638350  1.0
  Cr  Cr370  1  0.25350917  0.46616933  0.27638350  1.0
  Cr  Cr371  1  0.25350917  0.79950267  0.27638350  1.0
  Cr  Cr372  1  0.58684250  0.13283600  0.27638350  1.0
  Cr  Cr373  1  0.58684250  0.46616933  0.27638350  1.0
  Cr  Cr374  1  0.58684250  0.79950267  0.27638350  1.0
  Cr  Cr375  1  0.92017583  0.13283600  0.27638350  1.0
  Cr  Cr376  1  0.92017583  0.46616933  0.27638350  1.0
  Cr  Cr377  1  0.92017583  0.79950267  0.27638350  1.0
  Cr  Cr378  1  0.07259801  0.20049733  0.27104182  1.0
  Cr  Cr379  1  0.07259801  0.53383067  0.27104182  1.0
  Cr  Cr380  1  0.07259801  0.86716400  0.27104182  1.0
  Cr  Cr381  1  0.40593134  0.20049733  0.27104182  1.0
  Cr  Cr382  1  0.40593134  0.53383067  0.27104182  1.0
  Cr  Cr383  1  0.40593134  0.86716400  0.27104182  1.0
  Cr  Cr384  1  0.73926468  0.20049733  0.27104182  1.0
  Cr  Cr385  1  0.73926468  0.53383067  0.27104182  1.0
  Cr  Cr386  1  0.73926468  0.86716400  0.27104182  1.0
  Cr  Cr387  1  0.22518257  0.26738733  0.26576103  1.0
  Cr  Cr388  1  0.22518257  0.60072067  0.26576103  1.0
  Cr  Cr389  1  0.22518257  0.93405400  0.26576103  1.0
  Cr  Cr390  1  0.55851590  0.26738733  0.26576103  1.0
  Cr  Cr391  1  0.55851590  0.60072067  0.26576103  1.0
  Cr  Cr392  1  0.55851590  0.93405400  0.26576103  1.0
  Cr  Cr393  1  0.89184924  0.26738733  0.26576103  1.0
  Cr  Cr394  1  0.89184924  0.60072067  0.26576103  1.0
  Cr  Cr395  1  0.89184924  0.93405400  0.26576103  1.0
  Cr  Cr396  1  0.00443338  0.06594600  0.30798008  1.0
  Cr  Cr397  1  0.00443338  0.39927933  0.30798008  1.0
  Cr  Cr398  1  0.00443338  0.73261267  0.30798008  1.0
  Cr  Cr399  1  0.33776671  0.06594600  0.30798008  1.0
  Cr  Cr400  1  0.33776671  0.39927933  0.30798008  1.0
  Cr  Cr401  1  0.33776671  0.73261267  0.30798008  1.0
  Cr  Cr402  1  0.67110004  0.06594600  0.30798008  1.0
  Cr  Cr403  1  0.67110004  0.39927933  0.30798008  1.0
  Cr  Cr404  1  0.67110004  0.73261267  0.30798008  1.0
  Cr  Cr405  1  0.15701794  0.13283600  0.30269929  1.0
  Cr  Cr406  1  0.15701794  0.46616933  0.30269929  1.0
  Cr  Cr407  1  0.15701794  0.79950267  0.30269929  1.0
  Cr  Cr408  1  0.49035127  0.13283600  0.30269929  1.0
  Cr  Cr409  1  0.49035127  0.46616933  0.30269929  1.0
  Cr  Cr410  1  0.49035127  0.79950267  0.30269929  1.0
  Cr  Cr411  1  0.82368461  0.13283600  0.30269929  1.0
  Cr  Cr412  1  0.82368461  0.46616933  0.30269929  1.0
  Cr  Cr413  1  0.82368461  0.79950267  0.30269929  1.0
  Cr  Cr414  1  0.30944011  0.20049733  0.29735761  1.0
  Cr  Cr415  1  0.30944011  0.53383067  0.29735761  1.0
  Cr  Cr416  1  0.30944011  0.86716400  0.29735761  1.0
  Cr  Cr417  1  0.64277345  0.20049733  0.29735761  1.0
  Cr  Cr418  1  0.64277345  0.53383067  0.29735761  1.0
  Cr  Cr419  1  0.64277345  0.86716400  0.29735761  1.0
  Cr  Cr420  1  0.97610678  0.20049733  0.29735761  1.0
  Cr  Cr421  1  0.97610678  0.53383067  0.29735761  1.0
  Cr  Cr422  1  0.97610678  0.86716400  0.29735761  1.0
  Cr  Cr423  1  0.12869134  0.26738733  0.29207682  1.0
  Cr  Cr424  1  0.12869134  0.60072067  0.29207682  1.0
  Cr  Cr425  1  0.12869134  0.93405400  0.29207682  1.0
  Cr  Cr426  1  0.46202468  0.26738733  0.29207682  1.0
  Cr  Cr427  1  0.46202468  0.60072067  0.29207682  1.0
  Cr  Cr428  1  0.46202468  0.93405400  0.29207682  1.0
  Cr  Cr429  1  0.79535801  0.26738733  0.29207682  1.0
  Cr  Cr430  1  0.79535801  0.60072067  0.29207682  1.0
  Cr  Cr431  1  0.79535801  0.93405400  0.29207682  1.0
  Cr  Cr432  1  0.24127548  0.06594600  0.33429587  1.0
  Cr  Cr433  1  0.24127548  0.39927933  0.33429587  1.0
  Cr  Cr434  1  0.24127548  0.73261267  0.33429587  1.0
  Cr  Cr435  1  0.57460882  0.06594600  0.33429587  1.0
  Cr  Cr436  1  0.57460882  0.39927933  0.33429587  1.0
  Cr  Cr437  1  0.57460882  0.73261267  0.33429587  1.0
  Cr  Cr438  1  0.90794215  0.06594600  0.33429587  1.0
  Cr  Cr439  1  0.90794215  0.39927933  0.33429587  1.0
  Cr  Cr440  1  0.90794215  0.73261267  0.33429587  1.0
  Cr  Cr441  1  0.06052671  0.13283600  0.32901508  1.0
  Cr  Cr442  1  0.06052671  0.46616933  0.32901508  1.0
  Cr  Cr443  1  0.06052671  0.79950267  0.32901508  1.0
  Cr  Cr444  1  0.39386004  0.13283600  0.32901508  1.0
  Cr  Cr445  1  0.39386004  0.46616933  0.32901508  1.0
  Cr  Cr446  1  0.39386004  0.79950267  0.32901508  1.0
  Cr  Cr447  1  0.72719338  0.13283600  0.32901508  1.0
  Cr  Cr448  1  0.72719338  0.46616933  0.32901508  1.0
  Cr  Cr449  1  0.72719338  0.79950267  0.32901508  1.0
  Cr  Cr450  1  0.21294889  0.20049733  0.32367339  1.0
  Cr  Cr451  1  0.21294889  0.53383067  0.32367339  1.0
  Cr  Cr452  1  0.21294889  0.86716400  0.32367339  1.0
  Cr  Cr453  1  0.54628222  0.20049733  0.32367339  1.0
  Cr  Cr454  1  0.54628222  0.53383067  0.32367339  1.0
  Cr  Cr455  1  0.54628222  0.86716400  0.32367339  1.0
  Cr  Cr456  1  0.87961555  0.20049733  0.32367339  1.0
  Cr  Cr457  1  0.87961555  0.53383067  0.32367339  1.0
  Cr  Cr458  1  0.87961555  0.86716400  0.32367339  1.0
  Cr  Cr459  1  0.03220011  0.26738733  0.31839261  1.0
  Cr  Cr460  1  0.03220011  0.60072067  0.31839261  1.0
  Cr  Cr461  1  0.03220011  0.93405400  0.31839261  1.0
  Cr  Cr462  1  0.36553345  0.26738733  0.31839261  1.0
  Cr  Cr463  1  0.36553345  0.60072067  0.31839261  1.0
  Cr  Cr464  1  0.36553345  0.93405400  0.31839261  1.0
  Cr  Cr465  1  0.69886678  0.26738733  0.31839261  1.0
  Cr  Cr466  1  0.69886678  0.60072067  0.31839261  1.0
  Cr  Cr467  1  0.69886678  0.93405400  0.31839261  1.0
  Cr  Cr468  1  0.14478425  0.06594600  0.36061166  1.0
  Cr  Cr469  1  0.14478425  0.39927933  0.36061166  1.0
  Cr  Cr470  1  0.14478425  0.73261267  0.36061166  1.0
  Cr  Cr471  1  0.47811759  0.06594600  0.36061166  1.0
  Cr  Cr472  1  0.47811759  0.39927933  0.36061166  1.0
  Cr  Cr473  1  0.47811759  0.73261267  0.36061166  1.0
  Cr  Cr474  1  0.81145092  0.06594600  0.36061166  1.0
  Cr  Cr475  1  0.81145092  0.39927933  0.36061166  1.0
  Cr  Cr476  1  0.81145092  0.73261267  0.36061166  1.0
  Cr  Cr477  1  0.29736882  0.13283600  0.35533087  1.0
  Cr  Cr478  1  0.29736882  0.46616933  0.35533087  1.0
  Cr  Cr479  1  0.29736882  0.79950267  0.35533087  1.0
  Cr  Cr480  1  0.63070215  0.13283600  0.35533087  1.0
  Cr  Cr481  1  0.63070215  0.46616933  0.35533087  1.0
  Cr  Cr482  1  0.63070215  0.79950267  0.35533087  1.0
  Cr  Cr483  1  0.96403548  0.13283600  0.35533087  1.0
  Cr  Cr484  1  0.96403548  0.46616933  0.35533087  1.0
  Cr  Cr485  1  0.96403548  0.79950267  0.35533087  1.0
  Cr  Cr486  1  0.11645766  0.20049733  0.34998918  1.0
  Cr  Cr487  1  0.11645766  0.53383067  0.34998918  1.0
  Cr  Cr488  1  0.11645766  0.86716400  0.34998918  1.0
  Cr  Cr489  1  0.44979099  0.20049733  0.34998918  1.0
  Cr  Cr490  1  0.44979099  0.53383067  0.34998918  1.0
  Cr  Cr491  1  0.44979099  0.86716400  0.34998918  1.0
  Cr  Cr492  1  0.78312432  0.20049733  0.34998918  1.0
  Cr  Cr493  1  0.78312432  0.53383067  0.34998918  1.0
  Cr  Cr494  1  0.78312432  0.86716400  0.34998918  1.0
  Cr  Cr495  1  0.26904222  0.26738733  0.34470839  1.0
  Cr  Cr496  1  0.26904222  0.60072067  0.34470839  1.0
  Cr  Cr497  1  0.26904222  0.93405400  0.34470839  1.0
  Cr  Cr498  1  0.60237555  0.26738733  0.34470839  1.0
  Cr  Cr499  1  0.60237555  0.60072067  0.34470839  1.0
  Cr  Cr500  1  0.60237555  0.93405400  0.34470839  1.0
  Cr  Cr501  1  0.93570889  0.26738733  0.34470839  1.0
  Cr  Cr502  1  0.93570889  0.60072067  0.34470839  1.0
  Cr  Cr503  1  0.93570889  0.93405400  0.34470839  1.0
  Cr  Cr504  1  0.04829303  0.06594600  0.38692745  1.0
  Cr  Cr505  1  0.04829303  0.39927933  0.38692745  1.0
  Cr  Cr506  1  0.04829303  0.73261267  0.38692745  1.0
  Cr  Cr507  1  0.38162636  0.06594600  0.38692745  1.0
  Cr  Cr508  1  0.38162636  0.39927933  0.38692745  1.0
  Cr  Cr509  1  0.38162636  0.73261267  0.38692745  1.0
  Cr  Cr510  1  0.71495969  0.06594600  0.38692745  1.0
  Cr  Cr511  1  0.71495969  0.39927933  0.38692745  1.0
  Cr  Cr512  1  0.71495969  0.73261267  0.38692745  1.0
  Cr  Cr513  1  0.20087759  0.13283600  0.38164666  1.0
  Cr  Cr514  1  0.20087759  0.46616933  0.38164666  1.0
  Cr  Cr515  1  0.20087759  0.79950267  0.38164666  1.0
  Cr  Cr516  1  0.53421092  0.13283600  0.38164666  1.0
  Cr  Cr517  1  0.53421092  0.46616933  0.38164666  1.0
  Cr  Cr518  1  0.53421092  0.79950267  0.38164666  1.0
  Cr  Cr519  1  0.86754425  0.13283600  0.38164666  1.0
  Cr  Cr520  1  0.86754425  0.46616933  0.38164666  1.0
  Cr  Cr521  1  0.86754425  0.79950267  0.38164666  1.0
  Cr  Cr522  1  0.01996643  0.20049733  0.37630497  1.0
  Cr  Cr523  1  0.01996643  0.53383067  0.37630497  1.0
  Cr  Cr524  1  0.01996643  0.86716400  0.37630497  1.0
  Cr  Cr525  1  0.35329976  0.20049733  0.37630497  1.0
  Cr  Cr526  1  0.35329976  0.53383067  0.37630497  1.0
  Cr  Cr527  1  0.35329976  0.86716400  0.37630497  1.0
  Cr  Cr528  1  0.68663310  0.20049733  0.37630497  1.0
  Cr  Cr529  1  0.68663310  0.53383067  0.37630497  1.0
  Cr  Cr530  1  0.68663310  0.86716400  0.37630497  1.0
  Cr  Cr531  1  0.17255099  0.26738733  0.37102418  1.0
  Cr  Cr532  1  0.17255099  0.60072067  0.37102418  1.0
  Cr  Cr533  1  0.17255099  0.93405400  0.37102418  1.0
  Cr  Cr534  1  0.50588432  0.26738733  0.37102418  1.0
  Cr  Cr535  1  0.50588432  0.60072067  0.37102418  1.0
  Cr  Cr536  1  0.50588432  0.93405400  0.37102418  1.0
  Cr  Cr537  1  0.83921766  0.26738733  0.37102418  1.0
  Cr  Cr538  1  0.83921766  0.60072067  0.37102418  1.0
  Cr  Cr539  1  0.83921766  0.93405400  0.37102418  1.0
  Ni  Ni540  1  0.24638692  0.33333333  0.02371266  1.0
  Ni  Ni541  1  0.24638692  0.66666667  0.02371266  1.0
  Ni  Ni542  1  0.24638692  0.00000000  0.02371266  1.0
  Ni  Ni543  1  0.57972025  0.33333333  0.02371266  1.0
  Ni  Ni544  1  0.57972025  0.66666667  0.02371266  1.0
  Ni  Ni545  1  0.57972025  0.00000000  0.02371266  1.0
  Ni  Ni546  1  0.91305359  0.33333333  0.02371266  1.0
  Ni  Ni547  1  0.91305359  0.66666667  0.02371266  1.0
  Ni  Ni548  1  0.91305359  0.00000000  0.02371266  1.0
  Ni  Ni549  1  0.14989569  0.33333333  0.05002845  1.0
  Ni  Ni550  1  0.14989569  0.66666667  0.05002845  1.0
  Ni  Ni551  1  0.14989569  0.00000000  0.05002845  1.0
  Ni  Ni552  1  0.48322903  0.33333333  0.05002845  1.0
  Ni  Ni553  1  0.48322903  0.66666667  0.05002845  1.0
  Ni  Ni554  1  0.48322903  0.00000000  0.05002845  1.0
  Ni  Ni555  1  0.81656236  0.33333333  0.05002845  1.0
  Ni  Ni556  1  0.81656236  0.66666667  0.05002845  1.0
  Ni  Ni557  1  0.81656236  0.00000000  0.05002845  1.0
  Ni  Ni558  1  0.05340446  0.33333333  0.07634424  1.0
  Ni  Ni559  1  0.05340446  0.66666667  0.07634424  1.0
  Ni  Ni560  1  0.05340446  0.00000000  0.07634424  1.0
  Ni  Ni561  1  0.38673780  0.33333333  0.07634424  1.0
  Ni  Ni562  1  0.38673780  0.66666667  0.07634424  1.0
  Ni  Ni563  1  0.38673780  0.00000000  0.07634424  1.0
  Ni  Ni564  1  0.72007113  0.33333333  0.07634424  1.0
  Ni  Ni565  1  0.72007113  0.66666667  0.07634424  1.0
  Ni  Ni566  1  0.72007113  0.00000000  0.07634424  1.0
  Ni  Ni567  1  0.29024657  0.33333333  0.10266003  1.0
  Ni  Ni568  1  0.29024657  0.66666667  0.10266003  1.0
  Ni  Ni569  1  0.29024657  0.00000000  0.10266003  1.0
  Ni  Ni570  1  0.62357990  0.33333333  0.10266003  1.0
  Ni  Ni571  1  0.62357990  0.66666667  0.10266003  1.0
  Ni  Ni572  1  0.62357990  0.00000000  0.10266003  1.0
  Ni  Ni573  1  0.95691324  0.33333333  0.10266003  1.0
  Ni  Ni574  1  0.95691324  0.66666667  0.10266003  1.0
  Ni  Ni575  1  0.95691324  0.00000000  0.10266003  1.0
  Ni  Ni576  1  0.19375534  0.33333333  0.12897582  1.0
  Ni  Ni577  1  0.19375534  0.66666667  0.12897582  1.0
  Ni  Ni578  1  0.19375534  0.00000000  0.12897582  1.0
  Ni  Ni579  1  0.52708868  0.33333333  0.12897582  1.0
  Ni  Ni580  1  0.52708868  0.66666667  0.12897582  1.0
  Ni  Ni581  1  0.52708868  0.00000000  0.12897582  1.0
  Ni  Ni582  1  0.86042201  0.33333333  0.12897582  1.0
  Ni  Ni583  1  0.86042201  0.66666667  0.12897582  1.0
  Ni  Ni584  1  0.86042201  0.00000000  0.12897582  1.0
  Ni  Ni585  1  0.09726411  0.33333333  0.15529161  1.0
  Ni  Ni586  1  0.09726411  0.66666667  0.15529161  1.0
  Ni  Ni587  1  0.09726411  0.00000000  0.15529161  1.0
  Ni  Ni588  1  0.43059745  0.33333333  0.15529161  1.0
  Ni  Ni589  1  0.43059745  0.66666667  0.15529161  1.0
  Ni  Ni590  1  0.43059745  0.00000000  0.15529161  1.0
  Ni  Ni591  1  0.76393078  0.33333333  0.15529161  1.0
  Ni  Ni592  1  0.76393078  0.66666667  0.15529161  1.0
  Ni  Ni593  1  0.76393078  0.00000000  0.15529161  1.0
  Ni  Ni594  1  0.00077289  0.33333333  0.18160739  1.0
  Ni  Ni595  1  0.00077289  0.66666667  0.18160739  1.0
  Ni  Ni596  1  0.00077289  0.00000000  0.18160739  1.0
  Ni  Ni597  1  0.33410622  0.33333333  0.18160739  1.0
  Ni  Ni598  1  0.33410622  0.66666667  0.18160739  1.0
  Ni  Ni599  1  0.33410622  0.00000000  0.18160739  1.0
  Ni  Ni600  1  0.66743955  0.33333333  0.18160739  1.0
  Ni  Ni601  1  0.66743955  0.66666667  0.18160739  1.0
  Ni  Ni602  1  0.66743955  0.00000000  0.18160739  1.0
  Ni  Ni603  1  0.23761499  0.33333333  0.20792318  1.0
  Ni  Ni604  1  0.23761499  0.66666667  0.20792318  1.0
  Ni  Ni605  1  0.23761499  0.00000000  0.20792318  1.0
  Ni  Ni606  1  0.57094832  0.33333333  0.20792318  1.0
  Ni  Ni607  1  0.57094832  0.66666667  0.20792318  1.0
  Ni  Ni608  1  0.57094832  0.00000000  0.20792318  1.0
  Ni  Ni609  1  0.90428166  0.33333333  0.20792318  1.0
  Ni  Ni610  1  0.90428166  0.66666667  0.20792318  1.0
  Ni  Ni611  1  0.90428166  0.00000000  0.20792318  1.0
  Ni  Ni612  1  0.14112376  0.33333333  0.23423897  1.0
  Ni  Ni613  1  0.14112376  0.66666667  0.23423897  1.0
  Ni  Ni614  1  0.14112376  0.00000000  0.23423897  1.0
  Ni  Ni615  1  0.47445710  0.33333333  0.23423897  1.0
  Ni  Ni616  1  0.47445710  0.66666667  0.23423897  1.0
  Ni  Ni617  1  0.47445710  0.00000000  0.23423897  1.0
  Ni  Ni618  1  0.80779043  0.33333333  0.23423897  1.0
  Ni  Ni619  1  0.80779043  0.66666667  0.23423897  1.0
  Ni  Ni620  1  0.80779043  0.00000000  0.23423897  1.0
  Ni  Ni621  1  0.04463254  0.33333333  0.26055476  1.0
  Ni  Ni622  1  0.04463254  0.66666667  0.26055476  1.0
  Ni  Ni623  1  0.04463254  0.00000000  0.26055476  1.0
  Ni  Ni624  1  0.37796587  0.33333333  0.26055476  1.0
  Ni  Ni625  1  0.37796587  0.66666667  0.26055476  1.0
  Ni  Ni626  1  0.37796587  0.00000000  0.26055476  1.0
  Ni  Ni627  1  0.71129920  0.33333333  0.26055476  1.0
  Ni  Ni628  1  0.71129920  0.66666667  0.26055476  1.0
  Ni  Ni629  1  0.71129920  0.00000000  0.26055476  1.0
  Ni  Ni630  1  0.28147464  0.33333333  0.28687055  1.0
  Ni  Ni631  1  0.28147464  0.66666667  0.28687055  1.0
  Ni  Ni632  1  0.28147464  0.00000000  0.28687055  1.0
  Ni  Ni633  1  0.61480797  0.33333333  0.28687055  1.0
  Ni  Ni634  1  0.61480797  0.66666667  0.28687055  1.0
  Ni  Ni635  1  0.61480797  0.00000000  0.28687055  1.0
  Ni  Ni636  1  0.94814131  0.33333333  0.28687055  1.0
  Ni  Ni637  1  0.94814131  0.66666667  0.28687055  1.0
  Ni  Ni638  1  0.94814131  0.00000000  0.28687055  1.0
  Ni  Ni639  1  0.18498341  0.33333333  0.31318634  1.0
  Ni  Ni640  1  0.18498341  0.66666667  0.31318634  1.0
  Ni  Ni641  1  0.18498341  0.00000000  0.31318634  1.0
  Ni  Ni642  1  0.51831675  0.33333333  0.31318634  1.0
  Ni  Ni643  1  0.51831675  0.66666667  0.31318634  1.0
  Ni  Ni644  1  0.51831675  0.00000000  0.31318634  1.0
  Ni  Ni645  1  0.85165008  0.33333333  0.31318634  1.0
  Ni  Ni646  1  0.85165008  0.66666667  0.31318634  1.0
  Ni  Ni647  1  0.85165008  0.00000000  0.31318634  1.0
  Ni  Ni648  1  0.08849218  0.33333333  0.33950213  1.0
  Ni  Ni649  1  0.08849218  0.66666667  0.33950213  1.0
  Ni  Ni650  1  0.08849218  1.00000000  0.33950213  1.0
  Ni  Ni651  1  0.42182552  0.33333333  0.33950213  1.0
  Ni  Ni652  1  0.42182552  0.66666667  0.33950213  1.0
  Ni  Ni653  1  0.42182552  1.00000000  0.33950213  1.0
  Ni  Ni654  1  0.75515885  0.33333333  0.33950213  1.0
  Ni  Ni655  1  0.75515885  0.66666667  0.33950213  1.0
  Ni  Ni656  1  0.75515885  1.00000000  0.33950213  1.0
  Ni  Ni657  1  0.32533429  0.33333333  0.36581792  1.0
  Ni  Ni658  1  0.32533429  0.66666667  0.36581792  1.0
  Ni  Ni659  1  0.32533429  1.00000000  0.36581792  1.0
  Ni  Ni660  1  0.65866762  0.33333333  0.36581792  1.0
  Ni  Ni661  1  0.65866762  0.66666667  0.36581792  1.0
  Ni  Ni662  1  0.65866762  1.00000000  0.36581792  1.0
  Ni  Ni663  1  0.99200096  0.33333333  0.36581792  1.0
  Ni  Ni664  1  0.99200096  0.66666667  0.36581792  1.0
  Ni  Ni665  1  0.99200096  1.00000000  0.36581792  1.0
  Ni  Ni666  1  0.22884306  0.33333333  0.39213371  1.0
  Ni  Ni667  1  0.22884306  0.66666667  0.39213371  1.0
  Ni  Ni668  1  0.22884306  1.00000000  0.39213371  1.0
  Ni  Ni669  1  0.56217639  0.33333333  0.39213371  1.0
  Ni  Ni670  1  0.56217639  0.66666667  0.39213371  1.0
  Ni  Ni671  1  0.56217639  1.00000000  0.39213371  1.0
  Ni  Ni672  1  0.89550973  0.33333333  0.39213371  1.0
  Ni  Ni673  1  0.89550973  0.66666667  0.39213371  1.0
  Ni  Ni674  1  0.89550973  1.00000000  0.39213371  1.0
