# generated using pymatgen
data_Cr4Ni
_symmetry_space_group_name_H-M   'P 1'
_cell_length_a   7.31022870
_cell_length_b   7.31022871
_cell_length_c   30.45671736
_cell_angle_alpha   85.13514526
_cell_angle_beta   85.13514546
_cell_angle_gamma   107.05832661
_symmetry_Int_Tables_number   1
_chemical_formula_structural   Cr4Ni
_chemical_formula_sum   'Cr36 Ni9'
_cell_volume   1540.06931166
_cell_formula_units_Z   9
loop_
 _symmetry_equiv_pos_site_id
 _symmetry_equiv_pos_as_xyz
  1  'x, y, z'
loop_
 _atom_site_type_symbol
 _atom_site_label
 _atom_site_symmetry_multiplicity
 _atom_site_fract_x
 _atom_site_fract_y
 _atom_site_fract_z
 _atom_site_occupancy
  Cr  Cr0  1  0.13369367  0.13369367  0.03297300  1.0
  Cr  Cr1  1  0.13369367  0.46702700  0.03297300  1.0
  Cr  Cr2  1  0.13369367  0.80036033  0.03297300  1.0
  Cr  Cr3  1  0.46702700  0.13369367  0.03297300  1.0
  Cr  Cr4  1  0.46702700  0.46702700  0.03297300  1.0
  Cr  Cr5  1  0.46702700  0.80036033  0.03297300  1.0
  Cr  Cr6  1  0.80036033  0.13369367  0.03297300  1.0
  Cr  Cr7  1  0.80036033  0.46702700  0.03297300  1.0
  Cr  Cr8  1  0.80036033  0.80036033  0.03297300  1.0
  Cr  Cr9  1  0.26691533  0.26691533  0.09986300  1.0
  Cr  Cr10  1  0.26691533  0.60024867  0.09986300  1.0
  Cr  Cr11  1  0.26691533  0.93358200  0.09986300  1.0
  Cr  Cr12  1  0.60024867  0.26691533  0.09986300  1.0
  Cr  Cr13  1  0.60024867  0.60024867  0.09986300  1.0
  Cr  Cr14  1  0.60024867  0.93358200  0.09986300  1.0
  Cr  Cr15  1  0.93358200  0.26691533  0.09986300  1.0
  Cr  Cr16  1  0.93358200  0.60024867  0.09986300  1.0
  Cr  Cr17  1  0.93358200  0.93358200  0.09986300  1.0
  Cr  Cr18  1  0.06641800  0.06641800  0.16752433  1.0
  Cr  Cr19  1  0.06641800  0.39975133  0.16752433  1.0
  Cr  Cr20  1  0.06641800  0.73308467  0.16752433  1.0
  Cr  Cr21  1  0.39975133  0.06641800  0.16752433  1.0
  Cr  Cr22  1  0.39975133  0.39975133  0.16752433  1.0
  Cr  Cr23  1  0.39975133  0.73308467  0.16752433  1.0
  Cr  Cr24  1  0.73308467  0.06641800  0.16752433  1.0
  Cr  Cr25  1  0.73308467  0.39975133  0.16752433  1.0
  Cr  Cr26  1  0.73308467  0.73308467  0.16752433  1.0
  Cr  Cr27  1  0.19963967  0.19963967  0.23441433  1.0
  Cr  Cr28  1  0.19963967  0.53297300  0.23441433  1.0
  Cr  Cr29  1  0.19963967  0.86630633  0.23441433  1.0
  Cr  Cr30  1  0.53297300  0.19963967  0.23441433  1.0
  Cr  Cr31  1  0.53297300  0.53297300  0.23441433  1.0
  Cr  Cr32  1  0.53297300  0.86630633  0.23441433  1.0
  Cr  Cr33  1  0.86630633  0.19963967  0.23441433  1.0
  Cr  Cr34  1  0.86630633  0.53297300  0.23441433  1.0
  Cr  Cr35  1  0.86630633  0.86630633  0.23441433  1.0
  Ni  Ni36  1  0.00000000  0.00000000  0.30036033  1.0
  Ni  Ni37  1  0.00000000  0.33333333  0.30036033  1.0
  Ni  Ni38  1  0.00000000  0.66666667  0.30036033  1.0
  Ni  Ni39  1  0.33333333  0.00000000  0.30036033  1.0
  Ni  Ni40  1  0.33333333  0.33333333  0.30036033  1.0
  Ni  Ni41  1  0.33333333  0.66666667  0.30036033  1.0
  Ni  Ni42  1  0.66666667  0.00000000  0.30036033  1.0
  Ni  Ni43  1  0.66666667  0.33333333  0.30036033  1.0
  Ni  Ni44  1  0.66666667  0.66666667  0.30036033  1.0
