# generated using pymatgen
data_Cr4Ni
_symmetry_space_group_name_H-M   'P 1'
_cell_length_a   11.75717999
_cell_length_b   31.91887098
_cell_length_c   26.59473454
_cell_angle_alpha   96.01267687
_cell_angle_beta   90.00000002
_cell_angle_gamma   100.61291273
_symmetry_Int_Tables_number   1
_chemical_formula_structural   Cr4Ni
_chemical_formula_sum   'Cr288 Ni72'
_cell_volume   9753.77230717
_cell_formula_units_Z   72
loop_
 _symmetry_equiv_pos_site_id
 _symmetry_equiv_pos_as_xyz
  1  'x, y, z'
loop_
 _atom_site_type_symbol
 _atom_site_label
 _atom_site_symmetry_multiplicity
 _atom_site_fract_x
 _atom_site_fract_y
 _atom_site_fract_z
 _atom_site_occupancy
  Cr  Cr0  1  0.11935889  0.27254846  0.01548337  1.0
  Cr  Cr1  1  0.11935889  0.60588179  0.01548337  1.0
  Cr  Cr2  1  0.11935889  0.93921512  0.01548337  1.0
  Cr  Cr3  1  0.45269223  0.27254846  0.01548337  1.0
  Cr  Cr4  1  0.45269223  0.60588179  0.01548337  1.0
  Cr  Cr5  1  0.45269223  0.93921512  0.01548337  1.0
  Cr  Cr6  1  0.78602556  0.27254846  0.01548337  1.0
  Cr  Cr7  1  0.78602556  0.60588179  0.01548337  1.0
  Cr  Cr8  1  0.78602556  0.93921512  0.01548337  1.0
  Cr  Cr9  1  0.25610109  0.21269951  0.03660653  1.0
  Cr  Cr10  1  0.25610109  0.54603284  0.03660653  1.0
  Cr  Cr11  1  0.25610109  0.87936618  0.03660653  1.0
  Cr  Cr12  1  0.58943442  0.21269951  0.03660653  1.0
  Cr  Cr13  1  0.58943442  0.54603284  0.03660653  1.0
  Cr  Cr14  1  0.58943442  0.87936618  0.03660653  1.0
  Cr  Cr15  1  0.92276775  0.21269951  0.03660653  1.0
  Cr  Cr16  1  0.92276775  0.54603284  0.03660653  1.0
  Cr  Cr17  1  0.92276775  0.87936618  0.03660653  1.0
  Cr  Cr18  1  0.21705961  0.13461656  0.00534168  1.0
  Cr  Cr19  1  0.21705961  0.46794989  0.00534168  1.0
  Cr  Cr20  1  0.21705961  0.80128323  0.00534168  1.0
  Cr  Cr21  1  0.55039295  0.13461656  0.00534168  1.0
  Cr  Cr22  1  0.55039295  0.46794989  0.00534168  1.0
  Cr  Cr23  1  0.55039295  0.80128323  0.00534168  1.0
  Cr  Cr24  1  0.88372628  0.13461656  0.00534168  1.0
  Cr  Cr25  1  0.88372628  0.46794989  0.00534168  1.0
  Cr  Cr26  1  0.88372628  0.80128323  0.00534168  1.0
  Cr  Cr27  1  0.02046847  0.07476761  0.02646484  1.0
  Cr  Cr28  1  0.02046847  0.40810095  0.02646484  1.0
  Cr  Cr29  1  0.02046847  0.74143428  0.02646484  1.0
  Cr  Cr30  1  0.35380181  0.07476761  0.02646484  1.0
  Cr  Cr31  1  0.35380181  0.40810095  0.02646484  1.0
  Cr  Cr32  1  0.35380181  0.74143428  0.02646484  1.0
  Cr  Cr33  1  0.68713514  0.07476761  0.02646484  1.0
  Cr  Cr34  1  0.68713514  0.40810095  0.02646484  1.0
  Cr  Cr35  1  0.68713514  0.74143428  0.02646484  1.0
  Cr  Cr36  1  0.29479749  0.29009232  0.06811495  1.0
  Cr  Cr37  1  0.29479749  0.62342565  0.06811495  1.0
  Cr  Cr38  1  0.29479749  0.95675898  0.06811495  1.0
  Cr  Cr39  1  0.62813082  0.29009232  0.06811495  1.0
  Cr  Cr40  1  0.62813082  0.62342565  0.06811495  1.0
  Cr  Cr41  1  0.62813082  0.95675898  0.06811495  1.0
  Cr  Cr42  1  0.96146416  0.29009232  0.06811495  1.0
  Cr  Cr43  1  0.96146416  0.62342565  0.06811495  1.0
  Cr  Cr44  1  0.96146416  0.95675898  0.06811495  1.0
  Cr  Cr45  1  0.09820635  0.23024337  0.08923811  1.0
  Cr  Cr46  1  0.09820635  0.56357670  0.08923811  1.0
  Cr  Cr47  1  0.09820635  0.89691004  0.08923811  1.0
  Cr  Cr48  1  0.43153968  0.23024337  0.08923811  1.0
  Cr  Cr49  1  0.43153968  0.56357670  0.08923811  1.0
  Cr  Cr50  1  0.43153968  0.89691004  0.08923811  1.0
  Cr  Cr51  1  0.76487302  0.23024337  0.08923811  1.0
  Cr  Cr52  1  0.76487302  0.56357670  0.08923811  1.0
  Cr  Cr53  1  0.76487302  0.89691004  0.08923811  1.0
  Cr  Cr54  1  0.05916488  0.15216042  0.05797326  1.0
  Cr  Cr55  1  0.05916488  0.48549375  0.05797326  1.0
  Cr  Cr56  1  0.05916488  0.81882709  0.05797326  1.0
  Cr  Cr57  1  0.39249821  0.15216042  0.05797326  1.0
  Cr  Cr58  1  0.39249821  0.48549375  0.05797326  1.0
  Cr  Cr59  1  0.39249821  0.81882709  0.05797326  1.0
  Cr  Cr60  1  0.72583154  0.15216042  0.05797326  1.0
  Cr  Cr61  1  0.72583154  0.48549375  0.05797326  1.0
  Cr  Cr62  1  0.72583154  0.81882709  0.05797326  1.0
  Cr  Cr63  1  0.19590707  0.09231147  0.07909642  1.0
  Cr  Cr64  1  0.19590707  0.42564481  0.07909642  1.0
  Cr  Cr65  1  0.19590707  0.75897814  0.07909642  1.0
  Cr  Cr66  1  0.52924040  0.09231147  0.07909642  1.0
  Cr  Cr67  1  0.52924040  0.42564481  0.07909642  1.0
  Cr  Cr68  1  0.52924040  0.75897814  0.07909642  1.0
  Cr  Cr69  1  0.86257374  0.09231147  0.07909642  1.0
  Cr  Cr70  1  0.86257374  0.42564481  0.07909642  1.0
  Cr  Cr71  1  0.86257374  0.75897814  0.07909642  1.0
  Cr  Cr72  1  0.13690275  0.30763618  0.12074653  1.0
  Cr  Cr73  1  0.13690275  0.64096951  0.12074653  1.0
  Cr  Cr74  1  0.13690275  0.97430284  0.12074653  1.0
  Cr  Cr75  1  0.47023609  0.30763618  0.12074653  1.0
  Cr  Cr76  1  0.47023609  0.64096951  0.12074653  1.0
  Cr  Cr77  1  0.47023609  0.97430284  0.12074653  1.0
  Cr  Cr78  1  0.80356942  0.30763618  0.12074653  1.0
  Cr  Cr79  1  0.80356942  0.64096951  0.12074653  1.0
  Cr  Cr80  1  0.80356942  0.97430284  0.12074653  1.0
  Cr  Cr81  1  0.27364495  0.24778723  0.14186968  1.0
  Cr  Cr82  1  0.27364495  0.58112056  0.14186968  1.0
  Cr  Cr83  1  0.27364495  0.91445389  0.14186968  1.0
  Cr  Cr84  1  0.60697828  0.24778723  0.14186968  1.0
  Cr  Cr85  1  0.60697828  0.58112056  0.14186968  1.0
  Cr  Cr86  1  0.60697828  0.91445389  0.14186968  1.0
  Cr  Cr87  1  0.94031161  0.24778723  0.14186968  1.0
  Cr  Cr88  1  0.94031161  0.58112056  0.14186968  1.0
  Cr  Cr89  1  0.94031161  0.91445389  0.14186968  1.0
  Cr  Cr90  1  0.23460347  0.16970428  0.11060484  1.0
  Cr  Cr91  1  0.23460347  0.50303761  0.11060484  1.0
  Cr  Cr92  1  0.23460347  0.83637095  0.11060484  1.0
  Cr  Cr93  1  0.56793681  0.16970428  0.11060484  1.0
  Cr  Cr94  1  0.56793681  0.50303761  0.11060484  1.0
  Cr  Cr95  1  0.56793681  0.83637095  0.11060484  1.0
  Cr  Cr96  1  0.90127014  0.16970428  0.11060484  1.0
  Cr  Cr97  1  0.90127014  0.50303761  0.11060484  1.0
  Cr  Cr98  1  0.90127014  0.83637095  0.11060484  1.0
  Cr  Cr99  1  0.03801233  0.10985533  0.13172800  1.0
  Cr  Cr100  1  0.03801233  0.44318867  0.13172800  1.0
  Cr  Cr101  1  0.03801233  0.77652200  0.13172800  1.0
  Cr  Cr102  1  0.37134567  0.10985533  0.13172800  1.0
  Cr  Cr103  1  0.37134567  0.44318867  0.13172800  1.0
  Cr  Cr104  1  0.37134567  0.77652200  0.13172800  1.0
  Cr  Cr105  1  0.70467900  0.10985533  0.13172800  1.0
  Cr  Cr106  1  0.70467900  0.44318867  0.13172800  1.0
  Cr  Cr107  1  0.70467900  0.77652200  0.13172800  1.0
  Cr  Cr108  1  0.31234135  0.32518004  0.17337811  1.0
  Cr  Cr109  1  0.31234135  0.65851337  0.17337811  1.0
  Cr  Cr110  1  0.31234135  0.99184670  0.17337811  1.0
  Cr  Cr111  1  0.64567468  0.32518004  0.17337811  1.0
  Cr  Cr112  1  0.64567468  0.65851337  0.17337811  1.0
  Cr  Cr113  1  0.64567468  0.99184670  0.17337811  1.0
  Cr  Cr114  1  0.97900802  0.32518004  0.17337811  1.0
  Cr  Cr115  1  0.97900802  0.65851337  0.17337811  1.0
  Cr  Cr116  1  0.97900802  0.99184670  0.17337811  1.0
  Cr  Cr117  1  0.11575021  0.26533109  0.19450126  1.0
  Cr  Cr118  1  0.11575021  0.59866442  0.19450126  1.0
  Cr  Cr119  1  0.11575021  0.93199775  0.19450126  1.0
  Cr  Cr120  1  0.44908354  0.26533109  0.19450126  1.0
  Cr  Cr121  1  0.44908354  0.59866442  0.19450126  1.0
  Cr  Cr122  1  0.44908354  0.93199775  0.19450126  1.0
  Cr  Cr123  1  0.78241688  0.26533109  0.19450126  1.0
  Cr  Cr124  1  0.78241688  0.59866442  0.19450126  1.0
  Cr  Cr125  1  0.78241688  0.93199775  0.19450126  1.0
  Cr  Cr126  1  0.07670874  0.18724814  0.16323642  1.0
  Cr  Cr127  1  0.07670874  0.52058147  0.16323642  1.0
  Cr  Cr128  1  0.07670874  0.85391481  0.16323642  1.0
  Cr  Cr129  1  0.41004207  0.18724814  0.16323642  1.0
  Cr  Cr130  1  0.41004207  0.52058147  0.16323642  1.0
  Cr  Cr131  1  0.41004207  0.85391481  0.16323642  1.0
  Cr  Cr132  1  0.74337540  0.18724814  0.16323642  1.0
  Cr  Cr133  1  0.74337540  0.52058147  0.16323642  1.0
  Cr  Cr134  1  0.74337540  0.85391481  0.16323642  1.0
  Cr  Cr135  1  0.21345093  0.12739919  0.18435958  1.0
  Cr  Cr136  1  0.21345093  0.46073253  0.18435958  1.0
  Cr  Cr137  1  0.21345093  0.79406586  0.18435958  1.0
  Cr  Cr138  1  0.54678426  0.12739919  0.18435958  1.0
  Cr  Cr139  1  0.54678426  0.46073253  0.18435958  1.0
  Cr  Cr140  1  0.54678426  0.79406586  0.18435958  1.0
  Cr  Cr141  1  0.88011760  0.12739919  0.18435958  1.0
  Cr  Cr142  1  0.88011760  0.46073253  0.18435958  1.0
  Cr  Cr143  1  0.88011760  0.79406586  0.18435958  1.0
  Cr  Cr144  1  0.15444661  0.00939056  0.22600968  1.0
  Cr  Cr145  1  0.15444661  0.34272389  0.22600968  1.0
  Cr  Cr146  1  0.15444661  0.67605723  0.22600968  1.0
  Cr  Cr147  1  0.48777995  0.00939056  0.22600968  1.0
  Cr  Cr148  1  0.48777995  0.34272389  0.22600968  1.0
  Cr  Cr149  1  0.48777995  0.67605723  0.22600968  1.0
  Cr  Cr150  1  0.82111328  0.00939056  0.22600968  1.0
  Cr  Cr151  1  0.82111328  0.34272389  0.22600968  1.0
  Cr  Cr152  1  0.82111328  0.67605723  0.22600968  1.0
  Cr  Cr153  1  0.29118881  0.28287495  0.24713284  1.0
  Cr  Cr154  1  0.29118881  0.61620828  0.24713284  1.0
  Cr  Cr155  1  0.29118881  0.94954161  0.24713284  1.0
  Cr  Cr156  1  0.62452214  0.28287495  0.24713284  1.0
  Cr  Cr157  1  0.62452214  0.61620828  0.24713284  1.0
  Cr  Cr158  1  0.62452214  0.94954161  0.24713284  1.0
  Cr  Cr159  1  0.95785547  0.28287495  0.24713284  1.0
  Cr  Cr160  1  0.95785547  0.61620828  0.24713284  1.0
  Cr  Cr161  1  0.95785547  0.94954161  0.24713284  1.0
  Cr  Cr162  1  0.25214733  0.20479200  0.21586800  1.0
  Cr  Cr163  1  0.25214733  0.53812533  0.21586800  1.0
  Cr  Cr164  1  0.25214733  0.87145867  0.21586800  1.0
  Cr  Cr165  1  0.58548067  0.20479200  0.21586800  1.0
  Cr  Cr166  1  0.58548067  0.53812533  0.21586800  1.0
  Cr  Cr167  1  0.58548067  0.87145867  0.21586800  1.0
  Cr  Cr168  1  0.91881400  0.20479200  0.21586800  1.0
  Cr  Cr169  1  0.91881400  0.53812533  0.21586800  1.0
  Cr  Cr170  1  0.91881400  0.87145867  0.21586800  1.0
  Cr  Cr171  1  0.05555619  0.14494305  0.23699116  1.0
  Cr  Cr172  1  0.05555619  0.47827639  0.23699116  1.0
  Cr  Cr173  1  0.05555619  0.81160972  0.23699116  1.0
  Cr  Cr174  1  0.38888953  0.14494305  0.23699116  1.0
  Cr  Cr175  1  0.38888953  0.47827639  0.23699116  1.0
  Cr  Cr176  1  0.38888953  0.81160972  0.23699116  1.0
  Cr  Cr177  1  0.72222286  0.14494305  0.23699116  1.0
  Cr  Cr178  1  0.72222286  0.47827639  0.23699116  1.0
  Cr  Cr179  1  0.72222286  0.81160972  0.23699116  1.0
  Cr  Cr180  1  0.32988521  0.02693442  0.27864126  1.0
  Cr  Cr181  1  0.32988521  0.36026775  0.27864126  1.0
  Cr  Cr182  1  0.32988521  0.69360109  0.27864126  1.0
  Cr  Cr183  1  0.66321854  0.02693442  0.27864126  1.0
  Cr  Cr184  1  0.66321854  0.36026775  0.27864126  1.0
  Cr  Cr185  1  0.66321854  0.69360109  0.27864126  1.0
  Cr  Cr186  1  0.99655188  0.02693442  0.27864126  1.0
  Cr  Cr187  1  0.99655188  0.36026775  0.27864126  1.0
  Cr  Cr188  1  0.99655188  0.69360109  0.27864126  1.0
  Cr  Cr189  1  0.13329407  0.30041881  0.29976442  1.0
  Cr  Cr190  1  0.13329407  0.63375214  0.29976442  1.0
  Cr  Cr191  1  0.13329407  0.96708547  0.29976442  1.0
  Cr  Cr192  1  0.46662740  0.30041881  0.29976442  1.0
  Cr  Cr193  1  0.46662740  0.63375214  0.29976442  1.0
  Cr  Cr194  1  0.46662740  0.96708547  0.29976442  1.0
  Cr  Cr195  1  0.79996074  0.30041881  0.29976442  1.0
  Cr  Cr196  1  0.79996074  0.63375214  0.29976442  1.0
  Cr  Cr197  1  0.79996074  0.96708547  0.29976442  1.0
  Cr  Cr198  1  0.09425260  0.22233586  0.26849958  1.0
  Cr  Cr199  1  0.09425260  0.55566919  0.26849958  1.0
  Cr  Cr200  1  0.09425260  0.88900253  0.26849958  1.0
  Cr  Cr201  1  0.42758593  0.22233586  0.26849958  1.0
  Cr  Cr202  1  0.42758593  0.55566919  0.26849958  1.0
  Cr  Cr203  1  0.42758593  0.88900253  0.26849958  1.0
  Cr  Cr204  1  0.76091926  0.22233586  0.26849958  1.0
  Cr  Cr205  1  0.76091926  0.55566919  0.26849958  1.0
  Cr  Cr206  1  0.76091926  0.88900253  0.26849958  1.0
  Cr  Cr207  1  0.23099479  0.16248691  0.28962274  1.0
  Cr  Cr208  1  0.23099479  0.49582025  0.28962274  1.0
  Cr  Cr209  1  0.23099479  0.82915358  0.28962274  1.0
  Cr  Cr210  1  0.56432812  0.16248691  0.28962274  1.0
  Cr  Cr211  1  0.56432812  0.49582025  0.28962274  1.0
  Cr  Cr212  1  0.56432812  0.82915358  0.28962274  1.0
  Cr  Cr213  1  0.89766146  0.16248691  0.28962274  1.0
  Cr  Cr214  1  0.89766146  0.49582025  0.28962274  1.0
  Cr  Cr215  1  0.89766146  0.82915358  0.28962274  1.0
  Cr  Cr216  1  0.17199047  0.04447828  0.33127284  1.0
  Cr  Cr217  1  0.17199047  0.37781161  0.33127284  1.0
  Cr  Cr218  1  0.17199047  0.71114495  0.33127284  1.0
  Cr  Cr219  1  0.50532381  0.04447828  0.33127284  1.0
  Cr  Cr220  1  0.50532381  0.37781161  0.33127284  1.0
  Cr  Cr221  1  0.50532381  0.71114495  0.33127284  1.0
  Cr  Cr222  1  0.83865714  0.04447828  0.33127284  1.0
  Cr  Cr223  1  0.83865714  0.37781161  0.33127284  1.0
  Cr  Cr224  1  0.83865714  0.71114495  0.33127284  1.0
  Cr  Cr225  1  0.30873267  0.31796267  0.35239600  1.0
  Cr  Cr226  1  0.30873267  0.65129600  0.35239600  1.0
  Cr  Cr227  1  0.30873267  0.98462933  0.35239600  1.0
  Cr  Cr228  1  0.64206600  0.31796267  0.35239600  1.0
  Cr  Cr229  1  0.64206600  0.65129600  0.35239600  1.0
  Cr  Cr230  1  0.64206600  0.98462933  0.35239600  1.0
  Cr  Cr231  1  0.97539933  0.31796267  0.35239600  1.0
  Cr  Cr232  1  0.97539933  0.65129600  0.35239600  1.0
  Cr  Cr233  1  0.97539933  0.98462933  0.35239600  1.0
  Cr  Cr234  1  0.26969119  0.23987972  0.32113116  1.0
  Cr  Cr235  1  0.26969119  0.57321305  0.32113116  1.0
  Cr  Cr236  1  0.26969119  0.90654639  0.32113116  1.0
  Cr  Cr237  1  0.60302453  0.23987972  0.32113116  1.0
  Cr  Cr238  1  0.60302453  0.57321305  0.32113116  1.0
  Cr  Cr239  1  0.60302453  0.90654639  0.32113116  1.0
  Cr  Cr240  1  0.93635786  0.23987972  0.32113116  1.0
  Cr  Cr241  1  0.93635786  0.57321305  0.32113116  1.0
  Cr  Cr242  1  0.93635786  0.90654639  0.32113116  1.0
  Cr  Cr243  1  0.07310005  0.18003077  0.34225432  1.0
  Cr  Cr244  1  0.07310005  0.51336411  0.34225432  1.0
  Cr  Cr245  1  0.07310005  0.84669744  0.34225432  1.0
  Cr  Cr246  1  0.40643339  0.18003077  0.34225432  1.0
  Cr  Cr247  1  0.40643339  0.51336411  0.34225432  1.0
  Cr  Cr248  1  0.40643339  0.84669744  0.34225432  1.0
  Cr  Cr249  1  0.73976672  0.18003077  0.34225432  1.0
  Cr  Cr250  1  0.73976672  0.51336411  0.34225432  1.0
  Cr  Cr251  1  0.73976672  0.84669744  0.34225432  1.0
  Cr  Cr252  1  0.01409574  0.06202214  0.38390442  1.0
  Cr  Cr253  1  0.01409574  0.39535547  0.38390442  1.0
  Cr  Cr254  1  0.01409574  0.72868881  0.38390442  1.0
  Cr  Cr255  1  0.34742907  0.06202214  0.38390442  1.0
  Cr  Cr256  1  0.34742907  0.39535547  0.38390442  1.0
  Cr  Cr257  1  0.34742907  0.72868881  0.38390442  1.0
  Cr  Cr258  1  0.68076240  0.06202214  0.38390442  1.0
  Cr  Cr259  1  0.68076240  0.39535547  0.38390442  1.0
  Cr  Cr260  1  0.68076240  0.72868881  0.38390442  1.0
  Cr  Cr261  1  0.15083793  0.00217319  0.40502758  1.0
  Cr  Cr262  1  0.15083793  0.33550653  0.40502758  1.0
  Cr  Cr263  1  0.15083793  0.66883986  0.40502758  1.0
  Cr  Cr264  1  0.48417126  0.00217319  0.40502758  1.0
  Cr  Cr265  1  0.48417126  0.33550653  0.40502758  1.0
  Cr  Cr266  1  0.48417126  0.66883986  0.40502758  1.0
  Cr  Cr267  1  0.81750460  0.00217319  0.40502758  1.0
  Cr  Cr268  1  0.81750460  0.33550653  0.40502758  1.0
  Cr  Cr269  1  0.81750460  0.66883986  0.40502758  1.0
  Cr  Cr270  1  0.11179646  0.25742358  0.37376274  1.0
  Cr  Cr271  1  0.11179646  0.59075691  0.37376274  1.0
  Cr  Cr272  1  0.11179646  0.92409025  0.37376274  1.0
  Cr  Cr273  1  0.44512979  0.25742358  0.37376274  1.0
  Cr  Cr274  1  0.44512979  0.59075691  0.37376274  1.0
  Cr  Cr275  1  0.44512979  0.92409025  0.37376274  1.0
  Cr  Cr276  1  0.77846312  0.25742358  0.37376274  1.0
  Cr  Cr277  1  0.77846312  0.59075691  0.37376274  1.0
  Cr  Cr278  1  0.77846312  0.92409025  0.37376274  1.0
  Cr  Cr279  1  0.24853865  0.19757463  0.39488589  1.0
  Cr  Cr280  1  0.24853865  0.53090796  0.39488589  1.0
  Cr  Cr281  1  0.24853865  0.86424130  0.39488589  1.0
  Cr  Cr282  1  0.58187198  0.19757463  0.39488589  1.0
  Cr  Cr283  1  0.58187198  0.53090796  0.39488589  1.0
  Cr  Cr284  1  0.58187198  0.86424130  0.39488589  1.0
  Cr  Cr285  1  0.91520532  0.19757463  0.39488589  1.0
  Cr  Cr286  1  0.91520532  0.53090796  0.39488589  1.0
  Cr  Cr287  1  0.91520532  0.86424130  0.39488589  1.0
  Ni  Ni288  1  0.15763298  0.01576330  0.04728989  1.0
  Ni  Ni289  1  0.15763298  0.34909663  0.04728989  1.0
  Ni  Ni290  1  0.15763298  0.68242996  0.04728989  1.0
  Ni  Ni291  1  0.49096632  0.01576330  0.04728989  1.0
  Ni  Ni292  1  0.49096632  0.34909663  0.04728989  1.0
  Ni  Ni293  1  0.49096632  0.68242996  0.04728989  1.0
  Ni  Ni294  1  0.82429965  0.01576330  0.04728989  1.0
  Ni  Ni295  1  0.82429965  0.34909663  0.04728989  1.0
  Ni  Ni296  1  0.82429965  0.68242996  0.04728989  1.0
  Ni  Ni297  1  0.33307158  0.03330716  0.09992147  1.0
  Ni  Ni298  1  0.33307158  0.36664049  0.09992147  1.0
  Ni  Ni299  1  0.33307158  0.69997382  0.09992147  1.0
  Ni  Ni300  1  0.66640491  0.03330716  0.09992147  1.0
  Ni  Ni301  1  0.66640491  0.36664049  0.09992147  1.0
  Ni  Ni302  1  0.66640491  0.69997382  0.09992147  1.0
  Ni  Ni303  1  0.99973825  0.03330716  0.09992147  1.0
  Ni  Ni304  1  0.99973825  0.36664049  0.09992147  1.0
  Ni  Ni305  1  0.99973825  0.69997382  0.09992147  1.0
  Ni  Ni306  1  0.17517684  0.05085102  0.15255305  1.0
  Ni  Ni307  1  0.17517684  0.38418435  0.15255305  1.0
  Ni  Ni308  1  0.17517684  0.71751768  0.15255305  1.0
  Ni  Ni309  1  0.50851018  0.05085102  0.15255305  1.0
  Ni  Ni310  1  0.50851018  0.38418435  0.15255305  1.0
  Ni  Ni311  1  0.50851018  0.71751768  0.15255305  1.0
  Ni  Ni312  1  0.84184351  0.05085102  0.15255305  1.0
  Ni  Ni313  1  0.84184351  0.38418435  0.15255305  1.0
  Ni  Ni314  1  0.84184351  0.71751768  0.15255305  1.0
  Ni  Ni315  1  0.01728211  0.06839488  0.20518463  1.0
  Ni  Ni316  1  0.01728211  0.40172821  0.20518463  1.0
  Ni  Ni317  1  0.01728211  0.73506154  0.20518463  1.0
  Ni  Ni318  1  0.35061544  0.06839488  0.20518463  1.0
  Ni  Ni319  1  0.35061544  0.40172821  0.20518463  1.0
  Ni  Ni320  1  0.35061544  0.73506154  0.20518463  1.0
  Ni  Ni321  1  0.68394877  0.06839488  0.20518463  1.0
  Ni  Ni322  1  0.68394877  0.40172821  0.20518463  1.0
  Ni  Ni323  1  0.68394877  0.73506154  0.20518463  1.0
  Ni  Ni324  1  0.19272070  0.08593874  0.25781621  1.0
  Ni  Ni325  1  0.19272070  0.41927207  0.25781621  1.0
  Ni  Ni326  1  0.19272070  0.75260540  0.25781621  1.0
  Ni  Ni327  1  0.52605404  0.08593874  0.25781621  1.0
  Ni  Ni328  1  0.52605404  0.41927207  0.25781621  1.0
  Ni  Ni329  1  0.52605404  0.75260540  0.25781621  1.0
  Ni  Ni330  1  0.85938737  0.08593874  0.25781621  1.0
  Ni  Ni331  1  0.85938737  0.41927207  0.25781621  1.0
  Ni  Ni332  1  0.85938737  0.75260540  0.25781621  1.0
  Ni  Ni333  1  0.03482596  0.10348260  0.31044779  1.0
  Ni  Ni334  1  0.03482596  0.43681593  0.31044779  1.0
  Ni  Ni335  1  0.03482596  0.77014926  0.31044779  1.0
  Ni  Ni336  1  0.36815930  0.10348260  0.31044779  1.0
  Ni  Ni337  1  0.36815930  0.43681593  0.31044779  1.0
  Ni  Ni338  1  0.36815930  0.77014926  0.31044779  1.0
  Ni  Ni339  1  0.70149263  0.10348260  0.31044779  1.0
  Ni  Ni340  1  0.70149263  0.43681593  0.31044779  1.0
  Ni  Ni341  1  0.70149263  0.77014926  0.31044779  1.0
  Ni  Ni342  1  0.21026456  0.12102646  0.36307937  1.0
  Ni  Ni343  1  0.21026456  0.45435979  0.36307937  1.0
  Ni  Ni344  1  0.21026456  0.78769312  0.36307937  1.0
  Ni  Ni345  1  0.54359789  0.12102646  0.36307937  1.0
  Ni  Ni346  1  0.54359789  0.45435979  0.36307937  1.0
  Ni  Ni347  1  0.54359789  0.78769312  0.36307937  1.0
  Ni  Ni348  1  0.87693123  0.12102646  0.36307937  1.0
  Ni  Ni349  1  0.87693123  0.45435979  0.36307937  1.0
  Ni  Ni350  1  0.87693123  0.78769312  0.36307937  1.0
  Ni  Ni351  1  0.05236982  0.13857032  0.41571095  1.0
  Ni  Ni352  1  0.05236982  0.47190365  0.41571095  1.0
  Ni  Ni353  1  0.05236982  0.80523698  0.41571095  1.0
  Ni  Ni354  1  0.38570316  0.13857032  0.41571095  1.0
  Ni  Ni355  1  0.38570316  0.47190365  0.41571095  1.0
  Ni  Ni356  1  0.38570316  0.80523698  0.41571095  1.0
  Ni  Ni357  1  0.71903649  0.13857032  0.41571095  1.0
  Ni  Ni358  1  0.71903649  0.47190365  0.41571095  1.0
  Ni  Ni359  1  0.71903649  0.80523698  0.41571095  1.0
