# generated using pymatgen
data_Cr4Ni
_symmetry_space_group_name_H-M   'P 1'
_cell_length_a   30.45671736
_cell_length_b   32.64724969
_cell_length_c   43.86137220
_cell_angle_alpha   68.36356839
_cell_angle_beta   85.13514546
_cell_angle_gamma   21.10804070
_symmetry_Int_Tables_number   1
_chemical_formula_structural   Cr4Ni
_chemical_formula_sum   'Cr252 Ni63'
_cell_volume   9240.41586995
_cell_formula_units_Z   63
loop_
 _symmetry_equiv_pos_site_id
 _symmetry_equiv_pos_as_xyz
  1  'x, y, z'
loop_
 _atom_site_type_symbol
 _atom_site_label
 _atom_site_symmetry_multiplicity
 _atom_site_fract_x
 _atom_site_fract_y
 _atom_site_fract_z
 _atom_site_occupancy
  Cr  Cr0  1  0.19963967  0.19963967  0.03906906  1.0
  Cr  Cr1  1  0.19963967  0.53297300  0.03906906  1.0
  Cr  Cr2  1  0.19963967  0.86630633  0.03906906  1.0
  Cr  Cr3  1  0.53297300  0.19963967  0.03906906  1.0
  Cr  Cr4  1  0.53297300  0.53297300  0.03906906  1.0
  Cr  Cr5  1  0.53297300  0.86630633  0.03906906  1.0
  Cr  Cr6  1  0.86630633  0.19963967  0.03906906  1.0
  Cr  Cr7  1  0.86630633  0.53297300  0.03906906  1.0
  Cr  Cr8  1  0.86630633  0.86630633  0.03906906  1.0
  Cr  Cr9  1  0.06641800  0.06641800  0.02792072  1.0
  Cr  Cr10  1  0.06641800  0.39975133  0.02792072  1.0
  Cr  Cr11  1  0.06641800  0.73308467  0.02792072  1.0
  Cr  Cr12  1  0.39975133  0.06641800  0.02792072  1.0
  Cr  Cr13  1  0.39975133  0.39975133  0.02792072  1.0
  Cr  Cr14  1  0.39975133  0.73308467  0.02792072  1.0
  Cr  Cr15  1  0.73308467  0.06641800  0.02792072  1.0
  Cr  Cr16  1  0.73308467  0.39975133  0.02792072  1.0
  Cr  Cr17  1  0.73308467  0.73308467  0.02792072  1.0
  Cr  Cr18  1  0.26691533  0.26691533  0.01664383  1.0
  Cr  Cr19  1  0.26691533  0.60024867  0.01664383  1.0
  Cr  Cr20  1  0.26691533  0.93358200  0.01664383  1.0
  Cr  Cr21  1  0.60024867  0.26691533  0.01664383  1.0
  Cr  Cr22  1  0.60024867  0.60024867  0.01664383  1.0
  Cr  Cr23  1  0.60024867  0.93358200  0.01664383  1.0
  Cr  Cr24  1  0.93358200  0.26691533  0.01664383  1.0
  Cr  Cr25  1  0.93358200  0.60024867  0.01664383  1.0
  Cr  Cr26  1  0.93358200  0.93358200  0.01664383  1.0
  Cr  Cr27  1  0.13369367  0.13369367  0.00549550  1.0
  Cr  Cr28  1  0.13369367  0.46702700  0.00549550  1.0
  Cr  Cr29  1  0.13369367  0.80036033  0.00549550  1.0
  Cr  Cr30  1  0.46702700  0.13369367  0.00549550  1.0
  Cr  Cr31  1  0.46702700  0.46702700  0.00549550  1.0
  Cr  Cr32  1  0.46702700  0.80036033  0.00549550  1.0
  Cr  Cr33  1  0.80036033  0.13369367  0.00549550  1.0
  Cr  Cr34  1  0.80036033  0.46702700  0.00549550  1.0
  Cr  Cr35  1  0.80036033  0.80036033  0.00549550  1.0
  Ni  Ni36  1  0.00000000  0.00000000  0.05006006  1.0
  Ni  Ni37  1  0.00000000  0.33333333  0.05006006  1.0
  Ni  Ni38  1  0.00000000  0.66666667  0.05006006  1.0
  Ni  Ni39  1  0.33333333  0.00000000  0.05006006  1.0
  Ni  Ni40  1  0.33333333  0.33333333  0.05006006  1.0
  Ni  Ni41  1  0.33333333  0.66666667  0.05006006  1.0
  Ni  Ni42  1  0.66666667  0.00000000  0.05006006  1.0
  Ni  Ni43  1  0.66666667  0.33333333  0.05006006  1.0
  Ni  Ni44  1  0.66666667  0.66666667  0.05006006  1.0
  Cr  Cr45  1  0.19963967  0.19963967  0.09462461  1.0
  Cr  Cr46  1  0.19963967  0.53297300  0.09462461  1.0
  Cr  Cr47  1  0.19963967  0.86630633  0.09462461  1.0
  Cr  Cr48  1  0.53297300  0.19963967  0.09462461  1.0
  Cr  Cr49  1  0.53297300  0.53297300  0.09462461  1.0
  Cr  Cr50  1  0.53297300  0.86630633  0.09462461  1.0
  Cr  Cr51  1  0.86630633  0.19963967  0.09462461  1.0
  Cr  Cr52  1  0.86630633  0.53297300  0.09462461  1.0
  Cr  Cr53  1  0.86630633  0.86630633  0.09462461  1.0
  Cr  Cr54  1  0.06641800  0.06641800  0.08347628  1.0
  Cr  Cr55  1  0.06641800  0.39975133  0.08347628  1.0
  Cr  Cr56  1  0.06641800  0.73308467  0.08347628  1.0
  Cr  Cr57  1  0.39975133  0.06641800  0.08347628  1.0
  Cr  Cr58  1  0.39975133  0.39975133  0.08347628  1.0
  Cr  Cr59  1  0.39975133  0.73308467  0.08347628  1.0
  Cr  Cr60  1  0.73308467  0.06641800  0.08347628  1.0
  Cr  Cr61  1  0.73308467  0.39975133  0.08347628  1.0
  Cr  Cr62  1  0.73308467  0.73308467  0.08347628  1.0
  Cr  Cr63  1  0.26691533  0.26691533  0.07219939  1.0
  Cr  Cr64  1  0.26691533  0.60024867  0.07219939  1.0
  Cr  Cr65  1  0.26691533  0.93358200  0.07219939  1.0
  Cr  Cr66  1  0.60024867  0.26691533  0.07219939  1.0
  Cr  Cr67  1  0.60024867  0.60024867  0.07219939  1.0
  Cr  Cr68  1  0.60024867  0.93358200  0.07219939  1.0
  Cr  Cr69  1  0.93358200  0.26691533  0.07219939  1.0
  Cr  Cr70  1  0.93358200  0.60024867  0.07219939  1.0
  Cr  Cr71  1  0.93358200  0.93358200  0.07219939  1.0
  Cr  Cr72  1  0.13369367  0.13369367  0.06105106  1.0
  Cr  Cr73  1  0.13369367  0.46702700  0.06105106  1.0
  Cr  Cr74  1  0.13369367  0.80036033  0.06105106  1.0
  Cr  Cr75  1  0.46702700  0.13369367  0.06105106  1.0
  Cr  Cr76  1  0.46702700  0.46702700  0.06105106  1.0
  Cr  Cr77  1  0.46702700  0.80036033  0.06105106  1.0
  Cr  Cr78  1  0.80036033  0.13369367  0.06105106  1.0
  Cr  Cr79  1  0.80036033  0.46702700  0.06105106  1.0
  Cr  Cr80  1  0.80036033  0.80036033  0.06105106  1.0
  Ni  Ni81  1  0.00000000  0.00000000  0.10561561  1.0
  Ni  Ni82  1  0.00000000  0.33333333  0.10561561  1.0
  Ni  Ni83  1  0.00000000  0.66666667  0.10561561  1.0
  Ni  Ni84  1  0.33333333  0.00000000  0.10561561  1.0
  Ni  Ni85  1  0.33333333  0.33333333  0.10561561  1.0
  Ni  Ni86  1  0.33333333  0.66666667  0.10561561  1.0
  Ni  Ni87  1  0.66666667  0.00000000  0.10561561  1.0
  Ni  Ni88  1  0.66666667  0.33333333  0.10561561  1.0
  Ni  Ni89  1  0.66666667  0.66666667  0.10561561  1.0
  Cr  Cr90  1  0.19963967  0.19963967  0.15018017  1.0
  Cr  Cr91  1  0.19963967  0.53297300  0.15018017  1.0
  Cr  Cr92  1  0.19963967  0.86630633  0.15018017  1.0
  Cr  Cr93  1  0.53297300  0.19963967  0.15018017  1.0
  Cr  Cr94  1  0.53297300  0.53297300  0.15018017  1.0
  Cr  Cr95  1  0.53297300  0.86630633  0.15018017  1.0
  Cr  Cr96  1  0.86630633  0.19963967  0.15018017  1.0
  Cr  Cr97  1  0.86630633  0.53297300  0.15018017  1.0
  Cr  Cr98  1  0.86630633  0.86630633  0.15018017  1.0
  Cr  Cr99  1  0.06641800  0.06641800  0.13903183  1.0
  Cr  Cr100  1  0.06641800  0.39975133  0.13903183  1.0
  Cr  Cr101  1  0.06641800  0.73308467  0.13903183  1.0
  Cr  Cr102  1  0.39975133  0.06641800  0.13903183  1.0
  Cr  Cr103  1  0.39975133  0.39975133  0.13903183  1.0
  Cr  Cr104  1  0.39975133  0.73308467  0.13903183  1.0
  Cr  Cr105  1  0.73308467  0.06641800  0.13903183  1.0
  Cr  Cr106  1  0.73308467  0.39975133  0.13903183  1.0
  Cr  Cr107  1  0.73308467  0.73308467  0.13903183  1.0
  Cr  Cr108  1  0.26691533  0.26691533  0.12775494  1.0
  Cr  Cr109  1  0.26691533  0.60024867  0.12775494  1.0
  Cr  Cr110  1  0.26691533  0.93358200  0.12775494  1.0
  Cr  Cr111  1  0.60024867  0.26691533  0.12775494  1.0
  Cr  Cr112  1  0.60024867  0.60024867  0.12775494  1.0
  Cr  Cr113  1  0.60024867  0.93358200  0.12775494  1.0
  Cr  Cr114  1  0.93358200  0.26691533  0.12775494  1.0
  Cr  Cr115  1  0.93358200  0.60024867  0.12775494  1.0
  Cr  Cr116  1  0.93358200  0.93358200  0.12775494  1.0
  Cr  Cr117  1  0.13369367  0.13369367  0.11660661  1.0
  Cr  Cr118  1  0.13369367  0.46702700  0.11660661  1.0
  Cr  Cr119  1  0.13369367  0.80036033  0.11660661  1.0
  Cr  Cr120  1  0.46702700  0.13369367  0.11660661  1.0
  Cr  Cr121  1  0.46702700  0.46702700  0.11660661  1.0
  Cr  Cr122  1  0.46702700  0.80036033  0.11660661  1.0
  Cr  Cr123  1  0.80036033  0.13369367  0.11660661  1.0
  Cr  Cr124  1  0.80036033  0.46702700  0.11660661  1.0
  Cr  Cr125  1  0.80036033  0.80036033  0.11660661  1.0
  Ni  Ni126  1  0.00000000  0.00000000  0.16117117  1.0
  Ni  Ni127  1  0.00000000  0.33333333  0.16117117  1.0
  Ni  Ni128  1  0.00000000  0.66666667  0.16117117  1.0
  Ni  Ni129  1  0.33333333  0.00000000  0.16117117  1.0
  Ni  Ni130  1  0.33333333  0.33333333  0.16117117  1.0
  Ni  Ni131  1  0.33333333  0.66666667  0.16117117  1.0
  Ni  Ni132  1  0.66666667  0.00000000  0.16117117  1.0
  Ni  Ni133  1  0.66666667  0.33333333  0.16117117  1.0
  Ni  Ni134  1  0.66666667  0.66666667  0.16117117  1.0
  Cr  Cr135  1  0.19963967  0.19963967  0.20573572  1.0
  Cr  Cr136  1  0.19963967  0.53297300  0.20573572  1.0
  Cr  Cr137  1  0.19963967  0.86630633  0.20573572  1.0
  Cr  Cr138  1  0.53297300  0.19963967  0.20573572  1.0
  Cr  Cr139  1  0.53297300  0.53297300  0.20573572  1.0
  Cr  Cr140  1  0.53297300  0.86630633  0.20573572  1.0
  Cr  Cr141  1  0.86630633  0.19963967  0.20573572  1.0
  Cr  Cr142  1  0.86630633  0.53297300  0.20573572  1.0
  Cr  Cr143  1  0.86630633  0.86630633  0.20573572  1.0
  Cr  Cr144  1  0.06641800  0.06641800  0.19458739  1.0
  Cr  Cr145  1  0.06641800  0.39975133  0.19458739  1.0
  Cr  Cr146  1  0.06641800  0.73308467  0.19458739  1.0
  Cr  Cr147  1  0.39975133  0.06641800  0.19458739  1.0
  Cr  Cr148  1  0.39975133  0.39975133  0.19458739  1.0
  Cr  Cr149  1  0.39975133  0.73308467  0.19458739  1.0
  Cr  Cr150  1  0.73308467  0.06641800  0.19458739  1.0
  Cr  Cr151  1  0.73308467  0.39975133  0.19458739  1.0
  Cr  Cr152  1  0.73308467  0.73308467  0.19458739  1.0
  Cr  Cr153  1  0.26691533  0.26691533  0.18331050  1.0
  Cr  Cr154  1  0.26691533  0.60024867  0.18331050  1.0
  Cr  Cr155  1  0.26691533  0.93358200  0.18331050  1.0
  Cr  Cr156  1  0.60024867  0.26691533  0.18331050  1.0
  Cr  Cr157  1  0.60024867  0.60024867  0.18331050  1.0
  Cr  Cr158  1  0.60024867  0.93358200  0.18331050  1.0
  Cr  Cr159  1  0.93358200  0.26691533  0.18331050  1.0
  Cr  Cr160  1  0.93358200  0.60024867  0.18331050  1.0
  Cr  Cr161  1  0.93358200  0.93358200  0.18331050  1.0
  Cr  Cr162  1  0.13369367  0.13369367  0.17216217  1.0
  Cr  Cr163  1  0.13369367  0.46702700  0.17216217  1.0
  Cr  Cr164  1  0.13369367  0.80036033  0.17216217  1.0
  Cr  Cr165  1  0.46702700  0.13369367  0.17216217  1.0
  Cr  Cr166  1  0.46702700  0.46702700  0.17216217  1.0
  Cr  Cr167  1  0.46702700  0.80036033  0.17216217  1.0
  Cr  Cr168  1  0.80036033  0.13369367  0.17216217  1.0
  Cr  Cr169  1  0.80036033  0.46702700  0.17216217  1.0
  Cr  Cr170  1  0.80036033  0.80036033  0.17216217  1.0
  Ni  Ni171  1  0.00000000  0.00000000  0.21672672  1.0
  Ni  Ni172  1  0.00000000  0.33333333  0.21672672  1.0
  Ni  Ni173  1  0.00000000  0.66666667  0.21672672  1.0
  Ni  Ni174  1  0.33333333  0.00000000  0.21672672  1.0
  Ni  Ni175  1  0.33333333  0.33333333  0.21672672  1.0
  Ni  Ni176  1  0.33333333  0.66666667  0.21672672  1.0
  Ni  Ni177  1  0.66666667  0.00000000  0.21672672  1.0
  Ni  Ni178  1  0.66666667  0.33333333  0.21672672  1.0
  Ni  Ni179  1  0.66666667  0.66666667  0.21672672  1.0
  Cr  Cr180  1  0.19963967  0.19963967  0.26129128  1.0
  Cr  Cr181  1  0.19963967  0.53297300  0.26129128  1.0
  Cr  Cr182  1  0.19963967  0.86630633  0.26129128  1.0
  Cr  Cr183  1  0.53297300  0.19963967  0.26129128  1.0
  Cr  Cr184  1  0.53297300  0.53297300  0.26129128  1.0
  Cr  Cr185  1  0.53297300  0.86630633  0.26129128  1.0
  Cr  Cr186  1  0.86630633  0.19963967  0.26129128  1.0
  Cr  Cr187  1  0.86630633  0.53297300  0.26129128  1.0
  Cr  Cr188  1  0.86630633  0.86630633  0.26129128  1.0
  Cr  Cr189  1  0.06641800  0.06641800  0.25014294  1.0
  Cr  Cr190  1  0.06641800  0.39975133  0.25014294  1.0
  Cr  Cr191  1  0.06641800  0.73308467  0.25014294  1.0
  Cr  Cr192  1  0.39975133  0.06641800  0.25014294  1.0
  Cr  Cr193  1  0.39975133  0.39975133  0.25014294  1.0
  Cr  Cr194  1  0.39975133  0.73308467  0.25014294  1.0
  Cr  Cr195  1  0.73308467  0.06641800  0.25014294  1.0
  Cr  Cr196  1  0.73308467  0.39975133  0.25014294  1.0
  Cr  Cr197  1  0.73308467  0.73308467  0.25014294  1.0
  Cr  Cr198  1  0.26691533  0.26691533  0.23886606  1.0
  Cr  Cr199  1  0.26691533  0.60024867  0.23886606  1.0
  Cr  Cr200  1  0.26691533  0.93358200  0.23886606  1.0
  Cr  Cr201  1  0.60024867  0.26691533  0.23886606  1.0
  Cr  Cr202  1  0.60024867  0.60024867  0.23886606  1.0
  Cr  Cr203  1  0.60024867  0.93358200  0.23886606  1.0
  Cr  Cr204  1  0.93358200  0.26691533  0.23886606  1.0
  Cr  Cr205  1  0.93358200  0.60024867  0.23886606  1.0
  Cr  Cr206  1  0.93358200  0.93358200  0.23886606  1.0
  Cr  Cr207  1  0.13369367  0.13369367  0.22771772  1.0
  Cr  Cr208  1  0.13369367  0.46702700  0.22771772  1.0
  Cr  Cr209  1  0.13369367  0.80036033  0.22771772  1.0
  Cr  Cr210  1  0.46702700  0.13369367  0.22771772  1.0
  Cr  Cr211  1  0.46702700  0.46702700  0.22771772  1.0
  Cr  Cr212  1  0.46702700  0.80036033  0.22771772  1.0
  Cr  Cr213  1  0.80036033  0.13369367  0.22771772  1.0
  Cr  Cr214  1  0.80036033  0.46702700  0.22771772  1.0
  Cr  Cr215  1  0.80036033  0.80036033  0.22771772  1.0
  Ni  Ni216  1  0.00000000  0.00000000  0.27228228  1.0
  Ni  Ni217  1  0.00000000  0.33333333  0.27228228  1.0
  Ni  Ni218  1  0.00000000  0.66666667  0.27228228  1.0
  Ni  Ni219  1  0.33333333  0.00000000  0.27228228  1.0
  Ni  Ni220  1  0.33333333  0.33333333  0.27228228  1.0
  Ni  Ni221  1  0.33333333  0.66666667  0.27228228  1.0
  Ni  Ni222  1  0.66666667  0.00000000  0.27228228  1.0
  Ni  Ni223  1  0.66666667  0.33333333  0.27228228  1.0
  Ni  Ni224  1  0.66666667  0.66666667  0.27228228  1.0
  Cr  Cr225  1  0.19963967  0.19963967  0.31684683  1.0
  Cr  Cr226  1  0.19963967  0.53297300  0.31684683  1.0
  Cr  Cr227  1  0.19963967  0.86630633  0.31684683  1.0
  Cr  Cr228  1  0.53297300  0.19963967  0.31684683  1.0
  Cr  Cr229  1  0.53297300  0.53297300  0.31684683  1.0
  Cr  Cr230  1  0.53297300  0.86630633  0.31684683  1.0
  Cr  Cr231  1  0.86630633  0.19963967  0.31684683  1.0
  Cr  Cr232  1  0.86630633  0.53297300  0.31684683  1.0
  Cr  Cr233  1  0.86630633  0.86630633  0.31684683  1.0
  Cr  Cr234  1  0.06641800  0.06641800  0.30569850  1.0
  Cr  Cr235  1  0.06641800  0.39975133  0.30569850  1.0
  Cr  Cr236  1  0.06641800  0.73308467  0.30569850  1.0
  Cr  Cr237  1  0.39975133  0.06641800  0.30569850  1.0
  Cr  Cr238  1  0.39975133  0.39975133  0.30569850  1.0
  Cr  Cr239  1  0.39975133  0.73308467  0.30569850  1.0
  Cr  Cr240  1  0.73308467  0.06641800  0.30569850  1.0
  Cr  Cr241  1  0.73308467  0.39975133  0.30569850  1.0
  Cr  Cr242  1  0.73308467  0.73308467  0.30569850  1.0
  Cr  Cr243  1  0.26691533  0.26691533  0.29442161  1.0
  Cr  Cr244  1  0.26691533  0.60024867  0.29442161  1.0
  Cr  Cr245  1  0.26691533  0.93358200  0.29442161  1.0
  Cr  Cr246  1  0.60024867  0.26691533  0.29442161  1.0
  Cr  Cr247  1  0.60024867  0.60024867  0.29442161  1.0
  Cr  Cr248  1  0.60024867  0.93358200  0.29442161  1.0
  Cr  Cr249  1  0.93358200  0.26691533  0.29442161  1.0
  Cr  Cr250  1  0.93358200  0.60024867  0.29442161  1.0
  Cr  Cr251  1  0.93358200  0.93358200  0.29442161  1.0
  Cr  Cr252  1  0.13369367  0.13369367  0.28327328  1.0
  Cr  Cr253  1  0.13369367  0.46702700  0.28327328  1.0
  Cr  Cr254  1  0.13369367  0.80036033  0.28327328  1.0
  Cr  Cr255  1  0.46702700  0.13369367  0.28327328  1.0
  Cr  Cr256  1  0.46702700  0.46702700  0.28327328  1.0
  Cr  Cr257  1  0.46702700  0.80036033  0.28327328  1.0
  Cr  Cr258  1  0.80036033  0.13369367  0.28327328  1.0
  Cr  Cr259  1  0.80036033  0.46702700  0.28327328  1.0
  Cr  Cr260  1  0.80036033  0.80036033  0.28327328  1.0
  Ni  Ni261  1  0.00000000  0.00000000  0.32783783  1.0
  Ni  Ni262  1  0.00000000  0.33333333  0.32783783  1.0
  Ni  Ni263  1  0.00000000  0.66666667  0.32783783  1.0
  Ni  Ni264  1  0.33333333  0.00000000  0.32783783  1.0
  Ni  Ni265  1  0.33333333  0.33333333  0.32783783  1.0
  Ni  Ni266  1  0.33333333  0.66666667  0.32783783  1.0
  Ni  Ni267  1  0.66666667  0.00000000  0.32783783  1.0
  Ni  Ni268  1  0.66666667  0.33333333  0.32783783  1.0
  Ni  Ni269  1  0.66666667  0.66666667  0.32783783  1.0
  Cr  Cr270  1  0.19963967  0.19963967  0.37240239  1.0
  Cr  Cr271  1  0.19963967  0.53297300  0.37240239  1.0
  Cr  Cr272  1  0.19963967  0.86630633  0.37240239  1.0
  Cr  Cr273  1  0.53297300  0.19963967  0.37240239  1.0
  Cr  Cr274  1  0.53297300  0.53297300  0.37240239  1.0
  Cr  Cr275  1  0.53297300  0.86630633  0.37240239  1.0
  Cr  Cr276  1  0.86630633  0.19963967  0.37240239  1.0
  Cr  Cr277  1  0.86630633  0.53297300  0.37240239  1.0
  Cr  Cr278  1  0.86630633  0.86630633  0.37240239  1.0
  Cr  Cr279  1  0.06641800  0.06641800  0.36125406  1.0
  Cr  Cr280  1  0.06641800  0.39975133  0.36125406  1.0
  Cr  Cr281  1  0.06641800  0.73308467  0.36125406  1.0
  Cr  Cr282  1  0.39975133  0.06641800  0.36125406  1.0
  Cr  Cr283  1  0.39975133  0.39975133  0.36125406  1.0
  Cr  Cr284  1  0.39975133  0.73308467  0.36125406  1.0
  Cr  Cr285  1  0.73308467  0.06641800  0.36125406  1.0
  Cr  Cr286  1  0.73308467  0.39975133  0.36125406  1.0
  Cr  Cr287  1  0.73308467  0.73308467  0.36125406  1.0
  Cr  Cr288  1  0.26691533  0.26691533  0.34997717  1.0
  Cr  Cr289  1  0.26691533  0.60024867  0.34997717  1.0
  Cr  Cr290  1  0.26691533  0.93358200  0.34997717  1.0
  Cr  Cr291  1  0.60024867  0.26691533  0.34997717  1.0
  Cr  Cr292  1  0.60024867  0.60024867  0.34997717  1.0
  Cr  Cr293  1  0.60024867  0.93358200  0.34997717  1.0
  Cr  Cr294  1  0.93358200  0.26691533  0.34997717  1.0
  Cr  Cr295  1  0.93358200  0.60024867  0.34997717  1.0
  Cr  Cr296  1  0.93358200  0.93358200  0.34997717  1.0
  Cr  Cr297  1  0.13369367  0.13369367  0.33882883  1.0
  Cr  Cr298  1  0.13369367  0.46702700  0.33882883  1.0
  Cr  Cr299  1  0.13369367  0.80036033  0.33882883  1.0
  Cr  Cr300  1  0.46702700  0.13369367  0.33882883  1.0
  Cr  Cr301  1  0.46702700  0.46702700  0.33882883  1.0
  Cr  Cr302  1  0.46702700  0.80036033  0.33882883  1.0
  Cr  Cr303  1  0.80036033  0.13369367  0.33882883  1.0
  Cr  Cr304  1  0.80036033  0.46702700  0.33882883  1.0
  Cr  Cr305  1  0.80036033  0.80036033  0.33882883  1.0
  Ni  Ni306  1  0.00000000  0.00000000  0.38339339  1.0
  Ni  Ni307  1  0.00000000  0.33333333  0.38339339  1.0
  Ni  Ni308  1  0.00000000  0.66666667  0.38339339  1.0
  Ni  Ni309  1  0.33333333  0.00000000  0.38339339  1.0
  Ni  Ni310  1  0.33333333  0.33333333  0.38339339  1.0
  Ni  Ni311  1  0.33333333  0.66666667  0.38339339  1.0
  Ni  Ni312  1  0.66666667  0.00000000  0.38339339  1.0
  Ni  Ni313  1  0.66666667  0.33333333  0.38339339  1.0
  Ni  Ni314  1  0.66666667  0.66666667  0.38339339  1.0
