# generated using pymatgen
data_Cr4Ni
_symmetry_space_group_name_H-M   'P 1'
_cell_length_a   20.98421442
_cell_length_b   31.91887092
_cell_length_c   26.19316239
_cell_angle_alpha   87.54170645
_cell_angle_beta   82.50234407
_cell_angle_gamma   70.80939882
_symmetry_Int_Tables_number   1
_chemical_formula_structural   Cr4Ni
_chemical_formula_sum   'Cr468 Ni117'
_cell_volume   16427.40599102
_cell_formula_units_Z   117
loop_
 _symmetry_equiv_pos_site_id
 _symmetry_equiv_pos_as_xyz
  1  'x, y, z'
loop_
 _atom_site_type_symbol
 _atom_site_label
 _atom_site_symmetry_multiplicity
 _atom_site_fract_x
 _atom_site_fract_y
 _atom_site_fract_z
 _atom_site_occupancy
  Cr  Cr0  1  0.25693133  0.26738733  0.98437500  1.0
  Cr  Cr1  1  0.25693133  0.60072067  0.98437500  1.0
  Cr  Cr2  1  0.25693133  0.93405400  0.98437500  1.0
  Cr  Cr3  1  0.59026467  0.26738733  0.98437500  1.0
  Cr  Cr4  1  0.59026467  0.60072067  0.98437500  1.0
  Cr  Cr5  1  0.59026467  0.93405400  0.98437500  1.0
  Cr  Cr6  1  0.92359800  0.26738733  0.98437500  1.0
  Cr  Cr7  1  0.92359800  0.60072067  0.98437500  1.0
  Cr  Cr8  1  0.92359800  0.93405400  0.98437500  1.0
  Cr  Cr9  1  0.12370967  0.20049733  0.98437500  1.0
  Cr  Cr10  1  0.12370967  0.53383067  0.98437500  1.0
  Cr  Cr11  1  0.12370967  0.86716400  0.98437500  1.0
  Cr  Cr12  1  0.45704300  0.20049733  0.98437500  1.0
  Cr  Cr13  1  0.45704300  0.53383067  0.98437500  1.0
  Cr  Cr14  1  0.45704300  0.86716400  0.98437500  1.0
  Cr  Cr15  1  0.79037633  0.20049733  0.98437500  1.0
  Cr  Cr16  1  0.79037633  0.53383067  0.98437500  1.0
  Cr  Cr17  1  0.79037633  0.86716400  0.98437500  1.0
  Cr  Cr18  1  0.32420700  0.13283600  0.98437500  1.0
  Cr  Cr19  1  0.32420700  0.46616933  0.98437500  1.0
  Cr  Cr20  1  0.32420700  0.79950267  0.98437500  1.0
  Cr  Cr21  1  0.65754033  0.13283600  0.98437500  1.0
  Cr  Cr22  1  0.65754033  0.46616933  0.98437500  1.0
  Cr  Cr23  1  0.65754033  0.79950267  0.98437500  1.0
  Cr  Cr24  1  0.99087367  0.13283600  0.98437500  1.0
  Cr  Cr25  1  0.99087367  0.46616933  0.98437500  1.0
  Cr  Cr26  1  0.99087367  0.79950267  0.98437500  1.0
  Cr  Cr27  1  0.19098533  0.06594600  0.98437500  1.0
  Cr  Cr28  1  0.19098533  0.39927933  0.98437500  1.0
  Cr  Cr29  1  0.19098533  0.73261267  0.98437500  1.0
  Cr  Cr30  1  0.52431867  0.06594600  0.98437500  1.0
  Cr  Cr31  1  0.52431867  0.39927933  0.98437500  1.0
  Cr  Cr32  1  0.52431867  0.73261267  0.98437500  1.0
  Cr  Cr33  1  0.85765200  0.06594600  0.98437500  1.0
  Cr  Cr34  1  0.85765200  0.39927933  0.98437500  1.0
  Cr  Cr35  1  0.85765200  0.73261267  0.98437500  1.0
  Cr  Cr36  1  0.03818133  0.26738733  0.95312500  1.0
  Cr  Cr37  1  0.03818133  0.60072067  0.95312500  1.0
  Cr  Cr38  1  0.03818133  0.93405400  0.95312500  1.0
  Cr  Cr39  1  0.37151467  0.26738733  0.95312500  1.0
  Cr  Cr40  1  0.37151467  0.60072067  0.95312500  1.0
  Cr  Cr41  1  0.37151467  0.93405400  0.95312500  1.0
  Cr  Cr42  1  0.70484800  0.26738733  0.95312500  1.0
  Cr  Cr43  1  0.70484800  0.60072067  0.95312500  1.0
  Cr  Cr44  1  0.70484800  0.93405400  0.95312500  1.0
  Cr  Cr45  1  0.23829300  0.20049733  0.95312500  1.0
  Cr  Cr46  1  0.23829300  0.53383067  0.95312500  1.0
  Cr  Cr47  1  0.23829300  0.86716400  0.95312500  1.0
  Cr  Cr48  1  0.57162633  0.20049733  0.95312500  1.0
  Cr  Cr49  1  0.57162633  0.53383067  0.95312500  1.0
  Cr  Cr50  1  0.57162633  0.86716400  0.95312500  1.0
  Cr  Cr51  1  0.90495967  0.20049733  0.95312500  1.0
  Cr  Cr52  1  0.90495967  0.53383067  0.95312500  1.0
  Cr  Cr53  1  0.90495967  0.86716400  0.95312500  1.0
  Cr  Cr54  1  0.10545700  0.13283600  0.95312500  1.0
  Cr  Cr55  1  0.10545700  0.46616933  0.95312500  1.0
  Cr  Cr56  1  0.10545700  0.79950267  0.95312500  1.0
  Cr  Cr57  1  0.43879033  0.13283600  0.95312500  1.0
  Cr  Cr58  1  0.43879033  0.46616933  0.95312500  1.0
  Cr  Cr59  1  0.43879033  0.79950267  0.95312500  1.0
  Cr  Cr60  1  0.77212367  0.13283600  0.95312500  1.0
  Cr  Cr61  1  0.77212367  0.46616933  0.95312500  1.0
  Cr  Cr62  1  0.77212367  0.79950267  0.95312500  1.0
  Cr  Cr63  1  0.30556867  0.06594600  0.95312500  1.0
  Cr  Cr64  1  0.30556867  0.39927933  0.95312500  1.0
  Cr  Cr65  1  0.30556867  0.73261267  0.95312500  1.0
  Cr  Cr66  1  0.63890200  0.06594600  0.95312500  1.0
  Cr  Cr67  1  0.63890200  0.39927933  0.95312500  1.0
  Cr  Cr68  1  0.63890200  0.73261267  0.95312500  1.0
  Cr  Cr69  1  0.97223533  0.06594600  0.95312500  1.0
  Cr  Cr70  1  0.97223533  0.39927933  0.95312500  1.0
  Cr  Cr71  1  0.97223533  0.73261267  0.95312500  1.0
  Cr  Cr72  1  0.15276467  0.26738733  0.92187500  1.0
  Cr  Cr73  1  0.15276467  0.60072067  0.92187500  1.0
  Cr  Cr74  1  0.15276467  0.93405400  0.92187500  1.0
  Cr  Cr75  1  0.48609800  0.26738733  0.92187500  1.0
  Cr  Cr76  1  0.48609800  0.60072067  0.92187500  1.0
  Cr  Cr77  1  0.48609800  0.93405400  0.92187500  1.0
  Cr  Cr78  1  0.81943133  0.26738733  0.92187500  1.0
  Cr  Cr79  1  0.81943133  0.60072067  0.92187500  1.0
  Cr  Cr80  1  0.81943133  0.93405400  0.92187500  1.0
  Cr  Cr81  1  0.01954300  0.20049733  0.92187500  1.0
  Cr  Cr82  1  0.01954300  0.53383067  0.92187500  1.0
  Cr  Cr83  1  0.01954300  0.86716400  0.92187500  1.0
  Cr  Cr84  1  0.35287633  0.20049733  0.92187500  1.0
  Cr  Cr85  1  0.35287633  0.53383067  0.92187500  1.0
  Cr  Cr86  1  0.35287633  0.86716400  0.92187500  1.0
  Cr  Cr87  1  0.68620967  0.20049733  0.92187500  1.0
  Cr  Cr88  1  0.68620967  0.53383067  0.92187500  1.0
  Cr  Cr89  1  0.68620967  0.86716400  0.92187500  1.0
  Cr  Cr90  1  0.22004033  0.13283600  0.92187500  1.0
  Cr  Cr91  1  0.22004033  0.46616933  0.92187500  1.0
  Cr  Cr92  1  0.22004033  0.79950267  0.92187500  1.0
  Cr  Cr93  1  0.55337367  0.13283600  0.92187500  1.0
  Cr  Cr94  1  0.55337367  0.46616933  0.92187500  1.0
  Cr  Cr95  1  0.55337367  0.79950267  0.92187500  1.0
  Cr  Cr96  1  0.88670700  0.13283600  0.92187500  1.0
  Cr  Cr97  1  0.88670700  0.46616933  0.92187500  1.0
  Cr  Cr98  1  0.88670700  0.79950267  0.92187500  1.0
  Cr  Cr99  1  0.08681867  0.06594600  0.92187500  1.0
  Cr  Cr100  1  0.08681867  0.39927933  0.92187500  1.0
  Cr  Cr101  1  0.08681867  0.73261267  0.92187500  1.0
  Cr  Cr102  1  0.42015200  0.06594600  0.92187500  1.0
  Cr  Cr103  1  0.42015200  0.39927933  0.92187500  1.0
  Cr  Cr104  1  0.42015200  0.73261267  0.92187500  1.0
  Cr  Cr105  1  0.75348533  0.06594600  0.92187500  1.0
  Cr  Cr106  1  0.75348533  0.39927933  0.92187500  1.0
  Cr  Cr107  1  0.75348533  0.73261267  0.92187500  1.0
  Cr  Cr108  1  0.26734800  0.26738733  0.89062500  1.0
  Cr  Cr109  1  0.26734800  0.60072067  0.89062500  1.0
  Cr  Cr110  1  0.26734800  0.93405400  0.89062500  1.0
  Cr  Cr111  1  0.60068133  0.26738733  0.89062500  1.0
  Cr  Cr112  1  0.60068133  0.60072067  0.89062500  1.0
  Cr  Cr113  1  0.60068133  0.93405400  0.89062500  1.0
  Cr  Cr114  1  0.93401467  0.26738733  0.89062500  1.0
  Cr  Cr115  1  0.93401467  0.60072067  0.89062500  1.0
  Cr  Cr116  1  0.93401467  0.93405400  0.89062500  1.0
  Cr  Cr117  1  0.13412633  0.20049733  0.89062500  1.0
  Cr  Cr118  1  0.13412633  0.53383067  0.89062500  1.0
  Cr  Cr119  1  0.13412633  0.86716400  0.89062500  1.0
  Cr  Cr120  1  0.46745967  0.20049733  0.89062500  1.0
  Cr  Cr121  1  0.46745967  0.53383067  0.89062500  1.0
  Cr  Cr122  1  0.46745967  0.86716400  0.89062500  1.0
  Cr  Cr123  1  0.80079300  0.20049733  0.89062500  1.0
  Cr  Cr124  1  0.80079300  0.53383067  0.89062500  1.0
  Cr  Cr125  1  0.80079300  0.86716400  0.89062500  1.0
  Cr  Cr126  1  0.00129033  0.13283600  0.89062500  1.0
  Cr  Cr127  1  0.00129033  0.46616933  0.89062500  1.0
  Cr  Cr128  1  0.00129033  0.79950267  0.89062500  1.0
  Cr  Cr129  1  0.33462367  0.13283600  0.89062500  1.0
  Cr  Cr130  1  0.33462367  0.46616933  0.89062500  1.0
  Cr  Cr131  1  0.33462367  0.79950267  0.89062500  1.0
  Cr  Cr132  1  0.66795700  0.13283600  0.89062500  1.0
  Cr  Cr133  1  0.66795700  0.46616933  0.89062500  1.0
  Cr  Cr134  1  0.66795700  0.79950267  0.89062500  1.0
  Cr  Cr135  1  0.20140200  0.06594600  0.89062500  1.0
  Cr  Cr136  1  0.20140200  0.39927933  0.89062500  1.0
  Cr  Cr137  1  0.20140200  0.73261267  0.89062500  1.0
  Cr  Cr138  1  0.53473533  0.06594600  0.89062500  1.0
  Cr  Cr139  1  0.53473533  0.39927933  0.89062500  1.0
  Cr  Cr140  1  0.53473533  0.73261267  0.89062500  1.0
  Cr  Cr141  1  0.86806867  0.06594600  0.89062500  1.0
  Cr  Cr142  1  0.86806867  0.39927933  0.89062500  1.0
  Cr  Cr143  1  0.86806867  0.73261267  0.89062500  1.0
  Cr  Cr144  1  0.04859800  0.26738733  0.85937500  1.0
  Cr  Cr145  1  0.04859800  0.60072067  0.85937500  1.0
  Cr  Cr146  1  0.04859800  0.93405400  0.85937500  1.0
  Cr  Cr147  1  0.38193133  0.26738733  0.85937500  1.0
  Cr  Cr148  1  0.38193133  0.60072067  0.85937500  1.0
  Cr  Cr149  1  0.38193133  0.93405400  0.85937500  1.0
  Cr  Cr150  1  0.71526467  0.26738733  0.85937500  1.0
  Cr  Cr151  1  0.71526467  0.60072067  0.85937500  1.0
  Cr  Cr152  1  0.71526467  0.93405400  0.85937500  1.0
  Cr  Cr153  1  0.24870967  0.20049733  0.85937500  1.0
  Cr  Cr154  1  0.24870967  0.53383067  0.85937500  1.0
  Cr  Cr155  1  0.24870967  0.86716400  0.85937500  1.0
  Cr  Cr156  1  0.58204300  0.20049733  0.85937500  1.0
  Cr  Cr157  1  0.58204300  0.53383067  0.85937500  1.0
  Cr  Cr158  1  0.58204300  0.86716400  0.85937500  1.0
  Cr  Cr159  1  0.91537633  0.20049733  0.85937500  1.0
  Cr  Cr160  1  0.91537633  0.53383067  0.85937500  1.0
  Cr  Cr161  1  0.91537633  0.86716400  0.85937500  1.0
  Cr  Cr162  1  0.11587367  0.13283600  0.85937500  1.0
  Cr  Cr163  1  0.11587367  0.46616933  0.85937500  1.0
  Cr  Cr164  1  0.11587367  0.79950267  0.85937500  1.0
  Cr  Cr165  1  0.44920700  0.13283600  0.85937500  1.0
  Cr  Cr166  1  0.44920700  0.46616933  0.85937500  1.0
  Cr  Cr167  1  0.44920700  0.79950267  0.85937500  1.0
  Cr  Cr168  1  0.78254033  0.13283600  0.85937500  1.0
  Cr  Cr169  1  0.78254033  0.46616933  0.85937500  1.0
  Cr  Cr170  1  0.78254033  0.79950267  0.85937500  1.0
  Cr  Cr171  1  0.31598533  0.06594600  0.85937500  1.0
  Cr  Cr172  1  0.31598533  0.39927933  0.85937500  1.0
  Cr  Cr173  1  0.31598533  0.73261267  0.85937500  1.0
  Cr  Cr174  1  0.64931867  0.06594600  0.85937500  1.0
  Cr  Cr175  1  0.64931867  0.39927933  0.85937500  1.0
  Cr  Cr176  1  0.64931867  0.73261267  0.85937500  1.0
  Cr  Cr177  1  0.98265200  0.06594600  0.85937500  1.0
  Cr  Cr178  1  0.98265200  0.39927933  0.85937500  1.0
  Cr  Cr179  1  0.98265200  0.73261267  0.85937500  1.0
  Cr  Cr180  1  0.16318133  0.26738733  0.82812500  1.0
  Cr  Cr181  1  0.16318133  0.60072067  0.82812500  1.0
  Cr  Cr182  1  0.16318133  0.93405400  0.82812500  1.0
  Cr  Cr183  1  0.49651467  0.26738733  0.82812500  1.0
  Cr  Cr184  1  0.49651467  0.60072067  0.82812500  1.0
  Cr  Cr185  1  0.49651467  0.93405400  0.82812500  1.0
  Cr  Cr186  1  0.82984800  0.26738733  0.82812500  1.0
  Cr  Cr187  1  0.82984800  0.60072067  0.82812500  1.0
  Cr  Cr188  1  0.82984800  0.93405400  0.82812500  1.0
  Cr  Cr189  1  0.02995967  0.20049733  0.82812500  1.0
  Cr  Cr190  1  0.02995967  0.53383067  0.82812500  1.0
  Cr  Cr191  1  0.02995967  0.86716400  0.82812500  1.0
  Cr  Cr192  1  0.36329300  0.20049733  0.82812500  1.0
  Cr  Cr193  1  0.36329300  0.53383067  0.82812500  1.0
  Cr  Cr194  1  0.36329300  0.86716400  0.82812500  1.0
  Cr  Cr195  1  0.69662633  0.20049733  0.82812500  1.0
  Cr  Cr196  1  0.69662633  0.53383067  0.82812500  1.0
  Cr  Cr197  1  0.69662633  0.86716400  0.82812500  1.0
  Cr  Cr198  1  0.23045700  0.13283600  0.82812500  1.0
  Cr  Cr199  1  0.23045700  0.46616933  0.82812500  1.0
  Cr  Cr200  1  0.23045700  0.79950267  0.82812500  1.0
  Cr  Cr201  1  0.56379033  0.13283600  0.82812500  1.0
  Cr  Cr202  1  0.56379033  0.46616933  0.82812500  1.0
  Cr  Cr203  1  0.56379033  0.79950267  0.82812500  1.0
  Cr  Cr204  1  0.89712367  0.13283600  0.82812500  1.0
  Cr  Cr205  1  0.89712367  0.46616933  0.82812500  1.0
  Cr  Cr206  1  0.89712367  0.79950267  0.82812500  1.0
  Cr  Cr207  1  0.09723533  0.06594600  0.82812500  1.0
  Cr  Cr208  1  0.09723533  0.39927933  0.82812500  1.0
  Cr  Cr209  1  0.09723533  0.73261267  0.82812500  1.0
  Cr  Cr210  1  0.43056867  0.06594600  0.82812500  1.0
  Cr  Cr211  1  0.43056867  0.39927933  0.82812500  1.0
  Cr  Cr212  1  0.43056867  0.73261267  0.82812500  1.0
  Cr  Cr213  1  0.76390200  0.06594600  0.82812500  1.0
  Cr  Cr214  1  0.76390200  0.39927933  0.82812500  1.0
  Cr  Cr215  1  0.76390200  0.73261267  0.82812500  1.0
  Cr  Cr216  1  0.27776467  0.26738733  0.79687500  1.0
  Cr  Cr217  1  0.27776467  0.60072067  0.79687500  1.0
  Cr  Cr218  1  0.27776467  0.93405400  0.79687500  1.0
  Cr  Cr219  1  0.61109800  0.26738733  0.79687500  1.0
  Cr  Cr220  1  0.61109800  0.60072067  0.79687500  1.0
  Cr  Cr221  1  0.61109800  0.93405400  0.79687500  1.0
  Cr  Cr222  1  0.94443133  0.26738733  0.79687500  1.0
  Cr  Cr223  1  0.94443133  0.60072067  0.79687500  1.0
  Cr  Cr224  1  0.94443133  0.93405400  0.79687500  1.0
  Cr  Cr225  1  0.14454300  0.20049733  0.79687500  1.0
  Cr  Cr226  1  0.14454300  0.53383067  0.79687500  1.0
  Cr  Cr227  1  0.14454300  0.86716400  0.79687500  1.0
  Cr  Cr228  1  0.47787633  0.20049733  0.79687500  1.0
  Cr  Cr229  1  0.47787633  0.53383067  0.79687500  1.0
  Cr  Cr230  1  0.47787633  0.86716400  0.79687500  1.0
  Cr  Cr231  1  0.81120967  0.20049733  0.79687500  1.0
  Cr  Cr232  1  0.81120967  0.53383067  0.79687500  1.0
  Cr  Cr233  1  0.81120967  0.86716400  0.79687500  1.0
  Cr  Cr234  1  0.01170700  0.13283600  0.79687500  1.0
  Cr  Cr235  1  0.01170700  0.46616933  0.79687500  1.0
  Cr  Cr236  1  0.01170700  0.79950267  0.79687500  1.0
  Cr  Cr237  1  0.34504033  0.13283600  0.79687500  1.0
  Cr  Cr238  1  0.34504033  0.46616933  0.79687500  1.0
  Cr  Cr239  1  0.34504033  0.79950267  0.79687500  1.0
  Cr  Cr240  1  0.67837367  0.13283600  0.79687500  1.0
  Cr  Cr241  1  0.67837367  0.46616933  0.79687500  1.0
  Cr  Cr242  1  0.67837367  0.79950267  0.79687500  1.0
  Cr  Cr243  1  0.21181867  0.06594600  0.79687500  1.0
  Cr  Cr244  1  0.21181867  0.39927933  0.79687500  1.0
  Cr  Cr245  1  0.21181867  0.73261267  0.79687500  1.0
  Cr  Cr246  1  0.54515200  0.06594600  0.79687500  1.0
  Cr  Cr247  1  0.54515200  0.39927933  0.79687500  1.0
  Cr  Cr248  1  0.54515200  0.73261267  0.79687500  1.0
  Cr  Cr249  1  0.87848533  0.06594600  0.79687500  1.0
  Cr  Cr250  1  0.87848533  0.39927933  0.79687500  1.0
  Cr  Cr251  1  0.87848533  0.73261267  0.79687500  1.0
  Cr  Cr252  1  0.05901467  0.26738733  0.76562500  1.0
  Cr  Cr253  1  0.05901467  0.60072067  0.76562500  1.0
  Cr  Cr254  1  0.05901467  0.93405400  0.76562500  1.0
  Cr  Cr255  1  0.39234800  0.26738733  0.76562500  1.0
  Cr  Cr256  1  0.39234800  0.60072067  0.76562500  1.0
  Cr  Cr257  1  0.39234800  0.93405400  0.76562500  1.0
  Cr  Cr258  1  0.72568133  0.26738733  0.76562500  1.0
  Cr  Cr259  1  0.72568133  0.60072067  0.76562500  1.0
  Cr  Cr260  1  0.72568133  0.93405400  0.76562500  1.0
  Cr  Cr261  1  0.25912633  0.20049733  0.76562500  1.0
  Cr  Cr262  1  0.25912633  0.53383067  0.76562500  1.0
  Cr  Cr263  1  0.25912633  0.86716400  0.76562500  1.0
  Cr  Cr264  1  0.59245967  0.20049733  0.76562500  1.0
  Cr  Cr265  1  0.59245967  0.53383067  0.76562500  1.0
  Cr  Cr266  1  0.59245967  0.86716400  0.76562500  1.0
  Cr  Cr267  1  0.92579300  0.20049733  0.76562500  1.0
  Cr  Cr268  1  0.92579300  0.53383067  0.76562500  1.0
  Cr  Cr269  1  0.92579300  0.86716400  0.76562500  1.0
  Cr  Cr270  1  0.12629033  0.13283600  0.76562500  1.0
  Cr  Cr271  1  0.12629033  0.46616933  0.76562500  1.0
  Cr  Cr272  1  0.12629033  0.79950267  0.76562500  1.0
  Cr  Cr273  1  0.45962367  0.13283600  0.76562500  1.0
  Cr  Cr274  1  0.45962367  0.46616933  0.76562500  1.0
  Cr  Cr275  1  0.45962367  0.79950267  0.76562500  1.0
  Cr  Cr276  1  0.79295700  0.13283600  0.76562500  1.0
  Cr  Cr277  1  0.79295700  0.46616933  0.76562500  1.0
  Cr  Cr278  1  0.79295700  0.79950267  0.76562500  1.0
  Cr  Cr279  1  0.32640200  0.06594600  0.76562500  1.0
  Cr  Cr280  1  0.32640200  0.39927933  0.76562500  1.0
  Cr  Cr281  1  0.32640200  0.73261267  0.76562500  1.0
  Cr  Cr282  1  0.65973533  0.06594600  0.76562500  1.0
  Cr  Cr283  1  0.65973533  0.39927933  0.76562500  1.0
  Cr  Cr284  1  0.65973533  0.73261267  0.76562500  1.0
  Cr  Cr285  1  0.99306867  0.06594600  0.76562500  1.0
  Cr  Cr286  1  0.99306867  0.39927933  0.76562500  1.0
  Cr  Cr287  1  0.99306867  0.73261267  0.76562500  1.0
  Cr  Cr288  1  0.17359800  0.26738733  0.73437500  1.0
  Cr  Cr289  1  0.17359800  0.60072067  0.73437500  1.0
  Cr  Cr290  1  0.17359800  0.93405400  0.73437500  1.0
  Cr  Cr291  1  0.50693133  0.26738733  0.73437500  1.0
  Cr  Cr292  1  0.50693133  0.60072067  0.73437500  1.0
  Cr  Cr293  1  0.50693133  0.93405400  0.73437500  1.0
  Cr  Cr294  1  0.84026467  0.26738733  0.73437500  1.0
  Cr  Cr295  1  0.84026467  0.60072067  0.73437500  1.0
  Cr  Cr296  1  0.84026467  0.93405400  0.73437500  1.0
  Cr  Cr297  1  0.04037633  0.20049733  0.73437500  1.0
  Cr  Cr298  1  0.04037633  0.53383067  0.73437500  1.0
  Cr  Cr299  1  0.04037633  0.86716400  0.73437500  1.0
  Cr  Cr300  1  0.37370967  0.20049733  0.73437500  1.0
  Cr  Cr301  1  0.37370967  0.53383067  0.73437500  1.0
  Cr  Cr302  1  0.37370967  0.86716400  0.73437500  1.0
  Cr  Cr303  1  0.70704300  0.20049733  0.73437500  1.0
  Cr  Cr304  1  0.70704300  0.53383067  0.73437500  1.0
  Cr  Cr305  1  0.70704300  0.86716400  0.73437500  1.0
  Cr  Cr306  1  0.24087367  0.13283600  0.73437500  1.0
  Cr  Cr307  1  0.24087367  0.46616933  0.73437500  1.0
  Cr  Cr308  1  0.24087367  0.79950267  0.73437500  1.0
  Cr  Cr309  1  0.57420700  0.13283600  0.73437500  1.0
  Cr  Cr310  1  0.57420700  0.46616933  0.73437500  1.0
  Cr  Cr311  1  0.57420700  0.79950267  0.73437500  1.0
  Cr  Cr312  1  0.90754033  0.13283600  0.73437500  1.0
  Cr  Cr313  1  0.90754033  0.46616933  0.73437500  1.0
  Cr  Cr314  1  0.90754033  0.79950267  0.73437500  1.0
  Cr  Cr315  1  0.10765200  0.06594600  0.73437500  1.0
  Cr  Cr316  1  0.10765200  0.39927933  0.73437500  1.0
  Cr  Cr317  1  0.10765200  0.73261267  0.73437500  1.0
  Cr  Cr318  1  0.44098533  0.06594600  0.73437500  1.0
  Cr  Cr319  1  0.44098533  0.39927933  0.73437500  1.0
  Cr  Cr320  1  0.44098533  0.73261267  0.73437500  1.0
  Cr  Cr321  1  0.77431867  0.06594600  0.73437500  1.0
  Cr  Cr322  1  0.77431867  0.39927933  0.73437500  1.0
  Cr  Cr323  1  0.77431867  0.73261267  0.73437500  1.0
  Cr  Cr324  1  0.28818133  0.26738733  0.70312500  1.0
  Cr  Cr325  1  0.28818133  0.60072067  0.70312500  1.0
  Cr  Cr326  1  0.28818133  0.93405400  0.70312500  1.0
  Cr  Cr327  1  0.62151467  0.26738733  0.70312500  1.0
  Cr  Cr328  1  0.62151467  0.60072067  0.70312500  1.0
  Cr  Cr329  1  0.62151467  0.93405400  0.70312500  1.0
  Cr  Cr330  1  0.95484800  0.26738733  0.70312500  1.0
  Cr  Cr331  1  0.95484800  0.60072067  0.70312500  1.0
  Cr  Cr332  1  0.95484800  0.93405400  0.70312500  1.0
  Cr  Cr333  1  0.15495967  0.20049733  0.70312500  1.0
  Cr  Cr334  1  0.15495967  0.53383067  0.70312500  1.0
  Cr  Cr335  1  0.15495967  0.86716400  0.70312500  1.0
  Cr  Cr336  1  0.48829300  0.20049733  0.70312500  1.0
  Cr  Cr337  1  0.48829300  0.53383067  0.70312500  1.0
  Cr  Cr338  1  0.48829300  0.86716400  0.70312500  1.0
  Cr  Cr339  1  0.82162633  0.20049733  0.70312500  1.0
  Cr  Cr340  1  0.82162633  0.53383067  0.70312500  1.0
  Cr  Cr341  1  0.82162633  0.86716400  0.70312500  1.0
  Cr  Cr342  1  0.02212367  0.13283600  0.70312500  1.0
  Cr  Cr343  1  0.02212367  0.46616933  0.70312500  1.0
  Cr  Cr344  1  0.02212367  0.79950267  0.70312500  1.0
  Cr  Cr345  1  0.35545700  0.13283600  0.70312500  1.0
  Cr  Cr346  1  0.35545700  0.46616933  0.70312500  1.0
  Cr  Cr347  1  0.35545700  0.79950267  0.70312500  1.0
  Cr  Cr348  1  0.68879033  0.13283600  0.70312500  1.0
  Cr  Cr349  1  0.68879033  0.46616933  0.70312500  1.0
  Cr  Cr350  1  0.68879033  0.79950267  0.70312500  1.0
  Cr  Cr351  1  0.22223533  0.06594600  0.70312500  1.0
  Cr  Cr352  1  0.22223533  0.39927933  0.70312500  1.0
  Cr  Cr353  1  0.22223533  0.73261267  0.70312500  1.0
  Cr  Cr354  1  0.55556867  0.06594600  0.70312500  1.0
  Cr  Cr355  1  0.55556867  0.39927933  0.70312500  1.0
  Cr  Cr356  1  0.55556867  0.73261267  0.70312500  1.0
  Cr  Cr357  1  0.88890200  0.06594600  0.70312500  1.0
  Cr  Cr358  1  0.88890200  0.39927933  0.70312500  1.0
  Cr  Cr359  1  0.88890200  0.73261267  0.70312500  1.0
  Cr  Cr360  1  0.06943133  0.26738733  0.67187500  1.0
  Cr  Cr361  1  0.06943133  0.60072067  0.67187500  1.0
  Cr  Cr362  1  0.06943133  0.93405400  0.67187500  1.0
  Cr  Cr363  1  0.40276467  0.26738733  0.67187500  1.0
  Cr  Cr364  1  0.40276467  0.60072067  0.67187500  1.0
  Cr  Cr365  1  0.40276467  0.93405400  0.67187500  1.0
  Cr  Cr366  1  0.73609800  0.26738733  0.67187500  1.0
  Cr  Cr367  1  0.73609800  0.60072067  0.67187500  1.0
  Cr  Cr368  1  0.73609800  0.93405400  0.67187500  1.0
  Cr  Cr369  1  0.26954300  0.20049733  0.67187500  1.0
  Cr  Cr370  1  0.26954300  0.53383067  0.67187500  1.0
  Cr  Cr371  1  0.26954300  0.86716400  0.67187500  1.0
  Cr  Cr372  1  0.60287633  0.20049733  0.67187500  1.0
  Cr  Cr373  1  0.60287633  0.53383067  0.67187500  1.0
  Cr  Cr374  1  0.60287633  0.86716400  0.67187500  1.0
  Cr  Cr375  1  0.93620967  0.20049733  0.67187500  1.0
  Cr  Cr376  1  0.93620967  0.53383067  0.67187500  1.0
  Cr  Cr377  1  0.93620967  0.86716400  0.67187500  1.0
  Cr  Cr378  1  0.13670700  0.13283600  0.67187500  1.0
  Cr  Cr379  1  0.13670700  0.46616933  0.67187500  1.0
  Cr  Cr380  1  0.13670700  0.79950267  0.67187500  1.0
  Cr  Cr381  1  0.47004033  0.13283600  0.67187500  1.0
  Cr  Cr382  1  0.47004033  0.46616933  0.67187500  1.0
  Cr  Cr383  1  0.47004033  0.79950267  0.67187500  1.0
  Cr  Cr384  1  0.80337367  0.13283600  0.67187500  1.0
  Cr  Cr385  1  0.80337367  0.46616933  0.67187500  1.0
  Cr  Cr386  1  0.80337367  0.79950267  0.67187500  1.0
  Cr  Cr387  1  0.00348533  0.06594600  0.67187500  1.0
  Cr  Cr388  1  0.00348533  0.39927933  0.67187500  1.0
  Cr  Cr389  1  0.00348533  0.73261267  0.67187500  1.0
  Cr  Cr390  1  0.33681867  0.06594600  0.67187500  1.0
  Cr  Cr391  1  0.33681867  0.39927933  0.67187500  1.0
  Cr  Cr392  1  0.33681867  0.73261267  0.67187500  1.0
  Cr  Cr393  1  0.67015200  0.06594600  0.67187500  1.0
  Cr  Cr394  1  0.67015200  0.39927933  0.67187500  1.0
  Cr  Cr395  1  0.67015200  0.73261267  0.67187500  1.0
  Cr  Cr396  1  0.18401467  0.26738733  0.64062500  1.0
  Cr  Cr397  1  0.18401467  0.60072067  0.64062500  1.0
  Cr  Cr398  1  0.18401467  0.93405400  0.64062500  1.0
  Cr  Cr399  1  0.51734800  0.26738733  0.64062500  1.0
  Cr  Cr400  1  0.51734800  0.60072067  0.64062500  1.0
  Cr  Cr401  1  0.51734800  0.93405400  0.64062500  1.0
  Cr  Cr402  1  0.85068133  0.26738733  0.64062500  1.0
  Cr  Cr403  1  0.85068133  0.60072067  0.64062500  1.0
  Cr  Cr404  1  0.85068133  0.93405400  0.64062500  1.0
  Cr  Cr405  1  0.05079300  0.20049733  0.64062500  1.0
  Cr  Cr406  1  0.05079300  0.53383067  0.64062500  1.0
  Cr  Cr407  1  0.05079300  0.86716400  0.64062500  1.0
  Cr  Cr408  1  0.38412633  0.20049733  0.64062500  1.0
  Cr  Cr409  1  0.38412633  0.53383067  0.64062500  1.0
  Cr  Cr410  1  0.38412633  0.86716400  0.64062500  1.0
  Cr  Cr411  1  0.71745967  0.20049733  0.64062500  1.0
  Cr  Cr412  1  0.71745967  0.53383067  0.64062500  1.0
  Cr  Cr413  1  0.71745967  0.86716400  0.64062500  1.0
  Cr  Cr414  1  0.25129033  0.13283600  0.64062500  1.0
  Cr  Cr415  1  0.25129033  0.46616933  0.64062500  1.0
  Cr  Cr416  1  0.25129033  0.79950267  0.64062500  1.0
  Cr  Cr417  1  0.58462367  0.13283600  0.64062500  1.0
  Cr  Cr418  1  0.58462367  0.46616933  0.64062500  1.0
  Cr  Cr419  1  0.58462367  0.79950267  0.64062500  1.0
  Cr  Cr420  1  0.91795700  0.13283600  0.64062500  1.0
  Cr  Cr421  1  0.91795700  0.46616933  0.64062500  1.0
  Cr  Cr422  1  0.91795700  0.79950267  0.64062500  1.0
  Cr  Cr423  1  0.11806867  0.06594600  0.64062500  1.0
  Cr  Cr424  1  0.11806867  0.39927933  0.64062500  1.0
  Cr  Cr425  1  0.11806867  0.73261267  0.64062500  1.0
  Cr  Cr426  1  0.45140200  0.06594600  0.64062500  1.0
  Cr  Cr427  1  0.45140200  0.39927933  0.64062500  1.0
  Cr  Cr428  1  0.45140200  0.73261267  0.64062500  1.0
  Cr  Cr429  1  0.78473533  0.06594600  0.64062500  1.0
  Cr  Cr430  1  0.78473533  0.39927933  0.64062500  1.0
  Cr  Cr431  1  0.78473533  0.73261267  0.64062500  1.0
  Cr  Cr432  1  0.29859800  0.26738733  0.60937500  1.0
  Cr  Cr433  1  0.29859800  0.60072067  0.60937500  1.0
  Cr  Cr434  1  0.29859800  0.93405400  0.60937500  1.0
  Cr  Cr435  1  0.63193133  0.26738733  0.60937500  1.0
  Cr  Cr436  1  0.63193133  0.60072067  0.60937500  1.0
  Cr  Cr437  1  0.63193133  0.93405400  0.60937500  1.0
  Cr  Cr438  1  0.96526467  0.26738733  0.60937500  1.0
  Cr  Cr439  1  0.96526467  0.60072067  0.60937500  1.0
  Cr  Cr440  1  0.96526467  0.93405400  0.60937500  1.0
  Cr  Cr441  1  0.16537633  0.20049733  0.60937500  1.0
  Cr  Cr442  1  0.16537633  0.53383067  0.60937500  1.0
  Cr  Cr443  1  0.16537633  0.86716400  0.60937500  1.0
  Cr  Cr444  1  0.49870967  0.20049733  0.60937500  1.0
  Cr  Cr445  1  0.49870967  0.53383067  0.60937500  1.0
  Cr  Cr446  1  0.49870967  0.86716400  0.60937500  1.0
  Cr  Cr447  1  0.83204300  0.20049733  0.60937500  1.0
  Cr  Cr448  1  0.83204300  0.53383067  0.60937500  1.0
  Cr  Cr449  1  0.83204300  0.86716400  0.60937500  1.0
  Cr  Cr450  1  0.03254033  0.13283600  0.60937500  1.0
  Cr  Cr451  1  0.03254033  0.46616933  0.60937500  1.0
  Cr  Cr452  1  0.03254033  0.79950267  0.60937500  1.0
  Cr  Cr453  1  0.36587367  0.13283600  0.60937500  1.0
  Cr  Cr454  1  0.36587367  0.46616933  0.60937500  1.0
  Cr  Cr455  1  0.36587367  0.79950267  0.60937500  1.0
  Cr  Cr456  1  0.69920700  0.13283600  0.60937500  1.0
  Cr  Cr457  1  0.69920700  0.46616933  0.60937500  1.0
  Cr  Cr458  1  0.69920700  0.79950267  0.60937500  1.0
  Cr  Cr459  1  0.23265200  0.06594600  0.60937500  1.0
  Cr  Cr460  1  0.23265200  0.39927933  0.60937500  1.0
  Cr  Cr461  1  0.23265200  0.73261267  0.60937500  1.0
  Cr  Cr462  1  0.56598533  0.06594600  0.60937500  1.0
  Cr  Cr463  1  0.56598533  0.39927933  0.60937500  1.0
  Cr  Cr464  1  0.56598533  0.73261267  0.60937500  1.0
  Cr  Cr465  1  0.89931867  0.06594600  0.60937500  1.0
  Cr  Cr466  1  0.89931867  0.39927933  0.60937500  1.0
  Cr  Cr467  1  0.89931867  0.73261267  0.60937500  1.0
  Ni  Ni468  1  0.05729167  0.33333333  0.98437500  1.0
  Ni  Ni469  1  0.05729167  0.66666667  0.98437500  1.0
  Ni  Ni470  1  0.05729167  1.00000000  0.98437500  1.0
  Ni  Ni471  1  0.39062500  0.33333333  0.98437500  1.0
  Ni  Ni472  1  0.39062500  0.66666667  0.98437500  1.0
  Ni  Ni473  1  0.39062500  1.00000000  0.98437500  1.0
  Ni  Ni474  1  0.72395833  0.33333333  0.98437500  1.0
  Ni  Ni475  1  0.72395833  0.66666667  0.98437500  1.0
  Ni  Ni476  1  0.72395833  1.00000000  0.98437500  1.0
  Ni  Ni477  1  0.17187500  0.33333333  0.95312500  1.0
  Ni  Ni478  1  0.17187500  0.66666667  0.95312500  1.0
  Ni  Ni479  1  0.17187500  1.00000000  0.95312500  1.0
  Ni  Ni480  1  0.50520833  0.33333333  0.95312500  1.0
  Ni  Ni481  1  0.50520833  0.66666667  0.95312500  1.0
  Ni  Ni482  1  0.50520833  1.00000000  0.95312500  1.0
  Ni  Ni483  1  0.83854167  0.33333333  0.95312500  1.0
  Ni  Ni484  1  0.83854167  0.66666667  0.95312500  1.0
  Ni  Ni485  1  0.83854167  1.00000000  0.95312500  1.0
  Ni  Ni486  1  0.28645833  0.33333333  0.92187500  1.0
  Ni  Ni487  1  0.28645833  0.66666667  0.92187500  1.0
  Ni  Ni488  1  0.28645833  1.00000000  0.92187500  1.0
  Ni  Ni489  1  0.61979167  0.33333333  0.92187500  1.0
  Ni  Ni490  1  0.61979167  0.66666667  0.92187500  1.0
  Ni  Ni491  1  0.61979167  1.00000000  0.92187500  1.0
  Ni  Ni492  1  0.95312500  0.33333333  0.92187500  1.0
  Ni  Ni493  1  0.95312500  0.66666667  0.92187500  1.0
  Ni  Ni494  1  0.95312500  1.00000000  0.92187500  1.0
  Ni  Ni495  1  0.06770833  0.33333333  0.89062500  1.0
  Ni  Ni496  1  0.06770833  0.66666667  0.89062500  1.0
  Ni  Ni497  1  0.06770833  1.00000000  0.89062500  1.0
  Ni  Ni498  1  0.40104167  0.33333333  0.89062500  1.0
  Ni  Ni499  1  0.40104167  0.66666667  0.89062500  1.0
  Ni  Ni500  1  0.40104167  1.00000000  0.89062500  1.0
  Ni  Ni501  1  0.73437500  0.33333333  0.89062500  1.0
  Ni  Ni502  1  0.73437500  0.66666667  0.89062500  1.0
  Ni  Ni503  1  0.73437500  1.00000000  0.89062500  1.0
  Ni  Ni504  1  0.18229167  0.33333333  0.85937500  1.0
  Ni  Ni505  1  0.18229167  0.66666667  0.85937500  1.0
  Ni  Ni506  1  0.18229167  1.00000000  0.85937500  1.0
  Ni  Ni507  1  0.51562500  0.33333333  0.85937500  1.0
  Ni  Ni508  1  0.51562500  0.66666667  0.85937500  1.0
  Ni  Ni509  1  0.51562500  1.00000000  0.85937500  1.0
  Ni  Ni510  1  0.84895833  0.33333333  0.85937500  1.0
  Ni  Ni511  1  0.84895833  0.66666667  0.85937500  1.0
  Ni  Ni512  1  0.84895833  1.00000000  0.85937500  1.0
  Ni  Ni513  1  0.29687500  0.33333333  0.82812500  1.0
  Ni  Ni514  1  0.29687500  0.66666667  0.82812500  1.0
  Ni  Ni515  1  0.29687500  1.00000000  0.82812500  1.0
  Ni  Ni516  1  0.63020833  0.33333333  0.82812500  1.0
  Ni  Ni517  1  0.63020833  0.66666667  0.82812500  1.0
  Ni  Ni518  1  0.63020833  1.00000000  0.82812500  1.0
  Ni  Ni519  1  0.96354167  0.33333333  0.82812500  1.0
  Ni  Ni520  1  0.96354167  0.66666667  0.82812500  1.0
  Ni  Ni521  1  0.96354167  1.00000000  0.82812500  1.0
  Ni  Ni522  1  0.07812500  0.33333333  0.79687500  1.0
  Ni  Ni523  1  0.07812500  0.66666667  0.79687500  1.0
  Ni  Ni524  1  0.07812500  1.00000000  0.79687500  1.0
  Ni  Ni525  1  0.41145833  0.33333333  0.79687500  1.0
  Ni  Ni526  1  0.41145833  0.66666667  0.79687500  1.0
  Ni  Ni527  1  0.41145833  1.00000000  0.79687500  1.0
  Ni  Ni528  1  0.74479167  0.33333333  0.79687500  1.0
  Ni  Ni529  1  0.74479167  0.66666667  0.79687500  1.0
  Ni  Ni530  1  0.74479167  1.00000000  0.79687500  1.0
  Ni  Ni531  1  0.19270833  0.33333333  0.76562500  1.0
  Ni  Ni532  1  0.19270833  0.66666667  0.76562500  1.0
  Ni  Ni533  1  0.19270833  1.00000000  0.76562500  1.0
  Ni  Ni534  1  0.52604167  0.33333333  0.76562500  1.0
  Ni  Ni535  1  0.52604167  0.66666667  0.76562500  1.0
  Ni  Ni536  1  0.52604167  1.00000000  0.76562500  1.0
  Ni  Ni537  1  0.85937500  0.33333333  0.76562500  1.0
  Ni  Ni538  1  0.85937500  0.66666667  0.76562500  1.0
  Ni  Ni539  1  0.85937500  1.00000000  0.76562500  1.0
  Ni  Ni540  1  0.30729167  0.33333333  0.73437500  1.0
  Ni  Ni541  1  0.30729167  0.66666667  0.73437500  1.0
  Ni  Ni542  1  0.30729167  1.00000000  0.73437500  1.0
  Ni  Ni543  1  0.64062500  0.33333333  0.73437500  1.0
  Ni  Ni544  1  0.64062500  0.66666667  0.73437500  1.0
  Ni  Ni545  1  0.64062500  1.00000000  0.73437500  1.0
  Ni  Ni546  1  0.97395833  0.33333333  0.73437500  1.0
  Ni  Ni547  1  0.97395833  0.66666667  0.73437500  1.0
  Ni  Ni548  1  0.97395833  1.00000000  0.73437500  1.0
  Ni  Ni549  1  0.08854167  0.33333333  0.70312500  1.0
  Ni  Ni550  1  0.08854167  0.66666667  0.70312500  1.0
  Ni  Ni551  1  0.08854167  1.00000000  0.70312500  1.0
  Ni  Ni552  1  0.42187500  0.33333333  0.70312500  1.0
  Ni  Ni553  1  0.42187500  0.66666667  0.70312500  1.0
  Ni  Ni554  1  0.42187500  1.00000000  0.70312500  1.0
  Ni  Ni555  1  0.75520833  0.33333333  0.70312500  1.0
  Ni  Ni556  1  0.75520833  0.66666667  0.70312500  1.0
  Ni  Ni557  1  0.75520833  1.00000000  0.70312500  1.0
  Ni  Ni558  1  0.20312500  0.33333333  0.67187500  1.0
  Ni  Ni559  1  0.20312500  0.66666667  0.67187500  1.0
  Ni  Ni560  1  0.20312500  1.00000000  0.67187500  1.0
  Ni  Ni561  1  0.53645833  0.33333333  0.67187500  1.0
  Ni  Ni562  1  0.53645833  0.66666667  0.67187500  1.0
  Ni  Ni563  1  0.53645833  1.00000000  0.67187500  1.0
  Ni  Ni564  1  0.86979167  0.33333333  0.67187500  1.0
  Ni  Ni565  1  0.86979167  0.66666667  0.67187500  1.0
  Ni  Ni566  1  0.86979167  1.00000000  0.67187500  1.0
  Ni  Ni567  1  0.31770833  0.33333333  0.64062500  1.0
  Ni  Ni568  1  0.31770833  0.66666667  0.64062500  1.0
  Ni  Ni569  1  0.31770833  1.00000000  0.64062500  1.0
  Ni  Ni570  1  0.65104167  0.33333333  0.64062500  1.0
  Ni  Ni571  1  0.65104167  0.66666667  0.64062500  1.0
  Ni  Ni572  1  0.65104167  1.00000000  0.64062500  1.0
  Ni  Ni573  1  0.98437500  0.33333333  0.64062500  1.0
  Ni  Ni574  1  0.98437500  0.66666667  0.64062500  1.0
  Ni  Ni575  1  0.98437500  1.00000000  0.64062500  1.0
  Ni  Ni576  1  0.09895833  0.33333333  0.60937500  1.0
  Ni  Ni577  1  0.09895833  0.66666667  0.60937500  1.0
  Ni  Ni578  1  0.09895833  1.00000000  0.60937500  1.0
  Ni  Ni579  1  0.43229167  0.33333333  0.60937500  1.0
  Ni  Ni580  1  0.43229167  0.66666667  0.60937500  1.0
  Ni  Ni581  1  0.43229167  1.00000000  0.60937500  1.0
  Ni  Ni582  1  0.76562500  0.33333333  0.60937500  1.0
  Ni  Ni583  1  0.76562500  0.66666667  0.60937500  1.0
  Ni  Ni584  1  0.76562500  1.00000000  0.60937500  1.0
