# generated using pymatgen
data_Cr4Ni
_symmetry_space_group_name_H-M   'P 1'
_cell_length_a   91.04204737
_cell_length_b   30.45671733
_cell_length_c   41.42462930
_cell_angle_alpha   94.86485453
_cell_angle_beta   83.76160444
_cell_angle_gamma   14.17402520
_symmetry_Int_Tables_number   1
_chemical_formula_structural   Cr4Ni
_chemical_formula_sum   'Cr504 Ni126'
_cell_volume   17454.11886546
_cell_formula_units_Z   126
loop_
 _symmetry_equiv_pos_site_id
 _symmetry_equiv_pos_as_xyz
  1  'x, y, z'
loop_
 _atom_site_type_symbol
 _atom_site_label
 _atom_site_symmetry_multiplicity
 _atom_site_fract_x
 _atom_site_fract_y
 _atom_site_fract_z
 _atom_site_occupancy
  Cr  Cr0  1  0.09981983  0.09981983  0.03827806  1.0
  Cr  Cr1  1  0.09981983  0.43315317  0.03827806  1.0
  Cr  Cr2  1  0.09981983  0.76648650  0.03827806  1.0
  Cr  Cr3  1  0.43315317  0.09981983  0.03827806  1.0
  Cr  Cr4  1  0.43315317  0.43315317  0.03827806  1.0
  Cr  Cr5  1  0.43315317  0.76648650  0.03827806  1.0
  Cr  Cr6  1  0.76648650  0.09981983  0.03827806  1.0
  Cr  Cr7  1  0.76648650  0.43315317  0.03827806  1.0
  Cr  Cr8  1  0.76648650  0.76648650  0.03827806  1.0
  Cr  Cr9  1  0.26648650  0.26648650  0.00886629  1.0
  Cr  Cr10  1  0.26648650  0.59981983  0.00886629  1.0
  Cr  Cr11  1  0.26648650  0.93315317  0.00886629  1.0
  Cr  Cr12  1  0.59981983  0.26648650  0.00886629  1.0
  Cr  Cr13  1  0.59981983  0.59981983  0.00886629  1.0
  Cr  Cr14  1  0.59981983  0.93315317  0.00886629  1.0
  Cr  Cr15  1  0.93315317  0.26648650  0.00886629  1.0
  Cr  Cr16  1  0.93315317  0.59981983  0.00886629  1.0
  Cr  Cr17  1  0.93315317  0.93315317  0.00886629  1.0
  Cr  Cr18  1  0.03320900  0.03320900  0.05003291  1.0
  Cr  Cr19  1  0.03320900  0.36654233  0.05003291  1.0
  Cr  Cr20  1  0.03320900  0.69987567  0.05003291  1.0
  Cr  Cr21  1  0.36654233  0.03320900  0.05003291  1.0
  Cr  Cr22  1  0.36654233  0.36654233  0.05003291  1.0
  Cr  Cr23  1  0.36654233  0.69987567  0.05003291  1.0
  Cr  Cr24  1  0.69987567  0.03320900  0.05003291  1.0
  Cr  Cr25  1  0.69987567  0.36654233  0.05003291  1.0
  Cr  Cr26  1  0.69987567  0.69987567  0.05003291  1.0
  Cr  Cr27  1  0.19987567  0.19987567  0.02062115  1.0
  Cr  Cr28  1  0.19987567  0.53320900  0.02062115  1.0
  Cr  Cr29  1  0.19987567  0.86654233  0.02062115  1.0
  Cr  Cr30  1  0.53320900  0.19987567  0.02062115  1.0
  Cr  Cr31  1  0.53320900  0.53320900  0.02062115  1.0
  Cr  Cr32  1  0.53320900  0.86654233  0.02062115  1.0
  Cr  Cr33  1  0.86654233  0.19987567  0.02062115  1.0
  Cr  Cr34  1  0.86654233  0.53320900  0.02062115  1.0
  Cr  Cr35  1  0.86654233  0.86654233  0.02062115  1.0
  Cr  Cr36  1  0.13345767  0.13345767  0.03234197  1.0
  Cr  Cr37  1  0.13345767  0.46679100  0.03234197  1.0
  Cr  Cr38  1  0.13345767  0.80012433  0.03234197  1.0
  Cr  Cr39  1  0.46679100  0.13345767  0.03234197  1.0
  Cr  Cr40  1  0.46679100  0.46679100  0.03234197  1.0
  Cr  Cr41  1  0.46679100  0.80012433  0.03234197  1.0
  Cr  Cr42  1  0.80012433  0.13345767  0.03234197  1.0
  Cr  Cr43  1  0.80012433  0.46679100  0.03234197  1.0
  Cr  Cr44  1  0.80012433  0.80012433  0.03234197  1.0
  Cr  Cr45  1  0.30012433  0.30012433  0.00293021  1.0
  Cr  Cr46  1  0.30012433  0.63345767  0.00293021  1.0
  Cr  Cr47  1  0.30012433  0.96679100  0.00293021  1.0
  Cr  Cr48  1  0.63345767  0.30012433  0.00293021  1.0
  Cr  Cr49  1  0.63345767  0.63345767  0.00293021  1.0
  Cr  Cr50  1  0.63345767  0.96679100  0.00293021  1.0
  Cr  Cr51  1  0.96679100  0.30012433  0.00293021  1.0
  Cr  Cr52  1  0.96679100  0.63345767  0.00293021  1.0
  Cr  Cr53  1  0.96679100  0.96679100  0.00293021  1.0
  Cr  Cr54  1  0.06684683  0.06684683  0.04409682  1.0
  Cr  Cr55  1  0.06684683  0.40018017  0.04409682  1.0
  Cr  Cr56  1  0.06684683  0.73351350  0.04409682  1.0
  Cr  Cr57  1  0.40018017  0.06684683  0.04409682  1.0
  Cr  Cr58  1  0.40018017  0.40018017  0.04409682  1.0
  Cr  Cr59  1  0.40018017  0.73351350  0.04409682  1.0
  Cr  Cr60  1  0.73351350  0.06684683  0.04409682  1.0
  Cr  Cr61  1  0.73351350  0.40018017  0.04409682  1.0
  Cr  Cr62  1  0.73351350  0.73351350  0.04409682  1.0
  Cr  Cr63  1  0.23351350  0.23351350  0.01468506  1.0
  Cr  Cr64  1  0.23351350  0.56684683  0.01468506  1.0
  Cr  Cr65  1  0.23351350  0.90018017  0.01468506  1.0
  Cr  Cr66  1  0.56684683  0.23351350  0.01468506  1.0
  Cr  Cr67  1  0.56684683  0.56684683  0.01468506  1.0
  Cr  Cr68  1  0.56684683  0.90018017  0.01468506  1.0
  Cr  Cr69  1  0.90018017  0.23351350  0.01468506  1.0
  Cr  Cr70  1  0.90018017  0.56684683  0.01468506  1.0
  Cr  Cr71  1  0.90018017  0.90018017  0.01468506  1.0
  Ni  Ni72  1  0.16666667  0.16666667  0.02648156  1.0
  Ni  Ni73  1  0.16666667  0.50000000  0.02648156  1.0
  Ni  Ni74  1  0.16666667  0.83333333  0.02648156  1.0
  Ni  Ni75  1  0.50000000  0.16666667  0.02648156  1.0
  Ni  Ni76  1  0.50000000  0.50000000  0.02648156  1.0
  Ni  Ni77  1  0.50000000  0.83333333  0.02648156  1.0
  Ni  Ni78  1  0.83333333  0.16666667  0.02648156  1.0
  Ni  Ni79  1  0.83333333  0.50000000  0.02648156  1.0
  Ni  Ni80  1  0.83333333  0.83333333  0.02648156  1.0
  Ni  Ni81  1  0.00000000  0.00000000  0.05589332  1.0
  Ni  Ni82  1  0.00000000  0.33333333  0.05589332  1.0
  Ni  Ni83  1  0.00000000  0.66666667  0.05589332  1.0
  Ni  Ni84  1  0.33333333  0.00000000  0.05589332  1.0
  Ni  Ni85  1  0.33333333  0.33333333  0.05589332  1.0
  Ni  Ni86  1  0.33333333  0.66666667  0.05589332  1.0
  Ni  Ni87  1  0.66666667  0.00000000  0.05589332  1.0
  Ni  Ni88  1  0.66666667  0.33333333  0.05589332  1.0
  Ni  Ni89  1  0.66666667  0.66666667  0.05589332  1.0
  Cr  Cr90  1  0.09981983  0.09981983  0.09710159  1.0
  Cr  Cr91  1  0.09981983  0.43315317  0.09710159  1.0
  Cr  Cr92  1  0.09981983  0.76648650  0.09710159  1.0
  Cr  Cr93  1  0.43315317  0.09981983  0.09710159  1.0
  Cr  Cr94  1  0.43315317  0.43315317  0.09710159  1.0
  Cr  Cr95  1  0.43315317  0.76648650  0.09710159  1.0
  Cr  Cr96  1  0.76648650  0.09981983  0.09710159  1.0
  Cr  Cr97  1  0.76648650  0.43315317  0.09710159  1.0
  Cr  Cr98  1  0.76648650  0.76648650  0.09710159  1.0
  Cr  Cr99  1  0.26648650  0.26648650  0.06768982  1.0
  Cr  Cr100  1  0.26648650  0.59981983  0.06768982  1.0
  Cr  Cr101  1  0.26648650  0.93315317  0.06768982  1.0
  Cr  Cr102  1  0.59981983  0.26648650  0.06768982  1.0
  Cr  Cr103  1  0.59981983  0.59981983  0.06768982  1.0
  Cr  Cr104  1  0.59981983  0.93315317  0.06768982  1.0
  Cr  Cr105  1  0.93315317  0.26648650  0.06768982  1.0
  Cr  Cr106  1  0.93315317  0.59981983  0.06768982  1.0
  Cr  Cr107  1  0.93315317  0.93315317  0.06768982  1.0
  Cr  Cr108  1  0.03320900  0.03320900  0.10885644  1.0
  Cr  Cr109  1  0.03320900  0.36654233  0.10885644  1.0
  Cr  Cr110  1  0.03320900  0.69987567  0.10885644  1.0
  Cr  Cr111  1  0.36654233  0.03320900  0.10885644  1.0
  Cr  Cr112  1  0.36654233  0.36654233  0.10885644  1.0
  Cr  Cr113  1  0.36654233  0.69987567  0.10885644  1.0
  Cr  Cr114  1  0.69987567  0.03320900  0.10885644  1.0
  Cr  Cr115  1  0.69987567  0.36654233  0.10885644  1.0
  Cr  Cr116  1  0.69987567  0.69987567  0.10885644  1.0
  Cr  Cr117  1  0.19987567  0.19987567  0.07944468  1.0
  Cr  Cr118  1  0.19987567  0.53320900  0.07944468  1.0
  Cr  Cr119  1  0.19987567  0.86654233  0.07944468  1.0
  Cr  Cr120  1  0.53320900  0.19987567  0.07944468  1.0
  Cr  Cr121  1  0.53320900  0.53320900  0.07944468  1.0
  Cr  Cr122  1  0.53320900  0.86654233  0.07944468  1.0
  Cr  Cr123  1  0.86654233  0.19987567  0.07944468  1.0
  Cr  Cr124  1  0.86654233  0.53320900  0.07944468  1.0
  Cr  Cr125  1  0.86654233  0.86654233  0.07944468  1.0
  Cr  Cr126  1  0.13345767  0.13345767  0.09116550  1.0
  Cr  Cr127  1  0.13345767  0.46679100  0.09116550  1.0
  Cr  Cr128  1  0.13345767  0.80012433  0.09116550  1.0
  Cr  Cr129  1  0.46679100  0.13345767  0.09116550  1.0
  Cr  Cr130  1  0.46679100  0.46679100  0.09116550  1.0
  Cr  Cr131  1  0.46679100  0.80012433  0.09116550  1.0
  Cr  Cr132  1  0.80012433  0.13345767  0.09116550  1.0
  Cr  Cr133  1  0.80012433  0.46679100  0.09116550  1.0
  Cr  Cr134  1  0.80012433  0.80012433  0.09116550  1.0
  Cr  Cr135  1  0.30012433  0.30012433  0.06175374  1.0
  Cr  Cr136  1  0.30012433  0.63345767  0.06175374  1.0
  Cr  Cr137  1  0.30012433  0.96679100  0.06175374  1.0
  Cr  Cr138  1  0.63345767  0.30012433  0.06175374  1.0
  Cr  Cr139  1  0.63345767  0.63345767  0.06175374  1.0
  Cr  Cr140  1  0.63345767  0.96679100  0.06175374  1.0
  Cr  Cr141  1  0.96679100  0.30012433  0.06175374  1.0
  Cr  Cr142  1  0.96679100  0.63345767  0.06175374  1.0
  Cr  Cr143  1  0.96679100  0.96679100  0.06175374  1.0
  Cr  Cr144  1  0.06684683  0.06684683  0.10292035  1.0
  Cr  Cr145  1  0.06684683  0.40018017  0.10292035  1.0
  Cr  Cr146  1  0.06684683  0.73351350  0.10292035  1.0
  Cr  Cr147  1  0.40018017  0.06684683  0.10292035  1.0
  Cr  Cr148  1  0.40018017  0.40018017  0.10292035  1.0
  Cr  Cr149  1  0.40018017  0.73351350  0.10292035  1.0
  Cr  Cr150  1  0.73351350  0.06684683  0.10292035  1.0
  Cr  Cr151  1  0.73351350  0.40018017  0.10292035  1.0
  Cr  Cr152  1  0.73351350  0.73351350  0.10292035  1.0
  Cr  Cr153  1  0.23351350  0.23351350  0.07350859  1.0
  Cr  Cr154  1  0.23351350  0.56684683  0.07350859  1.0
  Cr  Cr155  1  0.23351350  0.90018017  0.07350859  1.0
  Cr  Cr156  1  0.56684683  0.23351350  0.07350859  1.0
  Cr  Cr157  1  0.56684683  0.56684683  0.07350859  1.0
  Cr  Cr158  1  0.56684683  0.90018017  0.07350859  1.0
  Cr  Cr159  1  0.90018017  0.23351350  0.07350859  1.0
  Cr  Cr160  1  0.90018017  0.56684683  0.07350859  1.0
  Cr  Cr161  1  0.90018017  0.90018017  0.07350859  1.0
  Ni  Ni162  1  0.16666667  0.16666667  0.08530509  1.0
  Ni  Ni163  1  0.16666667  0.50000000  0.08530509  1.0
  Ni  Ni164  1  0.16666667  0.83333333  0.08530509  1.0
  Ni  Ni165  1  0.50000000  0.16666667  0.08530509  1.0
  Ni  Ni166  1  0.50000000  0.50000000  0.08530509  1.0
  Ni  Ni167  1  0.50000000  0.83333333  0.08530509  1.0
  Ni  Ni168  1  0.83333333  0.16666667  0.08530509  1.0
  Ni  Ni169  1  0.83333333  0.50000000  0.08530509  1.0
  Ni  Ni170  1  0.83333333  0.83333333  0.08530509  1.0
  Ni  Ni171  1  0.00000000  0.00000000  0.11471685  1.0
  Ni  Ni172  1  0.00000000  0.33333333  0.11471685  1.0
  Ni  Ni173  1  0.00000000  0.66666667  0.11471685  1.0
  Ni  Ni174  1  0.33333333  0.00000000  0.11471685  1.0
  Ni  Ni175  1  0.33333333  0.33333333  0.11471685  1.0
  Ni  Ni176  1  0.33333333  0.66666667  0.11471685  1.0
  Ni  Ni177  1  0.66666667  0.00000000  0.11471685  1.0
  Ni  Ni178  1  0.66666667  0.33333333  0.11471685  1.0
  Ni  Ni179  1  0.66666667  0.66666667  0.11471685  1.0
  Cr  Cr180  1  0.09981983  0.09981983  0.15592512  1.0
  Cr  Cr181  1  0.09981983  0.43315317  0.15592512  1.0
  Cr  Cr182  1  0.09981983  0.76648650  0.15592512  1.0
  Cr  Cr183  1  0.43315317  0.09981983  0.15592512  1.0
  Cr  Cr184  1  0.43315317  0.43315317  0.15592512  1.0
  Cr  Cr185  1  0.43315317  0.76648650  0.15592512  1.0
  Cr  Cr186  1  0.76648650  0.09981983  0.15592512  1.0
  Cr  Cr187  1  0.76648650  0.43315317  0.15592512  1.0
  Cr  Cr188  1  0.76648650  0.76648650  0.15592512  1.0
  Cr  Cr189  1  0.26648650  0.26648650  0.12651335  1.0
  Cr  Cr190  1  0.26648650  0.59981983  0.12651335  1.0
  Cr  Cr191  1  0.26648650  0.93315317  0.12651335  1.0
  Cr  Cr192  1  0.59981983  0.26648650  0.12651335  1.0
  Cr  Cr193  1  0.59981983  0.59981983  0.12651335  1.0
  Cr  Cr194  1  0.59981983  0.93315317  0.12651335  1.0
  Cr  Cr195  1  0.93315317  0.26648650  0.12651335  1.0
  Cr  Cr196  1  0.93315317  0.59981983  0.12651335  1.0
  Cr  Cr197  1  0.93315317  0.93315317  0.12651335  1.0
  Cr  Cr198  1  0.03320900  0.03320900  0.16767997  1.0
  Cr  Cr199  1  0.03320900  0.36654233  0.16767997  1.0
  Cr  Cr200  1  0.03320900  0.69987567  0.16767997  1.0
  Cr  Cr201  1  0.36654233  0.03320900  0.16767997  1.0
  Cr  Cr202  1  0.36654233  0.36654233  0.16767997  1.0
  Cr  Cr203  1  0.36654233  0.69987567  0.16767997  1.0
  Cr  Cr204  1  0.69987567  0.03320900  0.16767997  1.0
  Cr  Cr205  1  0.69987567  0.36654233  0.16767997  1.0
  Cr  Cr206  1  0.69987567  0.69987567  0.16767997  1.0
  Cr  Cr207  1  0.19987567  0.19987567  0.13826821  1.0
  Cr  Cr208  1  0.19987567  0.53320900  0.13826821  1.0
  Cr  Cr209  1  0.19987567  0.86654233  0.13826821  1.0
  Cr  Cr210  1  0.53320900  0.19987567  0.13826821  1.0
  Cr  Cr211  1  0.53320900  0.53320900  0.13826821  1.0
  Cr  Cr212  1  0.53320900  0.86654233  0.13826821  1.0
  Cr  Cr213  1  0.86654233  0.19987567  0.13826821  1.0
  Cr  Cr214  1  0.86654233  0.53320900  0.13826821  1.0
  Cr  Cr215  1  0.86654233  0.86654233  0.13826821  1.0
  Cr  Cr216  1  0.13345767  0.13345767  0.14998903  1.0
  Cr  Cr217  1  0.13345767  0.46679100  0.14998903  1.0
  Cr  Cr218  1  0.13345767  0.80012433  0.14998903  1.0
  Cr  Cr219  1  0.46679100  0.13345767  0.14998903  1.0
  Cr  Cr220  1  0.46679100  0.46679100  0.14998903  1.0
  Cr  Cr221  1  0.46679100  0.80012433  0.14998903  1.0
  Cr  Cr222  1  0.80012433  0.13345767  0.14998903  1.0
  Cr  Cr223  1  0.80012433  0.46679100  0.14998903  1.0
  Cr  Cr224  1  0.80012433  0.80012433  0.14998903  1.0
  Cr  Cr225  1  0.30012433  0.30012433  0.12057726  1.0
  Cr  Cr226  1  0.30012433  0.63345767  0.12057726  1.0
  Cr  Cr227  1  0.30012433  0.96679100  0.12057726  1.0
  Cr  Cr228  1  0.63345767  0.30012433  0.12057726  1.0
  Cr  Cr229  1  0.63345767  0.63345767  0.12057726  1.0
  Cr  Cr230  1  0.63345767  0.96679100  0.12057726  1.0
  Cr  Cr231  1  0.96679100  0.30012433  0.12057726  1.0
  Cr  Cr232  1  0.96679100  0.63345767  0.12057726  1.0
  Cr  Cr233  1  0.96679100  0.96679100  0.12057726  1.0
  Cr  Cr234  1  0.06684683  0.06684683  0.16174388  1.0
  Cr  Cr235  1  0.06684683  0.40018017  0.16174388  1.0
  Cr  Cr236  1  0.06684683  0.73351350  0.16174388  1.0
  Cr  Cr237  1  0.40018017  0.06684683  0.16174388  1.0
  Cr  Cr238  1  0.40018017  0.40018017  0.16174388  1.0
  Cr  Cr239  1  0.40018017  0.73351350  0.16174388  1.0
  Cr  Cr240  1  0.73351350  0.06684683  0.16174388  1.0
  Cr  Cr241  1  0.73351350  0.40018017  0.16174388  1.0
  Cr  Cr242  1  0.73351350  0.73351350  0.16174388  1.0
  Cr  Cr243  1  0.23351350  0.23351350  0.13233212  1.0
  Cr  Cr244  1  0.23351350  0.56684683  0.13233212  1.0
  Cr  Cr245  1  0.23351350  0.90018017  0.13233212  1.0
  Cr  Cr246  1  0.56684683  0.23351350  0.13233212  1.0
  Cr  Cr247  1  0.56684683  0.56684683  0.13233212  1.0
  Cr  Cr248  1  0.56684683  0.90018017  0.13233212  1.0
  Cr  Cr249  1  0.90018017  0.23351350  0.13233212  1.0
  Cr  Cr250  1  0.90018017  0.56684683  0.13233212  1.0
  Cr  Cr251  1  0.90018017  0.90018017  0.13233212  1.0
  Ni  Ni252  1  0.16666667  0.16666667  0.14412862  1.0
  Ni  Ni253  1  0.16666667  0.50000000  0.14412862  1.0
  Ni  Ni254  1  0.16666667  0.83333333  0.14412862  1.0
  Ni  Ni255  1  0.50000000  0.16666667  0.14412862  1.0
  Ni  Ni256  1  0.50000000  0.50000000  0.14412862  1.0
  Ni  Ni257  1  0.50000000  0.83333333  0.14412862  1.0
  Ni  Ni258  1  0.83333333  0.16666667  0.14412862  1.0
  Ni  Ni259  1  0.83333333  0.50000000  0.14412862  1.0
  Ni  Ni260  1  0.83333333  0.83333333  0.14412862  1.0
  Ni  Ni261  1  0.00000000  0.00000000  0.17354038  1.0
  Ni  Ni262  1  0.00000000  0.33333333  0.17354038  1.0
  Ni  Ni263  1  0.00000000  0.66666667  0.17354038  1.0
  Ni  Ni264  1  0.33333333  0.00000000  0.17354038  1.0
  Ni  Ni265  1  0.33333333  0.33333333  0.17354038  1.0
  Ni  Ni266  1  0.33333333  0.66666667  0.17354038  1.0
  Ni  Ni267  1  0.66666667  0.00000000  0.17354038  1.0
  Ni  Ni268  1  0.66666667  0.33333333  0.17354038  1.0
  Ni  Ni269  1  0.66666667  0.66666667  0.17354038  1.0
  Cr  Cr270  1  0.09981983  0.09981983  0.21474865  1.0
  Cr  Cr271  1  0.09981983  0.43315317  0.21474865  1.0
  Cr  Cr272  1  0.09981983  0.76648650  0.21474865  1.0
  Cr  Cr273  1  0.43315317  0.09981983  0.21474865  1.0
  Cr  Cr274  1  0.43315317  0.43315317  0.21474865  1.0
  Cr  Cr275  1  0.43315317  0.76648650  0.21474865  1.0
  Cr  Cr276  1  0.76648650  0.09981983  0.21474865  1.0
  Cr  Cr277  1  0.76648650  0.43315317  0.21474865  1.0
  Cr  Cr278  1  0.76648650  0.76648650  0.21474865  1.0
  Cr  Cr279  1  0.26648650  0.26648650  0.18533688  1.0
  Cr  Cr280  1  0.26648650  0.59981983  0.18533688  1.0
  Cr  Cr281  1  0.26648650  0.93315317  0.18533688  1.0
  Cr  Cr282  1  0.59981983  0.26648650  0.18533688  1.0
  Cr  Cr283  1  0.59981983  0.59981983  0.18533688  1.0
  Cr  Cr284  1  0.59981983  0.93315317  0.18533688  1.0
  Cr  Cr285  1  0.93315317  0.26648650  0.18533688  1.0
  Cr  Cr286  1  0.93315317  0.59981983  0.18533688  1.0
  Cr  Cr287  1  0.93315317  0.93315317  0.18533688  1.0
  Cr  Cr288  1  0.03320900  0.03320900  0.22650350  1.0
  Cr  Cr289  1  0.03320900  0.36654233  0.22650350  1.0
  Cr  Cr290  1  0.03320900  0.69987567  0.22650350  1.0
  Cr  Cr291  1  0.36654233  0.03320900  0.22650350  1.0
  Cr  Cr292  1  0.36654233  0.36654233  0.22650350  1.0
  Cr  Cr293  1  0.36654233  0.69987567  0.22650350  1.0
  Cr  Cr294  1  0.69987567  0.03320900  0.22650350  1.0
  Cr  Cr295  1  0.69987567  0.36654233  0.22650350  1.0
  Cr  Cr296  1  0.69987567  0.69987567  0.22650350  1.0
  Cr  Cr297  1  0.19987567  0.19987567  0.19709174  1.0
  Cr  Cr298  1  0.19987567  0.53320900  0.19709174  1.0
  Cr  Cr299  1  0.19987567  0.86654233  0.19709174  1.0
  Cr  Cr300  1  0.53320900  0.19987567  0.19709174  1.0
  Cr  Cr301  1  0.53320900  0.53320900  0.19709174  1.0
  Cr  Cr302  1  0.53320900  0.86654233  0.19709174  1.0
  Cr  Cr303  1  0.86654233  0.19987567  0.19709174  1.0
  Cr  Cr304  1  0.86654233  0.53320900  0.19709174  1.0
  Cr  Cr305  1  0.86654233  0.86654233  0.19709174  1.0
  Cr  Cr306  1  0.13345767  0.13345767  0.20881256  1.0
  Cr  Cr307  1  0.13345767  0.46679100  0.20881256  1.0
  Cr  Cr308  1  0.13345767  0.80012433  0.20881256  1.0
  Cr  Cr309  1  0.46679100  0.13345767  0.20881256  1.0
  Cr  Cr310  1  0.46679100  0.46679100  0.20881256  1.0
  Cr  Cr311  1  0.46679100  0.80012433  0.20881256  1.0
  Cr  Cr312  1  0.80012433  0.13345767  0.20881256  1.0
  Cr  Cr313  1  0.80012433  0.46679100  0.20881256  1.0
  Cr  Cr314  1  0.80012433  0.80012433  0.20881256  1.0
  Cr  Cr315  1  0.30012433  0.30012433  0.17940079  1.0
  Cr  Cr316  1  0.30012433  0.63345767  0.17940079  1.0
  Cr  Cr317  1  0.30012433  0.96679100  0.17940079  1.0
  Cr  Cr318  1  0.63345767  0.30012433  0.17940079  1.0
  Cr  Cr319  1  0.63345767  0.63345767  0.17940079  1.0
  Cr  Cr320  1  0.63345767  0.96679100  0.17940079  1.0
  Cr  Cr321  1  0.96679100  0.30012433  0.17940079  1.0
  Cr  Cr322  1  0.96679100  0.63345767  0.17940079  1.0
  Cr  Cr323  1  0.96679100  0.96679100  0.17940079  1.0
  Cr  Cr324  1  0.06684683  0.06684683  0.22056741  1.0
  Cr  Cr325  1  0.06684683  0.40018017  0.22056741  1.0
  Cr  Cr326  1  0.06684683  0.73351350  0.22056741  1.0
  Cr  Cr327  1  0.40018017  0.06684683  0.22056741  1.0
  Cr  Cr328  1  0.40018017  0.40018017  0.22056741  1.0
  Cr  Cr329  1  0.40018017  0.73351350  0.22056741  1.0
  Cr  Cr330  1  0.73351350  0.06684683  0.22056741  1.0
  Cr  Cr331  1  0.73351350  0.40018017  0.22056741  1.0
  Cr  Cr332  1  0.73351350  0.73351350  0.22056741  1.0
  Cr  Cr333  1  0.23351350  0.23351350  0.19115565  1.0
  Cr  Cr334  1  0.23351350  0.56684683  0.19115565  1.0
  Cr  Cr335  1  0.23351350  0.90018017  0.19115565  1.0
  Cr  Cr336  1  0.56684683  0.23351350  0.19115565  1.0
  Cr  Cr337  1  0.56684683  0.56684683  0.19115565  1.0
  Cr  Cr338  1  0.56684683  0.90018017  0.19115565  1.0
  Cr  Cr339  1  0.90018017  0.23351350  0.19115565  1.0
  Cr  Cr340  1  0.90018017  0.56684683  0.19115565  1.0
  Cr  Cr341  1  0.90018017  0.90018017  0.19115565  1.0
  Ni  Ni342  1  0.16666667  0.16666667  0.20295215  1.0
  Ni  Ni343  1  0.16666667  0.50000000  0.20295215  1.0
  Ni  Ni344  1  0.16666667  0.83333333  0.20295215  1.0
  Ni  Ni345  1  0.50000000  0.16666667  0.20295215  1.0
  Ni  Ni346  1  0.50000000  0.50000000  0.20295215  1.0
  Ni  Ni347  1  0.50000000  0.83333333  0.20295215  1.0
  Ni  Ni348  1  0.83333333  0.16666667  0.20295215  1.0
  Ni  Ni349  1  0.83333333  0.50000000  0.20295215  1.0
  Ni  Ni350  1  0.83333333  0.83333333  0.20295215  1.0
  Ni  Ni351  1  0.00000000  0.00000000  0.23236391  1.0
  Ni  Ni352  1  0.00000000  0.33333333  0.23236391  1.0
  Ni  Ni353  1  0.00000000  0.66666667  0.23236391  1.0
  Ni  Ni354  1  0.33333333  0.00000000  0.23236391  1.0
  Ni  Ni355  1  0.33333333  0.33333333  0.23236391  1.0
  Ni  Ni356  1  0.33333333  0.66666667  0.23236391  1.0
  Ni  Ni357  1  0.66666667  0.00000000  0.23236391  1.0
  Ni  Ni358  1  0.66666667  0.33333333  0.23236391  1.0
  Ni  Ni359  1  0.66666667  0.66666667  0.23236391  1.0
  Cr  Cr360  1  0.09981983  0.09981983  0.27357218  1.0
  Cr  Cr361  1  0.09981983  0.43315317  0.27357218  1.0
  Cr  Cr362  1  0.09981983  0.76648650  0.27357218  1.0
  Cr  Cr363  1  0.43315317  0.09981983  0.27357218  1.0
  Cr  Cr364  1  0.43315317  0.43315317  0.27357218  1.0
  Cr  Cr365  1  0.43315317  0.76648650  0.27357218  1.0
  Cr  Cr366  1  0.76648650  0.09981983  0.27357218  1.0
  Cr  Cr367  1  0.76648650  0.43315317  0.27357218  1.0
  Cr  Cr368  1  0.76648650  0.76648650  0.27357218  1.0
  Cr  Cr369  1  0.26648650  0.26648650  0.24416041  1.0
  Cr  Cr370  1  0.26648650  0.59981983  0.24416041  1.0
  Cr  Cr371  1  0.26648650  0.93315317  0.24416041  1.0
  Cr  Cr372  1  0.59981983  0.26648650  0.24416041  1.0
  Cr  Cr373  1  0.59981983  0.59981983  0.24416041  1.0
  Cr  Cr374  1  0.59981983  0.93315317  0.24416041  1.0
  Cr  Cr375  1  0.93315317  0.26648650  0.24416041  1.0
  Cr  Cr376  1  0.93315317  0.59981983  0.24416041  1.0
  Cr  Cr377  1  0.93315317  0.93315317  0.24416041  1.0
  Cr  Cr378  1  0.03320900  0.03320900  0.28532703  1.0
  Cr  Cr379  1  0.03320900  0.36654233  0.28532703  1.0
  Cr  Cr380  1  0.03320900  0.69987567  0.28532703  1.0
  Cr  Cr381  1  0.36654233  0.03320900  0.28532703  1.0
  Cr  Cr382  1  0.36654233  0.36654233  0.28532703  1.0
  Cr  Cr383  1  0.36654233  0.69987567  0.28532703  1.0
  Cr  Cr384  1  0.69987567  0.03320900  0.28532703  1.0
  Cr  Cr385  1  0.69987567  0.36654233  0.28532703  1.0
  Cr  Cr386  1  0.69987567  0.69987567  0.28532703  1.0
  Cr  Cr387  1  0.19987567  0.19987567  0.25591526  1.0
  Cr  Cr388  1  0.19987567  0.53320900  0.25591526  1.0
  Cr  Cr389  1  0.19987567  0.86654233  0.25591526  1.0
  Cr  Cr390  1  0.53320900  0.19987567  0.25591526  1.0
  Cr  Cr391  1  0.53320900  0.53320900  0.25591526  1.0
  Cr  Cr392  1  0.53320900  0.86654233  0.25591526  1.0
  Cr  Cr393  1  0.86654233  0.19987567  0.25591526  1.0
  Cr  Cr394  1  0.86654233  0.53320900  0.25591526  1.0
  Cr  Cr395  1  0.86654233  0.86654233  0.25591526  1.0
  Cr  Cr396  1  0.13345767  0.13345767  0.26763609  1.0
  Cr  Cr397  1  0.13345767  0.46679100  0.26763609  1.0
  Cr  Cr398  1  0.13345767  0.80012433  0.26763609  1.0
  Cr  Cr399  1  0.46679100  0.13345767  0.26763609  1.0
  Cr  Cr400  1  0.46679100  0.46679100  0.26763609  1.0
  Cr  Cr401  1  0.46679100  0.80012433  0.26763609  1.0
  Cr  Cr402  1  0.80012433  0.13345767  0.26763609  1.0
  Cr  Cr403  1  0.80012433  0.46679100  0.26763609  1.0
  Cr  Cr404  1  0.80012433  0.80012433  0.26763609  1.0
  Cr  Cr405  1  0.30012433  0.30012433  0.23822432  1.0
  Cr  Cr406  1  0.30012433  0.63345767  0.23822432  1.0
  Cr  Cr407  1  0.30012433  0.96679100  0.23822432  1.0
  Cr  Cr408  1  0.63345767  0.30012433  0.23822432  1.0
  Cr  Cr409  1  0.63345767  0.63345767  0.23822432  1.0
  Cr  Cr410  1  0.63345767  0.96679100  0.23822432  1.0
  Cr  Cr411  1  0.96679100  0.30012433  0.23822432  1.0
  Cr  Cr412  1  0.96679100  0.63345767  0.23822432  1.0
  Cr  Cr413  1  0.96679100  0.96679100  0.23822432  1.0
  Cr  Cr414  1  0.06684683  0.06684683  0.27939094  1.0
  Cr  Cr415  1  0.06684683  0.40018017  0.27939094  1.0
  Cr  Cr416  1  0.06684683  0.73351350  0.27939094  1.0
  Cr  Cr417  1  0.40018017  0.06684683  0.27939094  1.0
  Cr  Cr418  1  0.40018017  0.40018017  0.27939094  1.0
  Cr  Cr419  1  0.40018017  0.73351350  0.27939094  1.0
  Cr  Cr420  1  0.73351350  0.06684683  0.27939094  1.0
  Cr  Cr421  1  0.73351350  0.40018017  0.27939094  1.0
  Cr  Cr422  1  0.73351350  0.73351350  0.27939094  1.0
  Cr  Cr423  1  0.23351350  0.23351350  0.24997918  1.0
  Cr  Cr424  1  0.23351350  0.56684683  0.24997918  1.0
  Cr  Cr425  1  0.23351350  0.90018017  0.24997918  1.0
  Cr  Cr426  1  0.56684683  0.23351350  0.24997918  1.0
  Cr  Cr427  1  0.56684683  0.56684683  0.24997918  1.0
  Cr  Cr428  1  0.56684683  0.90018017  0.24997918  1.0
  Cr  Cr429  1  0.90018017  0.23351350  0.24997918  1.0
  Cr  Cr430  1  0.90018017  0.56684683  0.24997918  1.0
  Cr  Cr431  1  0.90018017  0.90018017  0.24997918  1.0
  Ni  Ni432  1  0.16666667  0.16666667  0.26177568  1.0
  Ni  Ni433  1  0.16666667  0.50000000  0.26177568  1.0
  Ni  Ni434  1  0.16666667  0.83333333  0.26177568  1.0
  Ni  Ni435  1  0.50000000  0.16666667  0.26177568  1.0
  Ni  Ni436  1  0.50000000  0.50000000  0.26177568  1.0
  Ni  Ni437  1  0.50000000  0.83333333  0.26177568  1.0
  Ni  Ni438  1  0.83333333  0.16666667  0.26177568  1.0
  Ni  Ni439  1  0.83333333  0.50000000  0.26177568  1.0
  Ni  Ni440  1  0.83333333  0.83333333  0.26177568  1.0
  Ni  Ni441  1  0.00000000  0.00000000  0.29118744  1.0
  Ni  Ni442  1  0.00000000  0.33333333  0.29118744  1.0
  Ni  Ni443  1  0.00000000  0.66666667  0.29118744  1.0
  Ni  Ni444  1  0.33333333  0.00000000  0.29118744  1.0
  Ni  Ni445  1  0.33333333  0.33333333  0.29118744  1.0
  Ni  Ni446  1  0.33333333  0.66666667  0.29118744  1.0
  Ni  Ni447  1  0.66666667  0.00000000  0.29118744  1.0
  Ni  Ni448  1  0.66666667  0.33333333  0.29118744  1.0
  Ni  Ni449  1  0.66666667  0.66666667  0.29118744  1.0
  Cr  Cr450  1  0.09981983  0.09981983  0.33239571  1.0
  Cr  Cr451  1  0.09981983  0.43315317  0.33239571  1.0
  Cr  Cr452  1  0.09981983  0.76648650  0.33239571  1.0
  Cr  Cr453  1  0.43315317  0.09981983  0.33239571  1.0
  Cr  Cr454  1  0.43315317  0.43315317  0.33239571  1.0
  Cr  Cr455  1  0.43315317  0.76648650  0.33239571  1.0
  Cr  Cr456  1  0.76648650  0.09981983  0.33239571  1.0
  Cr  Cr457  1  0.76648650  0.43315317  0.33239571  1.0
  Cr  Cr458  1  0.76648650  0.76648650  0.33239571  1.0
  Cr  Cr459  1  0.26648650  0.26648650  0.30298394  1.0
  Cr  Cr460  1  0.26648650  0.59981983  0.30298394  1.0
  Cr  Cr461  1  0.26648650  0.93315317  0.30298394  1.0
  Cr  Cr462  1  0.59981983  0.26648650  0.30298394  1.0
  Cr  Cr463  1  0.59981983  0.59981983  0.30298394  1.0
  Cr  Cr464  1  0.59981983  0.93315317  0.30298394  1.0
  Cr  Cr465  1  0.93315317  0.26648650  0.30298394  1.0
  Cr  Cr466  1  0.93315317  0.59981983  0.30298394  1.0
  Cr  Cr467  1  0.93315317  0.93315317  0.30298394  1.0
  Cr  Cr468  1  0.03320900  0.03320900  0.34415056  1.0
  Cr  Cr469  1  0.03320900  0.36654233  0.34415056  1.0
  Cr  Cr470  1  0.03320900  0.69987567  0.34415056  1.0
  Cr  Cr471  1  0.36654233  0.03320900  0.34415056  1.0
  Cr  Cr472  1  0.36654233  0.36654233  0.34415056  1.0
  Cr  Cr473  1  0.36654233  0.69987567  0.34415056  1.0
  Cr  Cr474  1  0.69987567  0.03320900  0.34415056  1.0
  Cr  Cr475  1  0.69987567  0.36654233  0.34415056  1.0
  Cr  Cr476  1  0.69987567  0.69987567  0.34415056  1.0
  Cr  Cr477  1  0.19987567  0.19987567  0.31473879  1.0
  Cr  Cr478  1  0.19987567  0.53320900  0.31473879  1.0
  Cr  Cr479  1  0.19987567  0.86654233  0.31473879  1.0
  Cr  Cr480  1  0.53320900  0.19987567  0.31473879  1.0
  Cr  Cr481  1  0.53320900  0.53320900  0.31473879  1.0
  Cr  Cr482  1  0.53320900  0.86654233  0.31473879  1.0
  Cr  Cr483  1  0.86654233  0.19987567  0.31473879  1.0
  Cr  Cr484  1  0.86654233  0.53320900  0.31473879  1.0
  Cr  Cr485  1  0.86654233  0.86654233  0.31473879  1.0
  Cr  Cr486  1  0.13345767  0.13345767  0.32645962  1.0
  Cr  Cr487  1  0.13345767  0.46679100  0.32645962  1.0
  Cr  Cr488  1  0.13345767  0.80012433  0.32645962  1.0
  Cr  Cr489  1  0.46679100  0.13345767  0.32645962  1.0
  Cr  Cr490  1  0.46679100  0.46679100  0.32645962  1.0
  Cr  Cr491  1  0.46679100  0.80012433  0.32645962  1.0
  Cr  Cr492  1  0.80012433  0.13345767  0.32645962  1.0
  Cr  Cr493  1  0.80012433  0.46679100  0.32645962  1.0
  Cr  Cr494  1  0.80012433  0.80012433  0.32645962  1.0
  Cr  Cr495  1  0.30012433  0.30012433  0.29704785  1.0
  Cr  Cr496  1  0.30012433  0.63345767  0.29704785  1.0
  Cr  Cr497  1  0.30012433  0.96679100  0.29704785  1.0
  Cr  Cr498  1  0.63345767  0.30012433  0.29704785  1.0
  Cr  Cr499  1  0.63345767  0.63345767  0.29704785  1.0
  Cr  Cr500  1  0.63345767  0.96679100  0.29704785  1.0
  Cr  Cr501  1  0.96679100  0.30012433  0.29704785  1.0
  Cr  Cr502  1  0.96679100  0.63345767  0.29704785  1.0
  Cr  Cr503  1  0.96679100  0.96679100  0.29704785  1.0
  Cr  Cr504  1  0.06684683  0.06684683  0.33821447  1.0
  Cr  Cr505  1  0.06684683  0.40018017  0.33821447  1.0
  Cr  Cr506  1  0.06684683  0.73351350  0.33821447  1.0
  Cr  Cr507  1  0.40018017  0.06684683  0.33821447  1.0
  Cr  Cr508  1  0.40018017  0.40018017  0.33821447  1.0
  Cr  Cr509  1  0.40018017  0.73351350  0.33821447  1.0
  Cr  Cr510  1  0.73351350  0.06684683  0.33821447  1.0
  Cr  Cr511  1  0.73351350  0.40018017  0.33821447  1.0
  Cr  Cr512  1  0.73351350  0.73351350  0.33821447  1.0
  Cr  Cr513  1  0.23351350  0.23351350  0.30880271  1.0
  Cr  Cr514  1  0.23351350  0.56684683  0.30880271  1.0
  Cr  Cr515  1  0.23351350  0.90018017  0.30880271  1.0
  Cr  Cr516  1  0.56684683  0.23351350  0.30880271  1.0
  Cr  Cr517  1  0.56684683  0.56684683  0.30880271  1.0
  Cr  Cr518  1  0.56684683  0.90018017  0.30880271  1.0
  Cr  Cr519  1  0.90018017  0.23351350  0.30880271  1.0
  Cr  Cr520  1  0.90018017  0.56684683  0.30880271  1.0
  Cr  Cr521  1  0.90018017  0.90018017  0.30880271  1.0
  Ni  Ni522  1  0.16666667  0.16666667  0.32059921  1.0
  Ni  Ni523  1  0.16666667  0.50000000  0.32059921  1.0
  Ni  Ni524  1  0.16666667  0.83333333  0.32059921  1.0
  Ni  Ni525  1  0.50000000  0.16666667  0.32059921  1.0
  Ni  Ni526  1  0.50000000  0.50000000  0.32059921  1.0
  Ni  Ni527  1  0.50000000  0.83333333  0.32059921  1.0
  Ni  Ni528  1  0.83333333  0.16666667  0.32059921  1.0
  Ni  Ni529  1  0.83333333  0.50000000  0.32059921  1.0
  Ni  Ni530  1  0.83333333  0.83333333  0.32059921  1.0
  Ni  Ni531  1  0.00000000  0.00000000  0.35001097  1.0
  Ni  Ni532  1  0.00000000  0.33333333  0.35001097  1.0
  Ni  Ni533  1  0.00000000  0.66666667  0.35001097  1.0
  Ni  Ni534  1  0.33333333  0.00000000  0.35001097  1.0
  Ni  Ni535  1  0.33333333  0.33333333  0.35001097  1.0
  Ni  Ni536  1  0.33333333  0.66666667  0.35001097  1.0
  Ni  Ni537  1  0.66666667  0.00000000  0.35001097  1.0
  Ni  Ni538  1  0.66666667  0.33333333  0.35001097  1.0
  Ni  Ni539  1  0.66666667  0.66666667  0.35001097  1.0
  Cr  Cr540  1  0.09981983  0.09981983  0.39121924  1.0
  Cr  Cr541  1  0.09981983  0.43315317  0.39121924  1.0
  Cr  Cr542  1  0.09981983  0.76648650  0.39121924  1.0
  Cr  Cr543  1  0.43315317  0.09981983  0.39121924  1.0
  Cr  Cr544  1  0.43315317  0.43315317  0.39121924  1.0
  Cr  Cr545  1  0.43315317  0.76648650  0.39121924  1.0
  Cr  Cr546  1  0.76648650  0.09981983  0.39121924  1.0
  Cr  Cr547  1  0.76648650  0.43315317  0.39121924  1.0
  Cr  Cr548  1  0.76648650  0.76648650  0.39121924  1.0
  Cr  Cr549  1  0.26648650  0.26648650  0.36180747  1.0
  Cr  Cr550  1  0.26648650  0.59981983  0.36180747  1.0
  Cr  Cr551  1  0.26648650  0.93315317  0.36180747  1.0
  Cr  Cr552  1  0.59981983  0.26648650  0.36180747  1.0
  Cr  Cr553  1  0.59981983  0.59981983  0.36180747  1.0
  Cr  Cr554  1  0.59981983  0.93315317  0.36180747  1.0
  Cr  Cr555  1  0.93315317  0.26648650  0.36180747  1.0
  Cr  Cr556  1  0.93315317  0.59981983  0.36180747  1.0
  Cr  Cr557  1  0.93315317  0.93315317  0.36180747  1.0
  Cr  Cr558  1  0.03320900  0.03320900  0.40297409  1.0
  Cr  Cr559  1  0.03320900  0.36654233  0.40297409  1.0
  Cr  Cr560  1  0.03320900  0.69987567  0.40297409  1.0
  Cr  Cr561  1  0.36654233  0.03320900  0.40297409  1.0
  Cr  Cr562  1  0.36654233  0.36654233  0.40297409  1.0
  Cr  Cr563  1  0.36654233  0.69987567  0.40297409  1.0
  Cr  Cr564  1  0.69987567  0.03320900  0.40297409  1.0
  Cr  Cr565  1  0.69987567  0.36654233  0.40297409  1.0
  Cr  Cr566  1  0.69987567  0.69987567  0.40297409  1.0
  Cr  Cr567  1  0.19987567  0.19987567  0.37356232  1.0
  Cr  Cr568  1  0.19987567  0.53320900  0.37356232  1.0
  Cr  Cr569  1  0.19987567  0.86654233  0.37356232  1.0
  Cr  Cr570  1  0.53320900  0.19987567  0.37356232  1.0
  Cr  Cr571  1  0.53320900  0.53320900  0.37356232  1.0
  Cr  Cr572  1  0.53320900  0.86654233  0.37356232  1.0
  Cr  Cr573  1  0.86654233  0.19987567  0.37356232  1.0
  Cr  Cr574  1  0.86654233  0.53320900  0.37356232  1.0
  Cr  Cr575  1  0.86654233  0.86654233  0.37356232  1.0
  Cr  Cr576  1  0.13345767  0.13345767  0.38528315  1.0
  Cr  Cr577  1  0.13345767  0.46679100  0.38528315  1.0
  Cr  Cr578  1  0.13345767  0.80012433  0.38528315  1.0
  Cr  Cr579  1  0.46679100  0.13345767  0.38528315  1.0
  Cr  Cr580  1  0.46679100  0.46679100  0.38528315  1.0
  Cr  Cr581  1  0.46679100  0.80012433  0.38528315  1.0
  Cr  Cr582  1  0.80012433  0.13345767  0.38528315  1.0
  Cr  Cr583  1  0.80012433  0.46679100  0.38528315  1.0
  Cr  Cr584  1  0.80012433  0.80012433  0.38528315  1.0
  Cr  Cr585  1  0.30012433  0.30012433  0.35587138  1.0
  Cr  Cr586  1  0.30012433  0.63345767  0.35587138  1.0
  Cr  Cr587  1  0.30012433  0.96679100  0.35587138  1.0
  Cr  Cr588  1  0.63345767  0.30012433  0.35587138  1.0
  Cr  Cr589  1  0.63345767  0.63345767  0.35587138  1.0
  Cr  Cr590  1  0.63345767  0.96679100  0.35587138  1.0
  Cr  Cr591  1  0.96679100  0.30012433  0.35587138  1.0
  Cr  Cr592  1  0.96679100  0.63345767  0.35587138  1.0
  Cr  Cr593  1  0.96679100  0.96679100  0.35587138  1.0
  Cr  Cr594  1  0.06684683  0.06684683  0.39703800  1.0
  Cr  Cr595  1  0.06684683  0.40018017  0.39703800  1.0
  Cr  Cr596  1  0.06684683  0.73351350  0.39703800  1.0
  Cr  Cr597  1  0.40018017  0.06684683  0.39703800  1.0
  Cr  Cr598  1  0.40018017  0.40018017  0.39703800  1.0
  Cr  Cr599  1  0.40018017  0.73351350  0.39703800  1.0
  Cr  Cr600  1  0.73351350  0.06684683  0.39703800  1.0
  Cr  Cr601  1  0.73351350  0.40018017  0.39703800  1.0
  Cr  Cr602  1  0.73351350  0.73351350  0.39703800  1.0
  Cr  Cr603  1  0.23351350  0.23351350  0.36762624  1.0
  Cr  Cr604  1  0.23351350  0.56684683  0.36762624  1.0
  Cr  Cr605  1  0.23351350  0.90018017  0.36762624  1.0
  Cr  Cr606  1  0.56684683  0.23351350  0.36762624  1.0
  Cr  Cr607  1  0.56684683  0.56684683  0.36762624  1.0
  Cr  Cr608  1  0.56684683  0.90018017  0.36762624  1.0
  Cr  Cr609  1  0.90018017  0.23351350  0.36762624  1.0
  Cr  Cr610  1  0.90018017  0.56684683  0.36762624  1.0
  Cr  Cr611  1  0.90018017  0.90018017  0.36762624  1.0
  Ni  Ni612  1  0.16666667  0.16666667  0.37942274  1.0
  Ni  Ni613  1  0.16666667  0.50000000  0.37942274  1.0
  Ni  Ni614  1  0.16666667  0.83333333  0.37942274  1.0
  Ni  Ni615  1  0.50000000  0.16666667  0.37942274  1.0
  Ni  Ni616  1  0.50000000  0.50000000  0.37942274  1.0
  Ni  Ni617  1  0.50000000  0.83333333  0.37942274  1.0
  Ni  Ni618  1  0.83333333  0.16666667  0.37942274  1.0
  Ni  Ni619  1  0.83333333  0.50000000  0.37942274  1.0
  Ni  Ni620  1  0.83333333  0.83333333  0.37942274  1.0
  Ni  Ni621  1  0.00000000  0.00000000  0.40883450  1.0
  Ni  Ni622  1  0.00000000  0.33333333  0.40883450  1.0
  Ni  Ni623  1  0.00000000  0.66666667  0.40883450  1.0
  Ni  Ni624  1  0.33333333  0.00000000  0.40883450  1.0
  Ni  Ni625  1  0.33333333  0.33333333  0.40883450  1.0
  Ni  Ni626  1  0.33333333  0.66666667  0.40883450  1.0
  Ni  Ni627  1  0.66666667  0.00000000  0.40883450  1.0
  Ni  Ni628  1  0.66666667  0.33333333  0.40883450  1.0
  Ni  Ni629  1  0.66666667  0.66666667  0.40883450  1.0
