# generated using pymatgen
data_CrNi
_symmetry_space_group_name_H-M   'P 1'
_cell_length_a   7.46695677
_cell_length_b   15.13865923
_cell_length_c   28.35335064
_cell_angle_alpha   91.09592647
_cell_angle_beta   90.00000000
_cell_angle_gamma   90.00000000
_symmetry_Int_Tables_number   1
_chemical_formula_structural   CrNi
_chemical_formula_sum   'Cr54 Ni54'
_cell_volume   3204.46836116
_cell_formula_units_Z   54
loop_
 _symmetry_equiv_pos_site_id
 _symmetry_equiv_pos_as_xyz
  1  'x, y, z'
loop_
 _atom_site_type_symbol
 _atom_site_label
 _atom_site_symmetry_multiplicity
 _atom_site_fract_x
 _atom_site_fract_y
 _atom_site_fract_z
 _atom_site_occupancy
  Cr  Cr0  1  0.00000000  0.12500000  0.90625000  1.0
  Cr  Cr1  1  0.00000000  0.45833333  0.90625000  1.0
  Cr  Cr2  1  0.00000000  0.79166667  0.90625000  1.0
  Cr  Cr3  1  0.33333333  0.12500000  0.90625000  1.0
  Cr  Cr4  1  0.33333333  0.45833333  0.90625000  1.0
  Cr  Cr5  1  0.33333333  0.79166667  0.90625000  1.0
  Cr  Cr6  1  0.66666667  0.12500000  0.90625000  1.0
  Cr  Cr7  1  0.66666667  0.45833333  0.90625000  1.0
  Cr  Cr8  1  0.66666667  0.79166667  0.90625000  1.0
  Cr  Cr9  1  0.16666667  0.20833333  0.96875000  1.0
  Cr  Cr10  1  0.16666667  0.54166667  0.96875000  1.0
  Cr  Cr11  1  0.16666667  0.87500000  0.96875000  1.0
  Cr  Cr12  1  0.50000000  0.20833333  0.96875000  1.0
  Cr  Cr13  1  0.50000000  0.54166667  0.96875000  1.0
  Cr  Cr14  1  0.50000000  0.87500000  0.96875000  1.0
  Cr  Cr15  1  0.83333333  0.20833333  0.96875000  1.0
  Cr  Cr16  1  0.83333333  0.54166667  0.96875000  1.0
  Cr  Cr17  1  0.83333333  0.87500000  0.96875000  1.0
  Cr  Cr18  1  0.00000000  0.29166667  0.78125000  1.0
  Cr  Cr19  1  0.00000000  0.62500000  0.78125000  1.0
  Cr  Cr20  1  0.00000000  0.95833333  0.78125000  1.0
  Cr  Cr21  1  0.33333333  0.29166667  0.78125000  1.0
  Cr  Cr22  1  0.33333333  0.62500000  0.78125000  1.0
  Cr  Cr23  1  0.33333333  0.95833333  0.78125000  1.0
  Cr  Cr24  1  0.66666667  0.29166667  0.78125000  1.0
  Cr  Cr25  1  0.66666667  0.62500000  0.78125000  1.0
  Cr  Cr26  1  0.66666667  0.95833333  0.78125000  1.0
  Cr  Cr27  1  0.16666667  0.04166667  0.84375000  1.0
  Cr  Cr28  1  0.16666667  0.37500000  0.84375000  1.0
  Cr  Cr29  1  0.16666667  0.70833333  0.84375000  1.0
  Cr  Cr30  1  0.50000000  0.04166667  0.84375000  1.0
  Cr  Cr31  1  0.50000000  0.37500000  0.84375000  1.0
  Cr  Cr32  1  0.50000000  0.70833333  0.84375000  1.0
  Cr  Cr33  1  0.83333333  0.04166667  0.84375000  1.0
  Cr  Cr34  1  0.83333333  0.37500000  0.84375000  1.0
  Cr  Cr35  1  0.83333333  0.70833333  0.84375000  1.0
  Cr  Cr36  1  0.00000000  0.12500000  0.65625000  1.0
  Cr  Cr37  1  0.00000000  0.45833333  0.65625000  1.0
  Cr  Cr38  1  0.00000000  0.79166667  0.65625000  1.0
  Cr  Cr39  1  0.33333333  0.12500000  0.65625000  1.0
  Cr  Cr40  1  0.33333333  0.45833333  0.65625000  1.0
  Cr  Cr41  1  0.33333333  0.79166667  0.65625000  1.0
  Cr  Cr42  1  0.66666667  0.12500000  0.65625000  1.0
  Cr  Cr43  1  0.66666667  0.45833333  0.65625000  1.0
  Cr  Cr44  1  0.66666667  0.79166667  0.65625000  1.0
  Cr  Cr45  1  0.16666667  0.20833333  0.71875000  1.0
  Cr  Cr46  1  0.16666667  0.54166667  0.71875000  1.0
  Cr  Cr47  1  0.16666667  0.87500000  0.71875000  1.0
  Cr  Cr48  1  0.50000000  0.20833333  0.71875000  1.0
  Cr  Cr49  1  0.50000000  0.54166667  0.71875000  1.0
  Cr  Cr50  1  0.50000000  0.87500000  0.71875000  1.0
  Cr  Cr51  1  0.83333333  0.20833333  0.71875000  1.0
  Cr  Cr52  1  0.83333333  0.54166667  0.71875000  1.0
  Cr  Cr53  1  0.83333333  0.87500000  0.71875000  1.0
  Ni  Ni54  1  0.00000000  0.29166667  0.90625000  1.0
  Ni  Ni55  1  0.00000000  0.62500000  0.90625000  1.0
  Ni  Ni56  1  0.00000000  0.95833333  0.90625000  1.0
  Ni  Ni57  1  0.33333333  0.29166667  0.90625000  1.0
  Ni  Ni58  1  0.33333333  0.62500000  0.90625000  1.0
  Ni  Ni59  1  0.33333333  0.95833333  0.90625000  1.0
  Ni  Ni60  1  0.66666667  0.29166667  0.90625000  1.0
  Ni  Ni61  1  0.66666667  0.62500000  0.90625000  1.0
  Ni  Ni62  1  0.66666667  0.95833333  0.90625000  1.0
  Ni  Ni63  1  0.16666667  0.04166667  0.96875000  1.0
  Ni  Ni64  1  0.16666667  0.37500000  0.96875000  1.0
  Ni  Ni65  1  0.16666667  0.70833333  0.96875000  1.0
  Ni  Ni66  1  0.50000000  0.04166667  0.96875000  1.0
  Ni  Ni67  1  0.50000000  0.37500000  0.96875000  1.0
  Ni  Ni68  1  0.50000000  0.70833333  0.96875000  1.0
  Ni  Ni69  1  0.83333333  0.04166667  0.96875000  1.0
  Ni  Ni70  1  0.83333333  0.37500000  0.96875000  1.0
  Ni  Ni71  1  0.83333333  0.70833333  0.96875000  1.0
  Ni  Ni72  1  0.00000000  0.12500000  0.78125000  1.0
  Ni  Ni73  1  0.00000000  0.45833333  0.78125000  1.0
  Ni  Ni74  1  0.00000000  0.79166667  0.78125000  1.0
  Ni  Ni75  1  0.33333333  0.12500000  0.78125000  1.0
  Ni  Ni76  1  0.33333333  0.45833333  0.78125000  1.0
  Ni  Ni77  1  0.33333333  0.79166667  0.78125000  1.0
  Ni  Ni78  1  0.66666667  0.12500000  0.78125000  1.0
  Ni  Ni79  1  0.66666667  0.45833333  0.78125000  1.0
  Ni  Ni80  1  0.66666667  0.79166667  0.78125000  1.0
  Ni  Ni81  1  0.16666667  0.20833333  0.84375000  1.0
  Ni  Ni82  1  0.16666667  0.54166667  0.84375000  1.0
  Ni  Ni83  1  0.16666667  0.87500000  0.84375000  1.0
  Ni  Ni84  1  0.50000000  0.20833333  0.84375000  1.0
  Ni  Ni85  1  0.50000000  0.54166667  0.84375000  1.0
  Ni  Ni86  1  0.50000000  0.87500000  0.84375000  1.0
  Ni  Ni87  1  0.83333333  0.20833333  0.84375000  1.0
  Ni  Ni88  1  0.83333333  0.54166667  0.84375000  1.0
  Ni  Ni89  1  0.83333333  0.87500000  0.84375000  1.0
  Ni  Ni90  1  0.00000000  0.29166667  0.65625000  1.0
  Ni  Ni91  1  0.00000000  0.62500000  0.65625000  1.0
  Ni  Ni92  1  0.00000000  0.95833333  0.65625000  1.0
  Ni  Ni93  1  0.33333333  0.29166667  0.65625000  1.0
  Ni  Ni94  1  0.33333333  0.62500000  0.65625000  1.0
  Ni  Ni95  1  0.33333333  0.95833333  0.65625000  1.0
  Ni  Ni96  1  0.66666667  0.29166667  0.65625000  1.0
  Ni  Ni97  1  0.66666667  0.62500000  0.65625000  1.0
  Ni  Ni98  1  0.66666667  0.95833333  0.65625000  1.0
  Ni  Ni99  1  0.16666667  0.04166667  0.71875000  1.0
  Ni  Ni100  1  0.16666667  0.37500000  0.71875000  1.0
  Ni  Ni101  1  0.16666667  0.70833333  0.71875000  1.0
  Ni  Ni102  1  0.50000000  0.04166667  0.71875000  1.0
  Ni  Ni103  1  0.50000000  0.37500000  0.71875000  1.0
  Ni  Ni104  1  0.50000000  0.70833333  0.71875000  1.0
  Ni  Ni105  1  0.83333333  0.04166667  0.71875000  1.0
  Ni  Ni106  1  0.83333333  0.37500000  0.71875000  1.0
  Ni  Ni107  1  0.83333333  0.70833333  0.71875000  1.0
