# generated using pymatgen
data_CrNi
_symmetry_space_group_name_H-M   'P 1'
_cell_length_a   12.27647964
_cell_length_b   12.27647964
_cell_length_c   43.40391000
_cell_angle_alpha   135.00000000
_cell_angle_beta   135.00000000
_cell_angle_gamma   60.00000000
_symmetry_Int_Tables_number   1
_chemical_formula_structural   CrNi
_chemical_formula_sum   'Cr54 Ni54'
_cell_volume   3270.74400597
_cell_formula_units_Z   54
loop_
 _symmetry_equiv_pos_site_id
 _symmetry_equiv_pos_as_xyz
  1  'x, y, z'
loop_
 _atom_site_type_symbol
 _atom_site_label
 _atom_site_symmetry_multiplicity
 _atom_site_fract_x
 _atom_site_fract_y
 _atom_site_fract_z
 _atom_site_occupancy
  Cr  Cr0  1  0.16666667  0.16666667  0.01666667  1.0
  Cr  Cr1  1  0.16666667  0.50000000  0.01666667  1.0
  Cr  Cr2  1  0.16666667  0.83333333  0.01666667  1.0
  Cr  Cr3  1  0.50000000  0.16666667  0.01666667  1.0
  Cr  Cr4  1  0.50000000  0.50000000  0.01666667  1.0
  Cr  Cr5  1  0.50000000  0.83333333  0.01666667  1.0
  Cr  Cr6  1  0.83333333  0.16666667  0.01666667  1.0
  Cr  Cr7  1  0.83333333  0.50000000  0.01666667  1.0
  Cr  Cr8  1  0.83333333  0.83333333  0.01666667  1.0
  Ni  Ni9  1  0.00000000  0.00000000  0.05000000  1.0
  Ni  Ni10  1  0.00000000  0.33333333  0.05000000  1.0
  Ni  Ni11  1  0.00000000  0.66666667  0.05000000  1.0
  Ni  Ni12  1  0.33333333  0.00000000  0.05000000  1.0
  Ni  Ni13  1  0.33333333  0.33333333  0.05000000  1.0
  Ni  Ni14  1  0.33333333  0.66666667  0.05000000  1.0
  Ni  Ni15  1  0.66666667  0.00000000  0.05000000  1.0
  Ni  Ni16  1  0.66666667  0.33333333  0.05000000  1.0
  Ni  Ni17  1  0.66666667  0.66666667  0.05000000  1.0
  Cr  Cr18  1  0.16666667  0.16666667  0.08333333  1.0
  Cr  Cr19  1  0.16666667  0.50000000  0.08333333  1.0
  Cr  Cr20  1  0.16666667  0.83333333  0.08333333  1.0
  Cr  Cr21  1  0.50000000  0.16666667  0.08333333  1.0
  Cr  Cr22  1  0.50000000  0.50000000  0.08333333  1.0
  Cr  Cr23  1  0.50000000  0.83333333  0.08333333  1.0
  Cr  Cr24  1  0.83333333  0.16666667  0.08333333  1.0
  Cr  Cr25  1  0.83333333  0.50000000  0.08333333  1.0
  Cr  Cr26  1  0.83333333  0.83333333  0.08333333  1.0
  Ni  Ni27  1  0.00000000  0.00000000  0.11666667  1.0
  Ni  Ni28  1  0.00000000  0.33333333  0.11666667  1.0
  Ni  Ni29  1  0.00000000  0.66666667  0.11666667  1.0
  Ni  Ni30  1  0.33333333  0.00000000  0.11666667  1.0
  Ni  Ni31  1  0.33333333  0.33333333  0.11666667  1.0
  Ni  Ni32  1  0.33333333  0.66666667  0.11666667  1.0
  Ni  Ni33  1  0.66666667  0.00000000  0.11666667  1.0
  Ni  Ni34  1  0.66666667  0.33333333  0.11666667  1.0
  Ni  Ni35  1  0.66666667  0.66666667  0.11666667  1.0
  Cr  Cr36  1  0.16666667  0.16666667  0.15000000  1.0
  Cr  Cr37  1  0.16666667  0.50000000  0.15000000  1.0
  Cr  Cr38  1  0.16666667  0.83333333  0.15000000  1.0
  Cr  Cr39  1  0.50000000  0.16666667  0.15000000  1.0
  Cr  Cr40  1  0.50000000  0.50000000  0.15000000  1.0
  Cr  Cr41  1  0.50000000  0.83333333  0.15000000  1.0
  Cr  Cr42  1  0.83333333  0.16666667  0.15000000  1.0
  Cr  Cr43  1  0.83333333  0.50000000  0.15000000  1.0
  Cr  Cr44  1  0.83333333  0.83333333  0.15000000  1.0
  Ni  Ni45  1  0.00000000  0.00000000  0.18333333  1.0
  Ni  Ni46  1  0.00000000  0.33333333  0.18333333  1.0
  Ni  Ni47  1  0.00000000  0.66666667  0.18333333  1.0
  Ni  Ni48  1  0.33333333  0.00000000  0.18333333  1.0
  Ni  Ni49  1  0.33333333  0.33333333  0.18333333  1.0
  Ni  Ni50  1  0.33333333  0.66666667  0.18333333  1.0
  Ni  Ni51  1  0.66666667  0.00000000  0.18333333  1.0
  Ni  Ni52  1  0.66666667  0.33333333  0.18333333  1.0
  Ni  Ni53  1  0.66666667  0.66666667  0.18333333  1.0
  Cr  Cr54  1  0.16666667  0.16666667  0.21666667  1.0
  Cr  Cr55  1  0.16666667  0.50000000  0.21666667  1.0
  Cr  Cr56  1  0.16666667  0.83333333  0.21666667  1.0
  Cr  Cr57  1  0.50000000  0.16666667  0.21666667  1.0
  Cr  Cr58  1  0.50000000  0.50000000  0.21666667  1.0
  Cr  Cr59  1  0.50000000  0.83333333  0.21666667  1.0
  Cr  Cr60  1  0.83333333  0.16666667  0.21666667  1.0
  Cr  Cr61  1  0.83333333  0.50000000  0.21666667  1.0
  Cr  Cr62  1  0.83333333  0.83333333  0.21666667  1.0
  Ni  Ni63  1  0.00000000  0.00000000  0.25000000  1.0
  Ni  Ni64  1  0.00000000  0.33333333  0.25000000  1.0
  Ni  Ni65  1  0.00000000  0.66666667  0.25000000  1.0
  Ni  Ni66  1  0.33333333  0.00000000  0.25000000  1.0
  Ni  Ni67  1  0.33333333  0.33333333  0.25000000  1.0
  Ni  Ni68  1  0.33333333  0.66666667  0.25000000  1.0
  Ni  Ni69  1  0.66666667  0.00000000  0.25000000  1.0
  Ni  Ni70  1  0.66666667  0.33333333  0.25000000  1.0
  Ni  Ni71  1  0.66666667  0.66666667  0.25000000  1.0
  Cr  Cr72  1  0.16666667  0.16666667  0.28333333  1.0
  Cr  Cr73  1  0.16666667  0.50000000  0.28333333  1.0
  Cr  Cr74  1  0.16666667  0.83333333  0.28333333  1.0
  Cr  Cr75  1  0.50000000  0.16666667  0.28333333  1.0
  Cr  Cr76  1  0.50000000  0.50000000  0.28333333  1.0
  Cr  Cr77  1  0.50000000  0.83333333  0.28333333  1.0
  Cr  Cr78  1  0.83333333  0.16666667  0.28333333  1.0
  Cr  Cr79  1  0.83333333  0.50000000  0.28333333  1.0
  Cr  Cr80  1  0.83333333  0.83333333  0.28333333  1.0
  Ni  Ni81  1  0.00000000  0.00000000  0.31666667  1.0
  Ni  Ni82  1  0.00000000  0.33333333  0.31666667  1.0
  Ni  Ni83  1  0.00000000  0.66666667  0.31666667  1.0
  Ni  Ni84  1  0.33333333  0.00000000  0.31666667  1.0
  Ni  Ni85  1  0.33333333  0.33333333  0.31666667  1.0
  Ni  Ni86  1  0.33333333  0.66666667  0.31666667  1.0
  Ni  Ni87  1  0.66666667  0.00000000  0.31666667  1.0
  Ni  Ni88  1  0.66666667  0.33333333  0.31666667  1.0
  Ni  Ni89  1  0.66666667  0.66666667  0.31666667  1.0
  Cr  Cr90  1  0.16666667  0.16666667  0.35000000  1.0
  Cr  Cr91  1  0.16666667  0.50000000  0.35000000  1.0
  Cr  Cr92  1  0.16666667  0.83333333  0.35000000  1.0
  Cr  Cr93  1  0.50000000  0.16666667  0.35000000  1.0
  Cr  Cr94  1  0.50000000  0.50000000  0.35000000  1.0
  Cr  Cr95  1  0.50000000  0.83333333  0.35000000  1.0
  Cr  Cr96  1  0.83333333  0.16666667  0.35000000  1.0
  Cr  Cr97  1  0.83333333  0.50000000  0.35000000  1.0
  Cr  Cr98  1  0.83333333  0.83333333  0.35000000  1.0
  Ni  Ni99  1  0.00000000  0.00000000  0.38333333  1.0
  Ni  Ni100  1  0.00000000  0.33333333  0.38333333  1.0
  Ni  Ni101  1  0.00000000  0.66666667  0.38333333  1.0
  Ni  Ni102  1  0.33333333  0.00000000  0.38333333  1.0
  Ni  Ni103  1  0.33333333  0.33333333  0.38333333  1.0
  Ni  Ni104  1  0.33333333  0.66666667  0.38333333  1.0
  Ni  Ni105  1  0.66666667  0.00000000  0.38333333  1.0
  Ni  Ni106  1  0.66666667  0.33333333  0.38333333  1.0
  Ni  Ni107  1  0.66666667  0.66666667  0.38333333  1.0
