# generated using pymatgen
data_CrNi
_symmetry_space_group_name_H-M   'P 1'
_cell_length_a   15.13865923
_cell_length_b   16.88000139
_cell_length_c   27.61657466
_cell_angle_alpha   94.82649258
_cell_angle_beta   92.26633154
_cell_angle_gamma   104.02121616
_symmetry_Int_Tables_number   1
_chemical_formula_structural   CrNi
_chemical_formula_sum   'Cr126 Ni126'
_cell_volume   6809.49526746
_cell_formula_units_Z   126
loop_
 _symmetry_equiv_pos_site_id
 _symmetry_equiv_pos_as_xyz
  1  'x, y, z'
loop_
 _atom_site_type_symbol
 _atom_site_label
 _atom_site_symmetry_multiplicity
 _atom_site_fract_x
 _atom_site_fract_y
 _atom_site_fract_z
 _atom_site_occupancy
  Cr  Cr0  1  0.27450980  0.18627451  0.98529412  1.0
  Cr  Cr1  1  0.27450980  0.51960784  0.98529412  1.0
  Cr  Cr2  1  0.27450980  0.85294118  0.98529412  1.0
  Cr  Cr3  1  0.60784314  0.18627451  0.98529412  1.0
  Cr  Cr4  1  0.60784314  0.51960784  0.98529412  1.0
  Cr  Cr5  1  0.60784314  0.85294118  0.98529412  1.0
  Cr  Cr6  1  0.94117647  0.18627451  0.98529412  1.0
  Cr  Cr7  1  0.94117647  0.51960784  0.98529412  1.0
  Cr  Cr8  1  0.94117647  0.85294118  0.98529412  1.0
  Cr  Cr9  1  0.15686275  0.05882353  0.95588235  1.0
  Cr  Cr10  1  0.15686275  0.39215686  0.95588235  1.0
  Cr  Cr11  1  0.15686275  0.72549020  0.95588235  1.0
  Cr  Cr12  1  0.49019608  0.05882353  0.95588235  1.0
  Cr  Cr13  1  0.49019608  0.39215686  0.95588235  1.0
  Cr  Cr14  1  0.49019608  0.72549020  0.95588235  1.0
  Cr  Cr15  1  0.82352941  0.05882353  0.95588235  1.0
  Cr  Cr16  1  0.82352941  0.39215686  0.95588235  1.0
  Cr  Cr17  1  0.82352941  0.72549020  0.95588235  1.0
  Cr  Cr18  1  0.03921569  0.26470588  0.92647059  1.0
  Cr  Cr19  1  0.03921569  0.59803922  0.92647059  1.0
  Cr  Cr20  1  0.03921569  0.93137255  0.92647059  1.0
  Cr  Cr21  1  0.37254902  0.26470588  0.92647059  1.0
  Cr  Cr22  1  0.37254902  0.59803922  0.92647059  1.0
  Cr  Cr23  1  0.37254902  0.93137255  0.92647059  1.0
  Cr  Cr24  1  0.70588235  0.26470588  0.92647059  1.0
  Cr  Cr25  1  0.70588235  0.59803922  0.92647059  1.0
  Cr  Cr26  1  0.70588235  0.93137255  0.92647059  1.0
  Cr  Cr27  1  0.25490196  0.13725490  0.89705882  1.0
  Cr  Cr28  1  0.25490196  0.47058824  0.89705882  1.0
  Cr  Cr29  1  0.25490196  0.80392157  0.89705882  1.0
  Cr  Cr30  1  0.58823529  0.13725490  0.89705882  1.0
  Cr  Cr31  1  0.58823529  0.47058824  0.89705882  1.0
  Cr  Cr32  1  0.58823529  0.80392157  0.89705882  1.0
  Cr  Cr33  1  0.92156863  0.13725490  0.89705882  1.0
  Cr  Cr34  1  0.92156863  0.47058824  0.89705882  1.0
  Cr  Cr35  1  0.92156863  0.80392157  0.89705882  1.0
  Cr  Cr36  1  0.13725490  0.00980392  0.86764706  1.0
  Cr  Cr37  1  0.13725490  0.34313725  0.86764706  1.0
  Cr  Cr38  1  0.13725490  0.67647059  0.86764706  1.0
  Cr  Cr39  1  0.47058824  0.00980392  0.86764706  1.0
  Cr  Cr40  1  0.47058824  0.34313725  0.86764706  1.0
  Cr  Cr41  1  0.47058824  0.67647059  0.86764706  1.0
  Cr  Cr42  1  0.80392157  0.00980392  0.86764706  1.0
  Cr  Cr43  1  0.80392157  0.34313725  0.86764706  1.0
  Cr  Cr44  1  0.80392157  0.67647059  0.86764706  1.0
  Cr  Cr45  1  0.01960784  0.21568627  0.83823529  1.0
  Cr  Cr46  1  0.01960784  0.54901961  0.83823529  1.0
  Cr  Cr47  1  0.01960784  0.88235294  0.83823529  1.0
  Cr  Cr48  1  0.35294118  0.21568627  0.83823529  1.0
  Cr  Cr49  1  0.35294118  0.54901961  0.83823529  1.0
  Cr  Cr50  1  0.35294118  0.88235294  0.83823529  1.0
  Cr  Cr51  1  0.68627451  0.21568627  0.83823529  1.0
  Cr  Cr52  1  0.68627451  0.54901961  0.83823529  1.0
  Cr  Cr53  1  0.68627451  0.88235294  0.83823529  1.0
  Cr  Cr54  1  0.23529412  0.08823529  0.80882353  1.0
  Cr  Cr55  1  0.23529412  0.42156863  0.80882353  1.0
  Cr  Cr56  1  0.23529412  0.75490196  0.80882353  1.0
  Cr  Cr57  1  0.56862745  0.08823529  0.80882353  1.0
  Cr  Cr58  1  0.56862745  0.42156863  0.80882353  1.0
  Cr  Cr59  1  0.56862745  0.75490196  0.80882353  1.0
  Cr  Cr60  1  0.90196078  0.08823529  0.80882353  1.0
  Cr  Cr61  1  0.90196078  0.42156863  0.80882353  1.0
  Cr  Cr62  1  0.90196078  0.75490196  0.80882353  1.0
  Cr  Cr63  1  0.11764706  0.29411765  0.77941176  1.0
  Cr  Cr64  1  0.11764706  0.62745098  0.77941176  1.0
  Cr  Cr65  1  0.11764706  0.96078431  0.77941176  1.0
  Cr  Cr66  1  0.45098039  0.29411765  0.77941176  1.0
  Cr  Cr67  1  0.45098039  0.62745098  0.77941176  1.0
  Cr  Cr68  1  0.45098039  0.96078431  0.77941176  1.0
  Cr  Cr69  1  0.78431373  0.29411765  0.77941176  1.0
  Cr  Cr70  1  0.78431373  0.62745098  0.77941176  1.0
  Cr  Cr71  1  0.78431373  0.96078431  0.77941176  1.0
  Cr  Cr72  1  0.00000000  0.16666667  0.75000000  1.0
  Cr  Cr73  1  0.00000000  0.50000000  0.75000000  1.0
  Cr  Cr74  1  0.00000000  0.83333333  0.75000000  1.0
  Cr  Cr75  1  0.33333333  0.16666667  0.75000000  1.0
  Cr  Cr76  1  0.33333333  0.50000000  0.75000000  1.0
  Cr  Cr77  1  0.33333333  0.83333333  0.75000000  1.0
  Cr  Cr78  1  0.66666667  0.16666667  0.75000000  1.0
  Cr  Cr79  1  0.66666667  0.50000000  0.75000000  1.0
  Cr  Cr80  1  0.66666667  0.83333333  0.75000000  1.0
  Cr  Cr81  1  0.21568627  0.03921569  0.72058824  1.0
  Cr  Cr82  1  0.21568627  0.37254902  0.72058824  1.0
  Cr  Cr83  1  0.21568627  0.70588235  0.72058824  1.0
  Cr  Cr84  1  0.54901961  0.03921569  0.72058824  1.0
  Cr  Cr85  1  0.54901961  0.37254902  0.72058824  1.0
  Cr  Cr86  1  0.54901961  0.70588235  0.72058824  1.0
  Cr  Cr87  1  0.88235294  0.03921569  0.72058824  1.0
  Cr  Cr88  1  0.88235294  0.37254902  0.72058824  1.0
  Cr  Cr89  1  0.88235294  0.70588235  0.72058824  1.0
  Cr  Cr90  1  0.09803922  0.24509804  0.69117647  1.0
  Cr  Cr91  1  0.09803922  0.57843137  0.69117647  1.0
  Cr  Cr92  1  0.09803922  0.91176471  0.69117647  1.0
  Cr  Cr93  1  0.43137255  0.24509804  0.69117647  1.0
  Cr  Cr94  1  0.43137255  0.57843137  0.69117647  1.0
  Cr  Cr95  1  0.43137255  0.91176471  0.69117647  1.0
  Cr  Cr96  1  0.76470588  0.24509804  0.69117647  1.0
  Cr  Cr97  1  0.76470588  0.57843137  0.69117647  1.0
  Cr  Cr98  1  0.76470588  0.91176471  0.69117647  1.0
  Cr  Cr99  1  0.31372549  0.11764706  0.66176471  1.0
  Cr  Cr100  1  0.31372549  0.45098039  0.66176471  1.0
  Cr  Cr101  1  0.31372549  0.78431373  0.66176471  1.0
  Cr  Cr102  1  0.64705882  0.11764706  0.66176471  1.0
  Cr  Cr103  1  0.64705882  0.45098039  0.66176471  1.0
  Cr  Cr104  1  0.64705882  0.78431373  0.66176471  1.0
  Cr  Cr105  1  0.98039216  0.11764706  0.66176471  1.0
  Cr  Cr106  1  0.98039216  0.45098039  0.66176471  1.0
  Cr  Cr107  1  0.98039216  0.78431373  0.66176471  1.0
  Cr  Cr108  1  0.19607843  0.32352941  0.63235294  1.0
  Cr  Cr109  1  0.19607843  0.65686275  0.63235294  1.0
  Cr  Cr110  1  0.19607843  0.99019608  0.63235294  1.0
  Cr  Cr111  1  0.52941176  0.32352941  0.63235294  1.0
  Cr  Cr112  1  0.52941176  0.65686275  0.63235294  1.0
  Cr  Cr113  1  0.52941176  0.99019608  0.63235294  1.0
  Cr  Cr114  1  0.86274510  0.32352941  0.63235294  1.0
  Cr  Cr115  1  0.86274510  0.65686275  0.63235294  1.0
  Cr  Cr116  1  0.86274510  0.99019608  0.63235294  1.0
  Cr  Cr117  1  0.07843137  0.19607843  0.60294118  1.0
  Cr  Cr118  1  0.07843137  0.52941176  0.60294118  1.0
  Cr  Cr119  1  0.07843137  0.86274510  0.60294118  1.0
  Cr  Cr120  1  0.41176471  0.19607843  0.60294118  1.0
  Cr  Cr121  1  0.41176471  0.52941176  0.60294118  1.0
  Cr  Cr122  1  0.41176471  0.86274510  0.60294118  1.0
  Cr  Cr123  1  0.74509804  0.19607843  0.60294118  1.0
  Cr  Cr124  1  0.74509804  0.52941176  0.60294118  1.0
  Cr  Cr125  1  0.74509804  0.86274510  0.60294118  1.0
  Ni  Ni126  1  0.32352941  0.05882353  0.95588235  1.0
  Ni  Ni127  1  0.32352941  0.39215686  0.95588235  1.0
  Ni  Ni128  1  0.32352941  0.72549020  0.95588235  1.0
  Ni  Ni129  1  0.65686275  0.05882353  0.95588235  1.0
  Ni  Ni130  1  0.65686275  0.39215686  0.95588235  1.0
  Ni  Ni131  1  0.65686275  0.72549020  0.95588235  1.0
  Ni  Ni132  1  0.99019608  0.05882353  0.95588235  1.0
  Ni  Ni133  1  0.99019608  0.39215686  0.95588235  1.0
  Ni  Ni134  1  0.99019608  0.72549020  0.95588235  1.0
  Ni  Ni135  1  0.10784314  0.18627451  0.98529412  1.0
  Ni  Ni136  1  0.10784314  0.51960784  0.98529412  1.0
  Ni  Ni137  1  0.10784314  0.85294118  0.98529412  1.0
  Ni  Ni138  1  0.44117647  0.18627451  0.98529412  1.0
  Ni  Ni139  1  0.44117647  0.51960784  0.98529412  1.0
  Ni  Ni140  1  0.44117647  0.85294118  0.98529412  1.0
  Ni  Ni141  1  0.77450980  0.18627451  0.98529412  1.0
  Ni  Ni142  1  0.77450980  0.51960784  0.98529412  1.0
  Ni  Ni143  1  0.77450980  0.85294118  0.98529412  1.0
  Ni  Ni144  1  0.08823529  0.13725490  0.89705882  1.0
  Ni  Ni145  1  0.08823529  0.47058824  0.89705882  1.0
  Ni  Ni146  1  0.08823529  0.80392157  0.89705882  1.0
  Ni  Ni147  1  0.42156863  0.13725490  0.89705882  1.0
  Ni  Ni148  1  0.42156863  0.47058824  0.89705882  1.0
  Ni  Ni149  1  0.42156863  0.80392157  0.89705882  1.0
  Ni  Ni150  1  0.75490196  0.13725490  0.89705882  1.0
  Ni  Ni151  1  0.75490196  0.47058824  0.89705882  1.0
  Ni  Ni152  1  0.75490196  0.80392157  0.89705882  1.0
  Ni  Ni153  1  0.20588235  0.26470588  0.92647059  1.0
  Ni  Ni154  1  0.20588235  0.59803922  0.92647059  1.0
  Ni  Ni155  1  0.20588235  0.93137255  0.92647059  1.0
  Ni  Ni156  1  0.53921569  0.26470588  0.92647059  1.0
  Ni  Ni157  1  0.53921569  0.59803922  0.92647059  1.0
  Ni  Ni158  1  0.53921569  0.93137255  0.92647059  1.0
  Ni  Ni159  1  0.87254902  0.26470588  0.92647059  1.0
  Ni  Ni160  1  0.87254902  0.59803922  0.92647059  1.0
  Ni  Ni161  1  0.87254902  0.93137255  0.92647059  1.0
  Ni  Ni162  1  0.18627451  0.21568627  0.83823529  1.0
  Ni  Ni163  1  0.18627451  0.54901961  0.83823529  1.0
  Ni  Ni164  1  0.18627451  0.88235294  0.83823529  1.0
  Ni  Ni165  1  0.51960784  0.21568627  0.83823529  1.0
  Ni  Ni166  1  0.51960784  0.54901961  0.83823529  1.0
  Ni  Ni167  1  0.51960784  0.88235294  0.83823529  1.0
  Ni  Ni168  1  0.85294118  0.21568627  0.83823529  1.0
  Ni  Ni169  1  0.85294118  0.54901961  0.83823529  1.0
  Ni  Ni170  1  0.85294118  0.88235294  0.83823529  1.0
  Ni  Ni171  1  0.30392157  0.00980392  0.86764706  1.0
  Ni  Ni172  1  0.30392157  0.34313725  0.86764706  1.0
  Ni  Ni173  1  0.30392157  0.67647059  0.86764706  1.0
  Ni  Ni174  1  0.63725490  0.00980392  0.86764706  1.0
  Ni  Ni175  1  0.63725490  0.34313725  0.86764706  1.0
  Ni  Ni176  1  0.63725490  0.67647059  0.86764706  1.0
  Ni  Ni177  1  0.97058824  0.00980392  0.86764706  1.0
  Ni  Ni178  1  0.97058824  0.34313725  0.86764706  1.0
  Ni  Ni179  1  0.97058824  0.67647059  0.86764706  1.0
  Ni  Ni180  1  0.28431373  0.29411765  0.77941176  1.0
  Ni  Ni181  1  0.28431373  0.62745098  0.77941176  1.0
  Ni  Ni182  1  0.28431373  0.96078431  0.77941176  1.0
  Ni  Ni183  1  0.61764706  0.29411765  0.77941176  1.0
  Ni  Ni184  1  0.61764706  0.62745098  0.77941176  1.0
  Ni  Ni185  1  0.61764706  0.96078431  0.77941176  1.0
  Ni  Ni186  1  0.95098039  0.29411765  0.77941176  1.0
  Ni  Ni187  1  0.95098039  0.62745098  0.77941176  1.0
  Ni  Ni188  1  0.95098039  0.96078431  0.77941176  1.0
  Ni  Ni189  1  0.06862745  0.08823529  0.80882353  1.0
  Ni  Ni190  1  0.06862745  0.42156863  0.80882353  1.0
  Ni  Ni191  1  0.06862745  0.75490196  0.80882353  1.0
  Ni  Ni192  1  0.40196078  0.08823529  0.80882353  1.0
  Ni  Ni193  1  0.40196078  0.42156863  0.80882353  1.0
  Ni  Ni194  1  0.40196078  0.75490196  0.80882353  1.0
  Ni  Ni195  1  0.73529412  0.08823529  0.80882353  1.0
  Ni  Ni196  1  0.73529412  0.42156863  0.80882353  1.0
  Ni  Ni197  1  0.73529412  0.75490196  0.80882353  1.0
  Ni  Ni198  1  0.04901961  0.03921569  0.72058824  1.0
  Ni  Ni199  1  0.04901961  0.37254902  0.72058824  1.0
  Ni  Ni200  1  0.04901961  0.70588235  0.72058824  1.0
  Ni  Ni201  1  0.38235294  0.03921569  0.72058824  1.0
  Ni  Ni202  1  0.38235294  0.37254902  0.72058824  1.0
  Ni  Ni203  1  0.38235294  0.70588235  0.72058824  1.0
  Ni  Ni204  1  0.71568627  0.03921569  0.72058824  1.0
  Ni  Ni205  1  0.71568627  0.37254902  0.72058824  1.0
  Ni  Ni206  1  0.71568627  0.70588235  0.72058824  1.0
  Ni  Ni207  1  0.16666667  0.16666667  0.75000000  1.0
  Ni  Ni208  1  0.16666667  0.50000000  0.75000000  1.0
  Ni  Ni209  1  0.16666667  0.83333333  0.75000000  1.0
  Ni  Ni210  1  0.50000000  0.16666667  0.75000000  1.0
  Ni  Ni211  1  0.50000000  0.50000000  0.75000000  1.0
  Ni  Ni212  1  0.50000000  0.83333333  0.75000000  1.0
  Ni  Ni213  1  0.83333333  0.16666667  0.75000000  1.0
  Ni  Ni214  1  0.83333333  0.50000000  0.75000000  1.0
  Ni  Ni215  1  0.83333333  0.83333333  0.75000000  1.0
  Ni  Ni216  1  0.14705882  0.11764706  0.66176471  1.0
  Ni  Ni217  1  0.14705882  0.45098039  0.66176471  1.0
  Ni  Ni218  1  0.14705882  0.78431373  0.66176471  1.0
  Ni  Ni219  1  0.48039216  0.11764706  0.66176471  1.0
  Ni  Ni220  1  0.48039216  0.45098039  0.66176471  1.0
  Ni  Ni221  1  0.48039216  0.78431373  0.66176471  1.0
  Ni  Ni222  1  0.81372549  0.11764706  0.66176471  1.0
  Ni  Ni223  1  0.81372549  0.45098039  0.66176471  1.0
  Ni  Ni224  1  0.81372549  0.78431373  0.66176471  1.0
  Ni  Ni225  1  0.26470588  0.24509804  0.69117647  1.0
  Ni  Ni226  1  0.26470588  0.57843137  0.69117647  1.0
  Ni  Ni227  1  0.26470588  0.91176471  0.69117647  1.0
  Ni  Ni228  1  0.59803922  0.24509804  0.69117647  1.0
  Ni  Ni229  1  0.59803922  0.57843137  0.69117647  1.0
  Ni  Ni230  1  0.59803922  0.91176471  0.69117647  1.0
  Ni  Ni231  1  0.93137255  0.24509804  0.69117647  1.0
  Ni  Ni232  1  0.93137255  0.57843137  0.69117647  1.0
  Ni  Ni233  1  0.93137255  0.91176471  0.69117647  1.0
  Ni  Ni234  1  0.24509804  0.19607843  0.60294118  1.0
  Ni  Ni235  1  0.24509804  0.52941176  0.60294118  1.0
  Ni  Ni236  1  0.24509804  0.86274510  0.60294118  1.0
  Ni  Ni237  1  0.57843137  0.19607843  0.60294118  1.0
  Ni  Ni238  1  0.57843137  0.52941176  0.60294118  1.0
  Ni  Ni239  1  0.57843137  0.86274510  0.60294118  1.0
  Ni  Ni240  1  0.91176471  0.19607843  0.60294118  1.0
  Ni  Ni241  1  0.91176471  0.52941176  0.60294118  1.0
  Ni  Ni242  1  0.91176471  0.86274510  0.60294118  1.0
  Ni  Ni243  1  0.02941176  0.32352941  0.63235294  1.0
  Ni  Ni244  1  0.02941176  0.65686275  0.63235294  1.0
  Ni  Ni245  1  0.02941176  0.99019608  0.63235294  1.0
  Ni  Ni246  1  0.36274510  0.32352941  0.63235294  1.0
  Ni  Ni247  1  0.36274510  0.65686275  0.63235294  1.0
  Ni  Ni248  1  0.36274510  0.99019608  0.63235294  1.0
  Ni  Ni249  1  0.69607843  0.32352941  0.63235294  1.0
  Ni  Ni250  1  0.69607843  0.65686275  0.63235294  1.0
  Ni  Ni251  1  0.69607843  0.99019608  0.63235294  1.0
