# generated using pymatgen
data_CrNi2
_symmetry_space_group_name_H-M   'P 1'
_cell_length_a   12.88777476
_cell_length_b   12.88777476
_cell_length_c   38.66332428
_cell_angle_alpha   131.13826588
_cell_angle_beta   60.52850582
_cell_angle_gamma   146.52349699
_symmetry_Int_Tables_number   1
_chemical_formula_structural   CrNi2
_chemical_formula_sum   'Cr36 Ni72'
_cell_volume   2642.71728056
_cell_formula_units_Z   36
loop_
 _symmetry_equiv_pos_site_id
 _symmetry_equiv_pos_as_xyz
  1  'x, y, z'
loop_
 _atom_site_type_symbol
 _atom_site_label
 _atom_site_symmetry_multiplicity
 _atom_site_fract_x
 _atom_site_fract_y
 _atom_site_fract_z
 _atom_site_occupancy
  Cr  Cr0  1  0.00000000  0.00000000  0.09254339  1.0
  Cr  Cr1  1  0.00000000  0.33333333  0.09254339  1.0
  Cr  Cr2  1  1.00000000  0.66666667  0.09254339  1.0
  Cr  Cr3  1  0.33333333  0.00000000  0.09254339  1.0
  Cr  Cr4  1  0.33333333  0.33333333  0.09254339  1.0
  Cr  Cr5  1  0.33333333  0.66666667  0.09254339  1.0
  Cr  Cr6  1  0.66666667  0.00000000  0.09254339  1.0
  Cr  Cr7  1  0.66666667  0.33333333  0.09254339  1.0
  Cr  Cr8  1  0.66666667  0.66666667  0.09254339  1.0
  Ni  Ni9  1  0.22192700  0.33333333  0.05540794  1.0
  Ni  Ni10  1  0.22192700  0.66666667  0.05540794  1.0
  Ni  Ni11  1  0.22192700  1.00000000  0.05540794  1.0
  Ni  Ni12  1  0.55526033  0.33333333  0.05540794  1.0
  Ni  Ni13  1  0.55526033  0.66666667  0.05540794  1.0
  Ni  Ni14  1  0.55526033  1.00000000  0.05540794  1.0
  Ni  Ni15  1  0.88859367  0.33333333  0.05540794  1.0
  Ni  Ni16  1  0.88859367  0.66666667  0.05540794  1.0
  Ni  Ni17  1  0.88859367  1.00000000  0.05540794  1.0
  Ni  Ni18  1  0.11140633  0.00000000  0.01856772  1.0
  Ni  Ni19  1  0.11140633  0.33333333  0.01856772  1.0
  Ni  Ni20  1  0.11140633  0.66666667  0.01856772  1.0
  Ni  Ni21  1  0.44473967  0.00000000  0.01856772  1.0
  Ni  Ni22  1  0.44473967  0.33333333  0.01856772  1.0
  Ni  Ni23  1  0.44473967  0.66666667  0.01856772  1.0
  Ni  Ni24  1  0.77807300  0.00000000  0.01856772  1.0
  Ni  Ni25  1  0.77807300  0.33333333  0.01856772  1.0
  Ni  Ni26  1  0.77807300  0.66666667  0.01856772  1.0
  Cr  Cr27  1  0.00000000  0.00000000  0.20365450  1.0
  Cr  Cr28  1  0.00000000  0.33333333  0.20365450  1.0
  Cr  Cr29  1  1.00000000  0.66666667  0.20365450  1.0
  Cr  Cr30  1  0.33333333  0.00000000  0.20365450  1.0
  Cr  Cr31  1  0.33333333  0.33333333  0.20365450  1.0
  Cr  Cr32  1  0.33333333  0.66666667  0.20365450  1.0
  Cr  Cr33  1  0.66666667  0.00000000  0.20365450  1.0
  Cr  Cr34  1  0.66666667  0.33333333  0.20365450  1.0
  Cr  Cr35  1  0.66666667  0.66666667  0.20365450  1.0
  Ni  Ni36  1  0.22192700  0.33333333  0.16651906  1.0
  Ni  Ni37  1  0.22192700  0.66666667  0.16651906  1.0
  Ni  Ni38  1  0.22192700  1.00000000  0.16651906  1.0
  Ni  Ni39  1  0.55526033  0.33333333  0.16651906  1.0
  Ni  Ni40  1  0.55526033  0.66666667  0.16651906  1.0
  Ni  Ni41  1  0.55526033  1.00000000  0.16651906  1.0
  Ni  Ni42  1  0.88859367  0.33333333  0.16651906  1.0
  Ni  Ni43  1  0.88859367  0.66666667  0.16651906  1.0
  Ni  Ni44  1  0.88859367  1.00000000  0.16651906  1.0
  Ni  Ni45  1  0.11140633  0.00000000  0.12967883  1.0
  Ni  Ni46  1  0.11140633  0.33333333  0.12967883  1.0
  Ni  Ni47  1  0.11140633  0.66666667  0.12967883  1.0
  Ni  Ni48  1  0.44473967  0.00000000  0.12967883  1.0
  Ni  Ni49  1  0.44473967  0.33333333  0.12967883  1.0
  Ni  Ni50  1  0.44473967  0.66666667  0.12967883  1.0
  Ni  Ni51  1  0.77807300  0.00000000  0.12967883  1.0
  Ni  Ni52  1  0.77807300  0.33333333  0.12967883  1.0
  Ni  Ni53  1  0.77807300  0.66666667  0.12967883  1.0
  Cr  Cr54  1  0.00000000  0.00000000  0.31476561  1.0
  Cr  Cr55  1  0.00000000  0.33333333  0.31476561  1.0
  Cr  Cr56  1  1.00000000  0.66666667  0.31476561  1.0
  Cr  Cr57  1  0.33333333  0.00000000  0.31476561  1.0
  Cr  Cr58  1  0.33333333  0.33333333  0.31476561  1.0
  Cr  Cr59  1  0.33333333  0.66666667  0.31476561  1.0
  Cr  Cr60  1  0.66666667  0.00000000  0.31476561  1.0
  Cr  Cr61  1  0.66666667  0.33333333  0.31476561  1.0
  Cr  Cr62  1  0.66666667  0.66666667  0.31476561  1.0
  Ni  Ni63  1  0.22192700  0.33333333  0.27763017  1.0
  Ni  Ni64  1  0.22192700  0.66666667  0.27763017  1.0
  Ni  Ni65  1  0.22192700  1.00000000  0.27763017  1.0
  Ni  Ni66  1  0.55526033  0.33333333  0.27763017  1.0
  Ni  Ni67  1  0.55526033  0.66666667  0.27763017  1.0
  Ni  Ni68  1  0.55526033  1.00000000  0.27763017  1.0
  Ni  Ni69  1  0.88859367  0.33333333  0.27763017  1.0
  Ni  Ni70  1  0.88859367  0.66666667  0.27763017  1.0
  Ni  Ni71  1  0.88859367  1.00000000  0.27763017  1.0
  Ni  Ni72  1  0.11140633  0.00000000  0.24078994  1.0
  Ni  Ni73  1  0.11140633  0.33333333  0.24078994  1.0
  Ni  Ni74  1  0.11140633  0.66666667  0.24078994  1.0
  Ni  Ni75  1  0.44473967  0.00000000  0.24078994  1.0
  Ni  Ni76  1  0.44473967  0.33333333  0.24078994  1.0
  Ni  Ni77  1  0.44473967  0.66666667  0.24078994  1.0
  Ni  Ni78  1  0.77807300  0.00000000  0.24078994  1.0
  Ni  Ni79  1  0.77807300  0.33333333  0.24078994  1.0
  Ni  Ni80  1  0.77807300  0.66666667  0.24078994  1.0
  Cr  Cr81  1  0.00000000  0.00000000  0.42587672  1.0
  Cr  Cr82  1  0.00000000  0.33333333  0.42587672  1.0
  Cr  Cr83  1  1.00000000  0.66666667  0.42587672  1.0
  Cr  Cr84  1  0.33333333  0.00000000  0.42587672  1.0
  Cr  Cr85  1  0.33333333  0.33333333  0.42587672  1.0
  Cr  Cr86  1  0.33333333  0.66666667  0.42587672  1.0
  Cr  Cr87  1  0.66666667  0.00000000  0.42587672  1.0
  Cr  Cr88  1  0.66666667  0.33333333  0.42587672  1.0
  Cr  Cr89  1  0.66666667  0.66666667  0.42587672  1.0
  Ni  Ni90  1  0.22192700  0.33333333  0.38874128  1.0
  Ni  Ni91  1  0.22192700  0.66666667  0.38874128  1.0
  Ni  Ni92  1  0.22192700  1.00000000  0.38874128  1.0
  Ni  Ni93  1  0.55526033  0.33333333  0.38874128  1.0
  Ni  Ni94  1  0.55526033  0.66666667  0.38874128  1.0
  Ni  Ni95  1  0.55526033  1.00000000  0.38874128  1.0
  Ni  Ni96  1  0.88859367  0.33333333  0.38874128  1.0
  Ni  Ni97  1  0.88859367  0.66666667  0.38874128  1.0
  Ni  Ni98  1  0.88859367  1.00000000  0.38874128  1.0
  Ni  Ni99  1  0.11140633  0.00000000  0.35190106  1.0
  Ni  Ni100  1  0.11140633  0.33333333  0.35190106  1.0
  Ni  Ni101  1  0.11140633  0.66666667  0.35190106  1.0
  Ni  Ni102  1  0.44473967  0.00000000  0.35190106  1.0
  Ni  Ni103  1  0.44473967  0.33333333  0.35190106  1.0
  Ni  Ni104  1  0.44473967  0.66666667  0.35190106  1.0
  Ni  Ni105  1  0.77807300  0.00000000  0.35190106  1.0
  Ni  Ni106  1  0.77807300  0.33333333  0.35190106  1.0
  Ni  Ni107  1  0.77807300  0.66666667  0.35190106  1.0
