# generated using pymatgen
data_CrNi2
_symmetry_space_group_name_H-M   'P 1'
_cell_length_a   16.62248979
_cell_length_b   22.44115798
_cell_length_c   27.61571877
_cell_angle_alpha   88.25183324
_cell_angle_beta   84.61083246
_cell_angle_gamma   76.77810918
_symmetry_Int_Tables_number   1
_chemical_formula_structural   CrNi2
_chemical_formula_sum   'Cr126 Ni252'
_cell_volume   9983.59861545
_cell_formula_units_Z   126
loop_
 _symmetry_equiv_pos_site_id
 _symmetry_equiv_pos_as_xyz
  1  'x, y, z'
loop_
 _atom_site_type_symbol
 _atom_site_label
 _atom_site_symmetry_multiplicity
 _atom_site_fract_x
 _atom_site_fract_y
 _atom_site_fract_z
 _atom_site_occupancy
  Cr  Cr0  1  0.19083783  0.30397367  0.95596050  1.0
  Cr  Cr1  1  0.19083783  0.63730700  0.95596050  1.0
  Cr  Cr2  1  0.19083783  0.97064033  0.95596050  1.0
  Cr  Cr3  1  0.52417117  0.30397367  0.95596050  1.0
  Cr  Cr4  1  0.52417117  0.63730700  0.95596050  1.0
  Cr  Cr5  1  0.52417117  0.97064033  0.95596050  1.0
  Cr  Cr6  1  0.85750450  0.30397367  0.95596050  1.0
  Cr  Cr7  1  0.85750450  0.63730700  0.95596050  1.0
  Cr  Cr8  1  0.85750450  0.97064033  0.95596050  1.0
  Cr  Cr9  1  0.06338685  0.15691484  0.98537226  1.0
  Cr  Cr10  1  0.06338685  0.49024818  0.98537226  1.0
  Cr  Cr11  1  0.06338685  0.82358151  0.98537226  1.0
  Cr  Cr12  1  0.39672019  0.15691484  0.98537226  1.0
  Cr  Cr13  1  0.39672019  0.49024818  0.98537226  1.0
  Cr  Cr14  1  0.39672019  0.82358151  0.98537226  1.0
  Cr  Cr15  1  0.73005352  0.15691484  0.98537226  1.0
  Cr  Cr16  1  0.73005352  0.49024818  0.98537226  1.0
  Cr  Cr17  1  0.73005352  0.82358151  0.98537226  1.0
  Cr  Cr18  1  0.11240646  0.26475798  0.89713697  1.0
  Cr  Cr19  1  0.11240646  0.59809131  0.89713697  1.0
  Cr  Cr20  1  0.11240646  0.93142465  0.89713697  1.0
  Cr  Cr21  1  0.44573979  0.26475798  0.89713697  1.0
  Cr  Cr22  1  0.44573979  0.59809131  0.89713697  1.0
  Cr  Cr23  1  0.44573979  0.93142465  0.89713697  1.0
  Cr  Cr24  1  0.77907313  0.26475798  0.89713697  1.0
  Cr  Cr25  1  0.77907313  0.59809131  0.89713697  1.0
  Cr  Cr26  1  0.77907313  0.93142465  0.89713697  1.0
  Cr  Cr27  1  0.31828881  0.11769916  0.92654874  1.0
  Cr  Cr28  1  0.31828881  0.45103249  0.92654874  1.0
  Cr  Cr29  1  0.31828881  0.78436582  0.92654874  1.0
  Cr  Cr30  1  0.65162215  0.11769916  0.92654874  1.0
  Cr  Cr31  1  0.65162215  0.45103249  0.92654874  1.0
  Cr  Cr32  1  0.65162215  0.78436582  0.92654874  1.0
  Cr  Cr33  1  0.98495548  0.11769916  0.92654874  1.0
  Cr  Cr34  1  0.98495548  0.45103249  0.92654874  1.0
  Cr  Cr35  1  0.98495548  0.78436582  0.92654874  1.0
  Cr  Cr36  1  0.03397509  0.22554229  0.83831344  1.0
  Cr  Cr37  1  0.03397509  0.55887563  0.83831344  1.0
  Cr  Cr38  1  0.03397509  0.89220896  0.83831344  1.0
  Cr  Cr39  1  0.36730842  0.22554229  0.83831344  1.0
  Cr  Cr40  1  0.36730842  0.55887563  0.83831344  1.0
  Cr  Cr41  1  0.36730842  0.89220896  0.83831344  1.0
  Cr  Cr42  1  0.70064175  0.22554229  0.83831344  1.0
  Cr  Cr43  1  0.70064175  0.55887563  0.83831344  1.0
  Cr  Cr44  1  0.70064175  0.89220896  0.83831344  1.0
  Cr  Cr45  1  0.23985744  0.07848347  0.86772521  1.0
  Cr  Cr46  1  0.23985744  0.41181680  0.86772521  1.0
  Cr  Cr47  1  0.23985744  0.74515014  0.86772521  1.0
  Cr  Cr48  1  0.57319077  0.07848347  0.86772521  1.0
  Cr  Cr49  1  0.57319077  0.41181680  0.86772521  1.0
  Cr  Cr50  1  0.57319077  0.74515014  0.86772521  1.0
  Cr  Cr51  1  0.90652411  0.07848347  0.86772521  1.0
  Cr  Cr52  1  0.90652411  0.41181680  0.86772521  1.0
  Cr  Cr53  1  0.90652411  0.74515014  0.86772521  1.0
  Cr  Cr54  1  0.28887705  0.18632661  0.77948991  1.0
  Cr  Cr55  1  0.28887705  0.51965994  0.77948991  1.0
  Cr  Cr56  1  0.28887705  0.85299327  0.77948991  1.0
  Cr  Cr57  1  0.62221038  0.18632661  0.77948991  1.0
  Cr  Cr58  1  0.62221038  0.51965994  0.77948991  1.0
  Cr  Cr59  1  0.62221038  0.85299327  0.77948991  1.0
  Cr  Cr60  1  0.95554372  0.18632661  0.77948991  1.0
  Cr  Cr61  1  0.95554372  0.51965994  0.77948991  1.0
  Cr  Cr62  1  0.95554372  0.85299327  0.77948991  1.0
  Cr  Cr63  1  0.16142607  0.03926778  0.80890168  1.0
  Cr  Cr64  1  0.16142607  0.37260112  0.80890168  1.0
  Cr  Cr65  1  0.16142607  0.70593445  0.80890168  1.0
  Cr  Cr66  1  0.49475940  0.03926778  0.80890168  1.0
  Cr  Cr67  1  0.49475940  0.37260112  0.80890168  1.0
  Cr  Cr68  1  0.49475940  0.70593445  0.80890168  1.0
  Cr  Cr69  1  0.82809274  0.03926778  0.80890168  1.0
  Cr  Cr70  1  0.82809274  0.37260112  0.80890168  1.0
  Cr  Cr71  1  0.82809274  0.70593445  0.80890168  1.0
  Cr  Cr72  1  0.21044568  0.14711092  0.72066638  1.0
  Cr  Cr73  1  0.21044568  0.48044425  0.72066638  1.0
  Cr  Cr74  1  0.21044568  0.81377759  0.72066638  1.0
  Cr  Cr75  1  0.54377901  0.14711092  0.72066638  1.0
  Cr  Cr76  1  0.54377901  0.48044425  0.72066638  1.0
  Cr  Cr77  1  0.54377901  0.81377759  0.72066638  1.0
  Cr  Cr78  1  0.87711234  0.14711092  0.72066638  1.0
  Cr  Cr79  1  0.87711234  0.48044425  0.72066638  1.0
  Cr  Cr80  1  0.87711234  0.81377759  0.72066638  1.0
  Cr  Cr81  1  0.08299470  0.00005210  0.75007815  1.0
  Cr  Cr82  1  0.08299470  0.33338543  0.75007815  1.0
  Cr  Cr83  1  0.08299470  0.66671876  0.75007815  1.0
  Cr  Cr84  1  0.41632803  0.00005210  0.75007815  1.0
  Cr  Cr85  1  0.41632803  0.33338543  0.75007815  1.0
  Cr  Cr86  1  0.41632803  0.66671876  0.75007815  1.0
  Cr  Cr87  1  0.74966136  0.00005210  0.75007815  1.0
  Cr  Cr88  1  0.74966136  0.33338543  0.75007815  1.0
  Cr  Cr89  1  0.74966136  0.66671876  0.75007815  1.0
  Cr  Cr90  1  0.13201430  0.10789524  0.66184285  1.0
  Cr  Cr91  1  0.13201430  0.44122857  0.66184285  1.0
  Cr  Cr92  1  0.13201430  0.77456190  0.66184285  1.0
  Cr  Cr93  1  0.46534764  0.10789524  0.66184285  1.0
  Cr  Cr94  1  0.46534764  0.44122857  0.66184285  1.0
  Cr  Cr95  1  0.46534764  0.77456190  0.66184285  1.0
  Cr  Cr96  1  0.79868097  0.10789524  0.66184285  1.0
  Cr  Cr97  1  0.79868097  0.44122857  0.66184285  1.0
  Cr  Cr98  1  0.79868097  0.77456190  0.66184285  1.0
  Cr  Cr99  1  0.00456332  0.29416975  0.69125462  1.0
  Cr  Cr100  1  0.00456332  0.62750308  0.69125462  1.0
  Cr  Cr101  1  0.00456332  0.96083641  0.69125462  1.0
  Cr  Cr102  1  0.33789666  0.29416975  0.69125462  1.0
  Cr  Cr103  1  0.33789666  0.62750308  0.69125462  1.0
  Cr  Cr104  1  0.33789666  0.96083641  0.69125462  1.0
  Cr  Cr105  1  0.67122999  0.29416975  0.69125462  1.0
  Cr  Cr106  1  0.67122999  0.62750308  0.69125462  1.0
  Cr  Cr107  1  0.67122999  0.96083641  0.69125462  1.0
  Cr  Cr108  1  0.05358293  0.06867955  0.60301932  1.0
  Cr  Cr109  1  0.05358293  0.40201288  0.60301932  1.0
  Cr  Cr110  1  0.05358293  0.73534622  0.60301932  1.0
  Cr  Cr111  1  0.38691626  0.06867955  0.60301932  1.0
  Cr  Cr112  1  0.38691626  0.40201288  0.60301932  1.0
  Cr  Cr113  1  0.38691626  0.73534622  0.60301932  1.0
  Cr  Cr114  1  0.72024960  0.06867955  0.60301932  1.0
  Cr  Cr115  1  0.72024960  0.40201288  0.60301932  1.0
  Cr  Cr116  1  0.72024960  0.73534622  0.60301932  1.0
  Cr  Cr117  1  0.25946528  0.25495406  0.63243109  1.0
  Cr  Cr118  1  0.25946528  0.58828739  0.63243109  1.0
  Cr  Cr119  1  0.25946528  0.92162073  0.63243109  1.0
  Cr  Cr120  1  0.59279862  0.25495406  0.63243109  1.0
  Cr  Cr121  1  0.59279862  0.58828739  0.63243109  1.0
  Cr  Cr122  1  0.59279862  0.92162073  0.63243109  1.0
  Cr  Cr123  1  0.92613195  0.25495406  0.63243109  1.0
  Cr  Cr124  1  0.92613195  0.58828739  0.63243109  1.0
  Cr  Cr125  1  0.92613195  0.92162073  0.63243109  1.0
  Ni  Ni126  1  0.19049920  0.19306226  0.95603865  1.0
  Ni  Ni127  1  0.19049920  0.52639560  0.95603865  1.0
  Ni  Ni128  1  0.19049920  0.85972893  0.95603865  1.0
  Ni  Ni129  1  0.52383253  0.19306226  0.95603865  1.0
  Ni  Ni130  1  0.52383253  0.52639560  0.95603865  1.0
  Ni  Ni131  1  0.52383253  0.85972893  0.95603865  1.0
  Ni  Ni132  1  0.85716586  0.19306226  0.95603865  1.0
  Ni  Ni133  1  0.85716586  0.52639560  0.95603865  1.0
  Ni  Ni134  1  0.85716586  0.85972893  0.95603865  1.0
  Ni  Ni135  1  0.06304822  0.04600344  0.98545041  1.0
  Ni  Ni136  1  0.06304822  0.37933677  0.98545041  1.0
  Ni  Ni137  1  0.06304822  0.71267011  0.98545041  1.0
  Ni  Ni138  1  0.39638155  0.04600344  0.98545041  1.0
  Ni  Ni139  1  0.39638155  0.37933677  0.98545041  1.0
  Ni  Ni140  1  0.39638155  0.71267011  0.98545041  1.0
  Ni  Ni141  1  0.72971488  0.04600344  0.98545041  1.0
  Ni  Ni142  1  0.72971488  0.37933677  0.98545041  1.0
  Ni  Ni143  1  0.72971488  0.71267011  0.98545041  1.0
  Ni  Ni144  1  0.06372549  0.26782625  0.98529412  1.0
  Ni  Ni145  1  0.06372549  0.60115958  0.98529412  1.0
  Ni  Ni146  1  0.06372549  0.93449291  0.98529412  1.0
  Ni  Ni147  1  0.39705882  0.26782625  0.98529412  1.0
  Ni  Ni148  1  0.39705882  0.60115958  0.98529412  1.0
  Ni  Ni149  1  0.39705882  0.93449291  0.98529412  1.0
  Ni  Ni150  1  0.73039216  0.26782625  0.98529412  1.0
  Ni  Ni151  1  0.73039216  0.60115958  0.98529412  1.0
  Ni  Ni152  1  0.73039216  0.93449291  0.98529412  1.0
  Ni  Ni153  1  0.19117647  0.08155174  0.95588235  1.0
  Ni  Ni154  1  0.19117647  0.41488507  0.95588235  1.0
  Ni  Ni155  1  0.19117647  0.74821840  0.95588235  1.0
  Ni  Ni156  1  0.52450980  0.08155174  0.95588235  1.0
  Ni  Ni157  1  0.52450980  0.41488507  0.95588235  1.0
  Ni  Ni158  1  0.52450980  0.74821840  0.95588235  1.0
  Ni  Ni159  1  0.85784314  0.08155174  0.95588235  1.0
  Ni  Ni160  1  0.85784314  0.41488507  0.95588235  1.0
  Ni  Ni161  1  0.85784314  0.74821840  0.95588235  1.0
  Ni  Ni162  1  0.11206782  0.15384658  0.89721512  1.0
  Ni  Ni163  1  0.11206782  0.48717991  0.89721512  1.0
  Ni  Ni164  1  0.11206782  0.82051325  0.89721512  1.0
  Ni  Ni165  1  0.44540116  0.15384658  0.89721512  1.0
  Ni  Ni166  1  0.44540116  0.48717991  0.89721512  1.0
  Ni  Ni167  1  0.44540116  0.82051325  0.89721512  1.0
  Ni  Ni168  1  0.77873449  0.15384658  0.89721512  1.0
  Ni  Ni169  1  0.77873449  0.48717991  0.89721512  1.0
  Ni  Ni170  1  0.77873449  0.82051325  0.89721512  1.0
  Ni  Ni171  1  0.31795018  0.00678775  0.92662688  1.0
  Ni  Ni172  1  0.31795018  0.34012109  0.92662688  1.0
  Ni  Ni173  1  0.31795018  0.67345442  0.92662688  1.0
  Ni  Ni174  1  0.65128351  0.00678775  0.92662688  1.0
  Ni  Ni175  1  0.65128351  0.34012109  0.92662688  1.0
  Ni  Ni176  1  0.65128351  0.67345442  0.92662688  1.0
  Ni  Ni177  1  0.98461684  0.00678775  0.92662688  1.0
  Ni  Ni178  1  0.98461684  0.34012109  0.92662688  1.0
  Ni  Ni179  1  0.98461684  0.67345442  0.92662688  1.0
  Ni  Ni180  1  0.31862745  0.22861056  0.92647059  1.0
  Ni  Ni181  1  0.31862745  0.56194389  0.92647059  1.0
  Ni  Ni182  1  0.31862745  0.89527723  0.92647059  1.0
  Ni  Ni183  1  0.65196078  0.22861056  0.92647059  1.0
  Ni  Ni184  1  0.65196078  0.56194389  0.92647059  1.0
  Ni  Ni185  1  0.65196078  0.89527723  0.92647059  1.0
  Ni  Ni186  1  0.98529412  0.22861056  0.92647059  1.0
  Ni  Ni187  1  0.98529412  0.56194389  0.92647059  1.0
  Ni  Ni188  1  0.98529412  0.89527723  0.92647059  1.0
  Ni  Ni189  1  0.11274510  0.04233605  0.89705882  1.0
  Ni  Ni190  1  0.11274510  0.37566938  0.89705882  1.0
  Ni  Ni191  1  0.11274510  0.70900272  0.89705882  1.0
  Ni  Ni192  1  0.44607843  0.04233605  0.89705882  1.0
  Ni  Ni193  1  0.44607843  0.37566938  0.89705882  1.0
  Ni  Ni194  1  0.44607843  0.70900272  0.89705882  1.0
  Ni  Ni195  1  0.77941176  0.04233605  0.89705882  1.0
  Ni  Ni196  1  0.77941176  0.37566938  0.89705882  1.0
  Ni  Ni197  1  0.77941176  0.70900272  0.89705882  1.0
  Ni  Ni198  1  0.03363645  0.11463089  0.83839159  1.0
  Ni  Ni199  1  0.03363645  0.44796423  0.83839159  1.0
  Ni  Ni200  1  0.03363645  0.78129756  0.83839159  1.0
  Ni  Ni201  1  0.36696978  0.11463089  0.83839159  1.0
  Ni  Ni202  1  0.36696978  0.44796423  0.83839159  1.0
  Ni  Ni203  1  0.36696978  0.78129756  0.83839159  1.0
  Ni  Ni204  1  0.70030312  0.11463089  0.83839159  1.0
  Ni  Ni205  1  0.70030312  0.44796423  0.83839159  1.0
  Ni  Ni206  1  0.70030312  0.78129756  0.83839159  1.0
  Ni  Ni207  1  0.23951880  0.30090540  0.86780335  1.0
  Ni  Ni208  1  0.23951880  0.63423874  0.86780335  1.0
  Ni  Ni209  1  0.23951880  0.96757207  0.86780335  1.0
  Ni  Ni210  1  0.57285214  0.30090540  0.86780335  1.0
  Ni  Ni211  1  0.57285214  0.63423874  0.86780335  1.0
  Ni  Ni212  1  0.57285214  0.96757207  0.86780335  1.0
  Ni  Ni213  1  0.90618547  0.30090540  0.86780335  1.0
  Ni  Ni214  1  0.90618547  0.63423874  0.86780335  1.0
  Ni  Ni215  1  0.90618547  0.96757207  0.86780335  1.0
  Ni  Ni216  1  0.24019608  0.18939487  0.86764706  1.0
  Ni  Ni217  1  0.24019608  0.52272821  0.86764706  1.0
  Ni  Ni218  1  0.24019608  0.85606154  0.86764706  1.0
  Ni  Ni219  1  0.57352941  0.18939487  0.86764706  1.0
  Ni  Ni220  1  0.57352941  0.52272821  0.86764706  1.0
  Ni  Ni221  1  0.57352941  0.85606154  0.86764706  1.0
  Ni  Ni222  1  0.90686275  0.18939487  0.86764706  1.0
  Ni  Ni223  1  0.90686275  0.52272821  0.86764706  1.0
  Ni  Ni224  1  0.90686275  0.85606154  0.86764706  1.0
  Ni  Ni225  1  0.03431373  0.00312036  0.83823529  1.0
  Ni  Ni226  1  0.03431373  0.33645370  0.83823529  1.0
  Ni  Ni227  1  0.03431373  0.66978703  0.83823529  1.0
  Ni  Ni228  1  0.36764706  0.00312036  0.83823529  1.0
  Ni  Ni229  1  0.36764706  0.33645370  0.83823529  1.0
  Ni  Ni230  1  0.36764706  0.66978703  0.83823529  1.0
  Ni  Ni231  1  0.70098039  0.00312036  0.83823529  1.0
  Ni  Ni232  1  0.70098039  0.33645370  0.83823529  1.0
  Ni  Ni233  1  0.70098039  0.66978703  0.83823529  1.0
  Ni  Ni234  1  0.28853841  0.07541521  0.77956806  1.0
  Ni  Ni235  1  0.28853841  0.40874854  0.77956806  1.0
  Ni  Ni236  1  0.28853841  0.74208187  0.77956806  1.0
  Ni  Ni237  1  0.62187175  0.07541521  0.77956806  1.0
  Ni  Ni238  1  0.62187175  0.40874854  0.77956806  1.0
  Ni  Ni239  1  0.62187175  0.74208187  0.77956806  1.0
  Ni  Ni240  1  0.95520508  0.07541521  0.77956806  1.0
  Ni  Ni241  1  0.95520508  0.40874854  0.77956806  1.0
  Ni  Ni242  1  0.95520508  0.74208187  0.77956806  1.0
  Ni  Ni243  1  0.16108743  0.26168972  0.80897982  1.0
  Ni  Ni244  1  0.16108743  0.59502305  0.80897982  1.0
  Ni  Ni245  1  0.16108743  0.92835638  0.80897982  1.0
  Ni  Ni246  1  0.49442076  0.26168972  0.80897982  1.0
  Ni  Ni247  1  0.49442076  0.59502305  0.80897982  1.0
  Ni  Ni248  1  0.49442076  0.92835638  0.80897982  1.0
  Ni  Ni249  1  0.82775410  0.26168972  0.80897982  1.0
  Ni  Ni250  1  0.82775410  0.59502305  0.80897982  1.0
  Ni  Ni251  1  0.82775410  0.92835638  0.80897982  1.0
  Ni  Ni252  1  0.16176471  0.15017919  0.80882353  1.0
  Ni  Ni253  1  0.16176471  0.48351252  0.80882353  1.0
  Ni  Ni254  1  0.16176471  0.81684585  0.80882353  1.0
  Ni  Ni255  1  0.49509804  0.15017919  0.80882353  1.0
  Ni  Ni256  1  0.49509804  0.48351252  0.80882353  1.0
  Ni  Ni257  1  0.49509804  0.81684585  0.80882353  1.0
  Ni  Ni258  1  0.82843137  0.15017919  0.80882353  1.0
  Ni  Ni259  1  0.82843137  0.48351252  0.80882353  1.0
  Ni  Ni260  1  0.82843137  0.81684585  0.80882353  1.0
  Ni  Ni261  1  0.28921569  0.29723801  0.77941176  1.0
  Ni  Ni262  1  0.28921569  0.63057134  0.77941176  1.0
  Ni  Ni263  1  0.28921569  0.96390468  0.77941176  1.0
  Ni  Ni264  1  0.62254902  0.29723801  0.77941176  1.0
  Ni  Ni265  1  0.62254902  0.63057134  0.77941176  1.0
  Ni  Ni266  1  0.62254902  0.96390468  0.77941176  1.0
  Ni  Ni267  1  0.95588235  0.29723801  0.77941176  1.0
  Ni  Ni268  1  0.95588235  0.63057134  0.77941176  1.0
  Ni  Ni269  1  0.95588235  0.96390468  0.77941176  1.0
  Ni  Ni270  1  0.21010704  0.03619952  0.72074453  1.0
  Ni  Ni271  1  0.21010704  0.36953285  0.72074453  1.0
  Ni  Ni272  1  0.21010704  0.70286619  0.72074453  1.0
  Ni  Ni273  1  0.54344037  0.03619952  0.72074453  1.0
  Ni  Ni274  1  0.54344037  0.36953285  0.72074453  1.0
  Ni  Ni275  1  0.54344037  0.70286619  0.72074453  1.0
  Ni  Ni276  1  0.87677371  0.03619952  0.72074453  1.0
  Ni  Ni277  1  0.87677371  0.36953285  0.72074453  1.0
  Ni  Ni278  1  0.87677371  0.70286619  0.72074453  1.0
  Ni  Ni279  1  0.08265606  0.22247403  0.75015629  1.0
  Ni  Ni280  1  0.08265606  0.55580736  0.75015629  1.0
  Ni  Ni281  1  0.08265606  0.88914070  0.75015629  1.0
  Ni  Ni282  1  0.41598939  0.22247403  0.75015629  1.0
  Ni  Ni283  1  0.41598939  0.55580736  0.75015629  1.0
  Ni  Ni284  1  0.41598939  0.88914070  0.75015629  1.0
  Ni  Ni285  1  0.74932273  0.22247403  0.75015629  1.0
  Ni  Ni286  1  0.74932273  0.55580736  0.75015629  1.0
  Ni  Ni287  1  0.74932273  0.88914070  0.75015629  1.0
  Ni  Ni288  1  0.08333333  0.11096350  0.75000000  1.0
  Ni  Ni289  1  0.08333333  0.44429683  0.75000000  1.0
  Ni  Ni290  1  0.08333333  0.77763017  0.75000000  1.0
  Ni  Ni291  1  0.41666667  0.11096350  0.75000000  1.0
  Ni  Ni292  1  0.41666667  0.44429683  0.75000000  1.0
  Ni  Ni293  1  0.41666667  0.77763017  0.75000000  1.0
  Ni  Ni294  1  0.75000000  0.11096350  0.75000000  1.0
  Ni  Ni295  1  0.75000000  0.44429683  0.75000000  1.0
  Ni  Ni296  1  0.75000000  0.77763017  0.75000000  1.0
  Ni  Ni297  1  0.21078431  0.25802232  0.72058824  1.0
  Ni  Ni298  1  0.21078431  0.59135566  0.72058824  1.0
  Ni  Ni299  1  0.21078431  0.92468899  0.72058824  1.0
  Ni  Ni300  1  0.54411765  0.25802232  0.72058824  1.0
  Ni  Ni301  1  0.54411765  0.59135566  0.72058824  1.0
  Ni  Ni302  1  0.54411765  0.92468899  0.72058824  1.0
  Ni  Ni303  1  0.87745098  0.25802232  0.72058824  1.0
  Ni  Ni304  1  0.87745098  0.59135566  0.72058824  1.0
  Ni  Ni305  1  0.87745098  0.92468899  0.72058824  1.0
  Ni  Ni306  1  0.13167567  0.33031717  0.66192100  1.0
  Ni  Ni307  1  0.13167567  0.66365050  0.66192100  1.0
  Ni  Ni308  1  0.13167567  0.99698383  0.66192100  1.0
  Ni  Ni309  1  0.46500900  0.33031717  0.66192100  1.0
  Ni  Ni310  1  0.46500900  0.66365050  0.66192100  1.0
  Ni  Ni311  1  0.46500900  0.99698383  0.66192100  1.0
  Ni  Ni312  1  0.79834233  0.33031717  0.66192100  1.0
  Ni  Ni313  1  0.79834233  0.66365050  0.66192100  1.0
  Ni  Ni314  1  0.79834233  0.99698383  0.66192100  1.0
  Ni  Ni315  1  0.00422469  0.18325834  0.69133276  1.0
  Ni  Ni316  1  0.00422469  0.51659168  0.69133276  1.0
  Ni  Ni317  1  0.00422469  0.84992501  0.69133276  1.0
  Ni  Ni318  1  0.33755802  0.18325834  0.69133276  1.0
  Ni  Ni319  1  0.33755802  0.51659168  0.69133276  1.0
  Ni  Ni320  1  0.33755802  0.84992501  0.69133276  1.0
  Ni  Ni321  1  0.67089135  0.18325834  0.69133276  1.0
  Ni  Ni322  1  0.67089135  0.51659168  0.69133276  1.0
  Ni  Ni323  1  0.67089135  0.84992501  0.69133276  1.0
  Ni  Ni324  1  0.00490196  0.07174781  0.69117647  1.0
  Ni  Ni325  1  0.00490196  0.40508115  0.69117647  1.0
  Ni  Ni326  1  0.00490196  0.73841448  0.69117647  1.0
  Ni  Ni327  1  0.33823529  0.07174781  0.69117647  1.0
  Ni  Ni328  1  0.33823529  0.40508115  0.69117647  1.0
  Ni  Ni329  1  0.33823529  0.73841448  0.69117647  1.0
  Ni  Ni330  1  0.67156863  0.07174781  0.69117647  1.0
  Ni  Ni331  1  0.67156863  0.40508115  0.69117647  1.0
  Ni  Ni332  1  0.67156863  0.73841448  0.69117647  1.0
  Ni  Ni333  1  0.13235294  0.21880664  0.66176471  1.0
  Ni  Ni334  1  0.13235294  0.55213997  0.66176471  1.0
  Ni  Ni335  1  0.13235294  0.88547330  0.66176471  1.0
  Ni  Ni336  1  0.46568627  0.21880664  0.66176471  1.0
  Ni  Ni337  1  0.46568627  0.55213997  0.66176471  1.0
  Ni  Ni338  1  0.46568627  0.88547330  0.66176471  1.0
  Ni  Ni339  1  0.79901961  0.21880664  0.66176471  1.0
  Ni  Ni340  1  0.79901961  0.55213997  0.66176471  1.0
  Ni  Ni341  1  0.79901961  0.88547330  0.66176471  1.0
  Ni  Ni342  1  0.05324429  0.29110148  0.60309747  1.0
  Ni  Ni343  1  0.05324429  0.62443481  0.60309747  1.0
  Ni  Ni344  1  0.05324429  0.95776815  0.60309747  1.0
  Ni  Ni345  1  0.38657763  0.29110148  0.60309747  1.0
  Ni  Ni346  1  0.38657763  0.62443481  0.60309747  1.0
  Ni  Ni347  1  0.38657763  0.95776815  0.60309747  1.0
  Ni  Ni348  1  0.71991096  0.29110148  0.60309747  1.0
  Ni  Ni349  1  0.71991096  0.62443481  0.60309747  1.0
  Ni  Ni350  1  0.71991096  0.95776815  0.60309747  1.0
  Ni  Ni351  1  0.25912665  0.14404266  0.63250924  1.0
  Ni  Ni352  1  0.25912665  0.47737599  0.63250924  1.0
  Ni  Ni353  1  0.25912665  0.81070932  0.63250924  1.0
  Ni  Ni354  1  0.59245998  0.14404266  0.63250924  1.0
  Ni  Ni355  1  0.59245998  0.47737599  0.63250924  1.0
  Ni  Ni356  1  0.59245998  0.81070932  0.63250924  1.0
  Ni  Ni357  1  0.92579331  0.14404266  0.63250924  1.0
  Ni  Ni358  1  0.92579331  0.47737599  0.63250924  1.0
  Ni  Ni359  1  0.92579331  0.81070932  0.63250924  1.0
  Ni  Ni360  1  0.25980392  0.03253213  0.63235294  1.0
  Ni  Ni361  1  0.25980392  0.36586546  0.63235294  1.0
  Ni  Ni362  1  0.25980392  0.69919879  0.63235294  1.0
  Ni  Ni363  1  0.59313725  0.03253213  0.63235294  1.0
  Ni  Ni364  1  0.59313725  0.36586546  0.63235294  1.0
  Ni  Ni365  1  0.59313725  0.69919879  0.63235294  1.0
  Ni  Ni366  1  0.92647059  0.03253213  0.63235294  1.0
  Ni  Ni367  1  0.92647059  0.36586546  0.63235294  1.0
  Ni  Ni368  1  0.92647059  0.69919879  0.63235294  1.0
  Ni  Ni369  1  0.05392157  0.17959095  0.60294118  1.0
  Ni  Ni370  1  0.05392157  0.51292428  0.60294118  1.0
  Ni  Ni371  1  0.05392157  0.84625762  0.60294118  1.0
  Ni  Ni372  1  0.38725490  0.17959095  0.60294118  1.0
  Ni  Ni373  1  0.38725490  0.51292428  0.60294118  1.0
  Ni  Ni374  1  0.38725490  0.84625762  0.60294118  1.0
  Ni  Ni375  1  0.72058824  0.17959095  0.60294118  1.0
  Ni  Ni376  1  0.72058824  0.51292428  0.60294118  1.0
  Ni  Ni377  1  0.72058824  0.84625762  0.60294118  1.0
