# generated using pymatgen
data_CrNi3
_symmetry_space_group_name_H-M   'P 1'
_cell_length_a   7.50375922
_cell_length_b   26.03924143
_cell_length_c   28.63273957
_cell_angle_alpha   92.82523813
_cell_angle_beta   90.00000000
_cell_angle_gamma   90.00000000
_symmetry_Int_Tables_number   1
_chemical_formula_structural   CrNi3
_chemical_formula_sum   'Cr54 Ni162'
_cell_volume   5587.81379151
_cell_formula_units_Z   54
loop_
 _symmetry_equiv_pos_site_id
 _symmetry_equiv_pos_as_xyz
  1  'x, y, z'
loop_
 _atom_site_type_symbol
 _atom_site_label
 _atom_site_symmetry_multiplicity
 _atom_site_fract_x
 _atom_site_fract_y
 _atom_site_fract_z
 _atom_site_occupancy
  Cr  Cr0  1  0.33333333  0.11874476  0.89270571  1.0
  Cr  Cr1  1  0.33333333  0.45207810  0.89270571  1.0
  Cr  Cr2  1  0.33333333  0.78541143  0.89270571  1.0
  Cr  Cr3  1  0.66666667  0.11874476  0.89270571  1.0
  Cr  Cr4  1  0.66666667  0.45207810  0.89270571  1.0
  Cr  Cr5  1  0.66666667  0.78541143  0.89270571  1.0
  Cr  Cr6  1  1.00000000  0.11874476  0.89270571  1.0
  Cr  Cr7  1  1.00000000  0.45207810  0.89270571  1.0
  Cr  Cr8  1  0.00000000  0.78541143  0.89270571  1.0
  Cr  Cr9  1  0.16666667  0.09493524  0.96413429  1.0
  Cr  Cr10  1  0.16666667  0.42826857  0.96413429  1.0
  Cr  Cr11  1  0.16666667  0.76160190  0.96413429  1.0
  Cr  Cr12  1  0.50000000  0.09493524  0.96413429  1.0
  Cr  Cr13  1  0.50000000  0.42826857  0.96413429  1.0
  Cr  Cr14  1  0.50000000  0.76160190  0.96413429  1.0
  Cr  Cr15  1  0.83333333  0.09493524  0.96413429  1.0
  Cr  Cr16  1  0.83333333  0.42826857  0.96413429  1.0
  Cr  Cr17  1  0.83333333  0.76160190  0.96413429  1.0
  Cr  Cr18  1  0.33333333  0.16636381  0.74984857  1.0
  Cr  Cr19  1  0.33333333  0.49969714  0.74984857  1.0
  Cr  Cr20  1  0.33333333  0.83303048  0.74984857  1.0
  Cr  Cr21  1  0.66666667  0.16636381  0.74984857  1.0
  Cr  Cr22  1  0.66666667  0.49969714  0.74984857  1.0
  Cr  Cr23  1  0.66666667  0.83303048  0.74984857  1.0
  Cr  Cr24  1  1.00000000  0.16636381  0.74984857  1.0
  Cr  Cr25  1  1.00000000  0.49969714  0.74984857  1.0
  Cr  Cr26  1  1.00000000  0.83303048  0.74984857  1.0
  Cr  Cr27  1  0.16666667  0.14255429  0.82127714  1.0
  Cr  Cr28  1  0.16666667  0.47588762  0.82127714  1.0
  Cr  Cr29  1  0.16666667  0.80922095  0.82127714  1.0
  Cr  Cr30  1  0.50000000  0.14255429  0.82127714  1.0
  Cr  Cr31  1  0.50000000  0.47588762  0.82127714  1.0
  Cr  Cr32  1  0.50000000  0.80922095  0.82127714  1.0
  Cr  Cr33  1  0.83333333  0.14255429  0.82127714  1.0
  Cr  Cr34  1  0.83333333  0.47588762  0.82127714  1.0
  Cr  Cr35  1  0.83333333  0.80922095  0.82127714  1.0
  Cr  Cr36  1  0.33333333  0.21398286  0.60699143  1.0
  Cr  Cr37  1  0.33333333  0.54731619  0.60699143  1.0
  Cr  Cr38  1  0.33333333  0.88064952  0.60699143  1.0
  Cr  Cr39  1  0.66666667  0.21398286  0.60699143  1.0
  Cr  Cr40  1  0.66666667  0.54731619  0.60699143  1.0
  Cr  Cr41  1  0.66666667  0.88064952  0.60699143  1.0
  Cr  Cr42  1  1.00000000  0.21398286  0.60699143  1.0
  Cr  Cr43  1  1.00000000  0.54731619  0.60699143  1.0
  Cr  Cr44  1  1.00000000  0.88064952  0.60699143  1.0
  Cr  Cr45  1  0.16666667  0.19017333  0.67842000  1.0
  Cr  Cr46  1  0.16666667  0.52350667  0.67842000  1.0
  Cr  Cr47  1  0.16666667  0.85684000  0.67842000  1.0
  Cr  Cr48  1  0.50000000  0.19017333  0.67842000  1.0
  Cr  Cr49  1  0.50000000  0.52350667  0.67842000  1.0
  Cr  Cr50  1  0.50000000  0.85684000  0.67842000  1.0
  Cr  Cr51  1  0.83333333  0.19017333  0.67842000  1.0
  Cr  Cr52  1  0.83333333  0.52350667  0.67842000  1.0
  Cr  Cr53  1  0.83333333  0.85684000  0.67842000  1.0
  Ni  Ni54  1  0.00000000  0.17778905  0.96398286  1.0
  Ni  Ni55  1  0.00000000  0.51112238  0.96398286  1.0
  Ni  Ni56  1  0.00000000  0.84445571  0.96398286  1.0
  Ni  Ni57  1  0.33333333  0.17778905  0.96398286  1.0
  Ni  Ni58  1  0.33333333  0.51112238  0.96398286  1.0
  Ni  Ni59  1  0.33333333  0.84445571  0.96398286  1.0
  Ni  Ni60  1  0.66666667  0.17778905  0.96398286  1.0
  Ni  Ni61  1  0.66666667  0.51112238  0.96398286  1.0
  Ni  Ni62  1  0.66666667  0.84445571  0.96398286  1.0
  Ni  Ni63  1  0.16666667  0.20159857  0.89255429  1.0
  Ni  Ni64  1  0.16666667  0.53493190  0.89255429  1.0
  Ni  Ni65  1  0.16666667  0.86826524  0.89255429  1.0
  Ni  Ni66  1  0.50000000  0.20159857  0.89255429  1.0
  Ni  Ni67  1  0.50000000  0.53493190  0.89255429  1.0
  Ni  Ni68  1  0.50000000  0.86826524  0.89255429  1.0
  Ni  Ni69  1  0.83333333  0.20159857  0.89255429  1.0
  Ni  Ni70  1  0.83333333  0.53493190  0.89255429  1.0
  Ni  Ni71  1  0.83333333  0.86826524  0.89255429  1.0
  Ni  Ni72  1  0.00000000  0.28541143  0.89270571  1.0
  Ni  Ni73  1  0.00000000  0.61874476  0.89270571  1.0
  Ni  Ni74  1  0.00000000  0.95207810  0.89270571  1.0
  Ni  Ni75  1  0.33333333  0.28541143  0.89270571  1.0
  Ni  Ni76  1  0.33333333  0.61874476  0.89270571  1.0
  Ni  Ni77  1  0.33333333  0.95207810  0.89270571  1.0
  Ni  Ni78  1  0.66666667  0.28541143  0.89270571  1.0
  Ni  Ni79  1  0.66666667  0.61874476  0.89270571  1.0
  Ni  Ni80  1  0.66666667  0.95207810  0.89270571  1.0
  Ni  Ni81  1  0.16666667  0.26160190  0.96413429  1.0
  Ni  Ni82  1  0.16666667  0.59493524  0.96413429  1.0
  Ni  Ni83  1  0.16666667  0.92826857  0.96413429  1.0
  Ni  Ni84  1  0.50000000  0.26160190  0.96413429  1.0
  Ni  Ni85  1  0.50000000  0.59493524  0.96413429  1.0
  Ni  Ni86  1  0.50000000  0.92826857  0.96413429  1.0
  Ni  Ni87  1  0.83333333  0.26160190  0.96413429  1.0
  Ni  Ni88  1  0.83333333  0.59493524  0.96413429  1.0
  Ni  Ni89  1  0.83333333  0.92826857  0.96413429  1.0
  Ni  Ni90  1  0.00000000  0.01208143  0.96428571  1.0
  Ni  Ni91  1  0.00000000  0.34541476  0.96428571  1.0
  Ni  Ni92  1  0.00000000  0.67874810  0.96428571  1.0
  Ni  Ni93  1  0.33333333  0.01208143  0.96428571  1.0
  Ni  Ni94  1  0.33333333  0.34541476  0.96428571  1.0
  Ni  Ni95  1  0.33333333  0.67874810  0.96428571  1.0
  Ni  Ni96  1  0.66666667  0.01208143  0.96428571  1.0
  Ni  Ni97  1  0.66666667  0.34541476  0.96428571  1.0
  Ni  Ni98  1  0.66666667  0.67874810  0.96428571  1.0
  Ni  Ni99  1  0.16666667  0.03589095  0.89285714  1.0
  Ni  Ni100  1  0.16666667  0.36922429  0.89285714  1.0
  Ni  Ni101  1  0.16666667  0.70255762  0.89285714  1.0
  Ni  Ni102  1  0.50000000  0.03589095  0.89285714  1.0
  Ni  Ni103  1  0.50000000  0.36922429  0.89285714  1.0
  Ni  Ni104  1  0.50000000  0.70255762  0.89285714  1.0
  Ni  Ni105  1  0.83333333  0.03589095  0.89285714  1.0
  Ni  Ni106  1  0.83333333  0.36922429  0.89285714  1.0
  Ni  Ni107  1  0.83333333  0.70255762  0.89285714  1.0
  Ni  Ni108  1  0.00000000  0.22540810  0.82112571  1.0
  Ni  Ni109  1  0.00000000  0.55874143  0.82112571  1.0
  Ni  Ni110  1  0.00000000  0.89207476  0.82112571  1.0
  Ni  Ni111  1  0.33333333  0.22540810  0.82112571  1.0
  Ni  Ni112  1  0.33333333  0.55874143  0.82112571  1.0
  Ni  Ni113  1  0.33333333  0.89207476  0.82112571  1.0
  Ni  Ni114  1  0.66666667  0.22540810  0.82112571  1.0
  Ni  Ni115  1  0.66666667  0.55874143  0.82112571  1.0
  Ni  Ni116  1  0.66666667  0.89207476  0.82112571  1.0
  Ni  Ni117  1  0.16666667  0.24921762  0.74969714  1.0
  Ni  Ni118  1  0.16666667  0.58255095  0.74969714  1.0
  Ni  Ni119  1  0.16666667  0.91588429  0.74969714  1.0
  Ni  Ni120  1  0.50000000  0.24921762  0.74969714  1.0
  Ni  Ni121  1  0.50000000  0.58255095  0.74969714  1.0
  Ni  Ni122  1  0.50000000  0.91588429  0.74969714  1.0
  Ni  Ni123  1  0.83333333  0.24921762  0.74969714  1.0
  Ni  Ni124  1  0.83333333  0.58255095  0.74969714  1.0
  Ni  Ni125  1  0.83333333  0.91588429  0.74969714  1.0
  Ni  Ni126  1  0.00000000  0.33303048  0.74984857  1.0
  Ni  Ni127  1  0.00000000  0.66636381  0.74984857  1.0
  Ni  Ni128  1  0.00000000  0.99969714  0.74984857  1.0
  Ni  Ni129  1  0.33333333  0.33303048  0.74984857  1.0
  Ni  Ni130  1  0.33333333  0.66636381  0.74984857  1.0
  Ni  Ni131  1  0.33333333  0.99969714  0.74984857  1.0
  Ni  Ni132  1  0.66666667  0.33303048  0.74984857  1.0
  Ni  Ni133  1  0.66666667  0.66636381  0.74984857  1.0
  Ni  Ni134  1  0.66666667  0.99969714  0.74984857  1.0
  Ni  Ni135  1  0.16666667  0.30922095  0.82127714  1.0
  Ni  Ni136  1  0.16666667  0.64255429  0.82127714  1.0
  Ni  Ni137  1  0.16666667  0.97588762  0.82127714  1.0
  Ni  Ni138  1  0.50000000  0.30922095  0.82127714  1.0
  Ni  Ni139  1  0.50000000  0.64255429  0.82127714  1.0
  Ni  Ni140  1  0.50000000  0.97588762  0.82127714  1.0
  Ni  Ni141  1  0.83333333  0.30922095  0.82127714  1.0
  Ni  Ni142  1  0.83333333  0.64255429  0.82127714  1.0
  Ni  Ni143  1  0.83333333  0.97588762  0.82127714  1.0
  Ni  Ni144  1  0.33333333  0.05970048  0.82142857  1.0
  Ni  Ni145  1  0.33333333  0.39303381  0.82142857  1.0
  Ni  Ni146  1  0.33333333  0.72636714  0.82142857  1.0
  Ni  Ni147  1  0.66666667  0.05970048  0.82142857  1.0
  Ni  Ni148  1  0.66666667  0.39303381  0.82142857  1.0
  Ni  Ni149  1  0.66666667  0.72636714  0.82142857  1.0
  Ni  Ni150  1  1.00000000  0.05970048  0.82142857  1.0
  Ni  Ni151  1  1.00000000  0.39303381  0.82142857  1.0
  Ni  Ni152  1  1.00000000  0.72636714  0.82142857  1.0
  Ni  Ni153  1  0.16666667  0.08351000  0.75000000  1.0
  Ni  Ni154  1  0.16666667  0.41684333  0.75000000  1.0
  Ni  Ni155  1  0.16666667  0.75017667  0.75000000  1.0
  Ni  Ni156  1  0.50000000  0.08351000  0.75000000  1.0
  Ni  Ni157  1  0.50000000  0.41684333  0.75000000  1.0
  Ni  Ni158  1  0.50000000  0.75017667  0.75000000  1.0
  Ni  Ni159  1  0.83333333  0.08351000  0.75000000  1.0
  Ni  Ni160  1  0.83333333  0.41684333  0.75000000  1.0
  Ni  Ni161  1  0.83333333  0.75017667  0.75000000  1.0
  Ni  Ni162  1  0.00000000  0.27302714  0.67826857  1.0
  Ni  Ni163  1  0.00000000  0.60636048  0.67826857  1.0
  Ni  Ni164  1  0.00000000  0.93969381  0.67826857  1.0
  Ni  Ni165  1  0.33333333  0.27302714  0.67826857  1.0
  Ni  Ni166  1  0.33333333  0.60636048  0.67826857  1.0
  Ni  Ni167  1  0.33333333  0.93969381  0.67826857  1.0
  Ni  Ni168  1  0.66666667  0.27302714  0.67826857  1.0
  Ni  Ni169  1  0.66666667  0.60636048  0.67826857  1.0
  Ni  Ni170  1  0.66666667  0.93969381  0.67826857  1.0
  Ni  Ni171  1  0.16666667  0.29683667  0.60684000  1.0
  Ni  Ni172  1  0.16666667  0.63017000  0.60684000  1.0
  Ni  Ni173  1  0.16666667  0.96350333  0.60684000  1.0
  Ni  Ni174  1  0.50000000  0.29683667  0.60684000  1.0
  Ni  Ni175  1  0.50000000  0.63017000  0.60684000  1.0
  Ni  Ni176  1  0.50000000  0.96350333  0.60684000  1.0
  Ni  Ni177  1  0.83333333  0.29683667  0.60684000  1.0
  Ni  Ni178  1  0.83333333  0.63017000  0.60684000  1.0
  Ni  Ni179  1  0.83333333  0.96350333  0.60684000  1.0
  Ni  Ni180  1  0.00000000  0.04731619  0.60699143  1.0
  Ni  Ni181  1  0.00000000  0.38064952  0.60699143  1.0
  Ni  Ni182  1  0.00000000  0.71398286  0.60699143  1.0
  Ni  Ni183  1  0.33333333  0.04731619  0.60699143  1.0
  Ni  Ni184  1  0.33333333  0.38064952  0.60699143  1.0
  Ni  Ni185  1  0.33333333  0.71398286  0.60699143  1.0
  Ni  Ni186  1  0.66666667  0.04731619  0.60699143  1.0
  Ni  Ni187  1  0.66666667  0.38064952  0.60699143  1.0
  Ni  Ni188  1  0.66666667  0.71398286  0.60699143  1.0
  Ni  Ni189  1  0.16666667  0.02350667  0.67842000  1.0
  Ni  Ni190  1  0.16666667  0.35684000  0.67842000  1.0
  Ni  Ni191  1  0.16666667  0.69017333  0.67842000  1.0
  Ni  Ni192  1  0.50000000  0.02350667  0.67842000  1.0
  Ni  Ni193  1  0.50000000  0.35684000  0.67842000  1.0
  Ni  Ni194  1  0.50000000  0.69017333  0.67842000  1.0
  Ni  Ni195  1  0.83333333  0.02350667  0.67842000  1.0
  Ni  Ni196  1  0.83333333  0.35684000  0.67842000  1.0
  Ni  Ni197  1  0.83333333  0.69017333  0.67842000  1.0
  Ni  Ni198  1  0.00000000  0.10731952  0.67857143  1.0
  Ni  Ni199  1  0.00000000  0.44065286  0.67857143  1.0
  Ni  Ni200  1  0.00000000  0.77398619  0.67857143  1.0
  Ni  Ni201  1  0.33333333  0.10731952  0.67857143  1.0
  Ni  Ni202  1  0.33333333  0.44065286  0.67857143  1.0
  Ni  Ni203  1  0.33333333  0.77398619  0.67857143  1.0
  Ni  Ni204  1  0.66666667  0.10731952  0.67857143  1.0
  Ni  Ni205  1  0.66666667  0.44065286  0.67857143  1.0
  Ni  Ni206  1  0.66666667  0.77398619  0.67857143  1.0
  Ni  Ni207  1  0.16666667  0.13112905  0.60714286  1.0
  Ni  Ni208  1  0.16666667  0.46446238  0.60714286  1.0
  Ni  Ni209  1  0.16666667  0.79779571  0.60714286  1.0
  Ni  Ni210  1  0.50000000  0.13112905  0.60714286  1.0
  Ni  Ni211  1  0.50000000  0.46446238  0.60714286  1.0
  Ni  Ni212  1  0.50000000  0.79779571  0.60714286  1.0
  Ni  Ni213  1  0.83333333  0.13112905  0.60714286  1.0
  Ni  Ni214  1  0.83333333  0.46446238  0.60714286  1.0
  Ni  Ni215  1  0.83333333  0.79779571  0.60714286  1.0
