# generated using pymatgen
data_CrNi3
_symmetry_space_group_name_H-M   'P 1'
_cell_length_a   7.50375922
_cell_length_b   27.09886523
_cell_length_c   58.18079953
_cell_angle_alpha   33.19573635
_cell_angle_beta   98.65408588
_cell_angle_gamma   82.04174659
_symmetry_Int_Tables_number   1
_chemical_formula_structural   CrNi3
_chemical_formula_sum   'Cr54 Ni162'
_cell_volume   5587.81379151
_cell_formula_units_Z   54
loop_
 _symmetry_equiv_pos_site_id
 _symmetry_equiv_pos_as_xyz
  1  'x, y, z'
loop_
 _atom_site_type_symbol
 _atom_site_label
 _atom_site_symmetry_multiplicity
 _atom_site_fract_x
 _atom_site_fract_y
 _atom_site_fract_z
 _atom_site_occupancy
  Cr  Cr0  1  0.00000000  0.00000000  0.13383393  1.0
  Cr  Cr1  1  0.00000000  0.33333333  0.13383393  1.0
  Cr  Cr2  1  0.00000000  0.66666667  0.13383393  1.0
  Cr  Cr3  1  0.33333333  0.00000000  0.13383393  1.0
  Cr  Cr4  1  0.33333333  0.33333333  0.13383393  1.0
  Cr  Cr5  1  0.33333333  0.66666667  0.13383393  1.0
  Cr  Cr6  1  0.66666667  0.00000000  0.13383393  1.0
  Cr  Cr7  1  0.66666667  0.33333333  0.13383393  1.0
  Cr  Cr8  1  0.66666667  0.66666667  0.13383393  1.0
  Cr  Cr9  1  0.00000000  0.16666667  0.06240536  1.0
  Cr  Cr10  1  0.00000000  0.50000000  0.06240536  1.0
  Cr  Cr11  1  1.00000000  0.83333333  0.06240536  1.0
  Cr  Cr12  1  0.33333333  0.16666667  0.06240536  1.0
  Cr  Cr13  1  0.33333333  0.50000000  0.06240536  1.0
  Cr  Cr14  1  0.33333333  0.83333333  0.06240536  1.0
  Cr  Cr15  1  0.66666667  0.16666667  0.06240536  1.0
  Cr  Cr16  1  0.66666667  0.50000000  0.06240536  1.0
  Cr  Cr17  1  0.66666667  0.83333333  0.06240536  1.0
  Ni  Ni18  1  0.08351000  0.04175500  0.08045179  1.0
  Ni  Ni19  1  0.08351000  0.37508833  0.08045179  1.0
  Ni  Ni20  1  0.08351000  0.70842167  0.08045179  1.0
  Ni  Ni21  1  0.41684333  0.04175500  0.08045179  1.0
  Ni  Ni22  1  0.41684333  0.37508833  0.08045179  1.0
  Ni  Ni23  1  0.41684333  0.70842167  0.08045179  1.0
  Ni  Ni24  1  0.75017667  0.04175500  0.08045179  1.0
  Ni  Ni25  1  0.75017667  0.37508833  0.08045179  1.0
  Ni  Ni26  1  0.75017667  0.70842167  0.08045179  1.0
  Ni  Ni27  1  0.08351000  0.20842167  0.00902321  1.0
  Ni  Ni28  1  0.08351000  0.54175500  0.00902321  1.0
  Ni  Ni29  1  0.08351000  0.87508833  0.00902321  1.0
  Ni  Ni30  1  0.41684333  0.20842167  0.00902321  1.0
  Ni  Ni31  1  0.41684333  0.54175500  0.00902321  1.0
  Ni  Ni32  1  0.41684333  0.87508833  0.00902321  1.0
  Ni  Ni33  1  0.75017667  0.20842167  0.00902321  1.0
  Ni  Ni34  1  0.75017667  0.54175500  0.00902321  1.0
  Ni  Ni35  1  0.75017667  0.87508833  0.00902321  1.0
  Ni  Ni36  1  0.16666667  0.08333333  0.02669107  1.0
  Ni  Ni37  1  0.16666667  0.41666667  0.02669107  1.0
  Ni  Ni38  1  0.16666667  0.75000000  0.02669107  1.0
  Ni  Ni39  1  0.50000000  0.08333333  0.02669107  1.0
  Ni  Ni40  1  0.50000000  0.41666667  0.02669107  1.0
  Ni  Ni41  1  0.50000000  0.75000000  0.02669107  1.0
  Ni  Ni42  1  0.83333333  0.08333333  0.02669107  1.0
  Ni  Ni43  1  0.83333333  0.41666667  0.02669107  1.0
  Ni  Ni44  1  0.83333333  0.75000000  0.02669107  1.0
  Ni  Ni45  1  0.16666667  0.25000000  0.09811964  1.0
  Ni  Ni46  1  0.16666667  0.58333333  0.09811964  1.0
  Ni  Ni47  1  0.16666667  0.91666667  0.09811964  1.0
  Ni  Ni48  1  0.50000000  0.25000000  0.09811964  1.0
  Ni  Ni49  1  0.50000000  0.58333333  0.09811964  1.0
  Ni  Ni50  1  0.50000000  0.91666667  0.09811964  1.0
  Ni  Ni51  1  0.83333333  0.25000000  0.09811964  1.0
  Ni  Ni52  1  0.83333333  0.58333333  0.09811964  1.0
  Ni  Ni53  1  0.83333333  0.91666667  0.09811964  1.0
  Ni  Ni54  1  0.24982333  0.12491167  0.11578750  1.0
  Ni  Ni55  1  0.24982333  0.45824500  0.11578750  1.0
  Ni  Ni56  1  0.24982333  0.79157833  0.11578750  1.0
  Ni  Ni57  1  0.58315667  0.12491167  0.11578750  1.0
  Ni  Ni58  1  0.58315667  0.45824500  0.11578750  1.0
  Ni  Ni59  1  0.58315667  0.79157833  0.11578750  1.0
  Ni  Ni60  1  0.91649000  0.12491167  0.11578750  1.0
  Ni  Ni61  1  0.91649000  0.45824500  0.11578750  1.0
  Ni  Ni62  1  0.91649000  0.79157833  0.11578750  1.0
  Ni  Ni63  1  0.24982333  0.29157833  0.04435893  1.0
  Ni  Ni64  1  0.24982333  0.62491167  0.04435893  1.0
  Ni  Ni65  1  0.24982333  0.95824500  0.04435893  1.0
  Ni  Ni66  1  0.58315667  0.29157833  0.04435893  1.0
  Ni  Ni67  1  0.58315667  0.62491167  0.04435893  1.0
  Ni  Ni68  1  0.58315667  0.95824500  0.04435893  1.0
  Ni  Ni69  1  0.91649000  0.29157833  0.04435893  1.0
  Ni  Ni70  1  0.91649000  0.62491167  0.04435893  1.0
  Ni  Ni71  1  0.91649000  0.95824500  0.04435893  1.0
  Cr  Cr72  1  0.00000000  0.00000000  0.27669107  1.0
  Cr  Cr73  1  0.00000000  0.33333333  0.27669107  1.0
  Cr  Cr74  1  0.00000000  0.66666667  0.27669107  1.0
  Cr  Cr75  1  0.33333333  0.00000000  0.27669107  1.0
  Cr  Cr76  1  0.33333333  0.33333333  0.27669107  1.0
  Cr  Cr77  1  0.33333333  0.66666667  0.27669107  1.0
  Cr  Cr78  1  0.66666667  0.00000000  0.27669107  1.0
  Cr  Cr79  1  0.66666667  0.33333333  0.27669107  1.0
  Cr  Cr80  1  0.66666667  0.66666667  0.27669107  1.0
  Cr  Cr81  1  0.00000000  0.16666667  0.20526250  1.0
  Cr  Cr82  1  0.00000000  0.50000000  0.20526250  1.0
  Cr  Cr83  1  1.00000000  0.83333333  0.20526250  1.0
  Cr  Cr84  1  0.33333333  0.16666667  0.20526250  1.0
  Cr  Cr85  1  0.33333333  0.50000000  0.20526250  1.0
  Cr  Cr86  1  0.33333333  0.83333333  0.20526250  1.0
  Cr  Cr87  1  0.66666667  0.16666667  0.20526250  1.0
  Cr  Cr88  1  0.66666667  0.50000000  0.20526250  1.0
  Cr  Cr89  1  0.66666667  0.83333333  0.20526250  1.0
  Ni  Ni90  1  0.08351000  0.04175500  0.22330893  1.0
  Ni  Ni91  1  0.08351000  0.37508833  0.22330893  1.0
  Ni  Ni92  1  0.08351000  0.70842167  0.22330893  1.0
  Ni  Ni93  1  0.41684333  0.04175500  0.22330893  1.0
  Ni  Ni94  1  0.41684333  0.37508833  0.22330893  1.0
  Ni  Ni95  1  0.41684333  0.70842167  0.22330893  1.0
  Ni  Ni96  1  0.75017667  0.04175500  0.22330893  1.0
  Ni  Ni97  1  0.75017667  0.37508833  0.22330893  1.0
  Ni  Ni98  1  0.75017667  0.70842167  0.22330893  1.0
  Ni  Ni99  1  0.08351000  0.20842167  0.15188036  1.0
  Ni  Ni100  1  0.08351000  0.54175500  0.15188036  1.0
  Ni  Ni101  1  0.08351000  0.87508833  0.15188036  1.0
  Ni  Ni102  1  0.41684333  0.20842167  0.15188036  1.0
  Ni  Ni103  1  0.41684333  0.54175500  0.15188036  1.0
  Ni  Ni104  1  0.41684333  0.87508833  0.15188036  1.0
  Ni  Ni105  1  0.75017667  0.20842167  0.15188036  1.0
  Ni  Ni106  1  0.75017667  0.54175500  0.15188036  1.0
  Ni  Ni107  1  0.75017667  0.87508833  0.15188036  1.0
  Ni  Ni108  1  0.16666667  0.08333333  0.16954821  1.0
  Ni  Ni109  1  0.16666667  0.41666667  0.16954821  1.0
  Ni  Ni110  1  0.16666667  0.75000000  0.16954821  1.0
  Ni  Ni111  1  0.50000000  0.08333333  0.16954821  1.0
  Ni  Ni112  1  0.50000000  0.41666667  0.16954821  1.0
  Ni  Ni113  1  0.50000000  0.75000000  0.16954821  1.0
  Ni  Ni114  1  0.83333333  0.08333333  0.16954821  1.0
  Ni  Ni115  1  0.83333333  0.41666667  0.16954821  1.0
  Ni  Ni116  1  0.83333333  0.75000000  0.16954821  1.0
  Ni  Ni117  1  0.16666667  0.25000000  0.24097679  1.0
  Ni  Ni118  1  0.16666667  0.58333333  0.24097679  1.0
  Ni  Ni119  1  0.16666667  0.91666667  0.24097679  1.0
  Ni  Ni120  1  0.50000000  0.25000000  0.24097679  1.0
  Ni  Ni121  1  0.50000000  0.58333333  0.24097679  1.0
  Ni  Ni122  1  0.50000000  0.91666667  0.24097679  1.0
  Ni  Ni123  1  0.83333333  0.25000000  0.24097679  1.0
  Ni  Ni124  1  0.83333333  0.58333333  0.24097679  1.0
  Ni  Ni125  1  0.83333333  0.91666667  0.24097679  1.0
  Ni  Ni126  1  0.24982333  0.12491167  0.25864464  1.0
  Ni  Ni127  1  0.24982333  0.45824500  0.25864464  1.0
  Ni  Ni128  1  0.24982333  0.79157833  0.25864464  1.0
  Ni  Ni129  1  0.58315667  0.12491167  0.25864464  1.0
  Ni  Ni130  1  0.58315667  0.45824500  0.25864464  1.0
  Ni  Ni131  1  0.58315667  0.79157833  0.25864464  1.0
  Ni  Ni132  1  0.91649000  0.12491167  0.25864464  1.0
  Ni  Ni133  1  0.91649000  0.45824500  0.25864464  1.0
  Ni  Ni134  1  0.91649000  0.79157833  0.25864464  1.0
  Ni  Ni135  1  0.24982333  0.29157833  0.18721607  1.0
  Ni  Ni136  1  0.24982333  0.62491167  0.18721607  1.0
  Ni  Ni137  1  0.24982333  0.95824500  0.18721607  1.0
  Ni  Ni138  1  0.58315667  0.29157833  0.18721607  1.0
  Ni  Ni139  1  0.58315667  0.62491167  0.18721607  1.0
  Ni  Ni140  1  0.58315667  0.95824500  0.18721607  1.0
  Ni  Ni141  1  0.91649000  0.29157833  0.18721607  1.0
  Ni  Ni142  1  0.91649000  0.62491167  0.18721607  1.0
  Ni  Ni143  1  0.91649000  0.95824500  0.18721607  1.0
  Cr  Cr144  1  0.00000000  0.00000000  0.41954821  1.0
  Cr  Cr145  1  0.00000000  0.33333333  0.41954821  1.0
  Cr  Cr146  1  0.00000000  0.66666667  0.41954821  1.0
  Cr  Cr147  1  0.33333333  0.00000000  0.41954821  1.0
  Cr  Cr148  1  0.33333333  0.33333333  0.41954821  1.0
  Cr  Cr149  1  0.33333333  0.66666667  0.41954821  1.0
  Cr  Cr150  1  0.66666667  0.00000000  0.41954821  1.0
  Cr  Cr151  1  0.66666667  0.33333333  0.41954821  1.0
  Cr  Cr152  1  0.66666667  0.66666667  0.41954821  1.0
  Cr  Cr153  1  0.00000000  0.16666667  0.34811964  1.0
  Cr  Cr154  1  0.00000000  0.50000000  0.34811964  1.0
  Cr  Cr155  1  1.00000000  0.83333333  0.34811964  1.0
  Cr  Cr156  1  0.33333333  0.16666667  0.34811964  1.0
  Cr  Cr157  1  0.33333333  0.50000000  0.34811964  1.0
  Cr  Cr158  1  0.33333333  0.83333333  0.34811964  1.0
  Cr  Cr159  1  0.66666667  0.16666667  0.34811964  1.0
  Cr  Cr160  1  0.66666667  0.50000000  0.34811964  1.0
  Cr  Cr161  1  0.66666667  0.83333333  0.34811964  1.0
  Ni  Ni162  1  0.08351000  0.04175500  0.36616607  1.0
  Ni  Ni163  1  0.08351000  0.37508833  0.36616607  1.0
  Ni  Ni164  1  0.08351000  0.70842167  0.36616607  1.0
  Ni  Ni165  1  0.41684333  0.04175500  0.36616607  1.0
  Ni  Ni166  1  0.41684333  0.37508833  0.36616607  1.0
  Ni  Ni167  1  0.41684333  0.70842167  0.36616607  1.0
  Ni  Ni168  1  0.75017667  0.04175500  0.36616607  1.0
  Ni  Ni169  1  0.75017667  0.37508833  0.36616607  1.0
  Ni  Ni170  1  0.75017667  0.70842167  0.36616607  1.0
  Ni  Ni171  1  0.08351000  0.20842167  0.29473750  1.0
  Ni  Ni172  1  0.08351000  0.54175500  0.29473750  1.0
  Ni  Ni173  1  0.08351000  0.87508833  0.29473750  1.0
  Ni  Ni174  1  0.41684333  0.20842167  0.29473750  1.0
  Ni  Ni175  1  0.41684333  0.54175500  0.29473750  1.0
  Ni  Ni176  1  0.41684333  0.87508833  0.29473750  1.0
  Ni  Ni177  1  0.75017667  0.20842167  0.29473750  1.0
  Ni  Ni178  1  0.75017667  0.54175500  0.29473750  1.0
  Ni  Ni179  1  0.75017667  0.87508833  0.29473750  1.0
  Ni  Ni180  1  0.16666667  0.08333333  0.31240536  1.0
  Ni  Ni181  1  0.16666667  0.41666667  0.31240536  1.0
  Ni  Ni182  1  0.16666667  0.75000000  0.31240536  1.0
  Ni  Ni183  1  0.50000000  0.08333333  0.31240536  1.0
  Ni  Ni184  1  0.50000000  0.41666667  0.31240536  1.0
  Ni  Ni185  1  0.50000000  0.75000000  0.31240536  1.0
  Ni  Ni186  1  0.83333333  0.08333333  0.31240536  1.0
  Ni  Ni187  1  0.83333333  0.41666667  0.31240536  1.0
  Ni  Ni188  1  0.83333333  0.75000000  0.31240536  1.0
  Ni  Ni189  1  0.16666667  0.25000000  0.38383393  1.0
  Ni  Ni190  1  0.16666667  0.58333333  0.38383393  1.0
  Ni  Ni191  1  0.16666667  0.91666667  0.38383393  1.0
  Ni  Ni192  1  0.50000000  0.25000000  0.38383393  1.0
  Ni  Ni193  1  0.50000000  0.58333333  0.38383393  1.0
  Ni  Ni194  1  0.50000000  0.91666667  0.38383393  1.0
  Ni  Ni195  1  0.83333333  0.25000000  0.38383393  1.0
  Ni  Ni196  1  0.83333333  0.58333333  0.38383393  1.0
  Ni  Ni197  1  0.83333333  0.91666667  0.38383393  1.0
  Ni  Ni198  1  0.24982333  0.12491167  0.40150179  1.0
  Ni  Ni199  1  0.24982333  0.45824500  0.40150179  1.0
  Ni  Ni200  1  0.24982333  0.79157833  0.40150179  1.0
  Ni  Ni201  1  0.58315667  0.12491167  0.40150179  1.0
  Ni  Ni202  1  0.58315667  0.45824500  0.40150179  1.0
  Ni  Ni203  1  0.58315667  0.79157833  0.40150179  1.0
  Ni  Ni204  1  0.91649000  0.12491167  0.40150179  1.0
  Ni  Ni205  1  0.91649000  0.45824500  0.40150179  1.0
  Ni  Ni206  1  0.91649000  0.79157833  0.40150179  1.0
  Ni  Ni207  1  0.24982333  0.29157833  0.33007321  1.0
  Ni  Ni208  1  0.24982333  0.62491167  0.33007321  1.0
  Ni  Ni209  1  0.24982333  0.95824500  0.33007321  1.0
  Ni  Ni210  1  0.58315667  0.29157833  0.33007321  1.0
  Ni  Ni211  1  0.58315667  0.62491167  0.33007321  1.0
  Ni  Ni212  1  0.58315667  0.95824500  0.33007321  1.0
  Ni  Ni213  1  0.91649000  0.29157833  0.33007321  1.0
  Ni  Ni214  1  0.91649000  0.62491167  0.33007321  1.0
  Ni  Ni215  1  0.91649000  0.95824500  0.33007321  1.0
