# generated using pymatgen
data_CrNi2
_symmetry_space_group_name_H-M   'P 1'
_cell_length_a   22.44115798
_cell_length_b   35.60272798
_cell_length_c   107.39812300
_cell_angle_alpha   33.04136991
_cell_angle_beta   73.94233850
_cell_angle_gamma   43.35460488
_symmetry_Int_Tables_number   1
_chemical_formula_structural   CrNi2
_chemical_formula_sum   'Cr180 Ni360'
_cell_volume   14681.76266978
_cell_formula_units_Z   180
loop_
 _symmetry_equiv_pos_site_id
 _symmetry_equiv_pos_as_xyz
  1  'x, y, z'
loop_
 _atom_site_type_symbol
 _atom_site_label
 _atom_site_symmetry_multiplicity
 _atom_site_fract_x
 _atom_site_fract_y
 _atom_site_fract_z
 _atom_site_occupancy
  Cr  Cr0  1  0.00000000  0.16666667  0.00994686  1.0
  Cr  Cr1  1  0.00000000  0.50000000  0.00994686  1.0
  Cr  Cr2  1  0.00000000  0.83333333  0.00994686  1.0
  Cr  Cr3  1  0.33333333  0.16666667  0.00994686  1.0
  Cr  Cr4  1  0.33333333  0.50000000  0.00994686  1.0
  Cr  Cr5  1  0.33333333  0.83333333  0.00994686  1.0
  Cr  Cr6  1  0.66666667  0.16666667  0.00994686  1.0
  Cr  Cr7  1  0.66666667  0.50000000  0.00994686  1.0
  Cr  Cr8  1  0.66666667  0.83333333  0.00994686  1.0
  Cr  Cr9  1  0.00000000  0.00000000  0.02994686  1.0
  Cr  Cr10  1  0.00000000  0.33333333  0.02994686  1.0
  Cr  Cr11  1  0.00000000  0.66666667  0.02994686  1.0
  Cr  Cr12  1  0.33333333  0.00000000  0.02994686  1.0
  Cr  Cr13  1  0.33333333  0.33333333  0.02994686  1.0
  Cr  Cr14  1  0.33333333  0.66666667  0.02994686  1.0
  Cr  Cr15  1  0.66666667  0.00000000  0.02994686  1.0
  Cr  Cr16  1  0.66666667  0.33333333  0.02994686  1.0
  Cr  Cr17  1  0.66666667  0.66666667  0.02994686  1.0
  Ni  Ni18  1  0.22192700  0.16710950  0.00989372  1.0
  Ni  Ni19  1  0.22192700  0.50044283  0.00989372  1.0
  Ni  Ni20  1  0.22192700  0.83377617  0.00989372  1.0
  Ni  Ni21  1  0.55526033  0.16710950  0.00989372  1.0
  Ni  Ni22  1  0.55526033  0.50044283  0.00989372  1.0
  Ni  Ni23  1  0.55526033  0.83377617  0.00989372  1.0
  Ni  Ni24  1  0.88859367  0.16710950  0.00989372  1.0
  Ni  Ni25  1  0.88859367  0.50044283  0.00989372  1.0
  Ni  Ni26  1  0.88859367  0.83377617  0.00989372  1.0
  Ni  Ni27  1  0.22192700  0.00044283  0.02989372  1.0
  Ni  Ni28  1  0.22192700  0.33377617  0.02989372  1.0
  Ni  Ni29  1  0.22192700  0.66710950  0.02989372  1.0
  Ni  Ni30  1  0.55526033  0.00044283  0.02989372  1.0
  Ni  Ni31  1  0.55526033  0.33377617  0.02989372  1.0
  Ni  Ni32  1  0.55526033  0.66710950  0.02989372  1.0
  Ni  Ni33  1  0.88859367  0.00044283  0.02989372  1.0
  Ni  Ni34  1  0.88859367  0.33377617  0.02989372  1.0
  Ni  Ni35  1  0.88859367  0.66710950  0.02989372  1.0
  Ni  Ni36  1  0.11140633  0.33289050  0.03000000  1.0
  Ni  Ni37  1  0.11140633  0.66622383  0.03000000  1.0
  Ni  Ni38  1  0.11140633  0.99955717  0.03000000  1.0
  Ni  Ni39  1  0.44473967  0.33289050  0.03000000  1.0
  Ni  Ni40  1  0.44473967  0.66622383  0.03000000  1.0
  Ni  Ni41  1  0.44473967  0.99955717  0.03000000  1.0
  Ni  Ni42  1  0.77807300  0.33289050  0.03000000  1.0
  Ni  Ni43  1  0.77807300  0.66622383  0.03000000  1.0
  Ni  Ni44  1  0.77807300  0.99955717  0.03000000  1.0
  Ni  Ni45  1  0.11140633  0.16622383  0.01000000  1.0
  Ni  Ni46  1  0.11140633  0.49955717  0.01000000  1.0
  Ni  Ni47  1  0.11140633  0.83289050  0.01000000  1.0
  Ni  Ni48  1  0.44473967  0.16622383  0.01000000  1.0
  Ni  Ni49  1  0.44473967  0.49955717  0.01000000  1.0
  Ni  Ni50  1  0.44473967  0.83289050  0.01000000  1.0
  Ni  Ni51  1  0.77807300  0.16622383  0.01000000  1.0
  Ni  Ni52  1  0.77807300  0.49955717  0.01000000  1.0
  Ni  Ni53  1  0.77807300  0.83289050  0.01000000  1.0
  Cr  Cr54  1  0.00000000  0.16666667  0.04994686  1.0
  Cr  Cr55  1  0.00000000  0.50000000  0.04994686  1.0
  Cr  Cr56  1  0.00000000  0.83333333  0.04994686  1.0
  Cr  Cr57  1  0.33333333  0.16666667  0.04994686  1.0
  Cr  Cr58  1  0.33333333  0.50000000  0.04994686  1.0
  Cr  Cr59  1  0.33333333  0.83333333  0.04994686  1.0
  Cr  Cr60  1  0.66666667  0.16666667  0.04994686  1.0
  Cr  Cr61  1  0.66666667  0.50000000  0.04994686  1.0
  Cr  Cr62  1  0.66666667  0.83333333  0.04994686  1.0
  Cr  Cr63  1  0.00000000  0.00000000  0.06994686  1.0
  Cr  Cr64  1  0.00000000  0.33333333  0.06994686  1.0
  Cr  Cr65  1  0.00000000  0.66666667  0.06994686  1.0
  Cr  Cr66  1  0.33333333  0.00000000  0.06994686  1.0
  Cr  Cr67  1  0.33333333  0.33333333  0.06994686  1.0
  Cr  Cr68  1  0.33333333  0.66666667  0.06994686  1.0
  Cr  Cr69  1  0.66666667  0.00000000  0.06994686  1.0
  Cr  Cr70  1  0.66666667  0.33333333  0.06994686  1.0
  Cr  Cr71  1  0.66666667  0.66666667  0.06994686  1.0
  Ni  Ni72  1  0.22192700  0.16710950  0.04989372  1.0
  Ni  Ni73  1  0.22192700  0.50044283  0.04989372  1.0
  Ni  Ni74  1  0.22192700  0.83377617  0.04989372  1.0
  Ni  Ni75  1  0.55526033  0.16710950  0.04989372  1.0
  Ni  Ni76  1  0.55526033  0.50044283  0.04989372  1.0
  Ni  Ni77  1  0.55526033  0.83377617  0.04989372  1.0
  Ni  Ni78  1  0.88859367  0.16710950  0.04989372  1.0
  Ni  Ni79  1  0.88859367  0.50044283  0.04989372  1.0
  Ni  Ni80  1  0.88859367  0.83377617  0.04989372  1.0
  Ni  Ni81  1  0.22192700  0.00044283  0.06989372  1.0
  Ni  Ni82  1  0.22192700  0.33377617  0.06989372  1.0
  Ni  Ni83  1  0.22192700  0.66710950  0.06989372  1.0
  Ni  Ni84  1  0.55526033  0.00044283  0.06989372  1.0
  Ni  Ni85  1  0.55526033  0.33377617  0.06989372  1.0
  Ni  Ni86  1  0.55526033  0.66710950  0.06989372  1.0
  Ni  Ni87  1  0.88859367  0.00044283  0.06989372  1.0
  Ni  Ni88  1  0.88859367  0.33377617  0.06989372  1.0
  Ni  Ni89  1  0.88859367  0.66710950  0.06989372  1.0
  Ni  Ni90  1  0.11140633  0.33289050  0.07000000  1.0
  Ni  Ni91  1  0.11140633  0.66622383  0.07000000  1.0
  Ni  Ni92  1  0.11140633  0.99955717  0.07000000  1.0
  Ni  Ni93  1  0.44473967  0.33289050  0.07000000  1.0
  Ni  Ni94  1  0.44473967  0.66622383  0.07000000  1.0
  Ni  Ni95  1  0.44473967  0.99955717  0.07000000  1.0
  Ni  Ni96  1  0.77807300  0.33289050  0.07000000  1.0
  Ni  Ni97  1  0.77807300  0.66622383  0.07000000  1.0
  Ni  Ni98  1  0.77807300  0.99955717  0.07000000  1.0
  Ni  Ni99  1  0.11140633  0.16622383  0.05000000  1.0
  Ni  Ni100  1  0.11140633  0.49955717  0.05000000  1.0
  Ni  Ni101  1  0.11140633  0.83289050  0.05000000  1.0
  Ni  Ni102  1  0.44473967  0.16622383  0.05000000  1.0
  Ni  Ni103  1  0.44473967  0.49955717  0.05000000  1.0
  Ni  Ni104  1  0.44473967  0.83289050  0.05000000  1.0
  Ni  Ni105  1  0.77807300  0.16622383  0.05000000  1.0
  Ni  Ni106  1  0.77807300  0.49955717  0.05000000  1.0
  Ni  Ni107  1  0.77807300  0.83289050  0.05000000  1.0
  Cr  Cr108  1  0.00000000  0.16666667  0.08994686  1.0
  Cr  Cr109  1  0.00000000  0.50000000  0.08994686  1.0
  Cr  Cr110  1  0.00000000  0.83333333  0.08994686  1.0
  Cr  Cr111  1  0.33333333  0.16666667  0.08994686  1.0
  Cr  Cr112  1  0.33333333  0.50000000  0.08994686  1.0
  Cr  Cr113  1  0.33333333  0.83333333  0.08994686  1.0
  Cr  Cr114  1  0.66666667  0.16666667  0.08994686  1.0
  Cr  Cr115  1  0.66666667  0.50000000  0.08994686  1.0
  Cr  Cr116  1  0.66666667  0.83333333  0.08994686  1.0
  Cr  Cr117  1  0.00000000  0.00000000  0.10994686  1.0
  Cr  Cr118  1  0.00000000  0.33333333  0.10994686  1.0
  Cr  Cr119  1  0.00000000  0.66666667  0.10994686  1.0
  Cr  Cr120  1  0.33333333  0.00000000  0.10994686  1.0
  Cr  Cr121  1  0.33333333  0.33333333  0.10994686  1.0
  Cr  Cr122  1  0.33333333  0.66666667  0.10994686  1.0
  Cr  Cr123  1  0.66666667  0.00000000  0.10994686  1.0
  Cr  Cr124  1  0.66666667  0.33333333  0.10994686  1.0
  Cr  Cr125  1  0.66666667  0.66666667  0.10994686  1.0
  Ni  Ni126  1  0.22192700  0.16710950  0.08989372  1.0
  Ni  Ni127  1  0.22192700  0.50044283  0.08989372  1.0
  Ni  Ni128  1  0.22192700  0.83377617  0.08989372  1.0
  Ni  Ni129  1  0.55526033  0.16710950  0.08989372  1.0
  Ni  Ni130  1  0.55526033  0.50044283  0.08989372  1.0
  Ni  Ni131  1  0.55526033  0.83377617  0.08989372  1.0
  Ni  Ni132  1  0.88859367  0.16710950  0.08989372  1.0
  Ni  Ni133  1  0.88859367  0.50044283  0.08989372  1.0
  Ni  Ni134  1  0.88859367  0.83377617  0.08989372  1.0
  Ni  Ni135  1  0.22192700  0.00044283  0.10989372  1.0
  Ni  Ni136  1  0.22192700  0.33377617  0.10989372  1.0
  Ni  Ni137  1  0.22192700  0.66710950  0.10989372  1.0
  Ni  Ni138  1  0.55526033  0.00044283  0.10989372  1.0
  Ni  Ni139  1  0.55526033  0.33377617  0.10989372  1.0
  Ni  Ni140  1  0.55526033  0.66710950  0.10989372  1.0
  Ni  Ni141  1  0.88859367  0.00044283  0.10989372  1.0
  Ni  Ni142  1  0.88859367  0.33377617  0.10989372  1.0
  Ni  Ni143  1  0.88859367  0.66710950  0.10989372  1.0
  Ni  Ni144  1  0.11140633  0.33289050  0.11000000  1.0
  Ni  Ni145  1  0.11140633  0.66622383  0.11000000  1.0
  Ni  Ni146  1  0.11140633  0.99955717  0.11000000  1.0
  Ni  Ni147  1  0.44473967  0.33289050  0.11000000  1.0
  Ni  Ni148  1  0.44473967  0.66622383  0.11000000  1.0
  Ni  Ni149  1  0.44473967  0.99955717  0.11000000  1.0
  Ni  Ni150  1  0.77807300  0.33289050  0.11000000  1.0
  Ni  Ni151  1  0.77807300  0.66622383  0.11000000  1.0
  Ni  Ni152  1  0.77807300  0.99955717  0.11000000  1.0
  Ni  Ni153  1  0.11140633  0.16622383  0.09000000  1.0
  Ni  Ni154  1  0.11140633  0.49955717  0.09000000  1.0
  Ni  Ni155  1  0.11140633  0.83289050  0.09000000  1.0
  Ni  Ni156  1  0.44473967  0.16622383  0.09000000  1.0
  Ni  Ni157  1  0.44473967  0.49955717  0.09000000  1.0
  Ni  Ni158  1  0.44473967  0.83289050  0.09000000  1.0
  Ni  Ni159  1  0.77807300  0.16622383  0.09000000  1.0
  Ni  Ni160  1  0.77807300  0.49955717  0.09000000  1.0
  Ni  Ni161  1  0.77807300  0.83289050  0.09000000  1.0
  Cr  Cr162  1  0.00000000  0.16666667  0.12994686  1.0
  Cr  Cr163  1  0.00000000  0.50000000  0.12994686  1.0
  Cr  Cr164  1  0.00000000  0.83333333  0.12994686  1.0
  Cr  Cr165  1  0.33333333  0.16666667  0.12994686  1.0
  Cr  Cr166  1  0.33333333  0.50000000  0.12994686  1.0
  Cr  Cr167  1  0.33333333  0.83333333  0.12994686  1.0
  Cr  Cr168  1  0.66666667  0.16666667  0.12994686  1.0
  Cr  Cr169  1  0.66666667  0.50000000  0.12994686  1.0
  Cr  Cr170  1  0.66666667  0.83333333  0.12994686  1.0
  Cr  Cr171  1  0.00000000  0.00000000  0.14994686  1.0
  Cr  Cr172  1  0.00000000  0.33333333  0.14994686  1.0
  Cr  Cr173  1  0.00000000  0.66666667  0.14994686  1.0
  Cr  Cr174  1  0.33333333  0.00000000  0.14994686  1.0
  Cr  Cr175  1  0.33333333  0.33333333  0.14994686  1.0
  Cr  Cr176  1  0.33333333  0.66666667  0.14994686  1.0
  Cr  Cr177  1  0.66666667  0.00000000  0.14994686  1.0
  Cr  Cr178  1  0.66666667  0.33333333  0.14994686  1.0
  Cr  Cr179  1  0.66666667  0.66666667  0.14994686  1.0
  Ni  Ni180  1  0.22192700  0.16710950  0.12989372  1.0
  Ni  Ni181  1  0.22192700  0.50044283  0.12989372  1.0
  Ni  Ni182  1  0.22192700  0.83377617  0.12989372  1.0
  Ni  Ni183  1  0.55526033  0.16710950  0.12989372  1.0
  Ni  Ni184  1  0.55526033  0.50044283  0.12989372  1.0
  Ni  Ni185  1  0.55526033  0.83377617  0.12989372  1.0
  Ni  Ni186  1  0.88859367  0.16710950  0.12989372  1.0
  Ni  Ni187  1  0.88859367  0.50044283  0.12989372  1.0
  Ni  Ni188  1  0.88859367  0.83377617  0.12989372  1.0
  Ni  Ni189  1  0.22192700  0.00044283  0.14989372  1.0
  Ni  Ni190  1  0.22192700  0.33377617  0.14989372  1.0
  Ni  Ni191  1  0.22192700  0.66710950  0.14989372  1.0
  Ni  Ni192  1  0.55526033  0.00044283  0.14989372  1.0
  Ni  Ni193  1  0.55526033  0.33377617  0.14989372  1.0
  Ni  Ni194  1  0.55526033  0.66710950  0.14989372  1.0
  Ni  Ni195  1  0.88859367  0.00044283  0.14989372  1.0
  Ni  Ni196  1  0.88859367  0.33377617  0.14989372  1.0
  Ni  Ni197  1  0.88859367  0.66710950  0.14989372  1.0
  Ni  Ni198  1  0.11140633  0.33289050  0.15000000  1.0
  Ni  Ni199  1  0.11140633  0.66622383  0.15000000  1.0
  Ni  Ni200  1  0.11140633  0.99955717  0.15000000  1.0
  Ni  Ni201  1  0.44473967  0.33289050  0.15000000  1.0
  Ni  Ni202  1  0.44473967  0.66622383  0.15000000  1.0
  Ni  Ni203  1  0.44473967  0.99955717  0.15000000  1.0
  Ni  Ni204  1  0.77807300  0.33289050  0.15000000  1.0
  Ni  Ni205  1  0.77807300  0.66622383  0.15000000  1.0
  Ni  Ni206  1  0.77807300  0.99955717  0.15000000  1.0
  Ni  Ni207  1  0.11140633  0.16622383  0.13000000  1.0
  Ni  Ni208  1  0.11140633  0.49955717  0.13000000  1.0
  Ni  Ni209  1  0.11140633  0.83289050  0.13000000  1.0
  Ni  Ni210  1  0.44473967  0.16622383  0.13000000  1.0
  Ni  Ni211  1  0.44473967  0.49955717  0.13000000  1.0
  Ni  Ni212  1  0.44473967  0.83289050  0.13000000  1.0
  Ni  Ni213  1  0.77807300  0.16622383  0.13000000  1.0
  Ni  Ni214  1  0.77807300  0.49955717  0.13000000  1.0
  Ni  Ni215  1  0.77807300  0.83289050  0.13000000  1.0
  Cr  Cr216  1  0.00000000  0.16666667  0.16994686  1.0
  Cr  Cr217  1  0.00000000  0.50000000  0.16994686  1.0
  Cr  Cr218  1  0.00000000  0.83333333  0.16994686  1.0
  Cr  Cr219  1  0.33333333  0.16666667  0.16994686  1.0
  Cr  Cr220  1  0.33333333  0.50000000  0.16994686  1.0
  Cr  Cr221  1  0.33333333  0.83333333  0.16994686  1.0
  Cr  Cr222  1  0.66666667  0.16666667  0.16994686  1.0
  Cr  Cr223  1  0.66666667  0.50000000  0.16994686  1.0
  Cr  Cr224  1  0.66666667  0.83333333  0.16994686  1.0
  Cr  Cr225  1  0.00000000  0.00000000  0.18994686  1.0
  Cr  Cr226  1  0.00000000  0.33333333  0.18994686  1.0
  Cr  Cr227  1  0.00000000  0.66666667  0.18994686  1.0
  Cr  Cr228  1  0.33333333  0.00000000  0.18994686  1.0
  Cr  Cr229  1  0.33333333  0.33333333  0.18994686  1.0
  Cr  Cr230  1  0.33333333  0.66666667  0.18994686  1.0
  Cr  Cr231  1  0.66666667  0.00000000  0.18994686  1.0
  Cr  Cr232  1  0.66666667  0.33333333  0.18994686  1.0
  Cr  Cr233  1  0.66666667  0.66666667  0.18994686  1.0
  Ni  Ni234  1  0.22192700  0.16710950  0.16989372  1.0
  Ni  Ni235  1  0.22192700  0.50044283  0.16989372  1.0
  Ni  Ni236  1  0.22192700  0.83377617  0.16989372  1.0
  Ni  Ni237  1  0.55526033  0.16710950  0.16989372  1.0
  Ni  Ni238  1  0.55526033  0.50044283  0.16989372  1.0
  Ni  Ni239  1  0.55526033  0.83377617  0.16989372  1.0
  Ni  Ni240  1  0.88859367  0.16710950  0.16989372  1.0
  Ni  Ni241  1  0.88859367  0.50044283  0.16989372  1.0
  Ni  Ni242  1  0.88859367  0.83377617  0.16989372  1.0
  Ni  Ni243  1  0.22192700  0.00044283  0.18989372  1.0
  Ni  Ni244  1  0.22192700  0.33377617  0.18989372  1.0
  Ni  Ni245  1  0.22192700  0.66710950  0.18989372  1.0
  Ni  Ni246  1  0.55526033  0.00044283  0.18989372  1.0
  Ni  Ni247  1  0.55526033  0.33377617  0.18989372  1.0
  Ni  Ni248  1  0.55526033  0.66710950  0.18989372  1.0
  Ni  Ni249  1  0.88859367  0.00044283  0.18989372  1.0
  Ni  Ni250  1  0.88859367  0.33377617  0.18989372  1.0
  Ni  Ni251  1  0.88859367  0.66710950  0.18989372  1.0
  Ni  Ni252  1  0.11140633  0.33289050  0.19000000  1.0
  Ni  Ni253  1  0.11140633  0.66622383  0.19000000  1.0
  Ni  Ni254  1  0.11140633  0.99955717  0.19000000  1.0
  Ni  Ni255  1  0.44473967  0.33289050  0.19000000  1.0
  Ni  Ni256  1  0.44473967  0.66622383  0.19000000  1.0
  Ni  Ni257  1  0.44473967  0.99955717  0.19000000  1.0
  Ni  Ni258  1  0.77807300  0.33289050  0.19000000  1.0
  Ni  Ni259  1  0.77807300  0.66622383  0.19000000  1.0
  Ni  Ni260  1  0.77807300  0.99955717  0.19000000  1.0
  Ni  Ni261  1  0.11140633  0.16622383  0.17000000  1.0
  Ni  Ni262  1  0.11140633  0.49955717  0.17000000  1.0
  Ni  Ni263  1  0.11140633  0.83289050  0.17000000  1.0
  Ni  Ni264  1  0.44473967  0.16622383  0.17000000  1.0
  Ni  Ni265  1  0.44473967  0.49955717  0.17000000  1.0
  Ni  Ni266  1  0.44473967  0.83289050  0.17000000  1.0
  Ni  Ni267  1  0.77807300  0.16622383  0.17000000  1.0
  Ni  Ni268  1  0.77807300  0.49955717  0.17000000  1.0
  Ni  Ni269  1  0.77807300  0.83289050  0.17000000  1.0
  Cr  Cr270  1  0.00000000  0.16666667  0.20994686  1.0
  Cr  Cr271  1  0.00000000  0.50000000  0.20994686  1.0
  Cr  Cr272  1  0.00000000  0.83333333  0.20994686  1.0
  Cr  Cr273  1  0.33333333  0.16666667  0.20994686  1.0
  Cr  Cr274  1  0.33333333  0.50000000  0.20994686  1.0
  Cr  Cr275  1  0.33333333  0.83333333  0.20994686  1.0
  Cr  Cr276  1  0.66666667  0.16666667  0.20994686  1.0
  Cr  Cr277  1  0.66666667  0.50000000  0.20994686  1.0
  Cr  Cr278  1  0.66666667  0.83333333  0.20994686  1.0
  Cr  Cr279  1  0.00000000  0.00000000  0.22994686  1.0
  Cr  Cr280  1  0.00000000  0.33333333  0.22994686  1.0
  Cr  Cr281  1  0.00000000  0.66666667  0.22994686  1.0
  Cr  Cr282  1  0.33333333  0.00000000  0.22994686  1.0
  Cr  Cr283  1  0.33333333  0.33333333  0.22994686  1.0
  Cr  Cr284  1  0.33333333  0.66666667  0.22994686  1.0
  Cr  Cr285  1  0.66666667  0.00000000  0.22994686  1.0
  Cr  Cr286  1  0.66666667  0.33333333  0.22994686  1.0
  Cr  Cr287  1  0.66666667  0.66666667  0.22994686  1.0
  Ni  Ni288  1  0.22192700  0.16710950  0.20989372  1.0
  Ni  Ni289  1  0.22192700  0.50044283  0.20989372  1.0
  Ni  Ni290  1  0.22192700  0.83377617  0.20989372  1.0
  Ni  Ni291  1  0.55526033  0.16710950  0.20989372  1.0
  Ni  Ni292  1  0.55526033  0.50044283  0.20989372  1.0
  Ni  Ni293  1  0.55526033  0.83377617  0.20989372  1.0
  Ni  Ni294  1  0.88859367  0.16710950  0.20989372  1.0
  Ni  Ni295  1  0.88859367  0.50044283  0.20989372  1.0
  Ni  Ni296  1  0.88859367  0.83377617  0.20989372  1.0
  Ni  Ni297  1  0.22192700  0.00044283  0.22989372  1.0
  Ni  Ni298  1  0.22192700  0.33377617  0.22989372  1.0
  Ni  Ni299  1  0.22192700  0.66710950  0.22989372  1.0
  Ni  Ni300  1  0.55526033  0.00044283  0.22989372  1.0
  Ni  Ni301  1  0.55526033  0.33377617  0.22989372  1.0
  Ni  Ni302  1  0.55526033  0.66710950  0.22989372  1.0
  Ni  Ni303  1  0.88859367  0.00044283  0.22989372  1.0
  Ni  Ni304  1  0.88859367  0.33377617  0.22989372  1.0
  Ni  Ni305  1  0.88859367  0.66710950  0.22989372  1.0
  Ni  Ni306  1  0.11140633  0.33289050  0.23000000  1.0
  Ni  Ni307  1  0.11140633  0.66622383  0.23000000  1.0
  Ni  Ni308  1  0.11140633  0.99955717  0.23000000  1.0
  Ni  Ni309  1  0.44473967  0.33289050  0.23000000  1.0
  Ni  Ni310  1  0.44473967  0.66622383  0.23000000  1.0
  Ni  Ni311  1  0.44473967  0.99955717  0.23000000  1.0
  Ni  Ni312  1  0.77807300  0.33289050  0.23000000  1.0
  Ni  Ni313  1  0.77807300  0.66622383  0.23000000  1.0
  Ni  Ni314  1  0.77807300  0.99955717  0.23000000  1.0
  Ni  Ni315  1  0.11140633  0.16622383  0.21000000  1.0
  Ni  Ni316  1  0.11140633  0.49955717  0.21000000  1.0
  Ni  Ni317  1  0.11140633  0.83289050  0.21000000  1.0
  Ni  Ni318  1  0.44473967  0.16622383  0.21000000  1.0
  Ni  Ni319  1  0.44473967  0.49955717  0.21000000  1.0
  Ni  Ni320  1  0.44473967  0.83289050  0.21000000  1.0
  Ni  Ni321  1  0.77807300  0.16622383  0.21000000  1.0
  Ni  Ni322  1  0.77807300  0.49955717  0.21000000  1.0
  Ni  Ni323  1  0.77807300  0.83289050  0.21000000  1.0
  Cr  Cr324  1  0.00000000  0.16666667  0.24994686  1.0
  Cr  Cr325  1  0.00000000  0.50000000  0.24994686  1.0
  Cr  Cr326  1  0.00000000  0.83333333  0.24994686  1.0
  Cr  Cr327  1  0.33333333  0.16666667  0.24994686  1.0
  Cr  Cr328  1  0.33333333  0.50000000  0.24994686  1.0
  Cr  Cr329  1  0.33333333  0.83333333  0.24994686  1.0
  Cr  Cr330  1  0.66666667  0.16666667  0.24994686  1.0
  Cr  Cr331  1  0.66666667  0.50000000  0.24994686  1.0
  Cr  Cr332  1  0.66666667  0.83333333  0.24994686  1.0
  Cr  Cr333  1  0.00000000  0.00000000  0.26994686  1.0
  Cr  Cr334  1  0.00000000  0.33333333  0.26994686  1.0
  Cr  Cr335  1  0.00000000  0.66666667  0.26994686  1.0
  Cr  Cr336  1  0.33333333  0.00000000  0.26994686  1.0
  Cr  Cr337  1  0.33333333  0.33333333  0.26994686  1.0
  Cr  Cr338  1  0.33333333  0.66666667  0.26994686  1.0
  Cr  Cr339  1  0.66666667  0.00000000  0.26994686  1.0
  Cr  Cr340  1  0.66666667  0.33333333  0.26994686  1.0
  Cr  Cr341  1  0.66666667  0.66666667  0.26994686  1.0
  Ni  Ni342  1  0.22192700  0.16710950  0.24989372  1.0
  Ni  Ni343  1  0.22192700  0.50044283  0.24989372  1.0
  Ni  Ni344  1  0.22192700  0.83377617  0.24989372  1.0
  Ni  Ni345  1  0.55526033  0.16710950  0.24989372  1.0
  Ni  Ni346  1  0.55526033  0.50044283  0.24989372  1.0
  Ni  Ni347  1  0.55526033  0.83377617  0.24989372  1.0
  Ni  Ni348  1  0.88859367  0.16710950  0.24989372  1.0
  Ni  Ni349  1  0.88859367  0.50044283  0.24989372  1.0
  Ni  Ni350  1  0.88859367  0.83377617  0.24989372  1.0
  Ni  Ni351  1  0.22192700  0.00044283  0.26989372  1.0
  Ni  Ni352  1  0.22192700  0.33377617  0.26989372  1.0
  Ni  Ni353  1  0.22192700  0.66710950  0.26989372  1.0
  Ni  Ni354  1  0.55526033  0.00044283  0.26989372  1.0
  Ni  Ni355  1  0.55526033  0.33377617  0.26989372  1.0
  Ni  Ni356  1  0.55526033  0.66710950  0.26989372  1.0
  Ni  Ni357  1  0.88859367  0.00044283  0.26989372  1.0
  Ni  Ni358  1  0.88859367  0.33377617  0.26989372  1.0
  Ni  Ni359  1  0.88859367  0.66710950  0.26989372  1.0
  Ni  Ni360  1  0.11140633  0.33289050  0.27000000  1.0
  Ni  Ni361  1  0.11140633  0.66622383  0.27000000  1.0
  Ni  Ni362  1  0.11140633  0.99955717  0.27000000  1.0
  Ni  Ni363  1  0.44473967  0.33289050  0.27000000  1.0
  Ni  Ni364  1  0.44473967  0.66622383  0.27000000  1.0
  Ni  Ni365  1  0.44473967  0.99955717  0.27000000  1.0
  Ni  Ni366  1  0.77807300  0.33289050  0.27000000  1.0
  Ni  Ni367  1  0.77807300  0.66622383  0.27000000  1.0
  Ni  Ni368  1  0.77807300  0.99955717  0.27000000  1.0
  Ni  Ni369  1  0.11140633  0.16622383  0.25000000  1.0
  Ni  Ni370  1  0.11140633  0.49955717  0.25000000  1.0
  Ni  Ni371  1  0.11140633  0.83289050  0.25000000  1.0
  Ni  Ni372  1  0.44473967  0.16622383  0.25000000  1.0
  Ni  Ni373  1  0.44473967  0.49955717  0.25000000  1.0
  Ni  Ni374  1  0.44473967  0.83289050  0.25000000  1.0
  Ni  Ni375  1  0.77807300  0.16622383  0.25000000  1.0
  Ni  Ni376  1  0.77807300  0.49955717  0.25000000  1.0
  Ni  Ni377  1  0.77807300  0.83289050  0.25000000  1.0
  Cr  Cr378  1  0.00000000  0.16666667  0.28994686  1.0
  Cr  Cr379  1  0.00000000  0.50000000  0.28994686  1.0
  Cr  Cr380  1  0.00000000  0.83333333  0.28994686  1.0
  Cr  Cr381  1  0.33333333  0.16666667  0.28994686  1.0
  Cr  Cr382  1  0.33333333  0.50000000  0.28994686  1.0
  Cr  Cr383  1  0.33333333  0.83333333  0.28994686  1.0
  Cr  Cr384  1  0.66666667  0.16666667  0.28994686  1.0
  Cr  Cr385  1  0.66666667  0.50000000  0.28994686  1.0
  Cr  Cr386  1  0.66666667  0.83333333  0.28994686  1.0
  Cr  Cr387  1  0.00000000  0.00000000  0.30994686  1.0
  Cr  Cr388  1  0.00000000  0.33333333  0.30994686  1.0
  Cr  Cr389  1  0.00000000  0.66666667  0.30994686  1.0
  Cr  Cr390  1  0.33333333  0.00000000  0.30994686  1.0
  Cr  Cr391  1  0.33333333  0.33333333  0.30994686  1.0
  Cr  Cr392  1  0.33333333  0.66666667  0.30994686  1.0
  Cr  Cr393  1  0.66666667  0.00000000  0.30994686  1.0
  Cr  Cr394  1  0.66666667  0.33333333  0.30994686  1.0
  Cr  Cr395  1  0.66666667  0.66666667  0.30994686  1.0
  Ni  Ni396  1  0.22192700  0.16710950  0.28989372  1.0
  Ni  Ni397  1  0.22192700  0.50044283  0.28989372  1.0
  Ni  Ni398  1  0.22192700  0.83377617  0.28989372  1.0
  Ni  Ni399  1  0.55526033  0.16710950  0.28989372  1.0
  Ni  Ni400  1  0.55526033  0.50044283  0.28989372  1.0
  Ni  Ni401  1  0.55526033  0.83377617  0.28989372  1.0
  Ni  Ni402  1  0.88859367  0.16710950  0.28989372  1.0
  Ni  Ni403  1  0.88859367  0.50044283  0.28989372  1.0
  Ni  Ni404  1  0.88859367  0.83377617  0.28989372  1.0
  Ni  Ni405  1  0.22192700  0.00044283  0.30989372  1.0
  Ni  Ni406  1  0.22192700  0.33377617  0.30989372  1.0
  Ni  Ni407  1  0.22192700  0.66710950  0.30989372  1.0
  Ni  Ni408  1  0.55526033  0.00044283  0.30989372  1.0
  Ni  Ni409  1  0.55526033  0.33377617  0.30989372  1.0
  Ni  Ni410  1  0.55526033  0.66710950  0.30989372  1.0
  Ni  Ni411  1  0.88859367  0.00044283  0.30989372  1.0
  Ni  Ni412  1  0.88859367  0.33377617  0.30989372  1.0
  Ni  Ni413  1  0.88859367  0.66710950  0.30989372  1.0
  Ni  Ni414  1  0.11140633  0.33289050  0.31000000  1.0
  Ni  Ni415  1  0.11140633  0.66622383  0.31000000  1.0
  Ni  Ni416  1  0.11140633  0.99955717  0.31000000  1.0
  Ni  Ni417  1  0.44473967  0.33289050  0.31000000  1.0
  Ni  Ni418  1  0.44473967  0.66622383  0.31000000  1.0
  Ni  Ni419  1  0.44473967  0.99955717  0.31000000  1.0
  Ni  Ni420  1  0.77807300  0.33289050  0.31000000  1.0
  Ni  Ni421  1  0.77807300  0.66622383  0.31000000  1.0
  Ni  Ni422  1  0.77807300  0.99955717  0.31000000  1.0
  Ni  Ni423  1  0.11140633  0.16622383  0.29000000  1.0
  Ni  Ni424  1  0.11140633  0.49955717  0.29000000  1.0
  Ni  Ni425  1  0.11140633  0.83289050  0.29000000  1.0
  Ni  Ni426  1  0.44473967  0.16622383  0.29000000  1.0
  Ni  Ni427  1  0.44473967  0.49955717  0.29000000  1.0
  Ni  Ni428  1  0.44473967  0.83289050  0.29000000  1.0
  Ni  Ni429  1  0.77807300  0.16622383  0.29000000  1.0
  Ni  Ni430  1  0.77807300  0.49955717  0.29000000  1.0
  Ni  Ni431  1  0.77807300  0.83289050  0.29000000  1.0
  Cr  Cr432  1  0.00000000  0.16666667  0.32994686  1.0
  Cr  Cr433  1  0.00000000  0.50000000  0.32994686  1.0
  Cr  Cr434  1  0.00000000  0.83333333  0.32994686  1.0
  Cr  Cr435  1  0.33333333  0.16666667  0.32994686  1.0
  Cr  Cr436  1  0.33333333  0.50000000  0.32994686  1.0
  Cr  Cr437  1  0.33333333  0.83333333  0.32994686  1.0
  Cr  Cr438  1  0.66666667  0.16666667  0.32994686  1.0
  Cr  Cr439  1  0.66666667  0.50000000  0.32994686  1.0
  Cr  Cr440  1  0.66666667  0.83333333  0.32994686  1.0
  Cr  Cr441  1  0.00000000  0.00000000  0.34994686  1.0
  Cr  Cr442  1  0.00000000  0.33333333  0.34994686  1.0
  Cr  Cr443  1  0.00000000  0.66666667  0.34994686  1.0
  Cr  Cr444  1  0.33333333  0.00000000  0.34994686  1.0
  Cr  Cr445  1  0.33333333  0.33333333  0.34994686  1.0
  Cr  Cr446  1  0.33333333  0.66666667  0.34994686  1.0
  Cr  Cr447  1  0.66666667  0.00000000  0.34994686  1.0
  Cr  Cr448  1  0.66666667  0.33333333  0.34994686  1.0
  Cr  Cr449  1  0.66666667  0.66666667  0.34994686  1.0
  Ni  Ni450  1  0.22192700  0.16710950  0.32989372  1.0
  Ni  Ni451  1  0.22192700  0.50044283  0.32989372  1.0
  Ni  Ni452  1  0.22192700  0.83377617  0.32989372  1.0
  Ni  Ni453  1  0.55526033  0.16710950  0.32989372  1.0
  Ni  Ni454  1  0.55526033  0.50044283  0.32989372  1.0
  Ni  Ni455  1  0.55526033  0.83377617  0.32989372  1.0
  Ni  Ni456  1  0.88859367  0.16710950  0.32989372  1.0
  Ni  Ni457  1  0.88859367  0.50044283  0.32989372  1.0
  Ni  Ni458  1  0.88859367  0.83377617  0.32989372  1.0
  Ni  Ni459  1  0.22192700  0.00044283  0.34989372  1.0
  Ni  Ni460  1  0.22192700  0.33377617  0.34989372  1.0
  Ni  Ni461  1  0.22192700  0.66710950  0.34989372  1.0
  Ni  Ni462  1  0.55526033  0.00044283  0.34989372  1.0
  Ni  Ni463  1  0.55526033  0.33377617  0.34989372  1.0
  Ni  Ni464  1  0.55526033  0.66710950  0.34989372  1.0
  Ni  Ni465  1  0.88859367  0.00044283  0.34989372  1.0
  Ni  Ni466  1  0.88859367  0.33377617  0.34989372  1.0
  Ni  Ni467  1  0.88859367  0.66710950  0.34989372  1.0
  Ni  Ni468  1  0.11140633  0.33289050  0.35000000  1.0
  Ni  Ni469  1  0.11140633  0.66622383  0.35000000  1.0
  Ni  Ni470  1  0.11140633  0.99955717  0.35000000  1.0
  Ni  Ni471  1  0.44473967  0.33289050  0.35000000  1.0
  Ni  Ni472  1  0.44473967  0.66622383  0.35000000  1.0
  Ni  Ni473  1  0.44473967  0.99955717  0.35000000  1.0
  Ni  Ni474  1  0.77807300  0.33289050  0.35000000  1.0
  Ni  Ni475  1  0.77807300  0.66622383  0.35000000  1.0
  Ni  Ni476  1  0.77807300  0.99955717  0.35000000  1.0
  Ni  Ni477  1  0.11140633  0.16622383  0.33000000  1.0
  Ni  Ni478  1  0.11140633  0.49955717  0.33000000  1.0
  Ni  Ni479  1  0.11140633  0.83289050  0.33000000  1.0
  Ni  Ni480  1  0.44473967  0.16622383  0.33000000  1.0
  Ni  Ni481  1  0.44473967  0.49955717  0.33000000  1.0
  Ni  Ni482  1  0.44473967  0.83289050  0.33000000  1.0
  Ni  Ni483  1  0.77807300  0.16622383  0.33000000  1.0
  Ni  Ni484  1  0.77807300  0.49955717  0.33000000  1.0
  Ni  Ni485  1  0.77807300  0.83289050  0.33000000  1.0
  Cr  Cr486  1  0.00000000  0.16666667  0.36994686  1.0
  Cr  Cr487  1  0.00000000  0.50000000  0.36994686  1.0
  Cr  Cr488  1  0.00000000  0.83333333  0.36994686  1.0
  Cr  Cr489  1  0.33333333  0.16666667  0.36994686  1.0
  Cr  Cr490  1  0.33333333  0.50000000  0.36994686  1.0
  Cr  Cr491  1  0.33333333  0.83333333  0.36994686  1.0
  Cr  Cr492  1  0.66666667  0.16666667  0.36994686  1.0
  Cr  Cr493  1  0.66666667  0.50000000  0.36994686  1.0
  Cr  Cr494  1  0.66666667  0.83333333  0.36994686  1.0
  Cr  Cr495  1  0.00000000  0.00000000  0.38994686  1.0
  Cr  Cr496  1  0.00000000  0.33333333  0.38994686  1.0
  Cr  Cr497  1  0.00000000  0.66666667  0.38994686  1.0
  Cr  Cr498  1  0.33333333  0.00000000  0.38994686  1.0
  Cr  Cr499  1  0.33333333  0.33333333  0.38994686  1.0
  Cr  Cr500  1  0.33333333  0.66666667  0.38994686  1.0
  Cr  Cr501  1  0.66666667  0.00000000  0.38994686  1.0
  Cr  Cr502  1  0.66666667  0.33333333  0.38994686  1.0
  Cr  Cr503  1  0.66666667  0.66666667  0.38994686  1.0
  Ni  Ni504  1  0.22192700  0.16710950  0.36989372  1.0
  Ni  Ni505  1  0.22192700  0.50044283  0.36989372  1.0
  Ni  Ni506  1  0.22192700  0.83377617  0.36989372  1.0
  Ni  Ni507  1  0.55526033  0.16710950  0.36989372  1.0
  Ni  Ni508  1  0.55526033  0.50044283  0.36989372  1.0
  Ni  Ni509  1  0.55526033  0.83377617  0.36989372  1.0
  Ni  Ni510  1  0.88859367  0.16710950  0.36989372  1.0
  Ni  Ni511  1  0.88859367  0.50044283  0.36989372  1.0
  Ni  Ni512  1  0.88859367  0.83377617  0.36989372  1.0
  Ni  Ni513  1  0.22192700  0.00044283  0.38989372  1.0
  Ni  Ni514  1  0.22192700  0.33377617  0.38989372  1.0
  Ni  Ni515  1  0.22192700  0.66710950  0.38989372  1.0
  Ni  Ni516  1  0.55526033  0.00044283  0.38989372  1.0
  Ni  Ni517  1  0.55526033  0.33377617  0.38989372  1.0
  Ni  Ni518  1  0.55526033  0.66710950  0.38989372  1.0
  Ni  Ni519  1  0.88859367  0.00044283  0.38989372  1.0
  Ni  Ni520  1  0.88859367  0.33377617  0.38989372  1.0
  Ni  Ni521  1  0.88859367  0.66710950  0.38989372  1.0
  Ni  Ni522  1  0.11140633  0.33289050  0.39000000  1.0
  Ni  Ni523  1  0.11140633  0.66622383  0.39000000  1.0
  Ni  Ni524  1  0.11140633  0.99955717  0.39000000  1.0
  Ni  Ni525  1  0.44473967  0.33289050  0.39000000  1.0
  Ni  Ni526  1  0.44473967  0.66622383  0.39000000  1.0
  Ni  Ni527  1  0.44473967  0.99955717  0.39000000  1.0
  Ni  Ni528  1  0.77807300  0.33289050  0.39000000  1.0
  Ni  Ni529  1  0.77807300  0.66622383  0.39000000  1.0
  Ni  Ni530  1  0.77807300  0.99955717  0.39000000  1.0
  Ni  Ni531  1  0.11140633  0.16622383  0.37000000  1.0
  Ni  Ni532  1  0.11140633  0.49955717  0.37000000  1.0
  Ni  Ni533  1  0.11140633  0.83289050  0.37000000  1.0
  Ni  Ni534  1  0.44473967  0.16622383  0.37000000  1.0
  Ni  Ni535  1  0.44473967  0.49955717  0.37000000  1.0
  Ni  Ni536  1  0.44473967  0.83289050  0.37000000  1.0
  Ni  Ni537  1  0.77807300  0.16622383  0.37000000  1.0
  Ni  Ni538  1  0.77807300  0.49955717  0.37000000  1.0
  Ni  Ni539  1  0.77807300  0.83289050  0.37000000  1.0
