# generated using pymatgen
data_CrNi2
_symmetry_space_group_name_H-M   'P 1'
_cell_length_a   22.44115798
_cell_length_b   10.66063799
_cell_length_c   34.36739936
_cell_angle_alpha   65.56913294
_cell_angle_beta   54.53303953
_cell_angle_gamma   44.55537368
_symmetry_Int_Tables_number   1
_chemical_formula_structural   CrNi2
_chemical_formula_sum   'Cr54 Ni108'
_cell_volume   4698.16405433
_cell_formula_units_Z   54
loop_
 _symmetry_equiv_pos_site_id
 _symmetry_equiv_pos_as_xyz
  1  'x, y, z'
loop_
 _atom_site_type_symbol
 _atom_site_label
 _atom_site_symmetry_multiplicity
 _atom_site_fract_x
 _atom_site_fract_y
 _atom_site_fract_z
 _atom_site_occupancy
  Cr  Cr0  1  0.00000000  0.00000000  0.09391606  1.0
  Cr  Cr1  1  0.00000000  0.33333333  0.09391606  1.0
  Cr  Cr2  1  0.00000000  0.66666667  0.09391606  1.0
  Cr  Cr3  1  0.33333333  0.00000000  0.09391606  1.0
  Cr  Cr4  1  0.33333333  0.33333333  0.09391606  1.0
  Cr  Cr5  1  0.33333333  0.66666667  0.09391606  1.0
  Cr  Cr6  1  0.66666667  0.00000000  0.09391606  1.0
  Cr  Cr7  1  0.66666667  0.33333333  0.09391606  1.0
  Cr  Cr8  1  0.66666667  0.66666667  0.09391606  1.0
  Cr  Cr9  1  0.16666667  0.16666667  0.03141606  1.0
  Cr  Cr10  1  0.16666667  0.50000000  0.03141606  1.0
  Cr  Cr11  1  0.16666667  0.83333333  0.03141606  1.0
  Cr  Cr12  1  0.50000000  0.16666667  0.03141606  1.0
  Cr  Cr13  1  0.50000000  0.50000000  0.03141606  1.0
  Cr  Cr14  1  0.50000000  0.83333333  0.03141606  1.0
  Cr  Cr15  1  0.83333333  0.16666667  0.03141606  1.0
  Cr  Cr16  1  0.83333333  0.50000000  0.03141606  1.0
  Cr  Cr17  1  0.83333333  0.83333333  0.03141606  1.0
  Ni  Ni18  1  0.22236983  0.33289050  0.09408213  1.0
  Ni  Ni19  1  0.22236983  0.66622383  0.09408213  1.0
  Ni  Ni20  1  0.22236983  0.99955717  0.09408213  1.0
  Ni  Ni21  1  0.55570317  0.33289050  0.09408213  1.0
  Ni  Ni22  1  0.55570317  0.66622383  0.09408212  1.0
  Ni  Ni23  1  0.55570317  0.99955717  0.09408212  1.0
  Ni  Ni24  1  0.88903650  0.33289050  0.09408213  1.0
  Ni  Ni25  1  0.88903650  0.66622383  0.09408212  1.0
  Ni  Ni26  1  0.88903650  0.99955717  0.09408212  1.0
  Ni  Ni27  1  0.05570317  0.16622383  0.03158213  1.0
  Ni  Ni28  1  0.05570317  0.49955717  0.03158213  1.0
  Ni  Ni29  1  0.05570317  0.83289050  0.03158213  1.0
  Ni  Ni30  1  0.38903650  0.16622383  0.03158213  1.0
  Ni  Ni31  1  0.38903650  0.49955717  0.03158212  1.0
  Ni  Ni32  1  0.38903650  0.83289050  0.03158212  1.0
  Ni  Ni33  1  0.72236983  0.16622383  0.03158213  1.0
  Ni  Ni34  1  0.72236983  0.49955717  0.03158213  1.0
  Ni  Ni35  1  0.72236983  0.83289050  0.03158212  1.0
  Ni  Ni36  1  0.27763017  0.16710950  0.03125000  1.0
  Ni  Ni37  1  0.27763017  0.50044283  0.03125000  1.0
  Ni  Ni38  1  0.27763017  0.83377617  0.03125000  1.0
  Ni  Ni39  1  0.61096350  0.16710950  0.03125000  1.0
  Ni  Ni40  1  0.61096350  0.50044283  0.03125000  1.0
  Ni  Ni41  1  0.61096350  0.83377617  0.03125000  1.0
  Ni  Ni42  1  0.94429683  0.16710950  0.03125000  1.0
  Ni  Ni43  1  0.94429683  0.50044283  0.03125000  1.0
  Ni  Ni44  1  0.94429683  0.83377617  0.03125000  1.0
  Ni  Ni45  1  0.11096350  0.00044283  0.09375000  1.0
  Ni  Ni46  1  0.11096350  0.33377617  0.09375000  1.0
  Ni  Ni47  1  0.11096350  0.66710950  0.09375000  1.0
  Ni  Ni48  1  0.44429683  0.00044283  0.09375000  1.0
  Ni  Ni49  1  0.44429683  0.33377617  0.09375000  1.0
  Ni  Ni50  1  0.44429683  0.66710950  0.09375000  1.0
  Ni  Ni51  1  0.77763017  0.00044283  0.09375000  1.0
  Ni  Ni52  1  0.77763017  0.33377617  0.09375000  1.0
  Ni  Ni53  1  0.77763017  0.66710950  0.09375000  1.0
  Cr  Cr54  1  0.00000000  0.00000000  0.21891606  1.0
  Cr  Cr55  1  0.00000000  0.33333333  0.21891606  1.0
  Cr  Cr56  1  0.00000000  0.66666667  0.21891606  1.0
  Cr  Cr57  1  0.33333333  0.00000000  0.21891606  1.0
  Cr  Cr58  1  0.33333333  0.33333333  0.21891606  1.0
  Cr  Cr59  1  0.33333333  0.66666667  0.21891606  1.0
  Cr  Cr60  1  0.66666667  0.00000000  0.21891606  1.0
  Cr  Cr61  1  0.66666667  0.33333333  0.21891606  1.0
  Cr  Cr62  1  0.66666667  0.66666667  0.21891606  1.0
  Cr  Cr63  1  0.16666667  0.16666667  0.15641606  1.0
  Cr  Cr64  1  0.16666667  0.50000000  0.15641606  1.0
  Cr  Cr65  1  0.16666667  0.83333333  0.15641606  1.0
  Cr  Cr66  1  0.50000000  0.16666667  0.15641606  1.0
  Cr  Cr67  1  0.50000000  0.50000000  0.15641606  1.0
  Cr  Cr68  1  0.50000000  0.83333333  0.15641606  1.0
  Cr  Cr69  1  0.83333333  0.16666667  0.15641606  1.0
  Cr  Cr70  1  0.83333333  0.50000000  0.15641606  1.0
  Cr  Cr71  1  0.83333333  0.83333333  0.15641606  1.0
  Ni  Ni72  1  0.22236983  0.33289050  0.21908212  1.0
  Ni  Ni73  1  0.22236983  0.66622383  0.21908212  1.0
  Ni  Ni74  1  0.22236983  0.99955717  0.21908212  1.0
  Ni  Ni75  1  0.55570317  0.33289050  0.21908212  1.0
  Ni  Ni76  1  0.55570317  0.66622383  0.21908212  1.0
  Ni  Ni77  1  0.55570317  0.99955717  0.21908212  1.0
  Ni  Ni78  1  0.88903650  0.33289050  0.21908213  1.0
  Ni  Ni79  1  0.88903650  0.66622383  0.21908213  1.0
  Ni  Ni80  1  0.88903650  0.99955717  0.21908212  1.0
  Ni  Ni81  1  0.05570317  0.16622383  0.15658213  1.0
  Ni  Ni82  1  0.05570317  0.49955717  0.15658213  1.0
  Ni  Ni83  1  0.05570317  0.83289050  0.15658212  1.0
  Ni  Ni84  1  0.38903650  0.16622383  0.15658213  1.0
  Ni  Ni85  1  0.38903650  0.49955717  0.15658212  1.0
  Ni  Ni86  1  0.38903650  0.83289050  0.15658213  1.0
  Ni  Ni87  1  0.72236983  0.16622383  0.15658213  1.0
  Ni  Ni88  1  0.72236983  0.49955717  0.15658213  1.0
  Ni  Ni89  1  0.72236983  0.83289050  0.15658212  1.0
  Ni  Ni90  1  0.27763017  0.16710950  0.15625000  1.0
  Ni  Ni91  1  0.27763017  0.50044283  0.15625000  1.0
  Ni  Ni92  1  0.27763017  0.83377617  0.15625000  1.0
  Ni  Ni93  1  0.61096350  0.16710950  0.15625000  1.0
  Ni  Ni94  1  0.61096350  0.50044283  0.15625000  1.0
  Ni  Ni95  1  0.61096350  0.83377617  0.15625000  1.0
  Ni  Ni96  1  0.94429683  0.16710950  0.15625000  1.0
  Ni  Ni97  1  0.94429683  0.50044283  0.15625000  1.0
  Ni  Ni98  1  0.94429683  0.83377617  0.15625000  1.0
  Ni  Ni99  1  0.11096350  0.00044283  0.21875000  1.0
  Ni  Ni100  1  0.11096350  0.33377617  0.21875000  1.0
  Ni  Ni101  1  0.11096350  0.66710950  0.21875000  1.0
  Ni  Ni102  1  0.44429683  0.00044283  0.21875000  1.0
  Ni  Ni103  1  0.44429683  0.33377617  0.21875000  1.0
  Ni  Ni104  1  0.44429683  0.66710950  0.21875000  1.0
  Ni  Ni105  1  0.77763017  0.00044283  0.21875000  1.0
  Ni  Ni106  1  0.77763017  0.33377617  0.21875000  1.0
  Ni  Ni107  1  0.77763017  0.66710950  0.21875000  1.0
  Cr  Cr108  1  0.00000000  0.00000000  0.34391606  1.0
  Cr  Cr109  1  0.00000000  0.33333333  0.34391606  1.0
  Cr  Cr110  1  0.00000000  0.66666667  0.34391606  1.0
  Cr  Cr111  1  0.33333333  0.00000000  0.34391606  1.0
  Cr  Cr112  1  0.33333333  0.33333333  0.34391606  1.0
  Cr  Cr113  1  0.33333333  0.66666667  0.34391606  1.0
  Cr  Cr114  1  0.66666667  0.00000000  0.34391606  1.0
  Cr  Cr115  1  0.66666667  0.33333333  0.34391606  1.0
  Cr  Cr116  1  0.66666667  0.66666667  0.34391606  1.0
  Cr  Cr117  1  0.16666667  0.16666667  0.28141606  1.0
  Cr  Cr118  1  0.16666667  0.50000000  0.28141606  1.0
  Cr  Cr119  1  0.16666667  0.83333333  0.28141606  1.0
  Cr  Cr120  1  0.50000000  0.16666667  0.28141606  1.0
  Cr  Cr121  1  0.50000000  0.50000000  0.28141606  1.0
  Cr  Cr122  1  0.50000000  0.83333333  0.28141606  1.0
  Cr  Cr123  1  0.83333333  0.16666667  0.28141606  1.0
  Cr  Cr124  1  0.83333333  0.50000000  0.28141606  1.0
  Cr  Cr125  1  0.83333333  0.83333333  0.28141606  1.0
  Ni  Ni126  1  0.22236983  0.33289050  0.34408212  1.0
  Ni  Ni127  1  0.22236983  0.66622383  0.34408213  1.0
  Ni  Ni128  1  0.22236983  0.99955717  0.34408213  1.0
  Ni  Ni129  1  0.55570317  0.33289050  0.34408212  1.0
  Ni  Ni130  1  0.55570317  0.66622383  0.34408212  1.0
  Ni  Ni131  1  0.55570317  0.99955717  0.34408212  1.0
  Ni  Ni132  1  0.88903650  0.33289050  0.34408213  1.0
  Ni  Ni133  1  0.88903650  0.66622383  0.34408212  1.0
  Ni  Ni134  1  0.88903650  0.99955717  0.34408212  1.0
  Ni  Ni135  1  0.05570317  0.16622383  0.28158212  1.0
  Ni  Ni136  1  0.05570317  0.49955717  0.28158213  1.0
  Ni  Ni137  1  0.05570317  0.83289050  0.28158213  1.0
  Ni  Ni138  1  0.38903650  0.16622383  0.28158213  1.0
  Ni  Ni139  1  0.38903650  0.49955717  0.28158212  1.0
  Ni  Ni140  1  0.38903650  0.83289050  0.28158213  1.0
  Ni  Ni141  1  0.72236983  0.16622383  0.28158212  1.0
  Ni  Ni142  1  0.72236983  0.49955717  0.28158213  1.0
  Ni  Ni143  1  0.72236983  0.83289050  0.28158212  1.0
  Ni  Ni144  1  0.27763017  0.16710950  0.28125000  1.0
  Ni  Ni145  1  0.27763017  0.50044283  0.28125000  1.0
  Ni  Ni146  1  0.27763017  0.83377617  0.28125000  1.0
  Ni  Ni147  1  0.61096350  0.16710950  0.28125000  1.0
  Ni  Ni148  1  0.61096350  0.50044283  0.28125000  1.0
  Ni  Ni149  1  0.61096350  0.83377617  0.28125000  1.0
  Ni  Ni150  1  0.94429683  0.16710950  0.28125000  1.0
  Ni  Ni151  1  0.94429683  0.50044283  0.28125000  1.0
  Ni  Ni152  1  0.94429683  0.83377617  0.28125000  1.0
  Ni  Ni153  1  0.11096350  0.00044283  0.34375000  1.0
  Ni  Ni154  1  0.11096350  0.33377617  0.34375000  1.0
  Ni  Ni155  1  0.11096350  0.66710950  0.34375000  1.0
  Ni  Ni156  1  0.44429683  0.00044283  0.34375000  1.0
  Ni  Ni157  1  0.44429683  0.33377617  0.34375000  1.0
  Ni  Ni158  1  0.44429683  0.66710950  0.34375000  1.0
  Ni  Ni159  1  0.77763017  0.00044283  0.34375000  1.0
  Ni  Ni160  1  0.77763017  0.33377617  0.34375000  1.0
  Ni  Ni161  1  0.77763017  0.66710950  0.34375000  1.0
