# generated using pymatgen
data_CrNi3
_symmetry_space_group_name_H-M   'P 1'
_cell_length_a   19.85308079
_cell_length_b   26.03924143
_cell_length_c   27.85277544
_cell_angle_alpha   92.96678746
_cell_angle_beta   91.94511908
_cell_angle_gamma   109.07196037
_symmetry_Int_Tables_number   1
_chemical_formula_structural   CrNi3
_chemical_formula_sum   'Cr126 Ni378'
_cell_volume   13570.40492225
_cell_formula_units_Z   126
loop_
 _symmetry_equiv_pos_site_id
 _symmetry_equiv_pos_as_xyz
  1  'x, y, z'
loop_
 _atom_site_type_symbol
 _atom_site_label
 _atom_site_symmetry_multiplicity
 _atom_site_fract_x
 _atom_site_fract_y
 _atom_site_fract_z
 _atom_site_occupancy
  Cr  Cr0  1  0.12992794  0.04175500  0.97795676  1.0
  Cr  Cr1  1  0.12992794  0.37508833  0.97795676  1.0
  Cr  Cr2  1  0.12992794  0.70842167  0.97795676  1.0
  Cr  Cr3  1  0.46326127  0.04175500  0.97795676  1.0
  Cr  Cr4  1  0.46326127  0.37508833  0.97795676  1.0
  Cr  Cr5  1  0.46326127  0.70842167  0.97795676  1.0
  Cr  Cr6  1  0.79659461  0.04175500  0.97795676  1.0
  Cr  Cr7  1  0.79659461  0.37508833  0.97795676  1.0
  Cr  Cr8  1  0.79659461  0.70842167  0.97795676  1.0
  Cr  Cr9  1  0.24757500  0.04175500  0.94854500  1.0
  Cr  Cr10  1  0.24757500  0.37508833  0.94854500  1.0
  Cr  Cr11  1  0.24757500  0.70842167  0.94854500  1.0
  Cr  Cr12  1  0.58090833  0.04175500  0.94854500  1.0
  Cr  Cr13  1  0.58090833  0.37508833  0.94854500  1.0
  Cr  Cr14  1  0.58090833  0.70842167  0.94854500  1.0
  Cr  Cr15  1  0.91424167  0.04175500  0.94854500  1.0
  Cr  Cr16  1  0.91424167  0.37508833  0.94854500  1.0
  Cr  Cr17  1  0.91424167  0.70842167  0.94854500  1.0
  Cr  Cr18  1  0.03188873  0.04175500  0.91913324  1.0
  Cr  Cr19  1  0.03188873  0.37508833  0.91913324  1.0
  Cr  Cr20  1  0.03188873  0.70842167  0.91913324  1.0
  Cr  Cr21  1  0.36522206  0.04175500  0.91913324  1.0
  Cr  Cr22  1  0.36522206  0.37508833  0.91913324  1.0
  Cr  Cr23  1  0.36522206  0.70842167  0.91913324  1.0
  Cr  Cr24  1  0.69855539  0.04175500  0.91913324  1.0
  Cr  Cr25  1  0.69855539  0.37508833  0.91913324  1.0
  Cr  Cr26  1  0.69855539  0.70842167  0.91913324  1.0
  Cr  Cr27  1  0.14953578  0.04175500  0.88972147  1.0
  Cr  Cr28  1  0.14953578  0.37508833  0.88972147  1.0
  Cr  Cr29  1  0.14953578  0.70842167  0.88972147  1.0
  Cr  Cr30  1  0.48286912  0.04175500  0.88972147  1.0
  Cr  Cr31  1  0.48286912  0.37508833  0.88972147  1.0
  Cr  Cr32  1  0.48286912  0.70842167  0.88972147  1.0
  Cr  Cr33  1  0.81620245  0.04175500  0.88972147  1.0
  Cr  Cr34  1  0.81620245  0.37508833  0.88972147  1.0
  Cr  Cr35  1  0.81620245  0.70842167  0.88972147  1.0
  Cr  Cr36  1  0.26718284  0.04175500  0.86030971  1.0
  Cr  Cr37  1  0.26718284  0.37508833  0.86030971  1.0
  Cr  Cr38  1  0.26718284  0.70842167  0.86030971  1.0
  Cr  Cr39  1  0.60051618  0.04175500  0.86030971  1.0
  Cr  Cr40  1  0.60051618  0.37508833  0.86030971  1.0
  Cr  Cr41  1  0.60051618  0.70842167  0.86030971  1.0
  Cr  Cr42  1  0.93384951  0.04175500  0.86030971  1.0
  Cr  Cr43  1  0.93384951  0.37508833  0.86030971  1.0
  Cr  Cr44  1  0.93384951  0.70842167  0.86030971  1.0
  Cr  Cr45  1  0.05149657  0.04175500  0.83089794  1.0
  Cr  Cr46  1  0.05149657  0.37508833  0.83089794  1.0
  Cr  Cr47  1  0.05149657  0.70842167  0.83089794  1.0
  Cr  Cr48  1  0.38482990  0.04175500  0.83089794  1.0
  Cr  Cr49  1  0.38482990  0.37508833  0.83089794  1.0
  Cr  Cr50  1  0.38482990  0.70842167  0.83089794  1.0
  Cr  Cr51  1  0.71816324  0.04175500  0.83089794  1.0
  Cr  Cr52  1  0.71816324  0.37508833  0.83089794  1.0
  Cr  Cr53  1  0.71816324  0.70842167  0.83089794  1.0
  Cr  Cr54  1  0.16914363  0.04175500  0.80148618  1.0
  Cr  Cr55  1  0.16914363  0.37508833  0.80148618  1.0
  Cr  Cr56  1  0.16914363  0.70842167  0.80148618  1.0
  Cr  Cr57  1  0.50247696  0.04175500  0.80148618  1.0
  Cr  Cr58  1  0.50247696  0.37508833  0.80148618  1.0
  Cr  Cr59  1  0.50247696  0.70842167  0.80148618  1.0
  Cr  Cr60  1  0.83581029  0.04175500  0.80148618  1.0
  Cr  Cr61  1  0.83581029  0.37508833  0.80148618  1.0
  Cr  Cr62  1  0.83581029  0.70842167  0.80148618  1.0
  Cr  Cr63  1  0.28679069  0.04175500  0.77207441  1.0
  Cr  Cr64  1  0.28679069  0.37508833  0.77207441  1.0
  Cr  Cr65  1  0.28679069  0.70842167  0.77207441  1.0
  Cr  Cr66  1  0.62012402  0.04175500  0.77207441  1.0
  Cr  Cr67  1  0.62012402  0.37508833  0.77207441  1.0
  Cr  Cr68  1  0.62012402  0.70842167  0.77207441  1.0
  Cr  Cr69  1  0.95345735  0.04175500  0.77207441  1.0
  Cr  Cr70  1  0.95345735  0.37508833  0.77207441  1.0
  Cr  Cr71  1  0.95345735  0.70842167  0.77207441  1.0
  Cr  Cr72  1  0.07110441  0.04175500  0.74266265  1.0
  Cr  Cr73  1  0.07110441  0.37508833  0.74266265  1.0
  Cr  Cr74  1  0.07110441  0.70842167  0.74266265  1.0
  Cr  Cr75  1  0.40443775  0.04175500  0.74266265  1.0
  Cr  Cr76  1  0.40443775  0.37508833  0.74266265  1.0
  Cr  Cr77  1  0.40443775  0.70842167  0.74266265  1.0
  Cr  Cr78  1  0.73777108  0.04175500  0.74266265  1.0
  Cr  Cr79  1  0.73777108  0.37508833  0.74266265  1.0
  Cr  Cr80  1  0.73777108  0.70842167  0.74266265  1.0
  Cr  Cr81  1  0.18875147  0.04175500  0.71325088  1.0
  Cr  Cr82  1  0.18875147  0.37508833  0.71325088  1.0
  Cr  Cr83  1  0.18875147  0.70842167  0.71325088  1.0
  Cr  Cr84  1  0.52208480  0.04175500  0.71325088  1.0
  Cr  Cr85  1  0.52208480  0.37508833  0.71325088  1.0
  Cr  Cr86  1  0.52208480  0.70842167  0.71325088  1.0
  Cr  Cr87  1  0.85541814  0.04175500  0.71325088  1.0
  Cr  Cr88  1  0.85541814  0.37508833  0.71325088  1.0
  Cr  Cr89  1  0.85541814  0.70842167  0.71325088  1.0
  Cr  Cr90  1  0.30639853  0.04175500  0.68383912  1.0
  Cr  Cr91  1  0.30639853  0.37508833  0.68383912  1.0
  Cr  Cr92  1  0.30639853  0.70842167  0.68383912  1.0
  Cr  Cr93  1  0.63973186  0.04175500  0.68383912  1.0
  Cr  Cr94  1  0.63973186  0.37508833  0.68383912  1.0
  Cr  Cr95  1  0.63973186  0.70842167  0.68383912  1.0
  Cr  Cr96  1  0.97306520  0.04175500  0.68383912  1.0
  Cr  Cr97  1  0.97306520  0.37508833  0.68383912  1.0
  Cr  Cr98  1  0.97306520  0.70842167  0.68383912  1.0
  Cr  Cr99  1  0.09071225  0.04175500  0.65442735  1.0
  Cr  Cr100  1  0.09071225  0.37508833  0.65442735  1.0
  Cr  Cr101  1  0.09071225  0.70842167  0.65442735  1.0
  Cr  Cr102  1  0.42404559  0.04175500  0.65442735  1.0
  Cr  Cr103  1  0.42404559  0.37508833  0.65442735  1.0
  Cr  Cr104  1  0.42404559  0.70842167  0.65442735  1.0
  Cr  Cr105  1  0.75737892  0.04175500  0.65442735  1.0
  Cr  Cr106  1  0.75737892  0.37508833  0.65442735  1.0
  Cr  Cr107  1  0.75737892  0.70842167  0.65442735  1.0
  Cr  Cr108  1  0.20835931  0.04175500  0.62501559  1.0
  Cr  Cr109  1  0.20835931  0.37508833  0.62501559  1.0
  Cr  Cr110  1  0.20835931  0.70842167  0.62501559  1.0
  Cr  Cr111  1  0.54169265  0.04175500  0.62501559  1.0
  Cr  Cr112  1  0.54169265  0.37508833  0.62501559  1.0
  Cr  Cr113  1  0.54169265  0.70842167  0.62501559  1.0
  Cr  Cr114  1  0.87502598  0.04175500  0.62501559  1.0
  Cr  Cr115  1  0.87502598  0.37508833  0.62501559  1.0
  Cr  Cr116  1  0.87502598  0.70842167  0.62501559  1.0
  Cr  Cr117  1  0.32600637  0.04175500  0.59560382  1.0
  Cr  Cr118  1  0.32600637  0.37508833  0.59560382  1.0
  Cr  Cr119  1  0.32600637  0.70842167  0.59560382  1.0
  Cr  Cr120  1  0.65933971  0.04175500  0.59560382  1.0
  Cr  Cr121  1  0.65933971  0.37508833  0.59560382  1.0
  Cr  Cr122  1  0.65933971  0.70842167  0.59560382  1.0
  Cr  Cr123  1  0.99267304  0.04175500  0.59560382  1.0
  Cr  Cr124  1  0.99267304  0.37508833  0.59560382  1.0
  Cr  Cr125  1  0.99267304  0.70842167  0.59560382  1.0
  Ni  Ni126  1  0.23799971  0.29228500  0.99269382  1.0
  Ni  Ni127  1  0.23799971  0.62561833  0.99269382  1.0
  Ni  Ni128  1  0.23799971  0.95895167  0.99269382  1.0
  Ni  Ni129  1  0.57133304  0.29228500  0.99269382  1.0
  Ni  Ni130  1  0.57133304  0.62561833  0.99269382  1.0
  Ni  Ni131  1  0.57133304  0.95895167  0.99269382  1.0
  Ni  Ni132  1  0.90466637  0.29228500  0.99269382  1.0
  Ni  Ni133  1  0.90466637  0.62561833  0.99269382  1.0
  Ni  Ni134  1  0.90466637  0.95895167  0.99269382  1.0
  Ni  Ni135  1  0.02231343  0.29228500  0.96328206  1.0
  Ni  Ni136  1  0.02231343  0.62561833  0.96328206  1.0
  Ni  Ni137  1  0.02231343  0.95895167  0.96328206  1.0
  Ni  Ni138  1  0.35564676  0.29228500  0.96328206  1.0
  Ni  Ni139  1  0.35564676  0.62561833  0.96328206  1.0
  Ni  Ni140  1  0.35564676  0.95895167  0.96328206  1.0
  Ni  Ni141  1  0.68898010  0.29228500  0.96328206  1.0
  Ni  Ni142  1  0.68898010  0.62561833  0.96328206  1.0
  Ni  Ni143  1  0.68898010  0.95895167  0.96328206  1.0
  Ni  Ni144  1  0.24757500  0.20842167  0.94854500  1.0
  Ni  Ni145  1  0.24757500  0.54175500  0.94854500  1.0
  Ni  Ni146  1  0.24757500  0.87508833  0.94854500  1.0
  Ni  Ni147  1  0.58090833  0.20842167  0.94854500  1.0
  Ni  Ni148  1  0.58090833  0.54175500  0.94854500  1.0
  Ni  Ni149  1  0.58090833  0.87508833  0.94854500  1.0
  Ni  Ni150  1  0.91424167  0.20842167  0.94854500  1.0
  Ni  Ni151  1  0.91424167  0.54175500  0.94854500  1.0
  Ni  Ni152  1  0.91424167  0.87508833  0.94854500  1.0
  Ni  Ni153  1  0.12992794  0.20842167  0.97795676  1.0
  Ni  Ni154  1  0.12992794  0.54175500  0.97795676  1.0
  Ni  Ni155  1  0.12992794  0.87508833  0.97795676  1.0
  Ni  Ni156  1  0.46326127  0.20842167  0.97795676  1.0
  Ni  Ni157  1  0.46326127  0.54175500  0.97795676  1.0
  Ni  Ni158  1  0.46326127  0.87508833  0.97795676  1.0
  Ni  Ni159  1  0.79659461  0.20842167  0.97795676  1.0
  Ni  Ni160  1  0.79659461  0.54175500  0.97795676  1.0
  Ni  Ni161  1  0.79659461  0.87508833  0.97795676  1.0
  Ni  Ni162  1  0.02185618  0.12455833  0.96321971  1.0
  Ni  Ni163  1  0.02185618  0.45789167  0.96321971  1.0
  Ni  Ni164  1  0.02185618  0.79122500  0.96321971  1.0
  Ni  Ni165  1  0.35518951  0.12455833  0.96321971  1.0
  Ni  Ni166  1  0.35518951  0.45789167  0.96321971  1.0
  Ni  Ni167  1  0.35518951  0.79122500  0.96321971  1.0
  Ni  Ni168  1  0.68852284  0.12455833  0.96321971  1.0
  Ni  Ni169  1  0.68852284  0.45789167  0.96321971  1.0
  Ni  Ni170  1  0.68852284  0.79122500  0.96321971  1.0
  Ni  Ni171  1  0.23754245  0.12455833  0.99263147  1.0
  Ni  Ni172  1  0.23754245  0.45789167  0.99263147  1.0
  Ni  Ni173  1  0.23754245  0.79122500  0.99263147  1.0
  Ni  Ni174  1  0.57087578  0.12455833  0.99263147  1.0
  Ni  Ni175  1  0.57087578  0.45789167  0.99263147  1.0
  Ni  Ni176  1  0.57087578  0.79122500  0.99263147  1.0
  Ni  Ni177  1  0.90420912  0.12455833  0.99263147  1.0
  Ni  Ni178  1  0.90420912  0.45789167  0.99263147  1.0
  Ni  Ni179  1  0.90420912  0.79122500  0.99263147  1.0
  Ni  Ni180  1  0.13996049  0.29228500  0.93387029  1.0
  Ni  Ni181  1  0.13996049  0.62561833  0.93387029  1.0
  Ni  Ni182  1  0.13996049  0.95895167  0.93387029  1.0
  Ni  Ni183  1  0.47329382  0.29228500  0.93387029  1.0
  Ni  Ni184  1  0.47329382  0.62561833  0.93387029  1.0
  Ni  Ni185  1  0.47329382  0.95895167  0.93387029  1.0
  Ni  Ni186  1  0.80662716  0.29228500  0.93387029  1.0
  Ni  Ni187  1  0.80662716  0.62561833  0.93387029  1.0
  Ni  Ni188  1  0.80662716  0.95895167  0.93387029  1.0
  Ni  Ni189  1  0.25760755  0.29228500  0.90445853  1.0
  Ni  Ni190  1  0.25760755  0.62561833  0.90445853  1.0
  Ni  Ni191  1  0.25760755  0.95895167  0.90445853  1.0
  Ni  Ni192  1  0.59094088  0.29228500  0.90445853  1.0
  Ni  Ni193  1  0.59094088  0.62561833  0.90445853  1.0
  Ni  Ni194  1  0.59094088  0.95895167  0.90445853  1.0
  Ni  Ni195  1  0.92427422  0.29228500  0.90445853  1.0
  Ni  Ni196  1  0.92427422  0.62561833  0.90445853  1.0
  Ni  Ni197  1  0.92427422  0.95895167  0.90445853  1.0
  Ni  Ni198  1  0.14953578  0.20842167  0.88972147  1.0
  Ni  Ni199  1  0.14953578  0.54175500  0.88972147  1.0
  Ni  Ni200  1  0.14953578  0.87508833  0.88972147  1.0
  Ni  Ni201  1  0.48286912  0.20842167  0.88972147  1.0
  Ni  Ni202  1  0.48286912  0.54175500  0.88972147  1.0
  Ni  Ni203  1  0.48286912  0.87508833  0.88972147  1.0
  Ni  Ni204  1  0.81620245  0.20842167  0.88972147  1.0
  Ni  Ni205  1  0.81620245  0.54175500  0.88972147  1.0
  Ni  Ni206  1  0.81620245  0.87508833  0.88972147  1.0
  Ni  Ni207  1  0.03188873  0.20842167  0.91913324  1.0
  Ni  Ni208  1  0.03188873  0.54175500  0.91913324  1.0
  Ni  Ni209  1  0.03188873  0.87508833  0.91913324  1.0
  Ni  Ni210  1  0.36522206  0.20842167  0.91913324  1.0
  Ni  Ni211  1  0.36522206  0.54175500  0.91913324  1.0
  Ni  Ni212  1  0.36522206  0.87508833  0.91913324  1.0
  Ni  Ni213  1  0.69855539  0.20842167  0.91913324  1.0
  Ni  Ni214  1  0.69855539  0.54175500  0.91913324  1.0
  Ni  Ni215  1  0.69855539  0.87508833  0.91913324  1.0
  Ni  Ni216  1  0.25715029  0.12455833  0.90439618  1.0
  Ni  Ni217  1  0.25715029  0.45789167  0.90439618  1.0
  Ni  Ni218  1  0.25715029  0.79122500  0.90439618  1.0
  Ni  Ni219  1  0.59048363  0.12455833  0.90439618  1.0
  Ni  Ni220  1  0.59048363  0.45789167  0.90439618  1.0
  Ni  Ni221  1  0.59048363  0.79122500  0.90439618  1.0
  Ni  Ni222  1  0.92381696  0.12455833  0.90439618  1.0
  Ni  Ni223  1  0.92381696  0.45789167  0.90439618  1.0
  Ni  Ni224  1  0.92381696  0.79122500  0.90439618  1.0
  Ni  Ni225  1  0.13950324  0.12455833  0.93380794  1.0
  Ni  Ni226  1  0.13950324  0.45789167  0.93380794  1.0
  Ni  Ni227  1  0.13950324  0.79122500  0.93380794  1.0
  Ni  Ni228  1  0.47283657  0.12455833  0.93380794  1.0
  Ni  Ni229  1  0.47283657  0.45789167  0.93380794  1.0
  Ni  Ni230  1  0.47283657  0.79122500  0.93380794  1.0
  Ni  Ni231  1  0.80616990  0.12455833  0.93380794  1.0
  Ni  Ni232  1  0.80616990  0.45789167  0.93380794  1.0
  Ni  Ni233  1  0.80616990  0.79122500  0.93380794  1.0
  Ni  Ni234  1  0.04192127  0.29228500  0.87504676  1.0
  Ni  Ni235  1  0.04192127  0.62561833  0.87504676  1.0
  Ni  Ni236  1  0.04192127  0.95895167  0.87504676  1.0
  Ni  Ni237  1  0.37525461  0.29228500  0.87504676  1.0
  Ni  Ni238  1  0.37525461  0.62561833  0.87504676  1.0
  Ni  Ni239  1  0.37525461  0.95895167  0.87504676  1.0
  Ni  Ni240  1  0.70858794  0.29228500  0.87504676  1.0
  Ni  Ni241  1  0.70858794  0.62561833  0.87504676  1.0
  Ni  Ni242  1  0.70858794  0.95895167  0.87504676  1.0
  Ni  Ni243  1  0.15956833  0.29228500  0.84563500  1.0
  Ni  Ni244  1  0.15956833  0.62561833  0.84563500  1.0
  Ni  Ni245  1  0.15956833  0.95895167  0.84563500  1.0
  Ni  Ni246  1  0.49290167  0.29228500  0.84563500  1.0
  Ni  Ni247  1  0.49290167  0.62561833  0.84563500  1.0
  Ni  Ni248  1  0.49290167  0.95895167  0.84563500  1.0
  Ni  Ni249  1  0.82623500  0.29228500  0.84563500  1.0
  Ni  Ni250  1  0.82623500  0.62561833  0.84563500  1.0
  Ni  Ni251  1  0.82623500  0.95895167  0.84563500  1.0
  Ni  Ni252  1  0.05149657  0.20842167  0.83089794  1.0
  Ni  Ni253  1  0.05149657  0.54175500  0.83089794  1.0
  Ni  Ni254  1  0.05149657  0.87508833  0.83089794  1.0
  Ni  Ni255  1  0.38482990  0.20842167  0.83089794  1.0
  Ni  Ni256  1  0.38482990  0.54175500  0.83089794  1.0
  Ni  Ni257  1  0.38482990  0.87508833  0.83089794  1.0
  Ni  Ni258  1  0.71816324  0.20842167  0.83089794  1.0
  Ni  Ni259  1  0.71816324  0.54175500  0.83089794  1.0
  Ni  Ni260  1  0.71816324  0.87508833  0.83089794  1.0
  Ni  Ni261  1  0.26718284  0.20842167  0.86030971  1.0
  Ni  Ni262  1  0.26718284  0.54175500  0.86030971  1.0
  Ni  Ni263  1  0.26718284  0.87508833  0.86030971  1.0
  Ni  Ni264  1  0.60051618  0.20842167  0.86030971  1.0
  Ni  Ni265  1  0.60051618  0.54175500  0.86030971  1.0
  Ni  Ni266  1  0.60051618  0.87508833  0.86030971  1.0
  Ni  Ni267  1  0.93384951  0.20842167  0.86030971  1.0
  Ni  Ni268  1  0.93384951  0.54175500  0.86030971  1.0
  Ni  Ni269  1  0.93384951  0.87508833  0.86030971  1.0
  Ni  Ni270  1  0.15911108  0.12455833  0.84557265  1.0
  Ni  Ni271  1  0.15911108  0.45789167  0.84557265  1.0
  Ni  Ni272  1  0.15911108  0.79122500  0.84557265  1.0
  Ni  Ni273  1  0.49244441  0.12455833  0.84557265  1.0
  Ni  Ni274  1  0.49244441  0.45789167  0.84557265  1.0
  Ni  Ni275  1  0.49244441  0.79122500  0.84557265  1.0
  Ni  Ni276  1  0.82577775  0.12455833  0.84557265  1.0
  Ni  Ni277  1  0.82577775  0.45789167  0.84557265  1.0
  Ni  Ni278  1  0.82577775  0.79122500  0.84557265  1.0
  Ni  Ni279  1  0.04146402  0.12455833  0.87498441  1.0
  Ni  Ni280  1  0.04146402  0.45789167  0.87498441  1.0
  Ni  Ni281  1  0.04146402  0.79122500  0.87498441  1.0
  Ni  Ni282  1  0.37479735  0.12455833  0.87498441  1.0
  Ni  Ni283  1  0.37479735  0.45789167  0.87498441  1.0
  Ni  Ni284  1  0.37479735  0.79122500  0.87498441  1.0
  Ni  Ni285  1  0.70813069  0.12455833  0.87498441  1.0
  Ni  Ni286  1  0.70813069  0.45789167  0.87498441  1.0
  Ni  Ni287  1  0.70813069  0.79122500  0.87498441  1.0
  Ni  Ni288  1  0.27721539  0.29228500  0.81622324  1.0
  Ni  Ni289  1  0.27721539  0.62561833  0.81622324  1.0
  Ni  Ni290  1  0.27721539  0.95895167  0.81622324  1.0
  Ni  Ni291  1  0.61054873  0.29228500  0.81622324  1.0
  Ni  Ni292  1  0.61054873  0.62561833  0.81622324  1.0
  Ni  Ni293  1  0.61054873  0.95895167  0.81622324  1.0
  Ni  Ni294  1  0.94388206  0.29228500  0.81622324  1.0
  Ni  Ni295  1  0.94388206  0.62561833  0.81622324  1.0
  Ni  Ni296  1  0.94388206  0.95895167  0.81622324  1.0
  Ni  Ni297  1  0.06152912  0.29228500  0.78681147  1.0
  Ni  Ni298  1  0.06152912  0.62561833  0.78681147  1.0
  Ni  Ni299  1  0.06152912  0.95895167  0.78681147  1.0
  Ni  Ni300  1  0.39486245  0.29228500  0.78681147  1.0
  Ni  Ni301  1  0.39486245  0.62561833  0.78681147  1.0
  Ni  Ni302  1  0.39486245  0.95895167  0.78681147  1.0
  Ni  Ni303  1  0.72819578  0.29228500  0.78681147  1.0
  Ni  Ni304  1  0.72819578  0.62561833  0.78681147  1.0
  Ni  Ni305  1  0.72819578  0.95895167  0.78681147  1.0
  Ni  Ni306  1  0.28679069  0.20842167  0.77207441  1.0
  Ni  Ni307  1  0.28679069  0.54175500  0.77207441  1.0
  Ni  Ni308  1  0.28679069  0.87508833  0.77207441  1.0
  Ni  Ni309  1  0.62012402  0.20842167  0.77207441  1.0
  Ni  Ni310  1  0.62012402  0.54175500  0.77207441  1.0
  Ni  Ni311  1  0.62012402  0.87508833  0.77207441  1.0
  Ni  Ni312  1  0.95345735  0.20842167  0.77207441  1.0
  Ni  Ni313  1  0.95345735  0.54175500  0.77207441  1.0
  Ni  Ni314  1  0.95345735  0.87508833  0.77207441  1.0
  Ni  Ni315  1  0.16914363  0.20842167  0.80148618  1.0
  Ni  Ni316  1  0.16914363  0.54175500  0.80148618  1.0
  Ni  Ni317  1  0.16914363  0.87508833  0.80148618  1.0
  Ni  Ni318  1  0.50247696  0.20842167  0.80148618  1.0
  Ni  Ni319  1  0.50247696  0.54175500  0.80148618  1.0
  Ni  Ni320  1  0.50247696  0.87508833  0.80148618  1.0
  Ni  Ni321  1  0.83581029  0.20842167  0.80148618  1.0
  Ni  Ni322  1  0.83581029  0.54175500  0.80148618  1.0
  Ni  Ni323  1  0.83581029  0.87508833  0.80148618  1.0
  Ni  Ni324  1  0.06107186  0.12455833  0.78674912  1.0
  Ni  Ni325  1  0.06107186  0.45789167  0.78674912  1.0
  Ni  Ni326  1  0.06107186  0.79122500  0.78674912  1.0
  Ni  Ni327  1  0.39440520  0.12455833  0.78674912  1.0
  Ni  Ni328  1  0.39440520  0.45789167  0.78674912  1.0
  Ni  Ni329  1  0.39440520  0.79122500  0.78674912  1.0
  Ni  Ni330  1  0.72773853  0.12455833  0.78674912  1.0
  Ni  Ni331  1  0.72773853  0.45789167  0.78674912  1.0
  Ni  Ni332  1  0.72773853  0.79122500  0.78674912  1.0
  Ni  Ni333  1  0.27675814  0.12455833  0.81616088  1.0
  Ni  Ni334  1  0.27675814  0.45789167  0.81616088  1.0
  Ni  Ni335  1  0.27675814  0.79122500  0.81616088  1.0
  Ni  Ni336  1  0.61009147  0.12455833  0.81616088  1.0
  Ni  Ni337  1  0.61009147  0.45789167  0.81616088  1.0
  Ni  Ni338  1  0.61009147  0.79122500  0.81616088  1.0
  Ni  Ni339  1  0.94342480  0.12455833  0.81616088  1.0
  Ni  Ni340  1  0.94342480  0.45789167  0.81616088  1.0
  Ni  Ni341  1  0.94342480  0.79122500  0.81616088  1.0
  Ni  Ni342  1  0.17917618  0.29228500  0.75739971  1.0
  Ni  Ni343  1  0.17917618  0.62561833  0.75739971  1.0
  Ni  Ni344  1  0.17917618  0.95895167  0.75739971  1.0
  Ni  Ni345  1  0.51250951  0.29228500  0.75739971  1.0
  Ni  Ni346  1  0.51250951  0.62561833  0.75739971  1.0
  Ni  Ni347  1  0.51250951  0.95895167  0.75739971  1.0
  Ni  Ni348  1  0.84584284  0.29228500  0.75739971  1.0
  Ni  Ni349  1  0.84584284  0.62561833  0.75739971  1.0
  Ni  Ni350  1  0.84584284  0.95895167  0.75739971  1.0
  Ni  Ni351  1  0.29682324  0.29228500  0.72798794  1.0
  Ni  Ni352  1  0.29682324  0.62561833  0.72798794  1.0
  Ni  Ni353  1  0.29682324  0.95895167  0.72798794  1.0
  Ni  Ni354  1  0.63015657  0.29228500  0.72798794  1.0
  Ni  Ni355  1  0.63015657  0.62561833  0.72798794  1.0
  Ni  Ni356  1  0.63015657  0.95895167  0.72798794  1.0
  Ni  Ni357  1  0.96348990  0.29228500  0.72798794  1.0
  Ni  Ni358  1  0.96348990  0.62561833  0.72798794  1.0
  Ni  Ni359  1  0.96348990  0.95895167  0.72798794  1.0
  Ni  Ni360  1  0.18875147  0.20842167  0.71325088  1.0
  Ni  Ni361  1  0.18875147  0.54175500  0.71325088  1.0
  Ni  Ni362  1  0.18875147  0.87508833  0.71325088  1.0
  Ni  Ni363  1  0.52208480  0.20842167  0.71325088  1.0
  Ni  Ni364  1  0.52208480  0.54175500  0.71325088  1.0
  Ni  Ni365  1  0.52208480  0.87508833  0.71325088  1.0
  Ni  Ni366  1  0.85541814  0.20842167  0.71325088  1.0
  Ni  Ni367  1  0.85541814  0.54175500  0.71325088  1.0
  Ni  Ni368  1  0.85541814  0.87508833  0.71325088  1.0
  Ni  Ni369  1  0.07110441  0.20842167  0.74266265  1.0
  Ni  Ni370  1  0.07110441  0.54175500  0.74266265  1.0
  Ni  Ni371  1  0.07110441  0.87508833  0.74266265  1.0
  Ni  Ni372  1  0.40443775  0.20842167  0.74266265  1.0
  Ni  Ni373  1  0.40443775  0.54175500  0.74266265  1.0
  Ni  Ni374  1  0.40443775  0.87508833  0.74266265  1.0
  Ni  Ni375  1  0.73777108  0.20842167  0.74266265  1.0
  Ni  Ni376  1  0.73777108  0.54175500  0.74266265  1.0
  Ni  Ni377  1  0.73777108  0.87508833  0.74266265  1.0
  Ni  Ni378  1  0.29636598  0.12455833  0.72792559  1.0
  Ni  Ni379  1  0.29636598  0.45789167  0.72792559  1.0
  Ni  Ni380  1  0.29636598  0.79122500  0.72792559  1.0
  Ni  Ni381  1  0.62969931  0.12455833  0.72792559  1.0
  Ni  Ni382  1  0.62969931  0.45789167  0.72792559  1.0
  Ni  Ni383  1  0.62969931  0.79122500  0.72792559  1.0
  Ni  Ni384  1  0.96303265  0.12455833  0.72792559  1.0
  Ni  Ni385  1  0.96303265  0.45789167  0.72792559  1.0
  Ni  Ni386  1  0.96303265  0.79122500  0.72792559  1.0
  Ni  Ni387  1  0.17871892  0.12455833  0.75733735  1.0
  Ni  Ni388  1  0.17871892  0.45789167  0.75733735  1.0
  Ni  Ni389  1  0.17871892  0.79122500  0.75733735  1.0
  Ni  Ni390  1  0.51205225  0.12455833  0.75733735  1.0
  Ni  Ni391  1  0.51205225  0.45789167  0.75733735  1.0
  Ni  Ni392  1  0.51205225  0.79122500  0.75733735  1.0
  Ni  Ni393  1  0.84538559  0.12455833  0.75733735  1.0
  Ni  Ni394  1  0.84538559  0.45789167  0.75733735  1.0
  Ni  Ni395  1  0.84538559  0.79122500  0.75733735  1.0
  Ni  Ni396  1  0.08113696  0.29228500  0.69857618  1.0
  Ni  Ni397  1  0.08113696  0.62561833  0.69857618  1.0
  Ni  Ni398  1  0.08113696  0.95895167  0.69857618  1.0
  Ni  Ni399  1  0.41447029  0.29228500  0.69857618  1.0
  Ni  Ni400  1  0.41447029  0.62561833  0.69857618  1.0
  Ni  Ni401  1  0.41447029  0.95895167  0.69857618  1.0
  Ni  Ni402  1  0.74780363  0.29228500  0.69857618  1.0
  Ni  Ni403  1  0.74780363  0.62561833  0.69857618  1.0
  Ni  Ni404  1  0.74780363  0.95895167  0.69857618  1.0
  Ni  Ni405  1  0.19878402  0.29228500  0.66916441  1.0
  Ni  Ni406  1  0.19878402  0.62561833  0.66916441  1.0
  Ni  Ni407  1  0.19878402  0.95895167  0.66916441  1.0
  Ni  Ni408  1  0.53211735  0.29228500  0.66916441  1.0
  Ni  Ni409  1  0.53211735  0.62561833  0.66916441  1.0
  Ni  Ni410  1  0.53211735  0.95895167  0.66916441  1.0
  Ni  Ni411  1  0.86545069  0.29228500  0.66916441  1.0
  Ni  Ni412  1  0.86545069  0.62561833  0.66916441  1.0
  Ni  Ni413  1  0.86545069  0.95895167  0.66916441  1.0
  Ni  Ni414  1  0.09071225  0.20842167  0.65442735  1.0
  Ni  Ni415  1  0.09071225  0.54175500  0.65442735  1.0
  Ni  Ni416  1  0.09071225  0.87508833  0.65442735  1.0
  Ni  Ni417  1  0.42404559  0.20842167  0.65442735  1.0
  Ni  Ni418  1  0.42404559  0.54175500  0.65442735  1.0
  Ni  Ni419  1  0.42404559  0.87508833  0.65442735  1.0
  Ni  Ni420  1  0.75737892  0.20842167  0.65442735  1.0
  Ni  Ni421  1  0.75737892  0.54175500  0.65442735  1.0
  Ni  Ni422  1  0.75737892  0.87508833  0.65442735  1.0
  Ni  Ni423  1  0.30639853  0.20842167  0.68383912  1.0
  Ni  Ni424  1  0.30639853  0.54175500  0.68383912  1.0
  Ni  Ni425  1  0.30639853  0.87508833  0.68383912  1.0
  Ni  Ni426  1  0.63973186  0.20842167  0.68383912  1.0
  Ni  Ni427  1  0.63973186  0.54175500  0.68383912  1.0
  Ni  Ni428  1  0.63973186  0.87508833  0.68383912  1.0
  Ni  Ni429  1  0.97306520  0.20842167  0.68383912  1.0
  Ni  Ni430  1  0.97306520  0.54175500  0.68383912  1.0
  Ni  Ni431  1  0.97306520  0.87508833  0.68383912  1.0
  Ni  Ni432  1  0.19832676  0.12455833  0.66910206  1.0
  Ni  Ni433  1  0.19832676  0.45789167  0.66910206  1.0
  Ni  Ni434  1  0.19832676  0.79122500  0.66910206  1.0
  Ni  Ni435  1  0.53166010  0.12455833  0.66910206  1.0
  Ni  Ni436  1  0.53166010  0.45789167  0.66910206  1.0
  Ni  Ni437  1  0.53166010  0.79122500  0.66910206  1.0
  Ni  Ni438  1  0.86499343  0.12455833  0.66910206  1.0
  Ni  Ni439  1  0.86499343  0.45789167  0.66910206  1.0
  Ni  Ni440  1  0.86499343  0.79122500  0.66910206  1.0
  Ni  Ni441  1  0.08067971  0.12455833  0.69851382  1.0
  Ni  Ni442  1  0.08067971  0.45789167  0.69851382  1.0
  Ni  Ni443  1  0.08067971  0.79122500  0.69851382  1.0
  Ni  Ni444  1  0.41401304  0.12455833  0.69851382  1.0
  Ni  Ni445  1  0.41401304  0.45789167  0.69851382  1.0
  Ni  Ni446  1  0.41401304  0.79122500  0.69851382  1.0
  Ni  Ni447  1  0.74734637  0.12455833  0.69851382  1.0
  Ni  Ni448  1  0.74734637  0.45789167  0.69851382  1.0
  Ni  Ni449  1  0.74734637  0.79122500  0.69851382  1.0
  Ni  Ni450  1  0.31643108  0.29228500  0.63975265  1.0
  Ni  Ni451  1  0.31643108  0.62561833  0.63975265  1.0
  Ni  Ni452  1  0.31643108  0.95895167  0.63975265  1.0
  Ni  Ni453  1  0.64976441  0.29228500  0.63975265  1.0
  Ni  Ni454  1  0.64976441  0.62561833  0.63975265  1.0
  Ni  Ni455  1  0.64976441  0.95895167  0.63975265  1.0
  Ni  Ni456  1  0.98309775  0.29228500  0.63975265  1.0
  Ni  Ni457  1  0.98309775  0.62561833  0.63975265  1.0
  Ni  Ni458  1  0.98309775  0.95895167  0.63975265  1.0
  Ni  Ni459  1  0.10074480  0.29228500  0.61034088  1.0
  Ni  Ni460  1  0.10074480  0.62561833  0.61034088  1.0
  Ni  Ni461  1  0.10074480  0.95895167  0.61034088  1.0
  Ni  Ni462  1  0.43407814  0.29228500  0.61034088  1.0
  Ni  Ni463  1  0.43407814  0.62561833  0.61034088  1.0
  Ni  Ni464  1  0.43407814  0.95895167  0.61034088  1.0
  Ni  Ni465  1  0.76741147  0.29228500  0.61034088  1.0
  Ni  Ni466  1  0.76741147  0.62561833  0.61034088  1.0
  Ni  Ni467  1  0.76741147  0.95895167  0.61034088  1.0
  Ni  Ni468  1  0.32600637  0.20842167  0.59560382  1.0
  Ni  Ni469  1  0.32600637  0.54175500  0.59560382  1.0
  Ni  Ni470  1  0.32600637  0.87508833  0.59560382  1.0
  Ni  Ni471  1  0.65933971  0.20842167  0.59560382  1.0
  Ni  Ni472  1  0.65933971  0.54175500  0.59560382  1.0
  Ni  Ni473  1  0.65933971  0.87508833  0.59560382  1.0
  Ni  Ni474  1  0.99267304  0.20842167  0.59560382  1.0
  Ni  Ni475  1  0.99267304  0.54175500  0.59560382  1.0
  Ni  Ni476  1  0.99267304  0.87508833  0.59560382  1.0
  Ni  Ni477  1  0.20835931  0.20842167  0.62501559  1.0
  Ni  Ni478  1  0.20835931  0.54175500  0.62501559  1.0
  Ni  Ni479  1  0.20835931  0.87508833  0.62501559  1.0
  Ni  Ni480  1  0.54169265  0.20842167  0.62501559  1.0
  Ni  Ni481  1  0.54169265  0.54175500  0.62501559  1.0
  Ni  Ni482  1  0.54169265  0.87508833  0.62501559  1.0
  Ni  Ni483  1  0.87502598  0.20842167  0.62501559  1.0
  Ni  Ni484  1  0.87502598  0.54175500  0.62501559  1.0
  Ni  Ni485  1  0.87502598  0.87508833  0.62501559  1.0
  Ni  Ni486  1  0.10028755  0.12455833  0.61027853  1.0
  Ni  Ni487  1  0.10028755  0.45789167  0.61027853  1.0
  Ni  Ni488  1  0.10028755  0.79122500  0.61027853  1.0
  Ni  Ni489  1  0.43362088  0.12455833  0.61027853  1.0
  Ni  Ni490  1  0.43362088  0.45789167  0.61027853  1.0
  Ni  Ni491  1  0.43362088  0.79122500  0.61027853  1.0
  Ni  Ni492  1  0.76695422  0.12455833  0.61027853  1.0
  Ni  Ni493  1  0.76695422  0.45789167  0.61027853  1.0
  Ni  Ni494  1  0.76695422  0.79122500  0.61027853  1.0
  Ni  Ni495  1  0.31597382  0.12455833  0.63969029  1.0
  Ni  Ni496  1  0.31597382  0.45789167  0.63969029  1.0
  Ni  Ni497  1  0.31597382  0.79122500  0.63969029  1.0
  Ni  Ni498  1  0.64930716  0.12455833  0.63969029  1.0
  Ni  Ni499  1  0.64930716  0.45789167  0.63969029  1.0
  Ni  Ni500  1  0.64930716  0.79122500  0.63969029  1.0
  Ni  Ni501  1  0.98264049  0.12455833  0.63969029  1.0
  Ni  Ni502  1  0.98264049  0.45789167  0.63969029  1.0
  Ni  Ni503  1  0.98264049  0.79122500  0.63969029  1.0
