# generated using pymatgen
data_CrNi2
_symmetry_space_group_name_H-M   'P 1'
_cell_length_a   12.88777476
_cell_length_b   10.66063799
_cell_length_c   51.55109904
_cell_angle_alpha   65.56913294
_cell_angle_beta   146.52349699
_cell_angle_gamma   114.43086706
_symmetry_Int_Tables_number   1
_chemical_formula_structural   CrNi2
_chemical_formula_sum   'Cr45 Ni90'
_cell_volume   3523.62304075
_cell_formula_units_Z   45
loop_
 _symmetry_equiv_pos_site_id
 _symmetry_equiv_pos_as_xyz
  1  'x, y, z'
loop_
 _atom_site_type_symbol
 _atom_site_label
 _atom_site_symmetry_multiplicity
 _atom_site_fract_x
 _atom_site_fract_y
 _atom_site_fract_z
 _atom_site_occupancy
  Cr  Cr0  1  0.00000000  0.00000000  0.06940754  1.0
  Cr  Cr1  1  0.00000000  0.33333333  0.06940754  1.0
  Cr  Cr2  1  0.00000000  0.66666667  0.06940754  1.0
  Cr  Cr3  1  0.33333333  0.00000000  0.06940754  1.0
  Cr  Cr4  1  0.33333333  0.33333333  0.06940754  1.0
  Cr  Cr5  1  0.33333333  0.66666667  0.06940754  1.0
  Cr  Cr6  1  0.66666667  0.00000000  0.06940754  1.0
  Cr  Cr7  1  0.66666667  0.33333333  0.06940754  1.0
  Cr  Cr8  1  0.66666667  0.66666667  0.06940754  1.0
  Ni  Ni9  1  0.11140633  0.11140633  0.04155596  1.0
  Ni  Ni10  1  0.11140633  0.44473967  0.04155596  1.0
  Ni  Ni11  1  0.11140633  0.77807300  0.04155596  1.0
  Ni  Ni12  1  0.44473967  0.11140633  0.04155596  1.0
  Ni  Ni13  1  0.44473967  0.44473967  0.04155596  1.0
  Ni  Ni14  1  0.44473967  0.77807300  0.04155596  1.0
  Ni  Ni15  1  0.77807300  0.11140633  0.04155596  1.0
  Ni  Ni16  1  0.77807300  0.44473967  0.04155596  1.0
  Ni  Ni17  1  0.77807300  0.77807300  0.04155596  1.0
  Ni  Ni18  1  0.22192700  0.22192700  0.01392579  1.0
  Ni  Ni19  1  0.22192700  0.55526033  0.01392579  1.0
  Ni  Ni20  1  0.22192700  0.88859367  0.01392579  1.0
  Ni  Ni21  1  0.55526033  0.22192700  0.01392579  1.0
  Ni  Ni22  1  0.55526033  0.55526033  0.01392579  1.0
  Ni  Ni23  1  0.55526033  0.88859367  0.01392579  1.0
  Ni  Ni24  1  0.88859367  0.22192700  0.01392579  1.0
  Ni  Ni25  1  0.88859367  0.55526033  0.01392579  1.0
  Ni  Ni26  1  0.88859367  0.88859367  0.01392579  1.0
  Cr  Cr27  1  0.00000000  0.00000000  0.15274087  1.0
  Cr  Cr28  1  0.00000000  0.33333333  0.15274087  1.0
  Cr  Cr29  1  0.00000000  0.66666667  0.15274087  1.0
  Cr  Cr30  1  0.33333333  0.00000000  0.15274087  1.0
  Cr  Cr31  1  0.33333333  0.33333333  0.15274087  1.0
  Cr  Cr32  1  0.33333333  0.66666667  0.15274087  1.0
  Cr  Cr33  1  0.66666667  0.00000000  0.15274088  1.0
  Cr  Cr34  1  0.66666667  0.33333333  0.15274087  1.0
  Cr  Cr35  1  0.66666667  0.66666667  0.15274088  1.0
  Ni  Ni36  1  0.11140633  0.11140633  0.12488929  1.0
  Ni  Ni37  1  0.11140633  0.44473967  0.12488929  1.0
  Ni  Ni38  1  0.11140633  0.77807300  0.12488929  1.0
  Ni  Ni39  1  0.44473967  0.11140633  0.12488929  1.0
  Ni  Ni40  1  0.44473967  0.44473967  0.12488929  1.0
  Ni  Ni41  1  0.44473967  0.77807300  0.12488929  1.0
  Ni  Ni42  1  0.77807300  0.11140633  0.12488929  1.0
  Ni  Ni43  1  0.77807300  0.44473967  0.12488929  1.0
  Ni  Ni44  1  0.77807300  0.77807300  0.12488929  1.0
  Ni  Ni45  1  0.22192700  0.22192700  0.09725913  1.0
  Ni  Ni46  1  0.22192700  0.55526033  0.09725913  1.0
  Ni  Ni47  1  0.22192700  0.88859367  0.09725913  1.0
  Ni  Ni48  1  0.55526033  0.22192700  0.09725913  1.0
  Ni  Ni49  1  0.55526033  0.55526033  0.09725913  1.0
  Ni  Ni50  1  0.55526033  0.88859367  0.09725913  1.0
  Ni  Ni51  1  0.88859367  0.22192700  0.09725913  1.0
  Ni  Ni52  1  0.88859367  0.55526033  0.09725912  1.0
  Ni  Ni53  1  0.88859367  0.88859367  0.09725913  1.0
  Cr  Cr54  1  0.00000000  0.00000000  0.23607421  1.0
  Cr  Cr55  1  0.00000000  0.33333333  0.23607421  1.0
  Cr  Cr56  1  0.00000000  0.66666667  0.23607421  1.0
  Cr  Cr57  1  0.33333333  0.00000000  0.23607421  1.0
  Cr  Cr58  1  0.33333333  0.33333333  0.23607421  1.0
  Cr  Cr59  1  0.33333333  0.66666667  0.23607421  1.0
  Cr  Cr60  1  0.66666667  0.00000000  0.23607421  1.0
  Cr  Cr61  1  0.66666667  0.33333333  0.23607421  1.0
  Cr  Cr62  1  0.66666667  0.66666667  0.23607421  1.0
  Ni  Ni63  1  0.11140633  0.11140633  0.20822262  1.0
  Ni  Ni64  1  0.11140633  0.44473967  0.20822262  1.0
  Ni  Ni65  1  0.11140633  0.77807300  0.20822262  1.0
  Ni  Ni66  1  0.44473967  0.11140633  0.20822262  1.0
  Ni  Ni67  1  0.44473967  0.44473967  0.20822262  1.0
  Ni  Ni68  1  0.44473967  0.77807300  0.20822262  1.0
  Ni  Ni69  1  0.77807300  0.11140633  0.20822262  1.0
  Ni  Ni70  1  0.77807300  0.44473967  0.20822262  1.0
  Ni  Ni71  1  0.77807300  0.77807300  0.20822262  1.0
  Ni  Ni72  1  0.22192700  0.22192700  0.18059246  1.0
  Ni  Ni73  1  0.22192700  0.55526033  0.18059246  1.0
  Ni  Ni74  1  0.22192700  0.88859367  0.18059246  1.0
  Ni  Ni75  1  0.55526033  0.22192700  0.18059246  1.0
  Ni  Ni76  1  0.55526033  0.55526033  0.18059246  1.0
  Ni  Ni77  1  0.55526033  0.88859367  0.18059246  1.0
  Ni  Ni78  1  0.88859367  0.22192700  0.18059246  1.0
  Ni  Ni79  1  0.88859367  0.55526033  0.18059246  1.0
  Ni  Ni80  1  0.88859367  0.88859367  0.18059246  1.0
  Cr  Cr81  1  0.00000000  0.00000000  0.31940754  1.0
  Cr  Cr82  1  0.00000000  0.33333333  0.31940754  1.0
  Cr  Cr83  1  0.00000000  0.66666667  0.31940754  1.0
  Cr  Cr84  1  0.33333333  0.00000000  0.31940754  1.0
  Cr  Cr85  1  0.33333333  0.33333333  0.31940754  1.0
  Cr  Cr86  1  0.33333333  0.66666667  0.31940754  1.0
  Cr  Cr87  1  0.66666667  0.00000000  0.31940754  1.0
  Cr  Cr88  1  0.66666667  0.33333333  0.31940754  1.0
  Cr  Cr89  1  0.66666667  0.66666667  0.31940754  1.0
  Ni  Ni90  1  0.11140633  0.11140633  0.29155596  1.0
  Ni  Ni91  1  0.11140633  0.44473967  0.29155596  1.0
  Ni  Ni92  1  0.11140633  0.77807300  0.29155596  1.0
  Ni  Ni93  1  0.44473967  0.11140633  0.29155596  1.0
  Ni  Ni94  1  0.44473967  0.44473967  0.29155596  1.0
  Ni  Ni95  1  0.44473967  0.77807300  0.29155596  1.0
  Ni  Ni96  1  0.77807300  0.11140633  0.29155596  1.0
  Ni  Ni97  1  0.77807300  0.44473967  0.29155596  1.0
  Ni  Ni98  1  0.77807300  0.77807300  0.29155596  1.0
  Ni  Ni99  1  0.22192700  0.22192700  0.26392579  1.0
  Ni  Ni100  1  0.22192700  0.55526033  0.26392579  1.0
  Ni  Ni101  1  0.22192700  0.88859367  0.26392579  1.0
  Ni  Ni102  1  0.55526033  0.22192700  0.26392579  1.0
  Ni  Ni103  1  0.55526033  0.55526033  0.26392579  1.0
  Ni  Ni104  1  0.55526033  0.88859367  0.26392579  1.0
  Ni  Ni105  1  0.88859367  0.22192700  0.26392579  1.0
  Ni  Ni106  1  0.88859367  0.55526033  0.26392579  1.0
  Ni  Ni107  1  0.88859367  0.88859367  0.26392579  1.0
  Cr  Cr108  1  0.00000000  0.00000000  0.40274088  1.0
  Cr  Cr109  1  0.00000000  0.33333333  0.40274088  1.0
  Cr  Cr110  1  0.00000000  0.66666667  0.40274088  1.0
  Cr  Cr111  1  0.33333333  0.00000000  0.40274087  1.0
  Cr  Cr112  1  0.33333333  0.33333333  0.40274088  1.0
  Cr  Cr113  1  0.33333333  0.66666667  0.40274088  1.0
  Cr  Cr114  1  0.66666667  0.00000000  0.40274088  1.0
  Cr  Cr115  1  0.66666667  0.33333333  0.40274088  1.0
  Cr  Cr116  1  0.66666667  0.66666667  0.40274088  1.0
  Ni  Ni117  1  0.11140633  0.11140633  0.37488929  1.0
  Ni  Ni118  1  0.11140633  0.44473967  0.37488929  1.0
  Ni  Ni119  1  0.11140633  0.77807300  0.37488929  1.0
  Ni  Ni120  1  0.44473967  0.11140633  0.37488929  1.0
  Ni  Ni121  1  0.44473967  0.44473967  0.37488929  1.0
  Ni  Ni122  1  0.44473967  0.77807300  0.37488929  1.0
  Ni  Ni123  1  0.77807300  0.11140633  0.37488929  1.0
  Ni  Ni124  1  0.77807300  0.44473967  0.37488929  1.0
  Ni  Ni125  1  0.77807300  0.77807300  0.37488929  1.0
  Ni  Ni126  1  0.22192700  0.22192700  0.34725912  1.0
  Ni  Ni127  1  0.22192700  0.55526033  0.34725912  1.0
  Ni  Ni128  1  0.22192700  0.88859367  0.34725913  1.0
  Ni  Ni129  1  0.55526033  0.22192700  0.34725913  1.0
  Ni  Ni130  1  0.55526033  0.55526033  0.34725913  1.0
  Ni  Ni131  1  0.55526033  0.88859367  0.34725913  1.0
  Ni  Ni132  1  0.88859367  0.22192700  0.34725913  1.0
  Ni  Ni133  1  0.88859367  0.55526033  0.34725913  1.0
  Ni  Ni134  1  0.88859367  0.88859367  0.34725913  1.0
