# generated using pymatgen
data_CrNi3
_symmetry_space_group_name_H-M   'P 1'
_cell_length_a   27.09886523
_cell_length_b   49.30148441
_cell_length_c   182.85394138
_cell_angle_alpha   8.65408588
_cell_angle_beta   146.80426365
_cell_angle_gamma   150.17108211
_symmetry_Int_Tables_number   1
_chemical_formula_structural   CrNi3
_chemical_formula_sum   'Cr162 Ni486'
_cell_volume   17561.70048761
_cell_formula_units_Z   162
loop_
 _symmetry_equiv_pos_site_id
 _symmetry_equiv_pos_as_xyz
  1  'x, y, z'
loop_
 _atom_site_type_symbol
 _atom_site_label
 _atom_site_symmetry_multiplicity
 _atom_site_fract_x
 _atom_site_fract_y
 _atom_site_fract_z
 _atom_site_occupancy
  Cr  Cr0  1  0.16666667  0.00000000  0.01988034  1.0
  Cr  Cr1  1  0.16666667  0.33333333  0.01988034  1.0
  Cr  Cr2  1  0.16666667  0.66666667  0.01988034  1.0
  Cr  Cr3  1  0.50000000  0.00000000  0.01988034  1.0
  Cr  Cr4  1  0.50000000  0.33333333  0.01988034  1.0
  Cr  Cr5  1  0.50000000  0.66666667  0.01988034  1.0
  Cr  Cr6  1  0.83333333  0.00000000  0.01988034  1.0
  Cr  Cr7  1  0.83333333  0.33333333  0.01988034  1.0
  Cr  Cr8  1  0.83333333  0.66666667  0.01988034  1.0
  Cr  Cr9  1  0.00000000  0.00000000  0.04260761  1.0
  Cr  Cr10  1  0.00000000  0.33333333  0.04260761  1.0
  Cr  Cr11  1  0.00000000  0.66666667  0.04260761  1.0
  Cr  Cr12  1  0.33333333  0.00000000  0.04260761  1.0
  Cr  Cr13  1  0.33333333  0.33333333  0.04260761  1.0
  Cr  Cr14  1  0.33333333  0.66666667  0.04260761  1.0
  Cr  Cr15  1  0.66666667  0.00000000  0.04260761  1.0
  Cr  Cr16  1  0.66666667  0.33333333  0.04260761  1.0
  Cr  Cr17  1  0.66666667  0.66666667  0.04260761  1.0
  Ni  Ni18  1  0.20842167  0.24982333  0.01418648  1.0
  Ni  Ni19  1  0.20842167  0.58315667  0.01418648  1.0
  Ni  Ni20  1  0.20842167  0.91649000  0.01418648  1.0
  Ni  Ni21  1  0.54175500  0.24982333  0.01418648  1.0
  Ni  Ni22  1  0.54175500  0.58315667  0.01418648  1.0
  Ni  Ni23  1  0.54175500  0.91649000  0.01418648  1.0
  Ni  Ni24  1  0.87508833  0.24982333  0.01418648  1.0
  Ni  Ni25  1  0.87508833  0.58315667  0.01418648  1.0
  Ni  Ni26  1  0.87508833  0.91649000  0.01418648  1.0
  Ni  Ni27  1  0.04175500  0.24982333  0.03691375  1.0
  Ni  Ni28  1  0.04175500  0.58315667  0.03691375  1.0
  Ni  Ni29  1  0.04175500  0.91649000  0.03691375  1.0
  Ni  Ni30  1  0.37508833  0.24982333  0.03691375  1.0
  Ni  Ni31  1  0.37508833  0.58315667  0.03691375  1.0
  Ni  Ni32  1  0.37508833  0.91649000  0.03691375  1.0
  Ni  Ni33  1  0.70842167  0.24982333  0.03691375  1.0
  Ni  Ni34  1  0.70842167  0.58315667  0.03691375  1.0
  Ni  Ni35  1  0.70842167  0.91649000  0.03691375  1.0
  Ni  Ni36  1  0.25000000  0.16666667  0.00851670  1.0
  Ni  Ni37  1  0.25000000  0.50000000  0.00851670  1.0
  Ni  Ni38  1  0.25000000  0.83333333  0.00851670  1.0
  Ni  Ni39  1  0.58333333  0.16666667  0.00851670  1.0
  Ni  Ni40  1  0.58333333  0.50000000  0.00851670  1.0
  Ni  Ni41  1  0.58333333  0.83333333  0.00851670  1.0
  Ni  Ni42  1  0.91666667  0.16666667  0.00851670  1.0
  Ni  Ni43  1  0.91666667  0.50000000  0.00851670  1.0
  Ni  Ni44  1  0.91666667  0.83333333  0.00851670  1.0
  Ni  Ni45  1  0.08333333  0.16666667  0.03124398  1.0
  Ni  Ni46  1  0.08333333  0.50000000  0.03124398  1.0
  Ni  Ni47  1  0.08333333  0.83333333  0.03124398  1.0
  Ni  Ni48  1  0.41666667  0.16666667  0.03124398  1.0
  Ni  Ni49  1  0.41666667  0.50000000  0.03124398  1.0
  Ni  Ni50  1  0.41666667  0.83333333  0.03124398  1.0
  Ni  Ni51  1  0.75000000  0.16666667  0.03124398  1.0
  Ni  Ni52  1  0.75000000  0.50000000  0.03124398  1.0
  Ni  Ni53  1  0.75000000  0.83333333  0.03124398  1.0
  Ni  Ni54  1  0.29157833  0.08351000  0.00284693  1.0
  Ni  Ni55  1  0.29157833  0.41684333  0.00284693  1.0
  Ni  Ni56  1  0.29157833  0.75017667  0.00284693  1.0
  Ni  Ni57  1  0.62491167  0.08351000  0.00284693  1.0
  Ni  Ni58  1  0.62491167  0.41684333  0.00284693  1.0
  Ni  Ni59  1  0.62491167  0.75017667  0.00284693  1.0
  Ni  Ni60  1  0.95824500  0.08351000  0.00284693  1.0
  Ni  Ni61  1  0.95824500  0.41684333  0.00284693  1.0
  Ni  Ni62  1  0.95824500  0.75017667  0.00284693  1.0
  Ni  Ni63  1  0.12491167  0.08351000  0.02557420  1.0
  Ni  Ni64  1  0.12491167  0.41684333  0.02557420  1.0
  Ni  Ni65  1  0.12491167  0.75017667  0.02557420  1.0
  Ni  Ni66  1  0.45824500  0.08351000  0.02557420  1.0
  Ni  Ni67  1  0.45824500  0.41684333  0.02557420  1.0
  Ni  Ni68  1  0.45824500  0.75017667  0.02557420  1.0
  Ni  Ni69  1  0.79157833  0.08351000  0.02557420  1.0
  Ni  Ni70  1  0.79157833  0.41684333  0.02557420  1.0
  Ni  Ni71  1  0.79157833  0.75017667  0.02557420  1.0
  Cr  Cr72  1  0.16666667  0.00000000  0.06533489  1.0
  Cr  Cr73  1  0.16666667  0.33333333  0.06533489  1.0
  Cr  Cr74  1  0.16666667  0.66666667  0.06533489  1.0
  Cr  Cr75  1  0.50000000  0.00000000  0.06533489  1.0
  Cr  Cr76  1  0.50000000  0.33333333  0.06533489  1.0
  Cr  Cr77  1  0.50000000  0.66666667  0.06533489  1.0
  Cr  Cr78  1  0.83333333  0.00000000  0.06533489  1.0
  Cr  Cr79  1  0.83333333  0.33333333  0.06533489  1.0
  Cr  Cr80  1  0.83333333  0.66666667  0.06533489  1.0
  Cr  Cr81  1  0.00000000  0.00000000  0.08806216  1.0
  Cr  Cr82  1  0.00000000  0.33333333  0.08806216  1.0
  Cr  Cr83  1  0.00000000  0.66666667  0.08806216  1.0
  Cr  Cr84  1  0.33333333  0.00000000  0.08806216  1.0
  Cr  Cr85  1  0.33333333  0.33333333  0.08806216  1.0
  Cr  Cr86  1  0.33333333  0.66666667  0.08806216  1.0
  Cr  Cr87  1  0.66666667  0.00000000  0.08806216  1.0
  Cr  Cr88  1  0.66666667  0.33333333  0.08806216  1.0
  Cr  Cr89  1  0.66666667  0.66666667  0.08806216  1.0
  Ni  Ni90  1  0.20842167  0.24982333  0.05964102  1.0
  Ni  Ni91  1  0.20842167  0.58315667  0.05964102  1.0
  Ni  Ni92  1  0.20842167  0.91649000  0.05964102  1.0
  Ni  Ni93  1  0.54175500  0.24982333  0.05964102  1.0
  Ni  Ni94  1  0.54175500  0.58315667  0.05964102  1.0
  Ni  Ni95  1  0.54175500  0.91649000  0.05964102  1.0
  Ni  Ni96  1  0.87508833  0.24982333  0.05964102  1.0
  Ni  Ni97  1  0.87508833  0.58315667  0.05964102  1.0
  Ni  Ni98  1  0.87508833  0.91649000  0.05964102  1.0
  Ni  Ni99  1  0.04175500  0.24982333  0.08236830  1.0
  Ni  Ni100  1  0.04175500  0.58315667  0.08236830  1.0
  Ni  Ni101  1  0.04175500  0.91649000  0.08236830  1.0
  Ni  Ni102  1  0.37508833  0.24982333  0.08236830  1.0
  Ni  Ni103  1  0.37508833  0.58315667  0.08236830  1.0
  Ni  Ni104  1  0.37508833  0.91649000  0.08236830  1.0
  Ni  Ni105  1  0.70842167  0.24982333  0.08236830  1.0
  Ni  Ni106  1  0.70842167  0.58315667  0.08236830  1.0
  Ni  Ni107  1  0.70842167  0.91649000  0.08236830  1.0
  Ni  Ni108  1  0.25000000  0.16666667  0.05397125  1.0
  Ni  Ni109  1  0.25000000  0.50000000  0.05397125  1.0
  Ni  Ni110  1  0.25000000  0.83333333  0.05397125  1.0
  Ni  Ni111  1  0.58333333  0.16666667  0.05397125  1.0
  Ni  Ni112  1  0.58333333  0.50000000  0.05397125  1.0
  Ni  Ni113  1  0.58333333  0.83333333  0.05397125  1.0
  Ni  Ni114  1  0.91666667  0.16666667  0.05397125  1.0
  Ni  Ni115  1  0.91666667  0.50000000  0.05397125  1.0
  Ni  Ni116  1  0.91666667  0.83333333  0.05397125  1.0
  Ni  Ni117  1  0.08333333  0.16666667  0.07669852  1.0
  Ni  Ni118  1  0.08333333  0.50000000  0.07669852  1.0
  Ni  Ni119  1  0.08333333  0.83333333  0.07669852  1.0
  Ni  Ni120  1  0.41666667  0.16666667  0.07669852  1.0
  Ni  Ni121  1  0.41666667  0.50000000  0.07669852  1.0
  Ni  Ni122  1  0.41666667  0.83333333  0.07669852  1.0
  Ni  Ni123  1  0.75000000  0.16666667  0.07669852  1.0
  Ni  Ni124  1  0.75000000  0.50000000  0.07669852  1.0
  Ni  Ni125  1  0.75000000  0.83333333  0.07669852  1.0
  Ni  Ni126  1  0.29157833  0.08351000  0.04830148  1.0
  Ni  Ni127  1  0.29157833  0.41684333  0.04830148  1.0
  Ni  Ni128  1  0.29157833  0.75017667  0.04830148  1.0
  Ni  Ni129  1  0.62491167  0.08351000  0.04830148  1.0
  Ni  Ni130  1  0.62491167  0.41684333  0.04830148  1.0
  Ni  Ni131  1  0.62491167  0.75017667  0.04830148  1.0
  Ni  Ni132  1  0.95824500  0.08351000  0.04830148  1.0
  Ni  Ni133  1  0.95824500  0.41684333  0.04830148  1.0
  Ni  Ni134  1  0.95824500  0.75017667  0.04830148  1.0
  Ni  Ni135  1  0.12491167  0.08351000  0.07102875  1.0
  Ni  Ni136  1  0.12491167  0.41684333  0.07102875  1.0
  Ni  Ni137  1  0.12491167  0.75017667  0.07102875  1.0
  Ni  Ni138  1  0.45824500  0.08351000  0.07102875  1.0
  Ni  Ni139  1  0.45824500  0.41684333  0.07102875  1.0
  Ni  Ni140  1  0.45824500  0.75017667  0.07102875  1.0
  Ni  Ni141  1  0.79157833  0.08351000  0.07102875  1.0
  Ni  Ni142  1  0.79157833  0.41684333  0.07102875  1.0
  Ni  Ni143  1  0.79157833  0.75017667  0.07102875  1.0
  Cr  Cr144  1  0.16666667  0.00000000  0.11078943  1.0
  Cr  Cr145  1  0.16666667  0.33333333  0.11078943  1.0
  Cr  Cr146  1  0.16666667  0.66666667  0.11078943  1.0
  Cr  Cr147  1  0.50000000  0.00000000  0.11078943  1.0
  Cr  Cr148  1  0.50000000  0.33333333  0.11078943  1.0
  Cr  Cr149  1  0.50000000  0.66666667  0.11078943  1.0
  Cr  Cr150  1  0.83333333  0.00000000  0.11078943  1.0
  Cr  Cr151  1  0.83333333  0.33333333  0.11078943  1.0
  Cr  Cr152  1  0.83333333  0.66666667  0.11078943  1.0
  Cr  Cr153  1  0.00000000  0.00000000  0.13351670  1.0
  Cr  Cr154  1  0.00000000  0.33333333  0.13351670  1.0
  Cr  Cr155  1  0.00000000  0.66666667  0.13351670  1.0
  Cr  Cr156  1  0.33333333  0.00000000  0.13351670  1.0
  Cr  Cr157  1  0.33333333  0.33333333  0.13351670  1.0
  Cr  Cr158  1  0.33333333  0.66666667  0.13351670  1.0
  Cr  Cr159  1  0.66666667  0.00000000  0.13351670  1.0
  Cr  Cr160  1  0.66666667  0.33333333  0.13351670  1.0
  Cr  Cr161  1  0.66666667  0.66666667  0.13351670  1.0
  Ni  Ni162  1  0.20842167  0.24982333  0.10509557  1.0
  Ni  Ni163  1  0.20842167  0.58315667  0.10509557  1.0
  Ni  Ni164  1  0.20842167  0.91649000  0.10509557  1.0
  Ni  Ni165  1  0.54175500  0.24982333  0.10509557  1.0
  Ni  Ni166  1  0.54175500  0.58315667  0.10509557  1.0
  Ni  Ni167  1  0.54175500  0.91649000  0.10509557  1.0
  Ni  Ni168  1  0.87508833  0.24982333  0.10509557  1.0
  Ni  Ni169  1  0.87508833  0.58315667  0.10509557  1.0
  Ni  Ni170  1  0.87508833  0.91649000  0.10509557  1.0
  Ni  Ni171  1  0.04175500  0.24982333  0.12782284  1.0
  Ni  Ni172  1  0.04175500  0.58315667  0.12782284  1.0
  Ni  Ni173  1  0.04175500  0.91649000  0.12782284  1.0
  Ni  Ni174  1  0.37508833  0.24982333  0.12782284  1.0
  Ni  Ni175  1  0.37508833  0.58315667  0.12782284  1.0
  Ni  Ni176  1  0.37508833  0.91649000  0.12782284  1.0
  Ni  Ni177  1  0.70842167  0.24982333  0.12782284  1.0
  Ni  Ni178  1  0.70842167  0.58315667  0.12782284  1.0
  Ni  Ni179  1  0.70842167  0.91649000  0.12782284  1.0
  Ni  Ni180  1  0.25000000  0.16666667  0.09942580  1.0
  Ni  Ni181  1  0.25000000  0.50000000  0.09942580  1.0
  Ni  Ni182  1  0.25000000  0.83333333  0.09942580  1.0
  Ni  Ni183  1  0.58333333  0.16666667  0.09942580  1.0
  Ni  Ni184  1  0.58333333  0.50000000  0.09942580  1.0
  Ni  Ni185  1  0.58333333  0.83333333  0.09942580  1.0
  Ni  Ni186  1  0.91666667  0.16666667  0.09942580  1.0
  Ni  Ni187  1  0.91666667  0.50000000  0.09942580  1.0
  Ni  Ni188  1  0.91666667  0.83333333  0.09942580  1.0
  Ni  Ni189  1  0.08333333  0.16666667  0.12215307  1.0
  Ni  Ni190  1  0.08333333  0.50000000  0.12215307  1.0
  Ni  Ni191  1  0.08333333  0.83333333  0.12215307  1.0
  Ni  Ni192  1  0.41666667  0.16666667  0.12215307  1.0
  Ni  Ni193  1  0.41666667  0.50000000  0.12215307  1.0
  Ni  Ni194  1  0.41666667  0.83333333  0.12215307  1.0
  Ni  Ni195  1  0.75000000  0.16666667  0.12215307  1.0
  Ni  Ni196  1  0.75000000  0.50000000  0.12215307  1.0
  Ni  Ni197  1  0.75000000  0.83333333  0.12215307  1.0
  Ni  Ni198  1  0.29157833  0.08351000  0.09375602  1.0
  Ni  Ni199  1  0.29157833  0.41684333  0.09375602  1.0
  Ni  Ni200  1  0.29157833  0.75017667  0.09375602  1.0
  Ni  Ni201  1  0.62491167  0.08351000  0.09375602  1.0
  Ni  Ni202  1  0.62491167  0.41684333  0.09375602  1.0
  Ni  Ni203  1  0.62491167  0.75017667  0.09375602  1.0
  Ni  Ni204  1  0.95824500  0.08351000  0.09375602  1.0
  Ni  Ni205  1  0.95824500  0.41684333  0.09375602  1.0
  Ni  Ni206  1  0.95824500  0.75017667  0.09375602  1.0
  Ni  Ni207  1  0.12491167  0.08351000  0.11648330  1.0
  Ni  Ni208  1  0.12491167  0.41684333  0.11648330  1.0
  Ni  Ni209  1  0.12491167  0.75017667  0.11648330  1.0
  Ni  Ni210  1  0.45824500  0.08351000  0.11648330  1.0
  Ni  Ni211  1  0.45824500  0.41684333  0.11648330  1.0
  Ni  Ni212  1  0.45824500  0.75017667  0.11648330  1.0
  Ni  Ni213  1  0.79157833  0.08351000  0.11648330  1.0
  Ni  Ni214  1  0.79157833  0.41684333  0.11648330  1.0
  Ni  Ni215  1  0.79157833  0.75017667  0.11648330  1.0
  Cr  Cr216  1  0.16666667  0.00000000  0.15624398  1.0
  Cr  Cr217  1  0.16666667  0.33333333  0.15624398  1.0
  Cr  Cr218  1  0.16666667  0.66666667  0.15624398  1.0
  Cr  Cr219  1  0.50000000  0.00000000  0.15624398  1.0
  Cr  Cr220  1  0.50000000  0.33333333  0.15624398  1.0
  Cr  Cr221  1  0.50000000  0.66666667  0.15624398  1.0
  Cr  Cr222  1  0.83333333  0.00000000  0.15624398  1.0
  Cr  Cr223  1  0.83333333  0.33333333  0.15624398  1.0
  Cr  Cr224  1  0.83333333  0.66666667  0.15624398  1.0
  Cr  Cr225  1  0.00000000  0.00000000  0.17897125  1.0
  Cr  Cr226  1  0.00000000  0.33333333  0.17897125  1.0
  Cr  Cr227  1  0.00000000  0.66666667  0.17897125  1.0
  Cr  Cr228  1  0.33333333  0.00000000  0.17897125  1.0
  Cr  Cr229  1  0.33333333  0.33333333  0.17897125  1.0
  Cr  Cr230  1  0.33333333  0.66666667  0.17897125  1.0
  Cr  Cr231  1  0.66666667  0.00000000  0.17897125  1.0
  Cr  Cr232  1  0.66666667  0.33333333  0.17897125  1.0
  Cr  Cr233  1  0.66666667  0.66666667  0.17897125  1.0
  Ni  Ni234  1  0.20842167  0.24982333  0.15055011  1.0
  Ni  Ni235  1  0.20842167  0.58315667  0.15055011  1.0
  Ni  Ni236  1  0.20842167  0.91649000  0.15055011  1.0
  Ni  Ni237  1  0.54175500  0.24982333  0.15055011  1.0
  Ni  Ni238  1  0.54175500  0.58315667  0.15055011  1.0
  Ni  Ni239  1  0.54175500  0.91649000  0.15055011  1.0
  Ni  Ni240  1  0.87508833  0.24982333  0.15055011  1.0
  Ni  Ni241  1  0.87508833  0.58315667  0.15055011  1.0
  Ni  Ni242  1  0.87508833  0.91649000  0.15055011  1.0
  Ni  Ni243  1  0.04175500  0.24982333  0.17327739  1.0
  Ni  Ni244  1  0.04175500  0.58315667  0.17327739  1.0
  Ni  Ni245  1  0.04175500  0.91649000  0.17327739  1.0
  Ni  Ni246  1  0.37508833  0.24982333  0.17327739  1.0
  Ni  Ni247  1  0.37508833  0.58315667  0.17327739  1.0
  Ni  Ni248  1  0.37508833  0.91649000  0.17327739  1.0
  Ni  Ni249  1  0.70842167  0.24982333  0.17327739  1.0
  Ni  Ni250  1  0.70842167  0.58315667  0.17327739  1.0
  Ni  Ni251  1  0.70842167  0.91649000  0.17327739  1.0
  Ni  Ni252  1  0.25000000  0.16666667  0.14488034  1.0
  Ni  Ni253  1  0.25000000  0.50000000  0.14488034  1.0
  Ni  Ni254  1  0.25000000  0.83333333  0.14488034  1.0
  Ni  Ni255  1  0.58333333  0.16666667  0.14488034  1.0
  Ni  Ni256  1  0.58333333  0.50000000  0.14488034  1.0
  Ni  Ni257  1  0.58333333  0.83333333  0.14488034  1.0
  Ni  Ni258  1  0.91666667  0.16666667  0.14488034  1.0
  Ni  Ni259  1  0.91666667  0.50000000  0.14488034  1.0
  Ni  Ni260  1  0.91666667  0.83333333  0.14488034  1.0
  Ni  Ni261  1  0.08333333  0.16666667  0.16760761  1.0
  Ni  Ni262  1  0.08333333  0.50000000  0.16760761  1.0
  Ni  Ni263  1  0.08333333  0.83333333  0.16760761  1.0
  Ni  Ni264  1  0.41666667  0.16666667  0.16760761  1.0
  Ni  Ni265  1  0.41666667  0.50000000  0.16760761  1.0
  Ni  Ni266  1  0.41666667  0.83333333  0.16760761  1.0
  Ni  Ni267  1  0.75000000  0.16666667  0.16760761  1.0
  Ni  Ni268  1  0.75000000  0.50000000  0.16760761  1.0
  Ni  Ni269  1  0.75000000  0.83333333  0.16760761  1.0
  Ni  Ni270  1  0.29157833  0.08351000  0.13921057  1.0
  Ni  Ni271  1  0.29157833  0.41684333  0.13921057  1.0
  Ni  Ni272  1  0.29157833  0.75017667  0.13921057  1.0
  Ni  Ni273  1  0.62491167  0.08351000  0.13921057  1.0
  Ni  Ni274  1  0.62491167  0.41684333  0.13921057  1.0
  Ni  Ni275  1  0.62491167  0.75017667  0.13921057  1.0
  Ni  Ni276  1  0.95824500  0.08351000  0.13921057  1.0
  Ni  Ni277  1  0.95824500  0.41684333  0.13921057  1.0
  Ni  Ni278  1  0.95824500  0.75017667  0.13921057  1.0
  Ni  Ni279  1  0.12491167  0.08351000  0.16193784  1.0
  Ni  Ni280  1  0.12491167  0.41684333  0.16193784  1.0
  Ni  Ni281  1  0.12491167  0.75017667  0.16193784  1.0
  Ni  Ni282  1  0.45824500  0.08351000  0.16193784  1.0
  Ni  Ni283  1  0.45824500  0.41684333  0.16193784  1.0
  Ni  Ni284  1  0.45824500  0.75017667  0.16193784  1.0
  Ni  Ni285  1  0.79157833  0.08351000  0.16193784  1.0
  Ni  Ni286  1  0.79157833  0.41684333  0.16193784  1.0
  Ni  Ni287  1  0.79157833  0.75017667  0.16193784  1.0
  Cr  Cr288  1  0.16666667  0.00000000  0.20169852  1.0
  Cr  Cr289  1  0.16666667  0.33333333  0.20169852  1.0
  Cr  Cr290  1  0.16666667  0.66666667  0.20169852  1.0
  Cr  Cr291  1  0.50000000  0.00000000  0.20169852  1.0
  Cr  Cr292  1  0.50000000  0.33333333  0.20169852  1.0
  Cr  Cr293  1  0.50000000  0.66666667  0.20169852  1.0
  Cr  Cr294  1  0.83333333  0.00000000  0.20169852  1.0
  Cr  Cr295  1  0.83333333  0.33333333  0.20169852  1.0
  Cr  Cr296  1  0.83333333  0.66666667  0.20169852  1.0
  Cr  Cr297  1  0.00000000  0.00000000  0.22442580  1.0
  Cr  Cr298  1  0.00000000  0.33333333  0.22442580  1.0
  Cr  Cr299  1  0.00000000  0.66666667  0.22442580  1.0
  Cr  Cr300  1  0.33333333  0.00000000  0.22442580  1.0
  Cr  Cr301  1  0.33333333  0.33333333  0.22442580  1.0
  Cr  Cr302  1  0.33333333  0.66666667  0.22442580  1.0
  Cr  Cr303  1  0.66666667  0.00000000  0.22442580  1.0
  Cr  Cr304  1  0.66666667  0.33333333  0.22442580  1.0
  Cr  Cr305  1  0.66666667  0.66666667  0.22442580  1.0
  Ni  Ni306  1  0.20842167  0.24982333  0.19600466  1.0
  Ni  Ni307  1  0.20842167  0.58315667  0.19600466  1.0
  Ni  Ni308  1  0.20842167  0.91649000  0.19600466  1.0
  Ni  Ni309  1  0.54175500  0.24982333  0.19600466  1.0
  Ni  Ni310  1  0.54175500  0.58315667  0.19600466  1.0
  Ni  Ni311  1  0.54175500  0.91649000  0.19600466  1.0
  Ni  Ni312  1  0.87508833  0.24982333  0.19600466  1.0
  Ni  Ni313  1  0.87508833  0.58315667  0.19600466  1.0
  Ni  Ni314  1  0.87508833  0.91649000  0.19600466  1.0
  Ni  Ni315  1  0.04175500  0.24982333  0.21873193  1.0
  Ni  Ni316  1  0.04175500  0.58315667  0.21873193  1.0
  Ni  Ni317  1  0.04175500  0.91649000  0.21873193  1.0
  Ni  Ni318  1  0.37508833  0.24982333  0.21873193  1.0
  Ni  Ni319  1  0.37508833  0.58315667  0.21873193  1.0
  Ni  Ni320  1  0.37508833  0.91649000  0.21873193  1.0
  Ni  Ni321  1  0.70842167  0.24982333  0.21873193  1.0
  Ni  Ni322  1  0.70842167  0.58315667  0.21873193  1.0
  Ni  Ni323  1  0.70842167  0.91649000  0.21873193  1.0
  Ni  Ni324  1  0.25000000  0.16666667  0.19033489  1.0
  Ni  Ni325  1  0.25000000  0.50000000  0.19033489  1.0
  Ni  Ni326  1  0.25000000  0.83333333  0.19033489  1.0
  Ni  Ni327  1  0.58333333  0.16666667  0.19033489  1.0
  Ni  Ni328  1  0.58333333  0.50000000  0.19033489  1.0
  Ni  Ni329  1  0.58333333  0.83333333  0.19033489  1.0
  Ni  Ni330  1  0.91666667  0.16666667  0.19033489  1.0
  Ni  Ni331  1  0.91666667  0.50000000  0.19033489  1.0
  Ni  Ni332  1  0.91666667  0.83333333  0.19033489  1.0
  Ni  Ni333  1  0.08333333  0.16666667  0.21306216  1.0
  Ni  Ni334  1  0.08333333  0.50000000  0.21306216  1.0
  Ni  Ni335  1  0.08333333  0.83333333  0.21306216  1.0
  Ni  Ni336  1  0.41666667  0.16666667  0.21306216  1.0
  Ni  Ni337  1  0.41666667  0.50000000  0.21306216  1.0
  Ni  Ni338  1  0.41666667  0.83333333  0.21306216  1.0
  Ni  Ni339  1  0.75000000  0.16666667  0.21306216  1.0
  Ni  Ni340  1  0.75000000  0.50000000  0.21306216  1.0
  Ni  Ni341  1  0.75000000  0.83333333  0.21306216  1.0
  Ni  Ni342  1  0.29157833  0.08351000  0.18466511  1.0
  Ni  Ni343  1  0.29157833  0.41684333  0.18466511  1.0
  Ni  Ni344  1  0.29157833  0.75017667  0.18466511  1.0
  Ni  Ni345  1  0.62491167  0.08351000  0.18466511  1.0
  Ni  Ni346  1  0.62491167  0.41684333  0.18466511  1.0
  Ni  Ni347  1  0.62491167  0.75017667  0.18466511  1.0
  Ni  Ni348  1  0.95824500  0.08351000  0.18466511  1.0
  Ni  Ni349  1  0.95824500  0.41684333  0.18466511  1.0
  Ni  Ni350  1  0.95824500  0.75017667  0.18466511  1.0
  Ni  Ni351  1  0.12491167  0.08351000  0.20739239  1.0
  Ni  Ni352  1  0.12491167  0.41684333  0.20739239  1.0
  Ni  Ni353  1  0.12491167  0.75017667  0.20739239  1.0
  Ni  Ni354  1  0.45824500  0.08351000  0.20739239  1.0
  Ni  Ni355  1  0.45824500  0.41684333  0.20739239  1.0
  Ni  Ni356  1  0.45824500  0.75017667  0.20739239  1.0
  Ni  Ni357  1  0.79157833  0.08351000  0.20739239  1.0
  Ni  Ni358  1  0.79157833  0.41684333  0.20739239  1.0
  Ni  Ni359  1  0.79157833  0.75017667  0.20739239  1.0
  Cr  Cr360  1  0.16666667  0.00000000  0.24715307  1.0
  Cr  Cr361  1  0.16666667  0.33333333  0.24715307  1.0
  Cr  Cr362  1  0.16666667  0.66666667  0.24715307  1.0
  Cr  Cr363  1  0.50000000  0.00000000  0.24715307  1.0
  Cr  Cr364  1  0.50000000  0.33333333  0.24715307  1.0
  Cr  Cr365  1  0.50000000  0.66666667  0.24715307  1.0
  Cr  Cr366  1  0.83333333  0.00000000  0.24715307  1.0
  Cr  Cr367  1  0.83333333  0.33333333  0.24715307  1.0
  Cr  Cr368  1  0.83333333  0.66666667  0.24715307  1.0
  Cr  Cr369  1  0.00000000  0.00000000  0.26988034  1.0
  Cr  Cr370  1  0.00000000  0.33333333  0.26988034  1.0
  Cr  Cr371  1  0.00000000  0.66666667  0.26988034  1.0
  Cr  Cr372  1  0.33333333  0.00000000  0.26988034  1.0
  Cr  Cr373  1  0.33333333  0.33333333  0.26988034  1.0
  Cr  Cr374  1  0.33333333  0.66666667  0.26988034  1.0
  Cr  Cr375  1  0.66666667  0.00000000  0.26988034  1.0
  Cr  Cr376  1  0.66666667  0.33333333  0.26988034  1.0
  Cr  Cr377  1  0.66666667  0.66666667  0.26988034  1.0
  Ni  Ni378  1  0.20842167  0.24982333  0.24145920  1.0
  Ni  Ni379  1  0.20842167  0.58315667  0.24145920  1.0
  Ni  Ni380  1  0.20842167  0.91649000  0.24145920  1.0
  Ni  Ni381  1  0.54175500  0.24982333  0.24145920  1.0
  Ni  Ni382  1  0.54175500  0.58315667  0.24145920  1.0
  Ni  Ni383  1  0.54175500  0.91649000  0.24145920  1.0
  Ni  Ni384  1  0.87508833  0.24982333  0.24145920  1.0
  Ni  Ni385  1  0.87508833  0.58315667  0.24145920  1.0
  Ni  Ni386  1  0.87508833  0.91649000  0.24145920  1.0
  Ni  Ni387  1  0.04175500  0.24982333  0.26418648  1.0
  Ni  Ni388  1  0.04175500  0.58315667  0.26418648  1.0
  Ni  Ni389  1  0.04175500  0.91649000  0.26418648  1.0
  Ni  Ni390  1  0.37508833  0.24982333  0.26418648  1.0
  Ni  Ni391  1  0.37508833  0.58315667  0.26418648  1.0
  Ni  Ni392  1  0.37508833  0.91649000  0.26418648  1.0
  Ni  Ni393  1  0.70842167  0.24982333  0.26418648  1.0
  Ni  Ni394  1  0.70842167  0.58315667  0.26418648  1.0
  Ni  Ni395  1  0.70842167  0.91649000  0.26418648  1.0
  Ni  Ni396  1  0.25000000  0.16666667  0.23578943  1.0
  Ni  Ni397  1  0.25000000  0.50000000  0.23578943  1.0
  Ni  Ni398  1  0.25000000  0.83333333  0.23578943  1.0
  Ni  Ni399  1  0.58333333  0.16666667  0.23578943  1.0
  Ni  Ni400  1  0.58333333  0.50000000  0.23578943  1.0
  Ni  Ni401  1  0.58333333  0.83333333  0.23578943  1.0
  Ni  Ni402  1  0.91666667  0.16666667  0.23578943  1.0
  Ni  Ni403  1  0.91666667  0.50000000  0.23578943  1.0
  Ni  Ni404  1  0.91666667  0.83333333  0.23578943  1.0
  Ni  Ni405  1  0.08333333  0.16666667  0.25851670  1.0
  Ni  Ni406  1  0.08333333  0.50000000  0.25851670  1.0
  Ni  Ni407  1  0.08333333  0.83333333  0.25851670  1.0
  Ni  Ni408  1  0.41666667  0.16666667  0.25851670  1.0
  Ni  Ni409  1  0.41666667  0.50000000  0.25851670  1.0
  Ni  Ni410  1  0.41666667  0.83333333  0.25851670  1.0
  Ni  Ni411  1  0.75000000  0.16666667  0.25851670  1.0
  Ni  Ni412  1  0.75000000  0.50000000  0.25851670  1.0
  Ni  Ni413  1  0.75000000  0.83333333  0.25851670  1.0
  Ni  Ni414  1  0.29157833  0.08351000  0.23011966  1.0
  Ni  Ni415  1  0.29157833  0.41684333  0.23011966  1.0
  Ni  Ni416  1  0.29157833  0.75017667  0.23011966  1.0
  Ni  Ni417  1  0.62491167  0.08351000  0.23011966  1.0
  Ni  Ni418  1  0.62491167  0.41684333  0.23011966  1.0
  Ni  Ni419  1  0.62491167  0.75017667  0.23011966  1.0
  Ni  Ni420  1  0.95824500  0.08351000  0.23011966  1.0
  Ni  Ni421  1  0.95824500  0.41684333  0.23011966  1.0
  Ni  Ni422  1  0.95824500  0.75017667  0.23011966  1.0
  Ni  Ni423  1  0.12491167  0.08351000  0.25284693  1.0
  Ni  Ni424  1  0.12491167  0.41684333  0.25284693  1.0
  Ni  Ni425  1  0.12491167  0.75017667  0.25284693  1.0
  Ni  Ni426  1  0.45824500  0.08351000  0.25284693  1.0
  Ni  Ni427  1  0.45824500  0.41684333  0.25284693  1.0
  Ni  Ni428  1  0.45824500  0.75017667  0.25284693  1.0
  Ni  Ni429  1  0.79157833  0.08351000  0.25284693  1.0
  Ni  Ni430  1  0.79157833  0.41684333  0.25284693  1.0
  Ni  Ni431  1  0.79157833  0.75017667  0.25284693  1.0
  Cr  Cr432  1  0.16666667  0.00000000  0.29260761  1.0
  Cr  Cr433  1  0.16666667  0.33333333  0.29260761  1.0
  Cr  Cr434  1  0.16666667  0.66666667  0.29260761  1.0
  Cr  Cr435  1  0.50000000  0.00000000  0.29260761  1.0
  Cr  Cr436  1  0.50000000  0.33333333  0.29260761  1.0
  Cr  Cr437  1  0.50000000  0.66666667  0.29260761  1.0
  Cr  Cr438  1  0.83333333  0.00000000  0.29260761  1.0
  Cr  Cr439  1  0.83333333  0.33333333  0.29260761  1.0
  Cr  Cr440  1  0.83333333  0.66666667  0.29260761  1.0
  Cr  Cr441  1  0.00000000  0.00000000  0.31533489  1.0
  Cr  Cr442  1  0.00000000  0.33333333  0.31533489  1.0
  Cr  Cr443  1  0.00000000  0.66666667  0.31533489  1.0
  Cr  Cr444  1  0.33333333  0.00000000  0.31533489  1.0
  Cr  Cr445  1  0.33333333  0.33333333  0.31533489  1.0
  Cr  Cr446  1  0.33333333  0.66666667  0.31533489  1.0
  Cr  Cr447  1  0.66666667  0.00000000  0.31533489  1.0
  Cr  Cr448  1  0.66666667  0.33333333  0.31533489  1.0
  Cr  Cr449  1  0.66666667  0.66666667  0.31533489  1.0
  Ni  Ni450  1  0.20842167  0.24982333  0.28691375  1.0
  Ni  Ni451  1  0.20842167  0.58315667  0.28691375  1.0
  Ni  Ni452  1  0.20842167  0.91649000  0.28691375  1.0
  Ni  Ni453  1  0.54175500  0.24982333  0.28691375  1.0
  Ni  Ni454  1  0.54175500  0.58315667  0.28691375  1.0
  Ni  Ni455  1  0.54175500  0.91649000  0.28691375  1.0
  Ni  Ni456  1  0.87508833  0.24982333  0.28691375  1.0
  Ni  Ni457  1  0.87508833  0.58315667  0.28691375  1.0
  Ni  Ni458  1  0.87508833  0.91649000  0.28691375  1.0
  Ni  Ni459  1  0.04175500  0.24982333  0.30964102  1.0
  Ni  Ni460  1  0.04175500  0.58315667  0.30964102  1.0
  Ni  Ni461  1  0.04175500  0.91649000  0.30964102  1.0
  Ni  Ni462  1  0.37508833  0.24982333  0.30964102  1.0
  Ni  Ni463  1  0.37508833  0.58315667  0.30964102  1.0
  Ni  Ni464  1  0.37508833  0.91649000  0.30964102  1.0
  Ni  Ni465  1  0.70842167  0.24982333  0.30964102  1.0
  Ni  Ni466  1  0.70842167  0.58315667  0.30964102  1.0
  Ni  Ni467  1  0.70842167  0.91649000  0.30964102  1.0
  Ni  Ni468  1  0.25000000  0.16666667  0.28124398  1.0
  Ni  Ni469  1  0.25000000  0.50000000  0.28124398  1.0
  Ni  Ni470  1  0.25000000  0.83333333  0.28124398  1.0
  Ni  Ni471  1  0.58333333  0.16666667  0.28124398  1.0
  Ni  Ni472  1  0.58333333  0.50000000  0.28124398  1.0
  Ni  Ni473  1  0.58333333  0.83333333  0.28124398  1.0
  Ni  Ni474  1  0.91666667  0.16666667  0.28124398  1.0
  Ni  Ni475  1  0.91666667  0.50000000  0.28124398  1.0
  Ni  Ni476  1  0.91666667  0.83333333  0.28124398  1.0
  Ni  Ni477  1  0.08333333  0.16666667  0.30397125  1.0
  Ni  Ni478  1  0.08333333  0.50000000  0.30397125  1.0
  Ni  Ni479  1  0.08333333  0.83333333  0.30397125  1.0
  Ni  Ni480  1  0.41666667  0.16666667  0.30397125  1.0
  Ni  Ni481  1  0.41666667  0.50000000  0.30397125  1.0
  Ni  Ni482  1  0.41666667  0.83333333  0.30397125  1.0
  Ni  Ni483  1  0.75000000  0.16666667  0.30397125  1.0
  Ni  Ni484  1  0.75000000  0.50000000  0.30397125  1.0
  Ni  Ni485  1  0.75000000  0.83333333  0.30397125  1.0
  Ni  Ni486  1  0.29157833  0.08351000  0.27557420  1.0
  Ni  Ni487  1  0.29157833  0.41684333  0.27557420  1.0
  Ni  Ni488  1  0.29157833  0.75017667  0.27557420  1.0
  Ni  Ni489  1  0.62491167  0.08351000  0.27557420  1.0
  Ni  Ni490  1  0.62491167  0.41684333  0.27557420  1.0
  Ni  Ni491  1  0.62491167  0.75017667  0.27557420  1.0
  Ni  Ni492  1  0.95824500  0.08351000  0.27557420  1.0
  Ni  Ni493  1  0.95824500  0.41684333  0.27557420  1.0
  Ni  Ni494  1  0.95824500  0.75017667  0.27557420  1.0
  Ni  Ni495  1  0.12491167  0.08351000  0.29830148  1.0
  Ni  Ni496  1  0.12491167  0.41684333  0.29830148  1.0
  Ni  Ni497  1  0.12491167  0.75017667  0.29830148  1.0
  Ni  Ni498  1  0.45824500  0.08351000  0.29830148  1.0
  Ni  Ni499  1  0.45824500  0.41684333  0.29830148  1.0
  Ni  Ni500  1  0.45824500  0.75017667  0.29830148  1.0
  Ni  Ni501  1  0.79157833  0.08351000  0.29830148  1.0
  Ni  Ni502  1  0.79157833  0.41684333  0.29830148  1.0
  Ni  Ni503  1  0.79157833  0.75017667  0.29830148  1.0
  Cr  Cr504  1  0.16666667  0.00000000  0.33806216  1.0
  Cr  Cr505  1  0.16666667  0.33333333  0.33806216  1.0
  Cr  Cr506  1  0.16666667  0.66666667  0.33806216  1.0
  Cr  Cr507  1  0.50000000  0.00000000  0.33806216  1.0
  Cr  Cr508  1  0.50000000  0.33333333  0.33806216  1.0
  Cr  Cr509  1  0.50000000  0.66666667  0.33806216  1.0
  Cr  Cr510  1  0.83333333  0.00000000  0.33806216  1.0
  Cr  Cr511  1  0.83333333  0.33333333  0.33806216  1.0
  Cr  Cr512  1  0.83333333  0.66666667  0.33806216  1.0
  Cr  Cr513  1  0.00000000  0.00000000  0.36078943  1.0
  Cr  Cr514  1  0.00000000  0.33333333  0.36078943  1.0
  Cr  Cr515  1  0.00000000  0.66666667  0.36078943  1.0
  Cr  Cr516  1  0.33333333  0.00000000  0.36078943  1.0
  Cr  Cr517  1  0.33333333  0.33333333  0.36078943  1.0
  Cr  Cr518  1  0.33333333  0.66666667  0.36078943  1.0
  Cr  Cr519  1  0.66666667  0.00000000  0.36078943  1.0
  Cr  Cr520  1  0.66666667  0.33333333  0.36078943  1.0
  Cr  Cr521  1  0.66666667  0.66666667  0.36078943  1.0
  Ni  Ni522  1  0.20842167  0.24982333  0.33236830  1.0
  Ni  Ni523  1  0.20842167  0.58315667  0.33236830  1.0
  Ni  Ni524  1  0.20842167  0.91649000  0.33236830  1.0
  Ni  Ni525  1  0.54175500  0.24982333  0.33236830  1.0
  Ni  Ni526  1  0.54175500  0.58315667  0.33236830  1.0
  Ni  Ni527  1  0.54175500  0.91649000  0.33236830  1.0
  Ni  Ni528  1  0.87508833  0.24982333  0.33236830  1.0
  Ni  Ni529  1  0.87508833  0.58315667  0.33236830  1.0
  Ni  Ni530  1  0.87508833  0.91649000  0.33236830  1.0
  Ni  Ni531  1  0.04175500  0.24982333  0.35509557  1.0
  Ni  Ni532  1  0.04175500  0.58315667  0.35509557  1.0
  Ni  Ni533  1  0.04175500  0.91649000  0.35509557  1.0
  Ni  Ni534  1  0.37508833  0.24982333  0.35509557  1.0
  Ni  Ni535  1  0.37508833  0.58315667  0.35509557  1.0
  Ni  Ni536  1  0.37508833  0.91649000  0.35509557  1.0
  Ni  Ni537  1  0.70842167  0.24982333  0.35509557  1.0
  Ni  Ni538  1  0.70842167  0.58315667  0.35509557  1.0
  Ni  Ni539  1  0.70842167  0.91649000  0.35509557  1.0
  Ni  Ni540  1  0.25000000  0.16666667  0.32669852  1.0
  Ni  Ni541  1  0.25000000  0.50000000  0.32669852  1.0
  Ni  Ni542  1  0.25000000  0.83333333  0.32669852  1.0
  Ni  Ni543  1  0.58333333  0.16666667  0.32669852  1.0
  Ni  Ni544  1  0.58333333  0.50000000  0.32669852  1.0
  Ni  Ni545  1  0.58333333  0.83333333  0.32669852  1.0
  Ni  Ni546  1  0.91666667  0.16666667  0.32669852  1.0
  Ni  Ni547  1  0.91666667  0.50000000  0.32669852  1.0
  Ni  Ni548  1  0.91666667  0.83333333  0.32669852  1.0
  Ni  Ni549  1  0.08333333  0.16666667  0.34942580  1.0
  Ni  Ni550  1  0.08333333  0.50000000  0.34942580  1.0
  Ni  Ni551  1  0.08333333  0.83333333  0.34942580  1.0
  Ni  Ni552  1  0.41666667  0.16666667  0.34942580  1.0
  Ni  Ni553  1  0.41666667  0.50000000  0.34942580  1.0
  Ni  Ni554  1  0.41666667  0.83333333  0.34942580  1.0
  Ni  Ni555  1  0.75000000  0.16666667  0.34942580  1.0
  Ni  Ni556  1  0.75000000  0.50000000  0.34942580  1.0
  Ni  Ni557  1  0.75000000  0.83333333  0.34942580  1.0
  Ni  Ni558  1  0.29157833  0.08351000  0.32102875  1.0
  Ni  Ni559  1  0.29157833  0.41684333  0.32102875  1.0
  Ni  Ni560  1  0.29157833  0.75017667  0.32102875  1.0
  Ni  Ni561  1  0.62491167  0.08351000  0.32102875  1.0
  Ni  Ni562  1  0.62491167  0.41684333  0.32102875  1.0
  Ni  Ni563  1  0.62491167  0.75017667  0.32102875  1.0
  Ni  Ni564  1  0.95824500  0.08351000  0.32102875  1.0
  Ni  Ni565  1  0.95824500  0.41684333  0.32102875  1.0
  Ni  Ni566  1  0.95824500  0.75017667  0.32102875  1.0
  Ni  Ni567  1  0.12491167  0.08351000  0.34375602  1.0
  Ni  Ni568  1  0.12491167  0.41684333  0.34375602  1.0
  Ni  Ni569  1  0.12491167  0.75017667  0.34375602  1.0
  Ni  Ni570  1  0.45824500  0.08351000  0.34375602  1.0
  Ni  Ni571  1  0.45824500  0.41684333  0.34375602  1.0
  Ni  Ni572  1  0.45824500  0.75017667  0.34375602  1.0
  Ni  Ni573  1  0.79157833  0.08351000  0.34375602  1.0
  Ni  Ni574  1  0.79157833  0.41684333  0.34375602  1.0
  Ni  Ni575  1  0.79157833  0.75017667  0.34375602  1.0
  Cr  Cr576  1  0.16666667  0.00000000  0.38351670  1.0
  Cr  Cr577  1  0.16666667  0.33333333  0.38351670  1.0
  Cr  Cr578  1  0.16666667  0.66666667  0.38351670  1.0
  Cr  Cr579  1  0.50000000  0.00000000  0.38351670  1.0
  Cr  Cr580  1  0.50000000  0.33333333  0.38351670  1.0
  Cr  Cr581  1  0.50000000  0.66666667  0.38351670  1.0
  Cr  Cr582  1  0.83333333  0.00000000  0.38351670  1.0
  Cr  Cr583  1  0.83333333  0.33333333  0.38351670  1.0
  Cr  Cr584  1  0.83333333  0.66666667  0.38351670  1.0
  Cr  Cr585  1  0.00000000  0.00000000  0.40624398  1.0
  Cr  Cr586  1  0.00000000  0.33333333  0.40624398  1.0
  Cr  Cr587  1  0.00000000  0.66666667  0.40624398  1.0
  Cr  Cr588  1  0.33333333  0.00000000  0.40624398  1.0
  Cr  Cr589  1  0.33333333  0.33333333  0.40624398  1.0
  Cr  Cr590  1  0.33333333  0.66666667  0.40624398  1.0
  Cr  Cr591  1  0.66666667  0.00000000  0.40624398  1.0
  Cr  Cr592  1  0.66666667  0.33333333  0.40624398  1.0
  Cr  Cr593  1  0.66666667  0.66666667  0.40624398  1.0
  Ni  Ni594  1  0.20842167  0.24982333  0.37782284  1.0
  Ni  Ni595  1  0.20842167  0.58315667  0.37782284  1.0
  Ni  Ni596  1  0.20842167  0.91649000  0.37782284  1.0
  Ni  Ni597  1  0.54175500  0.24982333  0.37782284  1.0
  Ni  Ni598  1  0.54175500  0.58315667  0.37782284  1.0
  Ni  Ni599  1  0.54175500  0.91649000  0.37782284  1.0
  Ni  Ni600  1  0.87508833  0.24982333  0.37782284  1.0
  Ni  Ni601  1  0.87508833  0.58315667  0.37782284  1.0
  Ni  Ni602  1  0.87508833  0.91649000  0.37782284  1.0
  Ni  Ni603  1  0.04175500  0.24982333  0.40055011  1.0
  Ni  Ni604  1  0.04175500  0.58315667  0.40055011  1.0
  Ni  Ni605  1  0.04175500  0.91649000  0.40055011  1.0
  Ni  Ni606  1  0.37508833  0.24982333  0.40055011  1.0
  Ni  Ni607  1  0.37508833  0.58315667  0.40055011  1.0
  Ni  Ni608  1  0.37508833  0.91649000  0.40055011  1.0
  Ni  Ni609  1  0.70842167  0.24982333  0.40055011  1.0
  Ni  Ni610  1  0.70842167  0.58315667  0.40055011  1.0
  Ni  Ni611  1  0.70842167  0.91649000  0.40055011  1.0
  Ni  Ni612  1  0.25000000  0.16666667  0.37215307  1.0
  Ni  Ni613  1  0.25000000  0.50000000  0.37215307  1.0
  Ni  Ni614  1  0.25000000  0.83333333  0.37215307  1.0
  Ni  Ni615  1  0.58333333  0.16666667  0.37215307  1.0
  Ni  Ni616  1  0.58333333  0.50000000  0.37215307  1.0
  Ni  Ni617  1  0.58333333  0.83333333  0.37215307  1.0
  Ni  Ni618  1  0.91666667  0.16666667  0.37215307  1.0
  Ni  Ni619  1  0.91666667  0.50000000  0.37215307  1.0
  Ni  Ni620  1  0.91666667  0.83333333  0.37215307  1.0
  Ni  Ni621  1  0.08333333  0.16666667  0.39488034  1.0
  Ni  Ni622  1  0.08333333  0.50000000  0.39488034  1.0
  Ni  Ni623  1  0.08333333  0.83333333  0.39488034  1.0
  Ni  Ni624  1  0.41666667  0.16666667  0.39488034  1.0
  Ni  Ni625  1  0.41666667  0.50000000  0.39488034  1.0
  Ni  Ni626  1  0.41666667  0.83333333  0.39488034  1.0
  Ni  Ni627  1  0.75000000  0.16666667  0.39488034  1.0
  Ni  Ni628  1  0.75000000  0.50000000  0.39488034  1.0
  Ni  Ni629  1  0.75000000  0.83333333  0.39488034  1.0
  Ni  Ni630  1  0.29157833  0.08351000  0.36648330  1.0
  Ni  Ni631  1  0.29157833  0.41684333  0.36648330  1.0
  Ni  Ni632  1  0.29157833  0.75017667  0.36648330  1.0
  Ni  Ni633  1  0.62491167  0.08351000  0.36648330  1.0
  Ni  Ni634  1  0.62491167  0.41684333  0.36648330  1.0
  Ni  Ni635  1  0.62491167  0.75017667  0.36648330  1.0
  Ni  Ni636  1  0.95824500  0.08351000  0.36648330  1.0
  Ni  Ni637  1  0.95824500  0.41684333  0.36648330  1.0
  Ni  Ni638  1  0.95824500  0.75017667  0.36648330  1.0
  Ni  Ni639  1  0.12491167  0.08351000  0.38921057  1.0
  Ni  Ni640  1  0.12491167  0.41684333  0.38921057  1.0
  Ni  Ni641  1  0.12491167  0.75017667  0.38921057  1.0
  Ni  Ni642  1  0.45824500  0.08351000  0.38921057  1.0
  Ni  Ni643  1  0.45824500  0.41684333  0.38921057  1.0
  Ni  Ni644  1  0.45824500  0.75017667  0.38921057  1.0
  Ni  Ni645  1  0.79157833  0.08351000  0.38921057  1.0
  Ni  Ni646  1  0.79157833  0.41684333  0.38921057  1.0
  Ni  Ni647  1  0.79157833  0.75017667  0.38921057  1.0
