# generated using pymatgen
data_CrNi2
_symmetry_space_group_name_H-M   'P 1'
_cell_length_a   7.42335600
_cell_length_b   19.83414085
_cell_length_c   28.48360520
_cell_angle_alpha   93.68514695
_cell_angle_beta   90.00000000
_cell_angle_gamma   100.78568028
_symmetry_Int_Tables_number   1
_chemical_formula_structural   CrNi2
_chemical_formula_sum   'Cr54 Ni108'
_cell_volume   4110.89354754
_cell_formula_units_Z   54
loop_
 _symmetry_equiv_pos_site_id
 _symmetry_equiv_pos_as_xyz
  1  'x, y, z'
loop_
 _atom_site_type_symbol
 _atom_site_label
 _atom_site_symmetry_multiplicity
 _atom_site_fract_x
 _atom_site_fract_y
 _atom_site_fract_z
 _atom_site_occupancy
  Cr  Cr0  1  0.29742926  0.17863469  0.03590407  1.0
  Cr  Cr1  1  0.29742926  0.51196802  0.03590407  1.0
  Cr  Cr2  1  0.29742926  0.84530136  0.03590407  1.0
  Cr  Cr3  1  0.63076260  0.17863469  0.03590407  1.0
  Cr  Cr4  1  0.63076260  0.51196802  0.03590407  1.0
  Cr  Cr5  1  0.63076260  0.84530136  0.03590407  1.0
  Cr  Cr6  1  0.96409593  0.17863469  0.03590407  1.0
  Cr  Cr7  1  0.96409593  0.51196802  0.03590407  1.0
  Cr  Cr8  1  0.96409593  0.84530136  0.03590407  1.0
  Cr  Cr9  1  0.22600069  0.03577755  0.10733264  1.0
  Cr  Cr10  1  0.22600069  0.36911088  0.10733264  1.0
  Cr  Cr11  1  0.22600069  0.70244421  0.10733264  1.0
  Cr  Cr12  1  0.55933402  0.03577755  0.10733264  1.0
  Cr  Cr13  1  0.55933402  0.36911088  0.10733264  1.0
  Cr  Cr14  1  0.55933402  0.70244421  0.10733264  1.0
  Cr  Cr15  1  0.89266736  0.03577755  0.10733264  1.0
  Cr  Cr16  1  0.89266736  0.36911088  0.10733264  1.0
  Cr  Cr17  1  0.89266736  0.70244421  0.10733264  1.0
  Cr  Cr18  1  0.15457212  0.22625374  0.17876121  1.0
  Cr  Cr19  1  0.15457212  0.55958707  0.17876121  1.0
  Cr  Cr20  1  0.15457212  0.89292040  0.17876121  1.0
  Cr  Cr21  1  0.48790545  0.22625374  0.17876121  1.0
  Cr  Cr22  1  0.48790545  0.55958707  0.17876121  1.0
  Cr  Cr23  1  0.48790545  0.89292040  0.17876121  1.0
  Cr  Cr24  1  0.82123879  0.22625374  0.17876121  1.0
  Cr  Cr25  1  0.82123879  0.55958707  0.17876121  1.0
  Cr  Cr26  1  0.82123879  0.89292040  0.17876121  1.0
  Cr  Cr27  1  0.08314355  0.08339660  0.25018979  1.0
  Cr  Cr28  1  0.08314355  0.41672993  0.25018979  1.0
  Cr  Cr29  1  0.08314355  0.75006326  0.25018979  1.0
  Cr  Cr30  1  0.41647688  0.08339660  0.25018979  1.0
  Cr  Cr31  1  0.41647688  0.41672993  0.25018979  1.0
  Cr  Cr32  1  0.41647688  0.75006326  0.25018979  1.0
  Cr  Cr33  1  0.74981021  0.08339660  0.25018979  1.0
  Cr  Cr34  1  0.74981021  0.41672993  0.25018979  1.0
  Cr  Cr35  1  0.74981021  0.75006326  0.25018979  1.0
  Cr  Cr36  1  0.01171498  0.27387279  0.32161836  1.0
  Cr  Cr37  1  0.01171498  0.60720612  0.32161836  1.0
  Cr  Cr38  1  0.01171498  0.94053945  0.32161836  1.0
  Cr  Cr39  1  0.34504831  0.27387279  0.32161836  1.0
  Cr  Cr40  1  0.34504831  0.60720612  0.32161836  1.0
  Cr  Cr41  1  0.34504831  0.94053945  0.32161836  1.0
  Cr  Cr42  1  0.67838164  0.27387279  0.32161836  1.0
  Cr  Cr43  1  0.67838164  0.60720612  0.32161836  1.0
  Cr  Cr44  1  0.67838164  0.94053945  0.32161836  1.0
  Cr  Cr45  1  0.27361974  0.13101564  0.39304693  1.0
  Cr  Cr46  1  0.27361974  0.46434898  0.39304693  1.0
  Cr  Cr47  1  0.27361974  0.79768231  0.39304693  1.0
  Cr  Cr48  1  0.60695307  0.13101564  0.39304693  1.0
  Cr  Cr49  1  0.60695307  0.46434898  0.39304693  1.0
  Cr  Cr50  1  0.60695307  0.79768231  0.39304693  1.0
  Cr  Cr51  1  0.94028640  0.13101564  0.39304693  1.0
  Cr  Cr52  1  0.94028640  0.46434898  0.39304693  1.0
  Cr  Cr53  1  0.94028640  0.79768231  0.39304693  1.0
  Ni  Ni54  1  0.07531248  0.06773445  0.03609386  1.0
  Ni  Ni55  1  0.07531248  0.40106779  0.03609386  1.0
  Ni  Ni56  1  0.07531248  0.73440112  0.03609386  1.0
  Ni  Ni57  1  0.40864581  0.06773445  0.03609386  1.0
  Ni  Ni58  1  0.40864581  0.40106779  0.03609386  1.0
  Ni  Ni59  1  0.40864581  0.73440112  0.03609386  1.0
  Ni  Ni60  1  0.74197914  0.06773445  0.03609386  1.0
  Ni  Ni61  1  0.74197914  0.40106779  0.03609386  1.0
  Ni  Ni62  1  0.74197914  0.73440112  0.03609386  1.0
  Ni  Ni63  1  0.00388390  0.25821064  0.10752243  1.0
  Ni  Ni64  1  0.00388390  0.59154398  0.10752243  1.0
  Ni  Ni65  1  0.00388390  0.92487731  0.10752243  1.0
  Ni  Ni66  1  0.33721724  0.25821064  0.10752243  1.0
  Ni  Ni67  1  0.33721724  0.59154398  0.10752243  1.0
  Ni  Ni68  1  0.33721724  0.92487731  0.10752243  1.0
  Ni  Ni69  1  0.67055057  0.25821064  0.10752243  1.0
  Ni  Ni70  1  0.67055057  0.59154398  0.10752243  1.0
  Ni  Ni71  1  0.67055057  0.92487731  0.10752243  1.0
  Ni  Ni72  1  0.11478414  0.14667779  0.10714286  1.0
  Ni  Ni73  1  0.11478414  0.48001112  0.10714286  1.0
  Ni  Ni74  1  0.11478414  0.81334445  0.10714286  1.0
  Ni  Ni75  1  0.44811748  0.14667779  0.10714286  1.0
  Ni  Ni76  1  0.44811748  0.48001112  0.10714286  1.0
  Ni  Ni77  1  0.44811748  0.81334445  0.10714286  1.0
  Ni  Ni78  1  0.78145081  0.14667779  0.10714286  1.0
  Ni  Ni79  1  0.78145081  0.48001112  0.10714286  1.0
  Ni  Ni80  1  0.78145081  0.81334445  0.10714286  1.0
  Ni  Ni81  1  0.18621271  0.28953493  0.03571429  1.0
  Ni  Ni82  1  0.18621271  0.62286826  0.03571429  1.0
  Ni  Ni83  1  0.18621271  0.95620160  0.03571429  1.0
  Ni  Ni84  1  0.51954605  0.28953493  0.03571429  1.0
  Ni  Ni85  1  0.51954605  0.62286826  0.03571429  1.0
  Ni  Ni86  1  0.51954605  0.95620160  0.03571429  1.0
  Ni  Ni87  1  0.85287938  0.28953493  0.03571429  1.0
  Ni  Ni88  1  0.85287938  0.62286826  0.03571429  1.0
  Ni  Ni89  1  0.85287938  0.95620160  0.03571429  1.0
  Ni  Ni90  1  0.26578867  0.11535350  0.17895100  1.0
  Ni  Ni91  1  0.26578867  0.44868683  0.17895100  1.0
  Ni  Ni92  1  0.26578867  0.78202017  0.17895100  1.0
  Ni  Ni93  1  0.59912200  0.11535350  0.17895100  1.0
  Ni  Ni94  1  0.59912200  0.44868683  0.17895100  1.0
  Ni  Ni95  1  0.59912200  0.78202017  0.17895100  1.0
  Ni  Ni96  1  0.93245533  0.11535350  0.17895100  1.0
  Ni  Ni97  1  0.93245533  0.44868683  0.17895100  1.0
  Ni  Ni98  1  0.93245533  0.78202017  0.17895100  1.0
  Ni  Ni99  1  0.19436010  0.30582969  0.25037957  1.0
  Ni  Ni100  1  0.19436010  0.63916302  0.25037957  1.0
  Ni  Ni101  1  0.19436010  0.97249636  0.25037957  1.0
  Ni  Ni102  1  0.52769343  0.30582969  0.25037957  1.0
  Ni  Ni103  1  0.52769343  0.63916302  0.25037957  1.0
  Ni  Ni104  1  0.52769343  0.97249636  0.25037957  1.0
  Ni  Ni105  1  0.86102676  0.30582969  0.25037957  1.0
  Ni  Ni106  1  0.86102676  0.63916302  0.25037957  1.0
  Ni  Ni107  1  0.86102676  0.97249636  0.25037957  1.0
  Ni  Ni108  1  0.30526033  0.19429683  0.25000000  1.0
  Ni  Ni109  1  0.30526033  0.52763017  0.25000000  1.0
  Ni  Ni110  1  0.30526033  0.86096350  0.25000000  1.0
  Ni  Ni111  1  0.63859367  0.19429683  0.25000000  1.0
  Ni  Ni112  1  0.63859367  0.52763017  0.25000000  1.0
  Ni  Ni113  1  0.63859367  0.86096350  0.25000000  1.0
  Ni  Ni114  1  0.97192700  0.19429683  0.25000000  1.0
  Ni  Ni115  1  0.97192700  0.52763017  0.25000000  1.0
  Ni  Ni116  1  0.97192700  0.86096350  0.25000000  1.0
  Ni  Ni117  1  0.04335557  0.00382064  0.17857143  1.0
  Ni  Ni118  1  0.04335557  0.33715398  0.17857143  1.0
  Ni  Ni119  1  0.04335557  0.67048731  0.17857143  1.0
  Ni  Ni120  1  0.37668890  0.00382064  0.17857143  1.0
  Ni  Ni121  1  0.37668890  0.33715398  0.17857143  1.0
  Ni  Ni122  1  0.37668890  0.67048731  0.17857143  1.0
  Ni  Ni123  1  0.71002224  0.00382064  0.17857143  1.0
  Ni  Ni124  1  0.71002224  0.33715398  0.17857143  1.0
  Ni  Ni125  1  0.71002224  0.67048731  0.17857143  1.0
  Ni  Ni126  1  0.12293152  0.16297255  0.32180814  1.0
  Ni  Ni127  1  0.12293152  0.49630588  0.32180814  1.0
  Ni  Ni128  1  0.12293152  0.82963921  0.32180814  1.0
  Ni  Ni129  1  0.45626486  0.16297255  0.32180814  1.0
  Ni  Ni130  1  0.45626486  0.49630588  0.32180814  1.0
  Ni  Ni131  1  0.45626486  0.82963921  0.32180814  1.0
  Ni  Ni132  1  0.78959819  0.16297255  0.32180814  1.0
  Ni  Ni133  1  0.78959819  0.49630588  0.32180814  1.0
  Ni  Ni134  1  0.78959819  0.82963921  0.32180814  1.0
  Ni  Ni135  1  0.05150295  0.02011540  0.39323671  1.0
  Ni  Ni136  1  0.05150295  0.35344874  0.39323671  1.0
  Ni  Ni137  1  0.05150295  0.68678207  0.39323671  1.0
  Ni  Ni138  1  0.38483629  0.02011540  0.39323671  1.0
  Ni  Ni139  1  0.38483629  0.35344874  0.39323671  1.0
  Ni  Ni140  1  0.38483629  0.68678207  0.39323671  1.0
  Ni  Ni141  1  0.71816962  0.02011540  0.39323671  1.0
  Ni  Ni142  1  0.71816962  0.35344874  0.39323671  1.0
  Ni  Ni143  1  0.71816962  0.68678207  0.39323671  1.0
  Ni  Ni144  1  0.16240319  0.24191588  0.39285714  1.0
  Ni  Ni145  1  0.16240319  0.57524921  0.39285714  1.0
  Ni  Ni146  1  0.16240319  0.90858255  0.39285714  1.0
  Ni  Ni147  1  0.49573652  0.24191588  0.39285714  1.0
  Ni  Ni148  1  0.49573652  0.57524921  0.39285714  1.0
  Ni  Ni149  1  0.49573652  0.90858255  0.39285714  1.0
  Ni  Ni150  1  0.82906986  0.24191588  0.39285714  1.0
  Ni  Ni151  1  0.82906986  0.57524921  0.39285714  1.0
  Ni  Ni152  1  0.82906986  0.90858255  0.39285714  1.0
  Ni  Ni153  1  0.23383176  0.05143969  0.32142857  1.0
  Ni  Ni154  1  0.23383176  0.38477302  0.32142857  1.0
  Ni  Ni155  1  0.23383176  0.71810636  0.32142857  1.0
  Ni  Ni156  1  0.56716510  0.05143969  0.32142857  1.0
  Ni  Ni157  1  0.56716510  0.38477302  0.32142857  1.0
  Ni  Ni158  1  0.56716510  0.71810636  0.32142857  1.0
  Ni  Ni159  1  0.90049843  0.05143969  0.32142857  1.0
  Ni  Ni160  1  0.90049843  0.38477302  0.32142857  1.0
  Ni  Ni161  1  0.90049843  0.71810636  0.32142857  1.0
