# generated using pymatgen
data_CrNi2
_symmetry_space_group_name_H-M   'P 1'
_cell_length_a   12.88777476
_cell_length_b   22.44115798
_cell_length_c   51.55109904
_cell_angle_alpha   90.52710599
_cell_angle_beta   131.13826588
_cell_angle_gamma   125.46696047
_symmetry_Int_Tables_number   1
_chemical_formula_structural   CrNi2
_chemical_formula_sum   'Cr90 Ni180'
_cell_volume   7047.24608149
_cell_formula_units_Z   90
loop_
 _symmetry_equiv_pos_site_id
 _symmetry_equiv_pos_as_xyz
  1  'x, y, z'
loop_
 _atom_site_type_symbol
 _atom_site_label
 _atom_site_symmetry_multiplicity
 _atom_site_fract_x
 _atom_site_fract_y
 _atom_site_fract_z
 _atom_site_occupancy
  Cr  Cr0  1  0.00000000  0.16666667  0.02094404  1.0
  Cr  Cr1  1  0.00000000  0.50000000  0.02094404  1.0
  Cr  Cr2  1  0.00000000  0.83333333  0.02094404  1.0
  Cr  Cr3  1  0.33333333  0.16666667  0.02094404  1.0
  Cr  Cr4  1  0.33333333  0.50000000  0.02094404  1.0
  Cr  Cr5  1  0.33333333  0.83333333  0.02094404  1.0
  Cr  Cr6  1  0.66666667  0.16666667  0.02094404  1.0
  Cr  Cr7  1  0.66666667  0.50000000  0.02094404  1.0
  Cr  Cr8  1  0.66666667  0.83333333  0.02094404  1.0
  Cr  Cr9  1  0.00000000  0.00000000  0.06261071  1.0
  Cr  Cr10  1  1.00000000  0.33333333  0.06261071  1.0
  Cr  Cr11  1  1.00000000  0.66666667  0.06261071  1.0
  Cr  Cr12  1  0.33333333  0.00000000  0.06261071  1.0
  Cr  Cr13  1  0.33333333  0.33333333  0.06261071  1.0
  Cr  Cr14  1  0.33333333  0.66666667  0.06261071  1.0
  Cr  Cr15  1  0.66666667  0.00000000  0.06261071  1.0
  Cr  Cr16  1  0.66666667  0.33333333  0.06261071  1.0
  Cr  Cr17  1  0.66666667  0.66666667  0.06261071  1.0
  Ni  Ni18  1  0.33333333  0.05570317  0.02105475  1.0
  Ni  Ni19  1  0.33333333  0.38903650  0.02105475  1.0
  Ni  Ni20  1  0.33333333  0.72236983  0.02105475  1.0
  Ni  Ni21  1  0.66666667  0.05570317  0.02105475  1.0
  Ni  Ni22  1  0.66666667  0.38903650  0.02105475  1.0
  Ni  Ni23  1  0.66666667  0.72236983  0.02105475  1.0
  Ni  Ni24  1  1.00000000  0.05570317  0.02105475  1.0
  Ni  Ni25  1  0.00000000  0.38903650  0.02105475  1.0
  Ni  Ni26  1  1.00000000  0.72236983  0.02105475  1.0
  Ni  Ni27  1  0.33333333  0.22236983  0.06272142  1.0
  Ni  Ni28  1  0.33333333  0.55570317  0.06272142  1.0
  Ni  Ni29  1  0.33333333  0.88903650  0.06272142  1.0
  Ni  Ni30  1  0.66666667  0.22236983  0.06272142  1.0
  Ni  Ni31  1  0.66666667  0.55570317  0.06272142  1.0
  Ni  Ni32  1  0.66666667  0.88903650  0.06272142  1.0
  Ni  Ni33  1  1.00000000  0.22236983  0.06272142  1.0
  Ni  Ni34  1  0.00000000  0.55570317  0.06272142  1.0
  Ni  Ni35  1  1.00000000  0.88903650  0.06272142  1.0
  Ni  Ni36  1  0.00000000  0.11096350  0.06250000  1.0
  Ni  Ni37  1  0.00000000  0.44429683  0.06250000  1.0
  Ni  Ni38  1  0.00000000  0.77763017  0.06250000  1.0
  Ni  Ni39  1  0.33333333  0.11096350  0.06250000  1.0
  Ni  Ni40  1  0.33333333  0.44429683  0.06250000  1.0
  Ni  Ni41  1  0.33333333  0.77763017  0.06250000  1.0
  Ni  Ni42  1  0.66666667  0.11096350  0.06250000  1.0
  Ni  Ni43  1  0.66666667  0.44429683  0.06250000  1.0
  Ni  Ni44  1  0.66666667  0.77763017  0.06250000  1.0
  Ni  Ni45  1  0.33333333  0.27763017  0.02083333  1.0
  Ni  Ni46  1  0.33333333  0.61096350  0.02083333  1.0
  Ni  Ni47  1  0.33333333  0.94429683  0.02083333  1.0
  Ni  Ni48  1  0.66666667  0.27763017  0.02083333  1.0
  Ni  Ni49  1  0.66666667  0.61096350  0.02083333  1.0
  Ni  Ni50  1  0.66666667  0.94429683  0.02083333  1.0
  Ni  Ni51  1  0.00000000  0.27763017  0.02083333  1.0
  Ni  Ni52  1  0.00000000  0.61096350  0.02083333  1.0
  Ni  Ni53  1  1.00000000  0.94429683  0.02083333  1.0
  Cr  Cr54  1  0.00000000  0.16666667  0.10427738  1.0
  Cr  Cr55  1  0.00000000  0.50000000  0.10427738  1.0
  Cr  Cr56  1  0.00000000  0.83333333  0.10427737  1.0
  Cr  Cr57  1  0.33333333  0.16666667  0.10427738  1.0
  Cr  Cr58  1  0.33333333  0.50000000  0.10427738  1.0
  Cr  Cr59  1  0.33333333  0.83333333  0.10427737  1.0
  Cr  Cr60  1  0.66666667  0.16666667  0.10427738  1.0
  Cr  Cr61  1  0.66666667  0.50000000  0.10427738  1.0
  Cr  Cr62  1  0.66666667  0.83333333  0.10427738  1.0
  Cr  Cr63  1  0.00000000  0.00000000  0.14594404  1.0
  Cr  Cr64  1  1.00000000  0.33333333  0.14594404  1.0
  Cr  Cr65  1  1.00000000  0.66666667  0.14594404  1.0
  Cr  Cr66  1  0.33333333  0.00000000  0.14594404  1.0
  Cr  Cr67  1  0.33333333  0.33333333  0.14594404  1.0
  Cr  Cr68  1  0.33333333  0.66666667  0.14594404  1.0
  Cr  Cr69  1  0.66666667  0.00000000  0.14594404  1.0
  Cr  Cr70  1  0.66666667  0.33333333  0.14594404  1.0
  Cr  Cr71  1  0.66666667  0.66666667  0.14594404  1.0
  Ni  Ni72  1  0.33333333  0.05570317  0.10438808  1.0
  Ni  Ni73  1  0.33333333  0.38903650  0.10438808  1.0
  Ni  Ni74  1  0.33333333  0.72236983  0.10438808  1.0
  Ni  Ni75  1  0.66666667  0.05570317  0.10438808  1.0
  Ni  Ni76  1  0.66666667  0.38903650  0.10438808  1.0
  Ni  Ni77  1  0.66666667  0.72236983  0.10438808  1.0
  Ni  Ni78  1  1.00000000  0.05570317  0.10438808  1.0
  Ni  Ni79  1  0.00000000  0.38903650  0.10438808  1.0
  Ni  Ni80  1  1.00000000  0.72236983  0.10438808  1.0
  Ni  Ni81  1  0.33333333  0.22236983  0.14605475  1.0
  Ni  Ni82  1  0.33333333  0.55570317  0.14605475  1.0
  Ni  Ni83  1  0.33333333  0.88903650  0.14605475  1.0
  Ni  Ni84  1  0.66666667  0.22236983  0.14605475  1.0
  Ni  Ni85  1  0.66666667  0.55570317  0.14605475  1.0
  Ni  Ni86  1  0.66666667  0.88903650  0.14605475  1.0
  Ni  Ni87  1  1.00000000  0.22236983  0.14605475  1.0
  Ni  Ni88  1  0.00000000  0.55570317  0.14605475  1.0
  Ni  Ni89  1  1.00000000  0.88903650  0.14605475  1.0
  Ni  Ni90  1  0.00000000  0.11096350  0.14583333  1.0
  Ni  Ni91  1  0.00000000  0.44429683  0.14583333  1.0
  Ni  Ni92  1  0.00000000  0.77763017  0.14583333  1.0
  Ni  Ni93  1  0.33333333  0.11096350  0.14583333  1.0
  Ni  Ni94  1  0.33333333  0.44429683  0.14583333  1.0
  Ni  Ni95  1  0.33333333  0.77763017  0.14583333  1.0
  Ni  Ni96  1  0.66666667  0.11096350  0.14583333  1.0
  Ni  Ni97  1  0.66666667  0.44429683  0.14583333  1.0
  Ni  Ni98  1  0.66666667  0.77763017  0.14583333  1.0
  Ni  Ni99  1  0.33333333  0.27763017  0.10416667  1.0
  Ni  Ni100  1  0.33333333  0.61096350  0.10416667  1.0
  Ni  Ni101  1  0.33333333  0.94429683  0.10416667  1.0
  Ni  Ni102  1  0.66666667  0.27763017  0.10416667  1.0
  Ni  Ni103  1  0.66666667  0.61096350  0.10416667  1.0
  Ni  Ni104  1  0.66666667  0.94429683  0.10416667  1.0
  Ni  Ni105  1  0.00000000  0.27763017  0.10416667  1.0
  Ni  Ni106  1  0.00000000  0.61096350  0.10416667  1.0
  Ni  Ni107  1  1.00000000  0.94429683  0.10416667  1.0
  Cr  Cr108  1  0.00000000  0.16666667  0.18761071  1.0
  Cr  Cr109  1  0.00000000  0.50000000  0.18761071  1.0
  Cr  Cr110  1  0.00000000  0.83333333  0.18761071  1.0
  Cr  Cr111  1  0.33333333  0.16666667  0.18761071  1.0
  Cr  Cr112  1  0.33333333  0.50000000  0.18761071  1.0
  Cr  Cr113  1  0.33333333  0.83333333  0.18761071  1.0
  Cr  Cr114  1  0.66666667  0.16666667  0.18761071  1.0
  Cr  Cr115  1  0.66666667  0.50000000  0.18761071  1.0
  Cr  Cr116  1  0.66666667  0.83333333  0.18761071  1.0
  Cr  Cr117  1  0.00000000  0.00000000  0.22927738  1.0
  Cr  Cr118  1  1.00000000  0.33333333  0.22927738  1.0
  Cr  Cr119  1  1.00000000  0.66666667  0.22927737  1.0
  Cr  Cr120  1  0.33333333  0.00000000  0.22927738  1.0
  Cr  Cr121  1  0.33333333  0.33333333  0.22927738  1.0
  Cr  Cr122  1  0.33333333  0.66666667  0.22927738  1.0
  Cr  Cr123  1  0.66666667  0.00000000  0.22927738  1.0
  Cr  Cr124  1  0.66666667  0.33333333  0.22927738  1.0
  Cr  Cr125  1  0.66666667  0.66666667  0.22927738  1.0
  Ni  Ni126  1  0.33333333  0.05570317  0.18772142  1.0
  Ni  Ni127  1  0.33333333  0.38903650  0.18772142  1.0
  Ni  Ni128  1  0.33333333  0.72236983  0.18772142  1.0
  Ni  Ni129  1  0.66666667  0.05570317  0.18772142  1.0
  Ni  Ni130  1  0.66666667  0.38903650  0.18772142  1.0
  Ni  Ni131  1  0.66666667  0.72236983  0.18772142  1.0
  Ni  Ni132  1  1.00000000  0.05570317  0.18772142  1.0
  Ni  Ni133  1  0.00000000  0.38903650  0.18772142  1.0
  Ni  Ni134  1  1.00000000  0.72236983  0.18772142  1.0
  Ni  Ni135  1  0.33333333  0.22236983  0.22938808  1.0
  Ni  Ni136  1  0.33333333  0.55570317  0.22938808  1.0
  Ni  Ni137  1  0.33333333  0.88903650  0.22938808  1.0
  Ni  Ni138  1  0.66666667  0.22236983  0.22938808  1.0
  Ni  Ni139  1  0.66666667  0.55570317  0.22938808  1.0
  Ni  Ni140  1  0.66666667  0.88903650  0.22938808  1.0
  Ni  Ni141  1  1.00000000  0.22236983  0.22938808  1.0
  Ni  Ni142  1  0.00000000  0.55570317  0.22938808  1.0
  Ni  Ni143  1  1.00000000  0.88903650  0.22938808  1.0
  Ni  Ni144  1  0.00000000  0.11096350  0.22916667  1.0
  Ni  Ni145  1  0.00000000  0.44429683  0.22916667  1.0
  Ni  Ni146  1  0.00000000  0.77763017  0.22916667  1.0
  Ni  Ni147  1  0.33333333  0.11096350  0.22916667  1.0
  Ni  Ni148  1  0.33333333  0.44429683  0.22916667  1.0
  Ni  Ni149  1  0.33333333  0.77763017  0.22916667  1.0
  Ni  Ni150  1  0.66666667  0.11096350  0.22916667  1.0
  Ni  Ni151  1  0.66666667  0.44429683  0.22916667  1.0
  Ni  Ni152  1  0.66666667  0.77763017  0.22916667  1.0
  Ni  Ni153  1  0.33333333  0.27763017  0.18750000  1.0
  Ni  Ni154  1  0.33333333  0.61096350  0.18750000  1.0
  Ni  Ni155  1  0.33333333  0.94429683  0.18750000  1.0
  Ni  Ni156  1  0.66666667  0.27763017  0.18750000  1.0
  Ni  Ni157  1  0.66666667  0.61096350  0.18750000  1.0
  Ni  Ni158  1  0.66666667  0.94429683  0.18750000  1.0
  Ni  Ni159  1  0.00000000  0.27763017  0.18750000  1.0
  Ni  Ni160  1  0.00000000  0.61096350  0.18750000  1.0
  Ni  Ni161  1  1.00000000  0.94429683  0.18750000  1.0
  Cr  Cr162  1  0.00000000  0.16666667  0.27094404  1.0
  Cr  Cr163  1  0.00000000  0.50000000  0.27094404  1.0
  Cr  Cr164  1  0.00000000  0.83333333  0.27094404  1.0
  Cr  Cr165  1  0.33333333  0.16666667  0.27094404  1.0
  Cr  Cr166  1  0.33333333  0.50000000  0.27094404  1.0
  Cr  Cr167  1  0.33333333  0.83333333  0.27094404  1.0
  Cr  Cr168  1  0.66666667  0.16666667  0.27094404  1.0
  Cr  Cr169  1  0.66666667  0.50000000  0.27094404  1.0
  Cr  Cr170  1  0.66666667  0.83333333  0.27094404  1.0
  Cr  Cr171  1  0.00000000  0.00000000  0.31261071  1.0
  Cr  Cr172  1  1.00000000  0.33333333  0.31261071  1.0
  Cr  Cr173  1  1.00000000  0.66666667  0.31261071  1.0
  Cr  Cr174  1  0.33333333  0.00000000  0.31261071  1.0
  Cr  Cr175  1  0.33333333  0.33333333  0.31261071  1.0
  Cr  Cr176  1  0.33333333  0.66666667  0.31261071  1.0
  Cr  Cr177  1  0.66666667  0.00000000  0.31261071  1.0
  Cr  Cr178  1  0.66666667  0.33333333  0.31261071  1.0
  Cr  Cr179  1  0.66666667  0.66666667  0.31261071  1.0
  Ni  Ni180  1  0.33333333  0.05570317  0.27105475  1.0
  Ni  Ni181  1  0.33333333  0.38903650  0.27105475  1.0
  Ni  Ni182  1  0.33333333  0.72236983  0.27105475  1.0
  Ni  Ni183  1  0.66666667  0.05570317  0.27105475  1.0
  Ni  Ni184  1  0.66666667  0.38903650  0.27105475  1.0
  Ni  Ni185  1  0.66666667  0.72236983  0.27105475  1.0
  Ni  Ni186  1  1.00000000  0.05570317  0.27105475  1.0
  Ni  Ni187  1  0.00000000  0.38903650  0.27105475  1.0
  Ni  Ni188  1  1.00000000  0.72236983  0.27105475  1.0
  Ni  Ni189  1  0.33333333  0.22236983  0.31272142  1.0
  Ni  Ni190  1  0.33333333  0.55570317  0.31272142  1.0
  Ni  Ni191  1  0.33333333  0.88903650  0.31272142  1.0
  Ni  Ni192  1  0.66666667  0.22236983  0.31272142  1.0
  Ni  Ni193  1  0.66666667  0.55570317  0.31272142  1.0
  Ni  Ni194  1  0.66666667  0.88903650  0.31272142  1.0
  Ni  Ni195  1  1.00000000  0.22236983  0.31272142  1.0
  Ni  Ni196  1  0.00000000  0.55570317  0.31272142  1.0
  Ni  Ni197  1  1.00000000  0.88903650  0.31272142  1.0
  Ni  Ni198  1  0.00000000  0.11096350  0.31250000  1.0
  Ni  Ni199  1  0.00000000  0.44429683  0.31250000  1.0
  Ni  Ni200  1  0.00000000  0.77763017  0.31250000  1.0
  Ni  Ni201  1  0.33333333  0.11096350  0.31250000  1.0
  Ni  Ni202  1  0.33333333  0.44429683  0.31250000  1.0
  Ni  Ni203  1  0.33333333  0.77763017  0.31250000  1.0
  Ni  Ni204  1  0.66666667  0.11096350  0.31250000  1.0
  Ni  Ni205  1  0.66666667  0.44429683  0.31250000  1.0
  Ni  Ni206  1  0.66666667  0.77763017  0.31250000  1.0
  Ni  Ni207  1  0.33333333  0.27763017  0.27083333  1.0
  Ni  Ni208  1  0.33333333  0.61096350  0.27083333  1.0
  Ni  Ni209  1  0.33333333  0.94429683  0.27083333  1.0
  Ni  Ni210  1  0.66666667  0.27763017  0.27083333  1.0
  Ni  Ni211  1  0.66666667  0.61096350  0.27083333  1.0
  Ni  Ni212  1  0.66666667  0.94429683  0.27083333  1.0
  Ni  Ni213  1  0.00000000  0.27763017  0.27083333  1.0
  Ni  Ni214  1  0.00000000  0.61096350  0.27083333  1.0
  Ni  Ni215  1  1.00000000  0.94429683  0.27083333  1.0
  Cr  Cr216  1  0.00000000  0.16666667  0.35427738  1.0
  Cr  Cr217  1  0.00000000  0.50000000  0.35427738  1.0
  Cr  Cr218  1  0.00000000  0.83333333  0.35427737  1.0
  Cr  Cr219  1  0.33333333  0.16666667  0.35427738  1.0
  Cr  Cr220  1  0.33333333  0.50000000  0.35427738  1.0
  Cr  Cr221  1  0.33333333  0.83333333  0.35427737  1.0
  Cr  Cr222  1  0.66666667  0.16666667  0.35427738  1.0
  Cr  Cr223  1  0.66666667  0.50000000  0.35427738  1.0
  Cr  Cr224  1  0.66666667  0.83333333  0.35427738  1.0
  Cr  Cr225  1  0.00000000  0.00000000  0.39594404  1.0
  Cr  Cr226  1  1.00000000  0.33333333  0.39594404  1.0
  Cr  Cr227  1  1.00000000  0.66666667  0.39594404  1.0
  Cr  Cr228  1  0.33333333  0.00000000  0.39594404  1.0
  Cr  Cr229  1  0.33333333  0.33333333  0.39594404  1.0
  Cr  Cr230  1  0.33333333  0.66666667  0.39594404  1.0
  Cr  Cr231  1  0.66666667  0.00000000  0.39594404  1.0
  Cr  Cr232  1  0.66666667  0.33333333  0.39594404  1.0
  Cr  Cr233  1  0.66666667  0.66666667  0.39594404  1.0
  Ni  Ni234  1  0.33333333  0.05570317  0.35438808  1.0
  Ni  Ni235  1  0.33333333  0.38903650  0.35438808  1.0
  Ni  Ni236  1  0.33333333  0.72236983  0.35438808  1.0
  Ni  Ni237  1  0.66666667  0.05570317  0.35438808  1.0
  Ni  Ni238  1  0.66666667  0.38903650  0.35438808  1.0
  Ni  Ni239  1  0.66666667  0.72236983  0.35438808  1.0
  Ni  Ni240  1  1.00000000  0.05570317  0.35438808  1.0
  Ni  Ni241  1  0.00000000  0.38903650  0.35438808  1.0
  Ni  Ni242  1  1.00000000  0.72236983  0.35438808  1.0
  Ni  Ni243  1  0.33333333  0.22236983  0.39605475  1.0
  Ni  Ni244  1  0.33333333  0.55570317  0.39605475  1.0
  Ni  Ni245  1  0.33333333  0.88903650  0.39605475  1.0
  Ni  Ni246  1  0.66666667  0.22236983  0.39605475  1.0
  Ni  Ni247  1  0.66666667  0.55570317  0.39605475  1.0
  Ni  Ni248  1  0.66666667  0.88903650  0.39605475  1.0
  Ni  Ni249  1  1.00000000  0.22236983  0.39605475  1.0
  Ni  Ni250  1  0.00000000  0.55570317  0.39605475  1.0
  Ni  Ni251  1  1.00000000  0.88903650  0.39605475  1.0
  Ni  Ni252  1  0.00000000  0.11096350  0.39583333  1.0
  Ni  Ni253  1  0.00000000  0.44429683  0.39583333  1.0
  Ni  Ni254  1  0.00000000  0.77763017  0.39583333  1.0
  Ni  Ni255  1  0.33333333  0.11096350  0.39583333  1.0
  Ni  Ni256  1  0.33333333  0.44429683  0.39583333  1.0
  Ni  Ni257  1  0.33333333  0.77763017  0.39583333  1.0
  Ni  Ni258  1  0.66666667  0.11096350  0.39583333  1.0
  Ni  Ni259  1  0.66666667  0.44429683  0.39583333  1.0
  Ni  Ni260  1  0.66666667  0.77763017  0.39583333  1.0
  Ni  Ni261  1  0.33333333  0.27763017  0.35416667  1.0
  Ni  Ni262  1  0.33333333  0.61096350  0.35416667  1.0
  Ni  Ni263  1  0.33333333  0.94429683  0.35416667  1.0
  Ni  Ni264  1  0.66666667  0.27763017  0.35416667  1.0
  Ni  Ni265  1  0.66666667  0.61096350  0.35416667  1.0
  Ni  Ni266  1  0.66666667  0.94429683  0.35416667  1.0
  Ni  Ni267  1  0.00000000  0.27763017  0.35416667  1.0
  Ni  Ni268  1  0.00000000  0.61096350  0.35416667  1.0
  Ni  Ni269  1  1.00000000  0.94429683  0.35416667  1.0
