# generated using pymatgen
data_CrNi2
_symmetry_space_group_name_H-M   'P 1'
_cell_length_a   14.06736192
_cell_length_b   14.06736192
_cell_length_c   42.20208576
_cell_angle_alpha   60.00000000
_cell_angle_beta   60.00000000
_cell_angle_gamma   90.00000000
_symmetry_Int_Tables_number   1
_chemical_formula_structural   CrNi2
_chemical_formula_sum   'Cr72 Ni144'
_cell_volume   5905.33092542
_cell_formula_units_Z   72
loop_
 _symmetry_equiv_pos_site_id
 _symmetry_equiv_pos_as_xyz
  1  'x, y, z'
loop_
 _atom_site_type_symbol
 _atom_site_label
 _atom_site_symmetry_multiplicity
 _atom_site_fract_x
 _atom_site_fract_y
 _atom_site_fract_z
 _atom_site_occupancy
  Cr  Cr0  1  0.08333333  0.25000000  0.04166667  1.0
  Cr  Cr1  1  0.08333333  0.58333333  0.04166667  1.0
  Cr  Cr2  1  0.08333333  0.91666667  0.04166667  1.0
  Cr  Cr3  1  0.41666667  0.25000000  0.04166667  1.0
  Cr  Cr4  1  0.41666667  0.58333333  0.04166667  1.0
  Cr  Cr5  1  0.41666667  0.91666667  0.04166667  1.0
  Cr  Cr6  1  0.75000000  0.25000000  0.04166667  1.0
  Cr  Cr7  1  0.75000000  0.58333333  0.04166667  1.0
  Cr  Cr8  1  0.75000000  0.91666667  0.04166667  1.0
  Cr  Cr9  1  0.16666667  0.16666667  0.09722222  1.0
  Cr  Cr10  1  0.16666667  0.50000000  0.09722222  1.0
  Cr  Cr11  1  0.16666667  0.83333333  0.09722222  1.0
  Cr  Cr12  1  0.50000000  0.16666667  0.09722222  1.0
  Cr  Cr13  1  0.50000000  0.50000000  0.09722222  1.0
  Cr  Cr14  1  0.50000000  0.83333333  0.09722222  1.0
  Cr  Cr15  1  0.83333333  0.16666667  0.09722222  1.0
  Cr  Cr16  1  0.83333333  0.50000000  0.09722222  1.0
  Cr  Cr17  1  0.83333333  0.83333333  0.09722222  1.0
  Ni  Ni18  1  0.12500000  0.04166667  0.06944444  1.0
  Ni  Ni19  1  0.12500000  0.37500000  0.06944444  1.0
  Ni  Ni20  1  0.12500000  0.70833333  0.06944444  1.0
  Ni  Ni21  1  0.45833333  0.04166667  0.06944444  1.0
  Ni  Ni22  1  0.45833333  0.37500000  0.06944444  1.0
  Ni  Ni23  1  0.45833333  0.70833333  0.06944444  1.0
  Ni  Ni24  1  0.79166667  0.04166667  0.06944444  1.0
  Ni  Ni25  1  0.79166667  0.37500000  0.06944444  1.0
  Ni  Ni26  1  0.79166667  0.70833333  0.06944444  1.0
  Ni  Ni27  1  0.29166667  0.04166667  0.01388889  1.0
  Ni  Ni28  1  0.29166667  0.37500000  0.01388889  1.0
  Ni  Ni29  1  0.29166667  0.70833333  0.01388889  1.0
  Ni  Ni30  1  0.62500000  0.04166667  0.01388889  1.0
  Ni  Ni31  1  0.62500000  0.37500000  0.01388889  1.0
  Ni  Ni32  1  0.62500000  0.70833333  0.01388889  1.0
  Ni  Ni33  1  0.95833333  0.04166667  0.01388889  1.0
  Ni  Ni34  1  0.95833333  0.37500000  0.01388889  1.0
  Ni  Ni35  1  0.95833333  0.70833333  0.01388889  1.0
  Ni  Ni36  1  0.29166667  0.20833333  0.01388889  1.0
  Ni  Ni37  1  0.29166667  0.54166667  0.01388889  1.0
  Ni  Ni38  1  0.29166667  0.87500000  0.01388889  1.0
  Ni  Ni39  1  0.62500000  0.20833333  0.01388889  1.0
  Ni  Ni40  1  0.62500000  0.54166667  0.01388889  1.0
  Ni  Ni41  1  0.62500000  0.87500000  0.01388889  1.0
  Ni  Ni42  1  0.95833333  0.20833333  0.01388889  1.0
  Ni  Ni43  1  0.95833333  0.54166667  0.01388889  1.0
  Ni  Ni44  1  0.95833333  0.87500000  0.01388889  1.0
  Ni  Ni45  1  0.29166667  0.04166667  0.06944444  1.0
  Ni  Ni46  1  0.29166667  0.37500000  0.06944444  1.0
  Ni  Ni47  1  0.29166667  0.70833333  0.06944444  1.0
  Ni  Ni48  1  0.62500000  0.04166667  0.06944444  1.0
  Ni  Ni49  1  0.62500000  0.37500000  0.06944444  1.0
  Ni  Ni50  1  0.62500000  0.70833333  0.06944444  1.0
  Ni  Ni51  1  0.95833333  0.04166667  0.06944444  1.0
  Ni  Ni52  1  0.95833333  0.37500000  0.06944444  1.0
  Ni  Ni53  1  0.95833333  0.70833333  0.06944444  1.0
  Cr  Cr54  1  0.08333333  0.25000000  0.15277778  1.0
  Cr  Cr55  1  0.08333333  0.58333333  0.15277778  1.0
  Cr  Cr56  1  0.08333333  0.91666667  0.15277778  1.0
  Cr  Cr57  1  0.41666667  0.25000000  0.15277778  1.0
  Cr  Cr58  1  0.41666667  0.58333333  0.15277778  1.0
  Cr  Cr59  1  0.41666667  0.91666667  0.15277778  1.0
  Cr  Cr60  1  0.75000000  0.25000000  0.15277778  1.0
  Cr  Cr61  1  0.75000000  0.58333333  0.15277778  1.0
  Cr  Cr62  1  0.75000000  0.91666667  0.15277778  1.0
  Cr  Cr63  1  0.16666667  0.16666667  0.20833333  1.0
  Cr  Cr64  1  0.16666667  0.50000000  0.20833333  1.0
  Cr  Cr65  1  0.16666667  0.83333333  0.20833333  1.0
  Cr  Cr66  1  0.50000000  0.16666667  0.20833333  1.0
  Cr  Cr67  1  0.50000000  0.50000000  0.20833333  1.0
  Cr  Cr68  1  0.50000000  0.83333333  0.20833333  1.0
  Cr  Cr69  1  0.83333333  0.16666667  0.20833333  1.0
  Cr  Cr70  1  0.83333333  0.50000000  0.20833333  1.0
  Cr  Cr71  1  0.83333333  0.83333333  0.20833333  1.0
  Ni  Ni72  1  0.12500000  0.04166667  0.18055556  1.0
  Ni  Ni73  1  0.12500000  0.37500000  0.18055556  1.0
  Ni  Ni74  1  0.12500000  0.70833333  0.18055556  1.0
  Ni  Ni75  1  0.45833333  0.04166667  0.18055556  1.0
  Ni  Ni76  1  0.45833333  0.37500000  0.18055556  1.0
  Ni  Ni77  1  0.45833333  0.70833333  0.18055556  1.0
  Ni  Ni78  1  0.79166667  0.04166667  0.18055556  1.0
  Ni  Ni79  1  0.79166667  0.37500000  0.18055556  1.0
  Ni  Ni80  1  0.79166667  0.70833333  0.18055556  1.0
  Ni  Ni81  1  0.29166667  0.04166667  0.12500000  1.0
  Ni  Ni82  1  0.29166667  0.37500000  0.12500000  1.0
  Ni  Ni83  1  0.29166667  0.70833333  0.12500000  1.0
  Ni  Ni84  1  0.62500000  0.04166667  0.12500000  1.0
  Ni  Ni85  1  0.62500000  0.37500000  0.12500000  1.0
  Ni  Ni86  1  0.62500000  0.70833333  0.12500000  1.0
  Ni  Ni87  1  0.95833333  0.04166667  0.12500000  1.0
  Ni  Ni88  1  0.95833333  0.37500000  0.12500000  1.0
  Ni  Ni89  1  0.95833333  0.70833333  0.12500000  1.0
  Ni  Ni90  1  0.29166667  0.20833333  0.12500000  1.0
  Ni  Ni91  1  0.29166667  0.54166667  0.12500000  1.0
  Ni  Ni92  1  0.29166667  0.87500000  0.12500000  1.0
  Ni  Ni93  1  0.62500000  0.20833333  0.12500000  1.0
  Ni  Ni94  1  0.62500000  0.54166667  0.12500000  1.0
  Ni  Ni95  1  0.62500000  0.87500000  0.12500000  1.0
  Ni  Ni96  1  0.95833333  0.20833333  0.12500000  1.0
  Ni  Ni97  1  0.95833333  0.54166667  0.12500000  1.0
  Ni  Ni98  1  0.95833333  0.87500000  0.12500000  1.0
  Ni  Ni99  1  0.29166667  0.04166667  0.18055556  1.0
  Ni  Ni100  1  0.29166667  0.37500000  0.18055556  1.0
  Ni  Ni101  1  0.29166667  0.70833333  0.18055556  1.0
  Ni  Ni102  1  0.62500000  0.04166667  0.18055556  1.0
  Ni  Ni103  1  0.62500000  0.37500000  0.18055556  1.0
  Ni  Ni104  1  0.62500000  0.70833333  0.18055556  1.0
  Ni  Ni105  1  0.95833333  0.04166667  0.18055556  1.0
  Ni  Ni106  1  0.95833333  0.37500000  0.18055556  1.0
  Ni  Ni107  1  0.95833333  0.70833333  0.18055556  1.0
  Cr  Cr108  1  0.08333333  0.25000000  0.26388889  1.0
  Cr  Cr109  1  0.08333333  0.58333333  0.26388889  1.0
  Cr  Cr110  1  0.08333333  0.91666667  0.26388889  1.0
  Cr  Cr111  1  0.41666667  0.25000000  0.26388889  1.0
  Cr  Cr112  1  0.41666667  0.58333333  0.26388889  1.0
  Cr  Cr113  1  0.41666667  0.91666667  0.26388889  1.0
  Cr  Cr114  1  0.75000000  0.25000000  0.26388889  1.0
  Cr  Cr115  1  0.75000000  0.58333333  0.26388889  1.0
  Cr  Cr116  1  0.75000000  0.91666667  0.26388889  1.0
  Cr  Cr117  1  0.16666667  0.16666667  0.31944444  1.0
  Cr  Cr118  1  0.16666667  0.50000000  0.31944444  1.0
  Cr  Cr119  1  0.16666667  0.83333333  0.31944444  1.0
  Cr  Cr120  1  0.50000000  0.16666667  0.31944444  1.0
  Cr  Cr121  1  0.50000000  0.50000000  0.31944444  1.0
  Cr  Cr122  1  0.50000000  0.83333333  0.31944444  1.0
  Cr  Cr123  1  0.83333333  0.16666667  0.31944444  1.0
  Cr  Cr124  1  0.83333333  0.50000000  0.31944444  1.0
  Cr  Cr125  1  0.83333333  0.83333333  0.31944444  1.0
  Ni  Ni126  1  0.12500000  0.04166667  0.29166667  1.0
  Ni  Ni127  1  0.12500000  0.37500000  0.29166667  1.0
  Ni  Ni128  1  0.12500000  0.70833333  0.29166667  1.0
  Ni  Ni129  1  0.45833333  0.04166667  0.29166667  1.0
  Ni  Ni130  1  0.45833333  0.37500000  0.29166667  1.0
  Ni  Ni131  1  0.45833333  0.70833333  0.29166667  1.0
  Ni  Ni132  1  0.79166667  0.04166667  0.29166667  1.0
  Ni  Ni133  1  0.79166667  0.37500000  0.29166667  1.0
  Ni  Ni134  1  0.79166667  0.70833333  0.29166667  1.0
  Ni  Ni135  1  0.29166667  0.04166667  0.23611111  1.0
  Ni  Ni136  1  0.29166667  0.37500000  0.23611111  1.0
  Ni  Ni137  1  0.29166667  0.70833333  0.23611111  1.0
  Ni  Ni138  1  0.62500000  0.04166667  0.23611111  1.0
  Ni  Ni139  1  0.62500000  0.37500000  0.23611111  1.0
  Ni  Ni140  1  0.62500000  0.70833333  0.23611111  1.0
  Ni  Ni141  1  0.95833333  0.04166667  0.23611111  1.0
  Ni  Ni142  1  0.95833333  0.37500000  0.23611111  1.0
  Ni  Ni143  1  0.95833333  0.70833333  0.23611111  1.0
  Ni  Ni144  1  0.29166667  0.20833333  0.23611111  1.0
  Ni  Ni145  1  0.29166667  0.54166667  0.23611111  1.0
  Ni  Ni146  1  0.29166667  0.87500000  0.23611111  1.0
  Ni  Ni147  1  0.62500000  0.20833333  0.23611111  1.0
  Ni  Ni148  1  0.62500000  0.54166667  0.23611111  1.0
  Ni  Ni149  1  0.62500000  0.87500000  0.23611111  1.0
  Ni  Ni150  1  0.95833333  0.20833333  0.23611111  1.0
  Ni  Ni151  1  0.95833333  0.54166667  0.23611111  1.0
  Ni  Ni152  1  0.95833333  0.87500000  0.23611111  1.0
  Ni  Ni153  1  0.29166667  0.04166667  0.29166667  1.0
  Ni  Ni154  1  0.29166667  0.37500000  0.29166667  1.0
  Ni  Ni155  1  0.29166667  0.70833333  0.29166667  1.0
  Ni  Ni156  1  0.62500000  0.04166667  0.29166667  1.0
  Ni  Ni157  1  0.62500000  0.37500000  0.29166667  1.0
  Ni  Ni158  1  0.62500000  0.70833333  0.29166667  1.0
  Ni  Ni159  1  0.95833333  0.04166667  0.29166667  1.0
  Ni  Ni160  1  0.95833333  0.37500000  0.29166667  1.0
  Ni  Ni161  1  0.95833333  0.70833333  0.29166667  1.0
  Cr  Cr162  1  0.08333333  0.25000000  0.37500000  1.0
  Cr  Cr163  1  0.08333333  0.58333333  0.37500000  1.0
  Cr  Cr164  1  0.08333333  0.91666667  0.37500000  1.0
  Cr  Cr165  1  0.41666667  0.25000000  0.37500000  1.0
  Cr  Cr166  1  0.41666667  0.58333333  0.37500000  1.0
  Cr  Cr167  1  0.41666667  0.91666667  0.37500000  1.0
  Cr  Cr168  1  0.75000000  0.25000000  0.37500000  1.0
  Cr  Cr169  1  0.75000000  0.58333333  0.37500000  1.0
  Cr  Cr170  1  0.75000000  0.91666667  0.37500000  1.0
  Cr  Cr171  1  0.16666667  0.16666667  0.43055556  1.0
  Cr  Cr172  1  0.16666667  0.50000000  0.43055556  1.0
  Cr  Cr173  1  0.16666667  0.83333333  0.43055556  1.0
  Cr  Cr174  1  0.50000000  0.16666667  0.43055556  1.0
  Cr  Cr175  1  0.50000000  0.50000000  0.43055556  1.0
  Cr  Cr176  1  0.50000000  0.83333333  0.43055556  1.0
  Cr  Cr177  1  0.83333333  0.16666667  0.43055556  1.0
  Cr  Cr178  1  0.83333333  0.50000000  0.43055556  1.0
  Cr  Cr179  1  0.83333333  0.83333333  0.43055556  1.0
  Ni  Ni180  1  0.12500000  0.04166667  0.40277778  1.0
  Ni  Ni181  1  0.12500000  0.37500000  0.40277778  1.0
  Ni  Ni182  1  0.12500000  0.70833333  0.40277778  1.0
  Ni  Ni183  1  0.45833333  0.04166667  0.40277778  1.0
  Ni  Ni184  1  0.45833333  0.37500000  0.40277778  1.0
  Ni  Ni185  1  0.45833333  0.70833333  0.40277778  1.0
  Ni  Ni186  1  0.79166667  0.04166667  0.40277778  1.0
  Ni  Ni187  1  0.79166667  0.37500000  0.40277778  1.0
  Ni  Ni188  1  0.79166667  0.70833333  0.40277778  1.0
  Ni  Ni189  1  0.29166667  0.04166667  0.34722222  1.0
  Ni  Ni190  1  0.29166667  0.37500000  0.34722222  1.0
  Ni  Ni191  1  0.29166667  0.70833333  0.34722222  1.0
  Ni  Ni192  1  0.62500000  0.04166667  0.34722222  1.0
  Ni  Ni193  1  0.62500000  0.37500000  0.34722222  1.0
  Ni  Ni194  1  0.62500000  0.70833333  0.34722222  1.0
  Ni  Ni195  1  0.95833333  0.04166667  0.34722222  1.0
  Ni  Ni196  1  0.95833333  0.37500000  0.34722222  1.0
  Ni  Ni197  1  0.95833333  0.70833333  0.34722222  1.0
  Ni  Ni198  1  0.29166667  0.20833333  0.34722222  1.0
  Ni  Ni199  1  0.29166667  0.54166667  0.34722222  1.0
  Ni  Ni200  1  0.29166667  0.87500000  0.34722222  1.0
  Ni  Ni201  1  0.62500000  0.20833333  0.34722222  1.0
  Ni  Ni202  1  0.62500000  0.54166667  0.34722222  1.0
  Ni  Ni203  1  0.62500000  0.87500000  0.34722222  1.0
  Ni  Ni204  1  0.95833333  0.20833333  0.34722222  1.0
  Ni  Ni205  1  0.95833333  0.54166667  0.34722222  1.0
  Ni  Ni206  1  0.95833333  0.87500000  0.34722222  1.0
  Ni  Ni207  1  0.29166667  0.04166667  0.40277778  1.0
  Ni  Ni208  1  0.29166667  0.37500000  0.40277778  1.0
  Ni  Ni209  1  0.29166667  0.70833333  0.40277778  1.0
  Ni  Ni210  1  0.62500000  0.04166667  0.40277778  1.0
  Ni  Ni211  1  0.62500000  0.37500000  0.40277778  1.0
  Ni  Ni212  1  0.62500000  0.70833333  0.40277778  1.0
  Ni  Ni213  1  0.95833333  0.04166667  0.40277778  1.0
  Ni  Ni214  1  0.95833333  0.37500000  0.40277778  1.0
  Ni  Ni215  1  0.95833333  0.70833333  0.40277778  1.0
