# generated using pymatgen
data_CrNi
_symmetry_space_group_name_H-M   'P 1'
_cell_length_a   13.16903793
_cell_length_b   25.25745032
_cell_length_c   96.57294482
_cell_angle_alpha   16.46946188
_cell_angle_beta   32.93892376
_cell_angle_gamma   28.93637581
_symmetry_Int_Tables_number   1
_chemical_formula_structural   CrNi
_chemical_formula_sum   'Cr81 Ni81'
_cell_volume   4406.14399659
_cell_formula_units_Z   81
loop_
 _symmetry_equiv_pos_site_id
 _symmetry_equiv_pos_as_xyz
  1  'x, y, z'
loop_
 _atom_site_type_symbol
 _atom_site_label
 _atom_site_symmetry_multiplicity
 _atom_site_fract_x
 _atom_site_fract_y
 _atom_site_fract_z
 _atom_site_occupancy
  Cr  Cr0  1  0.00000000  0.00000000  0.02272727  1.0
  Cr  Cr1  1  0.00000000  0.33333333  0.02272727  1.0
  Cr  Cr2  1  0.00000000  0.66666667  0.02272727  1.0
  Cr  Cr3  1  0.33333333  0.00000000  0.02272727  1.0
  Cr  Cr4  1  0.33333333  0.33333333  0.02272727  1.0
  Cr  Cr5  1  0.33333333  0.66666667  0.02272727  1.0
  Cr  Cr6  1  0.66666667  0.00000000  0.02272727  1.0
  Cr  Cr7  1  0.66666667  0.33333333  0.02272727  1.0
  Cr  Cr8  1  0.66666667  0.66666667  0.02272727  1.0
  Ni  Ni9  1  0.16666667  0.16666667  0.02272727  1.0
  Ni  Ni10  1  0.16666667  0.50000000  0.02272727  1.0
  Ni  Ni11  1  0.16666667  0.83333333  0.02272727  1.0
  Ni  Ni12  1  0.50000000  0.16666667  0.02272727  1.0
  Ni  Ni13  1  0.50000000  0.50000000  0.02272727  1.0
  Ni  Ni14  1  0.50000000  0.83333333  0.02272727  1.0
  Ni  Ni15  1  0.83333333  0.16666667  0.02272727  1.0
  Ni  Ni16  1  0.83333333  0.50000000  0.02272727  1.0
  Ni  Ni17  1  0.83333333  0.83333333  0.02272727  1.0
  Cr  Cr18  1  0.00000000  0.00000000  0.06818182  1.0
  Cr  Cr19  1  0.00000000  0.33333333  0.06818182  1.0
  Cr  Cr20  1  0.00000000  0.66666667  0.06818182  1.0
  Cr  Cr21  1  0.33333333  0.00000000  0.06818182  1.0
  Cr  Cr22  1  0.33333333  0.33333333  0.06818182  1.0
  Cr  Cr23  1  0.33333333  0.66666667  0.06818182  1.0
  Cr  Cr24  1  0.66666667  0.00000000  0.06818182  1.0
  Cr  Cr25  1  0.66666667  0.33333333  0.06818182  1.0
  Cr  Cr26  1  0.66666667  0.66666667  0.06818182  1.0
  Ni  Ni27  1  0.16666667  0.16666667  0.06818182  1.0
  Ni  Ni28  1  0.16666667  0.50000000  0.06818182  1.0
  Ni  Ni29  1  0.16666667  0.83333333  0.06818182  1.0
  Ni  Ni30  1  0.50000000  0.16666667  0.06818182  1.0
  Ni  Ni31  1  0.50000000  0.50000000  0.06818182  1.0
  Ni  Ni32  1  0.50000000  0.83333333  0.06818182  1.0
  Ni  Ni33  1  0.83333333  0.16666667  0.06818182  1.0
  Ni  Ni34  1  0.83333333  0.50000000  0.06818182  1.0
  Ni  Ni35  1  0.83333333  0.83333333  0.06818182  1.0
  Cr  Cr36  1  0.00000000  0.00000000  0.11363636  1.0
  Cr  Cr37  1  0.00000000  0.33333333  0.11363636  1.0
  Cr  Cr38  1  0.00000000  0.66666667  0.11363636  1.0
  Cr  Cr39  1  0.33333333  0.00000000  0.11363636  1.0
  Cr  Cr40  1  0.33333333  0.33333333  0.11363636  1.0
  Cr  Cr41  1  0.33333333  0.66666667  0.11363636  1.0
  Cr  Cr42  1  0.66666667  0.00000000  0.11363636  1.0
  Cr  Cr43  1  0.66666667  0.33333333  0.11363636  1.0
  Cr  Cr44  1  0.66666667  0.66666667  0.11363636  1.0
  Ni  Ni45  1  0.16666667  0.16666667  0.11363636  1.0
  Ni  Ni46  1  0.16666667  0.50000000  0.11363636  1.0
  Ni  Ni47  1  0.16666667  0.83333333  0.11363636  1.0
  Ni  Ni48  1  0.50000000  0.16666667  0.11363636  1.0
  Ni  Ni49  1  0.50000000  0.50000000  0.11363636  1.0
  Ni  Ni50  1  0.50000000  0.83333333  0.11363636  1.0
  Ni  Ni51  1  0.83333333  0.16666667  0.11363636  1.0
  Ni  Ni52  1  0.83333333  0.50000000  0.11363636  1.0
  Ni  Ni53  1  0.83333333  0.83333333  0.11363636  1.0
  Cr  Cr54  1  0.00000000  0.00000000  0.15909091  1.0
  Cr  Cr55  1  0.00000000  0.33333333  0.15909091  1.0
  Cr  Cr56  1  0.00000000  0.66666667  0.15909091  1.0
  Cr  Cr57  1  0.33333333  0.00000000  0.15909091  1.0
  Cr  Cr58  1  0.33333333  0.33333333  0.15909091  1.0
  Cr  Cr59  1  0.33333333  0.66666667  0.15909091  1.0
  Cr  Cr60  1  0.66666667  0.00000000  0.15909091  1.0
  Cr  Cr61  1  0.66666667  0.33333333  0.15909091  1.0
  Cr  Cr62  1  0.66666667  0.66666667  0.15909091  1.0
  Ni  Ni63  1  0.16666667  0.16666667  0.15909091  1.0
  Ni  Ni64  1  0.16666667  0.50000000  0.15909091  1.0
  Ni  Ni65  1  0.16666667  0.83333333  0.15909091  1.0
  Ni  Ni66  1  0.50000000  0.16666667  0.15909091  1.0
  Ni  Ni67  1  0.50000000  0.50000000  0.15909091  1.0
  Ni  Ni68  1  0.50000000  0.83333333  0.15909091  1.0
  Ni  Ni69  1  0.83333333  0.16666667  0.15909091  1.0
  Ni  Ni70  1  0.83333333  0.50000000  0.15909091  1.0
  Ni  Ni71  1  0.83333333  0.83333333  0.15909091  1.0
  Cr  Cr72  1  0.00000000  0.00000000  0.20454545  1.0
  Cr  Cr73  1  0.00000000  0.33333333  0.20454545  1.0
  Cr  Cr74  1  0.00000000  0.66666667  0.20454545  1.0
  Cr  Cr75  1  0.33333333  0.00000000  0.20454545  1.0
  Cr  Cr76  1  0.33333333  0.33333333  0.20454545  1.0
  Cr  Cr77  1  0.33333333  0.66666667  0.20454545  1.0
  Cr  Cr78  1  0.66666667  0.00000000  0.20454545  1.0
  Cr  Cr79  1  0.66666667  0.33333333  0.20454545  1.0
  Cr  Cr80  1  0.66666667  0.66666667  0.20454545  1.0
  Ni  Ni81  1  0.16666667  0.16666667  0.20454545  1.0
  Ni  Ni82  1  0.16666667  0.50000000  0.20454545  1.0
  Ni  Ni83  1  0.16666667  0.83333333  0.20454545  1.0
  Ni  Ni84  1  0.50000000  0.16666667  0.20454545  1.0
  Ni  Ni85  1  0.50000000  0.50000000  0.20454545  1.0
  Ni  Ni86  1  0.50000000  0.83333333  0.20454545  1.0
  Ni  Ni87  1  0.83333333  0.16666667  0.20454545  1.0
  Ni  Ni88  1  0.83333333  0.50000000  0.20454545  1.0
  Ni  Ni89  1  0.83333333  0.83333333  0.20454545  1.0
  Cr  Cr90  1  0.00000000  0.00000000  0.25000000  1.0
  Cr  Cr91  1  0.00000000  0.33333333  0.25000000  1.0
  Cr  Cr92  1  0.00000000  0.66666667  0.25000000  1.0
  Cr  Cr93  1  0.33333333  0.00000000  0.25000000  1.0
  Cr  Cr94  1  0.33333333  0.33333333  0.25000000  1.0
  Cr  Cr95  1  0.33333333  0.66666667  0.25000000  1.0
  Cr  Cr96  1  0.66666667  0.00000000  0.25000000  1.0
  Cr  Cr97  1  0.66666667  0.33333333  0.25000000  1.0
  Cr  Cr98  1  0.66666667  0.66666667  0.25000000  1.0
  Ni  Ni99  1  0.16666667  0.16666667  0.25000000  1.0
  Ni  Ni100  1  0.16666667  0.50000000  0.25000000  1.0
  Ni  Ni101  1  0.16666667  0.83333333  0.25000000  1.0
  Ni  Ni102  1  0.50000000  0.16666667  0.25000000  1.0
  Ni  Ni103  1  0.50000000  0.50000000  0.25000000  1.0
  Ni  Ni104  1  0.50000000  0.83333333  0.25000000  1.0
  Ni  Ni105  1  0.83333333  0.16666667  0.25000000  1.0
  Ni  Ni106  1  0.83333333  0.50000000  0.25000000  1.0
  Ni  Ni107  1  0.83333333  0.83333333  0.25000000  1.0
  Cr  Cr108  1  0.00000000  0.00000000  0.29545455  1.0
  Cr  Cr109  1  0.00000000  0.33333333  0.29545455  1.0
  Cr  Cr110  1  0.00000000  0.66666667  0.29545455  1.0
  Cr  Cr111  1  0.33333333  0.00000000  0.29545455  1.0
  Cr  Cr112  1  0.33333333  0.33333333  0.29545455  1.0
  Cr  Cr113  1  0.33333333  0.66666667  0.29545455  1.0
  Cr  Cr114  1  0.66666667  0.00000000  0.29545455  1.0
  Cr  Cr115  1  0.66666667  0.33333333  0.29545455  1.0
  Cr  Cr116  1  0.66666667  0.66666667  0.29545455  1.0
  Ni  Ni117  1  0.16666667  0.16666667  0.29545455  1.0
  Ni  Ni118  1  0.16666667  0.50000000  0.29545455  1.0
  Ni  Ni119  1  0.16666667  0.83333333  0.29545455  1.0
  Ni  Ni120  1  0.50000000  0.16666667  0.29545455  1.0
  Ni  Ni121  1  0.50000000  0.50000000  0.29545455  1.0
  Ni  Ni122  1  0.50000000  0.83333333  0.29545455  1.0
  Ni  Ni123  1  0.83333333  0.16666667  0.29545455  1.0
  Ni  Ni124  1  0.83333333  0.50000000  0.29545455  1.0
  Ni  Ni125  1  0.83333333  0.83333333  0.29545455  1.0
  Cr  Cr126  1  0.00000000  0.00000000  0.34090909  1.0
  Cr  Cr127  1  0.00000000  0.33333333  0.34090909  1.0
  Cr  Cr128  1  0.00000000  0.66666667  0.34090909  1.0
  Cr  Cr129  1  0.33333333  0.00000000  0.34090909  1.0
  Cr  Cr130  1  0.33333333  0.33333333  0.34090909  1.0
  Cr  Cr131  1  0.33333333  0.66666667  0.34090909  1.0
  Cr  Cr132  1  0.66666667  0.00000000  0.34090909  1.0
  Cr  Cr133  1  0.66666667  0.33333333  0.34090909  1.0
  Cr  Cr134  1  0.66666667  0.66666667  0.34090909  1.0
  Ni  Ni135  1  0.16666667  0.16666667  0.34090909  1.0
  Ni  Ni136  1  0.16666667  0.50000000  0.34090909  1.0
  Ni  Ni137  1  0.16666667  0.83333333  0.34090909  1.0
  Ni  Ni138  1  0.50000000  0.16666667  0.34090909  1.0
  Ni  Ni139  1  0.50000000  0.50000000  0.34090909  1.0
  Ni  Ni140  1  0.50000000  0.83333333  0.34090909  1.0
  Ni  Ni141  1  0.83333333  0.16666667  0.34090909  1.0
  Ni  Ni142  1  0.83333333  0.50000000  0.34090909  1.0
  Ni  Ni143  1  0.83333333  0.83333333  0.34090909  1.0
  Cr  Cr144  1  0.00000000  0.00000000  0.38636364  1.0
  Cr  Cr145  1  0.00000000  0.33333333  0.38636364  1.0
  Cr  Cr146  1  0.00000000  0.66666667  0.38636364  1.0
  Cr  Cr147  1  0.33333333  0.00000000  0.38636364  1.0
  Cr  Cr148  1  0.33333333  0.33333333  0.38636364  1.0
  Cr  Cr149  1  0.33333333  0.66666667  0.38636364  1.0
  Cr  Cr150  1  0.66666667  0.00000000  0.38636364  1.0
  Cr  Cr151  1  0.66666667  0.33333333  0.38636364  1.0
  Cr  Cr152  1  0.66666667  0.66666667  0.38636364  1.0
  Ni  Ni153  1  0.16666667  0.16666667  0.38636364  1.0
  Ni  Ni154  1  0.16666667  0.50000000  0.38636364  1.0
  Ni  Ni155  1  0.16666667  0.83333333  0.38636364  1.0
  Ni  Ni156  1  0.50000000  0.16666667  0.38636364  1.0
  Ni  Ni157  1  0.50000000  0.50000000  0.38636364  1.0
  Ni  Ni158  1  0.50000000  0.83333333  0.38636364  1.0
  Ni  Ni159  1  0.83333333  0.16666667  0.38636364  1.0
  Ni  Ni160  1  0.83333333  0.50000000  0.38636364  1.0
  Ni  Ni161  1  0.83333333  0.83333333  0.38636364  1.0
