# generated using pymatgen
data_CrNi
_symmetry_space_group_name_H-M   'P 1'
_cell_length_a   7.46695677
_cell_length_b   16.88000139
_cell_length_c   39.50711379
_cell_angle_alpha   58.03932849
_cell_angle_beta   106.46946188
_cell_angle_gamma   77.22179082
_symmetry_Int_Tables_number   1
_chemical_formula_structural   CrNi
_chemical_formula_sum   'Cr72 Ni72'
_cell_volume   3605.02690630
_cell_formula_units_Z   72
loop_
 _symmetry_equiv_pos_site_id
 _symmetry_equiv_pos_as_xyz
  1  'x, y, z'
loop_
 _atom_site_type_symbol
 _atom_site_label
 _atom_site_symmetry_multiplicity
 _atom_site_fract_x
 _atom_site_fract_y
 _atom_site_fract_z
 _atom_site_occupancy
  Cr  Cr0  1  0.00000000  0.00000000  0.09722222  1.0
  Cr  Cr1  1  0.00000000  0.33333333  0.09722222  1.0
  Cr  Cr2  1  1.00000000  0.66666667  0.09722222  1.0
  Cr  Cr3  1  0.33333333  0.00000000  0.09722222  1.0
  Cr  Cr4  1  0.33333333  0.33333333  0.09722222  1.0
  Cr  Cr5  1  0.33333333  0.66666667  0.09722222  1.0
  Cr  Cr6  1  0.66666667  0.00000000  0.09722222  1.0
  Cr  Cr7  1  0.66666667  0.33333333  0.09722222  1.0
  Cr  Cr8  1  0.66666667  0.66666667  0.09722222  1.0
  Cr  Cr9  1  0.00000000  0.16666667  0.04166667  1.0
  Cr  Cr10  1  0.00000000  0.50000000  0.04166667  1.0
  Cr  Cr11  1  0.00000000  0.83333333  0.04166667  1.0
  Cr  Cr12  1  0.33333333  0.16666667  0.04166667  1.0
  Cr  Cr13  1  0.33333333  0.50000000  0.04166667  1.0
  Cr  Cr14  1  0.33333333  0.83333333  0.04166667  1.0
  Cr  Cr15  1  0.66666667  0.16666667  0.04166667  1.0
  Cr  Cr16  1  0.66666667  0.50000000  0.04166667  1.0
  Cr  Cr17  1  0.66666667  0.83333333  0.04166667  1.0
  Ni  Ni18  1  0.16666667  0.08333333  0.01388889  1.0
  Ni  Ni19  1  0.16666667  0.41666667  0.01388889  1.0
  Ni  Ni20  1  0.16666667  0.75000000  0.01388889  1.0
  Ni  Ni21  1  0.50000000  0.08333333  0.01388889  1.0
  Ni  Ni22  1  0.50000000  0.41666667  0.01388889  1.0
  Ni  Ni23  1  0.50000000  0.75000000  0.01388889  1.0
  Ni  Ni24  1  0.83333333  0.08333333  0.01388889  1.0
  Ni  Ni25  1  0.83333333  0.41666667  0.01388889  1.0
  Ni  Ni26  1  0.83333333  0.75000000  0.01388889  1.0
  Ni  Ni27  1  0.16666667  0.25000000  0.06944444  1.0
  Ni  Ni28  1  0.16666667  0.58333333  0.06944444  1.0
  Ni  Ni29  1  0.16666667  0.91666667  0.06944444  1.0
  Ni  Ni30  1  0.50000000  0.25000000  0.06944444  1.0
  Ni  Ni31  1  0.50000000  0.58333333  0.06944444  1.0
  Ni  Ni32  1  0.50000000  0.91666667  0.06944444  1.0
  Ni  Ni33  1  0.83333333  0.25000000  0.06944444  1.0
  Ni  Ni34  1  0.83333333  0.58333333  0.06944444  1.0
  Ni  Ni35  1  0.83333333  0.91666667  0.06944444  1.0
  Cr  Cr36  1  0.00000000  0.00000000  0.20833333  1.0
  Cr  Cr37  1  0.00000000  0.33333333  0.20833333  1.0
  Cr  Cr38  1  1.00000000  0.66666667  0.20833333  1.0
  Cr  Cr39  1  0.33333333  0.00000000  0.20833333  1.0
  Cr  Cr40  1  0.33333333  0.33333333  0.20833333  1.0
  Cr  Cr41  1  0.33333333  0.66666667  0.20833333  1.0
  Cr  Cr42  1  0.66666667  0.00000000  0.20833333  1.0
  Cr  Cr43  1  0.66666667  0.33333333  0.20833333  1.0
  Cr  Cr44  1  0.66666667  0.66666667  0.20833333  1.0
  Cr  Cr45  1  0.00000000  0.16666667  0.15277778  1.0
  Cr  Cr46  1  0.00000000  0.50000000  0.15277778  1.0
  Cr  Cr47  1  0.00000000  0.83333333  0.15277778  1.0
  Cr  Cr48  1  0.33333333  0.16666667  0.15277778  1.0
  Cr  Cr49  1  0.33333333  0.50000000  0.15277778  1.0
  Cr  Cr50  1  0.33333333  0.83333333  0.15277778  1.0
  Cr  Cr51  1  0.66666667  0.16666667  0.15277778  1.0
  Cr  Cr52  1  0.66666667  0.50000000  0.15277778  1.0
  Cr  Cr53  1  0.66666667  0.83333333  0.15277778  1.0
  Ni  Ni54  1  0.16666667  0.08333333  0.12500000  1.0
  Ni  Ni55  1  0.16666667  0.41666667  0.12500000  1.0
  Ni  Ni56  1  0.16666667  0.75000000  0.12500000  1.0
  Ni  Ni57  1  0.50000000  0.08333333  0.12500000  1.0
  Ni  Ni58  1  0.50000000  0.41666667  0.12500000  1.0
  Ni  Ni59  1  0.50000000  0.75000000  0.12500000  1.0
  Ni  Ni60  1  0.83333333  0.08333333  0.12500000  1.0
  Ni  Ni61  1  0.83333333  0.41666667  0.12500000  1.0
  Ni  Ni62  1  0.83333333  0.75000000  0.12500000  1.0
  Ni  Ni63  1  0.16666667  0.25000000  0.18055556  1.0
  Ni  Ni64  1  0.16666667  0.58333333  0.18055556  1.0
  Ni  Ni65  1  0.16666667  0.91666667  0.18055556  1.0
  Ni  Ni66  1  0.50000000  0.25000000  0.18055556  1.0
  Ni  Ni67  1  0.50000000  0.58333333  0.18055556  1.0
  Ni  Ni68  1  0.50000000  0.91666667  0.18055556  1.0
  Ni  Ni69  1  0.83333333  0.25000000  0.18055556  1.0
  Ni  Ni70  1  0.83333333  0.58333333  0.18055556  1.0
  Ni  Ni71  1  0.83333333  0.91666667  0.18055556  1.0
  Cr  Cr72  1  0.00000000  0.00000000  0.31944444  1.0
  Cr  Cr73  1  0.00000000  0.33333333  0.31944444  1.0
  Cr  Cr74  1  1.00000000  0.66666667  0.31944444  1.0
  Cr  Cr75  1  0.33333333  0.00000000  0.31944444  1.0
  Cr  Cr76  1  0.33333333  0.33333333  0.31944444  1.0
  Cr  Cr77  1  0.33333333  0.66666667  0.31944444  1.0
  Cr  Cr78  1  0.66666667  0.00000000  0.31944444  1.0
  Cr  Cr79  1  0.66666667  0.33333333  0.31944444  1.0
  Cr  Cr80  1  0.66666667  0.66666667  0.31944444  1.0
  Cr  Cr81  1  0.00000000  0.16666667  0.26388889  1.0
  Cr  Cr82  1  0.00000000  0.50000000  0.26388889  1.0
  Cr  Cr83  1  0.00000000  0.83333333  0.26388889  1.0
  Cr  Cr84  1  0.33333333  0.16666667  0.26388889  1.0
  Cr  Cr85  1  0.33333333  0.50000000  0.26388889  1.0
  Cr  Cr86  1  0.33333333  0.83333333  0.26388889  1.0
  Cr  Cr87  1  0.66666667  0.16666667  0.26388889  1.0
  Cr  Cr88  1  0.66666667  0.50000000  0.26388889  1.0
  Cr  Cr89  1  0.66666667  0.83333333  0.26388889  1.0
  Ni  Ni90  1  0.16666667  0.08333333  0.23611111  1.0
  Ni  Ni91  1  0.16666667  0.41666667  0.23611111  1.0
  Ni  Ni92  1  0.16666667  0.75000000  0.23611111  1.0
  Ni  Ni93  1  0.50000000  0.08333333  0.23611111  1.0
  Ni  Ni94  1  0.50000000  0.41666667  0.23611111  1.0
  Ni  Ni95  1  0.50000000  0.75000000  0.23611111  1.0
  Ni  Ni96  1  0.83333333  0.08333333  0.23611111  1.0
  Ni  Ni97  1  0.83333333  0.41666667  0.23611111  1.0
  Ni  Ni98  1  0.83333333  0.75000000  0.23611111  1.0
  Ni  Ni99  1  0.16666667  0.25000000  0.29166667  1.0
  Ni  Ni100  1  0.16666667  0.58333333  0.29166667  1.0
  Ni  Ni101  1  0.16666667  0.91666667  0.29166667  1.0
  Ni  Ni102  1  0.50000000  0.25000000  0.29166667  1.0
  Ni  Ni103  1  0.50000000  0.58333333  0.29166667  1.0
  Ni  Ni104  1  0.50000000  0.91666667  0.29166667  1.0
  Ni  Ni105  1  0.83333333  0.25000000  0.29166667  1.0
  Ni  Ni106  1  0.83333333  0.58333333  0.29166667  1.0
  Ni  Ni107  1  0.83333333  0.91666667  0.29166667  1.0
  Cr  Cr108  1  0.00000000  0.00000000  0.43055556  1.0
  Cr  Cr109  1  0.00000000  0.33333333  0.43055556  1.0
  Cr  Cr110  1  1.00000000  0.66666667  0.43055556  1.0
  Cr  Cr111  1  0.33333333  0.00000000  0.43055556  1.0
  Cr  Cr112  1  0.33333333  0.33333333  0.43055556  1.0
  Cr  Cr113  1  0.33333333  0.66666667  0.43055556  1.0
  Cr  Cr114  1  0.66666667  0.00000000  0.43055556  1.0
  Cr  Cr115  1  0.66666667  0.33333333  0.43055556  1.0
  Cr  Cr116  1  0.66666667  0.66666667  0.43055556  1.0
  Cr  Cr117  1  0.00000000  0.16666667  0.37500000  1.0
  Cr  Cr118  1  0.00000000  0.50000000  0.37500000  1.0
  Cr  Cr119  1  0.00000000  0.83333333  0.37500000  1.0
  Cr  Cr120  1  0.33333333  0.16666667  0.37500000  1.0
  Cr  Cr121  1  0.33333333  0.50000000  0.37500000  1.0
  Cr  Cr122  1  0.33333333  0.83333333  0.37500000  1.0
  Cr  Cr123  1  0.66666667  0.16666667  0.37500000  1.0
  Cr  Cr124  1  0.66666667  0.50000000  0.37500000  1.0
  Cr  Cr125  1  0.66666667  0.83333333  0.37500000  1.0
  Ni  Ni126  1  0.16666667  0.08333333  0.34722222  1.0
  Ni  Ni127  1  0.16666667  0.41666667  0.34722222  1.0
  Ni  Ni128  1  0.16666667  0.75000000  0.34722222  1.0
  Ni  Ni129  1  0.50000000  0.08333333  0.34722222  1.0
  Ni  Ni130  1  0.50000000  0.41666667  0.34722222  1.0
  Ni  Ni131  1  0.50000000  0.75000000  0.34722222  1.0
  Ni  Ni132  1  0.83333333  0.08333333  0.34722222  1.0
  Ni  Ni133  1  0.83333333  0.41666667  0.34722222  1.0
  Ni  Ni134  1  0.83333333  0.75000000  0.34722222  1.0
  Ni  Ni135  1  0.16666667  0.25000000  0.40277778  1.0
  Ni  Ni136  1  0.16666667  0.58333333  0.40277778  1.0
  Ni  Ni137  1  0.16666667  0.91666667  0.40277778  1.0
  Ni  Ni138  1  0.50000000  0.25000000  0.40277778  1.0
  Ni  Ni139  1  0.50000000  0.58333333  0.40277778  1.0
  Ni  Ni140  1  0.50000000  0.91666667  0.40277778  1.0
  Ni  Ni141  1  0.83333333  0.25000000  0.40277778  1.0
  Ni  Ni142  1  0.83333333  0.58333333  0.40277778  1.0
  Ni  Ni143  1  0.83333333  0.91666667  0.40277778  1.0
