# generated using pymatgen
data_CrNi2
_symmetry_space_group_name_H-M   'P 1'
_cell_length_a   7.42335600
_cell_length_b   34.01972679
_cell_length_c   28.42836799
_cell_angle_alpha   99.01442827
_cell_angle_beta   90.00000000
_cell_angle_gamma   96.26365028
_symmetry_Int_Tables_number   1
_chemical_formula_structural   CrNi2
_chemical_formula_sum   'Cr90 Ni180'
_cell_volume   7047.24608149
_cell_formula_units_Z   90
loop_
 _symmetry_equiv_pos_site_id
 _symmetry_equiv_pos_as_xyz
  1  'x, y, z'
loop_
 _atom_site_type_symbol
 _atom_site_label
 _atom_site_symmetry_multiplicity
 _atom_site_fract_x
 _atom_site_fract_y
 _atom_site_fract_z
 _atom_site_occupancy
  Cr  Cr0  1  0.24078994  0.12039497  0.96529623  1.0
  Cr  Cr1  1  0.24078994  0.45372831  0.96529623  1.0
  Cr  Cr2  1  0.24078994  0.78706164  0.96529623  1.0
  Cr  Cr3  1  0.57412328  0.12039497  0.96529623  1.0
  Cr  Cr4  1  0.57412328  0.45372831  0.96529623  1.0
  Cr  Cr5  1  0.57412328  0.78706164  0.96529623  1.0
  Cr  Cr6  1  0.90745661  0.12039497  0.96529623  1.0
  Cr  Cr7  1  0.90745661  0.45372831  0.96529623  1.0
  Cr  Cr8  1  0.90745661  0.78706164  0.96529623  1.0
  Cr  Cr9  1  0.12967883  0.23150608  0.92362956  1.0
  Cr  Cr10  1  0.12967883  0.56483942  0.92362956  1.0
  Cr  Cr11  1  0.12967883  0.89817275  0.92362956  1.0
  Cr  Cr12  1  0.46301217  0.23150608  0.92362956  1.0
  Cr  Cr13  1  0.46301217  0.56483942  0.92362956  1.0
  Cr  Cr14  1  0.46301217  0.89817275  0.92362956  1.0
  Cr  Cr15  1  0.79634550  0.23150608  0.92362956  1.0
  Cr  Cr16  1  0.79634550  0.56483942  0.92362956  1.0
  Cr  Cr17  1  0.79634550  0.89817275  0.92362956  1.0
  Cr  Cr18  1  0.01856772  0.00928386  0.88196290  1.0
  Cr  Cr19  1  0.01856772  0.34261719  0.88196290  1.0
  Cr  Cr20  1  0.01856772  0.67595053  0.88196290  1.0
  Cr  Cr21  1  0.35190106  0.00928386  0.88196290  1.0
  Cr  Cr22  1  0.35190106  0.34261719  0.88196290  1.0
  Cr  Cr23  1  0.35190106  0.67595053  0.88196290  1.0
  Cr  Cr24  1  0.68523439  0.00928386  0.88196290  1.0
  Cr  Cr25  1  0.68523439  0.34261719  0.88196290  1.0
  Cr  Cr26  1  0.68523439  0.67595053  0.88196290  1.0
  Cr  Cr27  1  0.24078994  0.12039497  0.84029623  1.0
  Cr  Cr28  1  0.24078994  0.45372831  0.84029623  1.0
  Cr  Cr29  1  0.24078994  0.78706164  0.84029623  1.0
  Cr  Cr30  1  0.57412328  0.12039497  0.84029623  1.0
  Cr  Cr31  1  0.57412328  0.45372831  0.84029623  1.0
  Cr  Cr32  1  0.57412328  0.78706164  0.84029623  1.0
  Cr  Cr33  1  0.90745661  0.12039497  0.84029623  1.0
  Cr  Cr34  1  0.90745661  0.45372831  0.84029623  1.0
  Cr  Cr35  1  0.90745661  0.78706164  0.84029623  1.0
  Cr  Cr36  1  0.12967883  0.23150608  0.79862956  1.0
  Cr  Cr37  1  0.12967883  0.56483942  0.79862956  1.0
  Cr  Cr38  1  0.12967883  0.89817275  0.79862956  1.0
  Cr  Cr39  1  0.46301217  0.23150608  0.79862956  1.0
  Cr  Cr40  1  0.46301217  0.56483942  0.79862956  1.0
  Cr  Cr41  1  0.46301217  0.89817275  0.79862956  1.0
  Cr  Cr42  1  0.79634550  0.23150608  0.79862956  1.0
  Cr  Cr43  1  0.79634550  0.56483942  0.79862956  1.0
  Cr  Cr44  1  0.79634550  0.89817275  0.79862956  1.0
  Cr  Cr45  1  0.01856772  0.00928386  0.75696290  1.0
  Cr  Cr46  1  0.01856772  0.34261719  0.75696290  1.0
  Cr  Cr47  1  0.01856772  0.67595053  0.75696290  1.0
  Cr  Cr48  1  0.35190106  0.00928386  0.75696290  1.0
  Cr  Cr49  1  0.35190106  0.34261719  0.75696290  1.0
  Cr  Cr50  1  0.35190106  0.67595053  0.75696290  1.0
  Cr  Cr51  1  0.68523439  0.00928386  0.75696290  1.0
  Cr  Cr52  1  0.68523439  0.34261719  0.75696290  1.0
  Cr  Cr53  1  0.68523439  0.67595053  0.75696290  1.0
  Cr  Cr54  1  0.24078994  0.12039497  0.71529623  1.0
  Cr  Cr55  1  0.24078994  0.45372831  0.71529623  1.0
  Cr  Cr56  1  0.24078994  0.78706164  0.71529623  1.0
  Cr  Cr57  1  0.57412328  0.12039497  0.71529623  1.0
  Cr  Cr58  1  0.57412328  0.45372831  0.71529623  1.0
  Cr  Cr59  1  0.57412328  0.78706164  0.71529623  1.0
  Cr  Cr60  1  0.90745661  0.12039497  0.71529623  1.0
  Cr  Cr61  1  0.90745661  0.45372831  0.71529623  1.0
  Cr  Cr62  1  0.90745661  0.78706164  0.71529623  1.0
  Cr  Cr63  1  0.12967883  0.23150608  0.67362956  1.0
  Cr  Cr64  1  0.12967883  0.56483942  0.67362956  1.0
  Cr  Cr65  1  0.12967883  0.89817275  0.67362956  1.0
  Cr  Cr66  1  0.46301217  0.23150608  0.67362956  1.0
  Cr  Cr67  1  0.46301217  0.56483942  0.67362956  1.0
  Cr  Cr68  1  0.46301217  0.89817275  0.67362956  1.0
  Cr  Cr69  1  0.79634550  0.23150608  0.67362956  1.0
  Cr  Cr70  1  0.79634550  0.56483942  0.67362956  1.0
  Cr  Cr71  1  0.79634550  0.89817275  0.67362956  1.0
  Cr  Cr72  1  0.01856772  0.00928386  0.63196290  1.0
  Cr  Cr73  1  0.01856772  0.34261719  0.63196290  1.0
  Cr  Cr74  1  0.01856772  0.67595053  0.63196290  1.0
  Cr  Cr75  1  0.35190106  0.00928386  0.63196290  1.0
  Cr  Cr76  1  0.35190106  0.34261719  0.63196290  1.0
  Cr  Cr77  1  0.35190106  0.67595053  0.63196290  1.0
  Cr  Cr78  1  0.68523439  0.00928386  0.63196290  1.0
  Cr  Cr79  1  0.68523439  0.34261719  0.63196290  1.0
  Cr  Cr80  1  0.68523439  0.67595053  0.63196290  1.0
  Cr  Cr81  1  0.24078994  0.12039497  0.59029623  1.0
  Cr  Cr82  1  0.24078994  0.45372831  0.59029623  1.0
  Cr  Cr83  1  0.24078994  0.78706164  0.59029623  1.0
  Cr  Cr84  1  0.57412328  0.12039497  0.59029623  1.0
  Cr  Cr85  1  0.57412328  0.45372831  0.59029623  1.0
  Cr  Cr86  1  0.57412328  0.78706164  0.59029623  1.0
  Cr  Cr87  1  0.90745661  0.12039497  0.59029623  1.0
  Cr  Cr88  1  0.90745661  0.45372831  0.59029623  1.0
  Cr  Cr89  1  0.90745661  0.78706164  0.59029623  1.0
  Ni  Ni90  1  0.31476561  0.26834631  0.99303710  1.0
  Ni  Ni91  1  0.31476561  0.60167964  0.99303710  1.0
  Ni  Ni92  1  0.31476561  0.93501297  0.99303710  1.0
  Ni  Ni93  1  0.64809894  0.26834631  0.99303710  1.0
  Ni  Ni94  1  0.64809894  0.60167964  0.99303710  1.0
  Ni  Ni95  1  0.64809894  0.93501297  0.99303710  1.0
  Ni  Ni96  1  0.98143228  0.26834631  0.99303710  1.0
  Ni  Ni97  1  0.98143228  0.60167964  0.99303710  1.0
  Ni  Ni98  1  0.98143228  0.93501297  0.99303710  1.0
  Ni  Ni99  1  0.20365450  0.04612408  0.95137044  1.0
  Ni  Ni100  1  0.20365450  0.37945742  0.95137044  1.0
  Ni  Ni101  1  0.20365450  0.71279075  0.95137044  1.0
  Ni  Ni102  1  0.53698783  0.04612408  0.95137044  1.0
  Ni  Ni103  1  0.53698783  0.37945742  0.95137044  1.0
  Ni  Ni104  1  0.53698783  0.71279075  0.95137044  1.0
  Ni  Ni105  1  0.87032117  0.04612408  0.95137044  1.0
  Ni  Ni106  1  0.87032117  0.37945742  0.95137044  1.0
  Ni  Ni107  1  0.87032117  0.71279075  0.95137044  1.0
  Ni  Ni108  1  0.27792539  0.19466586  0.97922202  1.0
  Ni  Ni109  1  0.27792539  0.52799919  0.97922202  1.0
  Ni  Ni110  1  0.27792539  0.86133253  0.97922202  1.0
  Ni  Ni111  1  0.61125872  0.19466586  0.97922202  1.0
  Ni  Ni112  1  0.61125872  0.52799919  0.97922202  1.0
  Ni  Ni113  1  0.61125872  0.86133253  0.97922202  1.0
  Ni  Ni114  1  0.94459206  0.19466586  0.97922202  1.0
  Ni  Ni115  1  0.94459206  0.52799919  0.97922202  1.0
  Ni  Ni116  1  0.94459206  0.86133253  0.97922202  1.0
  Ni  Ni117  1  0.16681428  0.30577697  0.93755535  1.0
  Ni  Ni118  1  0.16681428  0.63911031  0.93755535  1.0
  Ni  Ni119  1  0.16681428  0.97244364  0.93755535  1.0
  Ni  Ni120  1  0.50014761  0.30577697  0.93755535  1.0
  Ni  Ni121  1  0.50014761  0.63911031  0.93755535  1.0
  Ni  Ni122  1  0.50014761  0.97244364  0.93755535  1.0
  Ni  Ni123  1  0.83348094  0.30577697  0.93755535  1.0
  Ni  Ni124  1  0.83348094  0.63911031  0.93755535  1.0
  Ni  Ni125  1  0.83348094  0.97244364  0.93755535  1.0
  Ni  Ni126  1  0.09254339  0.15723519  0.90970377  1.0
  Ni  Ni127  1  0.09254339  0.49056853  0.90970377  1.0
  Ni  Ni128  1  0.09254339  0.82390186  0.90970377  1.0
  Ni  Ni129  1  0.42587672  0.15723519  0.90970377  1.0
  Ni  Ni130  1  0.42587672  0.49056853  0.90970377  1.0
  Ni  Ni131  1  0.42587672  0.82390186  0.90970377  1.0
  Ni  Ni132  1  0.75921006  0.15723519  0.90970377  1.0
  Ni  Ni133  1  0.75921006  0.49056853  0.90970377  1.0
  Ni  Ni134  1  0.75921006  0.82390186  0.90970377  1.0
  Ni  Ni135  1  0.31476561  0.26834631  0.86803710  1.0
  Ni  Ni136  1  0.31476561  0.60167964  0.86803710  1.0
  Ni  Ni137  1  0.31476561  0.93501297  0.86803710  1.0
  Ni  Ni138  1  0.64809894  0.26834631  0.86803710  1.0
  Ni  Ni139  1  0.64809894  0.60167964  0.86803710  1.0
  Ni  Ni140  1  0.64809894  0.93501297  0.86803710  1.0
  Ni  Ni141  1  0.98143228  0.26834631  0.86803710  1.0
  Ni  Ni142  1  0.98143228  0.60167964  0.86803710  1.0
  Ni  Ni143  1  0.98143228  0.93501297  0.86803710  1.0
  Ni  Ni144  1  0.05570317  0.08355475  0.89588869  1.0
  Ni  Ni145  1  0.05570317  0.41688808  0.89588869  1.0
  Ni  Ni146  1  0.05570317  0.75022142  0.89588869  1.0
  Ni  Ni147  1  0.38903650  0.08355475  0.89588869  1.0
  Ni  Ni148  1  0.38903650  0.41688808  0.89588869  1.0
  Ni  Ni149  1  0.38903650  0.75022142  0.89588869  1.0
  Ni  Ni150  1  0.72236983  0.08355475  0.89588869  1.0
  Ni  Ni151  1  0.72236983  0.41688808  0.89588869  1.0
  Ni  Ni152  1  0.72236983  0.75022142  0.89588869  1.0
  Ni  Ni153  1  0.27792539  0.19466586  0.85422202  1.0
  Ni  Ni154  1  0.27792539  0.52799919  0.85422202  1.0
  Ni  Ni155  1  0.27792539  0.86133253  0.85422202  1.0
  Ni  Ni156  1  0.61125872  0.19466586  0.85422202  1.0
  Ni  Ni157  1  0.61125872  0.52799919  0.85422202  1.0
  Ni  Ni158  1  0.61125872  0.86133253  0.85422202  1.0
  Ni  Ni159  1  0.94459206  0.19466586  0.85422202  1.0
  Ni  Ni160  1  0.94459206  0.52799919  0.85422202  1.0
  Ni  Ni161  1  0.94459206  0.86133253  0.85422202  1.0
  Ni  Ni162  1  0.20365450  0.04612408  0.82637044  1.0
  Ni  Ni163  1  0.20365450  0.37945742  0.82637044  1.0
  Ni  Ni164  1  0.20365450  0.71279075  0.82637044  1.0
  Ni  Ni165  1  0.53698783  0.04612408  0.82637044  1.0
  Ni  Ni166  1  0.53698783  0.37945742  0.82637044  1.0
  Ni  Ni167  1  0.53698783  0.71279075  0.82637044  1.0
  Ni  Ni168  1  0.87032117  0.04612408  0.82637044  1.0
  Ni  Ni169  1  0.87032117  0.37945742  0.82637044  1.0
  Ni  Ni170  1  0.87032117  0.71279075  0.82637044  1.0
  Ni  Ni171  1  0.09254339  0.15723519  0.78470377  1.0
  Ni  Ni172  1  0.09254339  0.49056853  0.78470377  1.0
  Ni  Ni173  1  0.09254339  0.82390186  0.78470377  1.0
  Ni  Ni174  1  0.42587672  0.15723519  0.78470377  1.0
  Ni  Ni175  1  0.42587672  0.49056853  0.78470377  1.0
  Ni  Ni176  1  0.42587672  0.82390186  0.78470377  1.0
  Ni  Ni177  1  0.75921006  0.15723519  0.78470377  1.0
  Ni  Ni178  1  0.75921006  0.49056853  0.78470377  1.0
  Ni  Ni179  1  0.75921006  0.82390186  0.78470377  1.0
  Ni  Ni180  1  0.16681428  0.30577697  0.81255535  1.0
  Ni  Ni181  1  0.16681428  0.63911031  0.81255535  1.0
  Ni  Ni182  1  0.16681428  0.97244364  0.81255535  1.0
  Ni  Ni183  1  0.50014761  0.30577697  0.81255535  1.0
  Ni  Ni184  1  0.50014761  0.63911031  0.81255535  1.0
  Ni  Ni185  1  0.50014761  0.97244364  0.81255535  1.0
  Ni  Ni186  1  0.83348094  0.30577697  0.81255535  1.0
  Ni  Ni187  1  0.83348094  0.63911031  0.81255535  1.0
  Ni  Ni188  1  0.83348094  0.97244364  0.81255535  1.0
  Ni  Ni189  1  0.05570317  0.08355475  0.77088869  1.0
  Ni  Ni190  1  0.05570317  0.41688808  0.77088869  1.0
  Ni  Ni191  1  0.05570317  0.75022142  0.77088869  1.0
  Ni  Ni192  1  0.38903650  0.08355475  0.77088869  1.0
  Ni  Ni193  1  0.38903650  0.41688808  0.77088869  1.0
  Ni  Ni194  1  0.38903650  0.75022142  0.77088869  1.0
  Ni  Ni195  1  0.72236983  0.08355475  0.77088869  1.0
  Ni  Ni196  1  0.72236983  0.41688808  0.77088869  1.0
  Ni  Ni197  1  0.72236983  0.75022142  0.77088869  1.0
  Ni  Ni198  1  0.31476561  0.26834631  0.74303710  1.0
  Ni  Ni199  1  0.31476561  0.60167964  0.74303710  1.0
  Ni  Ni200  1  0.31476561  0.93501297  0.74303710  1.0
  Ni  Ni201  1  0.64809894  0.26834631  0.74303710  1.0
  Ni  Ni202  1  0.64809894  0.60167964  0.74303710  1.0
  Ni  Ni203  1  0.64809894  0.93501297  0.74303710  1.0
  Ni  Ni204  1  0.98143228  0.26834631  0.74303710  1.0
  Ni  Ni205  1  0.98143228  0.60167964  0.74303710  1.0
  Ni  Ni206  1  0.98143228  0.93501297  0.74303710  1.0
  Ni  Ni207  1  0.20365450  0.04612408  0.70137044  1.0
  Ni  Ni208  1  0.20365450  0.37945742  0.70137044  1.0
  Ni  Ni209  1  0.20365450  0.71279075  0.70137044  1.0
  Ni  Ni210  1  0.53698783  0.04612408  0.70137044  1.0
  Ni  Ni211  1  0.53698783  0.37945742  0.70137044  1.0
  Ni  Ni212  1  0.53698783  0.71279075  0.70137044  1.0
  Ni  Ni213  1  0.87032117  0.04612408  0.70137044  1.0
  Ni  Ni214  1  0.87032117  0.37945742  0.70137044  1.0
  Ni  Ni215  1  0.87032117  0.71279075  0.70137044  1.0
  Ni  Ni216  1  0.27792539  0.19466586  0.72922202  1.0
  Ni  Ni217  1  0.27792539  0.52799919  0.72922202  1.0
  Ni  Ni218  1  0.27792539  0.86133253  0.72922202  1.0
  Ni  Ni219  1  0.61125872  0.19466586  0.72922202  1.0
  Ni  Ni220  1  0.61125872  0.52799919  0.72922202  1.0
  Ni  Ni221  1  0.61125872  0.86133253  0.72922202  1.0
  Ni  Ni222  1  0.94459206  0.19466586  0.72922202  1.0
  Ni  Ni223  1  0.94459206  0.52799919  0.72922202  1.0
  Ni  Ni224  1  0.94459206  0.86133253  0.72922202  1.0
  Ni  Ni225  1  0.16681428  0.30577697  0.68755535  1.0
  Ni  Ni226  1  0.16681428  0.63911031  0.68755535  1.0
  Ni  Ni227  1  0.16681428  0.97244364  0.68755535  1.0
  Ni  Ni228  1  0.50014761  0.30577697  0.68755535  1.0
  Ni  Ni229  1  0.50014761  0.63911031  0.68755535  1.0
  Ni  Ni230  1  0.50014761  0.97244364  0.68755535  1.0
  Ni  Ni231  1  0.83348094  0.30577697  0.68755535  1.0
  Ni  Ni232  1  0.83348094  0.63911031  0.68755535  1.0
  Ni  Ni233  1  0.83348094  0.97244364  0.68755535  1.0
  Ni  Ni234  1  0.09254339  0.15723519  0.65970377  1.0
  Ni  Ni235  1  0.09254339  0.49056853  0.65970377  1.0
  Ni  Ni236  1  0.09254339  0.82390186  0.65970377  1.0
  Ni  Ni237  1  0.42587672  0.15723519  0.65970377  1.0
  Ni  Ni238  1  0.42587672  0.49056853  0.65970377  1.0
  Ni  Ni239  1  0.42587672  0.82390186  0.65970377  1.0
  Ni  Ni240  1  0.75921006  0.15723519  0.65970377  1.0
  Ni  Ni241  1  0.75921006  0.49056853  0.65970377  1.0
  Ni  Ni242  1  0.75921006  0.82390186  0.65970377  1.0
  Ni  Ni243  1  0.31476561  0.26834631  0.61803710  1.0
  Ni  Ni244  1  0.31476561  0.60167964  0.61803710  1.0
  Ni  Ni245  1  0.31476561  0.93501297  0.61803710  1.0
  Ni  Ni246  1  0.64809894  0.26834631  0.61803710  1.0
  Ni  Ni247  1  0.64809894  0.60167964  0.61803710  1.0
  Ni  Ni248  1  0.64809894  0.93501297  0.61803710  1.0
  Ni  Ni249  1  0.98143228  0.26834631  0.61803710  1.0
  Ni  Ni250  1  0.98143228  0.60167964  0.61803710  1.0
  Ni  Ni251  1  0.98143228  0.93501297  0.61803710  1.0
  Ni  Ni252  1  0.05570317  0.08355475  0.64588869  1.0
  Ni  Ni253  1  0.05570317  0.41688808  0.64588869  1.0
  Ni  Ni254  1  0.05570317  0.75022142  0.64588869  1.0
  Ni  Ni255  1  0.38903650  0.08355475  0.64588869  1.0
  Ni  Ni256  1  0.38903650  0.41688808  0.64588869  1.0
  Ni  Ni257  1  0.38903650  0.75022142  0.64588869  1.0
  Ni  Ni258  1  0.72236983  0.08355475  0.64588869  1.0
  Ni  Ni259  1  0.72236983  0.41688808  0.64588869  1.0
  Ni  Ni260  1  0.72236983  0.75022142  0.64588869  1.0
  Ni  Ni261  1  0.27792539  0.19466586  0.60422202  1.0
  Ni  Ni262  1  0.27792539  0.52799919  0.60422202  1.0
  Ni  Ni263  1  0.27792539  0.86133253  0.60422202  1.0
  Ni  Ni264  1  0.61125872  0.19466586  0.60422202  1.0
  Ni  Ni265  1  0.61125872  0.52799919  0.60422202  1.0
  Ni  Ni266  1  0.61125872  0.86133253  0.60422202  1.0
  Ni  Ni267  1  0.94459206  0.19466586  0.60422202  1.0
  Ni  Ni268  1  0.94459206  0.52799919  0.60422202  1.0
  Ni  Ni269  1  0.94459206  0.86133253  0.60422202  1.0
