# generated using pymatgen
data_CrNi2
_symmetry_space_group_name_H-M   'P 1'
_cell_length_a   12.99058954
_cell_length_b   10.66063799
_cell_length_c   34.36739936
_cell_angle_alpha   65.56913294
_cell_angle_beta   79.93071615
_cell_angle_gamma   34.85077510
_symmetry_Int_Tables_number   1
_chemical_formula_structural   CrNi2
_chemical_formula_sum   'Cr27 Ni54'
_cell_volume   2349.08202716
_cell_formula_units_Z   27
loop_
 _symmetry_equiv_pos_site_id
 _symmetry_equiv_pos_as_xyz
  1  'x, y, z'
loop_
 _atom_site_type_symbol
 _atom_site_label
 _atom_site_symmetry_multiplicity
 _atom_site_fract_x
 _atom_site_fract_y
 _atom_site_fract_z
 _atom_site_occupancy
  Cr  Cr0  1  0.00000000  0.00000000  0.10427737  1.0
  Cr  Cr1  1  0.00000000  0.33333333  0.10427737  1.0
  Cr  Cr2  1  0.00000000  0.66666667  0.10427737  1.0
  Cr  Cr3  1  0.33333333  0.00000000  0.10427738  1.0
  Cr  Cr4  1  0.33333333  0.33333333  0.10427737  1.0
  Cr  Cr5  1  0.33333333  0.66666667  0.10427737  1.0
  Cr  Cr6  1  0.66666667  0.00000000  0.10427738  1.0
  Cr  Cr7  1  0.66666667  0.33333333  0.10427737  1.0
  Cr  Cr8  1  0.66666667  0.66666667  0.10427737  1.0
  Ni  Ni9  1  0.11140633  0.11052067  0.06283213  1.0
  Ni  Ni10  1  0.11140633  0.44385400  0.06283213  1.0
  Ni  Ni11  1  0.11140633  0.77718733  0.06283213  1.0
  Ni  Ni12  1  0.44473967  0.11052067  0.06283213  1.0
  Ni  Ni13  1  0.44473967  0.44385400  0.06283213  1.0
  Ni  Ni14  1  0.44473967  0.77718733  0.06283212  1.0
  Ni  Ni15  1  0.77807300  0.11052067  0.06283213  1.0
  Ni  Ni16  1  0.77807300  0.44385400  0.06283213  1.0
  Ni  Ni17  1  0.77807300  0.77718733  0.06283213  1.0
  Ni  Ni18  1  0.22192700  0.22281267  0.02072262  1.0
  Ni  Ni19  1  0.22192700  0.55614600  0.02072263  1.0
  Ni  Ni20  1  0.22192700  0.88947933  0.02072262  1.0
  Ni  Ni21  1  0.55526033  0.22281267  0.02072262  1.0
  Ni  Ni22  1  0.55526033  0.55614600  0.02072262  1.0
  Ni  Ni23  1  0.55526033  0.88947933  0.02072262  1.0
  Ni  Ni24  1  0.88859367  0.22281267  0.02072262  1.0
  Ni  Ni25  1  0.88859367  0.55614600  0.02072262  1.0
  Ni  Ni26  1  0.88859367  0.88947933  0.02072262  1.0
  Cr  Cr27  1  0.00000000  0.00000000  0.22927738  1.0
  Cr  Cr28  1  0.00000000  0.33333333  0.22927738  1.0
  Cr  Cr29  1  0.00000000  0.66666667  0.22927738  1.0
  Cr  Cr30  1  0.33333333  0.00000000  0.22927738  1.0
  Cr  Cr31  1  0.33333333  0.33333333  0.22927737  1.0
  Cr  Cr32  1  0.33333333  0.66666667  0.22927737  1.0
  Cr  Cr33  1  0.66666667  0.00000000  0.22927737  1.0
  Cr  Cr34  1  0.66666667  0.33333333  0.22927738  1.0
  Cr  Cr35  1  0.66666667  0.66666667  0.22927738  1.0
  Ni  Ni36  1  0.11140633  0.11052067  0.18783213  1.0
  Ni  Ni37  1  0.11140633  0.44385400  0.18783212  1.0
  Ni  Ni38  1  0.11140633  0.77718733  0.18783213  1.0
  Ni  Ni39  1  0.44473967  0.11052067  0.18783213  1.0
  Ni  Ni40  1  0.44473967  0.44385400  0.18783213  1.0
  Ni  Ni41  1  0.44473967  0.77718733  0.18783212  1.0
  Ni  Ni42  1  0.77807300  0.11052067  0.18783213  1.0
  Ni  Ni43  1  0.77807300  0.44385400  0.18783213  1.0
  Ni  Ni44  1  0.77807300  0.77718733  0.18783213  1.0
  Ni  Ni45  1  0.22192700  0.22281267  0.14572262  1.0
  Ni  Ni46  1  0.22192700  0.55614600  0.14572262  1.0
  Ni  Ni47  1  0.22192700  0.88947933  0.14572262  1.0
  Ni  Ni48  1  0.55526033  0.22281267  0.14572262  1.0
  Ni  Ni49  1  0.55526033  0.55614600  0.14572262  1.0
  Ni  Ni50  1  0.55526033  0.88947933  0.14572262  1.0
  Ni  Ni51  1  0.88859367  0.22281267  0.14572262  1.0
  Ni  Ni52  1  0.88859367  0.55614600  0.14572262  1.0
  Ni  Ni53  1  0.88859367  0.88947933  0.14572262  1.0
  Cr  Cr54  1  0.00000000  0.00000000  0.35427738  1.0
  Cr  Cr55  1  0.00000000  0.33333333  0.35427738  1.0
  Cr  Cr56  1  0.00000000  0.66666667  0.35427737  1.0
  Cr  Cr57  1  0.33333333  0.00000000  0.35427737  1.0
  Cr  Cr58  1  0.33333333  0.33333333  0.35427738  1.0
  Cr  Cr59  1  0.33333333  0.66666667  0.35427737  1.0
  Cr  Cr60  1  0.66666667  0.00000000  0.35427738  1.0
  Cr  Cr61  1  0.66666667  0.33333333  0.35427737  1.0
  Cr  Cr62  1  0.66666667  0.66666667  0.35427738  1.0
  Ni  Ni63  1  0.11140633  0.11052067  0.31283213  1.0
  Ni  Ni64  1  0.11140633  0.44385400  0.31283213  1.0
  Ni  Ni65  1  0.11140633  0.77718733  0.31283213  1.0
  Ni  Ni66  1  0.44473967  0.11052067  0.31283213  1.0
  Ni  Ni67  1  0.44473967  0.44385400  0.31283213  1.0
  Ni  Ni68  1  0.44473967  0.77718733  0.31283213  1.0
  Ni  Ni69  1  0.77807300  0.11052067  0.31283213  1.0
  Ni  Ni70  1  0.77807300  0.44385400  0.31283213  1.0
  Ni  Ni71  1  0.77807300  0.77718733  0.31283213  1.0
  Ni  Ni72  1  0.22192700  0.22281267  0.27072262  1.0
  Ni  Ni73  1  0.22192700  0.55614600  0.27072262  1.0
  Ni  Ni74  1  0.22192700  0.88947933  0.27072262  1.0
  Ni  Ni75  1  0.55526033  0.22281267  0.27072262  1.0
  Ni  Ni76  1  0.55526033  0.55614600  0.27072262  1.0
  Ni  Ni77  1  0.55526033  0.88947933  0.27072262  1.0
  Ni  Ni78  1  0.88859367  0.22281267  0.27072262  1.0
  Ni  Ni79  1  0.88859367  0.55614600  0.27072262  1.0
  Ni  Ni80  1  0.88859367  0.88947933  0.27072262  1.0
