# generated using pymatgen
data_CrNi2
_symmetry_space_group_name_H-M   'P 1'
_cell_length_a   12.88777476
_cell_length_b   19.83414085
_cell_length_c   27.70814866
_cell_angle_alpha   89.54922645
_cell_angle_beta   88.75159479
_cell_angle_gamma   84.41160127
_symmetry_Int_Tables_number   1
_chemical_formula_structural   CrNi2
_chemical_formula_sum   'Cr90 Ni180'
_cell_volume   7047.24608149
_cell_formula_units_Z   90
loop_
 _symmetry_equiv_pos_site_id
 _symmetry_equiv_pos_as_xyz
  1  'x, y, z'
loop_
 _atom_site_type_symbol
 _atom_site_label
 _atom_site_symmetry_multiplicity
 _atom_site_fract_x
 _atom_site_fract_y
 _atom_site_fract_z
 _atom_site_occupancy
  Cr  Cr0  1  0.25456813  0.02545681  0.92362956  1.0
  Cr  Cr1  1  0.25456813  0.35879015  0.92362956  1.0
  Cr  Cr2  1  0.25456813  0.69212348  0.92362956  1.0
  Cr  Cr3  1  0.58790146  0.02545681  0.92362956  1.0
  Cr  Cr4  1  0.58790146  0.35879015  0.92362956  1.0
  Cr  Cr5  1  0.58790146  0.69212348  0.92362956  1.0
  Cr  Cr6  1  0.92123479  0.02545681  0.92362956  1.0
  Cr  Cr7  1  0.92123479  0.35879015  0.92362956  1.0
  Cr  Cr8  1  0.92123479  0.69212348  0.92362956  1.0
  Cr  Cr9  1  0.11567924  0.17823459  0.96529623  1.0
  Cr  Cr10  1  0.11567924  0.51156792  0.96529623  1.0
  Cr  Cr11  1  0.11567924  0.84490126  0.96529623  1.0
  Cr  Cr12  1  0.44901257  0.17823459  0.96529623  1.0
  Cr  Cr13  1  0.44901257  0.51156792  0.96529623  1.0
  Cr  Cr14  1  0.44901257  0.84490126  0.96529623  1.0
  Cr  Cr15  1  0.78234590  0.17823459  0.96529623  1.0
  Cr  Cr16  1  0.78234590  0.51156792  0.96529623  1.0
  Cr  Cr17  1  0.78234590  0.84490126  0.96529623  1.0
  Cr  Cr18  1  0.19901257  0.05323459  0.84029623  1.0
  Cr  Cr19  1  0.19901257  0.38656792  0.84029623  1.0
  Cr  Cr20  1  0.19901257  0.71990126  0.84029623  1.0
  Cr  Cr21  1  0.53234590  0.05323459  0.84029623  1.0
  Cr  Cr22  1  0.53234590  0.38656792  0.84029623  1.0
  Cr  Cr23  1  0.53234590  0.71990126  0.84029623  1.0
  Cr  Cr24  1  0.86567924  0.05323459  0.84029623  1.0
  Cr  Cr25  1  0.86567924  0.38656792  0.84029623  1.0
  Cr  Cr26  1  0.86567924  0.71990126  0.84029623  1.0
  Cr  Cr27  1  0.06012368  0.20601237  0.88196290  1.0
  Cr  Cr28  1  0.06012368  0.53934570  0.88196290  1.0
  Cr  Cr29  1  0.06012368  0.87267903  0.88196290  1.0
  Cr  Cr30  1  0.39345701  0.20601237  0.88196290  1.0
  Cr  Cr31  1  0.39345701  0.53934570  0.88196290  1.0
  Cr  Cr32  1  0.39345701  0.87267903  0.88196290  1.0
  Cr  Cr33  1  0.72679035  0.20601237  0.88196290  1.0
  Cr  Cr34  1  0.72679035  0.53934570  0.88196290  1.0
  Cr  Cr35  1  0.72679035  0.87267903  0.88196290  1.0
  Cr  Cr36  1  0.14345701  0.08101237  0.75696290  1.0
  Cr  Cr37  1  0.14345701  0.41434570  0.75696290  1.0
  Cr  Cr38  1  0.14345701  0.74767903  0.75696290  1.0
  Cr  Cr39  1  0.47679035  0.08101237  0.75696290  1.0
  Cr  Cr40  1  0.47679035  0.41434570  0.75696290  1.0
  Cr  Cr41  1  0.47679035  0.74767903  0.75696290  1.0
  Cr  Cr42  1  0.81012368  0.08101237  0.75696290  1.0
  Cr  Cr43  1  0.81012368  0.41434570  0.75696290  1.0
  Cr  Cr44  1  0.81012368  0.74767903  0.75696290  1.0
  Cr  Cr45  1  0.00456813  0.23379015  0.79862956  1.0
  Cr  Cr46  1  0.00456813  0.56712348  0.79862956  1.0
  Cr  Cr47  1  0.00456813  0.90045681  0.79862956  1.0
  Cr  Cr48  1  0.33790146  0.23379015  0.79862956  1.0
  Cr  Cr49  1  0.33790146  0.56712348  0.79862956  1.0
  Cr  Cr50  1  0.33790146  0.90045681  0.79862956  1.0
  Cr  Cr51  1  0.67123479  0.23379015  0.79862956  1.0
  Cr  Cr52  1  0.67123479  0.56712348  0.79862956  1.0
  Cr  Cr53  1  0.67123479  0.90045681  0.79862956  1.0
  Cr  Cr54  1  0.08790146  0.10879015  0.67362956  1.0
  Cr  Cr55  1  0.08790146  0.44212348  0.67362956  1.0
  Cr  Cr56  1  0.08790146  0.77545681  0.67362956  1.0
  Cr  Cr57  1  0.42123479  0.10879015  0.67362956  1.0
  Cr  Cr58  1  0.42123479  0.44212348  0.67362956  1.0
  Cr  Cr59  1  0.42123479  0.77545681  0.67362956  1.0
  Cr  Cr60  1  0.75456813  0.10879015  0.67362956  1.0
  Cr  Cr61  1  0.75456813  0.44212348  0.67362956  1.0
  Cr  Cr62  1  0.75456813  0.77545681  0.67362956  1.0
  Cr  Cr63  1  0.28234590  0.26156792  0.71529623  1.0
  Cr  Cr64  1  0.28234590  0.59490126  0.71529623  1.0
  Cr  Cr65  1  0.28234590  0.92823459  0.71529623  1.0
  Cr  Cr66  1  0.61567924  0.26156792  0.71529623  1.0
  Cr  Cr67  1  0.61567924  0.59490126  0.71529623  1.0
  Cr  Cr68  1  0.61567924  0.92823459  0.71529623  1.0
  Cr  Cr69  1  0.94901257  0.26156792  0.71529623  1.0
  Cr  Cr70  1  0.94901257  0.59490126  0.71529623  1.0
  Cr  Cr71  1  0.94901257  0.92823459  0.71529623  1.0
  Cr  Cr72  1  0.03234590  0.13656792  0.59029623  1.0
  Cr  Cr73  1  0.03234590  0.46990126  0.59029623  1.0
  Cr  Cr74  1  0.03234590  0.80323459  0.59029623  1.0
  Cr  Cr75  1  0.36567924  0.13656792  0.59029623  1.0
  Cr  Cr76  1  0.36567924  0.46990126  0.59029623  1.0
  Cr  Cr77  1  0.36567924  0.80323459  0.59029623  1.0
  Cr  Cr78  1  0.69901257  0.13656792  0.59029623  1.0
  Cr  Cr79  1  0.69901257  0.46990126  0.59029623  1.0
  Cr  Cr80  1  0.69901257  0.80323459  0.59029623  1.0
  Cr  Cr81  1  0.22679035  0.28934570  0.63196290  1.0
  Cr  Cr82  1  0.22679035  0.62267903  0.63196290  1.0
  Cr  Cr83  1  0.22679035  0.95601237  0.63196290  1.0
  Cr  Cr84  1  0.56012368  0.28934570  0.63196290  1.0
  Cr  Cr85  1  0.56012368  0.62267903  0.63196290  1.0
  Cr  Cr86  1  0.56012368  0.95601237  0.63196290  1.0
  Cr  Cr87  1  0.89345701  0.28934570  0.63196290  1.0
  Cr  Cr88  1  0.89345701  0.62267903  0.63196290  1.0
  Cr  Cr89  1  0.89345701  0.95601237  0.63196290  1.0
  Ni  Ni90  1  0.29118693  0.11788949  0.97922202  1.0
  Ni  Ni91  1  0.29118693  0.45122283  0.97922202  1.0
  Ni  Ni92  1  0.29118693  0.78455616  0.97922202  1.0
  Ni  Ni93  1  0.62452026  0.11788949  0.97922202  1.0
  Ni  Ni94  1  0.62452026  0.45122283  0.97922202  1.0
  Ni  Ni95  1  0.62452026  0.78455616  0.97922202  1.0
  Ni  Ni96  1  0.95785360  0.11788949  0.97922202  1.0
  Ni  Ni97  1  0.95785360  0.45122283  0.97922202  1.0
  Ni  Ni98  1  0.95785360  0.78455616  0.97922202  1.0
  Ni  Ni99  1  0.09674249  0.29844505  0.93755535  1.0
  Ni  Ni100  1  0.09674249  0.63177838  0.93755535  1.0
  Ni  Ni101  1  0.09674249  0.96511172  0.93755535  1.0
  Ni  Ni102  1  0.43007582  0.29844505  0.93755535  1.0
  Ni  Ni103  1  0.43007582  0.63177838  0.93755535  1.0
  Ni  Ni104  1  0.43007582  0.96511172  0.93755535  1.0
  Ni  Ni105  1  0.76340915  0.29844505  0.93755535  1.0
  Ni  Ni106  1  0.76340915  0.63177838  0.93755535  1.0
  Ni  Ni107  1  0.76340915  0.96511172  0.93755535  1.0
  Ni  Ni108  1  0.13461599  0.05802413  0.99303710  1.0
  Ni  Ni109  1  0.13461599  0.39135747  0.99303710  1.0
  Ni  Ni110  1  0.13461599  0.72469080  0.99303710  1.0
  Ni  Ni111  1  0.46794932  0.05802413  0.99303710  1.0
  Ni  Ni112  1  0.46794932  0.39135747  0.99303710  1.0
  Ni  Ni113  1  0.46794932  0.72469080  0.99303710  1.0
  Ni  Ni114  1  0.80128265  0.05802413  0.99303710  1.0
  Ni  Ni115  1  0.80128265  0.39135747  0.99303710  1.0
  Ni  Ni116  1  0.80128265  0.72469080  0.99303710  1.0
  Ni  Ni117  1  0.27350488  0.23857969  0.95137044  1.0
  Ni  Ni118  1  0.27350488  0.57191302  0.95137044  1.0
  Ni  Ni119  1  0.27350487  0.90524635  0.95137044  1.0
  Ni  Ni120  1  0.60683821  0.23857969  0.95137044  1.0
  Ni  Ni121  1  0.60683821  0.57191302  0.95137044  1.0
  Ni  Ni122  1  0.60683821  0.90524635  0.95137044  1.0
  Ni  Ni123  1  0.94017154  0.23857969  0.95137044  1.0
  Ni  Ni124  1  0.94017154  0.57191302  0.95137044  1.0
  Ni  Ni125  1  0.94017154  0.90524635  0.95137044  1.0
  Ni  Ni126  1  0.23563138  0.14566727  0.89588869  1.0
  Ni  Ni127  1  0.23563138  0.47900060  0.89588869  1.0
  Ni  Ni128  1  0.23563138  0.81233394  0.89588869  1.0
  Ni  Ni129  1  0.56896471  0.14566727  0.89588869  1.0
  Ni  Ni130  1  0.56896471  0.47900060  0.89588869  1.0
  Ni  Ni131  1  0.56896471  0.81233394  0.89588869  1.0
  Ni  Ni132  1  0.90229804  0.14566727  0.89588869  1.0
  Ni  Ni133  1  0.90229804  0.47900060  0.89588869  1.0
  Ni  Ni134  1  0.90229804  0.81233394  0.89588869  1.0
  Ni  Ni135  1  0.04118693  0.32622283  0.85422202  1.0
  Ni  Ni136  1  0.04118693  0.65955616  0.85422202  1.0
  Ni  Ni137  1  0.04118693  0.99288949  0.85422202  1.0
  Ni  Ni138  1  0.37452026  0.32622283  0.85422202  1.0
  Ni  Ni139  1  0.37452026  0.65955616  0.85422202  1.0
  Ni  Ni140  1  0.37452026  0.99288949  0.85422202  1.0
  Ni  Ni141  1  0.70785360  0.32622283  0.85422202  1.0
  Ni  Ni142  1  0.70785360  0.65955616  0.85422202  1.0
  Ni  Ni143  1  0.70785360  0.99288949  0.85422202  1.0
  Ni  Ni144  1  0.07906043  0.08580191  0.90970377  1.0
  Ni  Ni145  1  0.07906043  0.41913524  0.90970377  1.0
  Ni  Ni146  1  0.07906043  0.75246858  0.90970377  1.0
  Ni  Ni147  1  0.41239376  0.08580191  0.90970377  1.0
  Ni  Ni148  1  0.41239376  0.41913524  0.90970377  1.0
  Ni  Ni149  1  0.41239376  0.75246858  0.90970377  1.0
  Ni  Ni150  1  0.74572710  0.08580191  0.90970377  1.0
  Ni  Ni151  1  0.74572710  0.41913524  0.90970377  1.0
  Ni  Ni152  1  0.74572710  0.75246858  0.90970377  1.0
  Ni  Ni153  1  0.21794932  0.26635747  0.86803710  1.0
  Ni  Ni154  1  0.21794932  0.59969080  0.86803710  1.0
  Ni  Ni155  1  0.21794932  0.93302413  0.86803710  1.0
  Ni  Ni156  1  0.55128265  0.26635747  0.86803710  1.0
  Ni  Ni157  1  0.55128265  0.59969080  0.86803710  1.0
  Ni  Ni158  1  0.55128265  0.93302413  0.86803710  1.0
  Ni  Ni159  1  0.88461599  0.26635747  0.86803710  1.0
  Ni  Ni160  1  0.88461599  0.59969080  0.86803710  1.0
  Ni  Ni161  1  0.88461599  0.93302413  0.86803710  1.0
  Ni  Ni162  1  0.18007582  0.17344505  0.81255535  1.0
  Ni  Ni163  1  0.18007582  0.50677838  0.81255535  1.0
  Ni  Ni164  1  0.18007582  0.84011172  0.81255535  1.0
  Ni  Ni165  1  0.51340915  0.17344505  0.81255535  1.0
  Ni  Ni166  1  0.51340915  0.50677838  0.81255535  1.0
  Ni  Ni167  1  0.51340915  0.84011172  0.81255535  1.0
  Ni  Ni168  1  0.84674249  0.17344505  0.81255535  1.0
  Ni  Ni169  1  0.84674249  0.50677838  0.81255535  1.0
  Ni  Ni170  1  0.84674249  0.84011172  0.81255535  1.0
  Ni  Ni171  1  0.31896471  0.02066727  0.77088869  1.0
  Ni  Ni172  1  0.31896471  0.35400060  0.77088869  1.0
  Ni  Ni173  1  0.31896471  0.68733394  0.77088869  1.0
  Ni  Ni174  1  0.65229804  0.02066727  0.77088869  1.0
  Ni  Ni175  1  0.65229804  0.35400060  0.77088869  1.0
  Ni  Ni176  1  0.65229804  0.68733394  0.77088869  1.0
  Ni  Ni177  1  0.98563137  0.02066727  0.77088869  1.0
  Ni  Ni178  1  0.98563138  0.35400060  0.77088869  1.0
  Ni  Ni179  1  0.98563137  0.68733394  0.77088869  1.0
  Ni  Ni180  1  0.02350487  0.11357969  0.82637044  1.0
  Ni  Ni181  1  0.02350487  0.44691302  0.82637044  1.0
  Ni  Ni182  1  0.02350487  0.78024635  0.82637044  1.0
  Ni  Ni183  1  0.35683821  0.11357969  0.82637044  1.0
  Ni  Ni184  1  0.35683821  0.44691302  0.82637044  1.0
  Ni  Ni185  1  0.35683821  0.78024635  0.82637044  1.0
  Ni  Ni186  1  0.69017154  0.11357969  0.82637044  1.0
  Ni  Ni187  1  0.69017154  0.44691302  0.82637044  1.0
  Ni  Ni188  1  0.69017154  0.78024635  0.82637044  1.0
  Ni  Ni189  1  0.16239376  0.29413524  0.78470377  1.0
  Ni  Ni190  1  0.16239376  0.62746858  0.78470377  1.0
  Ni  Ni191  1  0.16239376  0.96080191  0.78470377  1.0
  Ni  Ni192  1  0.49572710  0.29413524  0.78470377  1.0
  Ni  Ni193  1  0.49572710  0.62746858  0.78470377  1.0
  Ni  Ni194  1  0.49572710  0.96080191  0.78470377  1.0
  Ni  Ni195  1  0.82906043  0.29413524  0.78470377  1.0
  Ni  Ni196  1  0.82906043  0.62746858  0.78470377  1.0
  Ni  Ni197  1  0.82906043  0.96080191  0.78470377  1.0
  Ni  Ni198  1  0.12452026  0.20122283  0.72922202  1.0
  Ni  Ni199  1  0.12452026  0.53455616  0.72922202  1.0
  Ni  Ni200  1  0.12452026  0.86788949  0.72922202  1.0
  Ni  Ni201  1  0.45785360  0.20122283  0.72922202  1.0
  Ni  Ni202  1  0.45785360  0.53455616  0.72922202  1.0
  Ni  Ni203  1  0.45785360  0.86788949  0.72922202  1.0
  Ni  Ni204  1  0.79118693  0.20122283  0.72922202  1.0
  Ni  Ni205  1  0.79118693  0.53455616  0.72922202  1.0
  Ni  Ni206  1  0.79118693  0.86788949  0.72922202  1.0
  Ni  Ni207  1  0.26340915  0.04844505  0.68755535  1.0
  Ni  Ni208  1  0.26340915  0.38177838  0.68755535  1.0
  Ni  Ni209  1  0.26340915  0.71511172  0.68755535  1.0
  Ni  Ni210  1  0.59674249  0.04844505  0.68755535  1.0
  Ni  Ni211  1  0.59674249  0.38177838  0.68755535  1.0
  Ni  Ni212  1  0.59674249  0.71511172  0.68755535  1.0
  Ni  Ni213  1  0.93007582  0.04844505  0.68755535  1.0
  Ni  Ni214  1  0.93007582  0.38177838  0.68755535  1.0
  Ni  Ni215  1  0.93007582  0.71511172  0.68755535  1.0
  Ni  Ni216  1  0.30128265  0.14135747  0.74303710  1.0
  Ni  Ni217  1  0.30128265  0.47469080  0.74303710  1.0
  Ni  Ni218  1  0.30128265  0.80802413  0.74303710  1.0
  Ni  Ni219  1  0.63461599  0.14135747  0.74303710  1.0
  Ni  Ni220  1  0.63461599  0.47469080  0.74303710  1.0
  Ni  Ni221  1  0.63461599  0.80802413  0.74303710  1.0
  Ni  Ni222  1  0.96794932  0.14135747  0.74303710  1.0
  Ni  Ni223  1  0.96794932  0.47469080  0.74303710  1.0
  Ni  Ni224  1  0.96794932  0.80802413  0.74303710  1.0
  Ni  Ni225  1  0.10683821  0.32191302  0.70137044  1.0
  Ni  Ni226  1  0.10683821  0.65524635  0.70137044  1.0
  Ni  Ni227  1  0.10683821  0.98857969  0.70137044  1.0
  Ni  Ni228  1  0.44017154  0.32191302  0.70137044  1.0
  Ni  Ni229  1  0.44017154  0.65524635  0.70137044  1.0
  Ni  Ni230  1  0.44017154  0.98857969  0.70137044  1.0
  Ni  Ni231  1  0.77350488  0.32191302  0.70137044  1.0
  Ni  Ni232  1  0.77350488  0.65524635  0.70137044  1.0
  Ni  Ni233  1  0.77350487  0.98857969  0.70137044  1.0
  Ni  Ni234  1  0.06896471  0.22900060  0.64588869  1.0
  Ni  Ni235  1  0.06896471  0.56233394  0.64588869  1.0
  Ni  Ni236  1  0.06896471  0.89566727  0.64588869  1.0
  Ni  Ni237  1  0.40229804  0.22900060  0.64588869  1.0
  Ni  Ni238  1  0.40229804  0.56233394  0.64588869  1.0
  Ni  Ni239  1  0.40229804  0.89566727  0.64588869  1.0
  Ni  Ni240  1  0.73563138  0.22900060  0.64588869  1.0
  Ni  Ni241  1  0.73563138  0.56233394  0.64588869  1.0
  Ni  Ni242  1  0.73563138  0.89566727  0.64588869  1.0
  Ni  Ni243  1  0.20785360  0.07622283  0.60422202  1.0
  Ni  Ni244  1  0.20785360  0.40955616  0.60422202  1.0
  Ni  Ni245  1  0.20785360  0.74288949  0.60422202  1.0
  Ni  Ni246  1  0.54118693  0.07622283  0.60422202  1.0
  Ni  Ni247  1  0.54118693  0.40955616  0.60422202  1.0
  Ni  Ni248  1  0.54118693  0.74288949  0.60422202  1.0
  Ni  Ni249  1  0.87452026  0.07622283  0.60422202  1.0
  Ni  Ni250  1  0.87452026  0.40955616  0.60422202  1.0
  Ni  Ni251  1  0.87452026  0.74288949  0.60422202  1.0
  Ni  Ni252  1  0.24572710  0.16913524  0.65970377  1.0
  Ni  Ni253  1  0.24572710  0.50246858  0.65970377  1.0
  Ni  Ni254  1  0.24572710  0.83580191  0.65970377  1.0
  Ni  Ni255  1  0.57906043  0.16913524  0.65970377  1.0
  Ni  Ni256  1  0.57906043  0.50246858  0.65970377  1.0
  Ni  Ni257  1  0.57906043  0.83580191  0.65970377  1.0
  Ni  Ni258  1  0.91239376  0.16913524  0.65970377  1.0
  Ni  Ni259  1  0.91239376  0.50246858  0.65970377  1.0
  Ni  Ni260  1  0.91239376  0.83580191  0.65970377  1.0
  Ni  Ni261  1  0.05128265  0.01635747  0.61803710  1.0
  Ni  Ni262  1  0.05128265  0.34969080  0.61803710  1.0
  Ni  Ni263  1  0.05128265  0.68302413  0.61803710  1.0
  Ni  Ni264  1  0.38461599  0.01635747  0.61803710  1.0
  Ni  Ni265  1  0.38461599  0.34969080  0.61803710  1.0
  Ni  Ni266  1  0.38461599  0.68302413  0.61803710  1.0
  Ni  Ni267  1  0.71794932  0.01635747  0.61803710  1.0
  Ni  Ni268  1  0.71794932  0.34969080  0.61803710  1.0
  Ni  Ni269  1  0.71794932  0.68302413  0.61803710  1.0
