# generated using pymatgen
data_CrNi2
_symmetry_space_group_name_H-M   'P 1'
_cell_length_a   12.88777476
_cell_length_b   23.46763198
_cell_length_c   81.62257348
_cell_angle_alpha   24.43086706
_cell_angle_beta   146.52349699
_cell_angle_gamma   136.74062769
_symmetry_Int_Tables_number   1
_chemical_formula_structural   CrNi2
_chemical_formula_sum   'Cr72 Ni144'
_cell_volume   5579.06981452
_cell_formula_units_Z   72
loop_
 _symmetry_equiv_pos_site_id
 _symmetry_equiv_pos_as_xyz
  1  'x, y, z'
loop_
 _atom_site_type_symbol
 _atom_site_label
 _atom_site_symmetry_multiplicity
 _atom_site_fract_x
 _atom_site_fract_y
 _atom_site_fract_z
 _atom_site_occupancy
  Cr  Cr0  1  0.00000000  0.00000000  0.04383634  1.0
  Cr  Cr1  1  0.00000000  0.33333333  0.04383634  1.0
  Cr  Cr2  1  0.00000000  0.66666667  0.04383634  1.0
  Cr  Cr3  1  0.33333333  0.00000000  0.04383634  1.0
  Cr  Cr4  1  0.33333333  0.33333333  0.04383634  1.0
  Cr  Cr5  1  0.33333333  0.66666667  0.04383634  1.0
  Cr  Cr6  1  0.66666667  0.00000000  0.04383634  1.0
  Cr  Cr7  1  0.66666667  0.33333333  0.04383634  1.0
  Cr  Cr8  1  0.66666667  0.66666667  0.04383634  1.0
  Ni  Ni9  1  0.22192700  0.11140633  0.02624587  1.0
  Ni  Ni10  1  0.22192700  0.44473967  0.02624587  1.0
  Ni  Ni11  1  0.22192700  0.77807300  0.02624587  1.0
  Ni  Ni12  1  0.55526033  0.11140633  0.02624587  1.0
  Ni  Ni13  1  0.55526033  0.44473967  0.02624587  1.0
  Ni  Ni14  1  0.55526033  0.77807300  0.02624587  1.0
  Ni  Ni15  1  0.88859367  0.11140633  0.02624587  1.0
  Ni  Ni16  1  0.88859367  0.44473967  0.02624587  1.0
  Ni  Ni17  1  0.88859367  0.77807300  0.02624587  1.0
  Ni  Ni18  1  0.11140633  0.22192700  0.00879524  1.0
  Ni  Ni19  1  0.11140633  0.55526033  0.00879524  1.0
  Ni  Ni20  1  0.11140633  0.88859367  0.00879524  1.0
  Ni  Ni21  1  0.44473967  0.22192700  0.00879524  1.0
  Ni  Ni22  1  0.44473967  0.55526033  0.00879524  1.0
  Ni  Ni23  1  0.44473967  0.88859367  0.00879524  1.0
  Ni  Ni24  1  0.77807300  0.22192700  0.00879524  1.0
  Ni  Ni25  1  0.77807300  0.55526033  0.00879524  1.0
  Ni  Ni26  1  0.77807300  0.88859367  0.00879524  1.0
  Cr  Cr27  1  0.00000000  0.00000000  0.09646792  1.0
  Cr  Cr28  1  0.00000000  0.33333333  0.09646792  1.0
  Cr  Cr29  1  0.00000000  0.66666667  0.09646792  1.0
  Cr  Cr30  1  0.33333333  0.00000000  0.09646792  1.0
  Cr  Cr31  1  0.33333333  0.33333333  0.09646792  1.0
  Cr  Cr32  1  0.33333333  0.66666667  0.09646792  1.0
  Cr  Cr33  1  0.66666667  0.00000000  0.09646792  1.0
  Cr  Cr34  1  0.66666667  0.33333333  0.09646792  1.0
  Cr  Cr35  1  0.66666667  0.66666667  0.09646792  1.0
  Ni  Ni36  1  0.22192700  0.11140633  0.07887745  1.0
  Ni  Ni37  1  0.22192700  0.44473967  0.07887745  1.0
  Ni  Ni38  1  0.22192700  0.77807300  0.07887745  1.0
  Ni  Ni39  1  0.55526033  0.11140633  0.07887745  1.0
  Ni  Ni40  1  0.55526033  0.44473967  0.07887745  1.0
  Ni  Ni41  1  0.55526033  0.77807300  0.07887745  1.0
  Ni  Ni42  1  0.88859367  0.11140633  0.07887745  1.0
  Ni  Ni43  1  0.88859367  0.44473967  0.07887745  1.0
  Ni  Ni44  1  0.88859367  0.77807300  0.07887745  1.0
  Ni  Ni45  1  0.11140633  0.22192700  0.06142682  1.0
  Ni  Ni46  1  0.11140633  0.55526033  0.06142682  1.0
  Ni  Ni47  1  0.11140633  0.88859367  0.06142682  1.0
  Ni  Ni48  1  0.44473967  0.22192700  0.06142682  1.0
  Ni  Ni49  1  0.44473967  0.55526033  0.06142682  1.0
  Ni  Ni50  1  0.44473967  0.88859367  0.06142682  1.0
  Ni  Ni51  1  0.77807300  0.22192700  0.06142682  1.0
  Ni  Ni52  1  0.77807300  0.55526033  0.06142682  1.0
  Ni  Ni53  1  0.77807300  0.88859367  0.06142682  1.0
  Cr  Cr54  1  0.00000000  0.00000000  0.14909950  1.0
  Cr  Cr55  1  0.00000000  0.33333333  0.14909950  1.0
  Cr  Cr56  1  0.00000000  0.66666667  0.14909950  1.0
  Cr  Cr57  1  0.33333333  0.00000000  0.14909950  1.0
  Cr  Cr58  1  0.33333333  0.33333333  0.14909950  1.0
  Cr  Cr59  1  0.33333333  0.66666667  0.14909950  1.0
  Cr  Cr60  1  0.66666667  0.00000000  0.14909950  1.0
  Cr  Cr61  1  0.66666667  0.33333333  0.14909950  1.0
  Cr  Cr62  1  0.66666667  0.66666667  0.14909950  1.0
  Ni  Ni63  1  0.22192700  0.11140633  0.13150903  1.0
  Ni  Ni64  1  0.22192700  0.44473967  0.13150903  1.0
  Ni  Ni65  1  0.22192700  0.77807300  0.13150903  1.0
  Ni  Ni66  1  0.55526033  0.11140633  0.13150903  1.0
  Ni  Ni67  1  0.55526033  0.44473967  0.13150903  1.0
  Ni  Ni68  1  0.55526033  0.77807300  0.13150903  1.0
  Ni  Ni69  1  0.88859367  0.11140633  0.13150903  1.0
  Ni  Ni70  1  0.88859367  0.44473967  0.13150903  1.0
  Ni  Ni71  1  0.88859367  0.77807300  0.13150903  1.0
  Ni  Ni72  1  0.11140633  0.22192700  0.11405839  1.0
  Ni  Ni73  1  0.11140633  0.55526033  0.11405839  1.0
  Ni  Ni74  1  0.11140633  0.88859367  0.11405839  1.0
  Ni  Ni75  1  0.44473967  0.22192700  0.11405839  1.0
  Ni  Ni76  1  0.44473967  0.55526033  0.11405839  1.0
  Ni  Ni77  1  0.44473967  0.88859367  0.11405839  1.0
  Ni  Ni78  1  0.77807300  0.22192700  0.11405839  1.0
  Ni  Ni79  1  0.77807300  0.55526033  0.11405839  1.0
  Ni  Ni80  1  0.77807300  0.88859367  0.11405839  1.0
  Cr  Cr81  1  0.00000000  0.00000000  0.20173108  1.0
  Cr  Cr82  1  0.00000000  0.33333333  0.20173108  1.0
  Cr  Cr83  1  0.00000000  0.66666667  0.20173108  1.0
  Cr  Cr84  1  0.33333333  0.00000000  0.20173108  1.0
  Cr  Cr85  1  0.33333333  0.33333333  0.20173108  1.0
  Cr  Cr86  1  0.33333333  0.66666667  0.20173108  1.0
  Cr  Cr87  1  0.66666667  0.00000000  0.20173108  1.0
  Cr  Cr88  1  0.66666667  0.33333333  0.20173108  1.0
  Cr  Cr89  1  0.66666667  0.66666667  0.20173108  1.0
  Ni  Ni90  1  0.22192700  0.11140633  0.18414061  1.0
  Ni  Ni91  1  0.22192700  0.44473967  0.18414061  1.0
  Ni  Ni92  1  0.22192700  0.77807300  0.18414061  1.0
  Ni  Ni93  1  0.55526033  0.11140633  0.18414061  1.0
  Ni  Ni94  1  0.55526033  0.44473967  0.18414061  1.0
  Ni  Ni95  1  0.55526033  0.77807300  0.18414061  1.0
  Ni  Ni96  1  0.88859367  0.11140633  0.18414061  1.0
  Ni  Ni97  1  0.88859367  0.44473967  0.18414061  1.0
  Ni  Ni98  1  0.88859367  0.77807300  0.18414061  1.0
  Ni  Ni99  1  0.11140633  0.22192700  0.16668997  1.0
  Ni  Ni100  1  0.11140633  0.55526033  0.16668997  1.0
  Ni  Ni101  1  0.11140633  0.88859367  0.16668997  1.0
  Ni  Ni102  1  0.44473967  0.22192700  0.16668997  1.0
  Ni  Ni103  1  0.44473967  0.55526033  0.16668997  1.0
  Ni  Ni104  1  0.44473967  0.88859367  0.16668997  1.0
  Ni  Ni105  1  0.77807300  0.22192700  0.16668997  1.0
  Ni  Ni106  1  0.77807300  0.55526033  0.16668997  1.0
  Ni  Ni107  1  0.77807300  0.88859367  0.16668997  1.0
  Cr  Cr108  1  0.00000000  0.00000000  0.25436266  1.0
  Cr  Cr109  1  0.00000000  0.33333333  0.25436266  1.0
  Cr  Cr110  1  0.00000000  0.66666667  0.25436266  1.0
  Cr  Cr111  1  0.33333333  0.00000000  0.25436266  1.0
  Cr  Cr112  1  0.33333333  0.33333333  0.25436266  1.0
  Cr  Cr113  1  0.33333333  0.66666667  0.25436266  1.0
  Cr  Cr114  1  0.66666667  0.00000000  0.25436266  1.0
  Cr  Cr115  1  0.66666667  0.33333333  0.25436266  1.0
  Cr  Cr116  1  0.66666667  0.66666667  0.25436266  1.0
  Ni  Ni117  1  0.22192700  0.11140633  0.23677218  1.0
  Ni  Ni118  1  0.22192700  0.44473967  0.23677218  1.0
  Ni  Ni119  1  0.22192700  0.77807300  0.23677218  1.0
  Ni  Ni120  1  0.55526033  0.11140633  0.23677218  1.0
  Ni  Ni121  1  0.55526033  0.44473967  0.23677218  1.0
  Ni  Ni122  1  0.55526033  0.77807300  0.23677218  1.0
  Ni  Ni123  1  0.88859367  0.11140633  0.23677218  1.0
  Ni  Ni124  1  0.88859367  0.44473967  0.23677218  1.0
  Ni  Ni125  1  0.88859367  0.77807300  0.23677218  1.0
  Ni  Ni126  1  0.11140633  0.22192700  0.21932155  1.0
  Ni  Ni127  1  0.11140633  0.55526033  0.21932155  1.0
  Ni  Ni128  1  0.11140633  0.88859367  0.21932155  1.0
  Ni  Ni129  1  0.44473967  0.22192700  0.21932155  1.0
  Ni  Ni130  1  0.44473967  0.55526033  0.21932155  1.0
  Ni  Ni131  1  0.44473967  0.88859367  0.21932155  1.0
  Ni  Ni132  1  0.77807300  0.22192700  0.21932155  1.0
  Ni  Ni133  1  0.77807300  0.55526033  0.21932155  1.0
  Ni  Ni134  1  0.77807300  0.88859367  0.21932155  1.0
  Cr  Cr135  1  0.00000000  0.00000000  0.30699424  1.0
  Cr  Cr136  1  0.00000000  0.33333333  0.30699424  1.0
  Cr  Cr137  1  0.00000000  0.66666667  0.30699424  1.0
  Cr  Cr138  1  0.33333333  0.00000000  0.30699424  1.0
  Cr  Cr139  1  0.33333333  0.33333333  0.30699424  1.0
  Cr  Cr140  1  0.33333333  0.66666667  0.30699424  1.0
  Cr  Cr141  1  0.66666667  0.00000000  0.30699424  1.0
  Cr  Cr142  1  0.66666667  0.33333333  0.30699424  1.0
  Cr  Cr143  1  0.66666667  0.66666667  0.30699424  1.0
  Ni  Ni144  1  0.22192700  0.11140633  0.28940376  1.0
  Ni  Ni145  1  0.22192700  0.44473967  0.28940376  1.0
  Ni  Ni146  1  0.22192700  0.77807300  0.28940376  1.0
  Ni  Ni147  1  0.55526033  0.11140633  0.28940376  1.0
  Ni  Ni148  1  0.55526033  0.44473967  0.28940376  1.0
  Ni  Ni149  1  0.55526033  0.77807300  0.28940376  1.0
  Ni  Ni150  1  0.88859367  0.11140633  0.28940376  1.0
  Ni  Ni151  1  0.88859367  0.44473967  0.28940376  1.0
  Ni  Ni152  1  0.88859367  0.77807300  0.28940376  1.0
  Ni  Ni153  1  0.11140633  0.22192700  0.27195313  1.0
  Ni  Ni154  1  0.11140633  0.55526033  0.27195313  1.0
  Ni  Ni155  1  0.11140633  0.88859367  0.27195313  1.0
  Ni  Ni156  1  0.44473967  0.22192700  0.27195313  1.0
  Ni  Ni157  1  0.44473967  0.55526033  0.27195313  1.0
  Ni  Ni158  1  0.44473967  0.88859367  0.27195313  1.0
  Ni  Ni159  1  0.77807300  0.22192700  0.27195313  1.0
  Ni  Ni160  1  0.77807300  0.55526033  0.27195313  1.0
  Ni  Ni161  1  0.77807300  0.88859367  0.27195313  1.0
  Cr  Cr162  1  0.00000000  0.00000000  0.35962582  1.0
  Cr  Cr163  1  0.00000000  0.33333333  0.35962582  1.0
  Cr  Cr164  1  0.00000000  0.66666667  0.35962582  1.0
  Cr  Cr165  1  0.33333333  0.00000000  0.35962582  1.0
  Cr  Cr166  1  0.33333333  0.33333333  0.35962582  1.0
  Cr  Cr167  1  0.33333333  0.66666667  0.35962582  1.0
  Cr  Cr168  1  0.66666667  0.00000000  0.35962582  1.0
  Cr  Cr169  1  0.66666667  0.33333333  0.35962582  1.0
  Cr  Cr170  1  0.66666667  0.66666667  0.35962582  1.0
  Ni  Ni171  1  0.22192700  0.11140633  0.34203534  1.0
  Ni  Ni172  1  0.22192700  0.44473967  0.34203534  1.0
  Ni  Ni173  1  0.22192700  0.77807300  0.34203534  1.0
  Ni  Ni174  1  0.55526033  0.11140633  0.34203534  1.0
  Ni  Ni175  1  0.55526033  0.44473967  0.34203534  1.0
  Ni  Ni176  1  0.55526033  0.77807300  0.34203534  1.0
  Ni  Ni177  1  0.88859367  0.11140633  0.34203534  1.0
  Ni  Ni178  1  0.88859367  0.44473967  0.34203534  1.0
  Ni  Ni179  1  0.88859367  0.77807300  0.34203534  1.0
  Ni  Ni180  1  0.11140633  0.22192700  0.32458471  1.0
  Ni  Ni181  1  0.11140633  0.55526033  0.32458471  1.0
  Ni  Ni182  1  0.11140633  0.88859367  0.32458471  1.0
  Ni  Ni183  1  0.44473967  0.22192700  0.32458471  1.0
  Ni  Ni184  1  0.44473967  0.55526033  0.32458471  1.0
  Ni  Ni185  1  0.44473967  0.88859367  0.32458471  1.0
  Ni  Ni186  1  0.77807300  0.22192700  0.32458471  1.0
  Ni  Ni187  1  0.77807300  0.55526033  0.32458471  1.0
  Ni  Ni188  1  0.77807300  0.88859367  0.32458471  1.0
  Cr  Cr189  1  0.00000000  0.00000000  0.41225739  1.0
  Cr  Cr190  1  0.00000000  0.33333333  0.41225739  1.0
  Cr  Cr191  1  0.00000000  0.66666667  0.41225739  1.0
  Cr  Cr192  1  0.33333333  0.00000000  0.41225739  1.0
  Cr  Cr193  1  0.33333333  0.33333333  0.41225739  1.0
  Cr  Cr194  1  0.33333333  0.66666667  0.41225739  1.0
  Cr  Cr195  1  0.66666667  0.00000000  0.41225739  1.0
  Cr  Cr196  1  0.66666667  0.33333333  0.41225739  1.0
  Cr  Cr197  1  0.66666667  0.66666667  0.41225739  1.0
  Ni  Ni198  1  0.22192700  0.11140633  0.39466692  1.0
  Ni  Ni199  1  0.22192700  0.44473967  0.39466692  1.0
  Ni  Ni200  1  0.22192700  0.77807300  0.39466692  1.0
  Ni  Ni201  1  0.55526033  0.11140633  0.39466692  1.0
  Ni  Ni202  1  0.55526033  0.44473967  0.39466692  1.0
  Ni  Ni203  1  0.55526033  0.77807300  0.39466692  1.0
  Ni  Ni204  1  0.88859367  0.11140633  0.39466692  1.0
  Ni  Ni205  1  0.88859367  0.44473967  0.39466692  1.0
  Ni  Ni206  1  0.88859367  0.77807300  0.39466692  1.0
  Ni  Ni207  1  0.11140633  0.22192700  0.37721629  1.0
  Ni  Ni208  1  0.11140633  0.55526033  0.37721629  1.0
  Ni  Ni209  1  0.11140633  0.88859367  0.37721629  1.0
  Ni  Ni210  1  0.44473967  0.22192700  0.37721629  1.0
  Ni  Ni211  1  0.44473967  0.55526033  0.37721629  1.0
  Ni  Ni212  1  0.44473967  0.88859367  0.37721629  1.0
  Ni  Ni213  1  0.77807300  0.22192700  0.37721629  1.0
  Ni  Ni214  1  0.77807300  0.55526033  0.37721629  1.0
  Ni  Ni215  1  0.77807300  0.88859367  0.37721629  1.0
