# generated using pymatgen
data_CrNi2
_symmetry_space_group_name_H-M   'P 1'
_cell_length_a   12.88777476
_cell_length_b   35.60272798
_cell_length_c   55.84702396
_cell_angle_alpha   146.95863009
_cell_angle_beta   60.52850582
_cell_angle_gamma   141.44154773
_symmetry_Int_Tables_number   1
_chemical_formula_structural   CrNi2
_chemical_formula_sum   'Cr90 Ni180'
_cell_volume   7634.51658829
_cell_formula_units_Z   90
loop_
 _symmetry_equiv_pos_site_id
 _symmetry_equiv_pos_as_xyz
  1  'x, y, z'
loop_
 _atom_site_type_symbol
 _atom_site_label
 _atom_site_symmetry_multiplicity
 _atom_site_fract_x
 _atom_site_fract_y
 _atom_site_fract_z
 _atom_site_occupancy
  Cr  Cr0  1  0.00000000  0.00000000  0.07054688  1.0
  Cr  Cr1  1  1.00000000  0.33333333  0.07054688  1.0
  Cr  Cr2  1  1.00000000  0.66666667  0.07054688  1.0
  Cr  Cr3  1  0.33333333  0.00000000  0.07054688  1.0
  Cr  Cr4  1  0.33333333  0.33333333  0.07054688  1.0
  Cr  Cr5  1  0.33333333  0.66666667  0.07054688  1.0
  Cr  Cr6  1  0.66666667  0.00000000  0.07054688  1.0
  Cr  Cr7  1  0.66666667  0.33333333  0.07054688  1.0
  Cr  Cr8  1  0.66666667  0.66666667  0.07054688  1.0
  Cr  Cr9  1  0.00000000  0.16666667  0.03208535  1.0
  Cr  Cr10  1  0.00000000  0.50000000  0.03208535  1.0
  Cr  Cr11  1  1.00000000  0.83333333  0.03208535  1.0
  Cr  Cr12  1  0.33333333  0.16666667  0.03208535  1.0
  Cr  Cr13  1  0.33333333  0.50000000  0.03208535  1.0
  Cr  Cr14  1  0.33333333  0.83333333  0.03208535  1.0
  Cr  Cr15  1  0.66666667  0.16666667  0.03208535  1.0
  Cr  Cr16  1  0.66666667  0.50000000  0.03208535  1.0
  Cr  Cr17  1  0.66666667  0.83333333  0.03208535  1.0
  Ni  Ni18  1  0.22192700  0.00000000  0.04483773  1.0
  Ni  Ni19  1  0.22192700  0.33333333  0.04483773  1.0
  Ni  Ni20  1  0.22192700  0.66666667  0.04483773  1.0
  Ni  Ni21  1  0.55526033  0.00000000  0.04483773  1.0
  Ni  Ni22  1  0.55526033  0.33333333  0.04483773  1.0
  Ni  Ni23  1  0.55526033  0.66666667  0.04483773  1.0
  Ni  Ni24  1  0.88859367  1.00000000  0.04483773  1.0
  Ni  Ni25  1  0.88859367  0.33333333  0.04483773  1.0
  Ni  Ni26  1  0.88859367  0.66666667  0.04483773  1.0
  Ni  Ni27  1  0.22192700  0.16666667  0.00637619  1.0
  Ni  Ni28  1  0.22192700  0.50000000  0.00637619  1.0
  Ni  Ni29  1  0.22192700  0.83333333  0.00637619  1.0
  Ni  Ni30  1  0.55526033  0.16666667  0.00637619  1.0
  Ni  Ni31  1  0.55526033  0.50000000  0.00637619  1.0
  Ni  Ni32  1  0.55526033  0.83333333  0.00637619  1.0
  Ni  Ni33  1  0.88859367  0.16666667  0.00637619  1.0
  Ni  Ni34  1  0.88859367  0.50000000  0.00637619  1.0
  Ni  Ni35  1  0.88859367  0.83333333  0.00637619  1.0
  Ni  Ni36  1  0.11140633  0.00000000  0.01933296  1.0
  Ni  Ni37  1  0.11140633  0.33333333  0.01933296  1.0
  Ni  Ni38  1  0.11140633  0.66666667  0.01933296  1.0
  Ni  Ni39  1  0.44473967  0.00000000  0.01933296  1.0
  Ni  Ni40  1  0.44473967  0.33333333  0.01933296  1.0
  Ni  Ni41  1  0.44473967  0.66666667  0.01933296  1.0
  Ni  Ni42  1  0.77807300  1.00000000  0.01933296  1.0
  Ni  Ni43  1  0.77807300  0.33333333  0.01933296  1.0
  Ni  Ni44  1  0.77807300  0.66666667  0.01933296  1.0
  Ni  Ni45  1  0.11140633  0.16666667  0.05779450  1.0
  Ni  Ni46  1  0.11140633  0.50000000  0.05779450  1.0
  Ni  Ni47  1  0.11140633  0.83333333  0.05779450  1.0
  Ni  Ni48  1  0.44473967  0.16666667  0.05779450  1.0
  Ni  Ni49  1  0.44473967  0.50000000  0.05779450  1.0
  Ni  Ni50  1  0.44473967  0.83333333  0.05779450  1.0
  Ni  Ni51  1  0.77807300  0.16666667  0.05779450  1.0
  Ni  Ni52  1  0.77807300  0.50000000  0.05779450  1.0
  Ni  Ni53  1  0.77807300  0.83333333  0.05779450  1.0
  Cr  Cr54  1  0.00000000  0.00000000  0.14746996  1.0
  Cr  Cr55  1  1.00000000  0.33333333  0.14746996  1.0
  Cr  Cr56  1  1.00000000  0.66666667  0.14746996  1.0
  Cr  Cr57  1  0.33333333  0.00000000  0.14746996  1.0
  Cr  Cr58  1  0.33333333  0.33333333  0.14746996  1.0
  Cr  Cr59  1  0.33333333  0.66666667  0.14746996  1.0
  Cr  Cr60  1  0.66666667  0.00000000  0.14746996  1.0
  Cr  Cr61  1  0.66666667  0.33333333  0.14746996  1.0
  Cr  Cr62  1  0.66666667  0.66666667  0.14746996  1.0
  Cr  Cr63  1  0.00000000  0.16666667  0.10900842  1.0
  Cr  Cr64  1  0.00000000  0.50000000  0.10900842  1.0
  Cr  Cr65  1  1.00000000  0.83333333  0.10900842  1.0
  Cr  Cr66  1  0.33333333  0.16666667  0.10900842  1.0
  Cr  Cr67  1  0.33333333  0.50000000  0.10900842  1.0
  Cr  Cr68  1  0.33333333  0.83333333  0.10900842  1.0
  Cr  Cr69  1  0.66666667  0.16666667  0.10900842  1.0
  Cr  Cr70  1  0.66666667  0.50000000  0.10900842  1.0
  Cr  Cr71  1  0.66666667  0.83333333  0.10900842  1.0
  Ni  Ni72  1  0.22192700  0.00000000  0.12176081  1.0
  Ni  Ni73  1  0.22192700  0.33333333  0.12176081  1.0
  Ni  Ni74  1  0.22192700  0.66666667  0.12176081  1.0
  Ni  Ni75  1  0.55526033  0.00000000  0.12176081  1.0
  Ni  Ni76  1  0.55526033  0.33333333  0.12176081  1.0
  Ni  Ni77  1  0.55526033  0.66666667  0.12176081  1.0
  Ni  Ni78  1  0.88859367  1.00000000  0.12176081  1.0
  Ni  Ni79  1  0.88859367  0.33333333  0.12176081  1.0
  Ni  Ni80  1  0.88859367  0.66666667  0.12176081  1.0
  Ni  Ni81  1  0.22192700  0.16666667  0.08329927  1.0
  Ni  Ni82  1  0.22192700  0.50000000  0.08329927  1.0
  Ni  Ni83  1  0.22192700  0.83333333  0.08329927  1.0
  Ni  Ni84  1  0.55526033  0.16666667  0.08329927  1.0
  Ni  Ni85  1  0.55526033  0.50000000  0.08329927  1.0
  Ni  Ni86  1  0.55526033  0.83333333  0.08329927  1.0
  Ni  Ni87  1  0.88859367  0.16666667  0.08329927  1.0
  Ni  Ni88  1  0.88859367  0.50000000  0.08329927  1.0
  Ni  Ni89  1  0.88859367  0.83333333  0.08329927  1.0
  Ni  Ni90  1  0.11140633  0.00000000  0.09625604  1.0
  Ni  Ni91  1  0.11140633  0.33333333  0.09625604  1.0
  Ni  Ni92  1  0.11140633  0.66666667  0.09625604  1.0
  Ni  Ni93  1  0.44473967  0.00000000  0.09625604  1.0
  Ni  Ni94  1  0.44473967  0.33333333  0.09625604  1.0
  Ni  Ni95  1  0.44473967  0.66666667  0.09625604  1.0
  Ni  Ni96  1  0.77807300  1.00000000  0.09625604  1.0
  Ni  Ni97  1  0.77807300  0.33333333  0.09625604  1.0
  Ni  Ni98  1  0.77807300  0.66666667  0.09625604  1.0
  Ni  Ni99  1  0.11140633  0.16666667  0.13471758  1.0
  Ni  Ni100  1  0.11140633  0.50000000  0.13471758  1.0
  Ni  Ni101  1  0.11140633  0.83333333  0.13471758  1.0
  Ni  Ni102  1  0.44473967  0.16666667  0.13471758  1.0
  Ni  Ni103  1  0.44473967  0.50000000  0.13471758  1.0
  Ni  Ni104  1  0.44473967  0.83333333  0.13471758  1.0
  Ni  Ni105  1  0.77807300  0.16666667  0.13471758  1.0
  Ni  Ni106  1  0.77807300  0.50000000  0.13471758  1.0
  Ni  Ni107  1  0.77807300  0.83333333  0.13471758  1.0
  Cr  Cr108  1  0.00000000  0.00000000  0.22439304  1.0
  Cr  Cr109  1  1.00000000  0.33333333  0.22439304  1.0
  Cr  Cr110  1  1.00000000  0.66666667  0.22439304  1.0
  Cr  Cr111  1  0.33333333  0.00000000  0.22439304  1.0
  Cr  Cr112  1  0.33333333  0.33333333  0.22439304  1.0
  Cr  Cr113  1  0.33333333  0.66666667  0.22439304  1.0
  Cr  Cr114  1  0.66666667  0.00000000  0.22439304  1.0
  Cr  Cr115  1  0.66666667  0.33333333  0.22439304  1.0
  Cr  Cr116  1  0.66666667  0.66666667  0.22439304  1.0
  Cr  Cr117  1  0.00000000  0.16666667  0.18593150  1.0
  Cr  Cr118  1  0.00000000  0.50000000  0.18593150  1.0
  Cr  Cr119  1  1.00000000  0.83333333  0.18593150  1.0
  Cr  Cr120  1  0.33333333  0.16666667  0.18593150  1.0
  Cr  Cr121  1  0.33333333  0.50000000  0.18593150  1.0
  Cr  Cr122  1  0.33333333  0.83333333  0.18593150  1.0
  Cr  Cr123  1  0.66666667  0.16666667  0.18593150  1.0
  Cr  Cr124  1  0.66666667  0.50000000  0.18593150  1.0
  Cr  Cr125  1  0.66666667  0.83333333  0.18593150  1.0
  Ni  Ni126  1  0.22192700  0.00000000  0.19868388  1.0
  Ni  Ni127  1  0.22192700  0.33333333  0.19868388  1.0
  Ni  Ni128  1  0.22192700  0.66666667  0.19868388  1.0
  Ni  Ni129  1  0.55526033  0.00000000  0.19868388  1.0
  Ni  Ni130  1  0.55526033  0.33333333  0.19868388  1.0
  Ni  Ni131  1  0.55526033  0.66666667  0.19868388  1.0
  Ni  Ni132  1  0.88859367  1.00000000  0.19868388  1.0
  Ni  Ni133  1  0.88859367  0.33333333  0.19868388  1.0
  Ni  Ni134  1  0.88859367  0.66666667  0.19868388  1.0
  Ni  Ni135  1  0.22192700  0.16666667  0.16022235  1.0
  Ni  Ni136  1  0.22192700  0.50000000  0.16022235  1.0
  Ni  Ni137  1  0.22192700  0.83333333  0.16022235  1.0
  Ni  Ni138  1  0.55526033  0.16666667  0.16022235  1.0
  Ni  Ni139  1  0.55526033  0.50000000  0.16022235  1.0
  Ni  Ni140  1  0.55526033  0.83333333  0.16022235  1.0
  Ni  Ni141  1  0.88859367  0.16666667  0.16022235  1.0
  Ni  Ni142  1  0.88859367  0.50000000  0.16022235  1.0
  Ni  Ni143  1  0.88859367  0.83333333  0.16022235  1.0
  Ni  Ni144  1  0.11140633  0.00000000  0.17317912  1.0
  Ni  Ni145  1  0.11140633  0.33333333  0.17317912  1.0
  Ni  Ni146  1  0.11140633  0.66666667  0.17317912  1.0
  Ni  Ni147  1  0.44473967  0.00000000  0.17317912  1.0
  Ni  Ni148  1  0.44473967  0.33333333  0.17317912  1.0
  Ni  Ni149  1  0.44473967  0.66666667  0.17317912  1.0
  Ni  Ni150  1  0.77807300  1.00000000  0.17317912  1.0
  Ni  Ni151  1  0.77807300  0.33333333  0.17317912  1.0
  Ni  Ni152  1  0.77807300  0.66666667  0.17317912  1.0
  Ni  Ni153  1  0.11140633  0.16666667  0.21164065  1.0
  Ni  Ni154  1  0.11140633  0.50000000  0.21164065  1.0
  Ni  Ni155  1  0.11140633  0.83333333  0.21164065  1.0
  Ni  Ni156  1  0.44473967  0.16666667  0.21164065  1.0
  Ni  Ni157  1  0.44473967  0.50000000  0.21164065  1.0
  Ni  Ni158  1  0.44473967  0.83333333  0.21164065  1.0
  Ni  Ni159  1  0.77807300  0.16666667  0.21164065  1.0
  Ni  Ni160  1  0.77807300  0.50000000  0.21164065  1.0
  Ni  Ni161  1  0.77807300  0.83333333  0.21164065  1.0
  Cr  Cr162  1  0.00000000  0.00000000  0.30131612  1.0
  Cr  Cr163  1  1.00000000  0.33333333  0.30131612  1.0
  Cr  Cr164  1  1.00000000  0.66666667  0.30131612  1.0
  Cr  Cr165  1  0.33333333  0.00000000  0.30131612  1.0
  Cr  Cr166  1  0.33333333  0.33333333  0.30131612  1.0
  Cr  Cr167  1  0.33333333  0.66666667  0.30131612  1.0
  Cr  Cr168  1  0.66666667  0.00000000  0.30131612  1.0
  Cr  Cr169  1  0.66666667  0.33333333  0.30131612  1.0
  Cr  Cr170  1  0.66666667  0.66666667  0.30131612  1.0
  Cr  Cr171  1  0.00000000  0.16666667  0.26285458  1.0
  Cr  Cr172  1  0.00000000  0.50000000  0.26285458  1.0
  Cr  Cr173  1  1.00000000  0.83333333  0.26285458  1.0
  Cr  Cr174  1  0.33333333  0.16666667  0.26285458  1.0
  Cr  Cr175  1  0.33333333  0.50000000  0.26285458  1.0
  Cr  Cr176  1  0.33333333  0.83333333  0.26285458  1.0
  Cr  Cr177  1  0.66666667  0.16666667  0.26285458  1.0
  Cr  Cr178  1  0.66666667  0.50000000  0.26285458  1.0
  Cr  Cr179  1  0.66666667  0.83333333  0.26285458  1.0
  Ni  Ni180  1  0.22192700  0.00000000  0.27560696  1.0
  Ni  Ni181  1  0.22192700  0.33333333  0.27560696  1.0
  Ni  Ni182  1  0.22192700  0.66666667  0.27560696  1.0
  Ni  Ni183  1  0.55526033  0.00000000  0.27560696  1.0
  Ni  Ni184  1  0.55526033  0.33333333  0.27560696  1.0
  Ni  Ni185  1  0.55526033  0.66666667  0.27560696  1.0
  Ni  Ni186  1  0.88859367  1.00000000  0.27560696  1.0
  Ni  Ni187  1  0.88859367  0.33333333  0.27560696  1.0
  Ni  Ni188  1  0.88859367  0.66666667  0.27560696  1.0
  Ni  Ni189  1  0.22192700  0.16666667  0.23714542  1.0
  Ni  Ni190  1  0.22192700  0.50000000  0.23714542  1.0
  Ni  Ni191  1  0.22192700  0.83333333  0.23714542  1.0
  Ni  Ni192  1  0.55526033  0.16666667  0.23714542  1.0
  Ni  Ni193  1  0.55526033  0.50000000  0.23714542  1.0
  Ni  Ni194  1  0.55526033  0.83333333  0.23714542  1.0
  Ni  Ni195  1  0.88859367  0.16666667  0.23714542  1.0
  Ni  Ni196  1  0.88859367  0.50000000  0.23714542  1.0
  Ni  Ni197  1  0.88859367  0.83333333  0.23714542  1.0
  Ni  Ni198  1  0.11140633  0.00000000  0.25010219  1.0
  Ni  Ni199  1  0.11140633  0.33333333  0.25010219  1.0
  Ni  Ni200  1  0.11140633  0.66666667  0.25010219  1.0
  Ni  Ni201  1  0.44473967  0.00000000  0.25010219  1.0
  Ni  Ni202  1  0.44473967  0.33333333  0.25010219  1.0
  Ni  Ni203  1  0.44473967  0.66666667  0.25010219  1.0
  Ni  Ni204  1  0.77807300  1.00000000  0.25010219  1.0
  Ni  Ni205  1  0.77807300  0.33333333  0.25010219  1.0
  Ni  Ni206  1  0.77807300  0.66666667  0.25010219  1.0
  Ni  Ni207  1  0.11140633  0.16666667  0.28856373  1.0
  Ni  Ni208  1  0.11140633  0.50000000  0.28856373  1.0
  Ni  Ni209  1  0.11140633  0.83333333  0.28856373  1.0
  Ni  Ni210  1  0.44473967  0.16666667  0.28856373  1.0
  Ni  Ni211  1  0.44473967  0.50000000  0.28856373  1.0
  Ni  Ni212  1  0.44473967  0.83333333  0.28856373  1.0
  Ni  Ni213  1  0.77807300  0.16666667  0.28856373  1.0
  Ni  Ni214  1  0.77807300  0.50000000  0.28856373  1.0
  Ni  Ni215  1  0.77807300  0.83333333  0.28856373  1.0
  Cr  Cr216  1  0.00000000  0.00000000  0.37823919  1.0
  Cr  Cr217  1  1.00000000  0.33333333  0.37823919  1.0
  Cr  Cr218  1  1.00000000  0.66666667  0.37823919  1.0
  Cr  Cr219  1  0.33333333  0.00000000  0.37823919  1.0
  Cr  Cr220  1  0.33333333  0.33333333  0.37823919  1.0
  Cr  Cr221  1  0.33333333  0.66666667  0.37823919  1.0
  Cr  Cr222  1  0.66666667  0.00000000  0.37823919  1.0
  Cr  Cr223  1  0.66666667  0.33333333  0.37823919  1.0
  Cr  Cr224  1  0.66666667  0.66666667  0.37823919  1.0
  Cr  Cr225  1  0.00000000  0.16666667  0.33977765  1.0
  Cr  Cr226  1  0.00000000  0.50000000  0.33977765  1.0
  Cr  Cr227  1  1.00000000  0.83333333  0.33977765  1.0
  Cr  Cr228  1  0.33333333  0.16666667  0.33977765  1.0
  Cr  Cr229  1  0.33333333  0.50000000  0.33977765  1.0
  Cr  Cr230  1  0.33333333  0.83333333  0.33977765  1.0
  Cr  Cr231  1  0.66666667  0.16666667  0.33977765  1.0
  Cr  Cr232  1  0.66666667  0.50000000  0.33977765  1.0
  Cr  Cr233  1  0.66666667  0.83333333  0.33977765  1.0
  Ni  Ni234  1  0.22192700  0.00000000  0.35253004  1.0
  Ni  Ni235  1  0.22192700  0.33333333  0.35253004  1.0
  Ni  Ni236  1  0.22192700  0.66666667  0.35253004  1.0
  Ni  Ni237  1  0.55526033  0.00000000  0.35253004  1.0
  Ni  Ni238  1  0.55526033  0.33333333  0.35253004  1.0
  Ni  Ni239  1  0.55526033  0.66666667  0.35253004  1.0
  Ni  Ni240  1  0.88859367  1.00000000  0.35253004  1.0
  Ni  Ni241  1  0.88859367  0.33333333  0.35253004  1.0
  Ni  Ni242  1  0.88859367  0.66666667  0.35253004  1.0
  Ni  Ni243  1  0.22192700  0.16666667  0.31406850  1.0
  Ni  Ni244  1  0.22192700  0.50000000  0.31406850  1.0
  Ni  Ni245  1  0.22192700  0.83333333  0.31406850  1.0
  Ni  Ni246  1  0.55526033  0.16666667  0.31406850  1.0
  Ni  Ni247  1  0.55526033  0.50000000  0.31406850  1.0
  Ni  Ni248  1  0.55526033  0.83333333  0.31406850  1.0
  Ni  Ni249  1  0.88859367  0.16666667  0.31406850  1.0
  Ni  Ni250  1  0.88859367  0.50000000  0.31406850  1.0
  Ni  Ni251  1  0.88859367  0.83333333  0.31406850  1.0
  Ni  Ni252  1  0.11140633  0.00000000  0.32702527  1.0
  Ni  Ni253  1  0.11140633  0.33333333  0.32702527  1.0
  Ni  Ni254  1  0.11140633  0.66666667  0.32702527  1.0
  Ni  Ni255  1  0.44473967  0.00000000  0.32702527  1.0
  Ni  Ni256  1  0.44473967  0.33333333  0.32702527  1.0
  Ni  Ni257  1  0.44473967  0.66666667  0.32702527  1.0
  Ni  Ni258  1  0.77807300  1.00000000  0.32702527  1.0
  Ni  Ni259  1  0.77807300  0.33333333  0.32702527  1.0
  Ni  Ni260  1  0.77807300  0.66666667  0.32702527  1.0
  Ni  Ni261  1  0.11140633  0.16666667  0.36548681  1.0
  Ni  Ni262  1  0.11140633  0.50000000  0.36548681  1.0
  Ni  Ni263  1  0.11140633  0.83333333  0.36548681  1.0
  Ni  Ni264  1  0.44473967  0.16666667  0.36548681  1.0
  Ni  Ni265  1  0.44473967  0.50000000  0.36548681  1.0
  Ni  Ni266  1  0.44473967  0.83333333  0.36548681  1.0
  Ni  Ni267  1  0.77807300  0.16666667  0.36548681  1.0
  Ni  Ni268  1  0.77807300  0.50000000  0.36548681  1.0
  Ni  Ni269  1  0.77807300  0.83333333  0.36548681  1.0
