# generated using pymatgen
data_CrNi2
_symmetry_space_group_name_H-M   'P 1'
_cell_length_a   34.01972679
_cell_length_b   19.83414085
_cell_length_c   94.51034824
_cell_angle_alpha   78.16045682
_cell_angle_beta   35.46797406
_cell_angle_gamma   45.76237922
_symmetry_Int_Tables_number   1
_chemical_formula_structural   CrNi2
_chemical_formula_sum   'Cr162 Ni324'
_cell_volume   12919.95114941
_cell_formula_units_Z   162
loop_
 _symmetry_equiv_pos_site_id
 _symmetry_equiv_pos_as_xyz
  1  'x, y, z'
loop_
 _atom_site_type_symbol
 _atom_site_label
 _atom_site_symmetry_multiplicity
 _atom_site_fract_x
 _atom_site_fract_y
 _atom_site_fract_z
 _atom_site_occupancy
  Cr  Cr0  1  0.00000000  0.00000000  0.04165660  1.0
  Cr  Cr1  1  0.00000000  0.33333333  0.04165660  1.0
  Cr  Cr2  1  0.00000000  0.66666667  0.04165660  1.0
  Cr  Cr3  1  0.33333333  0.00000000  0.04165660  1.0
  Cr  Cr4  1  0.33333333  0.33333333  0.04165660  1.0
  Cr  Cr5  1  0.33333333  0.66666667  0.04165660  1.0
  Cr  Cr6  1  0.66666667  0.00000000  0.04165660  1.0
  Cr  Cr7  1  0.66666667  0.33333333  0.04165660  1.0
  Cr  Cr8  1  0.66666667  0.66666667  0.04165660  1.0
  Cr  Cr9  1  0.00000000  0.16666667  0.01892933  1.0
  Cr  Cr10  1  0.00000000  0.50000000  0.01892933  1.0
  Cr  Cr11  1  0.00000000  0.83333333  0.01892933  1.0
  Cr  Cr12  1  0.33333333  0.16666667  0.01892933  1.0
  Cr  Cr13  1  0.33333333  0.50000000  0.01892933  1.0
  Cr  Cr14  1  0.33333333  0.83333333  0.01892933  1.0
  Cr  Cr15  1  0.66666667  0.16666667  0.01892933  1.0
  Cr  Cr16  1  0.66666667  0.50000000  0.01892933  1.0
  Cr  Cr17  1  0.66666667  0.83333333  0.01892933  1.0
  Ni  Ni18  1  0.22192700  0.22236983  0.02652522  1.0
  Ni  Ni19  1  0.22192700  0.55570317  0.02652522  1.0
  Ni  Ni20  1  0.22192700  0.88903650  0.02652522  1.0
  Ni  Ni21  1  0.55526033  0.22236983  0.02652522  1.0
  Ni  Ni22  1  0.55526033  0.55570317  0.02652522  1.0
  Ni  Ni23  1  0.55526033  0.88903650  0.02652522  1.0
  Ni  Ni24  1  0.88859367  0.22236983  0.02652522  1.0
  Ni  Ni25  1  0.88859367  0.55570317  0.02652522  1.0
  Ni  Ni26  1  0.88859367  0.88903650  0.02652522  1.0
  Ni  Ni27  1  0.22192700  0.05570317  0.00379794  1.0
  Ni  Ni28  1  0.22192700  0.38903650  0.00379794  1.0
  Ni  Ni29  1  0.22192700  0.72236983  0.00379794  1.0
  Ni  Ni30  1  0.55526033  0.05570317  0.00379794  1.0
  Ni  Ni31  1  0.55526033  0.38903650  0.00379794  1.0
  Ni  Ni32  1  0.55526033  0.72236983  0.00379794  1.0
  Ni  Ni33  1  0.88859367  0.05570317  0.00379794  1.0
  Ni  Ni34  1  0.88859367  0.38903650  0.00379794  1.0
  Ni  Ni35  1  0.88859367  0.72236983  0.00379794  1.0
  Ni  Ni36  1  0.11140633  0.27763017  0.03406072  1.0
  Ni  Ni37  1  0.11140633  0.61096350  0.03406072  1.0
  Ni  Ni38  1  0.11140633  0.94429683  0.03406072  1.0
  Ni  Ni39  1  0.44473967  0.27763017  0.03406072  1.0
  Ni  Ni40  1  0.44473967  0.61096350  0.03406072  1.0
  Ni  Ni41  1  0.44473967  0.94429683  0.03406072  1.0
  Ni  Ni42  1  0.77807300  0.27763017  0.03406072  1.0
  Ni  Ni43  1  0.77807300  0.61096350  0.03406072  1.0
  Ni  Ni44  1  0.77807300  0.94429683  0.03406072  1.0
  Ni  Ni45  1  0.11140633  0.11096350  0.01133344  1.0
  Ni  Ni46  1  0.11140633  0.44429683  0.01133344  1.0
  Ni  Ni47  1  0.11140633  0.77763017  0.01133344  1.0
  Ni  Ni48  1  0.44473967  0.11096350  0.01133344  1.0
  Ni  Ni49  1  0.44473967  0.44429683  0.01133344  1.0
  Ni  Ni50  1  0.44473967  0.77763017  0.01133344  1.0
  Ni  Ni51  1  0.77807300  0.11096350  0.01133344  1.0
  Ni  Ni52  1  0.77807300  0.44429683  0.01133344  1.0
  Ni  Ni53  1  0.77807300  0.77763017  0.01133344  1.0
  Cr  Cr54  1  0.00000000  0.00000000  0.08711115  1.0
  Cr  Cr55  1  0.00000000  0.33333333  0.08711115  1.0
  Cr  Cr56  1  0.00000000  0.66666667  0.08711115  1.0
  Cr  Cr57  1  0.33333333  0.00000000  0.08711115  1.0
  Cr  Cr58  1  0.33333333  0.33333333  0.08711115  1.0
  Cr  Cr59  1  0.33333333  0.66666667  0.08711115  1.0
  Cr  Cr60  1  0.66666667  0.00000000  0.08711115  1.0
  Cr  Cr61  1  0.66666667  0.33333333  0.08711115  1.0
  Cr  Cr62  1  0.66666667  0.66666667  0.08711115  1.0
  Cr  Cr63  1  0.00000000  0.16666667  0.06438387  1.0
  Cr  Cr64  1  0.00000000  0.50000000  0.06438387  1.0
  Cr  Cr65  1  0.00000000  0.83333333  0.06438387  1.0
  Cr  Cr66  1  0.33333333  0.16666667  0.06438388  1.0
  Cr  Cr67  1  0.33333333  0.50000000  0.06438387  1.0
  Cr  Cr68  1  0.33333333  0.83333333  0.06438387  1.0
  Cr  Cr69  1  0.66666667  0.16666667  0.06438388  1.0
  Cr  Cr70  1  0.66666667  0.50000000  0.06438387  1.0
  Cr  Cr71  1  0.66666667  0.83333333  0.06438387  1.0
  Ni  Ni72  1  0.22192700  0.22236983  0.07197976  1.0
  Ni  Ni73  1  0.22192700  0.55570317  0.07197976  1.0
  Ni  Ni74  1  0.22192700  0.88903650  0.07197976  1.0
  Ni  Ni75  1  0.55526033  0.22236983  0.07197976  1.0
  Ni  Ni76  1  0.55526033  0.55570317  0.07197976  1.0
  Ni  Ni77  1  0.55526033  0.88903650  0.07197976  1.0
  Ni  Ni78  1  0.88859367  0.22236983  0.07197976  1.0
  Ni  Ni79  1  0.88859367  0.55570317  0.07197976  1.0
  Ni  Ni80  1  0.88859367  0.88903650  0.07197976  1.0
  Ni  Ni81  1  0.22192700  0.05570317  0.04925249  1.0
  Ni  Ni82  1  0.22192700  0.38903650  0.04925249  1.0
  Ni  Ni83  1  0.22192700  0.72236983  0.04925249  1.0
  Ni  Ni84  1  0.55526033  0.05570317  0.04925249  1.0
  Ni  Ni85  1  0.55526033  0.38903650  0.04925249  1.0
  Ni  Ni86  1  0.55526033  0.72236983  0.04925249  1.0
  Ni  Ni87  1  0.88859367  0.05570317  0.04925249  1.0
  Ni  Ni88  1  0.88859367  0.38903650  0.04925249  1.0
  Ni  Ni89  1  0.88859367  0.72236983  0.04925249  1.0
  Ni  Ni90  1  0.11140633  0.27763017  0.07951526  1.0
  Ni  Ni91  1  0.11140633  0.61096350  0.07951526  1.0
  Ni  Ni92  1  0.11140633  0.94429683  0.07951526  1.0
  Ni  Ni93  1  0.44473967  0.27763017  0.07951526  1.0
  Ni  Ni94  1  0.44473967  0.61096350  0.07951526  1.0
  Ni  Ni95  1  0.44473967  0.94429683  0.07951526  1.0
  Ni  Ni96  1  0.77807300  0.27763017  0.07951526  1.0
  Ni  Ni97  1  0.77807300  0.61096350  0.07951526  1.0
  Ni  Ni98  1  0.77807300  0.94429683  0.07951526  1.0
  Ni  Ni99  1  0.11140633  0.11096350  0.05678799  1.0
  Ni  Ni100  1  0.11140633  0.44429683  0.05678799  1.0
  Ni  Ni101  1  0.11140633  0.77763017  0.05678799  1.0
  Ni  Ni102  1  0.44473967  0.11096350  0.05678799  1.0
  Ni  Ni103  1  0.44473967  0.44429683  0.05678799  1.0
  Ni  Ni104  1  0.44473967  0.77763017  0.05678799  1.0
  Ni  Ni105  1  0.77807300  0.11096350  0.05678799  1.0
  Ni  Ni106  1  0.77807300  0.44429683  0.05678799  1.0
  Ni  Ni107  1  0.77807300  0.77763017  0.05678799  1.0
  Cr  Cr108  1  0.00000000  0.00000000  0.13256569  1.0
  Cr  Cr109  1  0.00000000  0.33333333  0.13256569  1.0
  Cr  Cr110  1  0.00000000  0.66666667  0.13256569  1.0
  Cr  Cr111  1  0.33333333  0.00000000  0.13256569  1.0
  Cr  Cr112  1  0.33333333  0.33333333  0.13256569  1.0
  Cr  Cr113  1  0.33333333  0.66666667  0.13256569  1.0
  Cr  Cr114  1  0.66666667  0.00000000  0.13256569  1.0
  Cr  Cr115  1  0.66666667  0.33333333  0.13256569  1.0
  Cr  Cr116  1  0.66666667  0.66666667  0.13256569  1.0
  Cr  Cr117  1  0.00000000  0.16666667  0.10983842  1.0
  Cr  Cr118  1  0.00000000  0.50000000  0.10983842  1.0
  Cr  Cr119  1  0.00000000  0.83333333  0.10983842  1.0
  Cr  Cr120  1  0.33333333  0.16666667  0.10983842  1.0
  Cr  Cr121  1  0.33333333  0.50000000  0.10983842  1.0
  Cr  Cr122  1  0.33333333  0.83333333  0.10983842  1.0
  Cr  Cr123  1  0.66666667  0.16666667  0.10983842  1.0
  Cr  Cr124  1  0.66666667  0.50000000  0.10983842  1.0
  Cr  Cr125  1  0.66666667  0.83333333  0.10983842  1.0
  Ni  Ni126  1  0.22192700  0.22236983  0.11743431  1.0
  Ni  Ni127  1  0.22192700  0.55570317  0.11743431  1.0
  Ni  Ni128  1  0.22192700  0.88903650  0.11743431  1.0
  Ni  Ni129  1  0.55526033  0.22236983  0.11743431  1.0
  Ni  Ni130  1  0.55526033  0.55570317  0.11743431  1.0
  Ni  Ni131  1  0.55526033  0.88903650  0.11743431  1.0
  Ni  Ni132  1  0.88859367  0.22236983  0.11743431  1.0
  Ni  Ni133  1  0.88859367  0.55570317  0.11743431  1.0
  Ni  Ni134  1  0.88859367  0.88903650  0.11743431  1.0
  Ni  Ni135  1  0.22192700  0.05570317  0.09470703  1.0
  Ni  Ni136  1  0.22192700  0.38903650  0.09470703  1.0
  Ni  Ni137  1  0.22192700  0.72236983  0.09470703  1.0
  Ni  Ni138  1  0.55526033  0.05570317  0.09470703  1.0
  Ni  Ni139  1  0.55526033  0.38903650  0.09470703  1.0
  Ni  Ni140  1  0.55526033  0.72236983  0.09470703  1.0
  Ni  Ni141  1  0.88859367  0.05570317  0.09470703  1.0
  Ni  Ni142  1  0.88859367  0.38903650  0.09470703  1.0
  Ni  Ni143  1  0.88859367  0.72236983  0.09470703  1.0
  Ni  Ni144  1  0.11140633  0.27763017  0.12496981  1.0
  Ni  Ni145  1  0.11140633  0.61096350  0.12496981  1.0
  Ni  Ni146  1  0.11140633  0.94429683  0.12496981  1.0
  Ni  Ni147  1  0.44473967  0.27763017  0.12496981  1.0
  Ni  Ni148  1  0.44473967  0.61096350  0.12496981  1.0
  Ni  Ni149  1  0.44473967  0.94429683  0.12496981  1.0
  Ni  Ni150  1  0.77807300  0.27763017  0.12496981  1.0
  Ni  Ni151  1  0.77807300  0.61096350  0.12496981  1.0
  Ni  Ni152  1  0.77807300  0.94429683  0.12496981  1.0
  Ni  Ni153  1  0.11140633  0.11096350  0.10224253  1.0
  Ni  Ni154  1  0.11140633  0.44429683  0.10224253  1.0
  Ni  Ni155  1  0.11140633  0.77763017  0.10224253  1.0
  Ni  Ni156  1  0.44473967  0.11096350  0.10224253  1.0
  Ni  Ni157  1  0.44473967  0.44429683  0.10224253  1.0
  Ni  Ni158  1  0.44473967  0.77763017  0.10224253  1.0
  Ni  Ni159  1  0.77807300  0.11096350  0.10224253  1.0
  Ni  Ni160  1  0.77807300  0.44429683  0.10224253  1.0
  Ni  Ni161  1  0.77807300  0.77763017  0.10224253  1.0
  Cr  Cr162  1  0.00000000  0.00000000  0.17802024  1.0
  Cr  Cr163  1  0.00000000  0.33333333  0.17802024  1.0
  Cr  Cr164  1  0.00000000  0.66666667  0.17802024  1.0
  Cr  Cr165  1  0.33333333  0.00000000  0.17802024  1.0
  Cr  Cr166  1  0.33333333  0.33333333  0.17802024  1.0
  Cr  Cr167  1  0.33333333  0.66666667  0.17802024  1.0
  Cr  Cr168  1  0.66666667  0.00000000  0.17802024  1.0
  Cr  Cr169  1  0.66666667  0.33333333  0.17802024  1.0
  Cr  Cr170  1  0.66666667  0.66666667  0.17802024  1.0
  Cr  Cr171  1  0.00000000  0.16666667  0.15529297  1.0
  Cr  Cr172  1  0.00000000  0.50000000  0.15529297  1.0
  Cr  Cr173  1  0.00000000  0.83333333  0.15529297  1.0
  Cr  Cr174  1  0.33333333  0.16666667  0.15529297  1.0
  Cr  Cr175  1  0.33333333  0.50000000  0.15529297  1.0
  Cr  Cr176  1  0.33333333  0.83333333  0.15529297  1.0
  Cr  Cr177  1  0.66666667  0.16666667  0.15529297  1.0
  Cr  Cr178  1  0.66666667  0.50000000  0.15529297  1.0
  Cr  Cr179  1  0.66666667  0.83333333  0.15529297  1.0
  Ni  Ni180  1  0.22192700  0.22236983  0.16288885  1.0
  Ni  Ni181  1  0.22192700  0.55570317  0.16288885  1.0
  Ni  Ni182  1  0.22192700  0.88903650  0.16288885  1.0
  Ni  Ni183  1  0.55526033  0.22236983  0.16288885  1.0
  Ni  Ni184  1  0.55526033  0.55570317  0.16288885  1.0
  Ni  Ni185  1  0.55526033  0.88903650  0.16288885  1.0
  Ni  Ni186  1  0.88859367  0.22236983  0.16288885  1.0
  Ni  Ni187  1  0.88859367  0.55570317  0.16288885  1.0
  Ni  Ni188  1  0.88859367  0.88903650  0.16288885  1.0
  Ni  Ni189  1  0.22192700  0.05570317  0.14016158  1.0
  Ni  Ni190  1  0.22192700  0.38903650  0.14016158  1.0
  Ni  Ni191  1  0.22192700  0.72236983  0.14016158  1.0
  Ni  Ni192  1  0.55526033  0.05570317  0.14016158  1.0
  Ni  Ni193  1  0.55526033  0.38903650  0.14016158  1.0
  Ni  Ni194  1  0.55526033  0.72236983  0.14016158  1.0
  Ni  Ni195  1  0.88859367  0.05570317  0.14016158  1.0
  Ni  Ni196  1  0.88859367  0.38903650  0.14016158  1.0
  Ni  Ni197  1  0.88859367  0.72236983  0.14016158  1.0
  Ni  Ni198  1  0.11140633  0.27763017  0.17042435  1.0
  Ni  Ni199  1  0.11140633  0.61096350  0.17042435  1.0
  Ni  Ni200  1  0.11140633  0.94429683  0.17042435  1.0
  Ni  Ni201  1  0.44473967  0.27763017  0.17042435  1.0
  Ni  Ni202  1  0.44473967  0.61096350  0.17042435  1.0
  Ni  Ni203  1  0.44473967  0.94429683  0.17042435  1.0
  Ni  Ni204  1  0.77807300  0.27763017  0.17042435  1.0
  Ni  Ni205  1  0.77807300  0.61096350  0.17042435  1.0
  Ni  Ni206  1  0.77807300  0.94429683  0.17042435  1.0
  Ni  Ni207  1  0.11140633  0.11096350  0.14769708  1.0
  Ni  Ni208  1  0.11140633  0.44429683  0.14769708  1.0
  Ni  Ni209  1  0.11140633  0.77763017  0.14769708  1.0
  Ni  Ni210  1  0.44473967  0.11096350  0.14769708  1.0
  Ni  Ni211  1  0.44473967  0.44429683  0.14769708  1.0
  Ni  Ni212  1  0.44473967  0.77763017  0.14769708  1.0
  Ni  Ni213  1  0.77807300  0.11096350  0.14769708  1.0
  Ni  Ni214  1  0.77807300  0.44429683  0.14769708  1.0
  Ni  Ni215  1  0.77807300  0.77763017  0.14769708  1.0
  Cr  Cr216  1  0.00000000  0.00000000  0.22347478  1.0
  Cr  Cr217  1  0.00000000  0.33333333  0.22347478  1.0
  Cr  Cr218  1  0.00000000  0.66666667  0.22347478  1.0
  Cr  Cr219  1  0.33333333  0.00000000  0.22347478  1.0
  Cr  Cr220  1  0.33333333  0.33333333  0.22347478  1.0
  Cr  Cr221  1  0.33333333  0.66666667  0.22347478  1.0
  Cr  Cr222  1  0.66666667  0.00000000  0.22347478  1.0
  Cr  Cr223  1  0.66666667  0.33333333  0.22347478  1.0
  Cr  Cr224  1  0.66666667  0.66666667  0.22347478  1.0
  Cr  Cr225  1  0.00000000  0.16666667  0.20074751  1.0
  Cr  Cr226  1  0.00000000  0.50000000  0.20074751  1.0
  Cr  Cr227  1  0.00000000  0.83333333  0.20074751  1.0
  Cr  Cr228  1  0.33333333  0.16666667  0.20074751  1.0
  Cr  Cr229  1  0.33333333  0.50000000  0.20074751  1.0
  Cr  Cr230  1  0.33333333  0.83333333  0.20074751  1.0
  Cr  Cr231  1  0.66666667  0.16666667  0.20074751  1.0
  Cr  Cr232  1  0.66666667  0.50000000  0.20074751  1.0
  Cr  Cr233  1  0.66666667  0.83333333  0.20074751  1.0
  Ni  Ni234  1  0.22192700  0.22236983  0.20834340  1.0
  Ni  Ni235  1  0.22192700  0.55570317  0.20834340  1.0
  Ni  Ni236  1  0.22192700  0.88903650  0.20834340  1.0
  Ni  Ni237  1  0.55526033  0.22236983  0.20834340  1.0
  Ni  Ni238  1  0.55526033  0.55570317  0.20834340  1.0
  Ni  Ni239  1  0.55526033  0.88903650  0.20834340  1.0
  Ni  Ni240  1  0.88859367  0.22236983  0.20834340  1.0
  Ni  Ni241  1  0.88859367  0.55570317  0.20834340  1.0
  Ni  Ni242  1  0.88859367  0.88903650  0.20834340  1.0
  Ni  Ni243  1  0.22192700  0.05570317  0.18561613  1.0
  Ni  Ni244  1  0.22192700  0.38903650  0.18561613  1.0
  Ni  Ni245  1  0.22192700  0.72236983  0.18561612  1.0
  Ni  Ni246  1  0.55526033  0.05570317  0.18561612  1.0
  Ni  Ni247  1  0.55526033  0.38903650  0.18561613  1.0
  Ni  Ni248  1  0.55526033  0.72236983  0.18561612  1.0
  Ni  Ni249  1  0.88859367  0.05570317  0.18561613  1.0
  Ni  Ni250  1  0.88859367  0.38903650  0.18561613  1.0
  Ni  Ni251  1  0.88859367  0.72236983  0.18561612  1.0
  Ni  Ni252  1  0.11140633  0.27763017  0.21587890  1.0
  Ni  Ni253  1  0.11140633  0.61096350  0.21587890  1.0
  Ni  Ni254  1  0.11140633  0.94429683  0.21587890  1.0
  Ni  Ni255  1  0.44473967  0.27763017  0.21587890  1.0
  Ni  Ni256  1  0.44473967  0.61096350  0.21587890  1.0
  Ni  Ni257  1  0.44473967  0.94429683  0.21587890  1.0
  Ni  Ni258  1  0.77807300  0.27763017  0.21587890  1.0
  Ni  Ni259  1  0.77807300  0.61096350  0.21587890  1.0
  Ni  Ni260  1  0.77807300  0.94429683  0.21587890  1.0
  Ni  Ni261  1  0.11140633  0.11096350  0.19315162  1.0
  Ni  Ni262  1  0.11140633  0.44429683  0.19315162  1.0
  Ni  Ni263  1  0.11140633  0.77763017  0.19315162  1.0
  Ni  Ni264  1  0.44473967  0.11096350  0.19315162  1.0
  Ni  Ni265  1  0.44473967  0.44429683  0.19315162  1.0
  Ni  Ni266  1  0.44473967  0.77763017  0.19315162  1.0
  Ni  Ni267  1  0.77807300  0.11096350  0.19315162  1.0
  Ni  Ni268  1  0.77807300  0.44429683  0.19315162  1.0
  Ni  Ni269  1  0.77807300  0.77763017  0.19315162  1.0
  Cr  Cr270  1  0.00000000  0.00000000  0.26892933  1.0
  Cr  Cr271  1  0.00000000  0.33333333  0.26892933  1.0
  Cr  Cr272  1  0.00000000  0.66666667  0.26892933  1.0
  Cr  Cr273  1  0.33333333  0.00000000  0.26892933  1.0
  Cr  Cr274  1  0.33333333  0.33333333  0.26892933  1.0
  Cr  Cr275  1  0.33333333  0.66666667  0.26892933  1.0
  Cr  Cr276  1  0.66666667  0.00000000  0.26892933  1.0
  Cr  Cr277  1  0.66666667  0.33333333  0.26892933  1.0
  Cr  Cr278  1  0.66666667  0.66666667  0.26892933  1.0
  Cr  Cr279  1  0.00000000  0.16666667  0.24620206  1.0
  Cr  Cr280  1  0.00000000  0.50000000  0.24620206  1.0
  Cr  Cr281  1  0.00000000  0.83333333  0.24620206  1.0
  Cr  Cr282  1  0.33333333  0.16666667  0.24620206  1.0
  Cr  Cr283  1  0.33333333  0.50000000  0.24620206  1.0
  Cr  Cr284  1  0.33333333  0.83333333  0.24620206  1.0
  Cr  Cr285  1  0.66666667  0.16666667  0.24620206  1.0
  Cr  Cr286  1  0.66666667  0.50000000  0.24620206  1.0
  Cr  Cr287  1  0.66666667  0.83333333  0.24620206  1.0
  Ni  Ni288  1  0.22192700  0.22236983  0.25379794  1.0
  Ni  Ni289  1  0.22192700  0.55570317  0.25379794  1.0
  Ni  Ni290  1  0.22192700  0.88903650  0.25379794  1.0
  Ni  Ni291  1  0.55526033  0.22236983  0.25379794  1.0
  Ni  Ni292  1  0.55526033  0.55570317  0.25379794  1.0
  Ni  Ni293  1  0.55526033  0.88903650  0.25379794  1.0
  Ni  Ni294  1  0.88859367  0.22236983  0.25379794  1.0
  Ni  Ni295  1  0.88859367  0.55570317  0.25379794  1.0
  Ni  Ni296  1  0.88859367  0.88903650  0.25379794  1.0
  Ni  Ni297  1  0.22192700  0.05570317  0.23107067  1.0
  Ni  Ni298  1  0.22192700  0.38903650  0.23107067  1.0
  Ni  Ni299  1  0.22192700  0.72236983  0.23107067  1.0
  Ni  Ni300  1  0.55526033  0.05570317  0.23107067  1.0
  Ni  Ni301  1  0.55526033  0.38903650  0.23107067  1.0
  Ni  Ni302  1  0.55526033  0.72236983  0.23107067  1.0
  Ni  Ni303  1  0.88859367  0.05570317  0.23107067  1.0
  Ni  Ni304  1  0.88859367  0.38903650  0.23107067  1.0
  Ni  Ni305  1  0.88859367  0.72236983  0.23107067  1.0
  Ni  Ni306  1  0.11140633  0.27763017  0.26133344  1.0
  Ni  Ni307  1  0.11140633  0.61096350  0.26133344  1.0
  Ni  Ni308  1  0.11140633  0.94429683  0.26133344  1.0
  Ni  Ni309  1  0.44473967  0.27763017  0.26133344  1.0
  Ni  Ni310  1  0.44473967  0.61096350  0.26133344  1.0
  Ni  Ni311  1  0.44473967  0.94429683  0.26133344  1.0
  Ni  Ni312  1  0.77807300  0.27763017  0.26133344  1.0
  Ni  Ni313  1  0.77807300  0.61096350  0.26133344  1.0
  Ni  Ni314  1  0.77807300  0.94429683  0.26133344  1.0
  Ni  Ni315  1  0.11140633  0.11096350  0.23860617  1.0
  Ni  Ni316  1  0.11140633  0.44429683  0.23860617  1.0
  Ni  Ni317  1  0.11140633  0.77763017  0.23860617  1.0
  Ni  Ni318  1  0.44473967  0.11096350  0.23860617  1.0
  Ni  Ni319  1  0.44473967  0.44429683  0.23860617  1.0
  Ni  Ni320  1  0.44473967  0.77763017  0.23860617  1.0
  Ni  Ni321  1  0.77807300  0.11096350  0.23860617  1.0
  Ni  Ni322  1  0.77807300  0.44429683  0.23860617  1.0
  Ni  Ni323  1  0.77807300  0.77763017  0.23860617  1.0
  Cr  Cr324  1  0.00000000  0.00000000  0.31438388  1.0
  Cr  Cr325  1  0.00000000  0.33333333  0.31438387  1.0
  Cr  Cr326  1  0.00000000  0.66666667  0.31438387  1.0
  Cr  Cr327  1  0.33333333  0.00000000  0.31438388  1.0
  Cr  Cr328  1  0.33333333  0.33333333  0.31438387  1.0
  Cr  Cr329  1  0.33333333  0.66666667  0.31438387  1.0
  Cr  Cr330  1  0.66666667  0.00000000  0.31438387  1.0
  Cr  Cr331  1  0.66666667  0.33333333  0.31438388  1.0
  Cr  Cr332  1  0.66666667  0.66666667  0.31438387  1.0
  Cr  Cr333  1  0.00000000  0.16666667  0.29165660  1.0
  Cr  Cr334  1  0.00000000  0.50000000  0.29165660  1.0
  Cr  Cr335  1  0.00000000  0.83333333  0.29165660  1.0
  Cr  Cr336  1  0.33333333  0.16666667  0.29165660  1.0
  Cr  Cr337  1  0.33333333  0.50000000  0.29165660  1.0
  Cr  Cr338  1  0.33333333  0.83333333  0.29165660  1.0
  Cr  Cr339  1  0.66666667  0.16666667  0.29165660  1.0
  Cr  Cr340  1  0.66666667  0.50000000  0.29165660  1.0
  Cr  Cr341  1  0.66666667  0.83333333  0.29165660  1.0
  Ni  Ni342  1  0.22192700  0.22236983  0.29925249  1.0
  Ni  Ni343  1  0.22192700  0.55570317  0.29925249  1.0
  Ni  Ni344  1  0.22192700  0.88903650  0.29925249  1.0
  Ni  Ni345  1  0.55526033  0.22236983  0.29925249  1.0
  Ni  Ni346  1  0.55526033  0.55570317  0.29925249  1.0
  Ni  Ni347  1  0.55526033  0.88903650  0.29925249  1.0
  Ni  Ni348  1  0.88859367  0.22236983  0.29925249  1.0
  Ni  Ni349  1  0.88859367  0.55570317  0.29925249  1.0
  Ni  Ni350  1  0.88859367  0.88903650  0.29925249  1.0
  Ni  Ni351  1  0.22192700  0.05570317  0.27652522  1.0
  Ni  Ni352  1  0.22192700  0.38903650  0.27652522  1.0
  Ni  Ni353  1  0.22192700  0.72236983  0.27652522  1.0
  Ni  Ni354  1  0.55526033  0.05570317  0.27652522  1.0
  Ni  Ni355  1  0.55526033  0.38903650  0.27652522  1.0
  Ni  Ni356  1  0.55526033  0.72236983  0.27652522  1.0
  Ni  Ni357  1  0.88859367  0.05570317  0.27652522  1.0
  Ni  Ni358  1  0.88859367  0.38903650  0.27652522  1.0
  Ni  Ni359  1  0.88859367  0.72236983  0.27652522  1.0
  Ni  Ni360  1  0.11140633  0.27763017  0.30678799  1.0
  Ni  Ni361  1  0.11140633  0.61096350  0.30678799  1.0
  Ni  Ni362  1  0.11140633  0.94429683  0.30678799  1.0
  Ni  Ni363  1  0.44473967  0.27763017  0.30678799  1.0
  Ni  Ni364  1  0.44473967  0.61096350  0.30678799  1.0
  Ni  Ni365  1  0.44473967  0.94429683  0.30678799  1.0
  Ni  Ni366  1  0.77807300  0.27763017  0.30678799  1.0
  Ni  Ni367  1  0.77807300  0.61096350  0.30678799  1.0
  Ni  Ni368  1  0.77807300  0.94429683  0.30678799  1.0
  Ni  Ni369  1  0.11140633  0.11096350  0.28406072  1.0
  Ni  Ni370  1  0.11140633  0.44429683  0.28406072  1.0
  Ni  Ni371  1  0.11140633  0.77763017  0.28406072  1.0
  Ni  Ni372  1  0.44473967  0.11096350  0.28406072  1.0
  Ni  Ni373  1  0.44473967  0.44429683  0.28406072  1.0
  Ni  Ni374  1  0.44473967  0.77763017  0.28406072  1.0
  Ni  Ni375  1  0.77807300  0.11096350  0.28406072  1.0
  Ni  Ni376  1  0.77807300  0.44429683  0.28406072  1.0
  Ni  Ni377  1  0.77807300  0.77763017  0.28406072  1.0
  Cr  Cr378  1  0.00000000  0.00000000  0.35983842  1.0
  Cr  Cr379  1  0.00000000  0.33333333  0.35983842  1.0
  Cr  Cr380  1  0.00000000  0.66666667  0.35983842  1.0
  Cr  Cr381  1  0.33333333  0.00000000  0.35983842  1.0
  Cr  Cr382  1  0.33333333  0.33333333  0.35983842  1.0
  Cr  Cr383  1  0.33333333  0.66666667  0.35983842  1.0
  Cr  Cr384  1  0.66666667  0.00000000  0.35983842  1.0
  Cr  Cr385  1  0.66666667  0.33333333  0.35983842  1.0
  Cr  Cr386  1  0.66666667  0.66666667  0.35983842  1.0
  Cr  Cr387  1  0.00000000  0.16666667  0.33711115  1.0
  Cr  Cr388  1  0.00000000  0.50000000  0.33711115  1.0
  Cr  Cr389  1  0.00000000  0.83333333  0.33711115  1.0
  Cr  Cr390  1  0.33333333  0.16666667  0.33711115  1.0
  Cr  Cr391  1  0.33333333  0.50000000  0.33711115  1.0
  Cr  Cr392  1  0.33333333  0.83333333  0.33711115  1.0
  Cr  Cr393  1  0.66666667  0.16666667  0.33711115  1.0
  Cr  Cr394  1  0.66666667  0.50000000  0.33711115  1.0
  Cr  Cr395  1  0.66666667  0.83333333  0.33711115  1.0
  Ni  Ni396  1  0.22192700  0.22236983  0.34470703  1.0
  Ni  Ni397  1  0.22192700  0.55570317  0.34470703  1.0
  Ni  Ni398  1  0.22192700  0.88903650  0.34470703  1.0
  Ni  Ni399  1  0.55526033  0.22236983  0.34470703  1.0
  Ni  Ni400  1  0.55526033  0.55570317  0.34470703  1.0
  Ni  Ni401  1  0.55526033  0.88903650  0.34470703  1.0
  Ni  Ni402  1  0.88859367  0.22236983  0.34470703  1.0
  Ni  Ni403  1  0.88859367  0.55570317  0.34470703  1.0
  Ni  Ni404  1  0.88859367  0.88903650  0.34470703  1.0
  Ni  Ni405  1  0.22192700  0.05570317  0.32197976  1.0
  Ni  Ni406  1  0.22192700  0.38903650  0.32197976  1.0
  Ni  Ni407  1  0.22192700  0.72236983  0.32197976  1.0
  Ni  Ni408  1  0.55526033  0.05570317  0.32197976  1.0
  Ni  Ni409  1  0.55526033  0.38903650  0.32197976  1.0
  Ni  Ni410  1  0.55526033  0.72236983  0.32197976  1.0
  Ni  Ni411  1  0.88859367  0.05570317  0.32197976  1.0
  Ni  Ni412  1  0.88859367  0.38903650  0.32197976  1.0
  Ni  Ni413  1  0.88859367  0.72236983  0.32197976  1.0
  Ni  Ni414  1  0.11140633  0.27763017  0.35224253  1.0
  Ni  Ni415  1  0.11140633  0.61096350  0.35224253  1.0
  Ni  Ni416  1  0.11140633  0.94429683  0.35224253  1.0
  Ni  Ni417  1  0.44473967  0.27763017  0.35224253  1.0
  Ni  Ni418  1  0.44473967  0.61096350  0.35224253  1.0
  Ni  Ni419  1  0.44473967  0.94429683  0.35224253  1.0
  Ni  Ni420  1  0.77807300  0.27763017  0.35224253  1.0
  Ni  Ni421  1  0.77807300  0.61096350  0.35224253  1.0
  Ni  Ni422  1  0.77807300  0.94429683  0.35224253  1.0
  Ni  Ni423  1  0.11140633  0.11096350  0.32951526  1.0
  Ni  Ni424  1  0.11140633  0.44429683  0.32951526  1.0
  Ni  Ni425  1  0.11140633  0.77763017  0.32951526  1.0
  Ni  Ni426  1  0.44473967  0.11096350  0.32951526  1.0
  Ni  Ni427  1  0.44473967  0.44429683  0.32951526  1.0
  Ni  Ni428  1  0.44473967  0.77763017  0.32951526  1.0
  Ni  Ni429  1  0.77807300  0.11096350  0.32951526  1.0
  Ni  Ni430  1  0.77807300  0.44429683  0.32951526  1.0
  Ni  Ni431  1  0.77807300  0.77763017  0.32951526  1.0
  Cr  Cr432  1  0.00000000  0.00000000  0.40529297  1.0
  Cr  Cr433  1  0.00000000  0.33333333  0.40529297  1.0
  Cr  Cr434  1  0.00000000  0.66666667  0.40529297  1.0
  Cr  Cr435  1  0.33333333  0.00000000  0.40529297  1.0
  Cr  Cr436  1  0.33333333  0.33333333  0.40529297  1.0
  Cr  Cr437  1  0.33333333  0.66666667  0.40529297  1.0
  Cr  Cr438  1  0.66666667  0.00000000  0.40529297  1.0
  Cr  Cr439  1  0.66666667  0.33333333  0.40529297  1.0
  Cr  Cr440  1  0.66666667  0.66666667  0.40529297  1.0
  Cr  Cr441  1  0.00000000  0.16666667  0.38256569  1.0
  Cr  Cr442  1  0.00000000  0.50000000  0.38256569  1.0
  Cr  Cr443  1  0.00000000  0.83333333  0.38256569  1.0
  Cr  Cr444  1  0.33333333  0.16666667  0.38256569  1.0
  Cr  Cr445  1  0.33333333  0.50000000  0.38256569  1.0
  Cr  Cr446  1  0.33333333  0.83333333  0.38256569  1.0
  Cr  Cr447  1  0.66666667  0.16666667  0.38256569  1.0
  Cr  Cr448  1  0.66666667  0.50000000  0.38256569  1.0
  Cr  Cr449  1  0.66666667  0.83333333  0.38256569  1.0
  Ni  Ni450  1  0.22192700  0.22236983  0.39016158  1.0
  Ni  Ni451  1  0.22192700  0.55570317  0.39016158  1.0
  Ni  Ni452  1  0.22192700  0.88903650  0.39016158  1.0
  Ni  Ni453  1  0.55526033  0.22236983  0.39016158  1.0
  Ni  Ni454  1  0.55526033  0.55570317  0.39016158  1.0
  Ni  Ni455  1  0.55526033  0.88903650  0.39016158  1.0
  Ni  Ni456  1  0.88859367  0.22236983  0.39016158  1.0
  Ni  Ni457  1  0.88859367  0.55570317  0.39016158  1.0
  Ni  Ni458  1  0.88859367  0.88903650  0.39016158  1.0
  Ni  Ni459  1  0.22192700  0.05570317  0.36743431  1.0
  Ni  Ni460  1  0.22192700  0.38903650  0.36743431  1.0
  Ni  Ni461  1  0.22192700  0.72236983  0.36743431  1.0
  Ni  Ni462  1  0.55526033  0.05570317  0.36743431  1.0
  Ni  Ni463  1  0.55526033  0.38903650  0.36743431  1.0
  Ni  Ni464  1  0.55526033  0.72236983  0.36743431  1.0
  Ni  Ni465  1  0.88859367  0.05570317  0.36743431  1.0
  Ni  Ni466  1  0.88859367  0.38903650  0.36743431  1.0
  Ni  Ni467  1  0.88859367  0.72236983  0.36743431  1.0
  Ni  Ni468  1  0.11140633  0.27763017  0.39769708  1.0
  Ni  Ni469  1  0.11140633  0.61096350  0.39769708  1.0
  Ni  Ni470  1  0.11140633  0.94429683  0.39769708  1.0
  Ni  Ni471  1  0.44473967  0.27763017  0.39769708  1.0
  Ni  Ni472  1  0.44473967  0.61096350  0.39769708  1.0
  Ni  Ni473  1  0.44473967  0.94429683  0.39769708  1.0
  Ni  Ni474  1  0.77807300  0.27763017  0.39769708  1.0
  Ni  Ni475  1  0.77807300  0.61096350  0.39769708  1.0
  Ni  Ni476  1  0.77807300  0.94429683  0.39769708  1.0
  Ni  Ni477  1  0.11140633  0.11096350  0.37496981  1.0
  Ni  Ni478  1  0.11140633  0.44429683  0.37496981  1.0
  Ni  Ni479  1  0.11140633  0.77763017  0.37496981  1.0
  Ni  Ni480  1  0.44473967  0.11096350  0.37496981  1.0
  Ni  Ni481  1  0.44473967  0.44429683  0.37496981  1.0
  Ni  Ni482  1  0.44473967  0.77763017  0.37496981  1.0
  Ni  Ni483  1  0.77807300  0.11096350  0.37496981  1.0
  Ni  Ni484  1  0.77807300  0.44429683  0.37496981  1.0
  Ni  Ni485  1  0.77807300  0.77763017  0.37496981  1.0
