# generated using pymatgen
data_CrNi
_symmetry_space_group_name_H-M   'P 1'
_cell_length_a   12.27647964
_cell_length_b   15.03555547
_cell_length_c   28.35131529
_cell_angle_alpha   90.00000000
_cell_angle_beta   90.00000000
_cell_angle_gamma   90.00000000
_symmetry_Int_Tables_number   1
_chemical_formula_structural   CrNi
_chemical_formula_sum   'Cr90 Ni90'
_cell_volume   5233.19040956
_cell_formula_units_Z   90
loop_
 _symmetry_equiv_pos_site_id
 _symmetry_equiv_pos_as_xyz
  1  'x, y, z'
loop_
 _atom_site_type_symbol
 _atom_site_label
 _atom_site_symmetry_multiplicity
 _atom_site_fract_x
 _atom_site_fract_y
 _atom_site_fract_z
 _atom_site_occupancy
  Cr  Cr0  1  0.00000000  0.08333333  0.93750000  1.0
  Cr  Cr1  1  0.00000000  0.41666667  0.93750000  1.0
  Cr  Cr2  1  0.00000000  0.75000000  0.93750000  1.0
  Cr  Cr3  1  0.33333333  0.08333333  0.93750000  1.0
  Cr  Cr4  1  0.33333333  0.41666667  0.93750000  1.0
  Cr  Cr5  1  0.33333333  0.75000000  0.93750000  1.0
  Cr  Cr6  1  0.66666667  0.08333333  0.93750000  1.0
  Cr  Cr7  1  0.66666667  0.41666667  0.93750000  1.0
  Cr  Cr8  1  0.66666667  0.75000000  0.93750000  1.0
  Cr  Cr9  1  0.16666667  0.30555556  0.97916667  1.0
  Cr  Cr10  1  0.16666667  0.63888889  0.97916667  1.0
  Cr  Cr11  1  0.16666667  0.97222222  0.97916667  1.0
  Cr  Cr12  1  0.50000000  0.30555556  0.97916667  1.0
  Cr  Cr13  1  0.50000000  0.63888889  0.97916667  1.0
  Cr  Cr14  1  0.50000000  0.97222222  0.97916667  1.0
  Cr  Cr15  1  0.83333333  0.30555556  0.97916667  1.0
  Cr  Cr16  1  0.83333333  0.63888889  0.97916667  1.0
  Cr  Cr17  1  0.83333333  0.97222222  0.97916667  1.0
  Cr  Cr18  1  0.00000000  0.30555556  0.85416667  1.0
  Cr  Cr19  1  0.00000000  0.63888889  0.85416667  1.0
  Cr  Cr20  1  0.00000000  0.97222222  0.85416667  1.0
  Cr  Cr21  1  0.33333333  0.30555556  0.85416667  1.0
  Cr  Cr22  1  0.33333333  0.63888889  0.85416667  1.0
  Cr  Cr23  1  0.33333333  0.97222222  0.85416667  1.0
  Cr  Cr24  1  0.66666667  0.30555556  0.85416667  1.0
  Cr  Cr25  1  0.66666667  0.63888889  0.85416667  1.0
  Cr  Cr26  1  0.66666667  0.97222222  0.85416667  1.0
  Cr  Cr27  1  0.16666667  0.19444444  0.89583333  1.0
  Cr  Cr28  1  0.16666667  0.52777778  0.89583333  1.0
  Cr  Cr29  1  0.16666667  0.86111111  0.89583333  1.0
  Cr  Cr30  1  0.50000000  0.19444444  0.89583333  1.0
  Cr  Cr31  1  0.50000000  0.52777778  0.89583333  1.0
  Cr  Cr32  1  0.50000000  0.86111111  0.89583333  1.0
  Cr  Cr33  1  0.83333333  0.19444444  0.89583333  1.0
  Cr  Cr34  1  0.83333333  0.52777778  0.89583333  1.0
  Cr  Cr35  1  0.83333333  0.86111111  0.89583333  1.0
  Cr  Cr36  1  0.00000000  0.19444444  0.77083333  1.0
  Cr  Cr37  1  0.00000000  0.52777778  0.77083333  1.0
  Cr  Cr38  1  0.00000000  0.86111111  0.77083333  1.0
  Cr  Cr39  1  0.33333333  0.19444444  0.77083333  1.0
  Cr  Cr40  1  0.33333333  0.52777778  0.77083333  1.0
  Cr  Cr41  1  0.33333333  0.86111111  0.77083333  1.0
  Cr  Cr42  1  0.66666667  0.19444444  0.77083333  1.0
  Cr  Cr43  1  0.66666667  0.52777778  0.77083333  1.0
  Cr  Cr44  1  0.66666667  0.86111111  0.77083333  1.0
  Cr  Cr45  1  0.16666667  0.08333333  0.81250000  1.0
  Cr  Cr46  1  0.16666667  0.41666667  0.81250000  1.0
  Cr  Cr47  1  0.16666667  0.75000000  0.81250000  1.0
  Cr  Cr48  1  0.50000000  0.08333333  0.81250000  1.0
  Cr  Cr49  1  0.50000000  0.41666667  0.81250000  1.0
  Cr  Cr50  1  0.50000000  0.75000000  0.81250000  1.0
  Cr  Cr51  1  0.83333333  0.08333333  0.81250000  1.0
  Cr  Cr52  1  0.83333333  0.41666667  0.81250000  1.0
  Cr  Cr53  1  0.83333333  0.75000000  0.81250000  1.0
  Cr  Cr54  1  0.00000000  0.08333333  0.68750000  1.0
  Cr  Cr55  1  0.00000000  0.41666667  0.68750000  1.0
  Cr  Cr56  1  0.00000000  0.75000000  0.68750000  1.0
  Cr  Cr57  1  0.33333333  0.08333333  0.68750000  1.0
  Cr  Cr58  1  0.33333333  0.41666667  0.68750000  1.0
  Cr  Cr59  1  0.33333333  0.75000000  0.68750000  1.0
  Cr  Cr60  1  0.66666667  0.08333333  0.68750000  1.0
  Cr  Cr61  1  0.66666667  0.41666667  0.68750000  1.0
  Cr  Cr62  1  0.66666667  0.75000000  0.68750000  1.0
  Cr  Cr63  1  0.16666667  0.30555556  0.72916667  1.0
  Cr  Cr64  1  0.16666667  0.63888889  0.72916667  1.0
  Cr  Cr65  1  0.16666667  0.97222222  0.72916667  1.0
  Cr  Cr66  1  0.50000000  0.30555556  0.72916667  1.0
  Cr  Cr67  1  0.50000000  0.63888889  0.72916667  1.0
  Cr  Cr68  1  0.50000000  0.97222222  0.72916667  1.0
  Cr  Cr69  1  0.83333333  0.30555556  0.72916667  1.0
  Cr  Cr70  1  0.83333333  0.63888889  0.72916667  1.0
  Cr  Cr71  1  0.83333333  0.97222222  0.72916667  1.0
  Cr  Cr72  1  0.00000000  0.30555556  0.60416667  1.0
  Cr  Cr73  1  0.00000000  0.63888889  0.60416667  1.0
  Cr  Cr74  1  0.00000000  0.97222222  0.60416667  1.0
  Cr  Cr75  1  0.33333333  0.30555556  0.60416667  1.0
  Cr  Cr76  1  0.33333333  0.63888889  0.60416667  1.0
  Cr  Cr77  1  0.33333333  0.97222222  0.60416667  1.0
  Cr  Cr78  1  0.66666667  0.30555556  0.60416667  1.0
  Cr  Cr79  1  0.66666667  0.63888889  0.60416667  1.0
  Cr  Cr80  1  0.66666667  0.97222222  0.60416667  1.0
  Cr  Cr81  1  0.16666667  0.19444444  0.64583333  1.0
  Cr  Cr82  1  0.16666667  0.52777778  0.64583333  1.0
  Cr  Cr83  1  0.16666667  0.86111111  0.64583333  1.0
  Cr  Cr84  1  0.50000000  0.19444444  0.64583333  1.0
  Cr  Cr85  1  0.50000000  0.52777778  0.64583333  1.0
  Cr  Cr86  1  0.50000000  0.86111111  0.64583333  1.0
  Cr  Cr87  1  0.83333333  0.19444444  0.64583333  1.0
  Cr  Cr88  1  0.83333333  0.52777778  0.64583333  1.0
  Cr  Cr89  1  0.83333333  0.86111111  0.64583333  1.0
  Ni  Ni90  1  0.00000000  0.25000000  0.93750000  1.0
  Ni  Ni91  1  0.00000000  0.58333333  0.93750000  1.0
  Ni  Ni92  1  0.00000000  0.91666667  0.93750000  1.0
  Ni  Ni93  1  0.33333333  0.25000000  0.93750000  1.0
  Ni  Ni94  1  0.33333333  0.58333333  0.93750000  1.0
  Ni  Ni95  1  0.33333333  0.91666667  0.93750000  1.0
  Ni  Ni96  1  0.66666667  0.25000000  0.93750000  1.0
  Ni  Ni97  1  0.66666667  0.58333333  0.93750000  1.0
  Ni  Ni98  1  0.66666667  0.91666667  0.93750000  1.0
  Ni  Ni99  1  0.16666667  0.13888889  0.97916667  1.0
  Ni  Ni100  1  0.16666667  0.47222222  0.97916667  1.0
  Ni  Ni101  1  0.16666667  0.80555556  0.97916667  1.0
  Ni  Ni102  1  0.50000000  0.13888889  0.97916667  1.0
  Ni  Ni103  1  0.50000000  0.47222222  0.97916667  1.0
  Ni  Ni104  1  0.50000000  0.80555556  0.97916667  1.0
  Ni  Ni105  1  0.83333333  0.13888889  0.97916667  1.0
  Ni  Ni106  1  0.83333333  0.47222222  0.97916667  1.0
  Ni  Ni107  1  0.83333333  0.80555556  0.97916667  1.0
  Ni  Ni108  1  0.00000000  0.13888889  0.85416667  1.0
  Ni  Ni109  1  0.00000000  0.47222222  0.85416667  1.0
  Ni  Ni110  1  0.00000000  0.80555556  0.85416667  1.0
  Ni  Ni111  1  0.33333333  0.13888889  0.85416667  1.0
  Ni  Ni112  1  0.33333333  0.47222222  0.85416667  1.0
  Ni  Ni113  1  0.33333333  0.80555556  0.85416667  1.0
  Ni  Ni114  1  0.66666667  0.13888889  0.85416667  1.0
  Ni  Ni115  1  0.66666667  0.47222222  0.85416667  1.0
  Ni  Ni116  1  0.66666667  0.80555556  0.85416667  1.0
  Ni  Ni117  1  0.16666667  0.02777778  0.89583333  1.0
  Ni  Ni118  1  0.16666667  0.36111111  0.89583333  1.0
  Ni  Ni119  1  0.16666667  0.69444444  0.89583333  1.0
  Ni  Ni120  1  0.50000000  0.02777778  0.89583333  1.0
  Ni  Ni121  1  0.50000000  0.36111111  0.89583333  1.0
  Ni  Ni122  1  0.50000000  0.69444444  0.89583333  1.0
  Ni  Ni123  1  0.83333333  0.02777778  0.89583333  1.0
  Ni  Ni124  1  0.83333333  0.36111111  0.89583333  1.0
  Ni  Ni125  1  0.83333333  0.69444444  0.89583333  1.0
  Ni  Ni126  1  0.00000000  0.02777778  0.77083333  1.0
  Ni  Ni127  1  0.00000000  0.36111111  0.77083333  1.0
  Ni  Ni128  1  0.00000000  0.69444444  0.77083333  1.0
  Ni  Ni129  1  0.33333333  0.02777778  0.77083333  1.0
  Ni  Ni130  1  0.33333333  0.36111111  0.77083333  1.0
  Ni  Ni131  1  0.33333333  0.69444444  0.77083333  1.0
  Ni  Ni132  1  0.66666667  0.02777778  0.77083333  1.0
  Ni  Ni133  1  0.66666667  0.36111111  0.77083333  1.0
  Ni  Ni134  1  0.66666667  0.69444444  0.77083333  1.0
  Ni  Ni135  1  0.16666667  0.25000000  0.81250000  1.0
  Ni  Ni136  1  0.16666667  0.58333333  0.81250000  1.0
  Ni  Ni137  1  0.16666667  0.91666667  0.81250000  1.0
  Ni  Ni138  1  0.50000000  0.25000000  0.81250000  1.0
  Ni  Ni139  1  0.50000000  0.58333333  0.81250000  1.0
  Ni  Ni140  1  0.50000000  0.91666667  0.81250000  1.0
  Ni  Ni141  1  0.83333333  0.25000000  0.81250000  1.0
  Ni  Ni142  1  0.83333333  0.58333333  0.81250000  1.0
  Ni  Ni143  1  0.83333333  0.91666667  0.81250000  1.0
  Ni  Ni144  1  0.00000000  0.25000000  0.68750000  1.0
  Ni  Ni145  1  0.00000000  0.58333333  0.68750000  1.0
  Ni  Ni146  1  0.00000000  0.91666667  0.68750000  1.0
  Ni  Ni147  1  0.33333333  0.25000000  0.68750000  1.0
  Ni  Ni148  1  0.33333333  0.58333333  0.68750000  1.0
  Ni  Ni149  1  0.33333333  0.91666667  0.68750000  1.0
  Ni  Ni150  1  0.66666667  0.25000000  0.68750000  1.0
  Ni  Ni151  1  0.66666667  0.58333333  0.68750000  1.0
  Ni  Ni152  1  0.66666667  0.91666667  0.68750000  1.0
  Ni  Ni153  1  0.16666667  0.13888889  0.72916667  1.0
  Ni  Ni154  1  0.16666667  0.47222222  0.72916667  1.0
  Ni  Ni155  1  0.16666667  0.80555556  0.72916667  1.0
  Ni  Ni156  1  0.50000000  0.13888889  0.72916667  1.0
  Ni  Ni157  1  0.50000000  0.47222222  0.72916667  1.0
  Ni  Ni158  1  0.50000000  0.80555556  0.72916667  1.0
  Ni  Ni159  1  0.83333333  0.13888889  0.72916667  1.0
  Ni  Ni160  1  0.83333333  0.47222222  0.72916667  1.0
  Ni  Ni161  1  0.83333333  0.80555556  0.72916667  1.0
  Ni  Ni162  1  0.00000000  0.13888889  0.60416667  1.0
  Ni  Ni163  1  0.00000000  0.47222222  0.60416667  1.0
  Ni  Ni164  1  0.00000000  0.80555556  0.60416667  1.0
  Ni  Ni165  1  0.33333333  0.13888889  0.60416667  1.0
  Ni  Ni166  1  0.33333333  0.47222222  0.60416667  1.0
  Ni  Ni167  1  0.33333333  0.80555556  0.60416667  1.0
  Ni  Ni168  1  0.66666667  0.13888889  0.60416667  1.0
  Ni  Ni169  1  0.66666667  0.47222222  0.60416667  1.0
  Ni  Ni170  1  0.66666667  0.80555556  0.60416667  1.0
  Ni  Ni171  1  0.16666667  0.02777778  0.64583333  1.0
  Ni  Ni172  1  0.16666667  0.36111111  0.64583333  1.0
  Ni  Ni173  1  0.16666667  0.69444444  0.64583333  1.0
  Ni  Ni174  1  0.50000000  0.02777778  0.64583333  1.0
  Ni  Ni175  1  0.50000000  0.36111111  0.64583333  1.0
  Ni  Ni176  1  0.50000000  0.69444444  0.64583333  1.0
  Ni  Ni177  1  0.83333333  0.02777778  0.64583333  1.0
  Ni  Ni178  1  0.83333333  0.36111111  0.64583333  1.0
  Ni  Ni179  1  0.83333333  0.69444444  0.64583333  1.0
