# generated using pymatgen
data_Cs3Ni
_symmetry_space_group_name_H-M   'P 1'
_cell_length_a   35.52711157
_cell_length_b   41.14866415
_cell_length_c   29.87261931
_cell_angle_alpha   93.13827245
_cell_angle_beta   98.27628710
_cell_angle_gamma   108.91000004
_symmetry_Int_Tables_number   1
_chemical_formula_structural   Cs3Ni
_chemical_formula_sum   'Cs216 Ni72'
_cell_volume   40642.85668473
_cell_formula_units_Z   72
loop_
 _symmetry_equiv_pos_site_id
 _symmetry_equiv_pos_as_xyz
  1  'x, y, z'
loop_
 _atom_site_type_symbol
 _atom_site_label
 _atom_site_symmetry_multiplicity
 _atom_site_fract_x
 _atom_site_fract_y
 _atom_site_fract_z
 _atom_site_occupancy
  Cs  Cs0  1  0.11342593  0.29398148  0.99305556  1.0
  Cs  Cs1  1  0.11342593  0.62731481  0.99305556  1.0
  Cs  Cs2  1  0.11342593  0.96064815  0.99305556  1.0
  Cs  Cs3  1  0.44675926  0.29398148  0.99305556  1.0
  Cs  Cs4  1  0.44675926  0.62731481  0.99305556  1.0
  Cs  Cs5  1  0.44675926  0.96064815  0.99305556  1.0
  Cs  Cs6  1  0.78009259  0.29398148  0.99305556  1.0
  Cs  Cs7  1  0.78009259  0.62731481  0.99305556  1.0
  Cs  Cs8  1  0.78009259  0.96064815  0.99305556  1.0
  Cs  Cs9  1  0.18750000  0.14583333  0.93750000  1.0
  Cs  Cs10  1  0.18750000  0.47916667  0.93750000  1.0
  Cs  Cs11  1  0.18750000  0.81250000  0.93750000  1.0
  Cs  Cs12  1  0.52083333  0.14583333  0.93750000  1.0
  Cs  Cs13  1  0.52083333  0.47916667  0.93750000  1.0
  Cs  Cs14  1  0.52083333  0.81250000  0.93750000  1.0
  Cs  Cs15  1  0.85416667  0.14583333  0.93750000  1.0
  Cs  Cs16  1  0.85416667  0.47916667  0.93750000  1.0
  Cs  Cs17  1  0.85416667  0.81250000  0.93750000  1.0
  Cs  Cs18  1  0.05787037  0.07175926  0.90972222  1.0
  Cs  Cs19  1  0.05787037  0.40509259  0.90972222  1.0
  Cs  Cs20  1  0.05787037  0.73842593  0.90972222  1.0
  Cs  Cs21  1  0.39120370  0.07175926  0.90972222  1.0
  Cs  Cs22  1  0.39120370  0.40509259  0.90972222  1.0
  Cs  Cs23  1  0.39120370  0.73842593  0.90972222  1.0
  Cs  Cs24  1  0.72453704  0.07175926  0.90972222  1.0
  Cs  Cs25  1  0.72453704  0.40509259  0.90972222  1.0
  Cs  Cs26  1  0.72453704  0.73842593  0.90972222  1.0
  Cs  Cs27  1  0.31712963  0.21990741  0.96527778  1.0
  Cs  Cs28  1  0.31712963  0.55324074  0.96527778  1.0
  Cs  Cs29  1  0.31712963  0.88657407  0.96527778  1.0
  Cs  Cs30  1  0.65046296  0.21990741  0.96527778  1.0
  Cs  Cs31  1  0.65046296  0.55324074  0.96527778  1.0
  Cs  Cs32  1  0.65046296  0.88657407  0.96527778  1.0
  Cs  Cs33  1  0.98379630  0.21990741  0.96527778  1.0
  Cs  Cs34  1  0.98379630  0.55324074  0.96527778  1.0
  Cs  Cs35  1  0.98379630  0.88657407  0.96527778  1.0
  Cs  Cs36  1  0.28935185  0.10879630  0.92361111  1.0
  Cs  Cs37  1  0.28935185  0.44212963  0.92361111  1.0
  Cs  Cs38  1  0.28935185  0.77546296  0.92361111  1.0
  Cs  Cs39  1  0.62268519  0.10879630  0.92361111  1.0
  Cs  Cs40  1  0.62268519  0.44212963  0.92361111  1.0
  Cs  Cs41  1  0.62268519  0.77546296  0.92361111  1.0
  Cs  Cs42  1  0.95601852  0.10879630  0.92361111  1.0
  Cs  Cs43  1  0.95601852  0.44212963  0.92361111  1.0
  Cs  Cs44  1  0.95601852  0.77546296  0.92361111  1.0
  Cs  Cs45  1  0.21527778  0.25694444  0.97916667  1.0
  Cs  Cs46  1  0.21527778  0.59027778  0.97916667  1.0
  Cs  Cs47  1  0.21527778  0.92361111  0.97916667  1.0
  Cs  Cs48  1  0.54861111  0.25694444  0.97916667  1.0
  Cs  Cs49  1  0.54861111  0.59027778  0.97916667  1.0
  Cs  Cs50  1  0.54861111  0.92361111  0.97916667  1.0
  Cs  Cs51  1  0.88194444  0.25694444  0.97916667  1.0
  Cs  Cs52  1  0.88194444  0.59027778  0.97916667  1.0
  Cs  Cs53  1  0.88194444  0.92361111  0.97916667  1.0
  Cs  Cs54  1  0.26157407  0.33101852  0.88194444  1.0
  Cs  Cs55  1  0.26157407  0.66435185  0.88194444  1.0
  Cs  Cs56  1  0.26157407  0.99768519  0.88194444  1.0
  Cs  Cs57  1  0.59490741  0.33101852  0.88194444  1.0
  Cs  Cs58  1  0.59490741  0.66435185  0.88194444  1.0
  Cs  Cs59  1  0.59490741  0.99768519  0.88194444  1.0
  Cs  Cs60  1  0.92824074  0.33101852  0.88194444  1.0
  Cs  Cs61  1  0.92824074  0.66435185  0.88194444  1.0
  Cs  Cs62  1  0.92824074  0.99768519  0.88194444  1.0
  Cs  Cs63  1  0.00231481  0.18287037  0.82638889  1.0
  Cs  Cs64  1  0.00231481  0.51620370  0.82638889  1.0
  Cs  Cs65  1  0.00231481  0.84953704  0.82638889  1.0
  Cs  Cs66  1  0.33564815  0.18287037  0.82638889  1.0
  Cs  Cs67  1  0.33564815  0.51620370  0.82638889  1.0
  Cs  Cs68  1  0.33564815  0.84953704  0.82638889  1.0
  Cs  Cs69  1  0.66898148  0.18287037  0.82638889  1.0
  Cs  Cs70  1  0.66898148  0.51620370  0.82638889  1.0
  Cs  Cs71  1  0.66898148  0.84953704  0.82638889  1.0
  Cs  Cs72  1  0.20601852  0.10879630  0.79861111  1.0
  Cs  Cs73  1  0.20601852  0.44212963  0.79861111  1.0
  Cs  Cs74  1  0.20601852  0.77546296  0.79861111  1.0
  Cs  Cs75  1  0.53935185  0.10879630  0.79861111  1.0
  Cs  Cs76  1  0.53935185  0.44212963  0.79861111  1.0
  Cs  Cs77  1  0.53935185  0.77546296  0.79861111  1.0
  Cs  Cs78  1  0.87268519  0.10879630  0.79861111  1.0
  Cs  Cs79  1  0.87268519  0.44212963  0.79861111  1.0
  Cs  Cs80  1  0.87268519  0.77546296  0.79861111  1.0
  Cs  Cs81  1  0.13194444  0.25694444  0.85416667  1.0
  Cs  Cs82  1  0.13194444  0.59027778  0.85416667  1.0
  Cs  Cs83  1  0.13194444  0.92361111  0.85416667  1.0
  Cs  Cs84  1  0.46527778  0.25694444  0.85416667  1.0
  Cs  Cs85  1  0.46527778  0.59027778  0.85416667  1.0
  Cs  Cs86  1  0.46527778  0.92361111  0.85416667  1.0
  Cs  Cs87  1  0.79861111  0.25694444  0.85416667  1.0
  Cs  Cs88  1  0.79861111  0.59027778  0.85416667  1.0
  Cs  Cs89  1  0.79861111  0.92361111  0.85416667  1.0
  Cs  Cs90  1  0.10416667  0.14583333  0.81250000  1.0
  Cs  Cs91  1  0.10416667  0.47916667  0.81250000  1.0
  Cs  Cs92  1  0.10416667  0.81250000  0.81250000  1.0
  Cs  Cs93  1  0.43750000  0.14583333  0.81250000  1.0
  Cs  Cs94  1  0.43750000  0.47916667  0.81250000  1.0
  Cs  Cs95  1  0.43750000  0.81250000  0.81250000  1.0
  Cs  Cs96  1  0.77083333  0.14583333  0.81250000  1.0
  Cs  Cs97  1  0.77083333  0.47916667  0.81250000  1.0
  Cs  Cs98  1  0.77083333  0.81250000  0.81250000  1.0
  Cs  Cs99  1  0.03009259  0.29398148  0.86805556  1.0
  Cs  Cs100  1  0.03009259  0.62731481  0.86805556  1.0
  Cs  Cs101  1  0.03009259  0.96064815  0.86805556  1.0
  Cs  Cs102  1  0.36342593  0.29398148  0.86805556  1.0
  Cs  Cs103  1  0.36342593  0.62731481  0.86805556  1.0
  Cs  Cs104  1  0.36342593  0.96064815  0.86805556  1.0
  Cs  Cs105  1  0.69675926  0.29398148  0.86805556  1.0
  Cs  Cs106  1  0.69675926  0.62731481  0.86805556  1.0
  Cs  Cs107  1  0.69675926  0.96064815  0.86805556  1.0
  Cs  Cs108  1  0.07638889  0.03472222  0.77083333  1.0
  Cs  Cs109  1  0.07638889  0.36805556  0.77083333  1.0
  Cs  Cs110  1  0.07638889  0.70138889  0.77083333  1.0
  Cs  Cs111  1  0.40972222  0.03472222  0.77083333  1.0
  Cs  Cs112  1  0.40972222  0.36805556  0.77083333  1.0
  Cs  Cs113  1  0.40972222  0.70138889  0.77083333  1.0
  Cs  Cs114  1  0.74305556  0.03472222  0.77083333  1.0
  Cs  Cs115  1  0.74305556  0.36805556  0.77083333  1.0
  Cs  Cs116  1  0.74305556  0.70138889  0.77083333  1.0
  Cs  Cs117  1  0.15046296  0.21990741  0.71527778  1.0
  Cs  Cs118  1  0.15046296  0.55324074  0.71527778  1.0
  Cs  Cs119  1  0.15046296  0.88657407  0.71527778  1.0
  Cs  Cs120  1  0.48379630  0.21990741  0.71527778  1.0
  Cs  Cs121  1  0.48379630  0.55324074  0.71527778  1.0
  Cs  Cs122  1  0.48379630  0.88657407  0.71527778  1.0
  Cs  Cs123  1  0.81712963  0.21990741  0.71527778  1.0
  Cs  Cs124  1  0.81712963  0.55324074  0.71527778  1.0
  Cs  Cs125  1  0.81712963  0.88657407  0.71527778  1.0
  Cs  Cs126  1  0.02083333  0.14583333  0.68750000  1.0
  Cs  Cs127  1  0.02083333  0.47916667  0.68750000  1.0
  Cs  Cs128  1  0.02083333  0.81250000  0.68750000  1.0
  Cs  Cs129  1  0.35416667  0.14583333  0.68750000  1.0
  Cs  Cs130  1  0.35416667  0.47916667  0.68750000  1.0
  Cs  Cs131  1  0.35416667  0.81250000  0.68750000  1.0
  Cs  Cs132  1  0.68750000  0.14583333  0.68750000  1.0
  Cs  Cs133  1  0.68750000  0.47916667  0.68750000  1.0
  Cs  Cs134  1  0.68750000  0.81250000  0.68750000  1.0
  Cs  Cs135  1  0.28009259  0.29398148  0.74305556  1.0
  Cs  Cs136  1  0.28009259  0.62731481  0.74305556  1.0
  Cs  Cs137  1  0.28009259  0.96064815  0.74305556  1.0
  Cs  Cs138  1  0.61342593  0.29398148  0.74305556  1.0
  Cs  Cs139  1  0.61342593  0.62731481  0.74305556  1.0
  Cs  Cs140  1  0.61342593  0.96064815  0.74305556  1.0
  Cs  Cs141  1  0.94675926  0.29398148  0.74305556  1.0
  Cs  Cs142  1  0.94675926  0.62731481  0.74305556  1.0
  Cs  Cs143  1  0.94675926  0.96064815  0.74305556  1.0
  Cs  Cs144  1  0.25231481  0.18287037  0.70138889  1.0
  Cs  Cs145  1  0.25231481  0.51620370  0.70138889  1.0
  Cs  Cs146  1  0.25231481  0.84953704  0.70138889  1.0
  Cs  Cs147  1  0.58564815  0.18287037  0.70138889  1.0
  Cs  Cs148  1  0.58564815  0.51620370  0.70138889  1.0
  Cs  Cs149  1  0.58564815  0.84953704  0.70138889  1.0
  Cs  Cs150  1  0.91898148  0.18287037  0.70138889  1.0
  Cs  Cs151  1  0.91898148  0.51620370  0.70138889  1.0
  Cs  Cs152  1  0.91898148  0.84953704  0.70138889  1.0
  Cs  Cs153  1  0.17824074  0.33101852  0.75694444  1.0
  Cs  Cs154  1  0.17824074  0.66435185  0.75694444  1.0
  Cs  Cs155  1  0.17824074  0.99768519  0.75694444  1.0
  Cs  Cs156  1  0.51157407  0.33101852  0.75694444  1.0
  Cs  Cs157  1  0.51157407  0.66435185  0.75694444  1.0
  Cs  Cs158  1  0.51157407  0.99768519  0.75694444  1.0
  Cs  Cs159  1  0.84490741  0.33101852  0.75694444  1.0
  Cs  Cs160  1  0.84490741  0.66435185  0.75694444  1.0
  Cs  Cs161  1  0.84490741  0.99768519  0.75694444  1.0
  Cs  Cs162  1  0.22453704  0.07175926  0.65972222  1.0
  Cs  Cs163  1  0.22453704  0.40509259  0.65972222  1.0
  Cs  Cs164  1  0.22453704  0.73842593  0.65972222  1.0
  Cs  Cs165  1  0.55787037  0.07175926  0.65972222  1.0
  Cs  Cs166  1  0.55787037  0.40509259  0.65972222  1.0
  Cs  Cs167  1  0.55787037  0.73842593  0.65972222  1.0
  Cs  Cs168  1  0.89120370  0.07175926  0.65972222  1.0
  Cs  Cs169  1  0.89120370  0.40509259  0.65972222  1.0
  Cs  Cs170  1  0.89120370  0.73842593  0.65972222  1.0
  Cs  Cs171  1  0.29861111  0.25694444  0.60416667  1.0
  Cs  Cs172  1  0.29861111  0.59027778  0.60416667  1.0
  Cs  Cs173  1  0.29861111  0.92361111  0.60416667  1.0
  Cs  Cs174  1  0.63194444  0.25694444  0.60416667  1.0
  Cs  Cs175  1  0.63194444  0.59027778  0.60416667  1.0
  Cs  Cs176  1  0.63194444  0.92361111  0.60416667  1.0
  Cs  Cs177  1  0.96527778  0.25694444  0.60416667  1.0
  Cs  Cs178  1  0.96527778  0.59027778  0.60416667  1.0
  Cs  Cs179  1  0.96527778  0.92361111  0.60416667  1.0
  Cs  Cs180  1  0.16898148  0.18287037  0.57638889  1.0
  Cs  Cs181  1  0.16898148  0.51620370  0.57638889  1.0
  Cs  Cs182  1  0.16898148  0.84953704  0.57638889  1.0
  Cs  Cs183  1  0.50231481  0.18287037  0.57638889  1.0
  Cs  Cs184  1  0.50231481  0.51620370  0.57638889  1.0
  Cs  Cs185  1  0.50231481  0.84953704  0.57638889  1.0
  Cs  Cs186  1  0.83564815  0.18287037  0.57638889  1.0
  Cs  Cs187  1  0.83564815  0.51620370  0.57638889  1.0
  Cs  Cs188  1  0.83564815  0.84953704  0.57638889  1.0
  Cs  Cs189  1  0.09490741  0.33101852  0.63194444  1.0
  Cs  Cs190  1  0.09490741  0.66435185  0.63194444  1.0
  Cs  Cs191  1  0.09490741  0.99768519  0.63194444  1.0
  Cs  Cs192  1  0.42824074  0.33101852  0.63194444  1.0
  Cs  Cs193  1  0.42824074  0.66435185  0.63194444  1.0
  Cs  Cs194  1  0.42824074  0.99768519  0.63194444  1.0
  Cs  Cs195  1  0.76157407  0.33101852  0.63194444  1.0
  Cs  Cs196  1  0.76157407  0.66435185  0.63194444  1.0
  Cs  Cs197  1  0.76157407  0.99768519  0.63194444  1.0
  Cs  Cs198  1  0.06712963  0.21990741  0.59027778  1.0
  Cs  Cs199  1  0.06712963  0.55324074  0.59027778  1.0
  Cs  Cs200  1  0.06712963  0.88657407  0.59027778  1.0
  Cs  Cs201  1  0.40046296  0.21990741  0.59027778  1.0
  Cs  Cs202  1  0.40046296  0.55324074  0.59027778  1.0
  Cs  Cs203  1  0.40046296  0.88657407  0.59027778  1.0
  Cs  Cs204  1  0.73379630  0.21990741  0.59027778  1.0
  Cs  Cs205  1  0.73379630  0.55324074  0.59027778  1.0
  Cs  Cs206  1  0.73379630  0.88657407  0.59027778  1.0
  Cs  Cs207  1  0.32638889  0.03472222  0.64583333  1.0
  Cs  Cs208  1  0.32638889  0.36805556  0.64583333  1.0
  Cs  Cs209  1  0.32638889  0.70138889  0.64583333  1.0
  Cs  Cs210  1  0.65972222  0.03472222  0.64583333  1.0
  Cs  Cs211  1  0.65972222  0.36805556  0.64583333  1.0
  Cs  Cs212  1  0.65972222  0.70138889  0.64583333  1.0
  Cs  Cs213  1  0.99305556  0.03472222  0.64583333  1.0
  Cs  Cs214  1  0.99305556  0.36805556  0.64583333  1.0
  Cs  Cs215  1  0.99305556  0.70138889  0.64583333  1.0
  Ni  Ni216  1  0.15972222  0.03472222  0.89583333  1.0
  Ni  Ni217  1  0.15972222  0.36805556  0.89583333  1.0
  Ni  Ni218  1  0.15972222  0.70138889  0.89583333  1.0
  Ni  Ni219  1  0.49305556  0.03472222  0.89583333  1.0
  Ni  Ni220  1  0.49305556  0.36805556  0.89583333  1.0
  Ni  Ni221  1  0.49305556  0.70138889  0.89583333  1.0
  Ni  Ni222  1  0.82638889  0.03472222  0.89583333  1.0
  Ni  Ni223  1  0.82638889  0.36805556  0.89583333  1.0
  Ni  Ni224  1  0.82638889  0.70138889  0.89583333  1.0
  Ni  Ni225  1  0.08564815  0.18287037  0.95138889  1.0
  Ni  Ni226  1  0.08564815  0.51620370  0.95138889  1.0
  Ni  Ni227  1  0.08564815  0.84953704  0.95138889  1.0
  Ni  Ni228  1  0.41898148  0.18287037  0.95138889  1.0
  Ni  Ni229  1  0.41898148  0.51620370  0.95138889  1.0
  Ni  Ni230  1  0.41898148  0.84953704  0.95138889  1.0
  Ni  Ni231  1  0.75231481  0.18287037  0.95138889  1.0
  Ni  Ni232  1  0.75231481  0.51620370  0.95138889  1.0
  Ni  Ni233  1  0.75231481  0.84953704  0.95138889  1.0
  Ni  Ni234  1  0.30787037  0.07175926  0.78472222  1.0
  Ni  Ni235  1  0.30787037  0.40509259  0.78472222  1.0
  Ni  Ni236  1  0.30787037  0.73842593  0.78472222  1.0
  Ni  Ni237  1  0.64120370  0.07175926  0.78472222  1.0
  Ni  Ni238  1  0.64120370  0.40509259  0.78472222  1.0
  Ni  Ni239  1  0.64120370  0.73842593  0.78472222  1.0
  Ni  Ni240  1  0.97453704  0.07175926  0.78472222  1.0
  Ni  Ni241  1  0.97453704  0.40509259  0.78472222  1.0
  Ni  Ni242  1  0.97453704  0.73842593  0.78472222  1.0
  Ni  Ni243  1  0.23379630  0.21990741  0.84027778  1.0
  Ni  Ni244  1  0.23379630  0.55324074  0.84027778  1.0
  Ni  Ni245  1  0.23379630  0.88657407  0.84027778  1.0
  Ni  Ni246  1  0.56712963  0.21990741  0.84027778  1.0
  Ni  Ni247  1  0.56712963  0.55324074  0.84027778  1.0
  Ni  Ni248  1  0.56712963  0.88657407  0.84027778  1.0
  Ni  Ni249  1  0.90046296  0.21990741  0.84027778  1.0
  Ni  Ni250  1  0.90046296  0.55324074  0.84027778  1.0
  Ni  Ni251  1  0.90046296  0.88657407  0.84027778  1.0
  Ni  Ni252  1  0.12268519  0.10879630  0.67361111  1.0
  Ni  Ni253  1  0.12268519  0.44212963  0.67361111  1.0
  Ni  Ni254  1  0.12268519  0.77546296  0.67361111  1.0
  Ni  Ni255  1  0.45601852  0.10879630  0.67361111  1.0
  Ni  Ni256  1  0.45601852  0.44212963  0.67361111  1.0
  Ni  Ni257  1  0.45601852  0.77546296  0.67361111  1.0
  Ni  Ni258  1  0.78935185  0.10879630  0.67361111  1.0
  Ni  Ni259  1  0.78935185  0.44212963  0.67361111  1.0
  Ni  Ni260  1  0.78935185  0.77546296  0.67361111  1.0
  Ni  Ni261  1  0.04861111  0.25694444  0.72916667  1.0
  Ni  Ni262  1  0.04861111  0.59027778  0.72916667  1.0
  Ni  Ni263  1  0.04861111  0.92361111  0.72916667  1.0
  Ni  Ni264  1  0.38194444  0.25694444  0.72916667  1.0
  Ni  Ni265  1  0.38194444  0.59027778  0.72916667  1.0
  Ni  Ni266  1  0.38194444  0.92361111  0.72916667  1.0
  Ni  Ni267  1  0.71527778  0.25694444  0.72916667  1.0
  Ni  Ni268  1  0.71527778  0.59027778  0.72916667  1.0
  Ni  Ni269  1  0.71527778  0.92361111  0.72916667  1.0
  Ni  Ni270  1  0.27083333  0.14583333  0.56250000  1.0
  Ni  Ni271  1  0.27083333  0.47916667  0.56250000  1.0
  Ni  Ni272  1  0.27083333  0.81250000  0.56250000  1.0
  Ni  Ni273  1  0.60416667  0.14583333  0.56250000  1.0
  Ni  Ni274  1  0.60416667  0.47916667  0.56250000  1.0
  Ni  Ni275  1  0.60416667  0.81250000  0.56250000  1.0
  Ni  Ni276  1  0.93750000  0.14583333  0.56250000  1.0
  Ni  Ni277  1  0.93750000  0.47916667  0.56250000  1.0
  Ni  Ni278  1  0.93750000  0.81250000  0.56250000  1.0
  Ni  Ni279  1  0.19675926  0.29398148  0.61805556  1.0
  Ni  Ni280  1  0.19675926  0.62731481  0.61805556  1.0
  Ni  Ni281  1  0.19675926  0.96064815  0.61805556  1.0
  Ni  Ni282  1  0.53009259  0.29398148  0.61805556  1.0
  Ni  Ni283  1  0.53009259  0.62731481  0.61805556  1.0
  Ni  Ni284  1  0.53009259  0.96064815  0.61805556  1.0
  Ni  Ni285  1  0.86342593  0.29398148  0.61805556  1.0
  Ni  Ni286  1  0.86342593  0.62731481  0.61805556  1.0
  Ni  Ni287  1  0.86342593  0.96064815  0.61805556  1.0
