# generated using pymatgen
data_Cs3Ni
_symmetry_space_group_name_H-M   'P 1'
_cell_length_a   19.30886401
_cell_length_b   56.18960635
_cell_length_c   29.76417643
_cell_angle_alpha   87.20541649
_cell_angle_beta   83.79296701
_cell_angle_gamma   80.10641389
_symmetry_Int_Tables_number   1
_chemical_formula_structural   Cs3Ni
_chemical_formula_sum   'Cs162 Ni54'
_cell_volume   31611.11075479
_cell_formula_units_Z   54
loop_
 _symmetry_equiv_pos_site_id
 _symmetry_equiv_pos_as_xyz
  1  'x, y, z'
loop_
 _atom_site_type_symbol
 _atom_site_label
 _atom_site_symmetry_multiplicity
 _atom_site_fract_x
 _atom_site_fract_y
 _atom_site_fract_z
 _atom_site_occupancy
  Cs  Cs0  1  0.32142857  0.07142857  0.91964286  1.0
  Cs  Cs1  1  0.32142857  0.40476190  0.91964286  1.0
  Cs  Cs2  1  0.32142857  0.73809524  0.91964286  1.0
  Cs  Cs3  1  0.65476190  0.07142857  0.91964286  1.0
  Cs  Cs4  1  0.65476190  0.40476190  0.91964286  1.0
  Cs  Cs5  1  0.65476190  0.73809524  0.91964286  1.0
  Cs  Cs6  1  0.98809524  0.07142857  0.91964286  1.0
  Cs  Cs7  1  0.98809524  0.40476190  0.91964286  1.0
  Cs  Cs8  1  0.98809524  0.73809524  0.91964286  1.0
  Cs  Cs9  1  0.20238095  0.28571429  0.99107143  1.0
  Cs  Cs10  1  0.20238095  0.61904762  0.99107143  1.0
  Cs  Cs11  1  0.20238095  0.95238095  0.99107143  1.0
  Cs  Cs12  1  0.53571429  0.28571429  0.99107143  1.0
  Cs  Cs13  1  0.53571429  0.61904762  0.99107143  1.0
  Cs  Cs14  1  0.53571429  0.95238095  0.99107143  1.0
  Cs  Cs15  1  0.86904762  0.28571429  0.99107143  1.0
  Cs  Cs16  1  0.86904762  0.61904762  0.99107143  1.0
  Cs  Cs17  1  0.86904762  0.95238095  0.99107143  1.0
  Cs  Cs18  1  0.26190476  0.17857143  0.95535714  1.0
  Cs  Cs19  1  0.26190476  0.51190476  0.95535714  1.0
  Cs  Cs20  1  0.26190476  0.84523810  0.95535714  1.0
  Cs  Cs21  1  0.59523810  0.17857143  0.95535714  1.0
  Cs  Cs22  1  0.59523810  0.51190476  0.95535714  1.0
  Cs  Cs23  1  0.59523810  0.84523810  0.95535714  1.0
  Cs  Cs24  1  0.92857143  0.17857143  0.95535714  1.0
  Cs  Cs25  1  0.92857143  0.51190476  0.95535714  1.0
  Cs  Cs26  1  0.92857143  0.84523810  0.95535714  1.0
  Cs  Cs27  1  0.04761905  0.29761905  0.88392857  1.0
  Cs  Cs28  1  0.04761905  0.63095238  0.88392857  1.0
  Cs  Cs29  1  0.04761905  0.96428571  0.88392857  1.0
  Cs  Cs30  1  0.38095238  0.29761905  0.88392857  1.0
  Cs  Cs31  1  0.38095238  0.63095238  0.88392857  1.0
  Cs  Cs32  1  0.38095238  0.96428571  0.88392857  1.0
  Cs  Cs33  1  0.71428571  0.29761905  0.88392857  1.0
  Cs  Cs34  1  0.71428571  0.63095238  0.88392857  1.0
  Cs  Cs35  1  0.71428571  0.96428571  0.88392857  1.0
  Cs  Cs36  1  0.06547619  0.23214286  0.97321429  1.0
  Cs  Cs37  1  0.06547619  0.56547619  0.97321429  1.0
  Cs  Cs38  1  0.06547619  0.89880952  0.97321429  1.0
  Cs  Cs39  1  0.39880952  0.23214286  0.97321429  1.0
  Cs  Cs40  1  0.39880952  0.56547619  0.97321429  1.0
  Cs  Cs41  1  0.39880952  0.89880952  0.97321429  1.0
  Cs  Cs42  1  0.73214286  0.23214286  0.97321429  1.0
  Cs  Cs43  1  0.73214286  0.56547619  0.97321429  1.0
  Cs  Cs44  1  0.73214286  0.89880952  0.97321429  1.0
  Cs  Cs45  1  0.18452381  0.01785714  0.90178571  1.0
  Cs  Cs46  1  0.18452381  0.35119048  0.90178571  1.0
  Cs  Cs47  1  0.18452381  0.68452381  0.90178571  1.0
  Cs  Cs48  1  0.51785714  0.01785714  0.90178571  1.0
  Cs  Cs49  1  0.51785714  0.35119048  0.90178571  1.0
  Cs  Cs50  1  0.51785714  0.68452381  0.90178571  1.0
  Cs  Cs51  1  0.85119048  0.01785714  0.90178571  1.0
  Cs  Cs52  1  0.85119048  0.35119048  0.90178571  1.0
  Cs  Cs53  1  0.85119048  0.68452381  0.90178571  1.0
  Cs  Cs54  1  0.22619048  0.30952381  0.77678571  1.0
  Cs  Cs55  1  0.22619048  0.64285714  0.77678571  1.0
  Cs  Cs56  1  0.22619048  0.97619048  0.77678571  1.0
  Cs  Cs57  1  0.55952381  0.30952381  0.77678571  1.0
  Cs  Cs58  1  0.55952381  0.64285714  0.77678571  1.0
  Cs  Cs59  1  0.55952381  0.97619048  0.77678571  1.0
  Cs  Cs60  1  0.89285714  0.30952381  0.77678571  1.0
  Cs  Cs61  1  0.89285714  0.64285714  0.77678571  1.0
  Cs  Cs62  1  0.89285714  0.97619048  0.77678571  1.0
  Cs  Cs63  1  0.10714286  0.19047619  0.84821429  1.0
  Cs  Cs64  1  0.10714286  0.52380952  0.84821429  1.0
  Cs  Cs65  1  0.10714286  0.85714286  0.84821429  1.0
  Cs  Cs66  1  0.44047619  0.19047619  0.84821429  1.0
  Cs  Cs67  1  0.44047619  0.52380952  0.84821429  1.0
  Cs  Cs68  1  0.44047619  0.85714286  0.84821429  1.0
  Cs  Cs69  1  0.77380952  0.19047619  0.84821429  1.0
  Cs  Cs70  1  0.77380952  0.52380952  0.84821429  1.0
  Cs  Cs71  1  0.77380952  0.85714286  0.84821429  1.0
  Cs  Cs72  1  0.16666667  0.08333333  0.81250000  1.0
  Cs  Cs73  1  0.16666667  0.41666667  0.81250000  1.0
  Cs  Cs74  1  0.16666667  0.75000000  0.81250000  1.0
  Cs  Cs75  1  0.50000000  0.08333333  0.81250000  1.0
  Cs  Cs76  1  0.50000000  0.41666667  0.81250000  1.0
  Cs  Cs77  1  0.50000000  0.75000000  0.81250000  1.0
  Cs  Cs78  1  0.83333333  0.08333333  0.81250000  1.0
  Cs  Cs79  1  0.83333333  0.41666667  0.81250000  1.0
  Cs  Cs80  1  0.83333333  0.75000000  0.81250000  1.0
  Cs  Cs81  1  0.28571429  0.20238095  0.74107143  1.0
  Cs  Cs82  1  0.28571429  0.53571429  0.74107143  1.0
  Cs  Cs83  1  0.28571429  0.86904762  0.74107143  1.0
  Cs  Cs84  1  0.61904762  0.20238095  0.74107143  1.0
  Cs  Cs85  1  0.61904762  0.53571429  0.74107143  1.0
  Cs  Cs86  1  0.61904762  0.86904762  0.74107143  1.0
  Cs  Cs87  1  0.95238095  0.20238095  0.74107143  1.0
  Cs  Cs88  1  0.95238095  0.53571429  0.74107143  1.0
  Cs  Cs89  1  0.95238095  0.86904762  0.74107143  1.0
  Cs  Cs90  1  0.30357143  0.13690476  0.83035714  1.0
  Cs  Cs91  1  0.30357143  0.47023810  0.83035714  1.0
  Cs  Cs92  1  0.30357143  0.80357143  0.83035714  1.0
  Cs  Cs93  1  0.63690476  0.13690476  0.83035714  1.0
  Cs  Cs94  1  0.63690476  0.47023810  0.83035714  1.0
  Cs  Cs95  1  0.63690476  0.80357143  0.83035714  1.0
  Cs  Cs96  1  0.97023810  0.13690476  0.83035714  1.0
  Cs  Cs97  1  0.97023810  0.47023810  0.83035714  1.0
  Cs  Cs98  1  0.97023810  0.80357143  0.83035714  1.0
  Cs  Cs99  1  0.08928571  0.25595238  0.75892857  1.0
  Cs  Cs100  1  0.08928571  0.58928571  0.75892857  1.0
  Cs  Cs101  1  0.08928571  0.92261905  0.75892857  1.0
  Cs  Cs102  1  0.42261905  0.25595238  0.75892857  1.0
  Cs  Cs103  1  0.42261905  0.58928571  0.75892857  1.0
  Cs  Cs104  1  0.42261905  0.92261905  0.75892857  1.0
  Cs  Cs105  1  0.75595238  0.25595238  0.75892857  1.0
  Cs  Cs106  1  0.75595238  0.58928571  0.75892857  1.0
  Cs  Cs107  1  0.75595238  0.92261905  0.75892857  1.0
  Cs  Cs108  1  0.13095238  0.21428571  0.63392857  1.0
  Cs  Cs109  1  0.13095238  0.54761905  0.63392857  1.0
  Cs  Cs110  1  0.13095238  0.88095238  0.63392857  1.0
  Cs  Cs111  1  0.46428571  0.21428571  0.63392857  1.0
  Cs  Cs112  1  0.46428571  0.54761905  0.63392857  1.0
  Cs  Cs113  1  0.46428571  0.88095238  0.63392857  1.0
  Cs  Cs114  1  0.79761905  0.21428571  0.63392857  1.0
  Cs  Cs115  1  0.79761905  0.54761905  0.63392857  1.0
  Cs  Cs116  1  0.79761905  0.88095238  0.63392857  1.0
  Cs  Cs117  1  0.01190476  0.09523810  0.70535714  1.0
  Cs  Cs118  1  0.01190476  0.42857143  0.70535714  1.0
  Cs  Cs119  1  0.01190476  0.76190476  0.70535714  1.0
  Cs  Cs120  1  0.34523810  0.09523810  0.70535714  1.0
  Cs  Cs121  1  0.34523810  0.42857143  0.70535714  1.0
  Cs  Cs122  1  0.34523810  0.76190476  0.70535714  1.0
  Cs  Cs123  1  0.67857143  0.09523810  0.70535714  1.0
  Cs  Cs124  1  0.67857143  0.42857143  0.70535714  1.0
  Cs  Cs125  1  0.67857143  0.76190476  0.70535714  1.0
  Cs  Cs126  1  0.07142857  0.32142857  0.66964286  1.0
  Cs  Cs127  1  0.07142857  0.65476190  0.66964286  1.0
  Cs  Cs128  1  0.07142857  0.98809524  0.66964286  1.0
  Cs  Cs129  1  0.40476190  0.32142857  0.66964286  1.0
  Cs  Cs130  1  0.40476190  0.65476190  0.66964286  1.0
  Cs  Cs131  1  0.40476190  0.98809524  0.66964286  1.0
  Cs  Cs132  1  0.73809524  0.32142857  0.66964286  1.0
  Cs  Cs133  1  0.73809524  0.65476190  0.66964286  1.0
  Cs  Cs134  1  0.73809524  0.98809524  0.66964286  1.0
  Cs  Cs135  1  0.19047619  0.10714286  0.59821429  1.0
  Cs  Cs136  1  0.19047619  0.44047619  0.59821429  1.0
  Cs  Cs137  1  0.19047619  0.77380952  0.59821429  1.0
  Cs  Cs138  1  0.52380952  0.10714286  0.59821429  1.0
  Cs  Cs139  1  0.52380952  0.44047619  0.59821429  1.0
  Cs  Cs140  1  0.52380952  0.77380952  0.59821429  1.0
  Cs  Cs141  1  0.85714286  0.10714286  0.59821429  1.0
  Cs  Cs142  1  0.85714286  0.44047619  0.59821429  1.0
  Cs  Cs143  1  0.85714286  0.77380952  0.59821429  1.0
  Cs  Cs144  1  0.20833333  0.04166667  0.68750000  1.0
  Cs  Cs145  1  0.20833333  0.37500000  0.68750000  1.0
  Cs  Cs146  1  0.20833333  0.70833333  0.68750000  1.0
  Cs  Cs147  1  0.54166667  0.04166667  0.68750000  1.0
  Cs  Cs148  1  0.54166667  0.37500000  0.68750000  1.0
  Cs  Cs149  1  0.54166667  0.70833333  0.68750000  1.0
  Cs  Cs150  1  0.87500000  0.04166667  0.68750000  1.0
  Cs  Cs151  1  0.87500000  0.37500000  0.68750000  1.0
  Cs  Cs152  1  0.87500000  0.70833333  0.68750000  1.0
  Cs  Cs153  1  0.32738095  0.16071429  0.61607143  1.0
  Cs  Cs154  1  0.32738095  0.49404762  0.61607143  1.0
  Cs  Cs155  1  0.32738095  0.82738095  0.61607143  1.0
  Cs  Cs156  1  0.66071429  0.16071429  0.61607143  1.0
  Cs  Cs157  1  0.66071429  0.49404762  0.61607143  1.0
  Cs  Cs158  1  0.66071429  0.82738095  0.61607143  1.0
  Cs  Cs159  1  0.99404762  0.16071429  0.61607143  1.0
  Cs  Cs160  1  0.99404762  0.49404762  0.61607143  1.0
  Cs  Cs161  1  0.99404762  0.82738095  0.61607143  1.0
  Ni  Ni162  1  0.12500000  0.12500000  0.93750000  1.0
  Ni  Ni163  1  0.12500000  0.45833333  0.93750000  1.0
  Ni  Ni164  1  0.12500000  0.79166667  0.93750000  1.0
  Ni  Ni165  1  0.45833333  0.12500000  0.93750000  1.0
  Ni  Ni166  1  0.45833333  0.45833333  0.93750000  1.0
  Ni  Ni167  1  0.45833333  0.79166667  0.93750000  1.0
  Ni  Ni168  1  0.79166667  0.12500000  0.93750000  1.0
  Ni  Ni169  1  0.79166667  0.45833333  0.93750000  1.0
  Ni  Ni170  1  0.79166667  0.79166667  0.93750000  1.0
  Ni  Ni171  1  0.24404762  0.24404762  0.86607143  1.0
  Ni  Ni172  1  0.24404762  0.57738095  0.86607143  1.0
  Ni  Ni173  1  0.24404762  0.91071429  0.86607143  1.0
  Ni  Ni174  1  0.57738095  0.24404762  0.86607143  1.0
  Ni  Ni175  1  0.57738095  0.57738095  0.86607143  1.0
  Ni  Ni176  1  0.57738095  0.91071429  0.86607143  1.0
  Ni  Ni177  1  0.91071429  0.24404762  0.86607143  1.0
  Ni  Ni178  1  0.91071429  0.57738095  0.86607143  1.0
  Ni  Ni179  1  0.91071429  0.91071429  0.86607143  1.0
  Ni  Ni180  1  0.02976190  0.02976190  0.79464286  1.0
  Ni  Ni181  1  0.02976190  0.36309524  0.79464286  1.0
  Ni  Ni182  1  0.02976190  0.69642857  0.79464286  1.0
  Ni  Ni183  1  0.36309524  0.02976190  0.79464286  1.0
  Ni  Ni184  1  0.36309524  0.36309524  0.79464286  1.0
  Ni  Ni185  1  0.36309524  0.69642857  0.79464286  1.0
  Ni  Ni186  1  0.69642857  0.02976190  0.79464286  1.0
  Ni  Ni187  1  0.69642857  0.36309524  0.79464286  1.0
  Ni  Ni188  1  0.69642857  0.69642857  0.79464286  1.0
  Ni  Ni189  1  0.14880952  0.14880952  0.72321429  1.0
  Ni  Ni190  1  0.14880952  0.48214286  0.72321429  1.0
  Ni  Ni191  1  0.14880952  0.81547619  0.72321429  1.0
  Ni  Ni192  1  0.48214286  0.14880952  0.72321429  1.0
  Ni  Ni193  1  0.48214286  0.48214286  0.72321429  1.0
  Ni  Ni194  1  0.48214286  0.81547619  0.72321429  1.0
  Ni  Ni195  1  0.81547619  0.14880952  0.72321429  1.0
  Ni  Ni196  1  0.81547619  0.48214286  0.72321429  1.0
  Ni  Ni197  1  0.81547619  0.81547619  0.72321429  1.0
  Ni  Ni198  1  0.26785714  0.26785714  0.65178571  1.0
  Ni  Ni199  1  0.26785714  0.60119048  0.65178571  1.0
  Ni  Ni200  1  0.26785714  0.93452381  0.65178571  1.0
  Ni  Ni201  1  0.60119048  0.26785714  0.65178571  1.0
  Ni  Ni202  1  0.60119048  0.60119048  0.65178571  1.0
  Ni  Ni203  1  0.60119048  0.93452381  0.65178571  1.0
  Ni  Ni204  1  0.93452381  0.26785714  0.65178571  1.0
  Ni  Ni205  1  0.93452381  0.60119048  0.65178571  1.0
  Ni  Ni206  1  0.93452381  0.93452381  0.65178571  1.0
  Ni  Ni207  1  0.05357143  0.05357143  0.58035714  1.0
  Ni  Ni208  1  0.05357143  0.38690476  0.58035714  1.0
  Ni  Ni209  1  0.05357143  0.72023810  0.58035714  1.0
  Ni  Ni210  1  0.38690476  0.05357143  0.58035714  1.0
  Ni  Ni211  1  0.38690476  0.38690476  0.58035714  1.0
  Ni  Ni212  1  0.38690476  0.72023810  0.58035714  1.0
  Ni  Ni213  1  0.72023810  0.05357143  0.58035714  1.0
  Ni  Ni214  1  0.72023810  0.38690476  0.58035714  1.0
  Ni  Ni215  1  0.72023810  0.72023810  0.58035714  1.0
