# generated using pymatgen
data_Cs3Ni
_symmetry_space_group_name_H-M   'P 1'
_cell_length_a   27.30685736
_cell_length_b   19.30886401
_cell_length_c   37.87813785
_cell_angle_alpha   115.13815017
_cell_angle_beta   126.92443200
_cell_angle_gamma   45.00000000
_symmetry_Int_Tables_number   1
_chemical_formula_structural   Cs3Ni
_chemical_formula_sum   'Cs54 Ni18'
_cell_volume   11289.68241242
_cell_formula_units_Z   18
loop_
 _symmetry_equiv_pos_site_id
 _symmetry_equiv_pos_as_xyz
  1  'x, y, z'
loop_
 _atom_site_type_symbol
 _atom_site_label
 _atom_site_symmetry_multiplicity
 _atom_site_fract_x
 _atom_site_fract_y
 _atom_site_fract_z
 _atom_site_occupancy
  Cs  Cs0  1  0.25000000  0.16666667  0.05000000  1.0
  Cs  Cs1  1  0.25000000  0.50000000  0.05000000  1.0
  Cs  Cs2  1  0.25000000  0.83333333  0.05000000  1.0
  Cs  Cs3  1  0.58333333  0.16666667  0.05000000  1.0
  Cs  Cs4  1  0.58333333  0.50000000  0.05000000  1.0
  Cs  Cs5  1  0.58333333  0.83333333  0.05000000  1.0
  Cs  Cs6  1  0.91666667  0.16666667  0.05000000  1.0
  Cs  Cs7  1  0.91666667  0.50000000  0.05000000  1.0
  Cs  Cs8  1  0.91666667  0.83333333  0.05000000  1.0
  Cs  Cs9  1  0.08333333  0.16666667  0.05000000  1.0
  Cs  Cs10  1  0.08333333  0.50000000  0.05000000  1.0
  Cs  Cs11  1  0.08333333  0.83333333  0.05000000  1.0
  Cs  Cs12  1  0.41666667  0.16666667  0.05000000  1.0
  Cs  Cs13  1  0.41666667  0.50000000  0.05000000  1.0
  Cs  Cs14  1  0.41666667  0.83333333  0.05000000  1.0
  Cs  Cs15  1  0.75000000  0.16666667  0.05000000  1.0
  Cs  Cs16  1  0.75000000  0.50000000  0.05000000  1.0
  Cs  Cs17  1  0.75000000  0.83333333  0.05000000  1.0
  Cs  Cs18  1  0.16666667  0.33333333  0.15000000  1.0
  Cs  Cs19  1  0.16666667  0.66666667  0.15000000  1.0
  Cs  Cs20  1  0.16666667  1.00000000  0.15000000  1.0
  Cs  Cs21  1  0.50000000  0.33333333  0.15000000  1.0
  Cs  Cs22  1  0.50000000  0.66666667  0.15000000  1.0
  Cs  Cs23  1  0.50000000  1.00000000  0.15000000  1.0
  Cs  Cs24  1  0.83333333  0.33333333  0.15000000  1.0
  Cs  Cs25  1  0.83333333  0.66666667  0.15000000  1.0
  Cs  Cs26  1  0.83333333  1.00000000  0.15000000  1.0
  Ni  Ni27  1  0.00000000  0.00000000  0.15000000  1.0
  Ni  Ni28  1  0.00000000  0.33333333  0.15000000  1.0
  Ni  Ni29  1  0.00000000  0.66666667  0.15000000  1.0
  Ni  Ni30  1  0.33333333  0.00000000  0.15000000  1.0
  Ni  Ni31  1  0.33333333  0.33333333  0.15000000  1.0
  Ni  Ni32  1  0.33333333  0.66666667  0.15000000  1.0
  Ni  Ni33  1  0.66666667  0.00000000  0.15000000  1.0
  Ni  Ni34  1  0.66666667  0.33333333  0.15000000  1.0
  Ni  Ni35  1  0.66666667  0.66666667  0.15000000  1.0
  Cs  Cs36  1  0.25000000  0.16666667  0.25000000  1.0
  Cs  Cs37  1  0.25000000  0.50000000  0.25000000  1.0
  Cs  Cs38  1  0.25000000  0.83333333  0.25000000  1.0
  Cs  Cs39  1  0.58333333  0.16666667  0.25000000  1.0
  Cs  Cs40  1  0.58333333  0.50000000  0.25000000  1.0
  Cs  Cs41  1  0.58333333  0.83333333  0.25000000  1.0
  Cs  Cs42  1  0.91666667  0.16666667  0.25000000  1.0
  Cs  Cs43  1  0.91666667  0.50000000  0.25000000  1.0
  Cs  Cs44  1  0.91666667  0.83333333  0.25000000  1.0
  Cs  Cs45  1  0.08333333  0.16666667  0.25000000  1.0
  Cs  Cs46  1  0.08333333  0.50000000  0.25000000  1.0
  Cs  Cs47  1  0.08333333  0.83333333  0.25000000  1.0
  Cs  Cs48  1  0.41666667  0.16666667  0.25000000  1.0
  Cs  Cs49  1  0.41666667  0.50000000  0.25000000  1.0
  Cs  Cs50  1  0.41666667  0.83333333  0.25000000  1.0
  Cs  Cs51  1  0.75000000  0.16666667  0.25000000  1.0
  Cs  Cs52  1  0.75000000  0.50000000  0.25000000  1.0
  Cs  Cs53  1  0.75000000  0.83333333  0.25000000  1.0
  Cs  Cs54  1  0.16666667  0.33333333  0.35000000  1.0
  Cs  Cs55  1  0.16666667  0.66666667  0.35000000  1.0
  Cs  Cs56  1  0.16666667  1.00000000  0.35000000  1.0
  Cs  Cs57  1  0.50000000  0.33333333  0.35000000  1.0
  Cs  Cs58  1  0.50000000  0.66666667  0.35000000  1.0
  Cs  Cs59  1  0.50000000  1.00000000  0.35000000  1.0
  Cs  Cs60  1  0.83333333  0.33333333  0.35000000  1.0
  Cs  Cs61  1  0.83333333  0.66666667  0.35000000  1.0
  Cs  Cs62  1  0.83333333  1.00000000  0.35000000  1.0
  Ni  Ni63  1  0.00000000  0.00000000  0.35000000  1.0
  Ni  Ni64  1  0.00000000  0.33333333  0.35000000  1.0
  Ni  Ni65  1  0.00000000  0.66666667  0.35000000  1.0
  Ni  Ni66  1  0.33333333  0.00000000  0.35000000  1.0
  Ni  Ni67  1  0.33333333  0.33333333  0.35000000  1.0
  Ni  Ni68  1  0.33333333  0.66666667  0.35000000  1.0
  Ni  Ni69  1  0.66666667  0.00000000  0.35000000  1.0
  Ni  Ni70  1  0.66666667  0.33333333  0.35000000  1.0
  Ni  Ni71  1  0.66666667  0.66666667  0.35000000  1.0
