# generated using pymatgen
data_Cs3Ni
_symmetry_space_group_name_H-M   'P 1'
_cell_length_a   56.18960635
_cell_length_b   41.14866415
_cell_length_c   68.18064813
_cell_angle_alpha   25.13815017
_cell_angle_beta   50.98742398
_cell_angle_gamma   39.10642987
_symmetry_Int_Tables_number   1
_chemical_formula_structural   Cs3Ni
_chemical_formula_sum   'Cs216 Ni72'
_cell_volume   40642.85668473
_cell_formula_units_Z   72
loop_
 _symmetry_equiv_pos_site_id
 _symmetry_equiv_pos_as_xyz
  1  'x, y, z'
loop_
 _atom_site_type_symbol
 _atom_site_label
 _atom_site_symmetry_multiplicity
 _atom_site_fract_x
 _atom_site_fract_y
 _atom_site_fract_z
 _atom_site_occupancy
  Cs  Cs0  1  0.12500000  0.16666667  0.03472222  1.0
  Cs  Cs1  1  0.12500000  0.50000000  0.03472222  1.0
  Cs  Cs2  1  0.12500000  0.83333333  0.03472222  1.0
  Cs  Cs3  1  0.45833333  0.16666667  0.03472222  1.0
  Cs  Cs4  1  0.45833333  0.50000000  0.03472222  1.0
  Cs  Cs5  1  0.45833333  0.83333333  0.03472222  1.0
  Cs  Cs6  1  0.79166667  0.16666667  0.03472222  1.0
  Cs  Cs7  1  0.79166667  0.50000000  0.03472222  1.0
  Cs  Cs8  1  0.79166667  0.83333333  0.03472222  1.0
  Cs  Cs9  1  0.29166667  0.16666667  0.09027778  1.0
  Cs  Cs10  1  0.29166667  0.50000000  0.09027778  1.0
  Cs  Cs11  1  0.29166667  0.83333333  0.09027778  1.0
  Cs  Cs12  1  0.62500000  0.16666667  0.09027778  1.0
  Cs  Cs13  1  0.62500000  0.50000000  0.09027778  1.0
  Cs  Cs14  1  0.62500000  0.83333333  0.09027778  1.0
  Cs  Cs15  1  0.95833333  0.16666667  0.09027778  1.0
  Cs  Cs16  1  0.95833333  0.50000000  0.09027778  1.0
  Cs  Cs17  1  0.95833333  0.83333333  0.09027778  1.0
  Cs  Cs18  1  0.04166667  0.16666667  0.00694444  1.0
  Cs  Cs19  1  0.04166667  0.50000000  0.00694444  1.0
  Cs  Cs20  1  0.04166667  0.83333333  0.00694444  1.0
  Cs  Cs21  1  0.37500000  0.16666667  0.00694444  1.0
  Cs  Cs22  1  0.37500000  0.50000000  0.00694444  1.0
  Cs  Cs23  1  0.37500000  0.83333333  0.00694444  1.0
  Cs  Cs24  1  0.70833333  0.16666667  0.00694444  1.0
  Cs  Cs25  1  0.70833333  0.50000000  0.00694444  1.0
  Cs  Cs26  1  0.70833333  0.83333333  0.00694444  1.0
  Cs  Cs27  1  0.20833333  0.16666667  0.06250000  1.0
  Cs  Cs28  1  0.20833333  0.50000000  0.06250000  1.0
  Cs  Cs29  1  0.20833333  0.83333333  0.06250000  1.0
  Cs  Cs30  1  0.54166667  0.16666667  0.06250000  1.0
  Cs  Cs31  1  0.54166667  0.50000000  0.06250000  1.0
  Cs  Cs32  1  0.54166667  0.83333333  0.06250000  1.0
  Cs  Cs33  1  0.87500000  0.16666667  0.06250000  1.0
  Cs  Cs34  1  0.87500000  0.50000000  0.06250000  1.0
  Cs  Cs35  1  0.87500000  0.83333333  0.06250000  1.0
  Cs  Cs36  1  0.08333333  0.33333333  0.02083333  1.0
  Cs  Cs37  1  0.08333333  0.66666667  0.02083333  1.0
  Cs  Cs38  1  0.08333333  1.00000000  0.02083333  1.0
  Cs  Cs39  1  0.41666667  0.33333333  0.02083333  1.0
  Cs  Cs40  1  0.41666667  0.66666667  0.02083333  1.0
  Cs  Cs41  1  0.41666667  1.00000000  0.02083333  1.0
  Cs  Cs42  1  0.75000000  0.33333333  0.02083333  1.0
  Cs  Cs43  1  0.75000000  0.66666667  0.02083333  1.0
  Cs  Cs44  1  0.75000000  1.00000000  0.02083333  1.0
  Cs  Cs45  1  0.25000000  0.00000000  0.07638889  1.0
  Cs  Cs46  1  0.25000000  0.33333333  0.07638889  1.0
  Cs  Cs47  1  0.25000000  0.66666667  0.07638889  1.0
  Cs  Cs48  1  0.58333333  0.00000000  0.07638889  1.0
  Cs  Cs49  1  0.58333333  0.33333333  0.07638889  1.0
  Cs  Cs50  1  0.58333333  0.66666667  0.07638889  1.0
  Cs  Cs51  1  0.91666667  0.00000000  0.07638889  1.0
  Cs  Cs52  1  0.91666667  0.33333333  0.07638889  1.0
  Cs  Cs53  1  0.91666667  0.66666667  0.07638889  1.0
  Ni  Ni54  1  0.16666667  0.33333333  0.04861111  1.0
  Ni  Ni55  1  0.16666667  0.66666667  0.04861111  1.0
  Ni  Ni56  1  0.16666667  1.00000000  0.04861111  1.0
  Ni  Ni57  1  0.50000000  0.33333333  0.04861111  1.0
  Ni  Ni58  1  0.50000000  0.66666667  0.04861111  1.0
  Ni  Ni59  1  0.50000000  1.00000000  0.04861111  1.0
  Ni  Ni60  1  0.83333333  0.33333333  0.04861111  1.0
  Ni  Ni61  1  0.83333333  0.66666667  0.04861111  1.0
  Ni  Ni62  1  0.83333333  1.00000000  0.04861111  1.0
  Ni  Ni63  1  0.00000000  0.00000000  0.10416667  1.0
  Ni  Ni64  1  0.00000000  0.33333333  0.10416667  1.0
  Ni  Ni65  1  0.00000000  0.66666667  0.10416667  1.0
  Ni  Ni66  1  0.33333333  0.00000000  0.10416667  1.0
  Ni  Ni67  1  0.33333333  0.33333333  0.10416667  1.0
  Ni  Ni68  1  0.33333333  0.66666667  0.10416667  1.0
  Ni  Ni69  1  0.66666667  0.00000000  0.10416667  1.0
  Ni  Ni70  1  0.66666667  0.33333333  0.10416667  1.0
  Ni  Ni71  1  0.66666667  0.66666667  0.10416667  1.0
  Cs  Cs72  1  0.12500000  0.16666667  0.14583333  1.0
  Cs  Cs73  1  0.12500000  0.50000000  0.14583333  1.0
  Cs  Cs74  1  0.12500000  0.83333333  0.14583333  1.0
  Cs  Cs75  1  0.45833333  0.16666667  0.14583333  1.0
  Cs  Cs76  1  0.45833333  0.50000000  0.14583333  1.0
  Cs  Cs77  1  0.45833333  0.83333333  0.14583333  1.0
  Cs  Cs78  1  0.79166667  0.16666667  0.14583333  1.0
  Cs  Cs79  1  0.79166667  0.50000000  0.14583333  1.0
  Cs  Cs80  1  0.79166667  0.83333333  0.14583333  1.0
  Cs  Cs81  1  0.29166667  0.16666667  0.20138889  1.0
  Cs  Cs82  1  0.29166667  0.50000000  0.20138889  1.0
  Cs  Cs83  1  0.29166667  0.83333333  0.20138889  1.0
  Cs  Cs84  1  0.62500000  0.16666667  0.20138889  1.0
  Cs  Cs85  1  0.62500000  0.50000000  0.20138889  1.0
  Cs  Cs86  1  0.62500000  0.83333333  0.20138889  1.0
  Cs  Cs87  1  0.95833333  0.16666667  0.20138889  1.0
  Cs  Cs88  1  0.95833333  0.50000000  0.20138889  1.0
  Cs  Cs89  1  0.95833333  0.83333333  0.20138889  1.0
  Cs  Cs90  1  0.04166667  0.16666667  0.11805556  1.0
  Cs  Cs91  1  0.04166667  0.50000000  0.11805556  1.0
  Cs  Cs92  1  0.04166667  0.83333333  0.11805556  1.0
  Cs  Cs93  1  0.37500000  0.16666667  0.11805556  1.0
  Cs  Cs94  1  0.37500000  0.50000000  0.11805556  1.0
  Cs  Cs95  1  0.37500000  0.83333333  0.11805556  1.0
  Cs  Cs96  1  0.70833333  0.16666667  0.11805556  1.0
  Cs  Cs97  1  0.70833333  0.50000000  0.11805556  1.0
  Cs  Cs98  1  0.70833333  0.83333333  0.11805556  1.0
  Cs  Cs99  1  0.20833333  0.16666667  0.17361111  1.0
  Cs  Cs100  1  0.20833333  0.50000000  0.17361111  1.0
  Cs  Cs101  1  0.20833333  0.83333333  0.17361111  1.0
  Cs  Cs102  1  0.54166667  0.16666667  0.17361111  1.0
  Cs  Cs103  1  0.54166667  0.50000000  0.17361111  1.0
  Cs  Cs104  1  0.54166667  0.83333333  0.17361111  1.0
  Cs  Cs105  1  0.87500000  0.16666667  0.17361111  1.0
  Cs  Cs106  1  0.87500000  0.50000000  0.17361111  1.0
  Cs  Cs107  1  0.87500000  0.83333333  0.17361111  1.0
  Cs  Cs108  1  0.08333333  0.33333333  0.13194444  1.0
  Cs  Cs109  1  0.08333333  0.66666667  0.13194444  1.0
  Cs  Cs110  1  0.08333333  1.00000000  0.13194444  1.0
  Cs  Cs111  1  0.41666667  0.33333333  0.13194444  1.0
  Cs  Cs112  1  0.41666667  0.66666667  0.13194444  1.0
  Cs  Cs113  1  0.41666667  1.00000000  0.13194444  1.0
  Cs  Cs114  1  0.75000000  0.33333333  0.13194444  1.0
  Cs  Cs115  1  0.75000000  0.66666667  0.13194444  1.0
  Cs  Cs116  1  0.75000000  1.00000000  0.13194444  1.0
  Cs  Cs117  1  0.25000000  0.00000000  0.18750000  1.0
  Cs  Cs118  1  0.25000000  0.33333333  0.18750000  1.0
  Cs  Cs119  1  0.25000000  0.66666667  0.18750000  1.0
  Cs  Cs120  1  0.58333333  0.00000000  0.18750000  1.0
  Cs  Cs121  1  0.58333333  0.33333333  0.18750000  1.0
  Cs  Cs122  1  0.58333333  0.66666667  0.18750000  1.0
  Cs  Cs123  1  0.91666667  0.00000000  0.18750000  1.0
  Cs  Cs124  1  0.91666667  0.33333333  0.18750000  1.0
  Cs  Cs125  1  0.91666667  0.66666667  0.18750000  1.0
  Ni  Ni126  1  0.16666667  0.33333333  0.15972222  1.0
  Ni  Ni127  1  0.16666667  0.66666667  0.15972222  1.0
  Ni  Ni128  1  0.16666667  1.00000000  0.15972222  1.0
  Ni  Ni129  1  0.50000000  0.33333333  0.15972222  1.0
  Ni  Ni130  1  0.50000000  0.66666667  0.15972222  1.0
  Ni  Ni131  1  0.50000000  1.00000000  0.15972222  1.0
  Ni  Ni132  1  0.83333333  0.33333333  0.15972222  1.0
  Ni  Ni133  1  0.83333333  0.66666667  0.15972222  1.0
  Ni  Ni134  1  0.83333333  1.00000000  0.15972222  1.0
  Ni  Ni135  1  0.00000000  0.00000000  0.21527778  1.0
  Ni  Ni136  1  0.00000000  0.33333333  0.21527778  1.0
  Ni  Ni137  1  0.00000000  0.66666667  0.21527778  1.0
  Ni  Ni138  1  0.33333333  0.00000000  0.21527778  1.0
  Ni  Ni139  1  0.33333333  0.33333333  0.21527778  1.0
  Ni  Ni140  1  0.33333333  0.66666667  0.21527778  1.0
  Ni  Ni141  1  0.66666667  0.00000000  0.21527778  1.0
  Ni  Ni142  1  0.66666667  0.33333333  0.21527778  1.0
  Ni  Ni143  1  0.66666667  0.66666667  0.21527778  1.0
  Cs  Cs144  1  0.12500000  0.16666667  0.25694444  1.0
  Cs  Cs145  1  0.12500000  0.50000000  0.25694444  1.0
  Cs  Cs146  1  0.12500000  0.83333333  0.25694444  1.0
  Cs  Cs147  1  0.45833333  0.16666667  0.25694444  1.0
  Cs  Cs148  1  0.45833333  0.50000000  0.25694444  1.0
  Cs  Cs149  1  0.45833333  0.83333333  0.25694444  1.0
  Cs  Cs150  1  0.79166667  0.16666667  0.25694444  1.0
  Cs  Cs151  1  0.79166667  0.50000000  0.25694444  1.0
  Cs  Cs152  1  0.79166667  0.83333333  0.25694444  1.0
  Cs  Cs153  1  0.29166667  0.16666667  0.31250000  1.0
  Cs  Cs154  1  0.29166667  0.50000000  0.31250000  1.0
  Cs  Cs155  1  0.29166667  0.83333333  0.31250000  1.0
  Cs  Cs156  1  0.62500000  0.16666667  0.31250000  1.0
  Cs  Cs157  1  0.62500000  0.50000000  0.31250000  1.0
  Cs  Cs158  1  0.62500000  0.83333333  0.31250000  1.0
  Cs  Cs159  1  0.95833333  0.16666667  0.31250000  1.0
  Cs  Cs160  1  0.95833333  0.50000000  0.31250000  1.0
  Cs  Cs161  1  0.95833333  0.83333333  0.31250000  1.0
  Cs  Cs162  1  0.04166667  0.16666667  0.22916667  1.0
  Cs  Cs163  1  0.04166667  0.50000000  0.22916667  1.0
  Cs  Cs164  1  0.04166667  0.83333333  0.22916667  1.0
  Cs  Cs165  1  0.37500000  0.16666667  0.22916667  1.0
  Cs  Cs166  1  0.37500000  0.50000000  0.22916667  1.0
  Cs  Cs167  1  0.37500000  0.83333333  0.22916667  1.0
  Cs  Cs168  1  0.70833333  0.16666667  0.22916667  1.0
  Cs  Cs169  1  0.70833333  0.50000000  0.22916667  1.0
  Cs  Cs170  1  0.70833333  0.83333333  0.22916667  1.0
  Cs  Cs171  1  0.20833333  0.16666667  0.28472222  1.0
  Cs  Cs172  1  0.20833333  0.50000000  0.28472222  1.0
  Cs  Cs173  1  0.20833333  0.83333333  0.28472222  1.0
  Cs  Cs174  1  0.54166667  0.16666667  0.28472222  1.0
  Cs  Cs175  1  0.54166667  0.50000000  0.28472222  1.0
  Cs  Cs176  1  0.54166667  0.83333333  0.28472222  1.0
  Cs  Cs177  1  0.87500000  0.16666667  0.28472222  1.0
  Cs  Cs178  1  0.87500000  0.50000000  0.28472222  1.0
  Cs  Cs179  1  0.87500000  0.83333333  0.28472222  1.0
  Cs  Cs180  1  0.08333333  0.33333333  0.24305556  1.0
  Cs  Cs181  1  0.08333333  0.66666667  0.24305556  1.0
  Cs  Cs182  1  0.08333333  1.00000000  0.24305556  1.0
  Cs  Cs183  1  0.41666667  0.33333333  0.24305556  1.0
  Cs  Cs184  1  0.41666667  0.66666667  0.24305556  1.0
  Cs  Cs185  1  0.41666667  1.00000000  0.24305556  1.0
  Cs  Cs186  1  0.75000000  0.33333333  0.24305556  1.0
  Cs  Cs187  1  0.75000000  0.66666667  0.24305556  1.0
  Cs  Cs188  1  0.75000000  1.00000000  0.24305556  1.0
  Cs  Cs189  1  0.25000000  0.00000000  0.29861111  1.0
  Cs  Cs190  1  0.25000000  0.33333333  0.29861111  1.0
  Cs  Cs191  1  0.25000000  0.66666667  0.29861111  1.0
  Cs  Cs192  1  0.58333333  0.00000000  0.29861111  1.0
  Cs  Cs193  1  0.58333333  0.33333333  0.29861111  1.0
  Cs  Cs194  1  0.58333333  0.66666667  0.29861111  1.0
  Cs  Cs195  1  0.91666667  0.00000000  0.29861111  1.0
  Cs  Cs196  1  0.91666667  0.33333333  0.29861111  1.0
  Cs  Cs197  1  0.91666667  0.66666667  0.29861111  1.0
  Ni  Ni198  1  0.16666667  0.33333333  0.27083333  1.0
  Ni  Ni199  1  0.16666667  0.66666667  0.27083333  1.0
  Ni  Ni200  1  0.16666667  1.00000000  0.27083333  1.0
  Ni  Ni201  1  0.50000000  0.33333333  0.27083333  1.0
  Ni  Ni202  1  0.50000000  0.66666667  0.27083333  1.0
  Ni  Ni203  1  0.50000000  1.00000000  0.27083333  1.0
  Ni  Ni204  1  0.83333333  0.33333333  0.27083333  1.0
  Ni  Ni205  1  0.83333333  0.66666667  0.27083333  1.0
  Ni  Ni206  1  0.83333333  1.00000000  0.27083333  1.0
  Ni  Ni207  1  0.00000000  0.00000000  0.32638889  1.0
  Ni  Ni208  1  0.00000000  0.33333333  0.32638889  1.0
  Ni  Ni209  1  0.00000000  0.66666667  0.32638889  1.0
  Ni  Ni210  1  0.33333333  0.00000000  0.32638889  1.0
  Ni  Ni211  1  0.33333333  0.33333333  0.32638889  1.0
  Ni  Ni212  1  0.33333333  0.66666667  0.32638889  1.0
  Ni  Ni213  1  0.66666667  0.00000000  0.32638889  1.0
  Ni  Ni214  1  0.66666667  0.33333333  0.32638889  1.0
  Ni  Ni215  1  0.66666667  0.66666667  0.32638889  1.0
  Cs  Cs216  1  0.12500000  0.16666667  0.36805556  1.0
  Cs  Cs217  1  0.12500000  0.50000000  0.36805556  1.0
  Cs  Cs218  1  0.12500000  0.83333333  0.36805556  1.0
  Cs  Cs219  1  0.45833333  0.16666667  0.36805556  1.0
  Cs  Cs220  1  0.45833333  0.50000000  0.36805556  1.0
  Cs  Cs221  1  0.45833333  0.83333333  0.36805556  1.0
  Cs  Cs222  1  0.79166667  0.16666667  0.36805556  1.0
  Cs  Cs223  1  0.79166667  0.50000000  0.36805556  1.0
  Cs  Cs224  1  0.79166667  0.83333333  0.36805556  1.0
  Cs  Cs225  1  0.29166667  0.16666667  0.42361111  1.0
  Cs  Cs226  1  0.29166667  0.50000000  0.42361111  1.0
  Cs  Cs227  1  0.29166667  0.83333333  0.42361111  1.0
  Cs  Cs228  1  0.62500000  0.16666667  0.42361111  1.0
  Cs  Cs229  1  0.62500000  0.50000000  0.42361111  1.0
  Cs  Cs230  1  0.62500000  0.83333333  0.42361111  1.0
  Cs  Cs231  1  0.95833333  0.16666667  0.42361111  1.0
  Cs  Cs232  1  0.95833333  0.50000000  0.42361111  1.0
  Cs  Cs233  1  0.95833333  0.83333333  0.42361111  1.0
  Cs  Cs234  1  0.04166667  0.16666667  0.34027778  1.0
  Cs  Cs235  1  0.04166667  0.50000000  0.34027778  1.0
  Cs  Cs236  1  0.04166667  0.83333333  0.34027778  1.0
  Cs  Cs237  1  0.37500000  0.16666667  0.34027778  1.0
  Cs  Cs238  1  0.37500000  0.50000000  0.34027778  1.0
  Cs  Cs239  1  0.37500000  0.83333333  0.34027778  1.0
  Cs  Cs240  1  0.70833333  0.16666667  0.34027778  1.0
  Cs  Cs241  1  0.70833333  0.50000000  0.34027778  1.0
  Cs  Cs242  1  0.70833333  0.83333333  0.34027778  1.0
  Cs  Cs243  1  0.20833333  0.16666667  0.39583333  1.0
  Cs  Cs244  1  0.20833333  0.50000000  0.39583333  1.0
  Cs  Cs245  1  0.20833333  0.83333333  0.39583333  1.0
  Cs  Cs246  1  0.54166667  0.16666667  0.39583333  1.0
  Cs  Cs247  1  0.54166667  0.50000000  0.39583333  1.0
  Cs  Cs248  1  0.54166667  0.83333333  0.39583333  1.0
  Cs  Cs249  1  0.87500000  0.16666667  0.39583333  1.0
  Cs  Cs250  1  0.87500000  0.50000000  0.39583333  1.0
  Cs  Cs251  1  0.87500000  0.83333333  0.39583333  1.0
  Cs  Cs252  1  0.08333333  0.33333333  0.35416667  1.0
  Cs  Cs253  1  0.08333333  0.66666667  0.35416667  1.0
  Cs  Cs254  1  0.08333333  1.00000000  0.35416667  1.0
  Cs  Cs255  1  0.41666667  0.33333333  0.35416667  1.0
  Cs  Cs256  1  0.41666667  0.66666667  0.35416667  1.0
  Cs  Cs257  1  0.41666667  1.00000000  0.35416667  1.0
  Cs  Cs258  1  0.75000000  0.33333333  0.35416667  1.0
  Cs  Cs259  1  0.75000000  0.66666667  0.35416667  1.0
  Cs  Cs260  1  0.75000000  1.00000000  0.35416667  1.0
  Cs  Cs261  1  0.25000000  0.00000000  0.40972222  1.0
  Cs  Cs262  1  0.25000000  0.33333333  0.40972222  1.0
  Cs  Cs263  1  0.25000000  0.66666667  0.40972222  1.0
  Cs  Cs264  1  0.58333333  0.00000000  0.40972222  1.0
  Cs  Cs265  1  0.58333333  0.33333333  0.40972222  1.0
  Cs  Cs266  1  0.58333333  0.66666667  0.40972222  1.0
  Cs  Cs267  1  0.91666667  0.00000000  0.40972222  1.0
  Cs  Cs268  1  0.91666667  0.33333333  0.40972222  1.0
  Cs  Cs269  1  0.91666667  0.66666667  0.40972222  1.0
  Ni  Ni270  1  0.16666667  0.33333333  0.38194444  1.0
  Ni  Ni271  1  0.16666667  0.66666667  0.38194444  1.0
  Ni  Ni272  1  0.16666667  1.00000000  0.38194444  1.0
  Ni  Ni273  1  0.50000000  0.33333333  0.38194444  1.0
  Ni  Ni274  1  0.50000000  0.66666667  0.38194444  1.0
  Ni  Ni275  1  0.50000000  1.00000000  0.38194444  1.0
  Ni  Ni276  1  0.83333333  0.33333333  0.38194444  1.0
  Ni  Ni277  1  0.83333333  0.66666667  0.38194444  1.0
  Ni  Ni278  1  0.83333333  1.00000000  0.38194444  1.0
  Ni  Ni279  1  0.00000000  0.00000000  0.43750000  1.0
  Ni  Ni280  1  0.00000000  0.33333333  0.43750000  1.0
  Ni  Ni281  1  0.00000000  0.66666667  0.43750000  1.0
  Ni  Ni282  1  0.33333333  0.00000000  0.43750000  1.0
  Ni  Ni283  1  0.33333333  0.33333333  0.43750000  1.0
  Ni  Ni284  1  0.33333333  0.66666667  0.43750000  1.0
  Ni  Ni285  1  0.66666667  0.00000000  0.43750000  1.0
  Ni  Ni286  1  0.66666667  0.33333333  0.43750000  1.0
  Ni  Ni287  1  0.66666667  0.66666667  0.43750000  1.0
