# generated using pymatgen
data_Cs3Ni
_symmetry_space_group_name_H-M   'P 1'
_cell_length_a   22.72688271
_cell_length_b   62.47348494
_cell_length_c   53.02939299
_cell_angle_alpha   145.97193563
_cell_angle_beta   73.84886401
_cell_angle_gamma   124.48384021
_symmetry_Int_Tables_number   1
_chemical_formula_structural   Cs3Ni
_chemical_formula_sum   'Cs162 Ni54'
_cell_volume   31611.11075479
_cell_formula_units_Z   54
loop_
 _symmetry_equiv_pos_site_id
 _symmetry_equiv_pos_as_xyz
  1  'x, y, z'
loop_
 _atom_site_type_symbol
 _atom_site_label
 _atom_site_symmetry_multiplicity
 _atom_site_fract_x
 _atom_site_fract_y
 _atom_site_fract_z
 _atom_site_occupancy
  Cs  Cs0  1  0.08333333  0.08333333  0.10714286  1.0
  Cs  Cs1  1  0.08333333  0.41666667  0.10714286  1.0
  Cs  Cs2  1  0.08333333  0.75000000  0.10714286  1.0
  Cs  Cs3  1  0.41666667  0.08333333  0.10714286  1.0
  Cs  Cs4  1  0.41666667  0.41666667  0.10714286  1.0
  Cs  Cs5  1  0.41666667  0.75000000  0.10714286  1.0
  Cs  Cs6  1  0.75000000  0.08333333  0.10714286  1.0
  Cs  Cs7  1  0.75000000  0.41666667  0.10714286  1.0
  Cs  Cs8  1  0.75000000  0.75000000  0.10714286  1.0
  Cs  Cs9  1  0.08333333  0.25000000  0.03571429  1.0
  Cs  Cs10  1  0.08333333  0.58333333  0.03571429  1.0
  Cs  Cs11  1  0.08333333  0.91666667  0.03571429  1.0
  Cs  Cs12  1  0.41666667  0.25000000  0.03571429  1.0
  Cs  Cs13  1  0.41666667  0.58333333  0.03571429  1.0
  Cs  Cs14  1  0.41666667  0.91666667  0.03571429  1.0
  Cs  Cs15  1  0.75000000  0.25000000  0.03571429  1.0
  Cs  Cs16  1  0.75000000  0.58333333  0.03571429  1.0
  Cs  Cs17  1  0.75000000  0.91666667  0.03571429  1.0
  Cs  Cs18  1  0.25000000  0.08333333  0.03571429  1.0
  Cs  Cs19  1  0.25000000  0.41666667  0.03571429  1.0
  Cs  Cs20  1  0.25000000  0.75000000  0.03571429  1.0
  Cs  Cs21  1  0.58333333  0.08333333  0.03571429  1.0
  Cs  Cs22  1  0.58333333  0.41666667  0.03571429  1.0
  Cs  Cs23  1  0.58333333  0.75000000  0.03571429  1.0
  Cs  Cs24  1  0.91666667  0.08333333  0.03571429  1.0
  Cs  Cs25  1  0.91666667  0.41666667  0.03571429  1.0
  Cs  Cs26  1  0.91666667  0.75000000  0.03571429  1.0
  Cs  Cs27  1  0.25000000  0.25000000  0.10714286  1.0
  Cs  Cs28  1  0.25000000  0.58333333  0.10714286  1.0
  Cs  Cs29  1  0.25000000  0.91666667  0.10714286  1.0
  Cs  Cs30  1  0.58333333  0.25000000  0.10714286  1.0
  Cs  Cs31  1  0.58333333  0.58333333  0.10714286  1.0
  Cs  Cs32  1  0.58333333  0.91666667  0.10714286  1.0
  Cs  Cs33  1  0.91666667  0.25000000  0.10714286  1.0
  Cs  Cs34  1  0.91666667  0.58333333  0.10714286  1.0
  Cs  Cs35  1  0.91666667  0.91666667  0.10714286  1.0
  Cs  Cs36  1  0.16666667  0.00000000  0.03571429  1.0
  Cs  Cs37  1  0.16666667  0.33333333  0.03571429  1.0
  Cs  Cs38  1  0.16666667  0.66666667  0.03571429  1.0
  Cs  Cs39  1  0.50000000  0.00000000  0.03571429  1.0
  Cs  Cs40  1  0.50000000  0.33333333  0.03571429  1.0
  Cs  Cs41  1  0.50000000  0.66666667  0.03571429  1.0
  Cs  Cs42  1  0.83333333  0.00000000  0.03571429  1.0
  Cs  Cs43  1  0.83333333  0.33333333  0.03571429  1.0
  Cs  Cs44  1  0.83333333  0.66666667  0.03571429  1.0
  Cs  Cs45  1  0.16666667  0.16666667  0.10714286  1.0
  Cs  Cs46  1  0.16666667  0.50000000  0.10714286  1.0
  Cs  Cs47  1  0.16666667  0.83333333  0.10714286  1.0
  Cs  Cs48  1  0.50000000  0.16666667  0.10714286  1.0
  Cs  Cs49  1  0.50000000  0.50000000  0.10714286  1.0
  Cs  Cs50  1  0.50000000  0.83333333  0.10714286  1.0
  Cs  Cs51  1  0.83333333  0.16666667  0.10714286  1.0
  Cs  Cs52  1  0.83333333  0.50000000  0.10714286  1.0
  Cs  Cs53  1  0.83333333  0.83333333  0.10714286  1.0
  Ni  Ni54  1  0.00000000  0.00000000  0.10714286  1.0
  Ni  Ni55  1  0.00000000  0.33333333  0.10714286  1.0
  Ni  Ni56  1  1.00000000  0.66666667  0.10714286  1.0
  Ni  Ni57  1  0.33333333  0.00000000  0.10714286  1.0
  Ni  Ni58  1  0.33333333  0.33333333  0.10714286  1.0
  Ni  Ni59  1  0.33333333  0.66666667  0.10714286  1.0
  Ni  Ni60  1  0.66666667  0.00000000  0.10714286  1.0
  Ni  Ni61  1  0.66666667  0.33333333  0.10714286  1.0
  Ni  Ni62  1  0.66666667  0.66666667  0.10714286  1.0
  Ni  Ni63  1  0.00000000  0.16666667  0.03571429  1.0
  Ni  Ni64  1  0.00000000  0.50000000  0.03571429  1.0
  Ni  Ni65  1  1.00000000  0.83333333  0.03571429  1.0
  Ni  Ni66  1  0.33333333  0.16666667  0.03571429  1.0
  Ni  Ni67  1  0.33333333  0.50000000  0.03571429  1.0
  Ni  Ni68  1  0.33333333  0.83333333  0.03571429  1.0
  Ni  Ni69  1  0.66666667  0.16666667  0.03571429  1.0
  Ni  Ni70  1  0.66666667  0.50000000  0.03571429  1.0
  Ni  Ni71  1  0.66666667  0.83333333  0.03571429  1.0
  Cs  Cs72  1  0.08333333  0.08333333  0.25000000  1.0
  Cs  Cs73  1  0.08333333  0.41666667  0.25000000  1.0
  Cs  Cs74  1  0.08333333  0.75000000  0.25000000  1.0
  Cs  Cs75  1  0.41666667  0.08333333  0.25000000  1.0
  Cs  Cs76  1  0.41666667  0.41666667  0.25000000  1.0
  Cs  Cs77  1  0.41666667  0.75000000  0.25000000  1.0
  Cs  Cs78  1  0.75000000  0.08333333  0.25000000  1.0
  Cs  Cs79  1  0.75000000  0.41666667  0.25000000  1.0
  Cs  Cs80  1  0.75000000  0.75000000  0.25000000  1.0
  Cs  Cs81  1  0.08333333  0.25000000  0.17857143  1.0
  Cs  Cs82  1  0.08333333  0.58333333  0.17857143  1.0
  Cs  Cs83  1  0.08333333  0.91666667  0.17857143  1.0
  Cs  Cs84  1  0.41666667  0.25000000  0.17857143  1.0
  Cs  Cs85  1  0.41666667  0.58333333  0.17857143  1.0
  Cs  Cs86  1  0.41666667  0.91666667  0.17857143  1.0
  Cs  Cs87  1  0.75000000  0.25000000  0.17857143  1.0
  Cs  Cs88  1  0.75000000  0.58333333  0.17857143  1.0
  Cs  Cs89  1  0.75000000  0.91666667  0.17857143  1.0
  Cs  Cs90  1  0.25000000  0.08333333  0.17857143  1.0
  Cs  Cs91  1  0.25000000  0.41666667  0.17857143  1.0
  Cs  Cs92  1  0.25000000  0.75000000  0.17857143  1.0
  Cs  Cs93  1  0.58333333  0.08333333  0.17857143  1.0
  Cs  Cs94  1  0.58333333  0.41666667  0.17857143  1.0
  Cs  Cs95  1  0.58333333  0.75000000  0.17857143  1.0
  Cs  Cs96  1  0.91666667  0.08333333  0.17857143  1.0
  Cs  Cs97  1  0.91666667  0.41666667  0.17857143  1.0
  Cs  Cs98  1  0.91666667  0.75000000  0.17857143  1.0
  Cs  Cs99  1  0.25000000  0.25000000  0.25000000  1.0
  Cs  Cs100  1  0.25000000  0.58333333  0.25000000  1.0
  Cs  Cs101  1  0.25000000  0.91666667  0.25000000  1.0
  Cs  Cs102  1  0.58333333  0.25000000  0.25000000  1.0
  Cs  Cs103  1  0.58333333  0.58333333  0.25000000  1.0
  Cs  Cs104  1  0.58333333  0.91666667  0.25000000  1.0
  Cs  Cs105  1  0.91666667  0.25000000  0.25000000  1.0
  Cs  Cs106  1  0.91666667  0.58333333  0.25000000  1.0
  Cs  Cs107  1  0.91666667  0.91666667  0.25000000  1.0
  Cs  Cs108  1  0.16666667  0.00000000  0.17857143  1.0
  Cs  Cs109  1  0.16666667  0.33333333  0.17857143  1.0
  Cs  Cs110  1  0.16666667  0.66666667  0.17857143  1.0
  Cs  Cs111  1  0.50000000  0.00000000  0.17857143  1.0
  Cs  Cs112  1  0.50000000  0.33333333  0.17857143  1.0
  Cs  Cs113  1  0.50000000  0.66666667  0.17857143  1.0
  Cs  Cs114  1  0.83333333  0.00000000  0.17857143  1.0
  Cs  Cs115  1  0.83333333  0.33333333  0.17857143  1.0
  Cs  Cs116  1  0.83333333  0.66666667  0.17857143  1.0
  Cs  Cs117  1  0.16666667  0.16666667  0.25000000  1.0
  Cs  Cs118  1  0.16666667  0.50000000  0.25000000  1.0
  Cs  Cs119  1  0.16666667  0.83333333  0.25000000  1.0
  Cs  Cs120  1  0.50000000  0.16666667  0.25000000  1.0
  Cs  Cs121  1  0.50000000  0.50000000  0.25000000  1.0
  Cs  Cs122  1  0.50000000  0.83333333  0.25000000  1.0
  Cs  Cs123  1  0.83333333  0.16666667  0.25000000  1.0
  Cs  Cs124  1  0.83333333  0.50000000  0.25000000  1.0
  Cs  Cs125  1  0.83333333  0.83333333  0.25000000  1.0
  Ni  Ni126  1  0.00000000  0.00000000  0.25000000  1.0
  Ni  Ni127  1  0.00000000  0.33333333  0.25000000  1.0
  Ni  Ni128  1  1.00000000  0.66666667  0.25000000  1.0
  Ni  Ni129  1  0.33333333  0.00000000  0.25000000  1.0
  Ni  Ni130  1  0.33333333  0.33333333  0.25000000  1.0
  Ni  Ni131  1  0.33333333  0.66666667  0.25000000  1.0
  Ni  Ni132  1  0.66666667  0.00000000  0.25000000  1.0
  Ni  Ni133  1  0.66666667  0.33333333  0.25000000  1.0
  Ni  Ni134  1  0.66666667  0.66666667  0.25000000  1.0
  Ni  Ni135  1  0.00000000  0.16666667  0.17857143  1.0
  Ni  Ni136  1  0.00000000  0.50000000  0.17857143  1.0
  Ni  Ni137  1  1.00000000  0.83333333  0.17857143  1.0
  Ni  Ni138  1  0.33333333  0.16666667  0.17857143  1.0
  Ni  Ni139  1  0.33333333  0.50000000  0.17857143  1.0
  Ni  Ni140  1  0.33333333  0.83333333  0.17857143  1.0
  Ni  Ni141  1  0.66666667  0.16666667  0.17857143  1.0
  Ni  Ni142  1  0.66666667  0.50000000  0.17857143  1.0
  Ni  Ni143  1  0.66666667  0.83333333  0.17857143  1.0
  Cs  Cs144  1  0.08333333  0.08333333  0.39285714  1.0
  Cs  Cs145  1  0.08333333  0.41666667  0.39285714  1.0
  Cs  Cs146  1  0.08333333  0.75000000  0.39285714  1.0
  Cs  Cs147  1  0.41666667  0.08333333  0.39285714  1.0
  Cs  Cs148  1  0.41666667  0.41666667  0.39285714  1.0
  Cs  Cs149  1  0.41666667  0.75000000  0.39285714  1.0
  Cs  Cs150  1  0.75000000  0.08333333  0.39285714  1.0
  Cs  Cs151  1  0.75000000  0.41666667  0.39285714  1.0
  Cs  Cs152  1  0.75000000  0.75000000  0.39285714  1.0
  Cs  Cs153  1  0.08333333  0.25000000  0.32142857  1.0
  Cs  Cs154  1  0.08333333  0.58333333  0.32142857  1.0
  Cs  Cs155  1  0.08333333  0.91666667  0.32142857  1.0
  Cs  Cs156  1  0.41666667  0.25000000  0.32142857  1.0
  Cs  Cs157  1  0.41666667  0.58333333  0.32142857  1.0
  Cs  Cs158  1  0.41666667  0.91666667  0.32142857  1.0
  Cs  Cs159  1  0.75000000  0.25000000  0.32142857  1.0
  Cs  Cs160  1  0.75000000  0.58333333  0.32142857  1.0
  Cs  Cs161  1  0.75000000  0.91666667  0.32142857  1.0
  Cs  Cs162  1  0.25000000  0.08333333  0.32142857  1.0
  Cs  Cs163  1  0.25000000  0.41666667  0.32142857  1.0
  Cs  Cs164  1  0.25000000  0.75000000  0.32142857  1.0
  Cs  Cs165  1  0.58333333  0.08333333  0.32142857  1.0
  Cs  Cs166  1  0.58333333  0.41666667  0.32142857  1.0
  Cs  Cs167  1  0.58333333  0.75000000  0.32142857  1.0
  Cs  Cs168  1  0.91666667  0.08333333  0.32142857  1.0
  Cs  Cs169  1  0.91666667  0.41666667  0.32142857  1.0
  Cs  Cs170  1  0.91666667  0.75000000  0.32142857  1.0
  Cs  Cs171  1  0.25000000  0.25000000  0.39285714  1.0
  Cs  Cs172  1  0.25000000  0.58333333  0.39285714  1.0
  Cs  Cs173  1  0.25000000  0.91666667  0.39285714  1.0
  Cs  Cs174  1  0.58333333  0.25000000  0.39285714  1.0
  Cs  Cs175  1  0.58333333  0.58333333  0.39285714  1.0
  Cs  Cs176  1  0.58333333  0.91666667  0.39285714  1.0
  Cs  Cs177  1  0.91666667  0.25000000  0.39285714  1.0
  Cs  Cs178  1  0.91666667  0.58333333  0.39285714  1.0
  Cs  Cs179  1  0.91666667  0.91666667  0.39285714  1.0
  Cs  Cs180  1  0.16666667  0.00000000  0.32142857  1.0
  Cs  Cs181  1  0.16666667  0.33333333  0.32142857  1.0
  Cs  Cs182  1  0.16666667  0.66666667  0.32142857  1.0
  Cs  Cs183  1  0.50000000  0.00000000  0.32142857  1.0
  Cs  Cs184  1  0.50000000  0.33333333  0.32142857  1.0
  Cs  Cs185  1  0.50000000  0.66666667  0.32142857  1.0
  Cs  Cs186  1  0.83333333  0.00000000  0.32142857  1.0
  Cs  Cs187  1  0.83333333  0.33333333  0.32142857  1.0
  Cs  Cs188  1  0.83333333  0.66666667  0.32142857  1.0
  Cs  Cs189  1  0.16666667  0.16666667  0.39285714  1.0
  Cs  Cs190  1  0.16666667  0.50000000  0.39285714  1.0
  Cs  Cs191  1  0.16666667  0.83333333  0.39285714  1.0
  Cs  Cs192  1  0.50000000  0.16666667  0.39285714  1.0
  Cs  Cs193  1  0.50000000  0.50000000  0.39285714  1.0
  Cs  Cs194  1  0.50000000  0.83333333  0.39285714  1.0
  Cs  Cs195  1  0.83333333  0.16666667  0.39285714  1.0
  Cs  Cs196  1  0.83333333  0.50000000  0.39285714  1.0
  Cs  Cs197  1  0.83333333  0.83333333  0.39285714  1.0
  Ni  Ni198  1  0.00000000  0.00000000  0.39285714  1.0
  Ni  Ni199  1  0.00000000  0.33333333  0.39285714  1.0
  Ni  Ni200  1  1.00000000  0.66666667  0.39285714  1.0
  Ni  Ni201  1  0.33333333  0.00000000  0.39285714  1.0
  Ni  Ni202  1  0.33333333  0.33333333  0.39285714  1.0
  Ni  Ni203  1  0.33333333  0.66666667  0.39285714  1.0
  Ni  Ni204  1  0.66666667  0.00000000  0.39285714  1.0
  Ni  Ni205  1  0.66666667  0.33333333  0.39285714  1.0
  Ni  Ni206  1  0.66666667  0.66666667  0.39285714  1.0
  Ni  Ni207  1  0.00000000  0.16666667  0.32142857  1.0
  Ni  Ni208  1  0.00000000  0.50000000  0.32142857  1.0
  Ni  Ni209  1  1.00000000  0.83333333  0.32142857  1.0
  Ni  Ni210  1  0.33333333  0.16666667  0.32142857  1.0
  Ni  Ni211  1  0.33333333  0.50000000  0.32142857  1.0
  Ni  Ni212  1  0.33333333  0.83333333  0.32142857  1.0
  Ni  Ni213  1  0.66666667  0.16666667  0.32142857  1.0
  Ni  Ni214  1  0.66666667  0.50000000  0.32142857  1.0
  Ni  Ni215  1  0.66666667  0.83333333  0.32142857  1.0
