# generated using pymatgen
data_Cs3Ni
_symmetry_space_group_name_H-M   'P 1'
_cell_length_a   22.72688271
_cell_length_b   27.30685736
_cell_length_c   60.60502056
_cell_angle_alpha   53.07556799
_cell_angle_beta   129.72369965
_cell_angle_gamma   90.00000000
_symmetry_Int_Tables_number   1
_chemical_formula_structural   Cs3Ni
_chemical_formula_sum   'Cs81 Ni27'
_cell_volume   18063.49185988
_cell_formula_units_Z   27
loop_
 _symmetry_equiv_pos_site_id
 _symmetry_equiv_pos_as_xyz
  1  'x, y, z'
loop_
 _atom_site_type_symbol
 _atom_site_label
 _atom_site_symmetry_multiplicity
 _atom_site_fract_x
 _atom_site_fract_y
 _atom_site_fract_z
 _atom_site_occupancy
  Cs  Cs0  1  0.16666667  0.25000000  0.06250000  1.0
  Cs  Cs1  1  0.16666667  0.58333333  0.06250000  1.0
  Cs  Cs2  1  0.16666667  0.91666667  0.06250000  1.0
  Cs  Cs3  1  0.50000000  0.25000000  0.06250000  1.0
  Cs  Cs4  1  0.50000000  0.58333333  0.06250000  1.0
  Cs  Cs5  1  0.50000000  0.91666667  0.06250000  1.0
  Cs  Cs6  1  0.83333333  0.25000000  0.06250000  1.0
  Cs  Cs7  1  0.83333333  0.58333333  0.06250000  1.0
  Cs  Cs8  1  0.83333333  0.91666667  0.06250000  1.0
  Cs  Cs9  1  0.16666667  0.08333333  0.06250000  1.0
  Cs  Cs10  1  0.16666667  0.41666667  0.06250000  1.0
  Cs  Cs11  1  0.16666667  0.75000000  0.06250000  1.0
  Cs  Cs12  1  0.50000000  0.08333333  0.06250000  1.0
  Cs  Cs13  1  0.50000000  0.41666667  0.06250000  1.0
  Cs  Cs14  1  0.50000000  0.75000000  0.06250000  1.0
  Cs  Cs15  1  0.83333333  0.08333333  0.06250000  1.0
  Cs  Cs16  1  0.83333333  0.41666667  0.06250000  1.0
  Cs  Cs17  1  0.83333333  0.75000000  0.06250000  1.0
  Cs  Cs18  1  0.00000000  0.16666667  0.06250000  1.0
  Cs  Cs19  1  0.00000000  0.50000000  0.06250000  1.0
  Cs  Cs20  1  0.00000000  0.83333333  0.06250000  1.0
  Cs  Cs21  1  0.33333333  0.16666667  0.06250000  1.0
  Cs  Cs22  1  0.33333333  0.50000000  0.06250000  1.0
  Cs  Cs23  1  0.33333333  0.83333333  0.06250000  1.0
  Cs  Cs24  1  0.66666667  0.16666667  0.06250000  1.0
  Cs  Cs25  1  0.66666667  0.50000000  0.06250000  1.0
  Cs  Cs26  1  0.66666667  0.83333333  0.06250000  1.0
  Ni  Ni27  1  0.00000000  0.00000000  0.06250000  1.0
  Ni  Ni28  1  0.00000000  0.33333333  0.06250000  1.0
  Ni  Ni29  1  1.00000000  0.66666667  0.06250000  1.0
  Ni  Ni30  1  0.33333333  0.00000000  0.06250000  1.0
  Ni  Ni31  1  0.33333333  0.33333333  0.06250000  1.0
  Ni  Ni32  1  0.33333333  0.66666667  0.06250000  1.0
  Ni  Ni33  1  0.66666667  0.00000000  0.06250000  1.0
  Ni  Ni34  1  0.66666667  0.33333333  0.06250000  1.0
  Ni  Ni35  1  0.66666667  0.66666667  0.06250000  1.0
  Cs  Cs36  1  0.16666667  0.25000000  0.18750000  1.0
  Cs  Cs37  1  0.16666667  0.58333333  0.18750000  1.0
  Cs  Cs38  1  0.16666667  0.91666667  0.18750000  1.0
  Cs  Cs39  1  0.50000000  0.25000000  0.18750000  1.0
  Cs  Cs40  1  0.50000000  0.58333333  0.18750000  1.0
  Cs  Cs41  1  0.50000000  0.91666667  0.18750000  1.0
  Cs  Cs42  1  0.83333333  0.25000000  0.18750000  1.0
  Cs  Cs43  1  0.83333333  0.58333333  0.18750000  1.0
  Cs  Cs44  1  0.83333333  0.91666667  0.18750000  1.0
  Cs  Cs45  1  0.16666667  0.08333333  0.18750000  1.0
  Cs  Cs46  1  0.16666667  0.41666667  0.18750000  1.0
  Cs  Cs47  1  0.16666667  0.75000000  0.18750000  1.0
  Cs  Cs48  1  0.50000000  0.08333333  0.18750000  1.0
  Cs  Cs49  1  0.50000000  0.41666667  0.18750000  1.0
  Cs  Cs50  1  0.50000000  0.75000000  0.18750000  1.0
  Cs  Cs51  1  0.83333333  0.08333333  0.18750000  1.0
  Cs  Cs52  1  0.83333333  0.41666667  0.18750000  1.0
  Cs  Cs53  1  0.83333333  0.75000000  0.18750000  1.0
  Cs  Cs54  1  0.00000000  0.16666667  0.18750000  1.0
  Cs  Cs55  1  0.00000000  0.50000000  0.18750000  1.0
  Cs  Cs56  1  0.00000000  0.83333333  0.18750000  1.0
  Cs  Cs57  1  0.33333333  0.16666667  0.18750000  1.0
  Cs  Cs58  1  0.33333333  0.50000000  0.18750000  1.0
  Cs  Cs59  1  0.33333333  0.83333333  0.18750000  1.0
  Cs  Cs60  1  0.66666667  0.16666667  0.18750000  1.0
  Cs  Cs61  1  0.66666667  0.50000000  0.18750000  1.0
  Cs  Cs62  1  0.66666667  0.83333333  0.18750000  1.0
  Ni  Ni63  1  0.00000000  0.00000000  0.18750000  1.0
  Ni  Ni64  1  0.00000000  0.33333333  0.18750000  1.0
  Ni  Ni65  1  1.00000000  0.66666667  0.18750000  1.0
  Ni  Ni66  1  0.33333333  0.00000000  0.18750000  1.0
  Ni  Ni67  1  0.33333333  0.33333333  0.18750000  1.0
  Ni  Ni68  1  0.33333333  0.66666667  0.18750000  1.0
  Ni  Ni69  1  0.66666667  0.00000000  0.18750000  1.0
  Ni  Ni70  1  0.66666667  0.33333333  0.18750000  1.0
  Ni  Ni71  1  0.66666667  0.66666667  0.18750000  1.0
  Cs  Cs72  1  0.16666667  0.25000000  0.31250000  1.0
  Cs  Cs73  1  0.16666667  0.58333333  0.31250000  1.0
  Cs  Cs74  1  0.16666667  0.91666667  0.31250000  1.0
  Cs  Cs75  1  0.50000000  0.25000000  0.31250000  1.0
  Cs  Cs76  1  0.50000000  0.58333333  0.31250000  1.0
  Cs  Cs77  1  0.50000000  0.91666667  0.31250000  1.0
  Cs  Cs78  1  0.83333333  0.25000000  0.31250000  1.0
  Cs  Cs79  1  0.83333333  0.58333333  0.31250000  1.0
  Cs  Cs80  1  0.83333333  0.91666667  0.31250000  1.0
  Cs  Cs81  1  0.16666667  0.08333333  0.31250000  1.0
  Cs  Cs82  1  0.16666667  0.41666667  0.31250000  1.0
  Cs  Cs83  1  0.16666667  0.75000000  0.31250000  1.0
  Cs  Cs84  1  0.50000000  0.08333333  0.31250000  1.0
  Cs  Cs85  1  0.50000000  0.41666667  0.31250000  1.0
  Cs  Cs86  1  0.50000000  0.75000000  0.31250000  1.0
  Cs  Cs87  1  0.83333333  0.08333333  0.31250000  1.0
  Cs  Cs88  1  0.83333333  0.41666667  0.31250000  1.0
  Cs  Cs89  1  0.83333333  0.75000000  0.31250000  1.0
  Cs  Cs90  1  0.00000000  0.16666667  0.31250000  1.0
  Cs  Cs91  1  0.00000000  0.50000000  0.31250000  1.0
  Cs  Cs92  1  0.00000000  0.83333333  0.31250000  1.0
  Cs  Cs93  1  0.33333333  0.16666667  0.31250000  1.0
  Cs  Cs94  1  0.33333333  0.50000000  0.31250000  1.0
  Cs  Cs95  1  0.33333333  0.83333333  0.31250000  1.0
  Cs  Cs96  1  0.66666667  0.16666667  0.31250000  1.0
  Cs  Cs97  1  0.66666667  0.50000000  0.31250000  1.0
  Cs  Cs98  1  0.66666667  0.83333333  0.31250000  1.0
  Ni  Ni99  1  0.00000000  0.00000000  0.31250000  1.0
  Ni  Ni100  1  0.00000000  0.33333333  0.31250000  1.0
  Ni  Ni101  1  1.00000000  0.66666667  0.31250000  1.0
  Ni  Ni102  1  0.33333333  0.00000000  0.31250000  1.0
  Ni  Ni103  1  0.33333333  0.33333333  0.31250000  1.0
  Ni  Ni104  1  0.33333333  0.66666667  0.31250000  1.0
  Ni  Ni105  1  0.66666667  0.00000000  0.31250000  1.0
  Ni  Ni106  1  0.66666667  0.33333333  0.31250000  1.0
  Ni  Ni107  1  0.66666667  0.66666667  0.31250000  1.0
