# generated using pymatgen
data_Cu3Ni
_symmetry_space_group_name_H-M   'P 1'
_cell_length_a   12.11008798
_cell_length_b   49.12494592
_cell_length_c   46.75444969
_cell_angle_alpha   87.02386027
_cell_angle_beta   34.89386883
_cell_angle_gamma   82.91982976
_symmetry_Int_Tables_number   1
_chemical_formula_structural   Cu3Ni
_chemical_formula_sum   'Cu432 Ni144'
_cell_volume   15730.86031432
_cell_formula_units_Z   144
loop_
 _symmetry_equiv_pos_site_id
 _symmetry_equiv_pos_as_xyz
  1  'x, y, z'
loop_
 _atom_site_type_symbol
 _atom_site_label
 _atom_site_symmetry_multiplicity
 _atom_site_fract_x
 _atom_site_fract_y
 _atom_site_fract_z
 _atom_site_occupancy
  Cu  Cu0  1  0.20748583  0.29251417  0.04296388  1.0
  Cu  Cu1  1  0.20748583  0.62584750  0.04296388  1.0
  Cu  Cu2  1  0.20748583  0.95918083  0.04296388  1.0
  Cu  Cu3  1  0.54081917  0.29251417  0.04296388  1.0
  Cu  Cu4  1  0.54081917  0.62584750  0.04296388  1.0
  Cu  Cu5  1  0.54081917  0.95918083  0.04296388  1.0
  Cu  Cu6  1  0.87415250  0.29251417  0.04296388  1.0
  Cu  Cu7  1  0.87415250  0.62584750  0.04296388  1.0
  Cu  Cu8  1  0.87415250  0.95918083  0.04296388  1.0
  Cu  Cu9  1  0.04081917  0.12584750  0.01664809  1.0
  Cu  Cu10  1  0.04081917  0.45918083  0.01664809  1.0
  Cu  Cu11  1  0.04081917  0.79251417  0.01664809  1.0
  Cu  Cu12  1  0.37415250  0.12584750  0.01664809  1.0
  Cu  Cu13  1  0.37415250  0.45918083  0.01664809  1.0
  Cu  Cu14  1  0.37415250  0.79251417  0.01664809  1.0
  Cu  Cu15  1  0.70748583  0.12584750  0.01664809  1.0
  Cu  Cu16  1  0.70748583  0.45918083  0.01664809  1.0
  Cu  Cu17  1  0.70748583  0.79251417  0.01664809  1.0
  Cu  Cu18  1  0.08333333  0.25000000  0.03625112  1.0
  Cu  Cu19  1  0.08333333  0.58333333  0.03625112  1.0
  Cu  Cu20  1  0.08333333  0.91666667  0.03625112  1.0
  Cu  Cu21  1  0.41666667  0.25000000  0.03625112  1.0
  Cu  Cu22  1  0.41666667  0.58333333  0.03625112  1.0
  Cu  Cu23  1  0.41666667  0.91666667  0.03625112  1.0
  Cu  Cu24  1  0.75000000  0.25000000  0.03625112  1.0
  Cu  Cu25  1  0.75000000  0.58333333  0.03625112  1.0
  Cu  Cu26  1  0.75000000  0.91666667  0.03625112  1.0
  Cu  Cu27  1  0.25000000  0.08333333  0.00993533  1.0
  Cu  Cu28  1  0.25000000  0.41666667  0.00993533  1.0
  Cu  Cu29  1  0.25000000  0.75000000  0.00993533  1.0
  Cu  Cu30  1  0.58333333  0.08333333  0.00993533  1.0
  Cu  Cu31  1  0.58333333  0.41666667  0.00993533  1.0
  Cu  Cu32  1  0.58333333  0.75000000  0.00993533  1.0
  Cu  Cu33  1  0.91666667  0.08333333  0.00993533  1.0
  Cu  Cu34  1  0.91666667  0.41666667  0.00993533  1.0
  Cu  Cu35  1  0.91666667  0.75000000  0.00993533  1.0
  Cu  Cu36  1  0.29251417  0.20748583  0.02953836  1.0
  Cu  Cu37  1  0.29251417  0.54081917  0.02953836  1.0
  Cu  Cu38  1  0.29251417  0.87415250  0.02953836  1.0
  Cu  Cu39  1  0.62584750  0.20748583  0.02953836  1.0
  Cu  Cu40  1  0.62584750  0.54081917  0.02953836  1.0
  Cu  Cu41  1  0.62584750  0.87415250  0.02953836  1.0
  Cu  Cu42  1  0.95918083  0.20748583  0.02953836  1.0
  Cu  Cu43  1  0.95918083  0.54081917  0.02953836  1.0
  Cu  Cu44  1  0.95918083  0.87415250  0.02953836  1.0
  Cu  Cu45  1  0.12584750  0.04081917  0.00322257  1.0
  Cu  Cu46  1  0.12584750  0.37415250  0.00322257  1.0
  Cu  Cu47  1  0.12584750  0.70748583  0.00322257  1.0
  Cu  Cu48  1  0.45918083  0.04081917  0.00322257  1.0
  Cu  Cu49  1  0.45918083  0.37415250  0.00322257  1.0
  Cu  Cu50  1  0.45918083  0.70748583  0.00322257  1.0
  Cu  Cu51  1  0.79251417  0.04081917  0.00322257  1.0
  Cu  Cu52  1  0.79251417  0.37415250  0.00322257  1.0
  Cu  Cu53  1  0.79251417  0.70748583  0.00322257  1.0
  Ni  Ni54  1  0.16666667  0.16666667  0.02309322  1.0
  Ni  Ni55  1  0.16666667  0.50000000  0.02309322  1.0
  Ni  Ni56  1  0.16666667  0.83333333  0.02309322  1.0
  Ni  Ni57  1  0.50000000  0.16666667  0.02309322  1.0
  Ni  Ni58  1  0.50000000  0.50000000  0.02309322  1.0
  Ni  Ni59  1  0.50000000  0.83333333  0.02309322  1.0
  Ni  Ni60  1  0.83333333  0.16666667  0.02309322  1.0
  Ni  Ni61  1  0.83333333  0.50000000  0.02309322  1.0
  Ni  Ni62  1  0.83333333  0.83333333  0.02309322  1.0
  Ni  Ni63  1  0.00000000  0.00000000  0.04940901  1.0
  Ni  Ni64  1  0.00000000  0.33333333  0.04940901  1.0
  Ni  Ni65  1  0.00000000  0.66666667  0.04940901  1.0
  Ni  Ni66  1  0.33333333  0.00000000  0.04940901  1.0
  Ni  Ni67  1  0.33333333  0.33333333  0.04940901  1.0
  Ni  Ni68  1  0.33333333  0.66666667  0.04940901  1.0
  Ni  Ni69  1  0.66666667  0.00000000  0.04940901  1.0
  Ni  Ni70  1  0.66666667  0.33333333  0.04940901  1.0
  Ni  Ni71  1  0.66666667  0.66666667  0.04940901  1.0
  Cu  Cu72  1  0.20748583  0.29251417  0.09559546  1.0
  Cu  Cu73  1  0.20748583  0.62584750  0.09559546  1.0
  Cu  Cu74  1  0.20748583  0.95918083  0.09559546  1.0
  Cu  Cu75  1  0.54081917  0.29251417  0.09559546  1.0
  Cu  Cu76  1  0.54081917  0.62584750  0.09559546  1.0
  Cu  Cu77  1  0.54081917  0.95918083  0.09559546  1.0
  Cu  Cu78  1  0.87415250  0.29251417  0.09559546  1.0
  Cu  Cu79  1  0.87415250  0.62584750  0.09559546  1.0
  Cu  Cu80  1  0.87415250  0.95918083  0.09559546  1.0
  Cu  Cu81  1  0.04081917  0.12584750  0.06927967  1.0
  Cu  Cu82  1  0.04081917  0.45918083  0.06927967  1.0
  Cu  Cu83  1  0.04081917  0.79251417  0.06927967  1.0
  Cu  Cu84  1  0.37415250  0.12584750  0.06927967  1.0
  Cu  Cu85  1  0.37415250  0.45918083  0.06927967  1.0
  Cu  Cu86  1  0.37415250  0.79251417  0.06927967  1.0
  Cu  Cu87  1  0.70748583  0.12584750  0.06927967  1.0
  Cu  Cu88  1  0.70748583  0.45918083  0.06927967  1.0
  Cu  Cu89  1  0.70748583  0.79251417  0.06927967  1.0
  Cu  Cu90  1  0.08333333  0.25000000  0.08888270  1.0
  Cu  Cu91  1  0.08333333  0.58333333  0.08888270  1.0
  Cu  Cu92  1  0.08333333  0.91666667  0.08888270  1.0
  Cu  Cu93  1  0.41666667  0.25000000  0.08888270  1.0
  Cu  Cu94  1  0.41666667  0.58333333  0.08888270  1.0
  Cu  Cu95  1  0.41666667  0.91666667  0.08888270  1.0
  Cu  Cu96  1  0.75000000  0.25000000  0.08888270  1.0
  Cu  Cu97  1  0.75000000  0.58333333  0.08888270  1.0
  Cu  Cu98  1  0.75000000  0.91666667  0.08888270  1.0
  Cu  Cu99  1  0.25000000  0.08333333  0.06256691  1.0
  Cu  Cu100  1  0.25000000  0.41666667  0.06256691  1.0
  Cu  Cu101  1  0.25000000  0.75000000  0.06256691  1.0
  Cu  Cu102  1  0.58333333  0.08333333  0.06256691  1.0
  Cu  Cu103  1  0.58333333  0.41666667  0.06256691  1.0
  Cu  Cu104  1  0.58333333  0.75000000  0.06256691  1.0
  Cu  Cu105  1  0.91666667  0.08333333  0.06256691  1.0
  Cu  Cu106  1  0.91666667  0.41666667  0.06256691  1.0
  Cu  Cu107  1  0.91666667  0.75000000  0.06256691  1.0
  Cu  Cu108  1  0.29251417  0.20748583  0.08216993  1.0
  Cu  Cu109  1  0.29251417  0.54081917  0.08216993  1.0
  Cu  Cu110  1  0.29251417  0.87415250  0.08216993  1.0
  Cu  Cu111  1  0.62584750  0.20748583  0.08216993  1.0
  Cu  Cu112  1  0.62584750  0.54081917  0.08216993  1.0
  Cu  Cu113  1  0.62584750  0.87415250  0.08216993  1.0
  Cu  Cu114  1  0.95918083  0.20748583  0.08216993  1.0
  Cu  Cu115  1  0.95918083  0.54081917  0.08216993  1.0
  Cu  Cu116  1  0.95918083  0.87415250  0.08216993  1.0
  Cu  Cu117  1  0.12584750  0.04081917  0.05585414  1.0
  Cu  Cu118  1  0.12584750  0.37415250  0.05585414  1.0
  Cu  Cu119  1  0.12584750  0.70748583  0.05585414  1.0
  Cu  Cu120  1  0.45918083  0.04081917  0.05585414  1.0
  Cu  Cu121  1  0.45918083  0.37415250  0.05585414  1.0
  Cu  Cu122  1  0.45918083  0.70748583  0.05585414  1.0
  Cu  Cu123  1  0.79251417  0.04081917  0.05585414  1.0
  Cu  Cu124  1  0.79251417  0.37415250  0.05585414  1.0
  Cu  Cu125  1  0.79251417  0.70748583  0.05585414  1.0
  Ni  Ni126  1  0.16666667  0.16666667  0.07572480  1.0
  Ni  Ni127  1  0.16666667  0.50000000  0.07572480  1.0
  Ni  Ni128  1  0.16666667  0.83333333  0.07572480  1.0
  Ni  Ni129  1  0.50000000  0.16666667  0.07572480  1.0
  Ni  Ni130  1  0.50000000  0.50000000  0.07572480  1.0
  Ni  Ni131  1  0.50000000  0.83333333  0.07572480  1.0
  Ni  Ni132  1  0.83333333  0.16666667  0.07572480  1.0
  Ni  Ni133  1  0.83333333  0.50000000  0.07572480  1.0
  Ni  Ni134  1  0.83333333  0.83333333  0.07572480  1.0
  Ni  Ni135  1  0.00000000  0.00000000  0.10204059  1.0
  Ni  Ni136  1  0.00000000  0.33333333  0.10204059  1.0
  Ni  Ni137  1  0.00000000  0.66666667  0.10204059  1.0
  Ni  Ni138  1  0.33333333  0.00000000  0.10204059  1.0
  Ni  Ni139  1  0.33333333  0.33333333  0.10204059  1.0
  Ni  Ni140  1  0.33333333  0.66666667  0.10204059  1.0
  Ni  Ni141  1  0.66666667  0.00000000  0.10204059  1.0
  Ni  Ni142  1  0.66666667  0.33333333  0.10204059  1.0
  Ni  Ni143  1  0.66666667  0.66666667  0.10204059  1.0
  Cu  Cu144  1  0.20748583  0.29251417  0.14822704  1.0
  Cu  Cu145  1  0.20748583  0.62584750  0.14822704  1.0
  Cu  Cu146  1  0.20748583  0.95918083  0.14822704  1.0
  Cu  Cu147  1  0.54081917  0.29251417  0.14822704  1.0
  Cu  Cu148  1  0.54081917  0.62584750  0.14822704  1.0
  Cu  Cu149  1  0.54081917  0.95918083  0.14822704  1.0
  Cu  Cu150  1  0.87415250  0.29251417  0.14822704  1.0
  Cu  Cu151  1  0.87415250  0.62584750  0.14822704  1.0
  Cu  Cu152  1  0.87415250  0.95918083  0.14822704  1.0
  Cu  Cu153  1  0.04081917  0.12584750  0.12191125  1.0
  Cu  Cu154  1  0.04081917  0.45918083  0.12191125  1.0
  Cu  Cu155  1  0.04081917  0.79251417  0.12191125  1.0
  Cu  Cu156  1  0.37415250  0.12584750  0.12191125  1.0
  Cu  Cu157  1  0.37415250  0.45918083  0.12191125  1.0
  Cu  Cu158  1  0.37415250  0.79251417  0.12191125  1.0
  Cu  Cu159  1  0.70748583  0.12584750  0.12191125  1.0
  Cu  Cu160  1  0.70748583  0.45918083  0.12191125  1.0
  Cu  Cu161  1  0.70748583  0.79251417  0.12191125  1.0
  Cu  Cu162  1  0.08333333  0.25000000  0.14151428  1.0
  Cu  Cu163  1  0.08333333  0.58333333  0.14151428  1.0
  Cu  Cu164  1  0.08333333  0.91666667  0.14151428  1.0
  Cu  Cu165  1  0.41666667  0.25000000  0.14151428  1.0
  Cu  Cu166  1  0.41666667  0.58333333  0.14151428  1.0
  Cu  Cu167  1  0.41666667  0.91666667  0.14151428  1.0
  Cu  Cu168  1  0.75000000  0.25000000  0.14151428  1.0
  Cu  Cu169  1  0.75000000  0.58333333  0.14151428  1.0
  Cu  Cu170  1  0.75000000  0.91666667  0.14151428  1.0
  Cu  Cu171  1  0.25000000  0.08333333  0.11519849  1.0
  Cu  Cu172  1  0.25000000  0.41666667  0.11519849  1.0
  Cu  Cu173  1  0.25000000  0.75000000  0.11519849  1.0
  Cu  Cu174  1  0.58333333  0.08333333  0.11519849  1.0
  Cu  Cu175  1  0.58333333  0.41666667  0.11519849  1.0
  Cu  Cu176  1  0.58333333  0.75000000  0.11519849  1.0
  Cu  Cu177  1  0.91666667  0.08333333  0.11519849  1.0
  Cu  Cu178  1  0.91666667  0.41666667  0.11519849  1.0
  Cu  Cu179  1  0.91666667  0.75000000  0.11519849  1.0
  Cu  Cu180  1  0.29251417  0.20748583  0.13480151  1.0
  Cu  Cu181  1  0.29251417  0.54081917  0.13480151  1.0
  Cu  Cu182  1  0.29251417  0.87415250  0.13480151  1.0
  Cu  Cu183  1  0.62584750  0.20748583  0.13480151  1.0
  Cu  Cu184  1  0.62584750  0.54081917  0.13480151  1.0
  Cu  Cu185  1  0.62584750  0.87415250  0.13480151  1.0
  Cu  Cu186  1  0.95918083  0.20748583  0.13480151  1.0
  Cu  Cu187  1  0.95918083  0.54081917  0.13480151  1.0
  Cu  Cu188  1  0.95918083  0.87415250  0.13480151  1.0
  Cu  Cu189  1  0.12584750  0.04081917  0.10848572  1.0
  Cu  Cu190  1  0.12584750  0.37415250  0.10848572  1.0
  Cu  Cu191  1  0.12584750  0.70748583  0.10848572  1.0
  Cu  Cu192  1  0.45918083  0.04081917  0.10848572  1.0
  Cu  Cu193  1  0.45918083  0.37415250  0.10848572  1.0
  Cu  Cu194  1  0.45918083  0.70748583  0.10848572  1.0
  Cu  Cu195  1  0.79251417  0.04081917  0.10848572  1.0
  Cu  Cu196  1  0.79251417  0.37415250  0.10848572  1.0
  Cu  Cu197  1  0.79251417  0.70748583  0.10848572  1.0
  Ni  Ni198  1  0.16666667  0.16666667  0.12835638  1.0
  Ni  Ni199  1  0.16666667  0.50000000  0.12835638  1.0
  Ni  Ni200  1  0.16666667  0.83333333  0.12835638  1.0
  Ni  Ni201  1  0.50000000  0.16666667  0.12835638  1.0
  Ni  Ni202  1  0.50000000  0.50000000  0.12835638  1.0
  Ni  Ni203  1  0.50000000  0.83333333  0.12835638  1.0
  Ni  Ni204  1  0.83333333  0.16666667  0.12835638  1.0
  Ni  Ni205  1  0.83333333  0.50000000  0.12835638  1.0
  Ni  Ni206  1  0.83333333  0.83333333  0.12835638  1.0
  Ni  Ni207  1  0.00000000  0.00000000  0.15467217  1.0
  Ni  Ni208  1  0.00000000  0.33333333  0.15467217  1.0
  Ni  Ni209  1  0.00000000  0.66666667  0.15467217  1.0
  Ni  Ni210  1  0.33333333  0.00000000  0.15467217  1.0
  Ni  Ni211  1  0.33333333  0.33333333  0.15467217  1.0
  Ni  Ni212  1  0.33333333  0.66666667  0.15467217  1.0
  Ni  Ni213  1  0.66666667  0.00000000  0.15467217  1.0
  Ni  Ni214  1  0.66666667  0.33333333  0.15467217  1.0
  Ni  Ni215  1  0.66666667  0.66666667  0.15467217  1.0
  Cu  Cu216  1  0.20748583  0.29251417  0.20085862  1.0
  Cu  Cu217  1  0.20748583  0.62584750  0.20085862  1.0
  Cu  Cu218  1  0.20748583  0.95918083  0.20085862  1.0
  Cu  Cu219  1  0.54081917  0.29251417  0.20085862  1.0
  Cu  Cu220  1  0.54081917  0.62584750  0.20085862  1.0
  Cu  Cu221  1  0.54081917  0.95918083  0.20085862  1.0
  Cu  Cu222  1  0.87415250  0.29251417  0.20085862  1.0
  Cu  Cu223  1  0.87415250  0.62584750  0.20085862  1.0
  Cu  Cu224  1  0.87415250  0.95918083  0.20085862  1.0
  Cu  Cu225  1  0.04081917  0.12584750  0.17454283  1.0
  Cu  Cu226  1  0.04081917  0.45918083  0.17454283  1.0
  Cu  Cu227  1  0.04081917  0.79251417  0.17454283  1.0
  Cu  Cu228  1  0.37415250  0.12584750  0.17454283  1.0
  Cu  Cu229  1  0.37415250  0.45918083  0.17454283  1.0
  Cu  Cu230  1  0.37415250  0.79251417  0.17454283  1.0
  Cu  Cu231  1  0.70748583  0.12584750  0.17454283  1.0
  Cu  Cu232  1  0.70748583  0.45918083  0.17454283  1.0
  Cu  Cu233  1  0.70748583  0.79251417  0.17454283  1.0
  Cu  Cu234  1  0.08333333  0.25000000  0.19414586  1.0
  Cu  Cu235  1  0.08333333  0.58333333  0.19414586  1.0
  Cu  Cu236  1  0.08333333  0.91666667  0.19414586  1.0
  Cu  Cu237  1  0.41666667  0.25000000  0.19414586  1.0
  Cu  Cu238  1  0.41666667  0.58333333  0.19414586  1.0
  Cu  Cu239  1  0.41666667  0.91666667  0.19414586  1.0
  Cu  Cu240  1  0.75000000  0.25000000  0.19414586  1.0
  Cu  Cu241  1  0.75000000  0.58333333  0.19414586  1.0
  Cu  Cu242  1  0.75000000  0.91666667  0.19414586  1.0
  Cu  Cu243  1  0.25000000  0.08333333  0.16783007  1.0
  Cu  Cu244  1  0.25000000  0.41666667  0.16783007  1.0
  Cu  Cu245  1  0.25000000  0.75000000  0.16783007  1.0
  Cu  Cu246  1  0.58333333  0.08333333  0.16783007  1.0
  Cu  Cu247  1  0.58333333  0.41666667  0.16783007  1.0
  Cu  Cu248  1  0.58333333  0.75000000  0.16783007  1.0
  Cu  Cu249  1  0.91666667  0.08333333  0.16783007  1.0
  Cu  Cu250  1  0.91666667  0.41666667  0.16783007  1.0
  Cu  Cu251  1  0.91666667  0.75000000  0.16783007  1.0
  Cu  Cu252  1  0.29251417  0.20748583  0.18743309  1.0
  Cu  Cu253  1  0.29251417  0.54081917  0.18743309  1.0
  Cu  Cu254  1  0.29251417  0.87415250  0.18743309  1.0
  Cu  Cu255  1  0.62584750  0.20748583  0.18743309  1.0
  Cu  Cu256  1  0.62584750  0.54081917  0.18743309  1.0
  Cu  Cu257  1  0.62584750  0.87415250  0.18743309  1.0
  Cu  Cu258  1  0.95918083  0.20748583  0.18743309  1.0
  Cu  Cu259  1  0.95918083  0.54081917  0.18743309  1.0
  Cu  Cu260  1  0.95918083  0.87415250  0.18743309  1.0
  Cu  Cu261  1  0.12584750  0.04081917  0.16111730  1.0
  Cu  Cu262  1  0.12584750  0.37415250  0.16111730  1.0
  Cu  Cu263  1  0.12584750  0.70748583  0.16111730  1.0
  Cu  Cu264  1  0.45918083  0.04081917  0.16111730  1.0
  Cu  Cu265  1  0.45918083  0.37415250  0.16111730  1.0
  Cu  Cu266  1  0.45918083  0.70748583  0.16111730  1.0
  Cu  Cu267  1  0.79251417  0.04081917  0.16111730  1.0
  Cu  Cu268  1  0.79251417  0.37415250  0.16111730  1.0
  Cu  Cu269  1  0.79251417  0.70748583  0.16111730  1.0
  Ni  Ni270  1  0.16666667  0.16666667  0.18098796  1.0
  Ni  Ni271  1  0.16666667  0.50000000  0.18098796  1.0
  Ni  Ni272  1  0.16666667  0.83333333  0.18098796  1.0
  Ni  Ni273  1  0.50000000  0.16666667  0.18098796  1.0
  Ni  Ni274  1  0.50000000  0.50000000  0.18098796  1.0
  Ni  Ni275  1  0.50000000  0.83333333  0.18098796  1.0
  Ni  Ni276  1  0.83333333  0.16666667  0.18098796  1.0
  Ni  Ni277  1  0.83333333  0.50000000  0.18098796  1.0
  Ni  Ni278  1  0.83333333  0.83333333  0.18098796  1.0
  Ni  Ni279  1  0.00000000  0.00000000  0.20730375  1.0
  Ni  Ni280  1  0.00000000  0.33333333  0.20730375  1.0
  Ni  Ni281  1  0.00000000  0.66666667  0.20730375  1.0
  Ni  Ni282  1  0.33333333  0.00000000  0.20730375  1.0
  Ni  Ni283  1  0.33333333  0.33333333  0.20730375  1.0
  Ni  Ni284  1  0.33333333  0.66666667  0.20730375  1.0
  Ni  Ni285  1  0.66666667  0.00000000  0.20730375  1.0
  Ni  Ni286  1  0.66666667  0.33333333  0.20730375  1.0
  Ni  Ni287  1  0.66666667  0.66666667  0.20730375  1.0
  Cu  Cu288  1  0.20748583  0.29251417  0.25349020  1.0
  Cu  Cu289  1  0.20748583  0.62584750  0.25349020  1.0
  Cu  Cu290  1  0.20748583  0.95918083  0.25349020  1.0
  Cu  Cu291  1  0.54081917  0.29251417  0.25349020  1.0
  Cu  Cu292  1  0.54081917  0.62584750  0.25349020  1.0
  Cu  Cu293  1  0.54081917  0.95918083  0.25349020  1.0
  Cu  Cu294  1  0.87415250  0.29251417  0.25349020  1.0
  Cu  Cu295  1  0.87415250  0.62584750  0.25349020  1.0
  Cu  Cu296  1  0.87415250  0.95918083  0.25349020  1.0
  Cu  Cu297  1  0.04081917  0.12584750  0.22717441  1.0
  Cu  Cu298  1  0.04081917  0.45918083  0.22717441  1.0
  Cu  Cu299  1  0.04081917  0.79251417  0.22717441  1.0
  Cu  Cu300  1  0.37415250  0.12584750  0.22717441  1.0
  Cu  Cu301  1  0.37415250  0.45918083  0.22717441  1.0
  Cu  Cu302  1  0.37415250  0.79251417  0.22717441  1.0
  Cu  Cu303  1  0.70748583  0.12584750  0.22717441  1.0
  Cu  Cu304  1  0.70748583  0.45918083  0.22717441  1.0
  Cu  Cu305  1  0.70748583  0.79251417  0.22717441  1.0
  Cu  Cu306  1  0.08333333  0.25000000  0.24677743  1.0
  Cu  Cu307  1  0.08333333  0.58333333  0.24677743  1.0
  Cu  Cu308  1  0.08333333  0.91666667  0.24677743  1.0
  Cu  Cu309  1  0.41666667  0.25000000  0.24677743  1.0
  Cu  Cu310  1  0.41666667  0.58333333  0.24677743  1.0
  Cu  Cu311  1  0.41666667  0.91666667  0.24677743  1.0
  Cu  Cu312  1  0.75000000  0.25000000  0.24677743  1.0
  Cu  Cu313  1  0.75000000  0.58333333  0.24677743  1.0
  Cu  Cu314  1  0.75000000  0.91666667  0.24677743  1.0
  Cu  Cu315  1  0.25000000  0.08333333  0.22046164  1.0
  Cu  Cu316  1  0.25000000  0.41666667  0.22046164  1.0
  Cu  Cu317  1  0.25000000  0.75000000  0.22046164  1.0
  Cu  Cu318  1  0.58333333  0.08333333  0.22046164  1.0
  Cu  Cu319  1  0.58333333  0.41666667  0.22046164  1.0
  Cu  Cu320  1  0.58333333  0.75000000  0.22046164  1.0
  Cu  Cu321  1  0.91666667  0.08333333  0.22046164  1.0
  Cu  Cu322  1  0.91666667  0.41666667  0.22046164  1.0
  Cu  Cu323  1  0.91666667  0.75000000  0.22046164  1.0
  Cu  Cu324  1  0.29251417  0.20748583  0.24006467  1.0
  Cu  Cu325  1  0.29251417  0.54081917  0.24006467  1.0
  Cu  Cu326  1  0.29251417  0.87415250  0.24006467  1.0
  Cu  Cu327  1  0.62584750  0.20748583  0.24006467  1.0
  Cu  Cu328  1  0.62584750  0.54081917  0.24006467  1.0
  Cu  Cu329  1  0.62584750  0.87415250  0.24006467  1.0
  Cu  Cu330  1  0.95918083  0.20748583  0.24006467  1.0
  Cu  Cu331  1  0.95918083  0.54081917  0.24006467  1.0
  Cu  Cu332  1  0.95918083  0.87415250  0.24006467  1.0
  Cu  Cu333  1  0.12584750  0.04081917  0.21374888  1.0
  Cu  Cu334  1  0.12584750  0.37415250  0.21374888  1.0
  Cu  Cu335  1  0.12584750  0.70748583  0.21374888  1.0
  Cu  Cu336  1  0.45918083  0.04081917  0.21374888  1.0
  Cu  Cu337  1  0.45918083  0.37415250  0.21374888  1.0
  Cu  Cu338  1  0.45918083  0.70748583  0.21374888  1.0
  Cu  Cu339  1  0.79251417  0.04081917  0.21374888  1.0
  Cu  Cu340  1  0.79251417  0.37415250  0.21374888  1.0
  Cu  Cu341  1  0.79251417  0.70748583  0.21374888  1.0
  Ni  Ni342  1  0.16666667  0.16666667  0.23361954  1.0
  Ni  Ni343  1  0.16666667  0.50000000  0.23361954  1.0
  Ni  Ni344  1  0.16666667  0.83333333  0.23361954  1.0
  Ni  Ni345  1  0.50000000  0.16666667  0.23361954  1.0
  Ni  Ni346  1  0.50000000  0.50000000  0.23361954  1.0
  Ni  Ni347  1  0.50000000  0.83333333  0.23361954  1.0
  Ni  Ni348  1  0.83333333  0.16666667  0.23361954  1.0
  Ni  Ni349  1  0.83333333  0.50000000  0.23361954  1.0
  Ni  Ni350  1  0.83333333  0.83333333  0.23361954  1.0
  Ni  Ni351  1  0.00000000  0.00000000  0.25993533  1.0
  Ni  Ni352  1  0.00000000  0.33333333  0.25993533  1.0
  Ni  Ni353  1  0.00000000  0.66666667  0.25993533  1.0
  Ni  Ni354  1  0.33333333  0.00000000  0.25993533  1.0
  Ni  Ni355  1  0.33333333  0.33333333  0.25993533  1.0
  Ni  Ni356  1  0.33333333  0.66666667  0.25993533  1.0
  Ni  Ni357  1  0.66666667  0.00000000  0.25993533  1.0
  Ni  Ni358  1  0.66666667  0.33333333  0.25993533  1.0
  Ni  Ni359  1  0.66666667  0.66666667  0.25993533  1.0
  Cu  Cu360  1  0.20748583  0.29251417  0.30612178  1.0
  Cu  Cu361  1  0.20748583  0.62584750  0.30612178  1.0
  Cu  Cu362  1  0.20748583  0.95918083  0.30612178  1.0
  Cu  Cu363  1  0.54081917  0.29251417  0.30612178  1.0
  Cu  Cu364  1  0.54081917  0.62584750  0.30612178  1.0
  Cu  Cu365  1  0.54081917  0.95918083  0.30612178  1.0
  Cu  Cu366  1  0.87415250  0.29251417  0.30612178  1.0
  Cu  Cu367  1  0.87415250  0.62584750  0.30612178  1.0
  Cu  Cu368  1  0.87415250  0.95918083  0.30612178  1.0
  Cu  Cu369  1  0.04081917  0.12584750  0.27980599  1.0
  Cu  Cu370  1  0.04081917  0.45918083  0.27980599  1.0
  Cu  Cu371  1  0.04081917  0.79251417  0.27980599  1.0
  Cu  Cu372  1  0.37415250  0.12584750  0.27980599  1.0
  Cu  Cu373  1  0.37415250  0.45918083  0.27980599  1.0
  Cu  Cu374  1  0.37415250  0.79251417  0.27980599  1.0
  Cu  Cu375  1  0.70748583  0.12584750  0.27980599  1.0
  Cu  Cu376  1  0.70748583  0.45918083  0.27980599  1.0
  Cu  Cu377  1  0.70748583  0.79251417  0.27980599  1.0
  Cu  Cu378  1  0.08333333  0.25000000  0.29940901  1.0
  Cu  Cu379  1  0.08333333  0.58333333  0.29940901  1.0
  Cu  Cu380  1  0.08333333  0.91666667  0.29940901  1.0
  Cu  Cu381  1  0.41666667  0.25000000  0.29940901  1.0
  Cu  Cu382  1  0.41666667  0.58333333  0.29940901  1.0
  Cu  Cu383  1  0.41666667  0.91666667  0.29940901  1.0
  Cu  Cu384  1  0.75000000  0.25000000  0.29940901  1.0
  Cu  Cu385  1  0.75000000  0.58333333  0.29940901  1.0
  Cu  Cu386  1  0.75000000  0.91666667  0.29940901  1.0
  Cu  Cu387  1  0.25000000  0.08333333  0.27309322  1.0
  Cu  Cu388  1  0.25000000  0.41666667  0.27309322  1.0
  Cu  Cu389  1  0.25000000  0.75000000  0.27309322  1.0
  Cu  Cu390  1  0.58333333  0.08333333  0.27309322  1.0
  Cu  Cu391  1  0.58333333  0.41666667  0.27309322  1.0
  Cu  Cu392  1  0.58333333  0.75000000  0.27309322  1.0
  Cu  Cu393  1  0.91666667  0.08333333  0.27309322  1.0
  Cu  Cu394  1  0.91666667  0.41666667  0.27309322  1.0
  Cu  Cu395  1  0.91666667  0.75000000  0.27309322  1.0
  Cu  Cu396  1  0.29251417  0.20748583  0.29269625  1.0
  Cu  Cu397  1  0.29251417  0.54081917  0.29269625  1.0
  Cu  Cu398  1  0.29251417  0.87415250  0.29269625  1.0
  Cu  Cu399  1  0.62584750  0.20748583  0.29269625  1.0
  Cu  Cu400  1  0.62584750  0.54081917  0.29269625  1.0
  Cu  Cu401  1  0.62584750  0.87415250  0.29269625  1.0
  Cu  Cu402  1  0.95918083  0.20748583  0.29269625  1.0
  Cu  Cu403  1  0.95918083  0.54081917  0.29269625  1.0
  Cu  Cu404  1  0.95918083  0.87415250  0.29269625  1.0
  Cu  Cu405  1  0.12584750  0.04081917  0.26638046  1.0
  Cu  Cu406  1  0.12584750  0.37415250  0.26638046  1.0
  Cu  Cu407  1  0.12584750  0.70748583  0.26638046  1.0
  Cu  Cu408  1  0.45918083  0.04081917  0.26638046  1.0
  Cu  Cu409  1  0.45918083  0.37415250  0.26638046  1.0
  Cu  Cu410  1  0.45918083  0.70748583  0.26638046  1.0
  Cu  Cu411  1  0.79251417  0.04081917  0.26638046  1.0
  Cu  Cu412  1  0.79251417  0.37415250  0.26638046  1.0
  Cu  Cu413  1  0.79251417  0.70748583  0.26638046  1.0
  Ni  Ni414  1  0.16666667  0.16666667  0.28625112  1.0
  Ni  Ni415  1  0.16666667  0.50000000  0.28625112  1.0
  Ni  Ni416  1  0.16666667  0.83333333  0.28625112  1.0
  Ni  Ni417  1  0.50000000  0.16666667  0.28625112  1.0
  Ni  Ni418  1  0.50000000  0.50000000  0.28625112  1.0
  Ni  Ni419  1  0.50000000  0.83333333  0.28625112  1.0
  Ni  Ni420  1  0.83333333  0.16666667  0.28625112  1.0
  Ni  Ni421  1  0.83333333  0.50000000  0.28625112  1.0
  Ni  Ni422  1  0.83333333  0.83333333  0.28625112  1.0
  Ni  Ni423  1  0.00000000  0.00000000  0.31256691  1.0
  Ni  Ni424  1  0.00000000  0.33333333  0.31256691  1.0
  Ni  Ni425  1  0.00000000  0.66666667  0.31256691  1.0
  Ni  Ni426  1  0.33333333  0.00000000  0.31256691  1.0
  Ni  Ni427  1  0.33333333  0.33333333  0.31256691  1.0
  Ni  Ni428  1  0.33333333  0.66666667  0.31256691  1.0
  Ni  Ni429  1  0.66666667  0.00000000  0.31256691  1.0
  Ni  Ni430  1  0.66666667  0.33333333  0.31256691  1.0
  Ni  Ni431  1  0.66666667  0.66666667  0.31256691  1.0
  Cu  Cu432  1  0.20748583  0.29251417  0.35875336  1.0
  Cu  Cu433  1  0.20748583  0.62584750  0.35875336  1.0
  Cu  Cu434  1  0.20748583  0.95918083  0.35875336  1.0
  Cu  Cu435  1  0.54081917  0.29251417  0.35875336  1.0
  Cu  Cu436  1  0.54081917  0.62584750  0.35875336  1.0
  Cu  Cu437  1  0.54081917  0.95918083  0.35875336  1.0
  Cu  Cu438  1  0.87415250  0.29251417  0.35875336  1.0
  Cu  Cu439  1  0.87415250  0.62584750  0.35875336  1.0
  Cu  Cu440  1  0.87415250  0.95918083  0.35875336  1.0
  Cu  Cu441  1  0.04081917  0.12584750  0.33243757  1.0
  Cu  Cu442  1  0.04081917  0.45918083  0.33243757  1.0
  Cu  Cu443  1  0.04081917  0.79251417  0.33243757  1.0
  Cu  Cu444  1  0.37415250  0.12584750  0.33243757  1.0
  Cu  Cu445  1  0.37415250  0.45918083  0.33243757  1.0
  Cu  Cu446  1  0.37415250  0.79251417  0.33243757  1.0
  Cu  Cu447  1  0.70748583  0.12584750  0.33243757  1.0
  Cu  Cu448  1  0.70748583  0.45918083  0.33243757  1.0
  Cu  Cu449  1  0.70748583  0.79251417  0.33243757  1.0
  Cu  Cu450  1  0.08333333  0.25000000  0.35204059  1.0
  Cu  Cu451  1  0.08333333  0.58333333  0.35204059  1.0
  Cu  Cu452  1  0.08333333  0.91666667  0.35204059  1.0
  Cu  Cu453  1  0.41666667  0.25000000  0.35204059  1.0
  Cu  Cu454  1  0.41666667  0.58333333  0.35204059  1.0
  Cu  Cu455  1  0.41666667  0.91666667  0.35204059  1.0
  Cu  Cu456  1  0.75000000  0.25000000  0.35204059  1.0
  Cu  Cu457  1  0.75000000  0.58333333  0.35204059  1.0
  Cu  Cu458  1  0.75000000  0.91666667  0.35204059  1.0
  Cu  Cu459  1  0.25000000  0.08333333  0.32572480  1.0
  Cu  Cu460  1  0.25000000  0.41666667  0.32572480  1.0
  Cu  Cu461  1  0.25000000  0.75000000  0.32572480  1.0
  Cu  Cu462  1  0.58333333  0.08333333  0.32572480  1.0
  Cu  Cu463  1  0.58333333  0.41666667  0.32572480  1.0
  Cu  Cu464  1  0.58333333  0.75000000  0.32572480  1.0
  Cu  Cu465  1  0.91666667  0.08333333  0.32572480  1.0
  Cu  Cu466  1  0.91666667  0.41666667  0.32572480  1.0
  Cu  Cu467  1  0.91666667  0.75000000  0.32572480  1.0
  Cu  Cu468  1  0.29251417  0.20748583  0.34532783  1.0
  Cu  Cu469  1  0.29251417  0.54081917  0.34532783  1.0
  Cu  Cu470  1  0.29251417  0.87415250  0.34532783  1.0
  Cu  Cu471  1  0.62584750  0.20748583  0.34532783  1.0
  Cu  Cu472  1  0.62584750  0.54081917  0.34532783  1.0
  Cu  Cu473  1  0.62584750  0.87415250  0.34532783  1.0
  Cu  Cu474  1  0.95918083  0.20748583  0.34532783  1.0
  Cu  Cu475  1  0.95918083  0.54081917  0.34532783  1.0
  Cu  Cu476  1  0.95918083  0.87415250  0.34532783  1.0
  Cu  Cu477  1  0.12584750  0.04081917  0.31901204  1.0
  Cu  Cu478  1  0.12584750  0.37415250  0.31901204  1.0
  Cu  Cu479  1  0.12584750  0.70748583  0.31901204  1.0
  Cu  Cu480  1  0.45918083  0.04081917  0.31901204  1.0
  Cu  Cu481  1  0.45918083  0.37415250  0.31901204  1.0
  Cu  Cu482  1  0.45918083  0.70748583  0.31901204  1.0
  Cu  Cu483  1  0.79251417  0.04081917  0.31901204  1.0
  Cu  Cu484  1  0.79251417  0.37415250  0.31901204  1.0
  Cu  Cu485  1  0.79251417  0.70748583  0.31901204  1.0
  Ni  Ni486  1  0.16666667  0.16666667  0.33888270  1.0
  Ni  Ni487  1  0.16666667  0.50000000  0.33888270  1.0
  Ni  Ni488  1  0.16666667  0.83333333  0.33888270  1.0
  Ni  Ni489  1  0.50000000  0.16666667  0.33888270  1.0
  Ni  Ni490  1  0.50000000  0.50000000  0.33888270  1.0
  Ni  Ni491  1  0.50000000  0.83333333  0.33888270  1.0
  Ni  Ni492  1  0.83333333  0.16666667  0.33888270  1.0
  Ni  Ni493  1  0.83333333  0.50000000  0.33888270  1.0
  Ni  Ni494  1  0.83333333  0.83333333  0.33888270  1.0
  Ni  Ni495  1  0.00000000  0.00000000  0.36519849  1.0
  Ni  Ni496  1  0.00000000  0.33333333  0.36519849  1.0
  Ni  Ni497  1  0.00000000  0.66666667  0.36519849  1.0
  Ni  Ni498  1  0.33333333  0.00000000  0.36519849  1.0
  Ni  Ni499  1  0.33333333  0.33333333  0.36519849  1.0
  Ni  Ni500  1  0.33333333  0.66666667  0.36519849  1.0
  Ni  Ni501  1  0.66666667  0.00000000  0.36519849  1.0
  Ni  Ni502  1  0.66666667  0.33333333  0.36519849  1.0
  Ni  Ni503  1  0.66666667  0.66666667  0.36519849  1.0
  Cu  Cu504  1  0.20748583  0.29251417  0.41138493  1.0
  Cu  Cu505  1  0.20748583  0.62584750  0.41138493  1.0
  Cu  Cu506  1  0.20748583  0.95918083  0.41138493  1.0
  Cu  Cu507  1  0.54081917  0.29251417  0.41138493  1.0
  Cu  Cu508  1  0.54081917  0.62584750  0.41138493  1.0
  Cu  Cu509  1  0.54081917  0.95918083  0.41138493  1.0
  Cu  Cu510  1  0.87415250  0.29251417  0.41138493  1.0
  Cu  Cu511  1  0.87415250  0.62584750  0.41138493  1.0
  Cu  Cu512  1  0.87415250  0.95918083  0.41138493  1.0
  Cu  Cu513  1  0.04081917  0.12584750  0.38506914  1.0
  Cu  Cu514  1  0.04081917  0.45918083  0.38506914  1.0
  Cu  Cu515  1  0.04081917  0.79251417  0.38506914  1.0
  Cu  Cu516  1  0.37415250  0.12584750  0.38506914  1.0
  Cu  Cu517  1  0.37415250  0.45918083  0.38506914  1.0
  Cu  Cu518  1  0.37415250  0.79251417  0.38506914  1.0
  Cu  Cu519  1  0.70748583  0.12584750  0.38506914  1.0
  Cu  Cu520  1  0.70748583  0.45918083  0.38506914  1.0
  Cu  Cu521  1  0.70748583  0.79251417  0.38506914  1.0
  Cu  Cu522  1  0.08333333  0.25000000  0.40467217  1.0
  Cu  Cu523  1  0.08333333  0.58333333  0.40467217  1.0
  Cu  Cu524  1  0.08333333  0.91666667  0.40467217  1.0
  Cu  Cu525  1  0.41666667  0.25000000  0.40467217  1.0
  Cu  Cu526  1  0.41666667  0.58333333  0.40467217  1.0
  Cu  Cu527  1  0.41666667  0.91666667  0.40467217  1.0
  Cu  Cu528  1  0.75000000  0.25000000  0.40467217  1.0
  Cu  Cu529  1  0.75000000  0.58333333  0.40467217  1.0
  Cu  Cu530  1  0.75000000  0.91666667  0.40467217  1.0
  Cu  Cu531  1  0.25000000  0.08333333  0.37835638  1.0
  Cu  Cu532  1  0.25000000  0.41666667  0.37835638  1.0
  Cu  Cu533  1  0.25000000  0.75000000  0.37835638  1.0
  Cu  Cu534  1  0.58333333  0.08333333  0.37835638  1.0
  Cu  Cu535  1  0.58333333  0.41666667  0.37835638  1.0
  Cu  Cu536  1  0.58333333  0.75000000  0.37835638  1.0
  Cu  Cu537  1  0.91666667  0.08333333  0.37835638  1.0
  Cu  Cu538  1  0.91666667  0.41666667  0.37835638  1.0
  Cu  Cu539  1  0.91666667  0.75000000  0.37835638  1.0
  Cu  Cu540  1  0.29251417  0.20748583  0.39795941  1.0
  Cu  Cu541  1  0.29251417  0.54081917  0.39795941  1.0
  Cu  Cu542  1  0.29251417  0.87415250  0.39795941  1.0
  Cu  Cu543  1  0.62584750  0.20748583  0.39795941  1.0
  Cu  Cu544  1  0.62584750  0.54081917  0.39795941  1.0
  Cu  Cu545  1  0.62584750  0.87415250  0.39795941  1.0
  Cu  Cu546  1  0.95918083  0.20748583  0.39795941  1.0
  Cu  Cu547  1  0.95918083  0.54081917  0.39795941  1.0
  Cu  Cu548  1  0.95918083  0.87415250  0.39795941  1.0
  Cu  Cu549  1  0.12584750  0.04081917  0.37164362  1.0
  Cu  Cu550  1  0.12584750  0.37415250  0.37164362  1.0
  Cu  Cu551  1  0.12584750  0.70748583  0.37164362  1.0
  Cu  Cu552  1  0.45918083  0.04081917  0.37164362  1.0
  Cu  Cu553  1  0.45918083  0.37415250  0.37164362  1.0
  Cu  Cu554  1  0.45918083  0.70748583  0.37164362  1.0
  Cu  Cu555  1  0.79251417  0.04081917  0.37164362  1.0
  Cu  Cu556  1  0.79251417  0.37415250  0.37164362  1.0
  Cu  Cu557  1  0.79251417  0.70748583  0.37164362  1.0
  Ni  Ni558  1  0.16666667  0.16666667  0.39151428  1.0
  Ni  Ni559  1  0.16666667  0.50000000  0.39151428  1.0
  Ni  Ni560  1  0.16666667  0.83333333  0.39151428  1.0
  Ni  Ni561  1  0.50000000  0.16666667  0.39151428  1.0
  Ni  Ni562  1  0.50000000  0.50000000  0.39151428  1.0
  Ni  Ni563  1  0.50000000  0.83333333  0.39151428  1.0
  Ni  Ni564  1  0.83333333  0.16666667  0.39151428  1.0
  Ni  Ni565  1  0.83333333  0.50000000  0.39151428  1.0
  Ni  Ni566  1  0.83333333  0.83333333  0.39151428  1.0
  Ni  Ni567  1  0.00000000  0.00000000  0.41783007  1.0
  Ni  Ni568  1  0.00000000  0.33333333  0.41783007  1.0
  Ni  Ni569  1  0.00000000  0.66666667  0.41783007  1.0
  Ni  Ni570  1  0.33333333  0.00000000  0.41783007  1.0
  Ni  Ni571  1  0.33333333  0.33333333  0.41783007  1.0
  Ni  Ni572  1  0.33333333  0.66666667  0.41783007  1.0
  Ni  Ni573  1  0.66666667  0.00000000  0.41783007  1.0
  Ni  Ni574  1  0.66666667  0.33333333  0.41783007  1.0
  Ni  Ni575  1  0.66666667  0.66666667  0.41783007  1.0
