# generated using pymatgen
data_Cu3Ni
_symmetry_space_group_name_H-M   'P 1'
_cell_length_a   8.44618799
_cell_length_b   25.38087151
_cell_length_c   34.45064714
_cell_angle_alpha   73.09054709
_cell_angle_beta   55.10613118
_cell_angle_gamma   80.42207497
_symmetry_Int_Tables_number   1
_chemical_formula_structural   Cu3Ni
_chemical_formula_sum   'Cu162 Ni54'
_cell_volume   5795.58011580
_cell_formula_units_Z   54
loop_
 _symmetry_equiv_pos_site_id
 _symmetry_equiv_pos_as_xyz
  1  'x, y, z'
loop_
 _atom_site_type_symbol
 _atom_site_label
 _atom_site_symmetry_multiplicity
 _atom_site_fract_x
 _atom_site_fract_y
 _atom_site_fract_z
 _atom_site_occupancy
  Cu  Cu0  1  0.16666667  0.25169500  0.00874696  1.0
  Cu  Cu1  1  0.16666667  0.58502833  0.00874696  1.0
  Cu  Cu2  1  0.16666667  0.91836167  0.00874696  1.0
  Cu  Cu3  1  0.50000000  0.25169500  0.00874696  1.0
  Cu  Cu4  1  0.50000000  0.58502833  0.00874696  1.0
  Cu  Cu5  1  0.50000000  0.91836167  0.00874696  1.0
  Cu  Cu6  1  0.83333333  0.25169500  0.00874696  1.0
  Cu  Cu7  1  0.83333333  0.58502833  0.00874696  1.0
  Cu  Cu8  1  0.83333333  0.91836167  0.00874696  1.0
  Cu  Cu9  1  0.00000000  0.16666667  0.02696732  1.0
  Cu  Cu10  1  0.00000000  0.50000000  0.02696732  1.0
  Cu  Cu11  1  0.00000000  0.83333333  0.02696732  1.0
  Cu  Cu12  1  0.33333333  0.16666667  0.02696732  1.0
  Cu  Cu13  1  0.33333333  0.50000000  0.02696732  1.0
  Cu  Cu14  1  0.33333333  0.83333333  0.02696732  1.0
  Cu  Cu15  1  0.66666667  0.16666667  0.02696732  1.0
  Cu  Cu16  1  0.66666667  0.50000000  0.02696732  1.0
  Cu  Cu17  1  0.66666667  0.83333333  0.02696732  1.0
  Cu  Cu18  1  0.16666667  0.08163833  0.04518768  1.0
  Cu  Cu19  1  0.16666667  0.41497167  0.04518768  1.0
  Cu  Cu20  1  0.16666667  0.74830500  0.04518768  1.0
  Cu  Cu21  1  0.50000000  0.08163833  0.04518768  1.0
  Cu  Cu22  1  0.50000000  0.41497167  0.04518768  1.0
  Cu  Cu23  1  0.50000000  0.74830500  0.04518768  1.0
  Cu  Cu24  1  0.83333333  0.08163833  0.04518768  1.0
  Cu  Cu25  1  0.83333333  0.41497167  0.04518768  1.0
  Cu  Cu26  1  0.83333333  0.74830500  0.04518768  1.0
  Ni  Ni27  1  0.00000000  0.00000000  0.06268161  1.0
  Ni  Ni28  1  0.00000000  0.33333333  0.06268161  1.0
  Ni  Ni29  1  0.00000000  0.66666667  0.06268161  1.0
  Ni  Ni30  1  0.33333333  0.00000000  0.06268161  1.0
  Ni  Ni31  1  0.33333333  0.33333333  0.06268161  1.0
  Ni  Ni32  1  0.33333333  0.66666667  0.06268161  1.0
  Ni  Ni33  1  0.66666667  0.00000000  0.06268161  1.0
  Ni  Ni34  1  0.66666667  0.33333333  0.06268161  1.0
  Ni  Ni35  1  0.66666667  0.66666667  0.06268161  1.0
  Cu  Cu36  1  0.16666667  0.25169500  0.08017554  1.0
  Cu  Cu37  1  0.16666667  0.58502833  0.08017554  1.0
  Cu  Cu38  1  0.16666667  0.91836167  0.08017554  1.0
  Cu  Cu39  1  0.50000000  0.25169500  0.08017554  1.0
  Cu  Cu40  1  0.50000000  0.58502833  0.08017554  1.0
  Cu  Cu41  1  0.50000000  0.91836167  0.08017554  1.0
  Cu  Cu42  1  0.83333333  0.25169500  0.08017554  1.0
  Cu  Cu43  1  0.83333333  0.58502833  0.08017554  1.0
  Cu  Cu44  1  0.83333333  0.91836167  0.08017554  1.0
  Cu  Cu45  1  0.00000000  0.16666667  0.09839589  1.0
  Cu  Cu46  1  0.00000000  0.50000000  0.09839589  1.0
  Cu  Cu47  1  0.00000000  0.83333333  0.09839589  1.0
  Cu  Cu48  1  0.33333333  0.16666667  0.09839589  1.0
  Cu  Cu49  1  0.33333333  0.50000000  0.09839589  1.0
  Cu  Cu50  1  0.33333333  0.83333333  0.09839589  1.0
  Cu  Cu51  1  0.66666667  0.16666667  0.09839589  1.0
  Cu  Cu52  1  0.66666667  0.50000000  0.09839589  1.0
  Cu  Cu53  1  0.66666667  0.83333333  0.09839589  1.0
  Cu  Cu54  1  0.16666667  0.08163833  0.11661625  1.0
  Cu  Cu55  1  0.16666667  0.41497167  0.11661625  1.0
  Cu  Cu56  1  0.16666667  0.74830500  0.11661625  1.0
  Cu  Cu57  1  0.50000000  0.08163833  0.11661625  1.0
  Cu  Cu58  1  0.50000000  0.41497167  0.11661625  1.0
  Cu  Cu59  1  0.50000000  0.74830500  0.11661625  1.0
  Cu  Cu60  1  0.83333333  0.08163833  0.11661625  1.0
  Cu  Cu61  1  0.83333333  0.41497167  0.11661625  1.0
  Cu  Cu62  1  0.83333333  0.74830500  0.11661625  1.0
  Ni  Ni63  1  0.00000000  0.00000000  0.13411018  1.0
  Ni  Ni64  1  0.00000000  0.33333333  0.13411018  1.0
  Ni  Ni65  1  0.00000000  0.66666667  0.13411018  1.0
  Ni  Ni66  1  0.33333333  0.00000000  0.13411018  1.0
  Ni  Ni67  1  0.33333333  0.33333333  0.13411018  1.0
  Ni  Ni68  1  0.33333333  0.66666667  0.13411018  1.0
  Ni  Ni69  1  0.66666667  0.00000000  0.13411018  1.0
  Ni  Ni70  1  0.66666667  0.33333333  0.13411018  1.0
  Ni  Ni71  1  0.66666667  0.66666667  0.13411018  1.0
  Cu  Cu72  1  0.16666667  0.25169500  0.15160411  1.0
  Cu  Cu73  1  0.16666667  0.58502833  0.15160411  1.0
  Cu  Cu74  1  0.16666667  0.91836167  0.15160411  1.0
  Cu  Cu75  1  0.50000000  0.25169500  0.15160411  1.0
  Cu  Cu76  1  0.50000000  0.58502833  0.15160411  1.0
  Cu  Cu77  1  0.50000000  0.91836167  0.15160411  1.0
  Cu  Cu78  1  0.83333333  0.25169500  0.15160411  1.0
  Cu  Cu79  1  0.83333333  0.58502833  0.15160411  1.0
  Cu  Cu80  1  0.83333333  0.91836167  0.15160411  1.0
  Cu  Cu81  1  0.00000000  0.16666667  0.16982446  1.0
  Cu  Cu82  1  0.00000000  0.50000000  0.16982446  1.0
  Cu  Cu83  1  0.00000000  0.83333333  0.16982446  1.0
  Cu  Cu84  1  0.33333333  0.16666667  0.16982446  1.0
  Cu  Cu85  1  0.33333333  0.50000000  0.16982446  1.0
  Cu  Cu86  1  0.33333333  0.83333333  0.16982446  1.0
  Cu  Cu87  1  0.66666667  0.16666667  0.16982446  1.0
  Cu  Cu88  1  0.66666667  0.50000000  0.16982446  1.0
  Cu  Cu89  1  0.66666667  0.83333333  0.16982446  1.0
  Cu  Cu90  1  0.16666667  0.08163833  0.18804482  1.0
  Cu  Cu91  1  0.16666667  0.41497167  0.18804482  1.0
  Cu  Cu92  1  0.16666667  0.74830500  0.18804482  1.0
  Cu  Cu93  1  0.50000000  0.08163833  0.18804482  1.0
  Cu  Cu94  1  0.50000000  0.41497167  0.18804482  1.0
  Cu  Cu95  1  0.50000000  0.74830500  0.18804482  1.0
  Cu  Cu96  1  0.83333333  0.08163833  0.18804482  1.0
  Cu  Cu97  1  0.83333333  0.41497167  0.18804482  1.0
  Cu  Cu98  1  0.83333333  0.74830500  0.18804482  1.0
  Ni  Ni99  1  0.00000000  0.00000000  0.20553875  1.0
  Ni  Ni100  1  0.00000000  0.33333333  0.20553875  1.0
  Ni  Ni101  1  0.00000000  0.66666667  0.20553875  1.0
  Ni  Ni102  1  0.33333333  0.00000000  0.20553875  1.0
  Ni  Ni103  1  0.33333333  0.33333333  0.20553875  1.0
  Ni  Ni104  1  0.33333333  0.66666667  0.20553875  1.0
  Ni  Ni105  1  0.66666667  0.00000000  0.20553875  1.0
  Ni  Ni106  1  0.66666667  0.33333333  0.20553875  1.0
  Ni  Ni107  1  0.66666667  0.66666667  0.20553875  1.0
  Cu  Cu108  1  0.16666667  0.25169500  0.22303268  1.0
  Cu  Cu109  1  0.16666667  0.58502833  0.22303268  1.0
  Cu  Cu110  1  0.16666667  0.91836167  0.22303268  1.0
  Cu  Cu111  1  0.50000000  0.25169500  0.22303268  1.0
  Cu  Cu112  1  0.50000000  0.58502833  0.22303268  1.0
  Cu  Cu113  1  0.50000000  0.91836167  0.22303268  1.0
  Cu  Cu114  1  0.83333333  0.25169500  0.22303268  1.0
  Cu  Cu115  1  0.83333333  0.58502833  0.22303268  1.0
  Cu  Cu116  1  0.83333333  0.91836167  0.22303268  1.0
  Cu  Cu117  1  0.00000000  0.16666667  0.24125304  1.0
  Cu  Cu118  1  0.00000000  0.50000000  0.24125304  1.0
  Cu  Cu119  1  0.00000000  0.83333333  0.24125304  1.0
  Cu  Cu120  1  0.33333333  0.16666667  0.24125304  1.0
  Cu  Cu121  1  0.33333333  0.50000000  0.24125304  1.0
  Cu  Cu122  1  0.33333333  0.83333333  0.24125304  1.0
  Cu  Cu123  1  0.66666667  0.16666667  0.24125304  1.0
  Cu  Cu124  1  0.66666667  0.50000000  0.24125304  1.0
  Cu  Cu125  1  0.66666667  0.83333333  0.24125304  1.0
  Cu  Cu126  1  0.16666667  0.08163833  0.25947339  1.0
  Cu  Cu127  1  0.16666667  0.41497167  0.25947339  1.0
  Cu  Cu128  1  0.16666667  0.74830500  0.25947339  1.0
  Cu  Cu129  1  0.50000000  0.08163833  0.25947339  1.0
  Cu  Cu130  1  0.50000000  0.41497167  0.25947339  1.0
  Cu  Cu131  1  0.50000000  0.74830500  0.25947339  1.0
  Cu  Cu132  1  0.83333333  0.08163833  0.25947339  1.0
  Cu  Cu133  1  0.83333333  0.41497167  0.25947339  1.0
  Cu  Cu134  1  0.83333333  0.74830500  0.25947339  1.0
  Ni  Ni135  1  0.00000000  0.00000000  0.27696732  1.0
  Ni  Ni136  1  0.00000000  0.33333333  0.27696732  1.0
  Ni  Ni137  1  0.00000000  0.66666667  0.27696732  1.0
  Ni  Ni138  1  0.33333333  0.00000000  0.27696732  1.0
  Ni  Ni139  1  0.33333333  0.33333333  0.27696732  1.0
  Ni  Ni140  1  0.33333333  0.66666667  0.27696732  1.0
  Ni  Ni141  1  0.66666667  0.00000000  0.27696732  1.0
  Ni  Ni142  1  0.66666667  0.33333333  0.27696732  1.0
  Ni  Ni143  1  0.66666667  0.66666667  0.27696732  1.0
  Cu  Cu144  1  0.16666667  0.25169500  0.29446125  1.0
  Cu  Cu145  1  0.16666667  0.58502833  0.29446125  1.0
  Cu  Cu146  1  0.16666667  0.91836167  0.29446125  1.0
  Cu  Cu147  1  0.50000000  0.25169500  0.29446125  1.0
  Cu  Cu148  1  0.50000000  0.58502833  0.29446125  1.0
  Cu  Cu149  1  0.50000000  0.91836167  0.29446125  1.0
  Cu  Cu150  1  0.83333333  0.25169500  0.29446125  1.0
  Cu  Cu151  1  0.83333333  0.58502833  0.29446125  1.0
  Cu  Cu152  1  0.83333333  0.91836167  0.29446125  1.0
  Cu  Cu153  1  0.00000000  0.16666667  0.31268161  1.0
  Cu  Cu154  1  0.00000000  0.50000000  0.31268161  1.0
  Cu  Cu155  1  0.00000000  0.83333333  0.31268161  1.0
  Cu  Cu156  1  0.33333333  0.16666667  0.31268161  1.0
  Cu  Cu157  1  0.33333333  0.50000000  0.31268161  1.0
  Cu  Cu158  1  0.33333333  0.83333333  0.31268161  1.0
  Cu  Cu159  1  0.66666667  0.16666667  0.31268161  1.0
  Cu  Cu160  1  0.66666667  0.50000000  0.31268161  1.0
  Cu  Cu161  1  0.66666667  0.83333333  0.31268161  1.0
  Cu  Cu162  1  0.16666667  0.08163833  0.33090196  1.0
  Cu  Cu163  1  0.16666667  0.41497167  0.33090196  1.0
  Cu  Cu164  1  0.16666667  0.74830500  0.33090196  1.0
  Cu  Cu165  1  0.50000000  0.08163833  0.33090196  1.0
  Cu  Cu166  1  0.50000000  0.41497167  0.33090196  1.0
  Cu  Cu167  1  0.50000000  0.74830500  0.33090196  1.0
  Cu  Cu168  1  0.83333333  0.08163833  0.33090196  1.0
  Cu  Cu169  1  0.83333333  0.41497167  0.33090196  1.0
  Cu  Cu170  1  0.83333333  0.74830500  0.33090196  1.0
  Ni  Ni171  1  0.00000000  0.00000000  0.34839589  1.0
  Ni  Ni172  1  0.00000000  0.33333333  0.34839589  1.0
  Ni  Ni173  1  0.00000000  0.66666667  0.34839589  1.0
  Ni  Ni174  1  0.33333333  0.00000000  0.34839589  1.0
  Ni  Ni175  1  0.33333333  0.33333333  0.34839589  1.0
  Ni  Ni176  1  0.33333333  0.66666667  0.34839589  1.0
  Ni  Ni177  1  0.66666667  0.00000000  0.34839589  1.0
  Ni  Ni178  1  0.66666667  0.33333333  0.34839589  1.0
  Ni  Ni179  1  0.66666667  0.66666667  0.34839589  1.0
  Cu  Cu180  1  0.16666667  0.25169500  0.36588982  1.0
  Cu  Cu181  1  0.16666667  0.58502833  0.36588982  1.0
  Cu  Cu182  1  0.16666667  0.91836167  0.36588982  1.0
  Cu  Cu183  1  0.50000000  0.25169500  0.36588982  1.0
  Cu  Cu184  1  0.50000000  0.58502833  0.36588982  1.0
  Cu  Cu185  1  0.50000000  0.91836167  0.36588982  1.0
  Cu  Cu186  1  0.83333333  0.25169500  0.36588982  1.0
  Cu  Cu187  1  0.83333333  0.58502833  0.36588982  1.0
  Cu  Cu188  1  0.83333333  0.91836167  0.36588982  1.0
  Cu  Cu189  1  0.00000000  0.16666667  0.38411018  1.0
  Cu  Cu190  1  0.00000000  0.50000000  0.38411018  1.0
  Cu  Cu191  1  0.00000000  0.83333333  0.38411018  1.0
  Cu  Cu192  1  0.33333333  0.16666667  0.38411018  1.0
  Cu  Cu193  1  0.33333333  0.50000000  0.38411018  1.0
  Cu  Cu194  1  0.33333333  0.83333333  0.38411018  1.0
  Cu  Cu195  1  0.66666667  0.16666667  0.38411018  1.0
  Cu  Cu196  1  0.66666667  0.50000000  0.38411018  1.0
  Cu  Cu197  1  0.66666667  0.83333333  0.38411018  1.0
  Cu  Cu198  1  0.16666667  0.08163833  0.40233054  1.0
  Cu  Cu199  1  0.16666667  0.41497167  0.40233054  1.0
  Cu  Cu200  1  0.16666667  0.74830500  0.40233054  1.0
  Cu  Cu201  1  0.50000000  0.08163833  0.40233054  1.0
  Cu  Cu202  1  0.50000000  0.41497167  0.40233054  1.0
  Cu  Cu203  1  0.50000000  0.74830500  0.40233054  1.0
  Cu  Cu204  1  0.83333333  0.08163833  0.40233054  1.0
  Cu  Cu205  1  0.83333333  0.41497167  0.40233054  1.0
  Cu  Cu206  1  0.83333333  0.74830500  0.40233054  1.0
  Ni  Ni207  1  0.00000000  0.00000000  0.41982446  1.0
  Ni  Ni208  1  0.00000000  0.33333333  0.41982446  1.0
  Ni  Ni209  1  0.00000000  0.66666667  0.41982446  1.0
  Ni  Ni210  1  0.33333333  0.00000000  0.41982446  1.0
  Ni  Ni211  1  0.33333333  0.33333333  0.41982446  1.0
  Ni  Ni212  1  0.33333333  0.66666667  0.41982446  1.0
  Ni  Ni213  1  0.66666667  0.00000000  0.41982446  1.0
  Ni  Ni214  1  0.66666667  0.33333333  0.41982446  1.0
  Ni  Ni215  1  0.66666667  0.66666667  0.41982446  1.0
