# generated using pymatgen
data_Cu3Ni
_symmetry_space_group_name_H-M   'P 1'
_cell_length_a   7.38228153
_cell_length_b   7.38228153
_cell_length_c   32.37806000
_cell_angle_alpha   90.00000000
_cell_angle_beta   90.00000000
_cell_angle_gamma   110.21226235
_symmetry_Int_Tables_number   1
_chemical_formula_structural   Cu3Ni
_chemical_formula_sum   'Cu54 Ni18'
_cell_volume   1655.88003309
_cell_formula_units_Z   18
loop_
 _symmetry_equiv_pos_site_id
 _symmetry_equiv_pos_as_xyz
  1  'x, y, z'
loop_
 _atom_site_type_symbol
 _atom_site_label
 _atom_site_symmetry_multiplicity
 _atom_site_fract_x
 _atom_site_fract_y
 _atom_site_fract_z
 _atom_site_occupancy
  Cu  Cu0  1  0.16666667  0.16666667  0.15815688  1.0
  Cu  Cu1  1  0.16666667  0.50000000  0.15815688  1.0
  Cu  Cu2  1  0.16666667  0.83333333  0.15815687  1.0
  Cu  Cu3  1  0.50000000  0.16666667  0.15815688  1.0
  Cu  Cu4  1  0.50000000  0.50000000  0.15815687  1.0
  Cu  Cu5  1  0.50000000  0.83333333  0.15815688  1.0
  Cu  Cu6  1  0.83333333  0.16666667  0.15815687  1.0
  Cu  Cu7  1  0.83333333  0.50000000  0.15815688  1.0
  Cu  Cu8  1  0.83333333  0.83333333  0.15815688  1.0
  Cu  Cu9  1  0.00000000  0.00000000  0.09438563  1.0
  Cu  Cu10  1  0.00000000  0.33333333  0.09438563  1.0
  Cu  Cu11  1  0.00000000  0.66666667  0.09438563  1.0
  Cu  Cu12  1  0.33333333  0.00000000  0.09438563  1.0
  Cu  Cu13  1  0.33333333  0.33333333  0.09438563  1.0
  Cu  Cu14  1  0.33333333  0.66666667  0.09438563  1.0
  Cu  Cu15  1  0.66666667  0.00000000  0.09438563  1.0
  Cu  Cu16  1  0.66666667  0.33333333  0.09438563  1.0
  Cu  Cu17  1  0.66666667  0.66666667  0.09438563  1.0
  Cu  Cu18  1  0.16666667  0.16666667  0.03061437  1.0
  Cu  Cu19  1  0.16666667  0.50000000  0.03061437  1.0
  Cu  Cu20  1  0.16666667  0.83333333  0.03061437  1.0
  Cu  Cu21  1  0.50000000  0.16666667  0.03061437  1.0
  Cu  Cu22  1  0.50000000  0.50000000  0.03061437  1.0
  Cu  Cu23  1  0.50000000  0.83333333  0.03061437  1.0
  Cu  Cu24  1  0.83333333  0.16666667  0.03061437  1.0
  Cu  Cu25  1  0.83333333  0.50000000  0.03061437  1.0
  Cu  Cu26  1  0.83333333  0.83333333  0.03061437  1.0
  Ni  Ni27  1  0.00000000  0.00000000  0.21938563  1.0
  Ni  Ni28  1  0.00000000  0.33333333  0.21938563  1.0
  Ni  Ni29  1  0.00000000  0.66666667  0.21938563  1.0
  Ni  Ni30  1  0.33333333  0.00000000  0.21938563  1.0
  Ni  Ni31  1  0.33333333  0.33333333  0.21938563  1.0
  Ni  Ni32  1  0.33333333  0.66666667  0.21938563  1.0
  Ni  Ni33  1  0.66666667  0.00000000  0.21938563  1.0
  Ni  Ni34  1  0.66666667  0.33333333  0.21938563  1.0
  Ni  Ni35  1  0.66666667  0.66666667  0.21938563  1.0
  Cu  Cu36  1  0.16666667  0.16666667  0.40815687  1.0
  Cu  Cu37  1  0.16666667  0.50000000  0.40815687  1.0
  Cu  Cu38  1  0.16666667  0.83333333  0.40815687  1.0
  Cu  Cu39  1  0.50000000  0.16666667  0.40815687  1.0
  Cu  Cu40  1  0.50000000  0.50000000  0.40815687  1.0
  Cu  Cu41  1  0.50000000  0.83333333  0.40815687  1.0
  Cu  Cu42  1  0.83333333  0.16666667  0.40815687  1.0
  Cu  Cu43  1  0.83333333  0.50000000  0.40815687  1.0
  Cu  Cu44  1  0.83333333  0.83333333  0.40815687  1.0
  Cu  Cu45  1  0.00000000  0.00000000  0.34438563  1.0
  Cu  Cu46  1  0.00000000  0.33333333  0.34438563  1.0
  Cu  Cu47  1  0.00000000  0.66666667  0.34438563  1.0
  Cu  Cu48  1  0.33333333  0.00000000  0.34438563  1.0
  Cu  Cu49  1  0.33333333  0.33333333  0.34438563  1.0
  Cu  Cu50  1  0.33333333  0.66666667  0.34438563  1.0
  Cu  Cu51  1  0.66666667  0.00000000  0.34438563  1.0
  Cu  Cu52  1  0.66666667  0.33333333  0.34438563  1.0
  Cu  Cu53  1  0.66666667  0.66666667  0.34438563  1.0
  Cu  Cu54  1  0.16666667  0.16666667  0.28061437  1.0
  Cu  Cu55  1  0.16666667  0.50000000  0.28061437  1.0
  Cu  Cu56  1  0.16666667  0.83333333  0.28061437  1.0
  Cu  Cu57  1  0.50000000  0.16666667  0.28061437  1.0
  Cu  Cu58  1  0.50000000  0.50000000  0.28061437  1.0
  Cu  Cu59  1  0.50000000  0.83333333  0.28061437  1.0
  Cu  Cu60  1  0.83333333  0.16666667  0.28061437  1.0
  Cu  Cu61  1  0.83333333  0.50000000  0.28061437  1.0
  Cu  Cu62  1  0.83333333  0.83333333  0.28061437  1.0
  Ni  Ni63  1  0.00000000  0.00000000  0.46938563  1.0
  Ni  Ni64  1  0.00000000  0.33333333  0.46938563  1.0
  Ni  Ni65  1  0.00000000  0.66666667  0.46938563  1.0
  Ni  Ni66  1  0.33333333  0.00000000  0.46938563  1.0
  Ni  Ni67  1  0.33333333  0.33333333  0.46938563  1.0
  Ni  Ni68  1  0.33333333  0.66666667  0.46938563  1.0
  Ni  Ni69  1  0.66666667  0.00000000  0.46938563  1.0
  Ni  Ni70  1  0.66666667  0.33333333  0.46938563  1.0
  Ni  Ni71  1  0.66666667  0.66666667  0.46938563  1.0
