# generated using pymatgen
data_Cu3Ni
_symmetry_space_group_name_H-M   'P 1'
_cell_length_a   18.64957218
_cell_length_b   25.38087151
_cell_length_c   36.91140765
_cell_angle_alpha   106.90945291
_cell_angle_beta   132.01829369
_cell_angle_gamma   78.77324703
_symmetry_Int_Tables_number   1
_chemical_formula_structural   Cu3Ni
_chemical_formula_sum   'Cu324 Ni108'
_cell_volume   12419.10024815
_cell_formula_units_Z   108
loop_
 _symmetry_equiv_pos_site_id
 _symmetry_equiv_pos_as_xyz
  1  'x, y, z'
loop_
 _atom_site_type_symbol
 _atom_site_label
 _atom_site_symmetry_multiplicity
 _atom_site_fract_x
 _atom_site_fract_y
 _atom_site_fract_z
 _atom_site_occupancy
  Cu  Cu0  1  0.08333333  0.25169500  0.01700567  1.0
  Cu  Cu1  1  0.08333333  0.58502833  0.01700567  1.0
  Cu  Cu2  1  0.08333333  0.91836167  0.01700567  1.0
  Cu  Cu3  1  0.41666667  0.25169500  0.01700567  1.0
  Cu  Cu4  1  0.41666667  0.58502833  0.01700567  1.0
  Cu  Cu5  1  0.41666667  0.91836167  0.01700567  1.0
  Cu  Cu6  1  0.75000000  0.25169500  0.01700567  1.0
  Cu  Cu7  1  0.75000000  0.58502833  0.01700567  1.0
  Cu  Cu8  1  0.75000000  0.91836167  0.01700567  1.0
  Cu  Cu9  1  0.25000000  0.25169500  0.05033900  1.0
  Cu  Cu10  1  0.25000000  0.58502833  0.05033900  1.0
  Cu  Cu11  1  0.25000000  0.91836167  0.05033900  1.0
  Cu  Cu12  1  0.58333333  0.25169500  0.05033900  1.0
  Cu  Cu13  1  0.58333333  0.58502833  0.05033900  1.0
  Cu  Cu14  1  0.58333333  0.91836167  0.05033900  1.0
  Cu  Cu15  1  0.91666667  0.25169500  0.05033900  1.0
  Cu  Cu16  1  0.91666667  0.58502833  0.05033900  1.0
  Cu  Cu17  1  0.91666667  0.91836167  0.05033900  1.0
  Cu  Cu18  1  0.00000000  0.16666667  0.01666667  1.0
  Cu  Cu19  1  0.00000000  0.50000000  0.01666667  1.0
  Cu  Cu20  1  0.00000000  0.83333333  0.01666667  1.0
  Cu  Cu21  1  0.33333333  0.16666667  0.01666667  1.0
  Cu  Cu22  1  0.33333333  0.50000000  0.01666667  1.0
  Cu  Cu23  1  0.33333333  0.83333333  0.01666667  1.0
  Cu  Cu24  1  0.66666667  0.16666667  0.01666667  1.0
  Cu  Cu25  1  0.66666667  0.50000000  0.01666667  1.0
  Cu  Cu26  1  0.66666667  0.83333333  0.01666667  1.0
  Cu  Cu27  1  0.16666667  0.16666667  0.05000000  1.0
  Cu  Cu28  1  0.16666667  0.50000000  0.05000000  1.0
  Cu  Cu29  1  0.16666667  0.83333333  0.05000000  1.0
  Cu  Cu30  1  0.50000000  0.16666667  0.05000000  1.0
  Cu  Cu31  1  0.50000000  0.50000000  0.05000000  1.0
  Cu  Cu32  1  0.50000000  0.83333333  0.05000000  1.0
  Cu  Cu33  1  0.83333333  0.16666667  0.05000000  1.0
  Cu  Cu34  1  0.83333333  0.50000000  0.05000000  1.0
  Cu  Cu35  1  0.83333333  0.83333333  0.05000000  1.0
  Cu  Cu36  1  0.08333333  0.08163833  0.04966100  1.0
  Cu  Cu37  1  0.08333333  0.41497167  0.04966100  1.0
  Cu  Cu38  1  0.08333333  0.74830500  0.04966100  1.0
  Cu  Cu39  1  0.41666667  0.08163833  0.04966100  1.0
  Cu  Cu40  1  0.41666667  0.41497167  0.04966100  1.0
  Cu  Cu41  1  0.41666667  0.74830500  0.04966100  1.0
  Cu  Cu42  1  0.75000000  0.08163833  0.04966100  1.0
  Cu  Cu43  1  0.75000000  0.41497167  0.04966100  1.0
  Cu  Cu44  1  0.75000000  0.74830500  0.04966100  1.0
  Cu  Cu45  1  0.25000000  0.08163833  0.01632767  1.0
  Cu  Cu46  1  0.25000000  0.41497167  0.01632767  1.0
  Cu  Cu47  1  0.25000000  0.74830500  0.01632767  1.0
  Cu  Cu48  1  0.58333333  0.08163833  0.01632767  1.0
  Cu  Cu49  1  0.58333333  0.41497167  0.01632767  1.0
  Cu  Cu50  1  0.58333333  0.74830500  0.01632767  1.0
  Cu  Cu51  1  0.91666667  0.08163833  0.01632767  1.0
  Cu  Cu52  1  0.91666667  0.41497167  0.01632767  1.0
  Cu  Cu53  1  0.91666667  0.74830500  0.01632767  1.0
  Ni  Ni54  1  0.00000000  0.00000000  0.05000000  1.0
  Ni  Ni55  1  0.00000000  0.33333333  0.05000000  1.0
  Ni  Ni56  1  0.00000000  0.66666667  0.05000000  1.0
  Ni  Ni57  1  0.33333333  0.00000000  0.05000000  1.0
  Ni  Ni58  1  0.33333333  0.33333333  0.05000000  1.0
  Ni  Ni59  1  0.33333333  0.66666667  0.05000000  1.0
  Ni  Ni60  1  0.66666667  0.00000000  0.05000000  1.0
  Ni  Ni61  1  0.66666667  0.33333333  0.05000000  1.0
  Ni  Ni62  1  0.66666667  0.66666667  0.05000000  1.0
  Ni  Ni63  1  0.16666667  0.00000000  0.01666667  1.0
  Ni  Ni64  1  0.16666667  0.33333333  0.01666667  1.0
  Ni  Ni65  1  0.16666667  0.66666667  0.01666667  1.0
  Ni  Ni66  1  0.50000000  0.00000000  0.01666667  1.0
  Ni  Ni67  1  0.50000000  0.33333333  0.01666667  1.0
  Ni  Ni68  1  0.50000000  0.66666667  0.01666667  1.0
  Ni  Ni69  1  0.83333333  0.00000000  0.01666667  1.0
  Ni  Ni70  1  0.83333333  0.33333333  0.01666667  1.0
  Ni  Ni71  1  0.83333333  0.66666667  0.01666667  1.0
  Cu  Cu72  1  0.08333333  0.25169500  0.08367233  1.0
  Cu  Cu73  1  0.08333333  0.58502833  0.08367233  1.0
  Cu  Cu74  1  0.08333333  0.91836167  0.08367233  1.0
  Cu  Cu75  1  0.41666667  0.25169500  0.08367233  1.0
  Cu  Cu76  1  0.41666667  0.58502833  0.08367233  1.0
  Cu  Cu77  1  0.41666667  0.91836167  0.08367233  1.0
  Cu  Cu78  1  0.75000000  0.25169500  0.08367233  1.0
  Cu  Cu79  1  0.75000000  0.58502833  0.08367233  1.0
  Cu  Cu80  1  0.75000000  0.91836167  0.08367233  1.0
  Cu  Cu81  1  0.25000000  0.25169500  0.11700567  1.0
  Cu  Cu82  1  0.25000000  0.58502833  0.11700567  1.0
  Cu  Cu83  1  0.25000000  0.91836167  0.11700567  1.0
  Cu  Cu84  1  0.58333333  0.25169500  0.11700567  1.0
  Cu  Cu85  1  0.58333333  0.58502833  0.11700567  1.0
  Cu  Cu86  1  0.58333333  0.91836167  0.11700567  1.0
  Cu  Cu87  1  0.91666667  0.25169500  0.11700567  1.0
  Cu  Cu88  1  0.91666667  0.58502833  0.11700567  1.0
  Cu  Cu89  1  0.91666667  0.91836167  0.11700567  1.0
  Cu  Cu90  1  0.00000000  0.16666667  0.08333333  1.0
  Cu  Cu91  1  0.00000000  0.50000000  0.08333333  1.0
  Cu  Cu92  1  0.00000000  0.83333333  0.08333333  1.0
  Cu  Cu93  1  0.33333333  0.16666667  0.08333333  1.0
  Cu  Cu94  1  0.33333333  0.50000000  0.08333333  1.0
  Cu  Cu95  1  0.33333333  0.83333333  0.08333333  1.0
  Cu  Cu96  1  0.66666667  0.16666667  0.08333333  1.0
  Cu  Cu97  1  0.66666667  0.50000000  0.08333333  1.0
  Cu  Cu98  1  0.66666667  0.83333333  0.08333333  1.0
  Cu  Cu99  1  0.16666667  0.16666667  0.11666667  1.0
  Cu  Cu100  1  0.16666667  0.50000000  0.11666667  1.0
  Cu  Cu101  1  0.16666667  0.83333333  0.11666667  1.0
  Cu  Cu102  1  0.50000000  0.16666667  0.11666667  1.0
  Cu  Cu103  1  0.50000000  0.50000000  0.11666667  1.0
  Cu  Cu104  1  0.50000000  0.83333333  0.11666667  1.0
  Cu  Cu105  1  0.83333333  0.16666667  0.11666667  1.0
  Cu  Cu106  1  0.83333333  0.50000000  0.11666667  1.0
  Cu  Cu107  1  0.83333333  0.83333333  0.11666667  1.0
  Cu  Cu108  1  0.08333333  0.08163833  0.11632767  1.0
  Cu  Cu109  1  0.08333333  0.41497167  0.11632767  1.0
  Cu  Cu110  1  0.08333333  0.74830500  0.11632767  1.0
  Cu  Cu111  1  0.41666667  0.08163833  0.11632767  1.0
  Cu  Cu112  1  0.41666667  0.41497167  0.11632767  1.0
  Cu  Cu113  1  0.41666667  0.74830500  0.11632767  1.0
  Cu  Cu114  1  0.75000000  0.08163833  0.11632767  1.0
  Cu  Cu115  1  0.75000000  0.41497167  0.11632767  1.0
  Cu  Cu116  1  0.75000000  0.74830500  0.11632767  1.0
  Cu  Cu117  1  0.25000000  0.08163833  0.08299433  1.0
  Cu  Cu118  1  0.25000000  0.41497167  0.08299433  1.0
  Cu  Cu119  1  0.25000000  0.74830500  0.08299433  1.0
  Cu  Cu120  1  0.58333333  0.08163833  0.08299433  1.0
  Cu  Cu121  1  0.58333333  0.41497167  0.08299433  1.0
  Cu  Cu122  1  0.58333333  0.74830500  0.08299433  1.0
  Cu  Cu123  1  0.91666667  0.08163833  0.08299433  1.0
  Cu  Cu124  1  0.91666667  0.41497167  0.08299433  1.0
  Cu  Cu125  1  0.91666667  0.74830500  0.08299433  1.0
  Ni  Ni126  1  0.00000000  0.00000000  0.11666667  1.0
  Ni  Ni127  1  0.00000000  0.33333333  0.11666667  1.0
  Ni  Ni128  1  0.00000000  0.66666667  0.11666667  1.0
  Ni  Ni129  1  0.33333333  0.00000000  0.11666667  1.0
  Ni  Ni130  1  0.33333333  0.33333333  0.11666667  1.0
  Ni  Ni131  1  0.33333333  0.66666667  0.11666667  1.0
  Ni  Ni132  1  0.66666667  0.00000000  0.11666667  1.0
  Ni  Ni133  1  0.66666667  0.33333333  0.11666667  1.0
  Ni  Ni134  1  0.66666667  0.66666667  0.11666667  1.0
  Ni  Ni135  1  0.16666667  0.00000000  0.08333333  1.0
  Ni  Ni136  1  0.16666667  0.33333333  0.08333333  1.0
  Ni  Ni137  1  0.16666667  0.66666667  0.08333333  1.0
  Ni  Ni138  1  0.50000000  0.00000000  0.08333333  1.0
  Ni  Ni139  1  0.50000000  0.33333333  0.08333333  1.0
  Ni  Ni140  1  0.50000000  0.66666667  0.08333333  1.0
  Ni  Ni141  1  0.83333333  0.00000000  0.08333333  1.0
  Ni  Ni142  1  0.83333333  0.33333333  0.08333333  1.0
  Ni  Ni143  1  0.83333333  0.66666667  0.08333333  1.0
  Cu  Cu144  1  0.08333333  0.25169500  0.15033900  1.0
  Cu  Cu145  1  0.08333333  0.58502833  0.15033900  1.0
  Cu  Cu146  1  0.08333333  0.91836167  0.15033900  1.0
  Cu  Cu147  1  0.41666667  0.25169500  0.15033900  1.0
  Cu  Cu148  1  0.41666667  0.58502833  0.15033900  1.0
  Cu  Cu149  1  0.41666667  0.91836167  0.15033900  1.0
  Cu  Cu150  1  0.75000000  0.25169500  0.15033900  1.0
  Cu  Cu151  1  0.75000000  0.58502833  0.15033900  1.0
  Cu  Cu152  1  0.75000000  0.91836167  0.15033900  1.0
  Cu  Cu153  1  0.25000000  0.25169500  0.18367233  1.0
  Cu  Cu154  1  0.25000000  0.58502833  0.18367233  1.0
  Cu  Cu155  1  0.25000000  0.91836167  0.18367233  1.0
  Cu  Cu156  1  0.58333333  0.25169500  0.18367233  1.0
  Cu  Cu157  1  0.58333333  0.58502833  0.18367233  1.0
  Cu  Cu158  1  0.58333333  0.91836167  0.18367233  1.0
  Cu  Cu159  1  0.91666667  0.25169500  0.18367233  1.0
  Cu  Cu160  1  0.91666667  0.58502833  0.18367233  1.0
  Cu  Cu161  1  0.91666667  0.91836167  0.18367233  1.0
  Cu  Cu162  1  0.00000000  0.16666667  0.15000000  1.0
  Cu  Cu163  1  0.00000000  0.50000000  0.15000000  1.0
  Cu  Cu164  1  0.00000000  0.83333333  0.15000000  1.0
  Cu  Cu165  1  0.33333333  0.16666667  0.15000000  1.0
  Cu  Cu166  1  0.33333333  0.50000000  0.15000000  1.0
  Cu  Cu167  1  0.33333333  0.83333333  0.15000000  1.0
  Cu  Cu168  1  0.66666667  0.16666667  0.15000000  1.0
  Cu  Cu169  1  0.66666667  0.50000000  0.15000000  1.0
  Cu  Cu170  1  0.66666667  0.83333333  0.15000000  1.0
  Cu  Cu171  1  0.16666667  0.16666667  0.18333333  1.0
  Cu  Cu172  1  0.16666667  0.50000000  0.18333333  1.0
  Cu  Cu173  1  0.16666667  0.83333333  0.18333333  1.0
  Cu  Cu174  1  0.50000000  0.16666667  0.18333333  1.0
  Cu  Cu175  1  0.50000000  0.50000000  0.18333333  1.0
  Cu  Cu176  1  0.50000000  0.83333333  0.18333333  1.0
  Cu  Cu177  1  0.83333333  0.16666667  0.18333333  1.0
  Cu  Cu178  1  0.83333333  0.50000000  0.18333333  1.0
  Cu  Cu179  1  0.83333333  0.83333333  0.18333333  1.0
  Cu  Cu180  1  0.08333333  0.08163833  0.18299433  1.0
  Cu  Cu181  1  0.08333333  0.41497167  0.18299433  1.0
  Cu  Cu182  1  0.08333333  0.74830500  0.18299433  1.0
  Cu  Cu183  1  0.41666667  0.08163833  0.18299433  1.0
  Cu  Cu184  1  0.41666667  0.41497167  0.18299433  1.0
  Cu  Cu185  1  0.41666667  0.74830500  0.18299433  1.0
  Cu  Cu186  1  0.75000000  0.08163833  0.18299433  1.0
  Cu  Cu187  1  0.75000000  0.41497167  0.18299433  1.0
  Cu  Cu188  1  0.75000000  0.74830500  0.18299433  1.0
  Cu  Cu189  1  0.25000000  0.08163833  0.14966100  1.0
  Cu  Cu190  1  0.25000000  0.41497167  0.14966100  1.0
  Cu  Cu191  1  0.25000000  0.74830500  0.14966100  1.0
  Cu  Cu192  1  0.58333333  0.08163833  0.14966100  1.0
  Cu  Cu193  1  0.58333333  0.41497167  0.14966100  1.0
  Cu  Cu194  1  0.58333333  0.74830500  0.14966100  1.0
  Cu  Cu195  1  0.91666667  0.08163833  0.14966100  1.0
  Cu  Cu196  1  0.91666667  0.41497167  0.14966100  1.0
  Cu  Cu197  1  0.91666667  0.74830500  0.14966100  1.0
  Ni  Ni198  1  0.00000000  0.00000000  0.18333333  1.0
  Ni  Ni199  1  0.00000000  0.33333333  0.18333333  1.0
  Ni  Ni200  1  0.00000000  0.66666667  0.18333333  1.0
  Ni  Ni201  1  0.33333333  0.00000000  0.18333333  1.0
  Ni  Ni202  1  0.33333333  0.33333333  0.18333333  1.0
  Ni  Ni203  1  0.33333333  0.66666667  0.18333333  1.0
  Ni  Ni204  1  0.66666667  0.00000000  0.18333333  1.0
  Ni  Ni205  1  0.66666667  0.33333333  0.18333333  1.0
  Ni  Ni206  1  0.66666667  0.66666667  0.18333333  1.0
  Ni  Ni207  1  0.16666667  0.00000000  0.15000000  1.0
  Ni  Ni208  1  0.16666667  0.33333333  0.15000000  1.0
  Ni  Ni209  1  0.16666667  0.66666667  0.15000000  1.0
  Ni  Ni210  1  0.50000000  0.00000000  0.15000000  1.0
  Ni  Ni211  1  0.50000000  0.33333333  0.15000000  1.0
  Ni  Ni212  1  0.50000000  0.66666667  0.15000000  1.0
  Ni  Ni213  1  0.83333333  0.00000000  0.15000000  1.0
  Ni  Ni214  1  0.83333333  0.33333333  0.15000000  1.0
  Ni  Ni215  1  0.83333333  0.66666667  0.15000000  1.0
  Cu  Cu216  1  0.08333333  0.25169500  0.21700567  1.0
  Cu  Cu217  1  0.08333333  0.58502833  0.21700567  1.0
  Cu  Cu218  1  0.08333333  0.91836167  0.21700567  1.0
  Cu  Cu219  1  0.41666667  0.25169500  0.21700567  1.0
  Cu  Cu220  1  0.41666667  0.58502833  0.21700567  1.0
  Cu  Cu221  1  0.41666667  0.91836167  0.21700567  1.0
  Cu  Cu222  1  0.75000000  0.25169500  0.21700567  1.0
  Cu  Cu223  1  0.75000000  0.58502833  0.21700567  1.0
  Cu  Cu224  1  0.75000000  0.91836167  0.21700567  1.0
  Cu  Cu225  1  0.25000000  0.25169500  0.25033900  1.0
  Cu  Cu226  1  0.25000000  0.58502833  0.25033900  1.0
  Cu  Cu227  1  0.25000000  0.91836167  0.25033900  1.0
  Cu  Cu228  1  0.58333333  0.25169500  0.25033900  1.0
  Cu  Cu229  1  0.58333333  0.58502833  0.25033900  1.0
  Cu  Cu230  1  0.58333333  0.91836167  0.25033900  1.0
  Cu  Cu231  1  0.91666667  0.25169500  0.25033900  1.0
  Cu  Cu232  1  0.91666667  0.58502833  0.25033900  1.0
  Cu  Cu233  1  0.91666667  0.91836167  0.25033900  1.0
  Cu  Cu234  1  0.00000000  0.16666667  0.21666667  1.0
  Cu  Cu235  1  0.00000000  0.50000000  0.21666667  1.0
  Cu  Cu236  1  0.00000000  0.83333333  0.21666667  1.0
  Cu  Cu237  1  0.33333333  0.16666667  0.21666667  1.0
  Cu  Cu238  1  0.33333333  0.50000000  0.21666667  1.0
  Cu  Cu239  1  0.33333333  0.83333333  0.21666667  1.0
  Cu  Cu240  1  0.66666667  0.16666667  0.21666667  1.0
  Cu  Cu241  1  0.66666667  0.50000000  0.21666667  1.0
  Cu  Cu242  1  0.66666667  0.83333333  0.21666667  1.0
  Cu  Cu243  1  0.16666667  0.16666667  0.25000000  1.0
  Cu  Cu244  1  0.16666667  0.50000000  0.25000000  1.0
  Cu  Cu245  1  0.16666667  0.83333333  0.25000000  1.0
  Cu  Cu246  1  0.50000000  0.16666667  0.25000000  1.0
  Cu  Cu247  1  0.50000000  0.50000000  0.25000000  1.0
  Cu  Cu248  1  0.50000000  0.83333333  0.25000000  1.0
  Cu  Cu249  1  0.83333333  0.16666667  0.25000000  1.0
  Cu  Cu250  1  0.83333333  0.50000000  0.25000000  1.0
  Cu  Cu251  1  0.83333333  0.83333333  0.25000000  1.0
  Cu  Cu252  1  0.08333333  0.08163833  0.24966100  1.0
  Cu  Cu253  1  0.08333333  0.41497167  0.24966100  1.0
  Cu  Cu254  1  0.08333333  0.74830500  0.24966100  1.0
  Cu  Cu255  1  0.41666667  0.08163833  0.24966100  1.0
  Cu  Cu256  1  0.41666667  0.41497167  0.24966100  1.0
  Cu  Cu257  1  0.41666667  0.74830500  0.24966100  1.0
  Cu  Cu258  1  0.75000000  0.08163833  0.24966100  1.0
  Cu  Cu259  1  0.75000000  0.41497167  0.24966100  1.0
  Cu  Cu260  1  0.75000000  0.74830500  0.24966100  1.0
  Cu  Cu261  1  0.25000000  0.08163833  0.21632767  1.0
  Cu  Cu262  1  0.25000000  0.41497167  0.21632767  1.0
  Cu  Cu263  1  0.25000000  0.74830500  0.21632767  1.0
  Cu  Cu264  1  0.58333333  0.08163833  0.21632767  1.0
  Cu  Cu265  1  0.58333333  0.41497167  0.21632767  1.0
  Cu  Cu266  1  0.58333333  0.74830500  0.21632767  1.0
  Cu  Cu267  1  0.91666667  0.08163833  0.21632767  1.0
  Cu  Cu268  1  0.91666667  0.41497167  0.21632767  1.0
  Cu  Cu269  1  0.91666667  0.74830500  0.21632767  1.0
  Ni  Ni270  1  0.00000000  0.00000000  0.25000000  1.0
  Ni  Ni271  1  0.00000000  0.33333333  0.25000000  1.0
  Ni  Ni272  1  0.00000000  0.66666667  0.25000000  1.0
  Ni  Ni273  1  0.33333333  0.00000000  0.25000000  1.0
  Ni  Ni274  1  0.33333333  0.33333333  0.25000000  1.0
  Ni  Ni275  1  0.33333333  0.66666667  0.25000000  1.0
  Ni  Ni276  1  0.66666667  0.00000000  0.25000000  1.0
  Ni  Ni277  1  0.66666667  0.33333333  0.25000000  1.0
  Ni  Ni278  1  0.66666667  0.66666667  0.25000000  1.0
  Ni  Ni279  1  0.16666667  0.00000000  0.21666667  1.0
  Ni  Ni280  1  0.16666667  0.33333333  0.21666667  1.0
  Ni  Ni281  1  0.16666667  0.66666667  0.21666667  1.0
  Ni  Ni282  1  0.50000000  0.00000000  0.21666667  1.0
  Ni  Ni283  1  0.50000000  0.33333333  0.21666667  1.0
  Ni  Ni284  1  0.50000000  0.66666667  0.21666667  1.0
  Ni  Ni285  1  0.83333333  0.00000000  0.21666667  1.0
  Ni  Ni286  1  0.83333333  0.33333333  0.21666667  1.0
  Ni  Ni287  1  0.83333333  0.66666667  0.21666667  1.0
  Cu  Cu288  1  0.08333333  0.25169500  0.28367233  1.0
  Cu  Cu289  1  0.08333333  0.58502833  0.28367233  1.0
  Cu  Cu290  1  0.08333333  0.91836167  0.28367233  1.0
  Cu  Cu291  1  0.41666667  0.25169500  0.28367233  1.0
  Cu  Cu292  1  0.41666667  0.58502833  0.28367233  1.0
  Cu  Cu293  1  0.41666667  0.91836167  0.28367233  1.0
  Cu  Cu294  1  0.75000000  0.25169500  0.28367233  1.0
  Cu  Cu295  1  0.75000000  0.58502833  0.28367233  1.0
  Cu  Cu296  1  0.75000000  0.91836167  0.28367233  1.0
  Cu  Cu297  1  0.25000000  0.25169500  0.31700567  1.0
  Cu  Cu298  1  0.25000000  0.58502833  0.31700567  1.0
  Cu  Cu299  1  0.25000000  0.91836167  0.31700567  1.0
  Cu  Cu300  1  0.58333333  0.25169500  0.31700567  1.0
  Cu  Cu301  1  0.58333333  0.58502833  0.31700567  1.0
  Cu  Cu302  1  0.58333333  0.91836167  0.31700567  1.0
  Cu  Cu303  1  0.91666667  0.25169500  0.31700567  1.0
  Cu  Cu304  1  0.91666667  0.58502833  0.31700567  1.0
  Cu  Cu305  1  0.91666667  0.91836167  0.31700567  1.0
  Cu  Cu306  1  0.00000000  0.16666667  0.28333333  1.0
  Cu  Cu307  1  0.00000000  0.50000000  0.28333333  1.0
  Cu  Cu308  1  0.00000000  0.83333333  0.28333333  1.0
  Cu  Cu309  1  0.33333333  0.16666667  0.28333333  1.0
  Cu  Cu310  1  0.33333333  0.50000000  0.28333333  1.0
  Cu  Cu311  1  0.33333333  0.83333333  0.28333333  1.0
  Cu  Cu312  1  0.66666667  0.16666667  0.28333333  1.0
  Cu  Cu313  1  0.66666667  0.50000000  0.28333333  1.0
  Cu  Cu314  1  0.66666667  0.83333333  0.28333333  1.0
  Cu  Cu315  1  0.16666667  0.16666667  0.31666667  1.0
  Cu  Cu316  1  0.16666667  0.50000000  0.31666667  1.0
  Cu  Cu317  1  0.16666667  0.83333333  0.31666667  1.0
  Cu  Cu318  1  0.50000000  0.16666667  0.31666667  1.0
  Cu  Cu319  1  0.50000000  0.50000000  0.31666667  1.0
  Cu  Cu320  1  0.50000000  0.83333333  0.31666667  1.0
  Cu  Cu321  1  0.83333333  0.16666667  0.31666667  1.0
  Cu  Cu322  1  0.83333333  0.50000000  0.31666667  1.0
  Cu  Cu323  1  0.83333333  0.83333333  0.31666667  1.0
  Cu  Cu324  1  0.08333333  0.08163833  0.31632767  1.0
  Cu  Cu325  1  0.08333333  0.41497167  0.31632767  1.0
  Cu  Cu326  1  0.08333333  0.74830500  0.31632767  1.0
  Cu  Cu327  1  0.41666667  0.08163833  0.31632767  1.0
  Cu  Cu328  1  0.41666667  0.41497167  0.31632767  1.0
  Cu  Cu329  1  0.41666667  0.74830500  0.31632767  1.0
  Cu  Cu330  1  0.75000000  0.08163833  0.31632767  1.0
  Cu  Cu331  1  0.75000000  0.41497167  0.31632767  1.0
  Cu  Cu332  1  0.75000000  0.74830500  0.31632767  1.0
  Cu  Cu333  1  0.25000000  0.08163833  0.28299433  1.0
  Cu  Cu334  1  0.25000000  0.41497167  0.28299433  1.0
  Cu  Cu335  1  0.25000000  0.74830500  0.28299433  1.0
  Cu  Cu336  1  0.58333333  0.08163833  0.28299433  1.0
  Cu  Cu337  1  0.58333333  0.41497167  0.28299433  1.0
  Cu  Cu338  1  0.58333333  0.74830500  0.28299433  1.0
  Cu  Cu339  1  0.91666667  0.08163833  0.28299433  1.0
  Cu  Cu340  1  0.91666667  0.41497167  0.28299433  1.0
  Cu  Cu341  1  0.91666667  0.74830500  0.28299433  1.0
  Ni  Ni342  1  0.00000000  0.00000000  0.31666667  1.0
  Ni  Ni343  1  0.00000000  0.33333333  0.31666667  1.0
  Ni  Ni344  1  0.00000000  0.66666667  0.31666667  1.0
  Ni  Ni345  1  0.33333333  0.00000000  0.31666667  1.0
  Ni  Ni346  1  0.33333333  0.33333333  0.31666667  1.0
  Ni  Ni347  1  0.33333333  0.66666667  0.31666667  1.0
  Ni  Ni348  1  0.66666667  0.00000000  0.31666667  1.0
  Ni  Ni349  1  0.66666667  0.33333333  0.31666667  1.0
  Ni  Ni350  1  0.66666667  0.66666667  0.31666667  1.0
  Ni  Ni351  1  0.16666667  0.00000000  0.28333333  1.0
  Ni  Ni352  1  0.16666667  0.33333333  0.28333333  1.0
  Ni  Ni353  1  0.16666667  0.66666667  0.28333333  1.0
  Ni  Ni354  1  0.50000000  0.00000000  0.28333333  1.0
  Ni  Ni355  1  0.50000000  0.33333333  0.28333333  1.0
  Ni  Ni356  1  0.50000000  0.66666667  0.28333333  1.0
  Ni  Ni357  1  0.83333333  0.00000000  0.28333333  1.0
  Ni  Ni358  1  0.83333333  0.33333333  0.28333333  1.0
  Ni  Ni359  1  0.83333333  0.66666667  0.28333333  1.0
  Cu  Cu360  1  0.08333333  0.25169500  0.35033900  1.0
  Cu  Cu361  1  0.08333333  0.58502833  0.35033900  1.0
  Cu  Cu362  1  0.08333333  0.91836167  0.35033900  1.0
  Cu  Cu363  1  0.41666667  0.25169500  0.35033900  1.0
  Cu  Cu364  1  0.41666667  0.58502833  0.35033900  1.0
  Cu  Cu365  1  0.41666667  0.91836167  0.35033900  1.0
  Cu  Cu366  1  0.75000000  0.25169500  0.35033900  1.0
  Cu  Cu367  1  0.75000000  0.58502833  0.35033900  1.0
  Cu  Cu368  1  0.75000000  0.91836167  0.35033900  1.0
  Cu  Cu369  1  0.25000000  0.25169500  0.38367233  1.0
  Cu  Cu370  1  0.25000000  0.58502833  0.38367233  1.0
  Cu  Cu371  1  0.25000000  0.91836167  0.38367233  1.0
  Cu  Cu372  1  0.58333333  0.25169500  0.38367233  1.0
  Cu  Cu373  1  0.58333333  0.58502833  0.38367233  1.0
  Cu  Cu374  1  0.58333333  0.91836167  0.38367233  1.0
  Cu  Cu375  1  0.91666667  0.25169500  0.38367233  1.0
  Cu  Cu376  1  0.91666667  0.58502833  0.38367233  1.0
  Cu  Cu377  1  0.91666667  0.91836167  0.38367233  1.0
  Cu  Cu378  1  0.00000000  0.16666667  0.35000000  1.0
  Cu  Cu379  1  0.00000000  0.50000000  0.35000000  1.0
  Cu  Cu380  1  0.00000000  0.83333333  0.35000000  1.0
  Cu  Cu381  1  0.33333333  0.16666667  0.35000000  1.0
  Cu  Cu382  1  0.33333333  0.50000000  0.35000000  1.0
  Cu  Cu383  1  0.33333333  0.83333333  0.35000000  1.0
  Cu  Cu384  1  0.66666667  0.16666667  0.35000000  1.0
  Cu  Cu385  1  0.66666667  0.50000000  0.35000000  1.0
  Cu  Cu386  1  0.66666667  0.83333333  0.35000000  1.0
  Cu  Cu387  1  0.16666667  0.16666667  0.38333333  1.0
  Cu  Cu388  1  0.16666667  0.50000000  0.38333333  1.0
  Cu  Cu389  1  0.16666667  0.83333333  0.38333333  1.0
  Cu  Cu390  1  0.50000000  0.16666667  0.38333333  1.0
  Cu  Cu391  1  0.50000000  0.50000000  0.38333333  1.0
  Cu  Cu392  1  0.50000000  0.83333333  0.38333333  1.0
  Cu  Cu393  1  0.83333333  0.16666667  0.38333333  1.0
  Cu  Cu394  1  0.83333333  0.50000000  0.38333333  1.0
  Cu  Cu395  1  0.83333333  0.83333333  0.38333333  1.0
  Cu  Cu396  1  0.08333333  0.08163833  0.38299433  1.0
  Cu  Cu397  1  0.08333333  0.41497167  0.38299433  1.0
  Cu  Cu398  1  0.08333333  0.74830500  0.38299433  1.0
  Cu  Cu399  1  0.41666667  0.08163833  0.38299433  1.0
  Cu  Cu400  1  0.41666667  0.41497167  0.38299433  1.0
  Cu  Cu401  1  0.41666667  0.74830500  0.38299433  1.0
  Cu  Cu402  1  0.75000000  0.08163833  0.38299433  1.0
  Cu  Cu403  1  0.75000000  0.41497167  0.38299433  1.0
  Cu  Cu404  1  0.75000000  0.74830500  0.38299433  1.0
  Cu  Cu405  1  0.25000000  0.08163833  0.34966100  1.0
  Cu  Cu406  1  0.25000000  0.41497167  0.34966100  1.0
  Cu  Cu407  1  0.25000000  0.74830500  0.34966100  1.0
  Cu  Cu408  1  0.58333333  0.08163833  0.34966100  1.0
  Cu  Cu409  1  0.58333333  0.41497167  0.34966100  1.0
  Cu  Cu410  1  0.58333333  0.74830500  0.34966100  1.0
  Cu  Cu411  1  0.91666667  0.08163833  0.34966100  1.0
  Cu  Cu412  1  0.91666667  0.41497167  0.34966100  1.0
  Cu  Cu413  1  0.91666667  0.74830500  0.34966100  1.0
  Ni  Ni414  1  0.00000000  0.00000000  0.38333333  1.0
  Ni  Ni415  1  0.00000000  0.33333333  0.38333333  1.0
  Ni  Ni416  1  0.00000000  0.66666667  0.38333333  1.0
  Ni  Ni417  1  0.33333333  0.00000000  0.38333333  1.0
  Ni  Ni418  1  0.33333333  0.33333333  0.38333333  1.0
  Ni  Ni419  1  0.33333333  0.66666667  0.38333333  1.0
  Ni  Ni420  1  0.66666667  0.00000000  0.38333333  1.0
  Ni  Ni421  1  0.66666667  0.33333333  0.38333333  1.0
  Ni  Ni422  1  0.66666667  0.66666667  0.38333333  1.0
  Ni  Ni423  1  0.16666667  0.00000000  0.35000000  1.0
  Ni  Ni424  1  0.16666667  0.33333333  0.35000000  1.0
  Ni  Ni425  1  0.16666667  0.66666667  0.35000000  1.0
  Ni  Ni426  1  0.50000000  0.00000000  0.35000000  1.0
  Ni  Ni427  1  0.50000000  0.33333333  0.35000000  1.0
  Ni  Ni428  1  0.50000000  0.66666667  0.35000000  1.0
  Ni  Ni429  1  0.83333333  0.00000000  0.35000000  1.0
  Ni  Ni430  1  0.83333333  0.33333333  0.35000000  1.0
  Ni  Ni431  1  0.83333333  0.66666667  0.35000000  1.0
