# generated using pymatgen
data_Cu3Ni
_symmetry_space_group_name_H-M   'P 1'
_cell_length_a   14.04187536
_cell_length_b   25.38087151
_cell_length_c   29.13710427
_cell_angle_alpha   98.19171620
_cell_angle_beta   90.22900598
_cell_angle_gamma   104.65497220
_symmetry_Int_Tables_number   1
_chemical_formula_structural   Cu3Ni
_chemical_formula_sum   'Cu270 Ni90'
_cell_volume   9935.28019852
_cell_formula_units_Z   90
loop_
 _symmetry_equiv_pos_site_id
 _symmetry_equiv_pos_as_xyz
  1  'x, y, z'
loop_
 _atom_site_type_symbol
 _atom_site_label
 _atom_site_symmetry_multiplicity
 _atom_site_fract_x
 _atom_site_fract_y
 _atom_site_fract_z
 _atom_site_occupancy
  Cu  Cu0  1  0.10168899  0.08163833  0.06739052  1.0
  Cu  Cu1  1  0.10168899  0.41497167  0.06739052  1.0
  Cu  Cu2  1  0.10168899  0.74830500  0.06739052  1.0
  Cu  Cu3  1  0.43502233  0.08163833  0.06739052  1.0
  Cu  Cu4  1  0.43502233  0.41497167  0.06739052  1.0
  Cu  Cu5  1  0.43502233  0.74830500  0.06739052  1.0
  Cu  Cu6  1  0.76835566  0.08163833  0.06739052  1.0
  Cu  Cu7  1  0.76835566  0.41497167  0.06739052  1.0
  Cu  Cu8  1  0.76835566  0.74830500  0.06739052  1.0
  Cu  Cu9  1  0.28224455  0.08163833  0.02572385  1.0
  Cu  Cu10  1  0.28224455  0.41497167  0.02572385  1.0
  Cu  Cu11  1  0.28224455  0.74830500  0.02572385  1.0
  Cu  Cu12  1  0.61557788  0.08163833  0.02572385  1.0
  Cu  Cu13  1  0.61557788  0.41497167  0.02572385  1.0
  Cu  Cu14  1  0.61557788  0.74830500  0.02572385  1.0
  Cu  Cu15  1  0.94891122  0.08163833  0.02572385  1.0
  Cu  Cu16  1  0.94891122  0.41497167  0.02572385  1.0
  Cu  Cu17  1  0.94891122  0.74830500  0.02572385  1.0
  Cu  Cu18  1  0.07816031  0.16666667  0.01551906  1.0
  Cu  Cu19  1  0.07816031  0.50000000  0.01551906  1.0
  Cu  Cu20  1  0.07816031  0.83333333  0.01551906  1.0
  Cu  Cu21  1  0.41149365  0.16666667  0.01551906  1.0
  Cu  Cu22  1  0.41149365  0.50000000  0.01551906  1.0
  Cu  Cu23  1  0.41149365  0.83333333  0.01551906  1.0
  Cu  Cu24  1  0.74482698  0.16666667  0.01551906  1.0
  Cu  Cu25  1  0.74482698  0.50000000  0.01551906  1.0
  Cu  Cu26  1  0.74482698  0.83333333  0.01551906  1.0
  Cu  Cu27  1  0.23093809  0.16666667  0.05718573  1.0
  Cu  Cu28  1  0.23093809  0.50000000  0.05718573  1.0
  Cu  Cu29  1  0.23093809  0.83333333  0.05718573  1.0
  Cu  Cu30  1  0.56427142  0.16666667  0.05718573  1.0
  Cu  Cu31  1  0.56427142  0.50000000  0.05718573  1.0
  Cu  Cu32  1  0.56427142  0.83333333  0.05718573  1.0
  Cu  Cu33  1  0.89760476  0.16666667  0.05718573  1.0
  Cu  Cu34  1  0.89760476  0.50000000  0.05718573  1.0
  Cu  Cu35  1  0.89760476  0.83333333  0.05718573  1.0
  Cu  Cu36  1  0.20740941  0.25169500  0.00531427  1.0
  Cu  Cu37  1  0.20740941  0.58502833  0.00531427  1.0
  Cu  Cu38  1  0.20740941  0.91836167  0.00531427  1.0
  Cu  Cu39  1  0.54074274  0.25169500  0.00531427  1.0
  Cu  Cu40  1  0.54074274  0.58502833  0.00531427  1.0
  Cu  Cu41  1  0.54074274  0.91836167  0.00531427  1.0
  Cu  Cu42  1  0.87407608  0.25169500  0.00531427  1.0
  Cu  Cu43  1  0.87407608  0.58502833  0.00531427  1.0
  Cu  Cu44  1  0.87407608  0.91836167  0.00531427  1.0
  Cu  Cu45  1  0.02685385  0.25169500  0.04698094  1.0
  Cu  Cu46  1  0.02685385  0.58502833  0.04698094  1.0
  Cu  Cu47  1  0.02685385  0.91836167  0.04698094  1.0
  Cu  Cu48  1  0.36018719  0.25169500  0.04698094  1.0
  Cu  Cu49  1  0.36018719  0.58502833  0.04698094  1.0
  Cu  Cu50  1  0.36018719  0.91836167  0.04698094  1.0
  Cu  Cu51  1  0.69352052  0.25169500  0.04698094  1.0
  Cu  Cu52  1  0.69352052  0.58502833  0.04698094  1.0
  Cu  Cu53  1  0.69352052  0.91836167  0.04698094  1.0
  Cu  Cu54  1  0.07391122  0.08163833  0.15072385  1.0
  Cu  Cu55  1  0.07391122  0.41497167  0.15072385  1.0
  Cu  Cu56  1  0.07391122  0.74830500  0.15072385  1.0
  Cu  Cu57  1  0.40724455  0.08163833  0.15072385  1.0
  Cu  Cu58  1  0.40724455  0.41497167  0.15072385  1.0
  Cu  Cu59  1  0.40724455  0.74830500  0.15072385  1.0
  Cu  Cu60  1  0.74057788  0.08163833  0.15072385  1.0
  Cu  Cu61  1  0.74057788  0.41497167  0.15072385  1.0
  Cu  Cu62  1  0.74057788  0.74830500  0.15072385  1.0
  Cu  Cu63  1  0.25446677  0.08163833  0.10905719  1.0
  Cu  Cu64  1  0.25446677  0.41497167  0.10905719  1.0
  Cu  Cu65  1  0.25446677  0.74830500  0.10905719  1.0
  Cu  Cu66  1  0.58780010  0.08163833  0.10905719  1.0
  Cu  Cu67  1  0.58780010  0.41497167  0.10905719  1.0
  Cu  Cu68  1  0.58780010  0.74830500  0.10905719  1.0
  Cu  Cu69  1  0.92113344  0.08163833  0.10905719  1.0
  Cu  Cu70  1  0.92113344  0.41497167  0.10905719  1.0
  Cu  Cu71  1  0.92113344  0.74830500  0.10905719  1.0
  Cu  Cu72  1  0.05038253  0.16666667  0.09885240  1.0
  Cu  Cu73  1  0.05038253  0.50000000  0.09885240  1.0
  Cu  Cu74  1  0.05038253  0.83333333  0.09885240  1.0
  Cu  Cu75  1  0.38371587  0.16666667  0.09885240  1.0
  Cu  Cu76  1  0.38371587  0.50000000  0.09885240  1.0
  Cu  Cu77  1  0.38371587  0.83333333  0.09885240  1.0
  Cu  Cu78  1  0.71704920  0.16666667  0.09885240  1.0
  Cu  Cu79  1  0.71704920  0.50000000  0.09885240  1.0
  Cu  Cu80  1  0.71704920  0.83333333  0.09885240  1.0
  Cu  Cu81  1  0.20316031  0.16666667  0.14051906  1.0
  Cu  Cu82  1  0.20316031  0.50000000  0.14051906  1.0
  Cu  Cu83  1  0.20316031  0.83333333  0.14051906  1.0
  Cu  Cu84  1  0.53649365  0.16666667  0.14051906  1.0
  Cu  Cu85  1  0.53649365  0.50000000  0.14051906  1.0
  Cu  Cu86  1  0.53649365  0.83333333  0.14051906  1.0
  Cu  Cu87  1  0.86982698  0.16666667  0.14051906  1.0
  Cu  Cu88  1  0.86982698  0.50000000  0.14051906  1.0
  Cu  Cu89  1  0.86982698  0.83333333  0.14051906  1.0
  Cu  Cu90  1  0.17963163  0.25169500  0.08864760  1.0
  Cu  Cu91  1  0.17963163  0.58502833  0.08864760  1.0
  Cu  Cu92  1  0.17963163  0.91836167  0.08864760  1.0
  Cu  Cu93  1  0.51296497  0.25169500  0.08864760  1.0
  Cu  Cu94  1  0.51296497  0.58502833  0.08864760  1.0
  Cu  Cu95  1  0.51296497  0.91836167  0.08864760  1.0
  Cu  Cu96  1  0.84629830  0.25169500  0.08864760  1.0
  Cu  Cu97  1  0.84629830  0.58502833  0.08864760  1.0
  Cu  Cu98  1  0.84629830  0.91836167  0.08864760  1.0
  Cu  Cu99  1  0.33240941  0.25169500  0.13031427  1.0
  Cu  Cu100  1  0.33240941  0.58502833  0.13031427  1.0
  Cu  Cu101  1  0.33240941  0.91836167  0.13031427  1.0
  Cu  Cu102  1  0.66574274  0.25169500  0.13031427  1.0
  Cu  Cu103  1  0.66574274  0.58502833  0.13031427  1.0
  Cu  Cu104  1  0.66574274  0.91836167  0.13031427  1.0
  Cu  Cu105  1  0.99907608  0.25169500  0.13031427  1.0
  Cu  Cu106  1  0.99907608  0.58502833  0.13031427  1.0
  Cu  Cu107  1  0.99907608  0.91836167  0.13031427  1.0
  Cu  Cu108  1  0.04613344  0.08163833  0.23405719  1.0
  Cu  Cu109  1  0.04613344  0.41497167  0.23405719  1.0
  Cu  Cu110  1  0.04613344  0.74830500  0.23405719  1.0
  Cu  Cu111  1  0.37946677  0.08163833  0.23405719  1.0
  Cu  Cu112  1  0.37946677  0.41497167  0.23405719  1.0
  Cu  Cu113  1  0.37946677  0.74830500  0.23405719  1.0
  Cu  Cu114  1  0.71280010  0.08163833  0.23405719  1.0
  Cu  Cu115  1  0.71280010  0.41497167  0.23405719  1.0
  Cu  Cu116  1  0.71280010  0.74830500  0.23405719  1.0
  Cu  Cu117  1  0.22668899  0.08163833  0.19239052  1.0
  Cu  Cu118  1  0.22668899  0.41497167  0.19239052  1.0
  Cu  Cu119  1  0.22668899  0.74830500  0.19239052  1.0
  Cu  Cu120  1  0.56002233  0.08163833  0.19239052  1.0
  Cu  Cu121  1  0.56002233  0.41497167  0.19239052  1.0
  Cu  Cu122  1  0.56002233  0.74830500  0.19239052  1.0
  Cu  Cu123  1  0.89335566  0.08163833  0.19239052  1.0
  Cu  Cu124  1  0.89335566  0.41497167  0.19239052  1.0
  Cu  Cu125  1  0.89335566  0.74830500  0.19239052  1.0
  Cu  Cu126  1  0.02260476  0.16666667  0.18218573  1.0
  Cu  Cu127  1  0.02260476  0.50000000  0.18218573  1.0
  Cu  Cu128  1  0.02260476  0.83333333  0.18218573  1.0
  Cu  Cu129  1  0.35593809  0.16666667  0.18218573  1.0
  Cu  Cu130  1  0.35593809  0.50000000  0.18218573  1.0
  Cu  Cu131  1  0.35593809  0.83333333  0.18218573  1.0
  Cu  Cu132  1  0.68927142  0.16666667  0.18218573  1.0
  Cu  Cu133  1  0.68927142  0.50000000  0.18218573  1.0
  Cu  Cu134  1  0.68927142  0.83333333  0.18218573  1.0
  Cu  Cu135  1  0.17538253  0.16666667  0.22385240  1.0
  Cu  Cu136  1  0.17538253  0.50000000  0.22385240  1.0
  Cu  Cu137  1  0.17538253  0.83333333  0.22385240  1.0
  Cu  Cu138  1  0.50871587  0.16666667  0.22385240  1.0
  Cu  Cu139  1  0.50871587  0.50000000  0.22385240  1.0
  Cu  Cu140  1  0.50871587  0.83333333  0.22385240  1.0
  Cu  Cu141  1  0.84204920  0.16666667  0.22385240  1.0
  Cu  Cu142  1  0.84204920  0.50000000  0.22385240  1.0
  Cu  Cu143  1  0.84204920  0.83333333  0.22385240  1.0
  Cu  Cu144  1  0.15185385  0.25169500  0.17198094  1.0
  Cu  Cu145  1  0.15185385  0.58502833  0.17198094  1.0
  Cu  Cu146  1  0.15185385  0.91836167  0.17198094  1.0
  Cu  Cu147  1  0.48518719  0.25169500  0.17198094  1.0
  Cu  Cu148  1  0.48518719  0.58502833  0.17198094  1.0
  Cu  Cu149  1  0.48518719  0.91836167  0.17198094  1.0
  Cu  Cu150  1  0.81852052  0.25169500  0.17198094  1.0
  Cu  Cu151  1  0.81852052  0.58502833  0.17198094  1.0
  Cu  Cu152  1  0.81852052  0.91836167  0.17198094  1.0
  Cu  Cu153  1  0.30463163  0.25169500  0.21364760  1.0
  Cu  Cu154  1  0.30463163  0.58502833  0.21364760  1.0
  Cu  Cu155  1  0.30463163  0.91836167  0.21364760  1.0
  Cu  Cu156  1  0.63796497  0.25169500  0.21364760  1.0
  Cu  Cu157  1  0.63796497  0.58502833  0.21364760  1.0
  Cu  Cu158  1  0.63796497  0.91836167  0.21364760  1.0
  Cu  Cu159  1  0.97129830  0.25169500  0.21364760  1.0
  Cu  Cu160  1  0.97129830  0.58502833  0.21364760  1.0
  Cu  Cu161  1  0.97129830  0.91836167  0.21364760  1.0
  Cu  Cu162  1  0.01835566  0.08163833  0.31739052  1.0
  Cu  Cu163  1  0.01835566  0.41497167  0.31739052  1.0
  Cu  Cu164  1  0.01835566  0.74830500  0.31739052  1.0
  Cu  Cu165  1  0.35168899  0.08163833  0.31739052  1.0
  Cu  Cu166  1  0.35168899  0.41497167  0.31739052  1.0
  Cu  Cu167  1  0.35168899  0.74830500  0.31739052  1.0
  Cu  Cu168  1  0.68502233  0.08163833  0.31739052  1.0
  Cu  Cu169  1  0.68502233  0.41497167  0.31739052  1.0
  Cu  Cu170  1  0.68502233  0.74830500  0.31739052  1.0
  Cu  Cu171  1  0.19891122  0.08163833  0.27572385  1.0
  Cu  Cu172  1  0.19891122  0.41497167  0.27572385  1.0
  Cu  Cu173  1  0.19891122  0.74830500  0.27572385  1.0
  Cu  Cu174  1  0.53224455  0.08163833  0.27572385  1.0
  Cu  Cu175  1  0.53224455  0.41497167  0.27572385  1.0
  Cu  Cu176  1  0.53224455  0.74830500  0.27572385  1.0
  Cu  Cu177  1  0.86557788  0.08163833  0.27572385  1.0
  Cu  Cu178  1  0.86557788  0.41497167  0.27572385  1.0
  Cu  Cu179  1  0.86557788  0.74830500  0.27572385  1.0
  Cu  Cu180  1  0.32816031  0.16666667  0.26551906  1.0
  Cu  Cu181  1  0.32816031  0.50000000  0.26551906  1.0
  Cu  Cu182  1  0.32816031  0.83333333  0.26551906  1.0
  Cu  Cu183  1  0.66149365  0.16666667  0.26551906  1.0
  Cu  Cu184  1  0.66149365  0.50000000  0.26551906  1.0
  Cu  Cu185  1  0.66149365  0.83333333  0.26551906  1.0
  Cu  Cu186  1  0.99482698  0.16666667  0.26551906  1.0
  Cu  Cu187  1  0.99482698  0.50000000  0.26551906  1.0
  Cu  Cu188  1  0.99482698  0.83333333  0.26551906  1.0
  Cu  Cu189  1  0.14760476  0.16666667  0.30718573  1.0
  Cu  Cu190  1  0.14760476  0.50000000  0.30718573  1.0
  Cu  Cu191  1  0.14760476  0.83333333  0.30718573  1.0
  Cu  Cu192  1  0.48093809  0.16666667  0.30718573  1.0
  Cu  Cu193  1  0.48093809  0.50000000  0.30718573  1.0
  Cu  Cu194  1  0.48093809  0.83333333  0.30718573  1.0
  Cu  Cu195  1  0.81427142  0.16666667  0.30718573  1.0
  Cu  Cu196  1  0.81427142  0.50000000  0.30718573  1.0
  Cu  Cu197  1  0.81427142  0.83333333  0.30718573  1.0
  Cu  Cu198  1  0.12407608  0.25169500  0.25531427  1.0
  Cu  Cu199  1  0.12407608  0.58502833  0.25531427  1.0
  Cu  Cu200  1  0.12407608  0.91836167  0.25531427  1.0
  Cu  Cu201  1  0.45740941  0.25169500  0.25531427  1.0
  Cu  Cu202  1  0.45740941  0.58502833  0.25531427  1.0
  Cu  Cu203  1  0.45740941  0.91836167  0.25531427  1.0
  Cu  Cu204  1  0.79074274  0.25169500  0.25531427  1.0
  Cu  Cu205  1  0.79074274  0.58502833  0.25531427  1.0
  Cu  Cu206  1  0.79074274  0.91836167  0.25531427  1.0
  Cu  Cu207  1  0.27685385  0.25169500  0.29698094  1.0
  Cu  Cu208  1  0.27685385  0.58502833  0.29698094  1.0
  Cu  Cu209  1  0.27685385  0.91836167  0.29698094  1.0
  Cu  Cu210  1  0.61018719  0.25169500  0.29698094  1.0
  Cu  Cu211  1  0.61018719  0.58502833  0.29698094  1.0
  Cu  Cu212  1  0.61018719  0.91836167  0.29698094  1.0
  Cu  Cu213  1  0.94352052  0.25169500  0.29698094  1.0
  Cu  Cu214  1  0.94352052  0.58502833  0.29698094  1.0
  Cu  Cu215  1  0.94352052  0.91836167  0.29698094  1.0
  Cu  Cu216  1  0.32391122  0.08163833  0.40072385  1.0
  Cu  Cu217  1  0.32391122  0.41497167  0.40072385  1.0
  Cu  Cu218  1  0.32391122  0.74830500  0.40072385  1.0
  Cu  Cu219  1  0.65724455  0.08163833  0.40072385  1.0
  Cu  Cu220  1  0.65724455  0.41497167  0.40072385  1.0
  Cu  Cu221  1  0.65724455  0.74830500  0.40072385  1.0
  Cu  Cu222  1  0.99057788  0.08163833  0.40072385  1.0
  Cu  Cu223  1  0.99057788  0.41497167  0.40072385  1.0
  Cu  Cu224  1  0.99057788  0.74830500  0.40072385  1.0
  Cu  Cu225  1  0.17113344  0.08163833  0.35905719  1.0
  Cu  Cu226  1  0.17113344  0.41497167  0.35905719  1.0
  Cu  Cu227  1  0.17113344  0.74830500  0.35905719  1.0
  Cu  Cu228  1  0.50446677  0.08163833  0.35905719  1.0
  Cu  Cu229  1  0.50446677  0.41497167  0.35905719  1.0
  Cu  Cu230  1  0.50446677  0.74830500  0.35905719  1.0
  Cu  Cu231  1  0.83780010  0.08163833  0.35905719  1.0
  Cu  Cu232  1  0.83780010  0.41497167  0.35905719  1.0
  Cu  Cu233  1  0.83780010  0.74830500  0.35905719  1.0
  Cu  Cu234  1  0.30038253  0.16666667  0.34885240  1.0
  Cu  Cu235  1  0.30038253  0.50000000  0.34885240  1.0
  Cu  Cu236  1  0.30038253  0.83333333  0.34885240  1.0
  Cu  Cu237  1  0.63371587  0.16666667  0.34885240  1.0
  Cu  Cu238  1  0.63371587  0.50000000  0.34885240  1.0
  Cu  Cu239  1  0.63371587  0.83333333  0.34885240  1.0
  Cu  Cu240  1  0.96704920  0.16666667  0.34885240  1.0
  Cu  Cu241  1  0.96704920  0.50000000  0.34885240  1.0
  Cu  Cu242  1  0.96704920  0.83333333  0.34885240  1.0
  Cu  Cu243  1  0.11982698  0.16666667  0.39051906  1.0
  Cu  Cu244  1  0.11982698  0.50000000  0.39051906  1.0
  Cu  Cu245  1  0.11982698  0.83333333  0.39051906  1.0
  Cu  Cu246  1  0.45316031  0.16666667  0.39051906  1.0
  Cu  Cu247  1  0.45316031  0.50000000  0.39051906  1.0
  Cu  Cu248  1  0.45316031  0.83333333  0.39051906  1.0
  Cu  Cu249  1  0.78649365  0.16666667  0.39051906  1.0
  Cu  Cu250  1  0.78649365  0.50000000  0.39051906  1.0
  Cu  Cu251  1  0.78649365  0.83333333  0.39051906  1.0
  Cu  Cu252  1  0.09629830  0.25169500  0.33864760  1.0
  Cu  Cu253  1  0.09629830  0.58502833  0.33864760  1.0
  Cu  Cu254  1  0.09629830  0.91836167  0.33864760  1.0
  Cu  Cu255  1  0.42963163  0.25169500  0.33864760  1.0
  Cu  Cu256  1  0.42963163  0.58502833  0.33864760  1.0
  Cu  Cu257  1  0.42963163  0.91836167  0.33864760  1.0
  Cu  Cu258  1  0.76296497  0.25169500  0.33864760  1.0
  Cu  Cu259  1  0.76296497  0.58502833  0.33864760  1.0
  Cu  Cu260  1  0.76296497  0.91836167  0.33864760  1.0
  Cu  Cu261  1  0.24907608  0.25169500  0.38031427  1.0
  Cu  Cu262  1  0.24907608  0.58502833  0.38031427  1.0
  Cu  Cu263  1  0.24907608  0.91836167  0.38031427  1.0
  Cu  Cu264  1  0.58240941  0.25169500  0.38031427  1.0
  Cu  Cu265  1  0.58240941  0.58502833  0.38031427  1.0
  Cu  Cu266  1  0.58240941  0.91836167  0.38031427  1.0
  Cu  Cu267  1  0.91574274  0.25169500  0.38031427  1.0
  Cu  Cu268  1  0.91574274  0.58502833  0.38031427  1.0
  Cu  Cu269  1  0.91574274  0.91836167  0.38031427  1.0
  Ni  Ni270  1  0.15454920  0.00000000  0.03635240  1.0
  Ni  Ni271  1  0.15454920  0.33333333  0.03635240  1.0
  Ni  Ni272  1  0.15454920  0.66666667  0.03635240  1.0
  Ni  Ni273  1  0.48788253  0.00000000  0.03635240  1.0
  Ni  Ni274  1  0.48788253  0.33333333  0.03635240  1.0
  Ni  Ni275  1  0.48788253  0.66666667  0.03635240  1.0
  Ni  Ni276  1  0.82121587  0.00000000  0.03635240  1.0
  Ni  Ni277  1  0.82121587  0.33333333  0.03635240  1.0
  Ni  Ni278  1  0.82121587  0.66666667  0.03635240  1.0
  Ni  Ni279  1  0.30732698  0.00000000  0.07801906  1.0
  Ni  Ni280  1  0.30732698  0.33333333  0.07801906  1.0
  Ni  Ni281  1  0.30732698  0.66666667  0.07801906  1.0
  Ni  Ni282  1  0.64066031  0.00000000  0.07801906  1.0
  Ni  Ni283  1  0.64066031  0.33333333  0.07801906  1.0
  Ni  Ni284  1  0.64066031  0.66666667  0.07801906  1.0
  Ni  Ni285  1  0.97399365  0.00000000  0.07801906  1.0
  Ni  Ni286  1  0.97399365  0.33333333  0.07801906  1.0
  Ni  Ni287  1  0.97399365  0.66666667  0.07801906  1.0
  Ni  Ni288  1  0.12677142  0.00000000  0.11968573  1.0
  Ni  Ni289  1  0.12677142  0.33333333  0.11968573  1.0
  Ni  Ni290  1  0.12677142  0.66666667  0.11968573  1.0
  Ni  Ni291  1  0.46010476  0.00000000  0.11968573  1.0
  Ni  Ni292  1  0.46010476  0.33333333  0.11968573  1.0
  Ni  Ni293  1  0.46010476  0.66666667  0.11968573  1.0
  Ni  Ni294  1  0.79343809  0.00000000  0.11968573  1.0
  Ni  Ni295  1  0.79343809  0.33333333  0.11968573  1.0
  Ni  Ni296  1  0.79343809  0.66666667  0.11968573  1.0
  Ni  Ni297  1  0.27954920  0.00000000  0.16135240  1.0
  Ni  Ni298  1  0.27954920  0.33333333  0.16135240  1.0
  Ni  Ni299  1  0.27954920  0.66666667  0.16135240  1.0
  Ni  Ni300  1  0.61288253  0.00000000  0.16135240  1.0
  Ni  Ni301  1  0.61288253  0.33333333  0.16135240  1.0
  Ni  Ni302  1  0.61288253  0.66666667  0.16135240  1.0
  Ni  Ni303  1  0.94621587  0.00000000  0.16135240  1.0
  Ni  Ni304  1  0.94621587  0.33333333  0.16135240  1.0
  Ni  Ni305  1  0.94621587  0.66666667  0.16135240  1.0
  Ni  Ni306  1  0.09899365  0.00000000  0.20301906  1.0
  Ni  Ni307  1  0.09899365  0.33333333  0.20301906  1.0
  Ni  Ni308  1  0.09899365  0.66666667  0.20301906  1.0
  Ni  Ni309  1  0.43232698  0.00000000  0.20301906  1.0
  Ni  Ni310  1  0.43232698  0.33333333  0.20301906  1.0
  Ni  Ni311  1  0.43232698  0.66666667  0.20301906  1.0
  Ni  Ni312  1  0.76566031  0.00000000  0.20301906  1.0
  Ni  Ni313  1  0.76566031  0.33333333  0.20301906  1.0
  Ni  Ni314  1  0.76566031  0.66666667  0.20301906  1.0
  Ni  Ni315  1  0.25177142  0.00000000  0.24468573  1.0
  Ni  Ni316  1  0.25177142  0.33333333  0.24468573  1.0
  Ni  Ni317  1  0.25177142  0.66666667  0.24468573  1.0
  Ni  Ni318  1  0.58510476  0.00000000  0.24468573  1.0
  Ni  Ni319  1  0.58510476  0.33333333  0.24468573  1.0
  Ni  Ni320  1  0.58510476  0.66666667  0.24468573  1.0
  Ni  Ni321  1  0.91843809  0.00000000  0.24468573  1.0
  Ni  Ni322  1  0.91843809  0.33333333  0.24468573  1.0
  Ni  Ni323  1  0.91843809  0.66666667  0.24468573  1.0
  Ni  Ni324  1  0.07121587  0.00000000  0.28635240  1.0
  Ni  Ni325  1  0.07121587  0.33333333  0.28635240  1.0
  Ni  Ni326  1  0.07121587  0.66666667  0.28635240  1.0
  Ni  Ni327  1  0.40454920  0.00000000  0.28635240  1.0
  Ni  Ni328  1  0.40454920  0.33333333  0.28635240  1.0
  Ni  Ni329  1  0.40454920  0.66666667  0.28635240  1.0
  Ni  Ni330  1  0.73788253  0.00000000  0.28635240  1.0
  Ni  Ni331  1  0.73788253  0.33333333  0.28635240  1.0
  Ni  Ni332  1  0.73788253  0.66666667  0.28635240  1.0
  Ni  Ni333  1  0.22399365  0.00000000  0.32801906  1.0
  Ni  Ni334  1  0.22399365  0.33333333  0.32801906  1.0
  Ni  Ni335  1  0.22399365  0.66666667  0.32801906  1.0
  Ni  Ni336  1  0.55732698  0.00000000  0.32801906  1.0
  Ni  Ni337  1  0.55732698  0.33333333  0.32801906  1.0
  Ni  Ni338  1  0.55732698  0.66666667  0.32801906  1.0
  Ni  Ni339  1  0.89066031  0.00000000  0.32801906  1.0
  Ni  Ni340  1  0.89066031  0.33333333  0.32801906  1.0
  Ni  Ni341  1  0.89066031  0.66666667  0.32801906  1.0
  Ni  Ni342  1  0.04343809  0.00000000  0.36968573  1.0
  Ni  Ni343  1  0.04343809  0.33333333  0.36968573  1.0
  Ni  Ni344  1  0.04343809  0.66666667  0.36968573  1.0
  Ni  Ni345  1  0.37677142  0.00000000  0.36968573  1.0
  Ni  Ni346  1  0.37677142  0.33333333  0.36968573  1.0
  Ni  Ni347  1  0.37677142  0.66666667  0.36968573  1.0
  Ni  Ni348  1  0.71010476  0.00000000  0.36968573  1.0
  Ni  Ni349  1  0.71010476  0.33333333  0.36968573  1.0
  Ni  Ni350  1  0.71010476  0.66666667  0.36968573  1.0
  Ni  Ni351  1  0.19621587  0.00000000  0.41135240  1.0
  Ni  Ni352  1  0.19621587  0.33333333  0.41135240  1.0
  Ni  Ni353  1  0.19621587  0.66666667  0.41135240  1.0
  Ni  Ni354  1  0.52954920  0.00000000  0.41135240  1.0
  Ni  Ni355  1  0.52954920  0.33333333  0.41135240  1.0
  Ni  Ni356  1  0.52954920  0.66666667  0.41135240  1.0
  Ni  Ni357  1  0.86288253  0.00000000  0.41135240  1.0
  Ni  Ni358  1  0.86288253  0.33333333  0.41135240  1.0
  Ni  Ni359  1  0.86288253  0.66666667  0.41135240  1.0
