# generated using pymatgen
data_Cu3Ni
_symmetry_space_group_name_H-M   'P 1'
_cell_length_a   18.64957218
_cell_length_b   25.38087151
_cell_length_c   27.42309403
_cell_angle_alpha   83.70737722
_cell_angle_beta   89.66824087
_cell_angle_gamma   74.33287321
_symmetry_Int_Tables_number   1
_chemical_formula_structural   Cu3Ni
_chemical_formula_sum   'Cu324 Ni108'
_cell_volume   12419.10024815
_cell_formula_units_Z   108
loop_
 _symmetry_equiv_pos_site_id
 _symmetry_equiv_pos_as_xyz
  1  'x, y, z'
loop_
 _atom_site_type_symbol
 _atom_site_label
 _atom_site_symmetry_multiplicity
 _atom_site_fract_x
 _atom_site_fract_y
 _atom_site_fract_z
 _atom_site_occupancy
  Cu  Cu0  1  0.12982106  0.25169500  0.99574858  1.0
  Cu  Cu1  1  0.12982106  0.58502833  0.99574858  1.0
  Cu  Cu2  1  0.12982106  0.91836167  0.99574858  1.0
  Cu  Cu3  1  0.46315439  0.25169500  0.99574858  1.0
  Cu  Cu4  1  0.46315439  0.58502833  0.99574858  1.0
  Cu  Cu5  1  0.46315439  0.91836167  0.99574858  1.0
  Cu  Cu6  1  0.79648772  0.25169500  0.99574858  1.0
  Cu  Cu7  1  0.79648772  0.58502833  0.99574858  1.0
  Cu  Cu8  1  0.79648772  0.91836167  0.99574858  1.0
  Cu  Cu9  1  0.00759883  0.25169500  0.96241525  1.0
  Cu  Cu10  1  0.00759883  0.58502833  0.96241525  1.0
  Cu  Cu11  1  0.00759883  0.91836167  0.96241525  1.0
  Cu  Cu12  1  0.34093217  0.25169500  0.96241525  1.0
  Cu  Cu13  1  0.34093217  0.58502833  0.96241525  1.0
  Cu  Cu14  1  0.34093217  0.91836167  0.96241525  1.0
  Cu  Cu15  1  0.67426550  0.25169500  0.96241525  1.0
  Cu  Cu16  1  0.67426550  0.58502833  0.96241525  1.0
  Cu  Cu17  1  0.67426550  0.91836167  0.96241525  1.0
  Cu  Cu18  1  0.26655367  0.16666667  0.98758475  1.0
  Cu  Cu19  1  0.26655367  0.50000000  0.98758475  1.0
  Cu  Cu20  1  0.26655367  0.83333333  0.98758475  1.0
  Cu  Cu21  1  0.59988700  0.16666667  0.98758475  1.0
  Cu  Cu22  1  0.59988700  0.50000000  0.98758475  1.0
  Cu  Cu23  1  0.59988700  0.83333333  0.98758475  1.0
  Cu  Cu24  1  0.93322033  0.16666667  0.98758475  1.0
  Cu  Cu25  1  0.93322033  0.50000000  0.98758475  1.0
  Cu  Cu26  1  0.93322033  0.83333333  0.98758475  1.0
  Cu  Cu27  1  0.14433144  0.16666667  0.95425142  1.0
  Cu  Cu28  1  0.14433144  0.50000000  0.95425142  1.0
  Cu  Cu29  1  0.14433144  0.83333333  0.95425142  1.0
  Cu  Cu30  1  0.47766478  0.16666667  0.95425142  1.0
  Cu  Cu31  1  0.47766478  0.50000000  0.95425142  1.0
  Cu  Cu32  1  0.47766478  0.83333333  0.95425142  1.0
  Cu  Cu33  1  0.81099811  0.16666667  0.95425142  1.0
  Cu  Cu34  1  0.81099811  0.50000000  0.95425142  1.0
  Cu  Cu35  1  0.81099811  0.83333333  0.95425142  1.0
  Cu  Cu36  1  0.28106406  0.08163833  0.94608758  1.0
  Cu  Cu37  1  0.28106406  0.41497167  0.94608758  1.0
  Cu  Cu38  1  0.28106406  0.74830500  0.94608758  1.0
  Cu  Cu39  1  0.61439739  0.08163833  0.94608758  1.0
  Cu  Cu40  1  0.61439739  0.41497167  0.94608758  1.0
  Cu  Cu41  1  0.61439739  0.74830500  0.94608758  1.0
  Cu  Cu42  1  0.94773072  0.08163833  0.94608758  1.0
  Cu  Cu43  1  0.94773072  0.41497167  0.94608758  1.0
  Cu  Cu44  1  0.94773072  0.74830500  0.94608758  1.0
  Cu  Cu45  1  0.06995294  0.08163833  0.97942092  1.0
  Cu  Cu46  1  0.06995294  0.41497167  0.97942092  1.0
  Cu  Cu47  1  0.06995294  0.74830500  0.97942092  1.0
  Cu  Cu48  1  0.40328628  0.08163833  0.97942092  1.0
  Cu  Cu49  1  0.40328628  0.41497167  0.97942092  1.0
  Cu  Cu50  1  0.40328628  0.74830500  0.97942092  1.0
  Cu  Cu51  1  0.73661961  0.08163833  0.97942092  1.0
  Cu  Cu52  1  0.73661961  0.41497167  0.97942092  1.0
  Cu  Cu53  1  0.73661961  0.74830500  0.97942092  1.0
  Cu  Cu54  1  0.21870994  0.25169500  0.92908192  1.0
  Cu  Cu55  1  0.21870994  0.58502833  0.92908192  1.0
  Cu  Cu56  1  0.21870994  0.91836167  0.92908192  1.0
  Cu  Cu57  1  0.55204328  0.25169500  0.92908192  1.0
  Cu  Cu58  1  0.55204328  0.58502833  0.92908192  1.0
  Cu  Cu59  1  0.55204328  0.91836167  0.92908192  1.0
  Cu  Cu60  1  0.88537661  0.25169500  0.92908192  1.0
  Cu  Cu61  1  0.88537661  0.58502833  0.92908192  1.0
  Cu  Cu62  1  0.88537661  0.91836167  0.92908192  1.0
  Cu  Cu63  1  0.09648772  0.25169500  0.89574858  1.0
  Cu  Cu64  1  0.09648772  0.58502833  0.89574858  1.0
  Cu  Cu65  1  0.09648772  0.91836167  0.89574858  1.0
  Cu  Cu66  1  0.42982106  0.25169500  0.89574858  1.0
  Cu  Cu67  1  0.42982106  0.58502833  0.89574858  1.0
  Cu  Cu68  1  0.42982106  0.91836167  0.89574858  1.0
  Cu  Cu69  1  0.76315439  0.25169500  0.89574858  1.0
  Cu  Cu70  1  0.76315439  0.58502833  0.89574858  1.0
  Cu  Cu71  1  0.76315439  0.91836167  0.89574858  1.0
  Cu  Cu72  1  0.02210922  0.16666667  0.92091808  1.0
  Cu  Cu73  1  0.02210922  0.50000000  0.92091808  1.0
  Cu  Cu74  1  0.02210922  0.83333333  0.92091808  1.0
  Cu  Cu75  1  0.35544256  0.16666667  0.92091808  1.0
  Cu  Cu76  1  0.35544256  0.50000000  0.92091808  1.0
  Cu  Cu77  1  0.35544256  0.83333333  0.92091808  1.0
  Cu  Cu78  1  0.68877589  0.16666667  0.92091808  1.0
  Cu  Cu79  1  0.68877589  0.50000000  0.92091808  1.0
  Cu  Cu80  1  0.68877589  0.83333333  0.92091808  1.0
  Cu  Cu81  1  0.23322033  0.16666667  0.88758475  1.0
  Cu  Cu82  1  0.23322033  0.50000000  0.88758475  1.0
  Cu  Cu83  1  0.23322033  0.83333333  0.88758475  1.0
  Cu  Cu84  1  0.56655367  0.16666667  0.88758475  1.0
  Cu  Cu85  1  0.56655367  0.50000000  0.88758475  1.0
  Cu  Cu86  1  0.56655367  0.83333333  0.88758475  1.0
  Cu  Cu87  1  0.89988700  0.16666667  0.88758475  1.0
  Cu  Cu88  1  0.89988700  0.50000000  0.88758475  1.0
  Cu  Cu89  1  0.89988700  0.83333333  0.88758475  1.0
  Cu  Cu90  1  0.03661961  0.08163833  0.87942092  1.0
  Cu  Cu91  1  0.03661961  0.41497167  0.87942092  1.0
  Cu  Cu92  1  0.03661961  0.74830500  0.87942092  1.0
  Cu  Cu93  1  0.36995294  0.08163833  0.87942092  1.0
  Cu  Cu94  1  0.36995294  0.41497167  0.87942092  1.0
  Cu  Cu95  1  0.36995294  0.74830500  0.87942092  1.0
  Cu  Cu96  1  0.70328628  0.08163833  0.87942092  1.0
  Cu  Cu97  1  0.70328628  0.41497167  0.87942092  1.0
  Cu  Cu98  1  0.70328628  0.74830500  0.87942092  1.0
  Cu  Cu99  1  0.15884183  0.08163833  0.91275425  1.0
  Cu  Cu100  1  0.15884183  0.41497167  0.91275425  1.0
  Cu  Cu101  1  0.15884183  0.74830500  0.91275425  1.0
  Cu  Cu102  1  0.49217517  0.08163833  0.91275425  1.0
  Cu  Cu103  1  0.49217517  0.41497167  0.91275425  1.0
  Cu  Cu104  1  0.49217517  0.74830500  0.91275425  1.0
  Cu  Cu105  1  0.82550850  0.08163833  0.91275425  1.0
  Cu  Cu106  1  0.82550850  0.41497167  0.91275425  1.0
  Cu  Cu107  1  0.82550850  0.74830500  0.91275425  1.0
  Cu  Cu108  1  0.30759883  0.25169500  0.86241525  1.0
  Cu  Cu109  1  0.30759883  0.58502833  0.86241525  1.0
  Cu  Cu110  1  0.30759883  0.91836167  0.86241525  1.0
  Cu  Cu111  1  0.64093217  0.25169500  0.86241525  1.0
  Cu  Cu112  1  0.64093217  0.58502833  0.86241525  1.0
  Cu  Cu113  1  0.64093217  0.91836167  0.86241525  1.0
  Cu  Cu114  1  0.97426550  0.25169500  0.86241525  1.0
  Cu  Cu115  1  0.97426550  0.58502833  0.86241525  1.0
  Cu  Cu116  1  0.97426550  0.91836167  0.86241525  1.0
  Cu  Cu117  1  0.18537661  0.25169500  0.82908192  1.0
  Cu  Cu118  1  0.18537661  0.58502833  0.82908192  1.0
  Cu  Cu119  1  0.18537661  0.91836167  0.82908192  1.0
  Cu  Cu120  1  0.51870994  0.25169500  0.82908192  1.0
  Cu  Cu121  1  0.51870994  0.58502833  0.82908192  1.0
  Cu  Cu122  1  0.51870994  0.91836167  0.82908192  1.0
  Cu  Cu123  1  0.85204328  0.25169500  0.82908192  1.0
  Cu  Cu124  1  0.85204328  0.58502833  0.82908192  1.0
  Cu  Cu125  1  0.85204328  0.91836167  0.82908192  1.0
  Cu  Cu126  1  0.11099811  0.16666667  0.85425142  1.0
  Cu  Cu127  1  0.11099811  0.50000000  0.85425142  1.0
  Cu  Cu128  1  0.11099811  0.83333333  0.85425142  1.0
  Cu  Cu129  1  0.44433144  0.16666667  0.85425142  1.0
  Cu  Cu130  1  0.44433144  0.50000000  0.85425142  1.0
  Cu  Cu131  1  0.44433144  0.83333333  0.85425142  1.0
  Cu  Cu132  1  0.77766478  0.16666667  0.85425142  1.0
  Cu  Cu133  1  0.77766478  0.50000000  0.85425142  1.0
  Cu  Cu134  1  0.77766478  0.83333333  0.85425142  1.0
  Cu  Cu135  1  0.32210922  0.16666667  0.82091808  1.0
  Cu  Cu136  1  0.32210922  0.50000000  0.82091808  1.0
  Cu  Cu137  1  0.32210922  0.83333333  0.82091808  1.0
  Cu  Cu138  1  0.65544256  0.16666667  0.82091808  1.0
  Cu  Cu139  1  0.65544256  0.50000000  0.82091808  1.0
  Cu  Cu140  1  0.65544256  0.83333333  0.82091808  1.0
  Cu  Cu141  1  0.98877589  0.16666667  0.82091808  1.0
  Cu  Cu142  1  0.98877589  0.50000000  0.82091808  1.0
  Cu  Cu143  1  0.98877589  0.83333333  0.82091808  1.0
  Cu  Cu144  1  0.12550850  0.08163833  0.81275425  1.0
  Cu  Cu145  1  0.12550850  0.41497167  0.81275425  1.0
  Cu  Cu146  1  0.12550850  0.74830500  0.81275425  1.0
  Cu  Cu147  1  0.45884183  0.08163833  0.81275425  1.0
  Cu  Cu148  1  0.45884183  0.41497167  0.81275425  1.0
  Cu  Cu149  1  0.45884183  0.74830500  0.81275425  1.0
  Cu  Cu150  1  0.79217517  0.08163833  0.81275425  1.0
  Cu  Cu151  1  0.79217517  0.41497167  0.81275425  1.0
  Cu  Cu152  1  0.79217517  0.74830500  0.81275425  1.0
  Cu  Cu153  1  0.24773072  0.08163833  0.84608758  1.0
  Cu  Cu154  1  0.24773072  0.41497167  0.84608758  1.0
  Cu  Cu155  1  0.24773072  0.74830500  0.84608758  1.0
  Cu  Cu156  1  0.58106406  0.08163833  0.84608758  1.0
  Cu  Cu157  1  0.58106406  0.41497167  0.84608758  1.0
  Cu  Cu158  1  0.58106406  0.74830500  0.84608758  1.0
  Cu  Cu159  1  0.91439739  0.08163833  0.84608758  1.0
  Cu  Cu160  1  0.91439739  0.41497167  0.84608758  1.0
  Cu  Cu161  1  0.91439739  0.74830500  0.84608758  1.0
  Cu  Cu162  1  0.06315439  0.25169500  0.79574858  1.0
  Cu  Cu163  1  0.06315439  0.58502833  0.79574858  1.0
  Cu  Cu164  1  0.06315439  0.91836167  0.79574858  1.0
  Cu  Cu165  1  0.39648772  0.25169500  0.79574858  1.0
  Cu  Cu166  1  0.39648772  0.58502833  0.79574858  1.0
  Cu  Cu167  1  0.39648772  0.91836167  0.79574858  1.0
  Cu  Cu168  1  0.72982106  0.25169500  0.79574858  1.0
  Cu  Cu169  1  0.72982106  0.58502833  0.79574858  1.0
  Cu  Cu170  1  0.72982106  0.91836167  0.79574858  1.0
  Cu  Cu171  1  0.27426550  0.25169500  0.76241525  1.0
  Cu  Cu172  1  0.27426550  0.58502833  0.76241525  1.0
  Cu  Cu173  1  0.27426550  0.91836167  0.76241525  1.0
  Cu  Cu174  1  0.60759883  0.25169500  0.76241525  1.0
  Cu  Cu175  1  0.60759883  0.58502833  0.76241525  1.0
  Cu  Cu176  1  0.60759883  0.91836167  0.76241525  1.0
  Cu  Cu177  1  0.94093217  0.25169500  0.76241525  1.0
  Cu  Cu178  1  0.94093217  0.58502833  0.76241525  1.0
  Cu  Cu179  1  0.94093217  0.91836167  0.76241525  1.0
  Cu  Cu180  1  0.19988700  0.16666667  0.78758475  1.0
  Cu  Cu181  1  0.19988700  0.50000000  0.78758475  1.0
  Cu  Cu182  1  0.19988700  0.83333333  0.78758475  1.0
  Cu  Cu183  1  0.53322033  0.16666667  0.78758475  1.0
  Cu  Cu184  1  0.53322033  0.50000000  0.78758475  1.0
  Cu  Cu185  1  0.53322033  0.83333333  0.78758475  1.0
  Cu  Cu186  1  0.86655367  0.16666667  0.78758475  1.0
  Cu  Cu187  1  0.86655367  0.50000000  0.78758475  1.0
  Cu  Cu188  1  0.86655367  0.83333333  0.78758475  1.0
  Cu  Cu189  1  0.07766478  0.16666667  0.75425142  1.0
  Cu  Cu190  1  0.07766478  0.50000000  0.75425142  1.0
  Cu  Cu191  1  0.07766478  0.83333333  0.75425142  1.0
  Cu  Cu192  1  0.41099811  0.16666667  0.75425142  1.0
  Cu  Cu193  1  0.41099811  0.50000000  0.75425142  1.0
  Cu  Cu194  1  0.41099811  0.83333333  0.75425142  1.0
  Cu  Cu195  1  0.74433144  0.16666667  0.75425142  1.0
  Cu  Cu196  1  0.74433144  0.50000000  0.75425142  1.0
  Cu  Cu197  1  0.74433144  0.83333333  0.75425142  1.0
  Cu  Cu198  1  0.21439739  0.08163833  0.74608758  1.0
  Cu  Cu199  1  0.21439739  0.41497167  0.74608758  1.0
  Cu  Cu200  1  0.21439739  0.74830500  0.74608758  1.0
  Cu  Cu201  1  0.54773072  0.08163833  0.74608758  1.0
  Cu  Cu202  1  0.54773072  0.41497167  0.74608758  1.0
  Cu  Cu203  1  0.54773072  0.74830500  0.74608758  1.0
  Cu  Cu204  1  0.88106406  0.08163833  0.74608758  1.0
  Cu  Cu205  1  0.88106406  0.41497167  0.74608758  1.0
  Cu  Cu206  1  0.88106406  0.74830500  0.74608758  1.0
  Cu  Cu207  1  0.00328628  0.08163833  0.77942092  1.0
  Cu  Cu208  1  0.00328628  0.41497167  0.77942092  1.0
  Cu  Cu209  1  0.00328628  0.74830500  0.77942092  1.0
  Cu  Cu210  1  0.33661961  0.08163833  0.77942092  1.0
  Cu  Cu211  1  0.33661961  0.41497167  0.77942092  1.0
  Cu  Cu212  1  0.33661961  0.74830500  0.77942092  1.0
  Cu  Cu213  1  0.66995294  0.08163833  0.77942092  1.0
  Cu  Cu214  1  0.66995294  0.41497167  0.77942092  1.0
  Cu  Cu215  1  0.66995294  0.74830500  0.77942092  1.0
  Cu  Cu216  1  0.15204328  0.25169500  0.72908192  1.0
  Cu  Cu217  1  0.15204328  0.58502833  0.72908192  1.0
  Cu  Cu218  1  0.15204328  0.91836167  0.72908192  1.0
  Cu  Cu219  1  0.48537661  0.25169500  0.72908192  1.0
  Cu  Cu220  1  0.48537661  0.58502833  0.72908192  1.0
  Cu  Cu221  1  0.48537661  0.91836167  0.72908192  1.0
  Cu  Cu222  1  0.81870994  0.25169500  0.72908192  1.0
  Cu  Cu223  1  0.81870994  0.58502833  0.72908192  1.0
  Cu  Cu224  1  0.81870994  0.91836167  0.72908192  1.0
  Cu  Cu225  1  0.02982106  0.25169500  0.69574858  1.0
  Cu  Cu226  1  0.02982106  0.58502833  0.69574858  1.0
  Cu  Cu227  1  0.02982106  0.91836167  0.69574858  1.0
  Cu  Cu228  1  0.36315439  0.25169500  0.69574858  1.0
  Cu  Cu229  1  0.36315439  0.58502833  0.69574858  1.0
  Cu  Cu230  1  0.36315439  0.91836167  0.69574858  1.0
  Cu  Cu231  1  0.69648772  0.25169500  0.69574858  1.0
  Cu  Cu232  1  0.69648772  0.58502833  0.69574858  1.0
  Cu  Cu233  1  0.69648772  0.91836167  0.69574858  1.0
  Cu  Cu234  1  0.28877589  0.16666667  0.72091808  1.0
  Cu  Cu235  1  0.28877589  0.50000000  0.72091808  1.0
  Cu  Cu236  1  0.28877589  0.83333333  0.72091808  1.0
  Cu  Cu237  1  0.62210922  0.16666667  0.72091808  1.0
  Cu  Cu238  1  0.62210922  0.50000000  0.72091808  1.0
  Cu  Cu239  1  0.62210922  0.83333333  0.72091808  1.0
  Cu  Cu240  1  0.95544256  0.16666667  0.72091808  1.0
  Cu  Cu241  1  0.95544256  0.50000000  0.72091808  1.0
  Cu  Cu242  1  0.95544256  0.83333333  0.72091808  1.0
  Cu  Cu243  1  0.16655367  0.16666667  0.68758475  1.0
  Cu  Cu244  1  0.16655367  0.50000000  0.68758475  1.0
  Cu  Cu245  1  0.16655367  0.83333333  0.68758475  1.0
  Cu  Cu246  1  0.49988700  0.16666667  0.68758475  1.0
  Cu  Cu247  1  0.49988700  0.50000000  0.68758475  1.0
  Cu  Cu248  1  0.49988700  0.83333333  0.68758475  1.0
  Cu  Cu249  1  0.83322033  0.16666667  0.68758475  1.0
  Cu  Cu250  1  0.83322033  0.50000000  0.68758475  1.0
  Cu  Cu251  1  0.83322033  0.83333333  0.68758475  1.0
  Cu  Cu252  1  0.30328628  0.08163833  0.67942092  1.0
  Cu  Cu253  1  0.30328628  0.41497167  0.67942092  1.0
  Cu  Cu254  1  0.30328628  0.74830500  0.67942092  1.0
  Cu  Cu255  1  0.63661961  0.08163833  0.67942092  1.0
  Cu  Cu256  1  0.63661961  0.41497167  0.67942092  1.0
  Cu  Cu257  1  0.63661961  0.74830500  0.67942092  1.0
  Cu  Cu258  1  0.96995294  0.08163833  0.67942092  1.0
  Cu  Cu259  1  0.96995294  0.41497167  0.67942092  1.0
  Cu  Cu260  1  0.96995294  0.74830500  0.67942092  1.0
  Cu  Cu261  1  0.09217517  0.08163833  0.71275425  1.0
  Cu  Cu262  1  0.09217517  0.41497167  0.71275425  1.0
  Cu  Cu263  1  0.09217517  0.74830500  0.71275425  1.0
  Cu  Cu264  1  0.42550850  0.08163833  0.71275425  1.0
  Cu  Cu265  1  0.42550850  0.41497167  0.71275425  1.0
  Cu  Cu266  1  0.42550850  0.74830500  0.71275425  1.0
  Cu  Cu267  1  0.75884183  0.08163833  0.71275425  1.0
  Cu  Cu268  1  0.75884183  0.41497167  0.71275425  1.0
  Cu  Cu269  1  0.75884183  0.74830500  0.71275425  1.0
  Cu  Cu270  1  0.24093217  0.25169500  0.66241525  1.0
  Cu  Cu271  1  0.24093217  0.58502833  0.66241525  1.0
  Cu  Cu272  1  0.24093217  0.91836167  0.66241525  1.0
  Cu  Cu273  1  0.57426550  0.25169500  0.66241525  1.0
  Cu  Cu274  1  0.57426550  0.58502833  0.66241525  1.0
  Cu  Cu275  1  0.57426550  0.91836167  0.66241525  1.0
  Cu  Cu276  1  0.90759883  0.25169500  0.66241525  1.0
  Cu  Cu277  1  0.90759883  0.58502833  0.66241525  1.0
  Cu  Cu278  1  0.90759883  0.91836167  0.66241525  1.0
  Cu  Cu279  1  0.11870994  0.25169500  0.62908192  1.0
  Cu  Cu280  1  0.11870994  0.58502833  0.62908192  1.0
  Cu  Cu281  1  0.11870994  0.91836167  0.62908192  1.0
  Cu  Cu282  1  0.45204328  0.25169500  0.62908192  1.0
  Cu  Cu283  1  0.45204328  0.58502833  0.62908192  1.0
  Cu  Cu284  1  0.45204328  0.91836167  0.62908192  1.0
  Cu  Cu285  1  0.78537661  0.25169500  0.62908192  1.0
  Cu  Cu286  1  0.78537661  0.58502833  0.62908192  1.0
  Cu  Cu287  1  0.78537661  0.91836167  0.62908192  1.0
  Cu  Cu288  1  0.04433144  0.16666667  0.65425142  1.0
  Cu  Cu289  1  0.04433144  0.50000000  0.65425142  1.0
  Cu  Cu290  1  0.04433144  0.83333333  0.65425142  1.0
  Cu  Cu291  1  0.37766478  0.16666667  0.65425142  1.0
  Cu  Cu292  1  0.37766478  0.50000000  0.65425142  1.0
  Cu  Cu293  1  0.37766478  0.83333333  0.65425142  1.0
  Cu  Cu294  1  0.71099811  0.16666667  0.65425142  1.0
  Cu  Cu295  1  0.71099811  0.50000000  0.65425142  1.0
  Cu  Cu296  1  0.71099811  0.83333333  0.65425142  1.0
  Cu  Cu297  1  0.25544256  0.16666667  0.62091808  1.0
  Cu  Cu298  1  0.25544256  0.50000000  0.62091808  1.0
  Cu  Cu299  1  0.25544256  0.83333333  0.62091808  1.0
  Cu  Cu300  1  0.58877589  0.16666667  0.62091808  1.0
  Cu  Cu301  1  0.58877589  0.50000000  0.62091808  1.0
  Cu  Cu302  1  0.58877589  0.83333333  0.62091808  1.0
  Cu  Cu303  1  0.92210922  0.16666667  0.62091808  1.0
  Cu  Cu304  1  0.92210922  0.50000000  0.62091808  1.0
  Cu  Cu305  1  0.92210922  0.83333333  0.62091808  1.0
  Cu  Cu306  1  0.05884183  0.08163833  0.61275425  1.0
  Cu  Cu307  1  0.05884183  0.41497167  0.61275425  1.0
  Cu  Cu308  1  0.05884183  0.74830500  0.61275425  1.0
  Cu  Cu309  1  0.39217517  0.08163833  0.61275425  1.0
  Cu  Cu310  1  0.39217517  0.41497167  0.61275425  1.0
  Cu  Cu311  1  0.39217517  0.74830500  0.61275425  1.0
  Cu  Cu312  1  0.72550850  0.08163833  0.61275425  1.0
  Cu  Cu313  1  0.72550850  0.41497167  0.61275425  1.0
  Cu  Cu314  1  0.72550850  0.74830500  0.61275425  1.0
  Cu  Cu315  1  0.18106406  0.08163833  0.64608758  1.0
  Cu  Cu316  1  0.18106406  0.41497167  0.64608758  1.0
  Cu  Cu317  1  0.18106406  0.74830500  0.64608758  1.0
  Cu  Cu318  1  0.51439739  0.08163833  0.64608758  1.0
  Cu  Cu319  1  0.51439739  0.41497167  0.64608758  1.0
  Cu  Cu320  1  0.51439739  0.74830500  0.64608758  1.0
  Cu  Cu321  1  0.84773072  0.08163833  0.64608758  1.0
  Cu  Cu322  1  0.84773072  0.41497167  0.64608758  1.0
  Cu  Cu323  1  0.84773072  0.74830500  0.64608758  1.0
  Ni  Ni324  1  0.08322033  0.33333333  0.93758475  1.0
  Ni  Ni325  1  0.08322033  0.66666667  0.93758475  1.0
  Ni  Ni326  1  0.08322033  0.00000000  0.93758475  1.0
  Ni  Ni327  1  0.41655367  0.33333333  0.93758475  1.0
  Ni  Ni328  1  0.41655367  0.66666667  0.93758475  1.0
  Ni  Ni329  1  0.41655367  0.00000000  0.93758475  1.0
  Ni  Ni330  1  0.74988700  0.33333333  0.93758475  1.0
  Ni  Ni331  1  0.74988700  0.66666667  0.93758475  1.0
  Ni  Ni332  1  0.74988700  0.00000000  0.93758475  1.0
  Ni  Ni333  1  0.20544256  0.00000000  0.97091808  1.0
  Ni  Ni334  1  0.20544256  0.33333333  0.97091808  1.0
  Ni  Ni335  1  0.20544256  0.66666667  0.97091808  1.0
  Ni  Ni336  1  0.53877589  0.00000000  0.97091808  1.0
  Ni  Ni337  1  0.53877589  0.33333333  0.97091808  1.0
  Ni  Ni338  1  0.53877589  0.66666667  0.97091808  1.0
  Ni  Ni339  1  0.87210922  0.00000000  0.97091808  1.0
  Ni  Ni340  1  0.87210922  0.33333333  0.97091808  1.0
  Ni  Ni341  1  0.87210922  0.66666667  0.97091808  1.0
  Ni  Ni342  1  0.17210922  0.33333333  0.87091808  1.0
  Ni  Ni343  1  0.17210922  0.66666667  0.87091808  1.0
  Ni  Ni344  1  0.17210922  0.00000000  0.87091808  1.0
  Ni  Ni345  1  0.50544256  0.33333333  0.87091808  1.0
  Ni  Ni346  1  0.50544256  0.66666667  0.87091808  1.0
  Ni  Ni347  1  0.50544256  0.00000000  0.87091808  1.0
  Ni  Ni348  1  0.83877589  0.33333333  0.87091808  1.0
  Ni  Ni349  1  0.83877589  0.66666667  0.87091808  1.0
  Ni  Ni350  1  0.83877589  0.00000000  0.87091808  1.0
  Ni  Ni351  1  0.29433144  0.00000000  0.90425142  1.0
  Ni  Ni352  1  0.29433144  0.33333333  0.90425142  1.0
  Ni  Ni353  1  0.29433144  0.66666667  0.90425142  1.0
  Ni  Ni354  1  0.62766478  0.00000000  0.90425142  1.0
  Ni  Ni355  1  0.62766478  0.33333333  0.90425142  1.0
  Ni  Ni356  1  0.62766478  0.66666667  0.90425142  1.0
  Ni  Ni357  1  0.96099811  0.00000000  0.90425142  1.0
  Ni  Ni358  1  0.96099811  0.33333333  0.90425142  1.0
  Ni  Ni359  1  0.96099811  0.66666667  0.90425142  1.0
  Ni  Ni360  1  0.26099811  0.33333333  0.80425142  1.0
  Ni  Ni361  1  0.26099811  0.66666667  0.80425142  1.0
  Ni  Ni362  1  0.26099811  0.00000000  0.80425142  1.0
  Ni  Ni363  1  0.59433144  0.33333333  0.80425142  1.0
  Ni  Ni364  1  0.59433144  0.66666667  0.80425142  1.0
  Ni  Ni365  1  0.59433144  0.00000000  0.80425142  1.0
  Ni  Ni366  1  0.92766478  0.33333333  0.80425142  1.0
  Ni  Ni367  1  0.92766478  0.66666667  0.80425142  1.0
  Ni  Ni368  1  0.92766478  0.00000000  0.80425142  1.0
  Ni  Ni369  1  0.04988700  0.00000000  0.83758475  1.0
  Ni  Ni370  1  0.04988700  0.33333333  0.83758475  1.0
  Ni  Ni371  1  0.04988700  0.66666667  0.83758475  1.0
  Ni  Ni372  1  0.38322033  0.00000000  0.83758475  1.0
  Ni  Ni373  1  0.38322033  0.33333333  0.83758475  1.0
  Ni  Ni374  1  0.38322033  0.66666667  0.83758475  1.0
  Ni  Ni375  1  0.71655367  0.00000000  0.83758475  1.0
  Ni  Ni376  1  0.71655367  0.33333333  0.83758475  1.0
  Ni  Ni377  1  0.71655367  0.66666667  0.83758475  1.0
  Ni  Ni378  1  0.01655367  0.33333333  0.73758475  1.0
  Ni  Ni379  1  0.01655367  0.66666667  0.73758475  1.0
  Ni  Ni380  1  0.01655367  0.00000000  0.73758475  1.0
  Ni  Ni381  1  0.34988700  0.33333333  0.73758475  1.0
  Ni  Ni382  1  0.34988700  0.66666667  0.73758475  1.0
  Ni  Ni383  1  0.34988700  0.00000000  0.73758475  1.0
  Ni  Ni384  1  0.68322033  0.33333333  0.73758475  1.0
  Ni  Ni385  1  0.68322033  0.66666667  0.73758475  1.0
  Ni  Ni386  1  0.68322033  0.00000000  0.73758475  1.0
  Ni  Ni387  1  0.13877589  0.00000000  0.77091808  1.0
  Ni  Ni388  1  0.13877589  0.33333333  0.77091808  1.0
  Ni  Ni389  1  0.13877589  0.66666667  0.77091808  1.0
  Ni  Ni390  1  0.47210922  0.00000000  0.77091808  1.0
  Ni  Ni391  1  0.47210922  0.33333333  0.77091808  1.0
  Ni  Ni392  1  0.47210922  0.66666667  0.77091808  1.0
  Ni  Ni393  1  0.80544256  0.00000000  0.77091808  1.0
  Ni  Ni394  1  0.80544256  0.33333333  0.77091808  1.0
  Ni  Ni395  1  0.80544256  0.66666667  0.77091808  1.0
  Ni  Ni396  1  0.10544256  0.33333333  0.67091808  1.0
  Ni  Ni397  1  0.10544256  0.66666667  0.67091808  1.0
  Ni  Ni398  1  0.10544256  0.00000000  0.67091808  1.0
  Ni  Ni399  1  0.43877589  0.33333333  0.67091808  1.0
  Ni  Ni400  1  0.43877589  0.66666667  0.67091808  1.0
  Ni  Ni401  1  0.43877589  0.00000000  0.67091808  1.0
  Ni  Ni402  1  0.77210922  0.33333333  0.67091808  1.0
  Ni  Ni403  1  0.77210922  0.66666667  0.67091808  1.0
  Ni  Ni404  1  0.77210922  0.00000000  0.67091808  1.0
  Ni  Ni405  1  0.22766478  0.33333333  0.70425142  1.0
  Ni  Ni406  1  0.22766478  0.66666667  0.70425142  1.0
  Ni  Ni407  1  0.22766478  1.00000000  0.70425142  1.0
  Ni  Ni408  1  0.56099811  0.33333333  0.70425142  1.0
  Ni  Ni409  1  0.56099811  0.66666667  0.70425142  1.0
  Ni  Ni410  1  0.56099811  1.00000000  0.70425142  1.0
  Ni  Ni411  1  0.89433144  0.33333333  0.70425142  1.0
  Ni  Ni412  1  0.89433144  0.66666667  0.70425142  1.0
  Ni  Ni413  1  0.89433144  1.00000000  0.70425142  1.0
  Ni  Ni414  1  0.19433144  0.33333333  0.60425142  1.0
  Ni  Ni415  1  0.19433144  0.66666667  0.60425142  1.0
  Ni  Ni416  1  0.19433144  0.00000000  0.60425142  1.0
  Ni  Ni417  1  0.52766478  0.33333333  0.60425142  1.0
  Ni  Ni418  1  0.52766478  0.66666667  0.60425142  1.0
  Ni  Ni419  1  0.52766478  0.00000000  0.60425142  1.0
  Ni  Ni420  1  0.86099811  0.33333333  0.60425142  1.0
  Ni  Ni421  1  0.86099811  0.66666667  0.60425142  1.0
  Ni  Ni422  1  0.86099811  0.00000000  0.60425142  1.0
  Ni  Ni423  1  0.31655367  0.33333333  0.63758475  1.0
  Ni  Ni424  1  0.31655367  0.66666667  0.63758475  1.0
  Ni  Ni425  1  0.31655367  1.00000000  0.63758475  1.0
  Ni  Ni426  1  0.64988700  0.33333333  0.63758475  1.0
  Ni  Ni427  1  0.64988700  0.66666667  0.63758475  1.0
  Ni  Ni428  1  0.64988700  1.00000000  0.63758475  1.0
  Ni  Ni429  1  0.98322033  0.33333333  0.63758475  1.0
  Ni  Ni430  1  0.98322033  0.66666667  0.63758475  1.0
  Ni  Ni431  1  0.98322033  1.00000000  0.63758475  1.0
