# generated using pymatgen
data_CuNi
_symmetry_space_group_name_H-M   'P 1'
_cell_length_a   15.03688681
_cell_length_b   16.80460119
_cell_length_c   27.73729950
_cell_angle_alpha   94.65710192
_cell_angle_beta   92.53422277
_cell_angle_gamma   103.09434994
_symmetry_Int_Tables_number   1
_chemical_formula_structural   CuNi
_chemical_formula_sum   'Cu126 Ni126'
_cell_volume   6789.95936644
_cell_formula_units_Z   126
loop_
 _symmetry_equiv_pos_site_id
 _symmetry_equiv_pos_as_xyz
  1  'x, y, z'
loop_
 _atom_site_type_symbol
 _atom_site_label
 _atom_site_symmetry_multiplicity
 _atom_site_fract_x
 _atom_site_fract_y
 _atom_site_fract_z
 _atom_site_occupancy
  Cu  Cu0  1  0.27450980  0.18627451  0.98529412  1.0
  Cu  Cu1  1  0.27450980  0.51960784  0.98529412  1.0
  Cu  Cu2  1  0.27450980  0.85294118  0.98529412  1.0
  Cu  Cu3  1  0.60784314  0.18627451  0.98529412  1.0
  Cu  Cu4  1  0.60784314  0.51960784  0.98529412  1.0
  Cu  Cu5  1  0.60784314  0.85294118  0.98529412  1.0
  Cu  Cu6  1  0.94117647  0.18627451  0.98529412  1.0
  Cu  Cu7  1  0.94117647  0.51960784  0.98529412  1.0
  Cu  Cu8  1  0.94117647  0.85294118  0.98529412  1.0
  Cu  Cu9  1  0.15686275  0.05882353  0.95588235  1.0
  Cu  Cu10  1  0.15686275  0.39215686  0.95588235  1.0
  Cu  Cu11  1  0.15686275  0.72549020  0.95588235  1.0
  Cu  Cu12  1  0.49019608  0.05882353  0.95588235  1.0
  Cu  Cu13  1  0.49019608  0.39215686  0.95588235  1.0
  Cu  Cu14  1  0.49019608  0.72549020  0.95588235  1.0
  Cu  Cu15  1  0.82352941  0.05882353  0.95588235  1.0
  Cu  Cu16  1  0.82352941  0.39215686  0.95588235  1.0
  Cu  Cu17  1  0.82352941  0.72549020  0.95588235  1.0
  Cu  Cu18  1  0.03921569  0.26470588  0.92647059  1.0
  Cu  Cu19  1  0.03921569  0.59803922  0.92647059  1.0
  Cu  Cu20  1  0.03921569  0.93137255  0.92647059  1.0
  Cu  Cu21  1  0.37254902  0.26470588  0.92647059  1.0
  Cu  Cu22  1  0.37254902  0.59803922  0.92647059  1.0
  Cu  Cu23  1  0.37254902  0.93137255  0.92647059  1.0
  Cu  Cu24  1  0.70588235  0.26470588  0.92647059  1.0
  Cu  Cu25  1  0.70588235  0.59803922  0.92647059  1.0
  Cu  Cu26  1  0.70588235  0.93137255  0.92647059  1.0
  Cu  Cu27  1  0.25490196  0.13725490  0.89705882  1.0
  Cu  Cu28  1  0.25490196  0.47058824  0.89705882  1.0
  Cu  Cu29  1  0.25490196  0.80392157  0.89705882  1.0
  Cu  Cu30  1  0.58823529  0.13725490  0.89705882  1.0
  Cu  Cu31  1  0.58823529  0.47058824  0.89705882  1.0
  Cu  Cu32  1  0.58823529  0.80392157  0.89705882  1.0
  Cu  Cu33  1  0.92156863  0.13725490  0.89705882  1.0
  Cu  Cu34  1  0.92156863  0.47058824  0.89705882  1.0
  Cu  Cu35  1  0.92156863  0.80392157  0.89705882  1.0
  Cu  Cu36  1  0.13725490  0.00980392  0.86764706  1.0
  Cu  Cu37  1  0.13725490  0.34313725  0.86764706  1.0
  Cu  Cu38  1  0.13725490  0.67647059  0.86764706  1.0
  Cu  Cu39  1  0.47058824  0.00980392  0.86764706  1.0
  Cu  Cu40  1  0.47058824  0.34313725  0.86764706  1.0
  Cu  Cu41  1  0.47058824  0.67647059  0.86764706  1.0
  Cu  Cu42  1  0.80392157  0.00980392  0.86764706  1.0
  Cu  Cu43  1  0.80392157  0.34313725  0.86764706  1.0
  Cu  Cu44  1  0.80392157  0.67647059  0.86764706  1.0
  Cu  Cu45  1  0.01960784  0.21568627  0.83823529  1.0
  Cu  Cu46  1  0.01960784  0.54901961  0.83823529  1.0
  Cu  Cu47  1  0.01960784  0.88235294  0.83823529  1.0
  Cu  Cu48  1  0.35294118  0.21568627  0.83823529  1.0
  Cu  Cu49  1  0.35294118  0.54901961  0.83823529  1.0
  Cu  Cu50  1  0.35294118  0.88235294  0.83823529  1.0
  Cu  Cu51  1  0.68627451  0.21568627  0.83823529  1.0
  Cu  Cu52  1  0.68627451  0.54901961  0.83823529  1.0
  Cu  Cu53  1  0.68627451  0.88235294  0.83823529  1.0
  Cu  Cu54  1  0.23529412  0.08823529  0.80882353  1.0
  Cu  Cu55  1  0.23529412  0.42156863  0.80882353  1.0
  Cu  Cu56  1  0.23529412  0.75490196  0.80882353  1.0
  Cu  Cu57  1  0.56862745  0.08823529  0.80882353  1.0
  Cu  Cu58  1  0.56862745  0.42156863  0.80882353  1.0
  Cu  Cu59  1  0.56862745  0.75490196  0.80882353  1.0
  Cu  Cu60  1  0.90196078  0.08823529  0.80882353  1.0
  Cu  Cu61  1  0.90196078  0.42156863  0.80882353  1.0
  Cu  Cu62  1  0.90196078  0.75490196  0.80882353  1.0
  Cu  Cu63  1  0.11764706  0.29411765  0.77941176  1.0
  Cu  Cu64  1  0.11764706  0.62745098  0.77941176  1.0
  Cu  Cu65  1  0.11764706  0.96078431  0.77941176  1.0
  Cu  Cu66  1  0.45098039  0.29411765  0.77941176  1.0
  Cu  Cu67  1  0.45098039  0.62745098  0.77941176  1.0
  Cu  Cu68  1  0.45098039  0.96078431  0.77941176  1.0
  Cu  Cu69  1  0.78431373  0.29411765  0.77941176  1.0
  Cu  Cu70  1  0.78431373  0.62745098  0.77941176  1.0
  Cu  Cu71  1  0.78431373  0.96078431  0.77941176  1.0
  Cu  Cu72  1  0.33333333  0.16666667  0.75000000  1.0
  Cu  Cu73  1  0.33333333  0.50000000  0.75000000  1.0
  Cu  Cu74  1  0.33333333  0.83333333  0.75000000  1.0
  Cu  Cu75  1  0.66666667  0.16666667  0.75000000  1.0
  Cu  Cu76  1  0.66666667  0.50000000  0.75000000  1.0
  Cu  Cu77  1  0.66666667  0.83333333  0.75000000  1.0
  Cu  Cu78  1  1.00000000  0.16666667  0.75000000  1.0
  Cu  Cu79  1  1.00000000  0.50000000  0.75000000  1.0
  Cu  Cu80  1  1.00000000  0.83333333  0.75000000  1.0
  Cu  Cu81  1  0.21568627  0.03921569  0.72058824  1.0
  Cu  Cu82  1  0.21568627  0.37254902  0.72058824  1.0
  Cu  Cu83  1  0.21568627  0.70588235  0.72058824  1.0
  Cu  Cu84  1  0.54901961  0.03921569  0.72058824  1.0
  Cu  Cu85  1  0.54901961  0.37254902  0.72058824  1.0
  Cu  Cu86  1  0.54901961  0.70588235  0.72058824  1.0
  Cu  Cu87  1  0.88235294  0.03921569  0.72058824  1.0
  Cu  Cu88  1  0.88235294  0.37254902  0.72058824  1.0
  Cu  Cu89  1  0.88235294  0.70588235  0.72058824  1.0
  Cu  Cu90  1  0.09803922  0.24509804  0.69117647  1.0
  Cu  Cu91  1  0.09803922  0.57843137  0.69117647  1.0
  Cu  Cu92  1  0.09803922  0.91176471  0.69117647  1.0
  Cu  Cu93  1  0.43137255  0.24509804  0.69117647  1.0
  Cu  Cu94  1  0.43137255  0.57843137  0.69117647  1.0
  Cu  Cu95  1  0.43137255  0.91176471  0.69117647  1.0
  Cu  Cu96  1  0.76470588  0.24509804  0.69117647  1.0
  Cu  Cu97  1  0.76470588  0.57843137  0.69117647  1.0
  Cu  Cu98  1  0.76470588  0.91176471  0.69117647  1.0
  Cu  Cu99  1  0.31372549  0.11764706  0.66176471  1.0
  Cu  Cu100  1  0.31372549  0.45098039  0.66176471  1.0
  Cu  Cu101  1  0.31372549  0.78431373  0.66176471  1.0
  Cu  Cu102  1  0.64705882  0.11764706  0.66176471  1.0
  Cu  Cu103  1  0.64705882  0.45098039  0.66176471  1.0
  Cu  Cu104  1  0.64705882  0.78431373  0.66176471  1.0
  Cu  Cu105  1  0.98039216  0.11764706  0.66176471  1.0
  Cu  Cu106  1  0.98039216  0.45098039  0.66176471  1.0
  Cu  Cu107  1  0.98039216  0.78431373  0.66176471  1.0
  Cu  Cu108  1  0.19607843  0.32352941  0.63235294  1.0
  Cu  Cu109  1  0.19607843  0.65686275  0.63235294  1.0
  Cu  Cu110  1  0.19607843  0.99019608  0.63235294  1.0
  Cu  Cu111  1  0.52941176  0.32352941  0.63235294  1.0
  Cu  Cu112  1  0.52941176  0.65686275  0.63235294  1.0
  Cu  Cu113  1  0.52941176  0.99019608  0.63235294  1.0
  Cu  Cu114  1  0.86274510  0.32352941  0.63235294  1.0
  Cu  Cu115  1  0.86274510  0.65686275  0.63235294  1.0
  Cu  Cu116  1  0.86274510  0.99019608  0.63235294  1.0
  Cu  Cu117  1  0.07843137  0.19607843  0.60294118  1.0
  Cu  Cu118  1  0.07843137  0.52941176  0.60294118  1.0
  Cu  Cu119  1  0.07843137  0.86274510  0.60294118  1.0
  Cu  Cu120  1  0.41176471  0.19607843  0.60294118  1.0
  Cu  Cu121  1  0.41176471  0.52941176  0.60294118  1.0
  Cu  Cu122  1  0.41176471  0.86274510  0.60294118  1.0
  Cu  Cu123  1  0.74509804  0.19607843  0.60294118  1.0
  Cu  Cu124  1  0.74509804  0.52941176  0.60294118  1.0
  Cu  Cu125  1  0.74509804  0.86274510  0.60294118  1.0
  Ni  Ni126  1  0.32352941  0.05882353  0.95588235  1.0
  Ni  Ni127  1  0.32352941  0.39215686  0.95588235  1.0
  Ni  Ni128  1  0.32352941  0.72549020  0.95588235  1.0
  Ni  Ni129  1  0.65686275  0.05882353  0.95588235  1.0
  Ni  Ni130  1  0.65686275  0.39215686  0.95588235  1.0
  Ni  Ni131  1  0.65686275  0.72549020  0.95588235  1.0
  Ni  Ni132  1  0.99019608  0.05882353  0.95588235  1.0
  Ni  Ni133  1  0.99019608  0.39215686  0.95588235  1.0
  Ni  Ni134  1  0.99019608  0.72549020  0.95588235  1.0
  Ni  Ni135  1  0.10784314  0.18627451  0.98529412  1.0
  Ni  Ni136  1  0.10784314  0.51960784  0.98529412  1.0
  Ni  Ni137  1  0.10784314  0.85294118  0.98529412  1.0
  Ni  Ni138  1  0.44117647  0.18627451  0.98529412  1.0
  Ni  Ni139  1  0.44117647  0.51960784  0.98529412  1.0
  Ni  Ni140  1  0.44117647  0.85294118  0.98529412  1.0
  Ni  Ni141  1  0.77450980  0.18627451  0.98529412  1.0
  Ni  Ni142  1  0.77450980  0.51960784  0.98529412  1.0
  Ni  Ni143  1  0.77450980  0.85294118  0.98529412  1.0
  Ni  Ni144  1  0.08823529  0.13725490  0.89705882  1.0
  Ni  Ni145  1  0.08823529  0.47058824  0.89705882  1.0
  Ni  Ni146  1  0.08823529  0.80392157  0.89705882  1.0
  Ni  Ni147  1  0.42156863  0.13725490  0.89705882  1.0
  Ni  Ni148  1  0.42156863  0.47058824  0.89705882  1.0
  Ni  Ni149  1  0.42156863  0.80392157  0.89705882  1.0
  Ni  Ni150  1  0.75490196  0.13725490  0.89705882  1.0
  Ni  Ni151  1  0.75490196  0.47058824  0.89705882  1.0
  Ni  Ni152  1  0.75490196  0.80392157  0.89705882  1.0
  Ni  Ni153  1  0.20588235  0.26470588  0.92647059  1.0
  Ni  Ni154  1  0.20588235  0.59803922  0.92647059  1.0
  Ni  Ni155  1  0.20588235  0.93137255  0.92647059  1.0
  Ni  Ni156  1  0.53921569  0.26470588  0.92647059  1.0
  Ni  Ni157  1  0.53921569  0.59803922  0.92647059  1.0
  Ni  Ni158  1  0.53921569  0.93137255  0.92647059  1.0
  Ni  Ni159  1  0.87254902  0.26470588  0.92647059  1.0
  Ni  Ni160  1  0.87254902  0.59803922  0.92647059  1.0
  Ni  Ni161  1  0.87254902  0.93137255  0.92647059  1.0
  Ni  Ni162  1  0.18627451  0.21568627  0.83823529  1.0
  Ni  Ni163  1  0.18627451  0.54901961  0.83823529  1.0
  Ni  Ni164  1  0.18627451  0.88235294  0.83823529  1.0
  Ni  Ni165  1  0.51960784  0.21568627  0.83823529  1.0
  Ni  Ni166  1  0.51960784  0.54901961  0.83823529  1.0
  Ni  Ni167  1  0.51960784  0.88235294  0.83823529  1.0
  Ni  Ni168  1  0.85294118  0.21568627  0.83823529  1.0
  Ni  Ni169  1  0.85294118  0.54901961  0.83823529  1.0
  Ni  Ni170  1  0.85294118  0.88235294  0.83823529  1.0
  Ni  Ni171  1  0.30392157  0.00980392  0.86764706  1.0
  Ni  Ni172  1  0.30392157  0.34313725  0.86764706  1.0
  Ni  Ni173  1  0.30392157  0.67647059  0.86764706  1.0
  Ni  Ni174  1  0.63725490  0.00980392  0.86764706  1.0
  Ni  Ni175  1  0.63725490  0.34313725  0.86764706  1.0
  Ni  Ni176  1  0.63725490  0.67647059  0.86764706  1.0
  Ni  Ni177  1  0.97058824  0.00980392  0.86764706  1.0
  Ni  Ni178  1  0.97058824  0.34313725  0.86764706  1.0
  Ni  Ni179  1  0.97058824  0.67647059  0.86764706  1.0
  Ni  Ni180  1  0.28431373  0.29411765  0.77941176  1.0
  Ni  Ni181  1  0.28431373  0.62745098  0.77941176  1.0
  Ni  Ni182  1  0.28431373  0.96078431  0.77941176  1.0
  Ni  Ni183  1  0.61764706  0.29411765  0.77941176  1.0
  Ni  Ni184  1  0.61764706  0.62745098  0.77941176  1.0
  Ni  Ni185  1  0.61764706  0.96078431  0.77941176  1.0
  Ni  Ni186  1  0.95098039  0.29411765  0.77941176  1.0
  Ni  Ni187  1  0.95098039  0.62745098  0.77941176  1.0
  Ni  Ni188  1  0.95098039  0.96078431  0.77941176  1.0
  Ni  Ni189  1  0.06862745  0.08823529  0.80882353  1.0
  Ni  Ni190  1  0.06862745  0.42156863  0.80882353  1.0
  Ni  Ni191  1  0.06862745  0.75490196  0.80882353  1.0
  Ni  Ni192  1  0.40196078  0.08823529  0.80882353  1.0
  Ni  Ni193  1  0.40196078  0.42156863  0.80882353  1.0
  Ni  Ni194  1  0.40196078  0.75490196  0.80882353  1.0
  Ni  Ni195  1  0.73529412  0.08823529  0.80882353  1.0
  Ni  Ni196  1  0.73529412  0.42156863  0.80882353  1.0
  Ni  Ni197  1  0.73529412  0.75490196  0.80882353  1.0
  Ni  Ni198  1  0.04901961  0.03921569  0.72058824  1.0
  Ni  Ni199  1  0.04901961  0.37254902  0.72058824  1.0
  Ni  Ni200  1  0.04901961  0.70588235  0.72058824  1.0
  Ni  Ni201  1  0.38235294  0.03921569  0.72058824  1.0
  Ni  Ni202  1  0.38235294  0.37254902  0.72058824  1.0
  Ni  Ni203  1  0.38235294  0.70588235  0.72058824  1.0
  Ni  Ni204  1  0.71568627  0.03921569  0.72058824  1.0
  Ni  Ni205  1  0.71568627  0.37254902  0.72058824  1.0
  Ni  Ni206  1  0.71568627  0.70588235  0.72058824  1.0
  Ni  Ni207  1  0.16666667  0.16666667  0.75000000  1.0
  Ni  Ni208  1  0.16666667  0.50000000  0.75000000  1.0
  Ni  Ni209  1  0.16666667  0.83333333  0.75000000  1.0
  Ni  Ni210  1  0.50000000  0.16666667  0.75000000  1.0
  Ni  Ni211  1  0.50000000  0.50000000  0.75000000  1.0
  Ni  Ni212  1  0.50000000  0.83333333  0.75000000  1.0
  Ni  Ni213  1  0.83333333  0.16666667  0.75000000  1.0
  Ni  Ni214  1  0.83333333  0.50000000  0.75000000  1.0
  Ni  Ni215  1  0.83333333  0.83333333  0.75000000  1.0
  Ni  Ni216  1  0.14705882  0.11764706  0.66176471  1.0
  Ni  Ni217  1  0.14705882  0.45098039  0.66176471  1.0
  Ni  Ni218  1  0.14705882  0.78431373  0.66176471  1.0
  Ni  Ni219  1  0.48039216  0.11764706  0.66176471  1.0
  Ni  Ni220  1  0.48039216  0.45098039  0.66176471  1.0
  Ni  Ni221  1  0.48039216  0.78431373  0.66176471  1.0
  Ni  Ni222  1  0.81372549  0.11764706  0.66176471  1.0
  Ni  Ni223  1  0.81372549  0.45098039  0.66176471  1.0
  Ni  Ni224  1  0.81372549  0.78431373  0.66176471  1.0
  Ni  Ni225  1  0.26470588  0.24509804  0.69117647  1.0
  Ni  Ni226  1  0.26470588  0.57843137  0.69117647  1.0
  Ni  Ni227  1  0.26470588  0.91176471  0.69117647  1.0
  Ni  Ni228  1  0.59803922  0.24509804  0.69117647  1.0
  Ni  Ni229  1  0.59803922  0.57843137  0.69117647  1.0
  Ni  Ni230  1  0.59803922  0.91176471  0.69117647  1.0
  Ni  Ni231  1  0.93137255  0.24509804  0.69117647  1.0
  Ni  Ni232  1  0.93137255  0.57843137  0.69117647  1.0
  Ni  Ni233  1  0.93137255  0.91176471  0.69117647  1.0
  Ni  Ni234  1  0.24509804  0.19607843  0.60294118  1.0
  Ni  Ni235  1  0.24509804  0.52941176  0.60294118  1.0
  Ni  Ni236  1  0.24509804  0.86274510  0.60294118  1.0
  Ni  Ni237  1  0.57843137  0.19607843  0.60294118  1.0
  Ni  Ni238  1  0.57843137  0.52941176  0.60294118  1.0
  Ni  Ni239  1  0.57843137  0.86274510  0.60294118  1.0
  Ni  Ni240  1  0.91176471  0.19607843  0.60294118  1.0
  Ni  Ni241  1  0.91176471  0.52941176  0.60294118  1.0
  Ni  Ni242  1  0.91176471  0.86274510  0.60294118  1.0
  Ni  Ni243  1  0.02941176  0.32352941  0.63235294  1.0
  Ni  Ni244  1  0.02941176  0.65686275  0.63235294  1.0
  Ni  Ni245  1  0.02941176  0.99019608  0.63235294  1.0
  Ni  Ni246  1  0.36274510  0.32352941  0.63235294  1.0
  Ni  Ni247  1  0.36274510  0.65686275  0.63235294  1.0
  Ni  Ni248  1  0.36274510  0.99019608  0.63235294  1.0
  Ni  Ni249  1  0.69607843  0.32352941  0.63235294  1.0
  Ni  Ni250  1  0.69607843  0.65686275  0.63235294  1.0
  Ni  Ni251  1  0.69607843  0.99019608  0.63235294  1.0
