# generated using pymatgen
data_CuNi
_symmetry_space_group_name_H-M   'P 1'
_cell_length_a   14.42968087
_cell_length_b   17.55509893
_cell_length_c   25.31394347
_cell_angle_alpha   93.32688100
_cell_angle_beta   95.26814988
_cell_angle_gamma   107.78332507
_symmetry_Int_Tables_number   1
_chemical_formula_structural   CuNi
_chemical_formula_sum   'Cu108 Ni108'
_cell_volume   6055.09722176
_cell_formula_units_Z   108
loop_
 _symmetry_equiv_pos_site_id
 _symmetry_equiv_pos_as_xyz
  1  'x, y, z'
loop_
 _atom_site_type_symbol
 _atom_site_label
 _atom_site_symmetry_multiplicity
 _atom_site_fract_x
 _atom_site_fract_y
 _atom_site_fract_z
 _atom_site_occupancy
  Cu  Cu0  1  0.06666667  0.25000000  0.05000000  1.0
  Cu  Cu1  1  0.06666667  0.58333333  0.05000000  1.0
  Cu  Cu2  1  0.06666667  0.91666667  0.05000000  1.0
  Cu  Cu3  1  0.40000000  0.25000000  0.05000000  1.0
  Cu  Cu4  1  0.40000000  0.58333333  0.05000000  1.0
  Cu  Cu5  1  0.40000000  0.91666667  0.05000000  1.0
  Cu  Cu6  1  0.73333333  0.25000000  0.05000000  1.0
  Cu  Cu7  1  0.73333333  0.58333333  0.05000000  1.0
  Cu  Cu8  1  0.73333333  0.91666667  0.05000000  1.0
  Cu  Cu9  1  0.18888889  0.02777778  0.01666667  1.0
  Cu  Cu10  1  0.18888889  0.36111111  0.01666667  1.0
  Cu  Cu11  1  0.18888889  0.69444444  0.01666667  1.0
  Cu  Cu12  1  0.52222222  0.02777778  0.01666667  1.0
  Cu  Cu13  1  0.52222222  0.36111111  0.01666667  1.0
  Cu  Cu14  1  0.52222222  0.69444444  0.01666667  1.0
  Cu  Cu15  1  0.85555556  0.02777778  0.01666667  1.0
  Cu  Cu16  1  0.85555556  0.36111111  0.01666667  1.0
  Cu  Cu17  1  0.85555556  0.69444444  0.01666667  1.0
  Cu  Cu18  1  0.15555556  0.02777778  0.11666667  1.0
  Cu  Cu19  1  0.15555556  0.36111111  0.11666667  1.0
  Cu  Cu20  1  0.15555556  0.69444444  0.11666667  1.0
  Cu  Cu21  1  0.48888889  0.02777778  0.11666667  1.0
  Cu  Cu22  1  0.48888889  0.36111111  0.11666667  1.0
  Cu  Cu23  1  0.48888889  0.69444444  0.11666667  1.0
  Cu  Cu24  1  0.82222222  0.02777778  0.11666667  1.0
  Cu  Cu25  1  0.82222222  0.36111111  0.11666667  1.0
  Cu  Cu26  1  0.82222222  0.69444444  0.11666667  1.0
  Cu  Cu27  1  0.27777778  0.13888889  0.08333333  1.0
  Cu  Cu28  1  0.27777778  0.47222222  0.08333333  1.0
  Cu  Cu29  1  0.27777778  0.80555556  0.08333333  1.0
  Cu  Cu30  1  0.61111111  0.13888889  0.08333333  1.0
  Cu  Cu31  1  0.61111111  0.47222222  0.08333333  1.0
  Cu  Cu32  1  0.61111111  0.80555556  0.08333333  1.0
  Cu  Cu33  1  0.94444444  0.13888889  0.08333333  1.0
  Cu  Cu34  1  0.94444444  0.47222222  0.08333333  1.0
  Cu  Cu35  1  0.94444444  0.80555556  0.08333333  1.0
  Cu  Cu36  1  0.24444444  0.13888889  0.18333333  1.0
  Cu  Cu37  1  0.24444444  0.47222222  0.18333333  1.0
  Cu  Cu38  1  0.24444444  0.80555556  0.18333333  1.0
  Cu  Cu39  1  0.57777778  0.13888889  0.18333333  1.0
  Cu  Cu40  1  0.57777778  0.47222222  0.18333333  1.0
  Cu  Cu41  1  0.57777778  0.80555556  0.18333333  1.0
  Cu  Cu42  1  0.91111111  0.13888889  0.18333333  1.0
  Cu  Cu43  1  0.91111111  0.47222222  0.18333333  1.0
  Cu  Cu44  1  0.91111111  0.80555556  0.18333333  1.0
  Cu  Cu45  1  0.03333333  0.25000000  0.15000000  1.0
  Cu  Cu46  1  0.03333333  0.58333333  0.15000000  1.0
  Cu  Cu47  1  0.03333333  0.91666667  0.15000000  1.0
  Cu  Cu48  1  0.36666667  0.25000000  0.15000000  1.0
  Cu  Cu49  1  0.36666667  0.58333333  0.15000000  1.0
  Cu  Cu50  1  0.36666667  0.91666667  0.15000000  1.0
  Cu  Cu51  1  0.70000000  0.25000000  0.15000000  1.0
  Cu  Cu52  1  0.70000000  0.58333333  0.15000000  1.0
  Cu  Cu53  1  0.70000000  0.91666667  0.15000000  1.0
  Cu  Cu54  1  0.00000000  0.25000000  0.25000000  1.0
  Cu  Cu55  1  0.00000000  0.58333333  0.25000000  1.0
  Cu  Cu56  1  0.00000000  0.91666667  0.25000000  1.0
  Cu  Cu57  1  0.33333333  0.25000000  0.25000000  1.0
  Cu  Cu58  1  0.33333333  0.58333333  0.25000000  1.0
  Cu  Cu59  1  0.33333333  0.91666667  0.25000000  1.0
  Cu  Cu60  1  0.66666667  0.25000000  0.25000000  1.0
  Cu  Cu61  1  0.66666667  0.58333333  0.25000000  1.0
  Cu  Cu62  1  0.66666667  0.91666667  0.25000000  1.0
  Cu  Cu63  1  0.12222222  0.02777778  0.21666667  1.0
  Cu  Cu64  1  0.12222222  0.36111111  0.21666667  1.0
  Cu  Cu65  1  0.12222222  0.69444444  0.21666667  1.0
  Cu  Cu66  1  0.45555556  0.02777778  0.21666667  1.0
  Cu  Cu67  1  0.45555556  0.36111111  0.21666667  1.0
  Cu  Cu68  1  0.45555556  0.69444444  0.21666667  1.0
  Cu  Cu69  1  0.78888889  0.02777778  0.21666667  1.0
  Cu  Cu70  1  0.78888889  0.36111111  0.21666667  1.0
  Cu  Cu71  1  0.78888889  0.69444444  0.21666667  1.0
  Cu  Cu72  1  0.08888889  0.02777778  0.31666667  1.0
  Cu  Cu73  1  0.08888889  0.36111111  0.31666667  1.0
  Cu  Cu74  1  0.08888889  0.69444444  0.31666667  1.0
  Cu  Cu75  1  0.42222222  0.02777778  0.31666667  1.0
  Cu  Cu76  1  0.42222222  0.36111111  0.31666667  1.0
  Cu  Cu77  1  0.42222222  0.69444444  0.31666667  1.0
  Cu  Cu78  1  0.75555556  0.02777778  0.31666667  1.0
  Cu  Cu79  1  0.75555556  0.36111111  0.31666667  1.0
  Cu  Cu80  1  0.75555556  0.69444444  0.31666667  1.0
  Cu  Cu81  1  0.21111111  0.13888889  0.28333333  1.0
  Cu  Cu82  1  0.21111111  0.47222222  0.28333333  1.0
  Cu  Cu83  1  0.21111111  0.80555556  0.28333333  1.0
  Cu  Cu84  1  0.54444444  0.13888889  0.28333333  1.0
  Cu  Cu85  1  0.54444444  0.47222222  0.28333333  1.0
  Cu  Cu86  1  0.54444444  0.80555556  0.28333333  1.0
  Cu  Cu87  1  0.87777778  0.13888889  0.28333333  1.0
  Cu  Cu88  1  0.87777778  0.47222222  0.28333333  1.0
  Cu  Cu89  1  0.87777778  0.80555556  0.28333333  1.0
  Cu  Cu90  1  0.17777778  0.13888889  0.38333333  1.0
  Cu  Cu91  1  0.17777778  0.47222222  0.38333333  1.0
  Cu  Cu92  1  0.17777778  0.80555556  0.38333333  1.0
  Cu  Cu93  1  0.51111111  0.13888889  0.38333333  1.0
  Cu  Cu94  1  0.51111111  0.47222222  0.38333333  1.0
  Cu  Cu95  1  0.51111111  0.80555556  0.38333333  1.0
  Cu  Cu96  1  0.84444444  0.13888889  0.38333333  1.0
  Cu  Cu97  1  0.84444444  0.47222222  0.38333333  1.0
  Cu  Cu98  1  0.84444444  0.80555556  0.38333333  1.0
  Cu  Cu99  1  0.30000000  0.25000000  0.35000000  1.0
  Cu  Cu100  1  0.30000000  0.58333333  0.35000000  1.0
  Cu  Cu101  1  0.30000000  0.91666667  0.35000000  1.0
  Cu  Cu102  1  0.63333333  0.25000000  0.35000000  1.0
  Cu  Cu103  1  0.63333333  0.58333333  0.35000000  1.0
  Cu  Cu104  1  0.63333333  0.91666667  0.35000000  1.0
  Cu  Cu105  1  0.96666667  0.25000000  0.35000000  1.0
  Cu  Cu106  1  0.96666667  0.58333333  0.35000000  1.0
  Cu  Cu107  1  0.96666667  0.91666667  0.35000000  1.0
  Ni  Ni108  1  0.06666667  0.08333333  0.05000000  1.0
  Ni  Ni109  1  0.06666667  0.41666667  0.05000000  1.0
  Ni  Ni110  1  0.06666667  0.75000000  0.05000000  1.0
  Ni  Ni111  1  0.40000000  0.08333333  0.05000000  1.0
  Ni  Ni112  1  0.40000000  0.41666667  0.05000000  1.0
  Ni  Ni113  1  0.40000000  0.75000000  0.05000000  1.0
  Ni  Ni114  1  0.73333333  0.08333333  0.05000000  1.0
  Ni  Ni115  1  0.73333333  0.41666667  0.05000000  1.0
  Ni  Ni116  1  0.73333333  0.75000000  0.05000000  1.0
  Ni  Ni117  1  0.18888889  0.19444444  0.01666667  1.0
  Ni  Ni118  1  0.18888889  0.52777778  0.01666667  1.0
  Ni  Ni119  1  0.18888889  0.86111111  0.01666667  1.0
  Ni  Ni120  1  0.52222222  0.19444444  0.01666667  1.0
  Ni  Ni121  1  0.52222222  0.52777778  0.01666667  1.0
  Ni  Ni122  1  0.52222222  0.86111111  0.01666667  1.0
  Ni  Ni123  1  0.85555556  0.19444444  0.01666667  1.0
  Ni  Ni124  1  0.85555556  0.52777778  0.01666667  1.0
  Ni  Ni125  1  0.85555556  0.86111111  0.01666667  1.0
  Ni  Ni126  1  0.15555556  0.19444444  0.11666667  1.0
  Ni  Ni127  1  0.15555556  0.52777778  0.11666667  1.0
  Ni  Ni128  1  0.15555556  0.86111111  0.11666667  1.0
  Ni  Ni129  1  0.48888889  0.19444444  0.11666667  1.0
  Ni  Ni130  1  0.48888889  0.52777778  0.11666667  1.0
  Ni  Ni131  1  0.48888889  0.86111111  0.11666667  1.0
  Ni  Ni132  1  0.82222222  0.19444444  0.11666667  1.0
  Ni  Ni133  1  0.82222222  0.52777778  0.11666667  1.0
  Ni  Ni134  1  0.82222222  0.86111111  0.11666667  1.0
  Ni  Ni135  1  0.27777778  0.30555556  0.08333333  1.0
  Ni  Ni136  1  0.27777778  0.63888889  0.08333333  1.0
  Ni  Ni137  1  0.27777778  0.97222222  0.08333333  1.0
  Ni  Ni138  1  0.61111111  0.30555556  0.08333333  1.0
  Ni  Ni139  1  0.61111111  0.63888889  0.08333333  1.0
  Ni  Ni140  1  0.61111111  0.97222222  0.08333333  1.0
  Ni  Ni141  1  0.94444444  0.30555556  0.08333333  1.0
  Ni  Ni142  1  0.94444444  0.63888889  0.08333333  1.0
  Ni  Ni143  1  0.94444444  0.97222222  0.08333333  1.0
  Ni  Ni144  1  0.24444444  0.30555556  0.18333333  1.0
  Ni  Ni145  1  0.24444444  0.63888889  0.18333333  1.0
  Ni  Ni146  1  0.24444444  0.97222222  0.18333333  1.0
  Ni  Ni147  1  0.57777778  0.30555556  0.18333333  1.0
  Ni  Ni148  1  0.57777778  0.63888889  0.18333333  1.0
  Ni  Ni149  1  0.57777778  0.97222222  0.18333333  1.0
  Ni  Ni150  1  0.91111111  0.30555556  0.18333333  1.0
  Ni  Ni151  1  0.91111111  0.63888889  0.18333333  1.0
  Ni  Ni152  1  0.91111111  0.97222222  0.18333333  1.0
  Ni  Ni153  1  0.03333333  0.08333333  0.15000000  1.0
  Ni  Ni154  1  0.03333333  0.41666667  0.15000000  1.0
  Ni  Ni155  1  0.03333333  0.75000000  0.15000000  1.0
  Ni  Ni156  1  0.36666667  0.08333333  0.15000000  1.0
  Ni  Ni157  1  0.36666667  0.41666667  0.15000000  1.0
  Ni  Ni158  1  0.36666667  0.75000000  0.15000000  1.0
  Ni  Ni159  1  0.70000000  0.08333333  0.15000000  1.0
  Ni  Ni160  1  0.70000000  0.41666667  0.15000000  1.0
  Ni  Ni161  1  0.70000000  0.75000000  0.15000000  1.0
  Ni  Ni162  1  0.00000000  0.08333333  0.25000000  1.0
  Ni  Ni163  1  0.00000000  0.41666667  0.25000000  1.0
  Ni  Ni164  1  0.00000000  0.75000000  0.25000000  1.0
  Ni  Ni165  1  0.33333333  0.08333333  0.25000000  1.0
  Ni  Ni166  1  0.33333333  0.41666667  0.25000000  1.0
  Ni  Ni167  1  0.33333333  0.75000000  0.25000000  1.0
  Ni  Ni168  1  0.66666667  0.08333333  0.25000000  1.0
  Ni  Ni169  1  0.66666667  0.41666667  0.25000000  1.0
  Ni  Ni170  1  0.66666667  0.75000000  0.25000000  1.0
  Ni  Ni171  1  0.12222222  0.19444444  0.21666667  1.0
  Ni  Ni172  1  0.12222222  0.52777778  0.21666667  1.0
  Ni  Ni173  1  0.12222222  0.86111111  0.21666667  1.0
  Ni  Ni174  1  0.45555556  0.19444444  0.21666667  1.0
  Ni  Ni175  1  0.45555556  0.52777778  0.21666667  1.0
  Ni  Ni176  1  0.45555556  0.86111111  0.21666667  1.0
  Ni  Ni177  1  0.78888889  0.19444444  0.21666667  1.0
  Ni  Ni178  1  0.78888889  0.52777778  0.21666667  1.0
  Ni  Ni179  1  0.78888889  0.86111111  0.21666667  1.0
  Ni  Ni180  1  0.08888889  0.19444444  0.31666667  1.0
  Ni  Ni181  1  0.08888889  0.52777778  0.31666667  1.0
  Ni  Ni182  1  0.08888889  0.86111111  0.31666667  1.0
  Ni  Ni183  1  0.42222222  0.19444444  0.31666667  1.0
  Ni  Ni184  1  0.42222222  0.52777778  0.31666667  1.0
  Ni  Ni185  1  0.42222222  0.86111111  0.31666667  1.0
  Ni  Ni186  1  0.75555556  0.19444444  0.31666667  1.0
  Ni  Ni187  1  0.75555556  0.52777778  0.31666667  1.0
  Ni  Ni188  1  0.75555556  0.86111111  0.31666667  1.0
  Ni  Ni189  1  0.21111111  0.30555556  0.28333333  1.0
  Ni  Ni190  1  0.21111111  0.63888889  0.28333333  1.0
  Ni  Ni191  1  0.21111111  0.97222222  0.28333333  1.0
  Ni  Ni192  1  0.54444444  0.30555556  0.28333333  1.0
  Ni  Ni193  1  0.54444444  0.63888889  0.28333333  1.0
  Ni  Ni194  1  0.54444444  0.97222222  0.28333333  1.0
  Ni  Ni195  1  0.87777778  0.30555556  0.28333333  1.0
  Ni  Ni196  1  0.87777778  0.63888889  0.28333333  1.0
  Ni  Ni197  1  0.87777778  0.97222222  0.28333333  1.0
  Ni  Ni198  1  0.17777778  0.30555556  0.38333333  1.0
  Ni  Ni199  1  0.17777778  0.63888889  0.38333333  1.0
  Ni  Ni200  1  0.17777778  0.97222222  0.38333333  1.0
  Ni  Ni201  1  0.51111111  0.30555556  0.38333333  1.0
  Ni  Ni202  1  0.51111111  0.63888889  0.38333333  1.0
  Ni  Ni203  1  0.51111111  0.97222222  0.38333333  1.0
  Ni  Ni204  1  0.84444444  0.30555556  0.38333333  1.0
  Ni  Ni205  1  0.84444444  0.63888889  0.38333333  1.0
  Ni  Ni206  1  0.84444444  0.97222222  0.38333333  1.0
  Ni  Ni207  1  0.30000000  0.08333333  0.35000000  1.0
  Ni  Ni208  1  0.30000000  0.41666667  0.35000000  1.0
  Ni  Ni209  1  0.30000000  0.75000000  0.35000000  1.0
  Ni  Ni210  1  0.63333333  0.08333333  0.35000000  1.0
  Ni  Ni211  1  0.63333333  0.41666667  0.35000000  1.0
  Ni  Ni212  1  0.63333333  0.75000000  0.35000000  1.0
  Ni  Ni213  1  0.96666667  0.08333333  0.35000000  1.0
  Ni  Ni214  1  0.96666667  0.41666667  0.35000000  1.0
  Ni  Ni215  1  0.96666667  0.75000000  0.35000000  1.0
