# generated using pymatgen
data_CuNi
_symmetry_space_group_name_H-M   'P 1'
_cell_length_a   7.49980110
_cell_length_b   25.96910096
_cell_length_c   32.49913810
_cell_angle_alpha   106.78595398
_cell_angle_beta   120.00000000
_cell_angle_gamma   81.69754783
_symmetry_Int_Tables_number   1
_chemical_formula_structural   CuNi
_chemical_formula_sum   'Cu90 Ni90'
_cell_volume   5248.05248604
_cell_formula_units_Z   90
loop_
 _symmetry_equiv_pos_site_id
 _symmetry_equiv_pos_as_xyz
  1  'x, y, z'
loop_
 _atom_site_type_symbol
 _atom_site_label
 _atom_site_symmetry_multiplicity
 _atom_site_fract_x
 _atom_site_fract_y
 _atom_site_fract_z
 _atom_site_occupancy
  Cu  Cu0  1  0.00000000  0.08333333  0.00320513  1.0
  Cu  Cu1  1  0.00000000  0.41666667  0.00320513  1.0
  Cu  Cu2  1  0.00000000  0.75000000  0.00320513  1.0
  Cu  Cu3  1  0.33333333  0.08333333  0.00320513  1.0
  Cu  Cu4  1  0.33333333  0.41666667  0.00320513  1.0
  Cu  Cu5  1  0.33333333  0.75000000  0.00320513  1.0
  Cu  Cu6  1  0.66666667  0.08333333  0.00320513  1.0
  Cu  Cu7  1  0.66666667  0.41666667  0.00320513  1.0
  Cu  Cu8  1  0.66666667  0.75000000  0.00320513  1.0
  Cu  Cu9  1  0.00000000  0.25000000  0.04166667  1.0
  Cu  Cu10  1  0.00000000  0.58333333  0.04166667  1.0
  Cu  Cu11  1  0.00000000  0.91666667  0.04166667  1.0
  Cu  Cu12  1  0.33333333  0.25000000  0.04166667  1.0
  Cu  Cu13  1  0.33333333  0.58333333  0.04166667  1.0
  Cu  Cu14  1  0.33333333  0.91666667  0.04166667  1.0
  Cu  Cu15  1  0.66666667  0.25000000  0.04166667  1.0
  Cu  Cu16  1  0.66666667  0.58333333  0.04166667  1.0
  Cu  Cu17  1  0.66666667  0.91666667  0.04166667  1.0
  Ni  Ni18  1  0.11111111  0.00000000  0.03525641  1.0
  Ni  Ni19  1  0.11111111  0.33333333  0.03525641  1.0
  Ni  Ni20  1  0.11111111  0.66666667  0.03525641  1.0
  Ni  Ni21  1  0.44444444  0.00000000  0.03525641  1.0
  Ni  Ni22  1  0.44444444  0.33333333  0.03525641  1.0
  Ni  Ni23  1  0.44444444  0.66666667  0.03525641  1.0
  Ni  Ni24  1  0.77777778  0.00000000  0.03525641  1.0
  Ni  Ni25  1  0.77777778  0.33333333  0.03525641  1.0
  Ni  Ni26  1  0.77777778  0.66666667  0.03525641  1.0
  Ni  Ni27  1  0.11111111  0.16666667  0.07371795  1.0
  Ni  Ni28  1  0.11111111  0.50000000  0.07371795  1.0
  Ni  Ni29  1  0.11111111  0.83333333  0.07371795  1.0
  Ni  Ni30  1  0.44444444  0.16666667  0.07371795  1.0
  Ni  Ni31  1  0.44444444  0.50000000  0.07371795  1.0
  Ni  Ni32  1  0.44444444  0.83333333  0.07371795  1.0
  Ni  Ni33  1  0.77777778  0.16666667  0.07371795  1.0
  Ni  Ni34  1  0.77777778  0.50000000  0.07371795  1.0
  Ni  Ni35  1  0.77777778  0.83333333  0.07371795  1.0
  Cu  Cu36  1  0.00000000  0.08333333  0.08012821  1.0
  Cu  Cu37  1  0.00000000  0.41666667  0.08012821  1.0
  Cu  Cu38  1  0.00000000  0.75000000  0.08012821  1.0
  Cu  Cu39  1  0.33333333  0.08333333  0.08012821  1.0
  Cu  Cu40  1  0.33333333  0.41666667  0.08012821  1.0
  Cu  Cu41  1  0.33333333  0.75000000  0.08012821  1.0
  Cu  Cu42  1  0.66666667  0.08333333  0.08012821  1.0
  Cu  Cu43  1  0.66666667  0.41666667  0.08012821  1.0
  Cu  Cu44  1  0.66666667  0.75000000  0.08012821  1.0
  Cu  Cu45  1  0.00000000  0.25000000  0.11858974  1.0
  Cu  Cu46  1  0.00000000  0.58333333  0.11858974  1.0
  Cu  Cu47  1  0.00000000  0.91666667  0.11858974  1.0
  Cu  Cu48  1  0.33333333  0.25000000  0.11858974  1.0
  Cu  Cu49  1  0.33333333  0.58333333  0.11858974  1.0
  Cu  Cu50  1  0.33333333  0.91666667  0.11858974  1.0
  Cu  Cu51  1  0.66666667  0.25000000  0.11858974  1.0
  Cu  Cu52  1  0.66666667  0.58333333  0.11858974  1.0
  Cu  Cu53  1  0.66666667  0.91666667  0.11858974  1.0
  Ni  Ni54  1  0.11111111  0.00000000  0.11217949  1.0
  Ni  Ni55  1  0.11111111  0.33333333  0.11217949  1.0
  Ni  Ni56  1  0.11111111  0.66666667  0.11217949  1.0
  Ni  Ni57  1  0.44444444  0.00000000  0.11217949  1.0
  Ni  Ni58  1  0.44444444  0.33333333  0.11217949  1.0
  Ni  Ni59  1  0.44444444  0.66666667  0.11217949  1.0
  Ni  Ni60  1  0.77777778  0.00000000  0.11217949  1.0
  Ni  Ni61  1  0.77777778  0.33333333  0.11217949  1.0
  Ni  Ni62  1  0.77777778  0.66666667  0.11217949  1.0
  Ni  Ni63  1  0.11111111  0.16666667  0.15064103  1.0
  Ni  Ni64  1  0.11111111  0.50000000  0.15064103  1.0
  Ni  Ni65  1  0.11111111  0.83333333  0.15064103  1.0
  Ni  Ni66  1  0.44444444  0.16666667  0.15064103  1.0
  Ni  Ni67  1  0.44444444  0.50000000  0.15064103  1.0
  Ni  Ni68  1  0.44444444  0.83333333  0.15064103  1.0
  Ni  Ni69  1  0.77777778  0.16666667  0.15064103  1.0
  Ni  Ni70  1  0.77777778  0.50000000  0.15064103  1.0
  Ni  Ni71  1  0.77777778  0.83333333  0.15064103  1.0
  Cu  Cu72  1  0.00000000  0.08333333  0.15705128  1.0
  Cu  Cu73  1  0.00000000  0.41666667  0.15705128  1.0
  Cu  Cu74  1  0.00000000  0.75000000  0.15705128  1.0
  Cu  Cu75  1  0.33333333  0.08333333  0.15705128  1.0
  Cu  Cu76  1  0.33333333  0.41666667  0.15705128  1.0
  Cu  Cu77  1  0.33333333  0.75000000  0.15705128  1.0
  Cu  Cu78  1  0.66666667  0.08333333  0.15705128  1.0
  Cu  Cu79  1  0.66666667  0.41666667  0.15705128  1.0
  Cu  Cu80  1  0.66666667  0.75000000  0.15705128  1.0
  Cu  Cu81  1  0.00000000  0.25000000  0.19551282  1.0
  Cu  Cu82  1  0.00000000  0.58333333  0.19551282  1.0
  Cu  Cu83  1  0.00000000  0.91666667  0.19551282  1.0
  Cu  Cu84  1  0.33333333  0.25000000  0.19551282  1.0
  Cu  Cu85  1  0.33333333  0.58333333  0.19551282  1.0
  Cu  Cu86  1  0.33333333  0.91666667  0.19551282  1.0
  Cu  Cu87  1  0.66666667  0.25000000  0.19551282  1.0
  Cu  Cu88  1  0.66666667  0.58333333  0.19551282  1.0
  Cu  Cu89  1  0.66666667  0.91666667  0.19551282  1.0
  Ni  Ni90  1  0.11111111  0.00000000  0.18910256  1.0
  Ni  Ni91  1  0.11111111  0.33333333  0.18910256  1.0
  Ni  Ni92  1  0.11111111  0.66666667  0.18910256  1.0
  Ni  Ni93  1  0.44444444  0.00000000  0.18910256  1.0
  Ni  Ni94  1  0.44444444  0.33333333  0.18910256  1.0
  Ni  Ni95  1  0.44444444  0.66666667  0.18910256  1.0
  Ni  Ni96  1  0.77777778  0.00000000  0.18910256  1.0
  Ni  Ni97  1  0.77777778  0.33333333  0.18910256  1.0
  Ni  Ni98  1  0.77777778  0.66666667  0.18910256  1.0
  Ni  Ni99  1  0.11111111  0.16666667  0.22756410  1.0
  Ni  Ni100  1  0.11111111  0.50000000  0.22756410  1.0
  Ni  Ni101  1  0.11111111  0.83333333  0.22756410  1.0
  Ni  Ni102  1  0.44444444  0.16666667  0.22756410  1.0
  Ni  Ni103  1  0.44444444  0.50000000  0.22756410  1.0
  Ni  Ni104  1  0.44444444  0.83333333  0.22756410  1.0
  Ni  Ni105  1  0.77777778  0.16666667  0.22756410  1.0
  Ni  Ni106  1  0.77777778  0.50000000  0.22756410  1.0
  Ni  Ni107  1  0.77777778  0.83333333  0.22756410  1.0
  Cu  Cu108  1  0.00000000  0.08333333  0.23397436  1.0
  Cu  Cu109  1  0.00000000  0.41666667  0.23397436  1.0
  Cu  Cu110  1  0.00000000  0.75000000  0.23397436  1.0
  Cu  Cu111  1  0.33333333  0.08333333  0.23397436  1.0
  Cu  Cu112  1  0.33333333  0.41666667  0.23397436  1.0
  Cu  Cu113  1  0.33333333  0.75000000  0.23397436  1.0
  Cu  Cu114  1  0.66666667  0.08333333  0.23397436  1.0
  Cu  Cu115  1  0.66666667  0.41666667  0.23397436  1.0
  Cu  Cu116  1  0.66666667  0.75000000  0.23397436  1.0
  Cu  Cu117  1  0.00000000  0.25000000  0.27243590  1.0
  Cu  Cu118  1  0.00000000  0.58333333  0.27243590  1.0
  Cu  Cu119  1  0.00000000  0.91666667  0.27243590  1.0
  Cu  Cu120  1  0.33333333  0.25000000  0.27243590  1.0
  Cu  Cu121  1  0.33333333  0.58333333  0.27243590  1.0
  Cu  Cu122  1  0.33333333  0.91666667  0.27243590  1.0
  Cu  Cu123  1  0.66666667  0.25000000  0.27243590  1.0
  Cu  Cu124  1  0.66666667  0.58333333  0.27243590  1.0
  Cu  Cu125  1  0.66666667  0.91666667  0.27243590  1.0
  Ni  Ni126  1  0.11111111  0.00000000  0.26602564  1.0
  Ni  Ni127  1  0.11111111  0.33333333  0.26602564  1.0
  Ni  Ni128  1  0.11111111  0.66666667  0.26602564  1.0
  Ni  Ni129  1  0.44444444  0.00000000  0.26602564  1.0
  Ni  Ni130  1  0.44444444  0.33333333  0.26602564  1.0
  Ni  Ni131  1  0.44444444  0.66666667  0.26602564  1.0
  Ni  Ni132  1  0.77777778  0.00000000  0.26602564  1.0
  Ni  Ni133  1  0.77777778  0.33333333  0.26602564  1.0
  Ni  Ni134  1  0.77777778  0.66666667  0.26602564  1.0
  Ni  Ni135  1  0.11111111  0.16666667  0.30448718  1.0
  Ni  Ni136  1  0.11111111  0.50000000  0.30448718  1.0
  Ni  Ni137  1  0.11111111  0.83333333  0.30448718  1.0
  Ni  Ni138  1  0.44444444  0.16666667  0.30448718  1.0
  Ni  Ni139  1  0.44444444  0.50000000  0.30448718  1.0
  Ni  Ni140  1  0.44444444  0.83333333  0.30448718  1.0
  Ni  Ni141  1  0.77777778  0.16666667  0.30448718  1.0
  Ni  Ni142  1  0.77777778  0.50000000  0.30448718  1.0
  Ni  Ni143  1  0.77777778  0.83333333  0.30448718  1.0
  Cu  Cu144  1  0.00000000  0.08333333  0.31089744  1.0
  Cu  Cu145  1  0.00000000  0.41666667  0.31089744  1.0
  Cu  Cu146  1  0.00000000  0.75000000  0.31089744  1.0
  Cu  Cu147  1  0.33333333  0.08333333  0.31089744  1.0
  Cu  Cu148  1  0.33333333  0.41666667  0.31089744  1.0
  Cu  Cu149  1  0.33333333  0.75000000  0.31089744  1.0
  Cu  Cu150  1  0.66666667  0.08333333  0.31089744  1.0
  Cu  Cu151  1  0.66666667  0.41666667  0.31089744  1.0
  Cu  Cu152  1  0.66666667  0.75000000  0.31089744  1.0
  Cu  Cu153  1  0.00000000  0.25000000  0.34935897  1.0
  Cu  Cu154  1  0.00000000  0.58333333  0.34935897  1.0
  Cu  Cu155  1  0.00000000  0.91666667  0.34935897  1.0
  Cu  Cu156  1  0.33333333  0.25000000  0.34935897  1.0
  Cu  Cu157  1  0.33333333  0.58333333  0.34935897  1.0
  Cu  Cu158  1  0.33333333  0.91666667  0.34935897  1.0
  Cu  Cu159  1  0.66666667  0.25000000  0.34935897  1.0
  Cu  Cu160  1  0.66666667  0.58333333  0.34935897  1.0
  Cu  Cu161  1  0.66666667  0.91666667  0.34935897  1.0
  Ni  Ni162  1  0.11111111  0.00000000  0.34294872  1.0
  Ni  Ni163  1  0.11111111  0.33333333  0.34294872  1.0
  Ni  Ni164  1  0.11111111  0.66666667  0.34294872  1.0
  Ni  Ni165  1  0.44444444  0.00000000  0.34294872  1.0
  Ni  Ni166  1  0.44444444  0.33333333  0.34294872  1.0
  Ni  Ni167  1  0.44444444  0.66666667  0.34294872  1.0
  Ni  Ni168  1  0.77777778  0.00000000  0.34294872  1.0
  Ni  Ni169  1  0.77777778  0.33333333  0.34294872  1.0
  Ni  Ni170  1  0.77777778  0.66666667  0.34294872  1.0
  Ni  Ni171  1  0.11111111  0.16666667  0.38141026  1.0
  Ni  Ni172  1  0.11111111  0.50000000  0.38141026  1.0
  Ni  Ni173  1  0.11111111  0.83333333  0.38141026  1.0
  Ni  Ni174  1  0.44444444  0.16666667  0.38141026  1.0
  Ni  Ni175  1  0.44444444  0.50000000  0.38141026  1.0
  Ni  Ni176  1  0.44444444  0.83333333  0.38141026  1.0
  Ni  Ni177  1  0.77777778  0.16666667  0.38141026  1.0
  Ni  Ni178  1  0.77777778  0.50000000  0.38141026  1.0
  Ni  Ni179  1  0.77777778  0.83333333  0.38141026  1.0
