# generated using pymatgen
data_CuNi3
_symmetry_space_group_name_H-M   'P 1'
_cell_length_a   18.36765670
_cell_length_b   24.89418247
_cell_length_c   27.17108017
_cell_angle_alpha   83.59826766
_cell_angle_beta   89.50173243
_cell_angle_gamma   74.24725433
_symmetry_Int_Tables_number   1
_chemical_formula_structural   CuNi3
_chemical_formula_sum   'Cu108 Ni324'
_cell_volume   11879.71936504
_cell_formula_units_Z   108
loop_
 _symmetry_equiv_pos_site_id
 _symmetry_equiv_pos_as_xyz
  1  'x, y, z'
loop_
 _atom_site_type_symbol
 _atom_site_label
 _atom_site_symmetry_multiplicity
 _atom_site_fract_x
 _atom_site_fract_y
 _atom_site_fract_z
 _atom_site_occupancy
  Cu  Cu0  1  0.08343747  0.00000000  0.93742190  1.0
  Cu  Cu1  1  0.08343747  0.33333333  0.93742190  1.0
  Cu  Cu2  1  0.08343747  0.66666667  0.93742190  1.0
  Cu  Cu3  1  0.41677080  0.00000000  0.93742190  1.0
  Cu  Cu4  1  0.41677080  0.33333333  0.93742190  1.0
  Cu  Cu5  1  0.41677080  0.66666667  0.93742190  1.0
  Cu  Cu6  1  0.75010413  0.00000000  0.93742190  1.0
  Cu  Cu7  1  0.75010413  0.33333333  0.93742190  1.0
  Cu  Cu8  1  0.75010413  0.66666667  0.93742190  1.0
  Cu  Cu9  1  0.20565969  0.00000000  0.97075523  1.0
  Cu  Cu10  1  0.20565969  0.33333333  0.97075523  1.0
  Cu  Cu11  1  0.20565969  0.66666667  0.97075523  1.0
  Cu  Cu12  1  0.53899302  0.00000000  0.97075523  1.0
  Cu  Cu13  1  0.53899302  0.33333333  0.97075523  1.0
  Cu  Cu14  1  0.53899302  0.66666667  0.97075523  1.0
  Cu  Cu15  1  0.87232636  0.00000000  0.97075523  1.0
  Cu  Cu16  1  0.87232636  0.33333333  0.97075523  1.0
  Cu  Cu17  1  0.87232636  0.66666667  0.97075523  1.0
  Cu  Cu18  1  0.17232636  0.00000000  0.87075523  1.0
  Cu  Cu19  1  0.17232636  0.33333333  0.87075523  1.0
  Cu  Cu20  1  0.17232636  0.66666667  0.87075523  1.0
  Cu  Cu21  1  0.50565969  0.00000000  0.87075523  1.0
  Cu  Cu22  1  0.50565969  0.33333333  0.87075523  1.0
  Cu  Cu23  1  0.50565969  0.66666667  0.87075523  1.0
  Cu  Cu24  1  0.83899302  0.00000000  0.87075523  1.0
  Cu  Cu25  1  0.83899302  0.33333333  0.87075523  1.0
  Cu  Cu26  1  0.83899302  0.66666667  0.87075523  1.0
  Cu  Cu27  1  0.29454858  0.00000000  0.90408857  1.0
  Cu  Cu28  1  0.29454858  0.33333333  0.90408857  1.0
  Cu  Cu29  1  0.29454858  0.66666667  0.90408857  1.0
  Cu  Cu30  1  0.62788191  0.00000000  0.90408857  1.0
  Cu  Cu31  1  0.62788191  0.33333333  0.90408857  1.0
  Cu  Cu32  1  0.62788191  0.66666667  0.90408857  1.0
  Cu  Cu33  1  0.96121524  0.00000000  0.90408857  1.0
  Cu  Cu34  1  0.96121524  0.33333333  0.90408857  1.0
  Cu  Cu35  1  0.96121524  0.66666667  0.90408857  1.0
  Cu  Cu36  1  0.26121524  0.00000000  0.80408857  1.0
  Cu  Cu37  1  0.26121524  0.33333333  0.80408857  1.0
  Cu  Cu38  1  0.26121524  0.66666667  0.80408857  1.0
  Cu  Cu39  1  0.59454858  0.00000000  0.80408857  1.0
  Cu  Cu40  1  0.59454858  0.33333333  0.80408857  1.0
  Cu  Cu41  1  0.59454858  0.66666667  0.80408857  1.0
  Cu  Cu42  1  0.92788191  0.00000000  0.80408857  1.0
  Cu  Cu43  1  0.92788191  0.33333333  0.80408857  1.0
  Cu  Cu44  1  0.92788191  0.66666667  0.80408857  1.0
  Cu  Cu45  1  0.05010413  0.00000000  0.83742190  1.0
  Cu  Cu46  1  0.05010413  0.33333333  0.83742190  1.0
  Cu  Cu47  1  0.05010413  0.66666667  0.83742190  1.0
  Cu  Cu48  1  0.38343747  0.00000000  0.83742190  1.0
  Cu  Cu49  1  0.38343747  0.33333333  0.83742190  1.0
  Cu  Cu50  1  0.38343747  0.66666667  0.83742190  1.0
  Cu  Cu51  1  0.71677080  0.00000000  0.83742190  1.0
  Cu  Cu52  1  0.71677080  0.33333333  0.83742190  1.0
  Cu  Cu53  1  0.71677080  0.66666667  0.83742190  1.0
  Cu  Cu54  1  0.01677080  0.00000000  0.73742190  1.0
  Cu  Cu55  1  0.01677080  0.33333333  0.73742190  1.0
  Cu  Cu56  1  0.01677080  0.66666667  0.73742190  1.0
  Cu  Cu57  1  0.35010413  0.00000000  0.73742190  1.0
  Cu  Cu58  1  0.35010413  0.33333333  0.73742190  1.0
  Cu  Cu59  1  0.35010413  0.66666667  0.73742190  1.0
  Cu  Cu60  1  0.68343747  0.00000000  0.73742190  1.0
  Cu  Cu61  1  0.68343747  0.33333333  0.73742190  1.0
  Cu  Cu62  1  0.68343747  0.66666667  0.73742190  1.0
  Cu  Cu63  1  0.13899302  0.00000000  0.77075523  1.0
  Cu  Cu64  1  0.13899302  0.33333333  0.77075523  1.0
  Cu  Cu65  1  0.13899302  0.66666667  0.77075523  1.0
  Cu  Cu66  1  0.47232636  0.00000000  0.77075523  1.0
  Cu  Cu67  1  0.47232636  0.33333333  0.77075523  1.0
  Cu  Cu68  1  0.47232636  0.66666667  0.77075523  1.0
  Cu  Cu69  1  0.80565969  0.00000000  0.77075523  1.0
  Cu  Cu70  1  0.80565969  0.33333333  0.77075523  1.0
  Cu  Cu71  1  0.80565969  0.66666667  0.77075523  1.0
  Cu  Cu72  1  0.10565969  0.00000000  0.67075523  1.0
  Cu  Cu73  1  0.10565969  0.33333333  0.67075523  1.0
  Cu  Cu74  1  0.10565969  0.66666667  0.67075523  1.0
  Cu  Cu75  1  0.43899302  0.00000000  0.67075523  1.0
  Cu  Cu76  1  0.43899302  0.33333333  0.67075523  1.0
  Cu  Cu77  1  0.43899302  0.66666667  0.67075523  1.0
  Cu  Cu78  1  0.77232636  0.00000000  0.67075523  1.0
  Cu  Cu79  1  0.77232636  0.33333333  0.67075523  1.0
  Cu  Cu80  1  0.77232636  0.66666667  0.67075523  1.0
  Cu  Cu81  1  0.22788191  0.00000000  0.70408857  1.0
  Cu  Cu82  1  0.22788191  0.33333333  0.70408857  1.0
  Cu  Cu83  1  0.22788191  0.66666667  0.70408857  1.0
  Cu  Cu84  1  0.56121524  0.00000000  0.70408857  1.0
  Cu  Cu85  1  0.56121524  0.33333333  0.70408857  1.0
  Cu  Cu86  1  0.56121524  0.66666667  0.70408857  1.0
  Cu  Cu87  1  0.89454858  0.00000000  0.70408857  1.0
  Cu  Cu88  1  0.89454858  0.33333333  0.70408857  1.0
  Cu  Cu89  1  0.89454858  0.66666667  0.70408857  1.0
  Cu  Cu90  1  0.19454858  0.00000000  0.60408857  1.0
  Cu  Cu91  1  0.19454858  0.33333333  0.60408857  1.0
  Cu  Cu92  1  0.19454858  0.66666667  0.60408857  1.0
  Cu  Cu93  1  0.52788191  0.00000000  0.60408857  1.0
  Cu  Cu94  1  0.52788191  0.33333333  0.60408857  1.0
  Cu  Cu95  1  0.52788191  0.66666667  0.60408857  1.0
  Cu  Cu96  1  0.86121524  0.00000000  0.60408857  1.0
  Cu  Cu97  1  0.86121524  0.33333333  0.60408857  1.0
  Cu  Cu98  1  0.86121524  0.66666667  0.60408857  1.0
  Cu  Cu99  1  0.31677080  0.00000000  0.63742190  1.0
  Cu  Cu100  1  0.31677080  0.33333333  0.63742190  1.0
  Cu  Cu101  1  0.31677080  0.66666667  0.63742190  1.0
  Cu  Cu102  1  0.65010413  0.00000000  0.63742190  1.0
  Cu  Cu103  1  0.65010413  0.33333333  0.63742190  1.0
  Cu  Cu104  1  0.65010413  0.66666667  0.63742190  1.0
  Cu  Cu105  1  0.98343747  0.00000000  0.63742190  1.0
  Cu  Cu106  1  0.98343747  0.33333333  0.63742190  1.0
  Cu  Cu107  1  0.98343747  0.66666667  0.63742190  1.0
  Ni  Ni108  1  0.13123242  0.24843800  0.99591143  1.0
  Ni  Ni109  1  0.13123242  0.58177133  0.99591143  1.0
  Ni  Ni110  1  0.13123242  0.91510467  0.99591143  1.0
  Ni  Ni111  1  0.46456576  0.24843800  0.99591143  1.0
  Ni  Ni112  1  0.46456576  0.58177133  0.99591143  1.0
  Ni  Ni113  1  0.46456576  0.91510467  0.99591143  1.0
  Ni  Ni114  1  0.79789909  0.24843800  0.99591143  1.0
  Ni  Ni115  1  0.79789909  0.58177133  0.99591143  1.0
  Ni  Ni116  1  0.79789909  0.91510467  0.99591143  1.0
  Ni  Ni117  1  0.00901020  0.24843800  0.96257810  1.0
  Ni  Ni118  1  0.00901020  0.58177133  0.96257810  1.0
  Ni  Ni119  1  0.00901020  0.91510467  0.96257810  1.0
  Ni  Ni120  1  0.34234353  0.24843800  0.96257810  1.0
  Ni  Ni121  1  0.34234353  0.58177133  0.96257810  1.0
  Ni  Ni122  1  0.34234353  0.91510467  0.96257810  1.0
  Ni  Ni123  1  0.67567687  0.24843800  0.96257810  1.0
  Ni  Ni124  1  0.67567687  0.58177133  0.96257810  1.0
  Ni  Ni125  1  0.67567687  0.91510467  0.96257810  1.0
  Ni  Ni126  1  0.26677080  0.16666667  0.98742190  1.0
  Ni  Ni127  1  0.26677080  0.50000000  0.98742190  1.0
  Ni  Ni128  1  0.26677080  0.83333333  0.98742190  1.0
  Ni  Ni129  1  0.60010413  0.16666667  0.98742190  1.0
  Ni  Ni130  1  0.60010413  0.50000000  0.98742190  1.0
  Ni  Ni131  1  0.60010413  0.83333333  0.98742190  1.0
  Ni  Ni132  1  0.93343747  0.16666667  0.98742190  1.0
  Ni  Ni133  1  0.93343747  0.50000000  0.98742190  1.0
  Ni  Ni134  1  0.93343747  0.83333333  0.98742190  1.0
  Ni  Ni135  1  0.14454858  0.16666667  0.95408857  1.0
  Ni  Ni136  1  0.14454858  0.50000000  0.95408857  1.0
  Ni  Ni137  1  0.14454858  0.83333333  0.95408857  1.0
  Ni  Ni138  1  0.47788191  0.16666667  0.95408857  1.0
  Ni  Ni139  1  0.47788191  0.50000000  0.95408857  1.0
  Ni  Ni140  1  0.47788191  0.83333333  0.95408857  1.0
  Ni  Ni141  1  0.81121524  0.16666667  0.95408857  1.0
  Ni  Ni142  1  0.81121524  0.50000000  0.95408857  1.0
  Ni  Ni143  1  0.81121524  0.83333333  0.95408857  1.0
  Ni  Ni144  1  0.28008696  0.08489533  0.94559903  1.0
  Ni  Ni145  1  0.28008696  0.41822867  0.94559903  1.0
  Ni  Ni146  1  0.28008696  0.75156200  0.94559903  1.0
  Ni  Ni147  1  0.61342029  0.08489533  0.94559903  1.0
  Ni  Ni148  1  0.61342029  0.41822867  0.94559903  1.0
  Ni  Ni149  1  0.61342029  0.75156200  0.94559903  1.0
  Ni  Ni150  1  0.94675362  0.08489533  0.94559903  1.0
  Ni  Ni151  1  0.94675362  0.41822867  0.94559903  1.0
  Ni  Ni152  1  0.94675362  0.75156200  0.94559903  1.0
  Ni  Ni153  1  0.06897584  0.08489533  0.97893237  1.0
  Ni  Ni154  1  0.06897584  0.41822867  0.97893237  1.0
  Ni  Ni155  1  0.06897584  0.75156200  0.97893237  1.0
  Ni  Ni156  1  0.40230918  0.08489533  0.97893237  1.0
  Ni  Ni157  1  0.40230918  0.41822867  0.97893237  1.0
  Ni  Ni158  1  0.40230918  0.75156200  0.97893237  1.0
  Ni  Ni159  1  0.73564251  0.08489533  0.97893237  1.0
  Ni  Ni160  1  0.73564251  0.41822867  0.97893237  1.0
  Ni  Ni161  1  0.73564251  0.75156200  0.97893237  1.0
  Ni  Ni162  1  0.22012131  0.24843800  0.92924477  1.0
  Ni  Ni163  1  0.22012131  0.58177133  0.92924477  1.0
  Ni  Ni164  1  0.22012131  0.91510467  0.92924477  1.0
  Ni  Ni165  1  0.55345464  0.24843800  0.92924477  1.0
  Ni  Ni166  1  0.55345464  0.58177133  0.92924477  1.0
  Ni  Ni167  1  0.55345464  0.91510467  0.92924477  1.0
  Ni  Ni168  1  0.88678798  0.24843800  0.92924477  1.0
  Ni  Ni169  1  0.88678798  0.58177133  0.92924477  1.0
  Ni  Ni170  1  0.88678798  0.91510467  0.92924477  1.0
  Ni  Ni171  1  0.09789909  0.24843800  0.89591143  1.0
  Ni  Ni172  1  0.09789909  0.58177133  0.89591143  1.0
  Ni  Ni173  1  0.09789909  0.91510467  0.89591143  1.0
  Ni  Ni174  1  0.43123242  0.24843800  0.89591143  1.0
  Ni  Ni175  1  0.43123242  0.58177133  0.89591143  1.0
  Ni  Ni176  1  0.43123242  0.91510467  0.89591143  1.0
  Ni  Ni177  1  0.76456576  0.24843800  0.89591143  1.0
  Ni  Ni178  1  0.76456576  0.58177133  0.89591143  1.0
  Ni  Ni179  1  0.76456576  0.91510467  0.89591143  1.0
  Ni  Ni180  1  0.02232636  0.16666667  0.92075523  1.0
  Ni  Ni181  1  0.02232636  0.50000000  0.92075523  1.0
  Ni  Ni182  1  0.02232636  0.83333333  0.92075523  1.0
  Ni  Ni183  1  0.35565969  0.16666667  0.92075523  1.0
  Ni  Ni184  1  0.35565969  0.50000000  0.92075523  1.0
  Ni  Ni185  1  0.35565969  0.83333333  0.92075523  1.0
  Ni  Ni186  1  0.68899302  0.16666667  0.92075523  1.0
  Ni  Ni187  1  0.68899302  0.50000000  0.92075523  1.0
  Ni  Ni188  1  0.68899302  0.83333333  0.92075523  1.0
  Ni  Ni189  1  0.23343747  0.16666667  0.88742190  1.0
  Ni  Ni190  1  0.23343747  0.50000000  0.88742190  1.0
  Ni  Ni191  1  0.23343747  0.83333333  0.88742190  1.0
  Ni  Ni192  1  0.56677080  0.16666667  0.88742190  1.0
  Ni  Ni193  1  0.56677080  0.50000000  0.88742190  1.0
  Ni  Ni194  1  0.56677080  0.83333333  0.88742190  1.0
  Ni  Ni195  1  0.90010413  0.16666667  0.88742190  1.0
  Ni  Ni196  1  0.90010413  0.50000000  0.88742190  1.0
  Ni  Ni197  1  0.90010413  0.83333333  0.88742190  1.0
  Ni  Ni198  1  0.03564251  0.08489533  0.87893237  1.0
  Ni  Ni199  1  0.03564251  0.41822867  0.87893237  1.0
  Ni  Ni200  1  0.03564251  0.75156200  0.87893237  1.0
  Ni  Ni201  1  0.36897584  0.08489533  0.87893237  1.0
  Ni  Ni202  1  0.36897584  0.41822867  0.87893237  1.0
  Ni  Ni203  1  0.36897584  0.75156200  0.87893237  1.0
  Ni  Ni204  1  0.70230918  0.08489533  0.87893237  1.0
  Ni  Ni205  1  0.70230918  0.41822867  0.87893237  1.0
  Ni  Ni206  1  0.70230918  0.75156200  0.87893237  1.0
  Ni  Ni207  1  0.15786473  0.08489533  0.91226570  1.0
  Ni  Ni208  1  0.15786473  0.41822867  0.91226570  1.0
  Ni  Ni209  1  0.15786473  0.75156200  0.91226570  1.0
  Ni  Ni210  1  0.49119807  0.08489533  0.91226570  1.0
  Ni  Ni211  1  0.49119807  0.41822867  0.91226570  1.0
  Ni  Ni212  1  0.49119807  0.75156200  0.91226570  1.0
  Ni  Ni213  1  0.82453140  0.08489533  0.91226570  1.0
  Ni  Ni214  1  0.82453140  0.41822867  0.91226570  1.0
  Ni  Ni215  1  0.82453140  0.75156200  0.91226570  1.0
  Ni  Ni216  1  0.30901020  0.24843800  0.86257810  1.0
  Ni  Ni217  1  0.30901020  0.58177133  0.86257810  1.0
  Ni  Ni218  1  0.30901020  0.91510467  0.86257810  1.0
  Ni  Ni219  1  0.64234353  0.24843800  0.86257810  1.0
  Ni  Ni220  1  0.64234353  0.58177133  0.86257810  1.0
  Ni  Ni221  1  0.64234353  0.91510467  0.86257810  1.0
  Ni  Ni222  1  0.97567687  0.24843800  0.86257810  1.0
  Ni  Ni223  1  0.97567687  0.58177133  0.86257810  1.0
  Ni  Ni224  1  0.97567687  0.91510467  0.86257810  1.0
  Ni  Ni225  1  0.18678798  0.24843800  0.82924477  1.0
  Ni  Ni226  1  0.18678798  0.58177133  0.82924477  1.0
  Ni  Ni227  1  0.18678798  0.91510467  0.82924477  1.0
  Ni  Ni228  1  0.52012131  0.24843800  0.82924477  1.0
  Ni  Ni229  1  0.52012131  0.58177133  0.82924477  1.0
  Ni  Ni230  1  0.52012131  0.91510467  0.82924477  1.0
  Ni  Ni231  1  0.85345464  0.24843800  0.82924477  1.0
  Ni  Ni232  1  0.85345464  0.58177133  0.82924477  1.0
  Ni  Ni233  1  0.85345464  0.91510467  0.82924477  1.0
  Ni  Ni234  1  0.11121524  0.16666667  0.85408857  1.0
  Ni  Ni235  1  0.11121524  0.50000000  0.85408857  1.0
  Ni  Ni236  1  0.11121524  0.83333333  0.85408857  1.0
  Ni  Ni237  1  0.44454858  0.16666667  0.85408857  1.0
  Ni  Ni238  1  0.44454858  0.50000000  0.85408857  1.0
  Ni  Ni239  1  0.44454858  0.83333333  0.85408857  1.0
  Ni  Ni240  1  0.77788191  0.16666667  0.85408857  1.0
  Ni  Ni241  1  0.77788191  0.50000000  0.85408857  1.0
  Ni  Ni242  1  0.77788191  0.83333333  0.85408857  1.0
  Ni  Ni243  1  0.32232636  0.16666667  0.82075523  1.0
  Ni  Ni244  1  0.32232636  0.50000000  0.82075523  1.0
  Ni  Ni245  1  0.32232636  0.83333333  0.82075523  1.0
  Ni  Ni246  1  0.65565969  0.16666667  0.82075523  1.0
  Ni  Ni247  1  0.65565969  0.50000000  0.82075523  1.0
  Ni  Ni248  1  0.65565969  0.83333333  0.82075523  1.0
  Ni  Ni249  1  0.98899302  0.16666667  0.82075523  1.0
  Ni  Ni250  1  0.98899302  0.50000000  0.82075523  1.0
  Ni  Ni251  1  0.98899302  0.83333333  0.82075523  1.0
  Ni  Ni252  1  0.12453140  0.08489533  0.81226570  1.0
  Ni  Ni253  1  0.12453140  0.41822867  0.81226570  1.0
  Ni  Ni254  1  0.12453140  0.75156200  0.81226570  1.0
  Ni  Ni255  1  0.45786473  0.08489533  0.81226570  1.0
  Ni  Ni256  1  0.45786473  0.41822867  0.81226570  1.0
  Ni  Ni257  1  0.45786473  0.75156200  0.81226570  1.0
  Ni  Ni258  1  0.79119807  0.08489533  0.81226570  1.0
  Ni  Ni259  1  0.79119807  0.41822867  0.81226570  1.0
  Ni  Ni260  1  0.79119807  0.75156200  0.81226570  1.0
  Ni  Ni261  1  0.24675362  0.08489533  0.84559903  1.0
  Ni  Ni262  1  0.24675362  0.41822867  0.84559903  1.0
  Ni  Ni263  1  0.24675362  0.75156200  0.84559903  1.0
  Ni  Ni264  1  0.58008696  0.08489533  0.84559903  1.0
  Ni  Ni265  1  0.58008696  0.41822867  0.84559903  1.0
  Ni  Ni266  1  0.58008696  0.75156200  0.84559903  1.0
  Ni  Ni267  1  0.91342029  0.08489533  0.84559903  1.0
  Ni  Ni268  1  0.91342029  0.41822867  0.84559903  1.0
  Ni  Ni269  1  0.91342029  0.75156200  0.84559903  1.0
  Ni  Ni270  1  0.06456576  0.24843800  0.79591143  1.0
  Ni  Ni271  1  0.06456576  0.58177133  0.79591143  1.0
  Ni  Ni272  1  0.06456576  0.91510467  0.79591143  1.0
  Ni  Ni273  1  0.39789909  0.24843800  0.79591143  1.0
  Ni  Ni274  1  0.39789909  0.58177133  0.79591143  1.0
  Ni  Ni275  1  0.39789909  0.91510467  0.79591143  1.0
  Ni  Ni276  1  0.73123242  0.24843800  0.79591143  1.0
  Ni  Ni277  1  0.73123242  0.58177133  0.79591143  1.0
  Ni  Ni278  1  0.73123242  0.91510467  0.79591143  1.0
  Ni  Ni279  1  0.27567687  0.24843800  0.76257810  1.0
  Ni  Ni280  1  0.27567687  0.58177133  0.76257810  1.0
  Ni  Ni281  1  0.27567687  0.91510467  0.76257810  1.0
  Ni  Ni282  1  0.60901020  0.24843800  0.76257810  1.0
  Ni  Ni283  1  0.60901020  0.58177133  0.76257810  1.0
  Ni  Ni284  1  0.60901020  0.91510467  0.76257810  1.0
  Ni  Ni285  1  0.94234353  0.24843800  0.76257810  1.0
  Ni  Ni286  1  0.94234353  0.58177133  0.76257810  1.0
  Ni  Ni287  1  0.94234353  0.91510467  0.76257810  1.0
  Ni  Ni288  1  0.20010413  0.16666667  0.78742190  1.0
  Ni  Ni289  1  0.20010413  0.50000000  0.78742190  1.0
  Ni  Ni290  1  0.20010413  0.83333333  0.78742190  1.0
  Ni  Ni291  1  0.53343747  0.16666667  0.78742190  1.0
  Ni  Ni292  1  0.53343747  0.50000000  0.78742190  1.0
  Ni  Ni293  1  0.53343747  0.83333333  0.78742190  1.0
  Ni  Ni294  1  0.86677080  0.16666667  0.78742190  1.0
  Ni  Ni295  1  0.86677080  0.50000000  0.78742190  1.0
  Ni  Ni296  1  0.86677080  0.83333333  0.78742190  1.0
  Ni  Ni297  1  0.07788191  0.16666667  0.75408857  1.0
  Ni  Ni298  1  0.07788191  0.50000000  0.75408857  1.0
  Ni  Ni299  1  0.07788191  0.83333333  0.75408857  1.0
  Ni  Ni300  1  0.41121524  0.16666667  0.75408857  1.0
  Ni  Ni301  1  0.41121524  0.50000000  0.75408857  1.0
  Ni  Ni302  1  0.41121524  0.83333333  0.75408857  1.0
  Ni  Ni303  1  0.74454858  0.16666667  0.75408857  1.0
  Ni  Ni304  1  0.74454858  0.50000000  0.75408857  1.0
  Ni  Ni305  1  0.74454858  0.83333333  0.75408857  1.0
  Ni  Ni306  1  0.21342029  0.08489533  0.74559903  1.0
  Ni  Ni307  1  0.21342029  0.41822867  0.74559903  1.0
  Ni  Ni308  1  0.21342029  0.75156200  0.74559903  1.0
  Ni  Ni309  1  0.54675362  0.08489533  0.74559903  1.0
  Ni  Ni310  1  0.54675362  0.41822867  0.74559903  1.0
  Ni  Ni311  1  0.54675362  0.75156200  0.74559903  1.0
  Ni  Ni312  1  0.88008696  0.08489533  0.74559903  1.0
  Ni  Ni313  1  0.88008696  0.41822867  0.74559903  1.0
  Ni  Ni314  1  0.88008696  0.75156200  0.74559903  1.0
  Ni  Ni315  1  0.00230918  0.08489533  0.77893237  1.0
  Ni  Ni316  1  0.00230918  0.41822867  0.77893237  1.0
  Ni  Ni317  1  0.00230918  0.75156200  0.77893237  1.0
  Ni  Ni318  1  0.33564251  0.08489533  0.77893237  1.0
  Ni  Ni319  1  0.33564251  0.41822867  0.77893237  1.0
  Ni  Ni320  1  0.33564251  0.75156200  0.77893237  1.0
  Ni  Ni321  1  0.66897584  0.08489533  0.77893237  1.0
  Ni  Ni322  1  0.66897584  0.41822867  0.77893237  1.0
  Ni  Ni323  1  0.66897584  0.75156200  0.77893237  1.0
  Ni  Ni324  1  0.15345464  0.24843800  0.72924477  1.0
  Ni  Ni325  1  0.15345464  0.58177133  0.72924477  1.0
  Ni  Ni326  1  0.15345464  0.91510467  0.72924477  1.0
  Ni  Ni327  1  0.48678798  0.24843800  0.72924477  1.0
  Ni  Ni328  1  0.48678798  0.58177133  0.72924477  1.0
  Ni  Ni329  1  0.48678798  0.91510467  0.72924477  1.0
  Ni  Ni330  1  0.82012131  0.24843800  0.72924477  1.0
  Ni  Ni331  1  0.82012131  0.58177133  0.72924477  1.0
  Ni  Ni332  1  0.82012131  0.91510467  0.72924477  1.0
  Ni  Ni333  1  0.03123242  0.24843800  0.69591143  1.0
  Ni  Ni334  1  0.03123242  0.58177133  0.69591143  1.0
  Ni  Ni335  1  0.03123242  0.91510467  0.69591143  1.0
  Ni  Ni336  1  0.36456576  0.24843800  0.69591143  1.0
  Ni  Ni337  1  0.36456576  0.58177133  0.69591143  1.0
  Ni  Ni338  1  0.36456576  0.91510467  0.69591143  1.0
  Ni  Ni339  1  0.69789909  0.24843800  0.69591143  1.0
  Ni  Ni340  1  0.69789909  0.58177133  0.69591143  1.0
  Ni  Ni341  1  0.69789909  0.91510467  0.69591143  1.0
  Ni  Ni342  1  0.28899302  0.16666667  0.72075523  1.0
  Ni  Ni343  1  0.28899302  0.50000000  0.72075523  1.0
  Ni  Ni344  1  0.28899302  0.83333333  0.72075523  1.0
  Ni  Ni345  1  0.62232636  0.16666667  0.72075523  1.0
  Ni  Ni346  1  0.62232636  0.50000000  0.72075523  1.0
  Ni  Ni347  1  0.62232636  0.83333333  0.72075523  1.0
  Ni  Ni348  1  0.95565969  0.16666667  0.72075523  1.0
  Ni  Ni349  1  0.95565969  0.50000000  0.72075523  1.0
  Ni  Ni350  1  0.95565969  0.83333333  0.72075523  1.0
  Ni  Ni351  1  0.16677080  0.16666667  0.68742190  1.0
  Ni  Ni352  1  0.16677080  0.50000000  0.68742190  1.0
  Ni  Ni353  1  0.16677080  0.83333333  0.68742190  1.0
  Ni  Ni354  1  0.50010413  0.16666667  0.68742190  1.0
  Ni  Ni355  1  0.50010413  0.50000000  0.68742190  1.0
  Ni  Ni356  1  0.50010413  0.83333333  0.68742190  1.0
  Ni  Ni357  1  0.83343747  0.16666667  0.68742190  1.0
  Ni  Ni358  1  0.83343747  0.50000000  0.68742190  1.0
  Ni  Ni359  1  0.83343747  0.83333333  0.68742190  1.0
  Ni  Ni360  1  0.30230918  0.08489533  0.67893237  1.0
  Ni  Ni361  1  0.30230918  0.41822867  0.67893237  1.0
  Ni  Ni362  1  0.30230918  0.75156200  0.67893237  1.0
  Ni  Ni363  1  0.63564251  0.08489533  0.67893237  1.0
  Ni  Ni364  1  0.63564251  0.41822867  0.67893237  1.0
  Ni  Ni365  1  0.63564251  0.75156200  0.67893237  1.0
  Ni  Ni366  1  0.96897584  0.08489533  0.67893237  1.0
  Ni  Ni367  1  0.96897584  0.41822867  0.67893237  1.0
  Ni  Ni368  1  0.96897584  0.75156200  0.67893237  1.0
  Ni  Ni369  1  0.09119807  0.08489533  0.71226570  1.0
  Ni  Ni370  1  0.09119807  0.41822867  0.71226570  1.0
  Ni  Ni371  1  0.09119807  0.75156200  0.71226570  1.0
  Ni  Ni372  1  0.42453140  0.08489533  0.71226570  1.0
  Ni  Ni373  1  0.42453140  0.41822867  0.71226570  1.0
  Ni  Ni374  1  0.42453140  0.75156200  0.71226570  1.0
  Ni  Ni375  1  0.75786473  0.08489533  0.71226570  1.0
  Ni  Ni376  1  0.75786473  0.41822867  0.71226570  1.0
  Ni  Ni377  1  0.75786473  0.75156200  0.71226570  1.0
  Ni  Ni378  1  0.24234353  0.24843800  0.66257810  1.0
  Ni  Ni379  1  0.24234353  0.58177133  0.66257810  1.0
  Ni  Ni380  1  0.24234353  0.91510467  0.66257810  1.0
  Ni  Ni381  1  0.57567687  0.24843800  0.66257810  1.0
  Ni  Ni382  1  0.57567687  0.58177133  0.66257810  1.0
  Ni  Ni383  1  0.57567687  0.91510467  0.66257810  1.0
  Ni  Ni384  1  0.90901020  0.24843800  0.66257810  1.0
  Ni  Ni385  1  0.90901020  0.58177133  0.66257810  1.0
  Ni  Ni386  1  0.90901020  0.91510467  0.66257810  1.0
  Ni  Ni387  1  0.12012131  0.24843800  0.62924477  1.0
  Ni  Ni388  1  0.12012131  0.58177133  0.62924477  1.0
  Ni  Ni389  1  0.12012131  0.91510467  0.62924477  1.0
  Ni  Ni390  1  0.45345464  0.24843800  0.62924477  1.0
  Ni  Ni391  1  0.45345464  0.58177133  0.62924477  1.0
  Ni  Ni392  1  0.45345464  0.91510467  0.62924477  1.0
  Ni  Ni393  1  0.78678798  0.24843800  0.62924477  1.0
  Ni  Ni394  1  0.78678798  0.58177133  0.62924477  1.0
  Ni  Ni395  1  0.78678798  0.91510467  0.62924477  1.0
  Ni  Ni396  1  0.04454858  0.16666667  0.65408857  1.0
  Ni  Ni397  1  0.04454858  0.50000000  0.65408857  1.0
  Ni  Ni398  1  0.04454858  0.83333333  0.65408857  1.0
  Ni  Ni399  1  0.37788191  0.16666667  0.65408857  1.0
  Ni  Ni400  1  0.37788191  0.50000000  0.65408857  1.0
  Ni  Ni401  1  0.37788191  0.83333333  0.65408857  1.0
  Ni  Ni402  1  0.71121524  0.16666667  0.65408857  1.0
  Ni  Ni403  1  0.71121524  0.50000000  0.65408857  1.0
  Ni  Ni404  1  0.71121524  0.83333333  0.65408857  1.0
  Ni  Ni405  1  0.25565969  0.16666667  0.62075523  1.0
  Ni  Ni406  1  0.25565969  0.50000000  0.62075523  1.0
  Ni  Ni407  1  0.25565969  0.83333333  0.62075523  1.0
  Ni  Ni408  1  0.58899302  0.16666667  0.62075523  1.0
  Ni  Ni409  1  0.58899302  0.50000000  0.62075523  1.0
  Ni  Ni410  1  0.58899302  0.83333333  0.62075523  1.0
  Ni  Ni411  1  0.92232636  0.16666667  0.62075523  1.0
  Ni  Ni412  1  0.92232636  0.50000000  0.62075523  1.0
  Ni  Ni413  1  0.92232636  0.83333333  0.62075523  1.0
  Ni  Ni414  1  0.05786473  0.08489533  0.61226570  1.0
  Ni  Ni415  1  0.05786473  0.41822867  0.61226570  1.0
  Ni  Ni416  1  0.05786473  0.75156200  0.61226570  1.0
  Ni  Ni417  1  0.39119807  0.08489533  0.61226570  1.0
  Ni  Ni418  1  0.39119807  0.41822867  0.61226570  1.0
  Ni  Ni419  1  0.39119807  0.75156200  0.61226570  1.0
  Ni  Ni420  1  0.72453140  0.08489533  0.61226570  1.0
  Ni  Ni421  1  0.72453140  0.41822867  0.61226570  1.0
  Ni  Ni422  1  0.72453140  0.75156200  0.61226570  1.0
  Ni  Ni423  1  0.18008696  0.08489533  0.64559903  1.0
  Ni  Ni424  1  0.18008696  0.41822867  0.64559903  1.0
  Ni  Ni425  1  0.18008696  0.75156200  0.64559903  1.0
  Ni  Ni426  1  0.51342029  0.08489533  0.64559903  1.0
  Ni  Ni427  1  0.51342029  0.41822867  0.64559903  1.0
  Ni  Ni428  1  0.51342029  0.75156200  0.64559903  1.0
  Ni  Ni429  1  0.84675362  0.08489533  0.64559903  1.0
  Ni  Ni430  1  0.84675362  0.41822867  0.64559903  1.0
  Ni  Ni431  1  0.84675362  0.75156200  0.64559903  1.0
