# generated using pymatgen
data_CuNi
_symmetry_space_group_name_H-M   'P 1'
_cell_length_a   13.32076410
_cell_length_b   14.42968087
_cell_length_c   28.16697406
_cell_angle_alpha   87.40025583
_cell_angle_beta   85.59726254
_cell_angle_gamma   63.82329058
_symmetry_Int_Tables_number   1
_chemical_formula_structural   CuNi
_chemical_formula_sum   'Cu90 Ni90'
_cell_volume   4844.07777741
_cell_formula_units_Z   90
loop_
 _symmetry_equiv_pos_site_id
 _symmetry_equiv_pos_as_xyz
  1  'x, y, z'
loop_
 _atom_site_type_symbol
 _atom_site_label
 _atom_site_symmetry_multiplicity
 _atom_site_fract_x
 _atom_site_fract_y
 _atom_site_fract_z
 _atom_site_occupancy
  Cu  Cu0  1  0.14583333  0.20833333  0.93750000  1.0
  Cu  Cu1  1  0.14583333  0.54166667  0.93750000  1.0
  Cu  Cu2  1  0.14583333  0.87500000  0.93750000  1.0
  Cu  Cu3  1  0.47916667  0.20833333  0.93750000  1.0
  Cu  Cu4  1  0.47916667  0.54166667  0.93750000  1.0
  Cu  Cu5  1  0.47916667  0.87500000  0.93750000  1.0
  Cu  Cu6  1  0.81250000  0.20833333  0.93750000  1.0
  Cu  Cu7  1  0.81250000  0.54166667  0.93750000  1.0
  Cu  Cu8  1  0.81250000  0.87500000  0.93750000  1.0
  Cu  Cu9  1  0.32638889  0.18055556  0.97916667  1.0
  Cu  Cu10  1  0.32638889  0.51388889  0.97916667  1.0
  Cu  Cu11  1  0.32638889  0.84722222  0.97916667  1.0
  Cu  Cu12  1  0.65972222  0.18055556  0.97916667  1.0
  Cu  Cu13  1  0.65972222  0.51388889  0.97916667  1.0
  Cu  Cu14  1  0.65972222  0.84722222  0.97916667  1.0
  Cu  Cu15  1  0.99305556  0.18055556  0.97916667  1.0
  Cu  Cu16  1  0.99305556  0.51388889  0.97916667  1.0
  Cu  Cu17  1  0.99305556  0.84722222  0.97916667  1.0
  Cu  Cu18  1  0.11805556  0.26388889  0.85416667  1.0
  Cu  Cu19  1  0.11805556  0.59722222  0.85416667  1.0
  Cu  Cu20  1  0.11805556  0.93055556  0.85416667  1.0
  Cu  Cu21  1  0.45138889  0.26388889  0.85416667  1.0
  Cu  Cu22  1  0.45138889  0.59722222  0.85416667  1.0
  Cu  Cu23  1  0.45138889  0.93055556  0.85416667  1.0
  Cu  Cu24  1  0.78472222  0.26388889  0.85416667  1.0
  Cu  Cu25  1  0.78472222  0.59722222  0.85416667  1.0
  Cu  Cu26  1  0.78472222  0.93055556  0.85416667  1.0
  Cu  Cu27  1  0.29861111  0.23611111  0.89583333  1.0
  Cu  Cu28  1  0.29861111  0.56944444  0.89583333  1.0
  Cu  Cu29  1  0.29861111  0.90277778  0.89583333  1.0
  Cu  Cu30  1  0.63194444  0.23611111  0.89583333  1.0
  Cu  Cu31  1  0.63194444  0.56944444  0.89583333  1.0
  Cu  Cu32  1  0.63194444  0.90277778  0.89583333  1.0
  Cu  Cu33  1  0.96527778  0.23611111  0.89583333  1.0
  Cu  Cu34  1  0.96527778  0.56944444  0.89583333  1.0
  Cu  Cu35  1  0.96527778  0.90277778  0.89583333  1.0
  Cu  Cu36  1  0.09027778  0.31944444  0.77083333  1.0
  Cu  Cu37  1  0.09027778  0.65277778  0.77083333  1.0
  Cu  Cu38  1  0.09027778  0.98611111  0.77083333  1.0
  Cu  Cu39  1  0.42361111  0.31944444  0.77083333  1.0
  Cu  Cu40  1  0.42361111  0.65277778  0.77083333  1.0
  Cu  Cu41  1  0.42361111  0.98611111  0.77083333  1.0
  Cu  Cu42  1  0.75694444  0.31944444  0.77083333  1.0
  Cu  Cu43  1  0.75694444  0.65277778  0.77083333  1.0
  Cu  Cu44  1  0.75694444  0.98611111  0.77083333  1.0
  Cu  Cu45  1  0.27083333  0.29166667  0.81250000  1.0
  Cu  Cu46  1  0.27083333  0.62500000  0.81250000  1.0
  Cu  Cu47  1  0.27083333  0.95833333  0.81250000  1.0
  Cu  Cu48  1  0.60416667  0.29166667  0.81250000  1.0
  Cu  Cu49  1  0.60416667  0.62500000  0.81250000  1.0
  Cu  Cu50  1  0.60416667  0.95833333  0.81250000  1.0
  Cu  Cu51  1  0.93750000  0.29166667  0.81250000  1.0
  Cu  Cu52  1  0.93750000  0.62500000  0.81250000  1.0
  Cu  Cu53  1  0.93750000  0.95833333  0.81250000  1.0
  Cu  Cu54  1  0.06250000  0.04166667  0.68750000  1.0
  Cu  Cu55  1  0.06250000  0.37500000  0.68750000  1.0
  Cu  Cu56  1  0.06250000  0.70833333  0.68750000  1.0
  Cu  Cu57  1  0.39583333  0.04166667  0.68750000  1.0
  Cu  Cu58  1  0.39583333  0.37500000  0.68750000  1.0
  Cu  Cu59  1  0.39583333  0.70833333  0.68750000  1.0
  Cu  Cu60  1  0.72916667  0.04166667  0.68750000  1.0
  Cu  Cu61  1  0.72916667  0.37500000  0.68750000  1.0
  Cu  Cu62  1  0.72916667  0.70833333  0.68750000  1.0
  Cu  Cu63  1  0.24305556  0.01388889  0.72916667  1.0
  Cu  Cu64  1  0.24305556  0.34722222  0.72916667  1.0
  Cu  Cu65  1  0.24305556  0.68055556  0.72916667  1.0
  Cu  Cu66  1  0.57638889  0.01388889  0.72916667  1.0
  Cu  Cu67  1  0.57638889  0.34722222  0.72916667  1.0
  Cu  Cu68  1  0.57638889  0.68055556  0.72916667  1.0
  Cu  Cu69  1  0.90972222  0.01388889  0.72916667  1.0
  Cu  Cu70  1  0.90972222  0.34722222  0.72916667  1.0
  Cu  Cu71  1  0.90972222  0.68055556  0.72916667  1.0
  Cu  Cu72  1  0.03472222  0.09722222  0.60416667  1.0
  Cu  Cu73  1  0.03472222  0.43055556  0.60416667  1.0
  Cu  Cu74  1  0.03472222  0.76388889  0.60416667  1.0
  Cu  Cu75  1  0.36805556  0.09722222  0.60416667  1.0
  Cu  Cu76  1  0.36805556  0.43055556  0.60416667  1.0
  Cu  Cu77  1  0.36805556  0.76388889  0.60416667  1.0
  Cu  Cu78  1  0.70138889  0.09722222  0.60416667  1.0
  Cu  Cu79  1  0.70138889  0.43055556  0.60416667  1.0
  Cu  Cu80  1  0.70138889  0.76388889  0.60416667  1.0
  Cu  Cu81  1  0.21527778  0.06944444  0.64583333  1.0
  Cu  Cu82  1  0.21527778  0.40277778  0.64583333  1.0
  Cu  Cu83  1  0.21527778  0.73611111  0.64583333  1.0
  Cu  Cu84  1  0.54861111  0.06944444  0.64583333  1.0
  Cu  Cu85  1  0.54861111  0.40277778  0.64583333  1.0
  Cu  Cu86  1  0.54861111  0.73611111  0.64583333  1.0
  Cu  Cu87  1  0.88194444  0.06944444  0.64583333  1.0
  Cu  Cu88  1  0.88194444  0.40277778  0.64583333  1.0
  Cu  Cu89  1  0.88194444  0.73611111  0.64583333  1.0
  Ni  Ni90  1  0.15972222  0.01388889  0.97916667  1.0
  Ni  Ni91  1  0.15972222  0.34722222  0.97916667  1.0
  Ni  Ni92  1  0.15972222  0.68055556  0.97916667  1.0
  Ni  Ni93  1  0.49305556  0.01388889  0.97916667  1.0
  Ni  Ni94  1  0.49305556  0.34722222  0.97916667  1.0
  Ni  Ni95  1  0.49305556  0.68055556  0.97916667  1.0
  Ni  Ni96  1  0.82638889  0.01388889  0.97916667  1.0
  Ni  Ni97  1  0.82638889  0.34722222  0.97916667  1.0
  Ni  Ni98  1  0.82638889  0.68055556  0.97916667  1.0
  Ni  Ni99  1  0.31250000  0.04166667  0.93750000  1.0
  Ni  Ni100  1  0.31250000  0.37500000  0.93750000  1.0
  Ni  Ni101  1  0.31250000  0.70833333  0.93750000  1.0
  Ni  Ni102  1  0.64583333  0.04166667  0.93750000  1.0
  Ni  Ni103  1  0.64583333  0.37500000  0.93750000  1.0
  Ni  Ni104  1  0.64583333  0.70833333  0.93750000  1.0
  Ni  Ni105  1  0.97916667  0.04166667  0.93750000  1.0
  Ni  Ni106  1  0.97916667  0.37500000  0.93750000  1.0
  Ni  Ni107  1  0.97916667  0.70833333  0.93750000  1.0
  Ni  Ni108  1  0.13194444  0.06944444  0.89583333  1.0
  Ni  Ni109  1  0.13194444  0.40277778  0.89583333  1.0
  Ni  Ni110  1  0.13194444  0.73611111  0.89583333  1.0
  Ni  Ni111  1  0.46527778  0.06944444  0.89583333  1.0
  Ni  Ni112  1  0.46527778  0.40277778  0.89583333  1.0
  Ni  Ni113  1  0.46527778  0.73611111  0.89583333  1.0
  Ni  Ni114  1  0.79861111  0.06944444  0.89583333  1.0
  Ni  Ni115  1  0.79861111  0.40277778  0.89583333  1.0
  Ni  Ni116  1  0.79861111  0.73611111  0.89583333  1.0
  Ni  Ni117  1  0.28472222  0.09722222  0.85416667  1.0
  Ni  Ni118  1  0.28472222  0.43055556  0.85416667  1.0
  Ni  Ni119  1  0.28472222  0.76388889  0.85416667  1.0
  Ni  Ni120  1  0.61805556  0.09722222  0.85416667  1.0
  Ni  Ni121  1  0.61805556  0.43055556  0.85416667  1.0
  Ni  Ni122  1  0.61805556  0.76388889  0.85416667  1.0
  Ni  Ni123  1  0.95138889  0.09722222  0.85416667  1.0
  Ni  Ni124  1  0.95138889  0.43055556  0.85416667  1.0
  Ni  Ni125  1  0.95138889  0.76388889  0.85416667  1.0
  Ni  Ni126  1  0.10416667  0.12500000  0.81250000  1.0
  Ni  Ni127  1  0.10416667  0.45833333  0.81250000  1.0
  Ni  Ni128  1  0.10416667  0.79166667  0.81250000  1.0
  Ni  Ni129  1  0.43750000  0.12500000  0.81250000  1.0
  Ni  Ni130  1  0.43750000  0.45833333  0.81250000  1.0
  Ni  Ni131  1  0.43750000  0.79166667  0.81250000  1.0
  Ni  Ni132  1  0.77083333  0.12500000  0.81250000  1.0
  Ni  Ni133  1  0.77083333  0.45833333  0.81250000  1.0
  Ni  Ni134  1  0.77083333  0.79166667  0.81250000  1.0
  Ni  Ni135  1  0.25694444  0.15277778  0.77083333  1.0
  Ni  Ni136  1  0.25694444  0.48611111  0.77083333  1.0
  Ni  Ni137  1  0.25694444  0.81944444  0.77083333  1.0
  Ni  Ni138  1  0.59027778  0.15277778  0.77083333  1.0
  Ni  Ni139  1  0.59027778  0.48611111  0.77083333  1.0
  Ni  Ni140  1  0.59027778  0.81944444  0.77083333  1.0
  Ni  Ni141  1  0.92361111  0.15277778  0.77083333  1.0
  Ni  Ni142  1  0.92361111  0.48611111  0.77083333  1.0
  Ni  Ni143  1  0.92361111  0.81944444  0.77083333  1.0
  Ni  Ni144  1  0.07638889  0.18055556  0.72916667  1.0
  Ni  Ni145  1  0.07638889  0.51388889  0.72916667  1.0
  Ni  Ni146  1  0.07638889  0.84722222  0.72916667  1.0
  Ni  Ni147  1  0.40972222  0.18055556  0.72916667  1.0
  Ni  Ni148  1  0.40972222  0.51388889  0.72916667  1.0
  Ni  Ni149  1  0.40972222  0.84722222  0.72916667  1.0
  Ni  Ni150  1  0.74305556  0.18055556  0.72916667  1.0
  Ni  Ni151  1  0.74305556  0.51388889  0.72916667  1.0
  Ni  Ni152  1  0.74305556  0.84722222  0.72916667  1.0
  Ni  Ni153  1  0.22916667  0.20833333  0.68750000  1.0
  Ni  Ni154  1  0.22916667  0.54166667  0.68750000  1.0
  Ni  Ni155  1  0.22916667  0.87500000  0.68750000  1.0
  Ni  Ni156  1  0.56250000  0.20833333  0.68750000  1.0
  Ni  Ni157  1  0.56250000  0.54166667  0.68750000  1.0
  Ni  Ni158  1  0.56250000  0.87500000  0.68750000  1.0
  Ni  Ni159  1  0.89583333  0.20833333  0.68750000  1.0
  Ni  Ni160  1  0.89583333  0.54166667  0.68750000  1.0
  Ni  Ni161  1  0.89583333  0.87500000  0.68750000  1.0
  Ni  Ni162  1  0.04861111  0.23611111  0.64583333  1.0
  Ni  Ni163  1  0.04861111  0.56944444  0.64583333  1.0
  Ni  Ni164  1  0.04861111  0.90277778  0.64583333  1.0
  Ni  Ni165  1  0.38194444  0.23611111  0.64583333  1.0
  Ni  Ni166  1  0.38194444  0.56944444  0.64583333  1.0
  Ni  Ni167  1  0.38194444  0.90277778  0.64583333  1.0
  Ni  Ni168  1  0.71527778  0.23611111  0.64583333  1.0
  Ni  Ni169  1  0.71527778  0.56944444  0.64583333  1.0
  Ni  Ni170  1  0.71527778  0.90277778  0.64583333  1.0
  Ni  Ni171  1  0.20138889  0.26388889  0.60416667  1.0
  Ni  Ni172  1  0.20138889  0.59722222  0.60416667  1.0
  Ni  Ni173  1  0.20138889  0.93055556  0.60416667  1.0
  Ni  Ni174  1  0.53472222  0.26388889  0.60416667  1.0
  Ni  Ni175  1  0.53472222  0.59722222  0.60416667  1.0
  Ni  Ni176  1  0.53472222  0.93055556  0.60416667  1.0
  Ni  Ni177  1  0.86805556  0.26388889  0.60416667  1.0
  Ni  Ni178  1  0.86805556  0.59722222  0.60416667  1.0
  Ni  Ni179  1  0.86805556  0.93055556  0.60416667  1.0
