# generated using pymatgen
data_CuNi3
_symmetry_space_group_name_H-M   'P 1'
_cell_length_a   11.92292402
_cell_length_b   48.16332161
_cell_length_c   46.13283562
_cell_angle_alpha   98.69868631
_cell_angle_beta   144.92670490
_cell_angle_gamma   82.88992471
_symmetry_Int_Tables_number   1
_chemical_formula_structural   CuNi3
_chemical_formula_sum   'Cu144 Ni432'
_cell_volume   15047.64452905
_cell_formula_units_Z   144
loop_
 _symmetry_equiv_pos_site_id
 _symmetry_equiv_pos_as_xyz
  1  'x, y, z'
loop_
 _atom_site_type_symbol
 _atom_site_label
 _atom_site_symmetry_multiplicity
 _atom_site_fract_x
 _atom_site_fract_y
 _atom_site_fract_z
 _atom_site_occupancy
  Cu  Cu0  1  0.00000000  0.00000000  0.04928045  1.0
  Cu  Cu1  1  0.00000000  0.33333333  0.04928045  1.0
  Cu  Cu2  1  0.00000000  0.66666667  0.04928045  1.0
  Cu  Cu3  1  0.33333333  0.00000000  0.04928045  1.0
  Cu  Cu4  1  0.33333333  0.33333333  0.04928045  1.0
  Cu  Cu5  1  0.33333333  0.66666667  0.04928045  1.0
  Cu  Cu6  1  0.66666667  0.00000000  0.04928045  1.0
  Cu  Cu7  1  0.66666667  0.33333333  0.04928045  1.0
  Cu  Cu8  1  0.66666667  0.66666667  0.04928045  1.0
  Cu  Cu9  1  0.00000000  0.16666667  0.02296466  1.0
  Cu  Cu10  1  0.00000000  0.50000000  0.02296466  1.0
  Cu  Cu11  1  0.00000000  0.83333333  0.02296466  1.0
  Cu  Cu12  1  0.33333333  0.16666667  0.02296466  1.0
  Cu  Cu13  1  0.33333333  0.50000000  0.02296466  1.0
  Cu  Cu14  1  0.33333333  0.83333333  0.02296466  1.0
  Cu  Cu15  1  0.66666667  0.16666667  0.02296466  1.0
  Cu  Cu16  1  0.66666667  0.50000000  0.02296466  1.0
  Cu  Cu17  1  0.66666667  0.83333333  0.02296466  1.0
  Ni  Ni18  1  0.16666667  0.12421900  0.01626239  1.0
  Ni  Ni19  1  0.16666667  0.45755233  0.01626239  1.0
  Ni  Ni20  1  0.16666667  0.79088567  0.01626239  1.0
  Ni  Ni21  1  0.50000000  0.12421900  0.01626239  1.0
  Ni  Ni22  1  0.50000000  0.45755233  0.01626239  1.0
  Ni  Ni23  1  0.50000000  0.79088567  0.01626239  1.0
  Ni  Ni24  1  0.83333333  0.12421900  0.01626239  1.0
  Ni  Ni25  1  0.83333333  0.45755233  0.01626239  1.0
  Ni  Ni26  1  0.83333333  0.79088567  0.01626239  1.0
  Ni  Ni27  1  0.16666667  0.29088567  0.04257818  1.0
  Ni  Ni28  1  0.16666667  0.62421900  0.04257818  1.0
  Ni  Ni29  1  0.16666667  0.95755233  0.04257818  1.0
  Ni  Ni30  1  0.50000000  0.29088567  0.04257818  1.0
  Ni  Ni31  1  0.50000000  0.62421900  0.04257818  1.0
  Ni  Ni32  1  0.50000000  0.95755233  0.04257818  1.0
  Ni  Ni33  1  0.83333333  0.29088567  0.04257818  1.0
  Ni  Ni34  1  0.83333333  0.62421900  0.04257818  1.0
  Ni  Ni35  1  0.83333333  0.95755233  0.04257818  1.0
  Ni  Ni36  1  0.00000000  0.08333333  0.00980676  1.0
  Ni  Ni37  1  0.00000000  0.41666667  0.00980676  1.0
  Ni  Ni38  1  0.00000000  0.75000000  0.00980676  1.0
  Ni  Ni39  1  0.33333333  0.08333333  0.00980676  1.0
  Ni  Ni40  1  0.33333333  0.41666667  0.00980676  1.0
  Ni  Ni41  1  0.33333333  0.75000000  0.00980676  1.0
  Ni  Ni42  1  0.66666667  0.08333333  0.00980676  1.0
  Ni  Ni43  1  0.66666667  0.41666667  0.00980676  1.0
  Ni  Ni44  1  0.66666667  0.75000000  0.00980676  1.0
  Ni  Ni45  1  0.00000000  0.25000000  0.03612255  1.0
  Ni  Ni46  1  0.00000000  0.58333333  0.03612255  1.0
  Ni  Ni47  1  0.00000000  0.91666667  0.03612255  1.0
  Ni  Ni48  1  0.33333333  0.25000000  0.03612255  1.0
  Ni  Ni49  1  0.33333333  0.58333333  0.03612255  1.0
  Ni  Ni50  1  0.33333333  0.91666667  0.03612255  1.0
  Ni  Ni51  1  0.66666667  0.25000000  0.03612255  1.0
  Ni  Ni52  1  0.66666667  0.58333333  0.03612255  1.0
  Ni  Ni53  1  0.66666667  0.91666667  0.03612255  1.0
  Ni  Ni54  1  0.16666667  0.04244767  0.00335113  1.0
  Ni  Ni55  1  0.16666667  0.37578100  0.00335113  1.0
  Ni  Ni56  1  0.16666667  0.70911433  0.00335113  1.0
  Ni  Ni57  1  0.50000000  0.04244767  0.00335113  1.0
  Ni  Ni58  1  0.50000000  0.37578100  0.00335113  1.0
  Ni  Ni59  1  0.50000000  0.70911433  0.00335113  1.0
  Ni  Ni60  1  0.83333333  0.04244767  0.00335113  1.0
  Ni  Ni61  1  0.83333333  0.37578100  0.00335113  1.0
  Ni  Ni62  1  0.83333333  0.70911433  0.00335113  1.0
  Ni  Ni63  1  0.16666667  0.20911433  0.02966692  1.0
  Ni  Ni64  1  0.16666667  0.54244767  0.02966692  1.0
  Ni  Ni65  1  0.16666667  0.87578100  0.02966692  1.0
  Ni  Ni66  1  0.50000000  0.20911433  0.02966692  1.0
  Ni  Ni67  1  0.50000000  0.54244767  0.02966692  1.0
  Ni  Ni68  1  0.50000000  0.87578100  0.02966692  1.0
  Ni  Ni69  1  0.83333333  0.20911433  0.02966692  1.0
  Ni  Ni70  1  0.83333333  0.54244767  0.02966692  1.0
  Ni  Ni71  1  0.83333333  0.87578100  0.02966692  1.0
  Cu  Cu72  1  0.00000000  0.00000000  0.10191203  1.0
  Cu  Cu73  1  0.00000000  0.33333333  0.10191203  1.0
  Cu  Cu74  1  0.00000000  0.66666667  0.10191203  1.0
  Cu  Cu75  1  0.33333333  0.00000000  0.10191203  1.0
  Cu  Cu76  1  0.33333333  0.33333333  0.10191203  1.0
  Cu  Cu77  1  0.33333333  0.66666667  0.10191203  1.0
  Cu  Cu78  1  0.66666667  0.00000000  0.10191203  1.0
  Cu  Cu79  1  0.66666667  0.33333333  0.10191203  1.0
  Cu  Cu80  1  0.66666667  0.66666667  0.10191203  1.0
  Cu  Cu81  1  0.00000000  0.16666667  0.07559624  1.0
  Cu  Cu82  1  0.00000000  0.50000000  0.07559624  1.0
  Cu  Cu83  1  0.00000000  0.83333333  0.07559624  1.0
  Cu  Cu84  1  0.33333333  0.16666667  0.07559624  1.0
  Cu  Cu85  1  0.33333333  0.50000000  0.07559624  1.0
  Cu  Cu86  1  0.33333333  0.83333333  0.07559624  1.0
  Cu  Cu87  1  0.66666667  0.16666667  0.07559624  1.0
  Cu  Cu88  1  0.66666667  0.50000000  0.07559624  1.0
  Cu  Cu89  1  0.66666667  0.83333333  0.07559624  1.0
  Ni  Ni90  1  0.16666667  0.12421900  0.06889397  1.0
  Ni  Ni91  1  0.16666667  0.45755233  0.06889397  1.0
  Ni  Ni92  1  0.16666667  0.79088567  0.06889397  1.0
  Ni  Ni93  1  0.50000000  0.12421900  0.06889397  1.0
  Ni  Ni94  1  0.50000000  0.45755233  0.06889397  1.0
  Ni  Ni95  1  0.50000000  0.79088567  0.06889397  1.0
  Ni  Ni96  1  0.83333333  0.12421900  0.06889397  1.0
  Ni  Ni97  1  0.83333333  0.45755233  0.06889397  1.0
  Ni  Ni98  1  0.83333333  0.79088567  0.06889397  1.0
  Ni  Ni99  1  0.16666667  0.29088567  0.09520976  1.0
  Ni  Ni100  1  0.16666667  0.62421900  0.09520976  1.0
  Ni  Ni101  1  0.16666667  0.95755233  0.09520976  1.0
  Ni  Ni102  1  0.50000000  0.29088567  0.09520976  1.0
  Ni  Ni103  1  0.50000000  0.62421900  0.09520976  1.0
  Ni  Ni104  1  0.50000000  0.95755233  0.09520976  1.0
  Ni  Ni105  1  0.83333333  0.29088567  0.09520976  1.0
  Ni  Ni106  1  0.83333333  0.62421900  0.09520976  1.0
  Ni  Ni107  1  0.83333333  0.95755233  0.09520976  1.0
  Ni  Ni108  1  0.00000000  0.08333333  0.06243834  1.0
  Ni  Ni109  1  0.00000000  0.41666667  0.06243834  1.0
  Ni  Ni110  1  0.00000000  0.75000000  0.06243834  1.0
  Ni  Ni111  1  0.33333333  0.08333333  0.06243834  1.0
  Ni  Ni112  1  0.33333333  0.41666667  0.06243834  1.0
  Ni  Ni113  1  0.33333333  0.75000000  0.06243834  1.0
  Ni  Ni114  1  0.66666667  0.08333333  0.06243834  1.0
  Ni  Ni115  1  0.66666667  0.41666667  0.06243834  1.0
  Ni  Ni116  1  0.66666667  0.75000000  0.06243834  1.0
  Ni  Ni117  1  0.00000000  0.25000000  0.08875413  1.0
  Ni  Ni118  1  0.00000000  0.58333333  0.08875413  1.0
  Ni  Ni119  1  0.00000000  0.91666667  0.08875413  1.0
  Ni  Ni120  1  0.33333333  0.25000000  0.08875413  1.0
  Ni  Ni121  1  0.33333333  0.58333333  0.08875413  1.0
  Ni  Ni122  1  0.33333333  0.91666667  0.08875413  1.0
  Ni  Ni123  1  0.66666667  0.25000000  0.08875413  1.0
  Ni  Ni124  1  0.66666667  0.58333333  0.08875413  1.0
  Ni  Ni125  1  0.66666667  0.91666667  0.08875413  1.0
  Ni  Ni126  1  0.16666667  0.04244767  0.05598271  1.0
  Ni  Ni127  1  0.16666667  0.37578100  0.05598271  1.0
  Ni  Ni128  1  0.16666667  0.70911433  0.05598271  1.0
  Ni  Ni129  1  0.50000000  0.04244767  0.05598271  1.0
  Ni  Ni130  1  0.50000000  0.37578100  0.05598271  1.0
  Ni  Ni131  1  0.50000000  0.70911433  0.05598271  1.0
  Ni  Ni132  1  0.83333333  0.04244767  0.05598271  1.0
  Ni  Ni133  1  0.83333333  0.37578100  0.05598271  1.0
  Ni  Ni134  1  0.83333333  0.70911433  0.05598271  1.0
  Ni  Ni135  1  0.16666667  0.20911433  0.08229850  1.0
  Ni  Ni136  1  0.16666667  0.54244767  0.08229850  1.0
  Ni  Ni137  1  0.16666667  0.87578100  0.08229850  1.0
  Ni  Ni138  1  0.50000000  0.20911433  0.08229850  1.0
  Ni  Ni139  1  0.50000000  0.54244767  0.08229850  1.0
  Ni  Ni140  1  0.50000000  0.87578100  0.08229850  1.0
  Ni  Ni141  1  0.83333333  0.20911433  0.08229850  1.0
  Ni  Ni142  1  0.83333333  0.54244767  0.08229850  1.0
  Ni  Ni143  1  0.83333333  0.87578100  0.08229850  1.0
  Cu  Cu144  1  0.00000000  0.00000000  0.15454361  1.0
  Cu  Cu145  1  0.00000000  0.33333333  0.15454361  1.0
  Cu  Cu146  1  0.00000000  0.66666667  0.15454361  1.0
  Cu  Cu147  1  0.33333333  0.00000000  0.15454361  1.0
  Cu  Cu148  1  0.33333333  0.33333333  0.15454361  1.0
  Cu  Cu149  1  0.33333333  0.66666667  0.15454361  1.0
  Cu  Cu150  1  0.66666667  0.00000000  0.15454361  1.0
  Cu  Cu151  1  0.66666667  0.33333333  0.15454361  1.0
  Cu  Cu152  1  0.66666667  0.66666667  0.15454361  1.0
  Cu  Cu153  1  0.00000000  0.16666667  0.12822782  1.0
  Cu  Cu154  1  0.00000000  0.50000000  0.12822782  1.0
  Cu  Cu155  1  0.00000000  0.83333333  0.12822782  1.0
  Cu  Cu156  1  0.33333333  0.16666667  0.12822782  1.0
  Cu  Cu157  1  0.33333333  0.50000000  0.12822782  1.0
  Cu  Cu158  1  0.33333333  0.83333333  0.12822782  1.0
  Cu  Cu159  1  0.66666667  0.16666667  0.12822782  1.0
  Cu  Cu160  1  0.66666667  0.50000000  0.12822782  1.0
  Cu  Cu161  1  0.66666667  0.83333333  0.12822782  1.0
  Ni  Ni162  1  0.16666667  0.12421900  0.12152555  1.0
  Ni  Ni163  1  0.16666667  0.45755233  0.12152555  1.0
  Ni  Ni164  1  0.16666667  0.79088567  0.12152555  1.0
  Ni  Ni165  1  0.50000000  0.12421900  0.12152555  1.0
  Ni  Ni166  1  0.50000000  0.45755233  0.12152555  1.0
  Ni  Ni167  1  0.50000000  0.79088567  0.12152555  1.0
  Ni  Ni168  1  0.83333333  0.12421900  0.12152555  1.0
  Ni  Ni169  1  0.83333333  0.45755233  0.12152555  1.0
  Ni  Ni170  1  0.83333333  0.79088567  0.12152555  1.0
  Ni  Ni171  1  0.16666667  0.29088567  0.14784134  1.0
  Ni  Ni172  1  0.16666667  0.62421900  0.14784134  1.0
  Ni  Ni173  1  0.16666667  0.95755233  0.14784134  1.0
  Ni  Ni174  1  0.50000000  0.29088567  0.14784134  1.0
  Ni  Ni175  1  0.50000000  0.62421900  0.14784134  1.0
  Ni  Ni176  1  0.50000000  0.95755233  0.14784134  1.0
  Ni  Ni177  1  0.83333333  0.29088567  0.14784134  1.0
  Ni  Ni178  1  0.83333333  0.62421900  0.14784134  1.0
  Ni  Ni179  1  0.83333333  0.95755233  0.14784134  1.0
  Ni  Ni180  1  0.00000000  0.08333333  0.11506992  1.0
  Ni  Ni181  1  0.00000000  0.41666667  0.11506992  1.0
  Ni  Ni182  1  0.00000000  0.75000000  0.11506992  1.0
  Ni  Ni183  1  0.33333333  0.08333333  0.11506992  1.0
  Ni  Ni184  1  0.33333333  0.41666667  0.11506992  1.0
  Ni  Ni185  1  0.33333333  0.75000000  0.11506992  1.0
  Ni  Ni186  1  0.66666667  0.08333333  0.11506992  1.0
  Ni  Ni187  1  0.66666667  0.41666667  0.11506992  1.0
  Ni  Ni188  1  0.66666667  0.75000000  0.11506992  1.0
  Ni  Ni189  1  0.00000000  0.25000000  0.14138571  1.0
  Ni  Ni190  1  0.00000000  0.58333333  0.14138571  1.0
  Ni  Ni191  1  0.00000000  0.91666667  0.14138571  1.0
  Ni  Ni192  1  0.33333333  0.25000000  0.14138571  1.0
  Ni  Ni193  1  0.33333333  0.58333333  0.14138571  1.0
  Ni  Ni194  1  0.33333333  0.91666667  0.14138571  1.0
  Ni  Ni195  1  0.66666667  0.25000000  0.14138571  1.0
  Ni  Ni196  1  0.66666667  0.58333333  0.14138571  1.0
  Ni  Ni197  1  0.66666667  0.91666667  0.14138571  1.0
  Ni  Ni198  1  0.16666667  0.04244767  0.10861429  1.0
  Ni  Ni199  1  0.16666667  0.37578100  0.10861429  1.0
  Ni  Ni200  1  0.16666667  0.70911433  0.10861429  1.0
  Ni  Ni201  1  0.50000000  0.04244767  0.10861429  1.0
  Ni  Ni202  1  0.50000000  0.37578100  0.10861429  1.0
  Ni  Ni203  1  0.50000000  0.70911433  0.10861429  1.0
  Ni  Ni204  1  0.83333333  0.04244767  0.10861429  1.0
  Ni  Ni205  1  0.83333333  0.37578100  0.10861429  1.0
  Ni  Ni206  1  0.83333333  0.70911433  0.10861429  1.0
  Ni  Ni207  1  0.16666667  0.20911433  0.13493008  1.0
  Ni  Ni208  1  0.16666667  0.54244767  0.13493008  1.0
  Ni  Ni209  1  0.16666667  0.87578100  0.13493008  1.0
  Ni  Ni210  1  0.50000000  0.20911433  0.13493008  1.0
  Ni  Ni211  1  0.50000000  0.54244767  0.13493008  1.0
  Ni  Ni212  1  0.50000000  0.87578100  0.13493008  1.0
  Ni  Ni213  1  0.83333333  0.20911433  0.13493008  1.0
  Ni  Ni214  1  0.83333333  0.54244767  0.13493008  1.0
  Ni  Ni215  1  0.83333333  0.87578100  0.13493008  1.0
  Cu  Cu216  1  0.00000000  0.00000000  0.20717518  1.0
  Cu  Cu217  1  0.00000000  0.33333333  0.20717518  1.0
  Cu  Cu218  1  0.00000000  0.66666667  0.20717518  1.0
  Cu  Cu219  1  0.33333333  0.00000000  0.20717518  1.0
  Cu  Cu220  1  0.33333333  0.33333333  0.20717518  1.0
  Cu  Cu221  1  0.33333333  0.66666667  0.20717518  1.0
  Cu  Cu222  1  0.66666667  0.00000000  0.20717518  1.0
  Cu  Cu223  1  0.66666667  0.33333333  0.20717518  1.0
  Cu  Cu224  1  0.66666667  0.66666667  0.20717518  1.0
  Cu  Cu225  1  0.00000000  0.16666667  0.18085939  1.0
  Cu  Cu226  1  0.00000000  0.50000000  0.18085939  1.0
  Cu  Cu227  1  0.00000000  0.83333333  0.18085939  1.0
  Cu  Cu228  1  0.33333333  0.16666667  0.18085939  1.0
  Cu  Cu229  1  0.33333333  0.50000000  0.18085939  1.0
  Cu  Cu230  1  0.33333333  0.83333333  0.18085939  1.0
  Cu  Cu231  1  0.66666667  0.16666667  0.18085939  1.0
  Cu  Cu232  1  0.66666667  0.50000000  0.18085939  1.0
  Cu  Cu233  1  0.66666667  0.83333333  0.18085939  1.0
  Ni  Ni234  1  0.16666667  0.12421900  0.17415713  1.0
  Ni  Ni235  1  0.16666667  0.45755233  0.17415713  1.0
  Ni  Ni236  1  0.16666667  0.79088567  0.17415713  1.0
  Ni  Ni237  1  0.50000000  0.12421900  0.17415713  1.0
  Ni  Ni238  1  0.50000000  0.45755233  0.17415713  1.0
  Ni  Ni239  1  0.50000000  0.79088567  0.17415713  1.0
  Ni  Ni240  1  0.83333333  0.12421900  0.17415713  1.0
  Ni  Ni241  1  0.83333333  0.45755233  0.17415713  1.0
  Ni  Ni242  1  0.83333333  0.79088567  0.17415713  1.0
  Ni  Ni243  1  0.16666667  0.29088567  0.20047292  1.0
  Ni  Ni244  1  0.16666667  0.62421900  0.20047292  1.0
  Ni  Ni245  1  0.16666667  0.95755233  0.20047292  1.0
  Ni  Ni246  1  0.50000000  0.29088567  0.20047292  1.0
  Ni  Ni247  1  0.50000000  0.62421900  0.20047292  1.0
  Ni  Ni248  1  0.50000000  0.95755233  0.20047292  1.0
  Ni  Ni249  1  0.83333333  0.29088567  0.20047292  1.0
  Ni  Ni250  1  0.83333333  0.62421900  0.20047292  1.0
  Ni  Ni251  1  0.83333333  0.95755233  0.20047292  1.0
  Ni  Ni252  1  0.00000000  0.08333333  0.16770150  1.0
  Ni  Ni253  1  0.00000000  0.41666667  0.16770150  1.0
  Ni  Ni254  1  0.00000000  0.75000000  0.16770150  1.0
  Ni  Ni255  1  0.33333333  0.08333333  0.16770150  1.0
  Ni  Ni256  1  0.33333333  0.41666667  0.16770150  1.0
  Ni  Ni257  1  0.33333333  0.75000000  0.16770150  1.0
  Ni  Ni258  1  0.66666667  0.08333333  0.16770150  1.0
  Ni  Ni259  1  0.66666667  0.41666667  0.16770150  1.0
  Ni  Ni260  1  0.66666667  0.75000000  0.16770150  1.0
  Ni  Ni261  1  0.00000000  0.25000000  0.19401729  1.0
  Ni  Ni262  1  0.00000000  0.58333333  0.19401729  1.0
  Ni  Ni263  1  0.00000000  0.91666667  0.19401729  1.0
  Ni  Ni264  1  0.33333333  0.25000000  0.19401729  1.0
  Ni  Ni265  1  0.33333333  0.58333333  0.19401729  1.0
  Ni  Ni266  1  0.33333333  0.91666667  0.19401729  1.0
  Ni  Ni267  1  0.66666667  0.25000000  0.19401729  1.0
  Ni  Ni268  1  0.66666667  0.58333333  0.19401729  1.0
  Ni  Ni269  1  0.66666667  0.91666667  0.19401729  1.0
  Ni  Ni270  1  0.16666667  0.04244767  0.16124587  1.0
  Ni  Ni271  1  0.16666667  0.37578100  0.16124587  1.0
  Ni  Ni272  1  0.16666667  0.70911433  0.16124587  1.0
  Ni  Ni273  1  0.50000000  0.04244767  0.16124587  1.0
  Ni  Ni274  1  0.50000000  0.37578100  0.16124587  1.0
  Ni  Ni275  1  0.50000000  0.70911433  0.16124587  1.0
  Ni  Ni276  1  0.83333333  0.04244767  0.16124587  1.0
  Ni  Ni277  1  0.83333333  0.37578100  0.16124587  1.0
  Ni  Ni278  1  0.83333333  0.70911433  0.16124587  1.0
  Ni  Ni279  1  0.16666667  0.20911433  0.18756166  1.0
  Ni  Ni280  1  0.16666667  0.54244767  0.18756166  1.0
  Ni  Ni281  1  0.16666667  0.87578100  0.18756166  1.0
  Ni  Ni282  1  0.50000000  0.20911433  0.18756166  1.0
  Ni  Ni283  1  0.50000000  0.54244767  0.18756166  1.0
  Ni  Ni284  1  0.50000000  0.87578100  0.18756166  1.0
  Ni  Ni285  1  0.83333333  0.20911433  0.18756166  1.0
  Ni  Ni286  1  0.83333333  0.54244767  0.18756166  1.0
  Ni  Ni287  1  0.83333333  0.87578100  0.18756166  1.0
  Cu  Cu288  1  0.00000000  0.00000000  0.25980676  1.0
  Cu  Cu289  1  0.00000000  0.33333333  0.25980676  1.0
  Cu  Cu290  1  0.00000000  0.66666667  0.25980676  1.0
  Cu  Cu291  1  0.33333333  0.00000000  0.25980676  1.0
  Cu  Cu292  1  0.33333333  0.33333333  0.25980676  1.0
  Cu  Cu293  1  0.33333333  0.66666667  0.25980676  1.0
  Cu  Cu294  1  0.66666667  0.00000000  0.25980676  1.0
  Cu  Cu295  1  0.66666667  0.33333333  0.25980676  1.0
  Cu  Cu296  1  0.66666667  0.66666667  0.25980676  1.0
  Cu  Cu297  1  0.00000000  0.16666667  0.23349097  1.0
  Cu  Cu298  1  0.00000000  0.50000000  0.23349097  1.0
  Cu  Cu299  1  0.00000000  0.83333333  0.23349097  1.0
  Cu  Cu300  1  0.33333333  0.16666667  0.23349097  1.0
  Cu  Cu301  1  0.33333333  0.50000000  0.23349097  1.0
  Cu  Cu302  1  0.33333333  0.83333333  0.23349097  1.0
  Cu  Cu303  1  0.66666667  0.16666667  0.23349097  1.0
  Cu  Cu304  1  0.66666667  0.50000000  0.23349097  1.0
  Cu  Cu305  1  0.66666667  0.83333333  0.23349097  1.0
  Ni  Ni306  1  0.16666667  0.12421900  0.22678871  1.0
  Ni  Ni307  1  0.16666667  0.45755233  0.22678871  1.0
  Ni  Ni308  1  0.16666667  0.79088567  0.22678871  1.0
  Ni  Ni309  1  0.50000000  0.12421900  0.22678871  1.0
  Ni  Ni310  1  0.50000000  0.45755233  0.22678871  1.0
  Ni  Ni311  1  0.50000000  0.79088567  0.22678871  1.0
  Ni  Ni312  1  0.83333333  0.12421900  0.22678871  1.0
  Ni  Ni313  1  0.83333333  0.45755233  0.22678871  1.0
  Ni  Ni314  1  0.83333333  0.79088567  0.22678871  1.0
  Ni  Ni315  1  0.16666667  0.29088567  0.25310450  1.0
  Ni  Ni316  1  0.16666667  0.62421900  0.25310450  1.0
  Ni  Ni317  1  0.16666667  0.95755233  0.25310450  1.0
  Ni  Ni318  1  0.50000000  0.29088567  0.25310450  1.0
  Ni  Ni319  1  0.50000000  0.62421900  0.25310450  1.0
  Ni  Ni320  1  0.50000000  0.95755233  0.25310450  1.0
  Ni  Ni321  1  0.83333333  0.29088567  0.25310450  1.0
  Ni  Ni322  1  0.83333333  0.62421900  0.25310450  1.0
  Ni  Ni323  1  0.83333333  0.95755233  0.25310450  1.0
  Ni  Ni324  1  0.00000000  0.08333333  0.22033308  1.0
  Ni  Ni325  1  0.00000000  0.41666667  0.22033308  1.0
  Ni  Ni326  1  0.00000000  0.75000000  0.22033308  1.0
  Ni  Ni327  1  0.33333333  0.08333333  0.22033308  1.0
  Ni  Ni328  1  0.33333333  0.41666667  0.22033308  1.0
  Ni  Ni329  1  0.33333333  0.75000000  0.22033308  1.0
  Ni  Ni330  1  0.66666667  0.08333333  0.22033308  1.0
  Ni  Ni331  1  0.66666667  0.41666667  0.22033308  1.0
  Ni  Ni332  1  0.66666667  0.75000000  0.22033308  1.0
  Ni  Ni333  1  0.00000000  0.25000000  0.24664887  1.0
  Ni  Ni334  1  0.00000000  0.58333333  0.24664887  1.0
  Ni  Ni335  1  0.00000000  0.91666667  0.24664887  1.0
  Ni  Ni336  1  0.33333333  0.25000000  0.24664887  1.0
  Ni  Ni337  1  0.33333333  0.58333333  0.24664887  1.0
  Ni  Ni338  1  0.33333333  0.91666667  0.24664887  1.0
  Ni  Ni339  1  0.66666667  0.25000000  0.24664887  1.0
  Ni  Ni340  1  0.66666667  0.58333333  0.24664887  1.0
  Ni  Ni341  1  0.66666667  0.91666667  0.24664887  1.0
  Ni  Ni342  1  0.16666667  0.04244767  0.21387745  1.0
  Ni  Ni343  1  0.16666667  0.37578100  0.21387745  1.0
  Ni  Ni344  1  0.16666667  0.70911433  0.21387745  1.0
  Ni  Ni345  1  0.50000000  0.04244767  0.21387745  1.0
  Ni  Ni346  1  0.50000000  0.37578100  0.21387745  1.0
  Ni  Ni347  1  0.50000000  0.70911433  0.21387745  1.0
  Ni  Ni348  1  0.83333333  0.04244767  0.21387745  1.0
  Ni  Ni349  1  0.83333333  0.37578100  0.21387745  1.0
  Ni  Ni350  1  0.83333333  0.70911433  0.21387745  1.0
  Ni  Ni351  1  0.16666667  0.20911433  0.24019324  1.0
  Ni  Ni352  1  0.16666667  0.54244767  0.24019324  1.0
  Ni  Ni353  1  0.16666667  0.87578100  0.24019324  1.0
  Ni  Ni354  1  0.50000000  0.20911433  0.24019324  1.0
  Ni  Ni355  1  0.50000000  0.54244767  0.24019324  1.0
  Ni  Ni356  1  0.50000000  0.87578100  0.24019324  1.0
  Ni  Ni357  1  0.83333333  0.20911433  0.24019324  1.0
  Ni  Ni358  1  0.83333333  0.54244767  0.24019324  1.0
  Ni  Ni359  1  0.83333333  0.87578100  0.24019324  1.0
  Cu  Cu360  1  0.00000000  0.00000000  0.31243834  1.0
  Cu  Cu361  1  0.00000000  0.33333333  0.31243834  1.0
  Cu  Cu362  1  0.00000000  0.66666667  0.31243834  1.0
  Cu  Cu363  1  0.33333333  0.00000000  0.31243834  1.0
  Cu  Cu364  1  0.33333333  0.33333333  0.31243834  1.0
  Cu  Cu365  1  0.33333333  0.66666667  0.31243834  1.0
  Cu  Cu366  1  0.66666667  0.00000000  0.31243834  1.0
  Cu  Cu367  1  0.66666667  0.33333333  0.31243834  1.0
  Cu  Cu368  1  0.66666667  0.66666667  0.31243834  1.0
  Cu  Cu369  1  0.00000000  0.16666667  0.28612255  1.0
  Cu  Cu370  1  0.00000000  0.50000000  0.28612255  1.0
  Cu  Cu371  1  0.00000000  0.83333333  0.28612255  1.0
  Cu  Cu372  1  0.33333333  0.16666667  0.28612255  1.0
  Cu  Cu373  1  0.33333333  0.50000000  0.28612255  1.0
  Cu  Cu374  1  0.33333333  0.83333333  0.28612255  1.0
  Cu  Cu375  1  0.66666667  0.16666667  0.28612255  1.0
  Cu  Cu376  1  0.66666667  0.50000000  0.28612255  1.0
  Cu  Cu377  1  0.66666667  0.83333333  0.28612255  1.0
  Ni  Ni378  1  0.16666667  0.12421900  0.27942029  1.0
  Ni  Ni379  1  0.16666667  0.45755233  0.27942029  1.0
  Ni  Ni380  1  0.16666667  0.79088567  0.27942029  1.0
  Ni  Ni381  1  0.50000000  0.12421900  0.27942029  1.0
  Ni  Ni382  1  0.50000000  0.45755233  0.27942029  1.0
  Ni  Ni383  1  0.50000000  0.79088567  0.27942029  1.0
  Ni  Ni384  1  0.83333333  0.12421900  0.27942029  1.0
  Ni  Ni385  1  0.83333333  0.45755233  0.27942029  1.0
  Ni  Ni386  1  0.83333333  0.79088567  0.27942029  1.0
  Ni  Ni387  1  0.16666667  0.29088567  0.30573608  1.0
  Ni  Ni388  1  0.16666667  0.62421900  0.30573608  1.0
  Ni  Ni389  1  0.16666667  0.95755233  0.30573608  1.0
  Ni  Ni390  1  0.50000000  0.29088567  0.30573608  1.0
  Ni  Ni391  1  0.50000000  0.62421900  0.30573608  1.0
  Ni  Ni392  1  0.50000000  0.95755233  0.30573608  1.0
  Ni  Ni393  1  0.83333333  0.29088567  0.30573608  1.0
  Ni  Ni394  1  0.83333333  0.62421900  0.30573608  1.0
  Ni  Ni395  1  0.83333333  0.95755233  0.30573608  1.0
  Ni  Ni396  1  0.00000000  0.08333333  0.27296466  1.0
  Ni  Ni397  1  0.00000000  0.41666667  0.27296466  1.0
  Ni  Ni398  1  0.00000000  0.75000000  0.27296466  1.0
  Ni  Ni399  1  0.33333333  0.08333333  0.27296466  1.0
  Ni  Ni400  1  0.33333333  0.41666667  0.27296466  1.0
  Ni  Ni401  1  0.33333333  0.75000000  0.27296466  1.0
  Ni  Ni402  1  0.66666667  0.08333333  0.27296466  1.0
  Ni  Ni403  1  0.66666667  0.41666667  0.27296466  1.0
  Ni  Ni404  1  0.66666667  0.75000000  0.27296466  1.0
  Ni  Ni405  1  0.00000000  0.25000000  0.29928045  1.0
  Ni  Ni406  1  0.00000000  0.58333333  0.29928045  1.0
  Ni  Ni407  1  0.00000000  0.91666667  0.29928045  1.0
  Ni  Ni408  1  0.33333333  0.25000000  0.29928045  1.0
  Ni  Ni409  1  0.33333333  0.58333333  0.29928045  1.0
  Ni  Ni410  1  0.33333333  0.91666667  0.29928045  1.0
  Ni  Ni411  1  0.66666667  0.25000000  0.29928045  1.0
  Ni  Ni412  1  0.66666667  0.58333333  0.29928045  1.0
  Ni  Ni413  1  0.66666667  0.91666667  0.29928045  1.0
  Ni  Ni414  1  0.16666667  0.04244767  0.26650903  1.0
  Ni  Ni415  1  0.16666667  0.37578100  0.26650903  1.0
  Ni  Ni416  1  0.16666667  0.70911433  0.26650903  1.0
  Ni  Ni417  1  0.50000000  0.04244767  0.26650903  1.0
  Ni  Ni418  1  0.50000000  0.37578100  0.26650903  1.0
  Ni  Ni419  1  0.50000000  0.70911433  0.26650903  1.0
  Ni  Ni420  1  0.83333333  0.04244767  0.26650903  1.0
  Ni  Ni421  1  0.83333333  0.37578100  0.26650903  1.0
  Ni  Ni422  1  0.83333333  0.70911433  0.26650903  1.0
  Ni  Ni423  1  0.16666667  0.20911433  0.29282482  1.0
  Ni  Ni424  1  0.16666667  0.54244767  0.29282482  1.0
  Ni  Ni425  1  0.16666667  0.87578100  0.29282482  1.0
  Ni  Ni426  1  0.50000000  0.20911433  0.29282482  1.0
  Ni  Ni427  1  0.50000000  0.54244767  0.29282482  1.0
  Ni  Ni428  1  0.50000000  0.87578100  0.29282482  1.0
  Ni  Ni429  1  0.83333333  0.20911433  0.29282482  1.0
  Ni  Ni430  1  0.83333333  0.54244767  0.29282482  1.0
  Ni  Ni431  1  0.83333333  0.87578100  0.29282482  1.0
  Cu  Cu432  1  0.00000000  0.00000000  0.36506992  1.0
  Cu  Cu433  1  0.00000000  0.33333333  0.36506992  1.0
  Cu  Cu434  1  0.00000000  0.66666667  0.36506992  1.0
  Cu  Cu435  1  0.33333333  0.00000000  0.36506992  1.0
  Cu  Cu436  1  0.33333333  0.33333333  0.36506992  1.0
  Cu  Cu437  1  0.33333333  0.66666667  0.36506992  1.0
  Cu  Cu438  1  0.66666667  0.00000000  0.36506992  1.0
  Cu  Cu439  1  0.66666667  0.33333333  0.36506992  1.0
  Cu  Cu440  1  0.66666667  0.66666667  0.36506992  1.0
  Cu  Cu441  1  0.00000000  0.16666667  0.33875413  1.0
  Cu  Cu442  1  0.00000000  0.50000000  0.33875413  1.0
  Cu  Cu443  1  0.00000000  0.83333333  0.33875413  1.0
  Cu  Cu444  1  0.33333333  0.16666667  0.33875413  1.0
  Cu  Cu445  1  0.33333333  0.50000000  0.33875413  1.0
  Cu  Cu446  1  0.33333333  0.83333333  0.33875413  1.0
  Cu  Cu447  1  0.66666667  0.16666667  0.33875413  1.0
  Cu  Cu448  1  0.66666667  0.50000000  0.33875413  1.0
  Cu  Cu449  1  0.66666667  0.83333333  0.33875413  1.0
  Ni  Ni450  1  0.16666667  0.12421900  0.33205187  1.0
  Ni  Ni451  1  0.16666667  0.45755233  0.33205187  1.0
  Ni  Ni452  1  0.16666667  0.79088567  0.33205187  1.0
  Ni  Ni453  1  0.50000000  0.12421900  0.33205187  1.0
  Ni  Ni454  1  0.50000000  0.45755233  0.33205187  1.0
  Ni  Ni455  1  0.50000000  0.79088567  0.33205187  1.0
  Ni  Ni456  1  0.83333333  0.12421900  0.33205187  1.0
  Ni  Ni457  1  0.83333333  0.45755233  0.33205187  1.0
  Ni  Ni458  1  0.83333333  0.79088567  0.33205187  1.0
  Ni  Ni459  1  0.16666667  0.29088567  0.35836766  1.0
  Ni  Ni460  1  0.16666667  0.62421900  0.35836766  1.0
  Ni  Ni461  1  0.16666667  0.95755233  0.35836766  1.0
  Ni  Ni462  1  0.50000000  0.29088567  0.35836766  1.0
  Ni  Ni463  1  0.50000000  0.62421900  0.35836766  1.0
  Ni  Ni464  1  0.50000000  0.95755233  0.35836766  1.0
  Ni  Ni465  1  0.83333333  0.29088567  0.35836766  1.0
  Ni  Ni466  1  0.83333333  0.62421900  0.35836766  1.0
  Ni  Ni467  1  0.83333333  0.95755233  0.35836766  1.0
  Ni  Ni468  1  0.00000000  0.08333333  0.32559624  1.0
  Ni  Ni469  1  0.00000000  0.41666667  0.32559624  1.0
  Ni  Ni470  1  0.00000000  0.75000000  0.32559624  1.0
  Ni  Ni471  1  0.33333333  0.08333333  0.32559624  1.0
  Ni  Ni472  1  0.33333333  0.41666667  0.32559624  1.0
  Ni  Ni473  1  0.33333333  0.75000000  0.32559624  1.0
  Ni  Ni474  1  0.66666667  0.08333333  0.32559624  1.0
  Ni  Ni475  1  0.66666667  0.41666667  0.32559624  1.0
  Ni  Ni476  1  0.66666667  0.75000000  0.32559624  1.0
  Ni  Ni477  1  0.00000000  0.25000000  0.35191203  1.0
  Ni  Ni478  1  0.00000000  0.58333333  0.35191203  1.0
  Ni  Ni479  1  0.00000000  0.91666667  0.35191203  1.0
  Ni  Ni480  1  0.33333333  0.25000000  0.35191203  1.0
  Ni  Ni481  1  0.33333333  0.58333333  0.35191203  1.0
  Ni  Ni482  1  0.33333333  0.91666667  0.35191203  1.0
  Ni  Ni483  1  0.66666667  0.25000000  0.35191203  1.0
  Ni  Ni484  1  0.66666667  0.58333333  0.35191203  1.0
  Ni  Ni485  1  0.66666667  0.91666667  0.35191203  1.0
  Ni  Ni486  1  0.16666667  0.04244767  0.31914061  1.0
  Ni  Ni487  1  0.16666667  0.37578100  0.31914061  1.0
  Ni  Ni488  1  0.16666667  0.70911433  0.31914061  1.0
  Ni  Ni489  1  0.50000000  0.04244767  0.31914061  1.0
  Ni  Ni490  1  0.50000000  0.37578100  0.31914061  1.0
  Ni  Ni491  1  0.50000000  0.70911433  0.31914061  1.0
  Ni  Ni492  1  0.83333333  0.04244767  0.31914061  1.0
  Ni  Ni493  1  0.83333333  0.37578100  0.31914061  1.0
  Ni  Ni494  1  0.83333333  0.70911433  0.31914061  1.0
  Ni  Ni495  1  0.16666667  0.20911433  0.34545639  1.0
  Ni  Ni496  1  0.16666667  0.54244767  0.34545639  1.0
  Ni  Ni497  1  0.16666667  0.87578100  0.34545639  1.0
  Ni  Ni498  1  0.50000000  0.20911433  0.34545639  1.0
  Ni  Ni499  1  0.50000000  0.54244767  0.34545639  1.0
  Ni  Ni500  1  0.50000000  0.87578100  0.34545639  1.0
  Ni  Ni501  1  0.83333333  0.20911433  0.34545639  1.0
  Ni  Ni502  1  0.83333333  0.54244767  0.34545639  1.0
  Ni  Ni503  1  0.83333333  0.87578100  0.34545639  1.0
  Cu  Cu504  1  0.00000000  0.00000000  0.41770150  1.0
  Cu  Cu505  1  0.00000000  0.33333333  0.41770150  1.0
  Cu  Cu506  1  0.00000000  0.66666667  0.41770150  1.0
  Cu  Cu507  1  0.33333333  0.00000000  0.41770150  1.0
  Cu  Cu508  1  0.33333333  0.33333333  0.41770150  1.0
  Cu  Cu509  1  0.33333333  0.66666667  0.41770150  1.0
  Cu  Cu510  1  0.66666667  0.00000000  0.41770150  1.0
  Cu  Cu511  1  0.66666667  0.33333333  0.41770150  1.0
  Cu  Cu512  1  0.66666667  0.66666667  0.41770150  1.0
  Cu  Cu513  1  0.00000000  0.16666667  0.39138571  1.0
  Cu  Cu514  1  0.00000000  0.50000000  0.39138571  1.0
  Cu  Cu515  1  0.00000000  0.83333333  0.39138571  1.0
  Cu  Cu516  1  0.33333333  0.16666667  0.39138571  1.0
  Cu  Cu517  1  0.33333333  0.50000000  0.39138571  1.0
  Cu  Cu518  1  0.33333333  0.83333333  0.39138571  1.0
  Cu  Cu519  1  0.66666667  0.16666667  0.39138571  1.0
  Cu  Cu520  1  0.66666667  0.50000000  0.39138571  1.0
  Cu  Cu521  1  0.66666667  0.83333333  0.39138571  1.0
  Ni  Ni522  1  0.16666667  0.12421900  0.38468345  1.0
  Ni  Ni523  1  0.16666667  0.45755233  0.38468345  1.0
  Ni  Ni524  1  0.16666667  0.79088567  0.38468345  1.0
  Ni  Ni525  1  0.50000000  0.12421900  0.38468345  1.0
  Ni  Ni526  1  0.50000000  0.45755233  0.38468345  1.0
  Ni  Ni527  1  0.50000000  0.79088567  0.38468345  1.0
  Ni  Ni528  1  0.83333333  0.12421900  0.38468345  1.0
  Ni  Ni529  1  0.83333333  0.45755233  0.38468345  1.0
  Ni  Ni530  1  0.83333333  0.79088567  0.38468345  1.0
  Ni  Ni531  1  0.16666667  0.29088567  0.41099924  1.0
  Ni  Ni532  1  0.16666667  0.62421900  0.41099924  1.0
  Ni  Ni533  1  0.16666667  0.95755233  0.41099924  1.0
  Ni  Ni534  1  0.50000000  0.29088567  0.41099924  1.0
  Ni  Ni535  1  0.50000000  0.62421900  0.41099924  1.0
  Ni  Ni536  1  0.50000000  0.95755233  0.41099924  1.0
  Ni  Ni537  1  0.83333333  0.29088567  0.41099924  1.0
  Ni  Ni538  1  0.83333333  0.62421900  0.41099924  1.0
  Ni  Ni539  1  0.83333333  0.95755233  0.41099924  1.0
  Ni  Ni540  1  0.00000000  0.08333333  0.37822782  1.0
  Ni  Ni541  1  0.00000000  0.41666667  0.37822782  1.0
  Ni  Ni542  1  0.00000000  0.75000000  0.37822782  1.0
  Ni  Ni543  1  0.33333333  0.08333333  0.37822782  1.0
  Ni  Ni544  1  0.33333333  0.41666667  0.37822782  1.0
  Ni  Ni545  1  0.33333333  0.75000000  0.37822782  1.0
  Ni  Ni546  1  0.66666667  0.08333333  0.37822782  1.0
  Ni  Ni547  1  0.66666667  0.41666667  0.37822782  1.0
  Ni  Ni548  1  0.66666667  0.75000000  0.37822782  1.0
  Ni  Ni549  1  0.00000000  0.25000000  0.40454361  1.0
  Ni  Ni550  1  0.00000000  0.58333333  0.40454361  1.0
  Ni  Ni551  1  0.00000000  0.91666667  0.40454361  1.0
  Ni  Ni552  1  0.33333333  0.25000000  0.40454361  1.0
  Ni  Ni553  1  0.33333333  0.58333333  0.40454361  1.0
  Ni  Ni554  1  0.33333333  0.91666667  0.40454361  1.0
  Ni  Ni555  1  0.66666667  0.25000000  0.40454361  1.0
  Ni  Ni556  1  0.66666667  0.58333333  0.40454361  1.0
  Ni  Ni557  1  0.66666667  0.91666667  0.40454361  1.0
  Ni  Ni558  1  0.16666667  0.04244767  0.37177218  1.0
  Ni  Ni559  1  0.16666667  0.37578100  0.37177218  1.0
  Ni  Ni560  1  0.16666667  0.70911433  0.37177218  1.0
  Ni  Ni561  1  0.50000000  0.04244767  0.37177218  1.0
  Ni  Ni562  1  0.50000000  0.37578100  0.37177218  1.0
  Ni  Ni563  1  0.50000000  0.70911433  0.37177218  1.0
  Ni  Ni564  1  0.83333333  0.04244767  0.37177218  1.0
  Ni  Ni565  1  0.83333333  0.37578100  0.37177218  1.0
  Ni  Ni566  1  0.83333333  0.70911433  0.37177218  1.0
  Ni  Ni567  1  0.16666667  0.20911433  0.39808797  1.0
  Ni  Ni568  1  0.16666667  0.54244767  0.39808797  1.0
  Ni  Ni569  1  0.16666667  0.87578100  0.39808797  1.0
  Ni  Ni570  1  0.50000000  0.20911433  0.39808797  1.0
  Ni  Ni571  1  0.50000000  0.54244767  0.39808797  1.0
  Ni  Ni572  1  0.50000000  0.87578100  0.39808797  1.0
  Ni  Ni573  1  0.83333333  0.20911433  0.39808797  1.0
  Ni  Ni574  1  0.83333333  0.54244767  0.39808797  1.0
  Ni  Ni575  1  0.83333333  0.87578100  0.39808797  1.0
