# generated using pymatgen
data_CuNi
_symmetry_space_group_name_H-M   'P 1'
_cell_length_a   14.51839570
_cell_length_b   17.97992899
_cell_length_c   27.35657088
_cell_angle_alpha   86.16962674
_cell_angle_beta   89.31695430
_cell_angle_gamma   74.40740237
_symmetry_Int_Tables_number   1
_chemical_formula_structural   CuNi
_chemical_formula_sum   'Cu126 Ni126'
_cell_volume   6862.83786637
_cell_formula_units_Z   126
loop_
 _symmetry_equiv_pos_site_id
 _symmetry_equiv_pos_as_xyz
  1  'x, y, z'
loop_
 _atom_site_type_symbol
 _atom_site_label
 _atom_site_symmetry_multiplicity
 _atom_site_fract_x
 _atom_site_fract_y
 _atom_site_fract_z
 _atom_site_occupancy
  Cu  Cu0  1  0.09967320  0.06290850  0.98774510  1.0
  Cu  Cu1  1  0.09967320  0.39624183  0.98774510  1.0
  Cu  Cu2  1  0.09967320  0.72957516  0.98774510  1.0
  Cu  Cu3  1  0.43300654  0.06290850  0.98774510  1.0
  Cu  Cu4  1  0.43300654  0.39624183  0.98774510  1.0
  Cu  Cu5  1  0.43300654  0.72957516  0.98774510  1.0
  Cu  Cu6  1  0.76633987  0.06290850  0.98774510  1.0
  Cu  Cu7  1  0.76633987  0.39624183  0.98774510  1.0
  Cu  Cu8  1  0.76633987  0.72957516  0.98774510  1.0
  Cu  Cu9  1  0.30555556  0.18055556  0.95833333  1.0
  Cu  Cu10  1  0.30555556  0.51388889  0.95833333  1.0
  Cu  Cu11  1  0.30555556  0.84722222  0.95833333  1.0
  Cu  Cu12  1  0.63888889  0.18055556  0.95833333  1.0
  Cu  Cu13  1  0.63888889  0.51388889  0.95833333  1.0
  Cu  Cu14  1  0.63888889  0.84722222  0.95833333  1.0
  Cu  Cu15  1  0.97222222  0.18055556  0.95833333  1.0
  Cu  Cu16  1  0.97222222  0.51388889  0.95833333  1.0
  Cu  Cu17  1  0.97222222  0.84722222  0.95833333  1.0
  Cu  Cu18  1  0.17810458  0.29820261  0.92892157  1.0
  Cu  Cu19  1  0.17810458  0.63153595  0.92892157  1.0
  Cu  Cu20  1  0.17810458  0.96486928  0.92892157  1.0
  Cu  Cu21  1  0.51143791  0.29820261  0.92892157  1.0
  Cu  Cu22  1  0.51143791  0.63153595  0.92892157  1.0
  Cu  Cu23  1  0.51143791  0.96486928  0.92892157  1.0
  Cu  Cu24  1  0.84477124  0.29820261  0.92892157  1.0
  Cu  Cu25  1  0.84477124  0.63153595  0.92892157  1.0
  Cu  Cu26  1  0.84477124  0.96486928  0.92892157  1.0
  Cu  Cu27  1  0.05065359  0.08251634  0.89950980  1.0
  Cu  Cu28  1  0.05065359  0.41584967  0.89950980  1.0
  Cu  Cu29  1  0.05065359  0.74918301  0.89950980  1.0
  Cu  Cu30  1  0.38398693  0.08251634  0.89950980  1.0
  Cu  Cu31  1  0.38398693  0.41584967  0.89950980  1.0
  Cu  Cu32  1  0.38398693  0.74918301  0.89950980  1.0
  Cu  Cu33  1  0.71732026  0.08251634  0.89950980  1.0
  Cu  Cu34  1  0.71732026  0.41584967  0.89950980  1.0
  Cu  Cu35  1  0.71732026  0.74918301  0.89950980  1.0
  Cu  Cu36  1  0.25653595  0.20016340  0.87009804  1.0
  Cu  Cu37  1  0.25653595  0.53349673  0.87009804  1.0
  Cu  Cu38  1  0.25653595  0.86683007  0.87009804  1.0
  Cu  Cu39  1  0.58986928  0.20016340  0.87009804  1.0
  Cu  Cu40  1  0.58986928  0.53349673  0.87009804  1.0
  Cu  Cu41  1  0.58986928  0.86683007  0.87009804  1.0
  Cu  Cu42  1  0.92320261  0.20016340  0.87009804  1.0
  Cu  Cu43  1  0.92320261  0.53349673  0.87009804  1.0
  Cu  Cu44  1  0.92320261  0.86683007  0.87009804  1.0
  Cu  Cu45  1  0.12908497  0.31781046  0.84068627  1.0
  Cu  Cu46  1  0.12908497  0.65114379  0.84068627  1.0
  Cu  Cu47  1  0.12908497  0.98447712  0.84068627  1.0
  Cu  Cu48  1  0.46241830  0.31781046  0.84068627  1.0
  Cu  Cu49  1  0.46241830  0.65114379  0.84068627  1.0
  Cu  Cu50  1  0.46241830  0.98447712  0.84068627  1.0
  Cu  Cu51  1  0.79575163  0.31781046  0.84068627  1.0
  Cu  Cu52  1  0.79575163  0.65114379  0.84068627  1.0
  Cu  Cu53  1  0.79575163  0.98447712  0.84068627  1.0
  Cu  Cu54  1  0.00163399  0.10212418  0.81127451  1.0
  Cu  Cu55  1  0.00163399  0.43545752  0.81127451  1.0
  Cu  Cu56  1  0.00163399  0.76879085  0.81127451  1.0
  Cu  Cu57  1  0.33496732  0.10212418  0.81127451  1.0
  Cu  Cu58  1  0.33496732  0.43545752  0.81127451  1.0
  Cu  Cu59  1  0.33496732  0.76879085  0.81127451  1.0
  Cu  Cu60  1  0.66830065  0.10212418  0.81127451  1.0
  Cu  Cu61  1  0.66830065  0.43545752  0.81127451  1.0
  Cu  Cu62  1  0.66830065  0.76879085  0.81127451  1.0
  Cu  Cu63  1  0.20751634  0.21977124  0.78186275  1.0
  Cu  Cu64  1  0.20751634  0.55310458  0.78186275  1.0
  Cu  Cu65  1  0.20751634  0.88643791  0.78186275  1.0
  Cu  Cu66  1  0.54084967  0.21977124  0.78186275  1.0
  Cu  Cu67  1  0.54084967  0.55310458  0.78186275  1.0
  Cu  Cu68  1  0.54084967  0.88643791  0.78186275  1.0
  Cu  Cu69  1  0.87418301  0.21977124  0.78186275  1.0
  Cu  Cu70  1  0.87418301  0.55310458  0.78186275  1.0
  Cu  Cu71  1  0.87418301  0.88643791  0.78186275  1.0
  Cu  Cu72  1  0.08006536  0.00408497  0.75245098  1.0
  Cu  Cu73  1  0.08006536  0.33741830  0.75245098  1.0
  Cu  Cu74  1  0.08006536  0.67075163  0.75245098  1.0
  Cu  Cu75  1  0.41339869  0.00408497  0.75245098  1.0
  Cu  Cu76  1  0.41339869  0.33741830  0.75245098  1.0
  Cu  Cu77  1  0.41339869  0.67075163  0.75245098  1.0
  Cu  Cu78  1  0.74673203  0.00408497  0.75245098  1.0
  Cu  Cu79  1  0.74673203  0.33741830  0.75245098  1.0
  Cu  Cu80  1  0.74673203  0.67075163  0.75245098  1.0
  Cu  Cu81  1  0.28594771  0.12173203  0.72303922  1.0
  Cu  Cu82  1  0.28594771  0.45506536  0.72303922  1.0
  Cu  Cu83  1  0.28594771  0.78839869  0.72303922  1.0
  Cu  Cu84  1  0.61928105  0.12173203  0.72303922  1.0
  Cu  Cu85  1  0.61928105  0.45506536  0.72303922  1.0
  Cu  Cu86  1  0.61928105  0.78839869  0.72303922  1.0
  Cu  Cu87  1  0.95261438  0.12173203  0.72303922  1.0
  Cu  Cu88  1  0.95261438  0.45506536  0.72303922  1.0
  Cu  Cu89  1  0.95261438  0.78839869  0.72303922  1.0
  Cu  Cu90  1  0.15849673  0.23937908  0.69362745  1.0
  Cu  Cu91  1  0.15849673  0.57271242  0.69362745  1.0
  Cu  Cu92  1  0.15849673  0.90604575  0.69362745  1.0
  Cu  Cu93  1  0.49183007  0.23937908  0.69362745  1.0
  Cu  Cu94  1  0.49183007  0.57271242  0.69362745  1.0
  Cu  Cu95  1  0.49183007  0.90604575  0.69362745  1.0
  Cu  Cu96  1  0.82516340  0.23937908  0.69362745  1.0
  Cu  Cu97  1  0.82516340  0.57271242  0.69362745  1.0
  Cu  Cu98  1  0.82516340  0.90604575  0.69362745  1.0
  Cu  Cu99  1  0.03104575  0.02369281  0.66421569  1.0
  Cu  Cu100  1  0.03104575  0.35702614  0.66421569  1.0
  Cu  Cu101  1  0.03104575  0.69035948  0.66421569  1.0
  Cu  Cu102  1  0.36437908  0.02369281  0.66421569  1.0
  Cu  Cu103  1  0.36437908  0.35702614  0.66421569  1.0
  Cu  Cu104  1  0.36437908  0.69035948  0.66421569  1.0
  Cu  Cu105  1  0.69771242  0.02369281  0.66421569  1.0
  Cu  Cu106  1  0.69771242  0.35702614  0.66421569  1.0
  Cu  Cu107  1  0.69771242  0.69035948  0.66421569  1.0
  Cu  Cu108  1  0.23692810  0.14133987  0.63480392  1.0
  Cu  Cu109  1  0.23692810  0.47467320  0.63480392  1.0
  Cu  Cu110  1  0.23692810  0.80800654  0.63480392  1.0
  Cu  Cu111  1  0.57026144  0.14133987  0.63480392  1.0
  Cu  Cu112  1  0.57026144  0.47467320  0.63480392  1.0
  Cu  Cu113  1  0.57026144  0.80800654  0.63480392  1.0
  Cu  Cu114  1  0.90359477  0.14133987  0.63480392  1.0
  Cu  Cu115  1  0.90359477  0.47467320  0.63480392  1.0
  Cu  Cu116  1  0.90359477  0.80800654  0.63480392  1.0
  Cu  Cu117  1  0.10947712  0.25898693  0.60539216  1.0
  Cu  Cu118  1  0.10947712  0.59232026  0.60539216  1.0
  Cu  Cu119  1  0.10947712  0.92565359  0.60539216  1.0
  Cu  Cu120  1  0.44281046  0.25898693  0.60539216  1.0
  Cu  Cu121  1  0.44281046  0.59232026  0.60539216  1.0
  Cu  Cu122  1  0.44281046  0.92565359  0.60539216  1.0
  Cu  Cu123  1  0.77614379  0.25898693  0.60539216  1.0
  Cu  Cu124  1  0.77614379  0.59232026  0.60539216  1.0
  Cu  Cu125  1  0.77614379  0.92565359  0.60539216  1.0
  Ni  Ni126  1  0.00653595  0.31127451  0.95343137  1.0
  Ni  Ni127  1  0.00653595  0.64460784  0.95343137  1.0
  Ni  Ni128  1  0.00653595  0.97794118  0.95343137  1.0
  Ni  Ni129  1  0.33986928  0.31127451  0.95343137  1.0
  Ni  Ni130  1  0.33986928  0.64460784  0.95343137  1.0
  Ni  Ni131  1  0.33986928  0.97794118  0.95343137  1.0
  Ni  Ni132  1  0.67320261  0.31127451  0.95343137  1.0
  Ni  Ni133  1  0.67320261  0.64460784  0.95343137  1.0
  Ni  Ni134  1  0.67320261  0.97794118  0.95343137  1.0
  Ni  Ni135  1  0.13398693  0.19362745  0.98284314  1.0
  Ni  Ni136  1  0.13398693  0.52696078  0.98284314  1.0
  Ni  Ni137  1  0.13398693  0.86029412  0.98284314  1.0
  Ni  Ni138  1  0.46732026  0.19362745  0.98284314  1.0
  Ni  Ni139  1  0.46732026  0.52696078  0.98284314  1.0
  Ni  Ni140  1  0.46732026  0.86029412  0.98284314  1.0
  Ni  Ni141  1  0.80065359  0.19362745  0.98284314  1.0
  Ni  Ni142  1  0.80065359  0.52696078  0.98284314  1.0
  Ni  Ni143  1  0.80065359  0.86029412  0.98284314  1.0
  Ni  Ni144  1  0.08496732  0.21323529  0.89460784  1.0
  Ni  Ni145  1  0.08496732  0.54656863  0.89460784  1.0
  Ni  Ni146  1  0.08496732  0.87990196  0.89460784  1.0
  Ni  Ni147  1  0.41830065  0.21323529  0.89460784  1.0
  Ni  Ni148  1  0.41830065  0.54656863  0.89460784  1.0
  Ni  Ni149  1  0.41830065  0.87990196  0.89460784  1.0
  Ni  Ni150  1  0.75163399  0.21323529  0.89460784  1.0
  Ni  Ni151  1  0.75163399  0.54656863  0.89460784  1.0
  Ni  Ni152  1  0.75163399  0.87990196  0.89460784  1.0
  Ni  Ni153  1  0.21241830  0.09558824  0.92401961  1.0
  Ni  Ni154  1  0.21241830  0.42892157  0.92401961  1.0
  Ni  Ni155  1  0.21241830  0.76225490  0.92401961  1.0
  Ni  Ni156  1  0.54575163  0.09558824  0.92401961  1.0
  Ni  Ni157  1  0.54575163  0.42892157  0.92401961  1.0
  Ni  Ni158  1  0.54575163  0.76225490  0.92401961  1.0
  Ni  Ni159  1  0.87908497  0.09558824  0.92401961  1.0
  Ni  Ni160  1  0.87908497  0.42892157  0.92401961  1.0
  Ni  Ni161  1  0.87908497  0.76225490  0.92401961  1.0
  Ni  Ni162  1  0.16339869  0.11519608  0.83578431  1.0
  Ni  Ni163  1  0.16339869  0.44852941  0.83578431  1.0
  Ni  Ni164  1  0.16339869  0.78186275  0.83578431  1.0
  Ni  Ni165  1  0.49673203  0.11519608  0.83578431  1.0
  Ni  Ni166  1  0.49673203  0.44852941  0.83578431  1.0
  Ni  Ni167  1  0.49673203  0.78186275  0.83578431  1.0
  Ni  Ni168  1  0.83006536  0.11519608  0.83578431  1.0
  Ni  Ni169  1  0.83006536  0.44852941  0.83578431  1.0
  Ni  Ni170  1  0.83006536  0.78186275  0.83578431  1.0
  Ni  Ni171  1  0.29084967  0.33088235  0.86519608  1.0
  Ni  Ni172  1  0.29084967  0.66421569  0.86519608  1.0
  Ni  Ni173  1  0.29084967  0.99754902  0.86519608  1.0
  Ni  Ni174  1  0.62418301  0.33088235  0.86519608  1.0
  Ni  Ni175  1  0.62418301  0.66421569  0.86519608  1.0
  Ni  Ni176  1  0.62418301  0.99754902  0.86519608  1.0
  Ni  Ni177  1  0.95751634  0.33088235  0.86519608  1.0
  Ni  Ni178  1  0.95751634  0.66421569  0.86519608  1.0
  Ni  Ni179  1  0.95751634  0.99754902  0.86519608  1.0
  Ni  Ni180  1  0.24183007  0.01715686  0.77696078  1.0
  Ni  Ni181  1  0.24183007  0.35049020  0.77696078  1.0
  Ni  Ni182  1  0.24183007  0.68382353  0.77696078  1.0
  Ni  Ni183  1  0.57516340  0.01715686  0.77696078  1.0
  Ni  Ni184  1  0.57516340  0.35049020  0.77696078  1.0
  Ni  Ni185  1  0.57516340  0.68382353  0.77696078  1.0
  Ni  Ni186  1  0.90849673  0.01715686  0.77696078  1.0
  Ni  Ni187  1  0.90849673  0.35049020  0.77696078  1.0
  Ni  Ni188  1  0.90849673  0.68382353  0.77696078  1.0
  Ni  Ni189  1  0.03594771  0.23284314  0.80637255  1.0
  Ni  Ni190  1  0.03594771  0.56617647  0.80637255  1.0
  Ni  Ni191  1  0.03594771  0.89950980  0.80637255  1.0
  Ni  Ni192  1  0.36928105  0.23284314  0.80637255  1.0
  Ni  Ni193  1  0.36928105  0.56617647  0.80637255  1.0
  Ni  Ni194  1  0.36928105  0.89950980  0.80637255  1.0
  Ni  Ni195  1  0.70261438  0.23284314  0.80637255  1.0
  Ni  Ni196  1  0.70261438  0.56617647  0.80637255  1.0
  Ni  Ni197  1  0.70261438  0.89950980  0.80637255  1.0
  Ni  Ni198  1  0.32026144  0.25245098  0.71813725  1.0
  Ni  Ni199  1  0.32026144  0.58578431  0.71813725  1.0
  Ni  Ni200  1  0.32026144  0.91911765  0.71813725  1.0
  Ni  Ni201  1  0.65359477  0.25245098  0.71813725  1.0
  Ni  Ni202  1  0.65359477  0.58578431  0.71813725  1.0
  Ni  Ni203  1  0.65359477  0.91911765  0.71813725  1.0
  Ni  Ni204  1  0.98692810  0.25245098  0.71813725  1.0
  Ni  Ni205  1  0.98692810  0.58578431  0.71813725  1.0
  Ni  Ni206  1  0.98692810  0.91911765  0.71813725  1.0
  Ni  Ni207  1  0.11437908  0.13480392  0.74754902  1.0
  Ni  Ni208  1  0.11437908  0.46813725  0.74754902  1.0
  Ni  Ni209  1  0.11437908  0.80147059  0.74754902  1.0
  Ni  Ni210  1  0.44771242  0.13480392  0.74754902  1.0
  Ni  Ni211  1  0.44771242  0.46813725  0.74754902  1.0
  Ni  Ni212  1  0.44771242  0.80147059  0.74754902  1.0
  Ni  Ni213  1  0.78104575  0.13480392  0.74754902  1.0
  Ni  Ni214  1  0.78104575  0.46813725  0.74754902  1.0
  Ni  Ni215  1  0.78104575  0.80147059  0.74754902  1.0
  Ni  Ni216  1  0.06535948  0.15441176  0.65931373  1.0
  Ni  Ni217  1  0.06535948  0.48774510  0.65931373  1.0
  Ni  Ni218  1  0.06535948  0.82107843  0.65931373  1.0
  Ni  Ni219  1  0.39869281  0.15441176  0.65931373  1.0
  Ni  Ni220  1  0.39869281  0.48774510  0.65931373  1.0
  Ni  Ni221  1  0.39869281  0.82107843  0.65931373  1.0
  Ni  Ni222  1  0.73202614  0.15441176  0.65931373  1.0
  Ni  Ni223  1  0.73202614  0.48774510  0.65931373  1.0
  Ni  Ni224  1  0.73202614  0.82107843  0.65931373  1.0
  Ni  Ni225  1  0.19281046  0.03676471  0.68872549  1.0
  Ni  Ni226  1  0.19281046  0.37009804  0.68872549  1.0
  Ni  Ni227  1  0.19281046  0.70343137  0.68872549  1.0
  Ni  Ni228  1  0.52614379  0.03676471  0.68872549  1.0
  Ni  Ni229  1  0.52614379  0.37009804  0.68872549  1.0
  Ni  Ni230  1  0.52614379  0.70343137  0.68872549  1.0
  Ni  Ni231  1  0.85947712  0.03676471  0.68872549  1.0
  Ni  Ni232  1  0.85947712  0.37009804  0.68872549  1.0
  Ni  Ni233  1  0.85947712  0.70343137  0.68872549  1.0
  Ni  Ni234  1  0.14379085  0.05637255  0.60049020  1.0
  Ni  Ni235  1  0.14379085  0.38970588  0.60049020  1.0
  Ni  Ni236  1  0.14379085  0.72303922  0.60049020  1.0
  Ni  Ni237  1  0.47712418  0.05637255  0.60049020  1.0
  Ni  Ni238  1  0.47712418  0.38970588  0.60049020  1.0
  Ni  Ni239  1  0.47712418  0.72303922  0.60049020  1.0
  Ni  Ni240  1  0.81045752  0.05637255  0.60049020  1.0
  Ni  Ni241  1  0.81045752  0.38970588  0.60049020  1.0
  Ni  Ni242  1  0.81045752  0.72303922  0.60049020  1.0
  Ni  Ni243  1  0.27124183  0.27205882  0.62990196  1.0
  Ni  Ni244  1  0.27124183  0.60539216  0.62990196  1.0
  Ni  Ni245  1  0.27124183  0.93872549  0.62990196  1.0
  Ni  Ni246  1  0.60457516  0.27205882  0.62990196  1.0
  Ni  Ni247  1  0.60457516  0.60539216  0.62990196  1.0
  Ni  Ni248  1  0.60457516  0.93872549  0.62990196  1.0
  Ni  Ni249  1  0.93790850  0.27205882  0.62990196  1.0
  Ni  Ni250  1  0.93790850  0.60539216  0.62990196  1.0
  Ni  Ni251  1  0.93790850  0.93872549  0.62990196  1.0
