# generated using pymatgen
data_CuNi3
_symmetry_space_group_name_H-M   'P 1'
_cell_length_a   12.86561262
_cell_length_b   24.81339894
_cell_length_c   42.88537540
_cell_angle_alpha   100.75375355
_cell_angle_beta   131.30243397
_cell_angle_gamma   110.01241975
_symmetry_Int_Tables_number   1
_chemical_formula_structural   CuNi3
_chemical_formula_sum   'Cu72 Ni216'
_cell_volume   7842.40352764
_cell_formula_units_Z   72
loop_
 _symmetry_equiv_pos_site_id
 _symmetry_equiv_pos_as_xyz
  1  'x, y, z'
loop_
 _atom_site_type_symbol
 _atom_site_label
 _atom_site_symmetry_multiplicity
 _atom_site_fract_x
 _atom_site_fract_y
 _atom_site_fract_z
 _atom_site_occupancy
  Cu  Cu0  1  0.00000000  0.16666667  0.04375000  1.0
  Cu  Cu1  1  0.00000000  0.50000000  0.04375000  1.0
  Cu  Cu2  1  0.00000000  0.83333333  0.04375000  1.0
  Cu  Cu3  1  0.33333333  0.16666667  0.04375000  1.0
  Cu  Cu4  1  0.33333333  0.50000000  0.04375000  1.0
  Cu  Cu5  1  0.33333333  0.83333333  0.04375000  1.0
  Cu  Cu6  1  0.66666667  0.16666667  0.04375000  1.0
  Cu  Cu7  1  0.66666667  0.50000000  0.04375000  1.0
  Cu  Cu8  1  0.66666667  0.83333333  0.04375000  1.0
  Cu  Cu9  1  0.00000000  0.00000000  0.09375000  1.0
  Cu  Cu10  1  0.00000000  0.33333333  0.09375000  1.0
  Cu  Cu11  1  0.00000000  0.66666667  0.09375000  1.0
  Cu  Cu12  1  0.33333333  0.00000000  0.09375000  1.0
  Cu  Cu13  1  0.33333333  0.33333333  0.09375000  1.0
  Cu  Cu14  1  0.33333333  0.66666667  0.09375000  1.0
  Cu  Cu15  1  0.66666667  0.00000000  0.09375000  1.0
  Cu  Cu16  1  0.66666667  0.33333333  0.09375000  1.0
  Cu  Cu17  1  0.66666667  0.66666667  0.09375000  1.0
  Ni  Ni18  1  0.16666667  0.12500000  0.05625000  1.0
  Ni  Ni19  1  0.16666667  0.45833333  0.05625000  1.0
  Ni  Ni20  1  0.16666667  0.79166667  0.05625000  1.0
  Ni  Ni21  1  0.50000000  0.12500000  0.05625000  1.0
  Ni  Ni22  1  0.50000000  0.45833333  0.05625000  1.0
  Ni  Ni23  1  0.50000000  0.79166667  0.05625000  1.0
  Ni  Ni24  1  0.83333333  0.12500000  0.05625000  1.0
  Ni  Ni25  1  0.83333333  0.45833333  0.05625000  1.0
  Ni  Ni26  1  0.83333333  0.79166667  0.05625000  1.0
  Ni  Ni27  1  0.16666667  0.29166667  0.00625000  1.0
  Ni  Ni28  1  0.16666667  0.62500000  0.00625000  1.0
  Ni  Ni29  1  0.16666667  0.95833333  0.00625000  1.0
  Ni  Ni30  1  0.50000000  0.29166667  0.00625000  1.0
  Ni  Ni31  1  0.50000000  0.62500000  0.00625000  1.0
  Ni  Ni32  1  0.50000000  0.95833333  0.00625000  1.0
  Ni  Ni33  1  0.83333333  0.29166667  0.00625000  1.0
  Ni  Ni34  1  0.83333333  0.62500000  0.00625000  1.0
  Ni  Ni35  1  0.83333333  0.95833333  0.00625000  1.0
  Ni  Ni36  1  0.16666667  0.04166667  0.08125000  1.0
  Ni  Ni37  1  0.16666667  0.37500000  0.08125000  1.0
  Ni  Ni38  1  0.16666667  0.70833333  0.08125000  1.0
  Ni  Ni39  1  0.50000000  0.04166667  0.08125000  1.0
  Ni  Ni40  1  0.50000000  0.37500000  0.08125000  1.0
  Ni  Ni41  1  0.50000000  0.70833333  0.08125000  1.0
  Ni  Ni42  1  0.83333333  0.04166667  0.08125000  1.0
  Ni  Ni43  1  0.83333333  0.37500000  0.08125000  1.0
  Ni  Ni44  1  0.83333333  0.70833333  0.08125000  1.0
  Ni  Ni45  1  0.16666667  0.20833333  0.03125000  1.0
  Ni  Ni46  1  0.16666667  0.54166667  0.03125000  1.0
  Ni  Ni47  1  0.16666667  0.87500000  0.03125000  1.0
  Ni  Ni48  1  0.50000000  0.20833333  0.03125000  1.0
  Ni  Ni49  1  0.50000000  0.54166667  0.03125000  1.0
  Ni  Ni50  1  0.50000000  0.87500000  0.03125000  1.0
  Ni  Ni51  1  0.83333333  0.20833333  0.03125000  1.0
  Ni  Ni52  1  0.83333333  0.54166667  0.03125000  1.0
  Ni  Ni53  1  0.83333333  0.87500000  0.03125000  1.0
  Ni  Ni54  1  0.00000000  0.08333333  0.06875000  1.0
  Ni  Ni55  1  0.00000000  0.41666667  0.06875000  1.0
  Ni  Ni56  1  0.00000000  0.75000000  0.06875000  1.0
  Ni  Ni57  1  0.33333333  0.08333333  0.06875000  1.0
  Ni  Ni58  1  0.33333333  0.41666667  0.06875000  1.0
  Ni  Ni59  1  0.33333333  0.75000000  0.06875000  1.0
  Ni  Ni60  1  0.66666667  0.08333333  0.06875000  1.0
  Ni  Ni61  1  0.66666667  0.41666667  0.06875000  1.0
  Ni  Ni62  1  0.66666667  0.75000000  0.06875000  1.0
  Ni  Ni63  1  0.00000000  0.25000000  0.01875000  1.0
  Ni  Ni64  1  1.00000000  0.58333333  0.01875000  1.0
  Ni  Ni65  1  0.00000000  0.91666667  0.01875000  1.0
  Ni  Ni66  1  0.33333333  0.25000000  0.01875000  1.0
  Ni  Ni67  1  0.33333333  0.58333333  0.01875000  1.0
  Ni  Ni68  1  0.33333333  0.91666667  0.01875000  1.0
  Ni  Ni69  1  0.66666667  0.25000000  0.01875000  1.0
  Ni  Ni70  1  0.66666667  0.58333333  0.01875000  1.0
  Ni  Ni71  1  0.66666667  0.91666667  0.01875000  1.0
  Cu  Cu72  1  0.00000000  0.16666667  0.14375000  1.0
  Cu  Cu73  1  0.00000000  0.50000000  0.14375000  1.0
  Cu  Cu74  1  0.00000000  0.83333333  0.14375000  1.0
  Cu  Cu75  1  0.33333333  0.16666667  0.14375000  1.0
  Cu  Cu76  1  0.33333333  0.50000000  0.14375000  1.0
  Cu  Cu77  1  0.33333333  0.83333333  0.14375000  1.0
  Cu  Cu78  1  0.66666667  0.16666667  0.14375000  1.0
  Cu  Cu79  1  0.66666667  0.50000000  0.14375000  1.0
  Cu  Cu80  1  0.66666667  0.83333333  0.14375000  1.0
  Cu  Cu81  1  0.00000000  0.00000000  0.19375000  1.0
  Cu  Cu82  1  0.00000000  0.33333333  0.19375000  1.0
  Cu  Cu83  1  0.00000000  0.66666667  0.19375000  1.0
  Cu  Cu84  1  0.33333333  0.00000000  0.19375000  1.0
  Cu  Cu85  1  0.33333333  0.33333333  0.19375000  1.0
  Cu  Cu86  1  0.33333333  0.66666667  0.19375000  1.0
  Cu  Cu87  1  0.66666667  0.00000000  0.19375000  1.0
  Cu  Cu88  1  0.66666667  0.33333333  0.19375000  1.0
  Cu  Cu89  1  0.66666667  0.66666667  0.19375000  1.0
  Ni  Ni90  1  0.16666667  0.12500000  0.15625000  1.0
  Ni  Ni91  1  0.16666667  0.45833333  0.15625000  1.0
  Ni  Ni92  1  0.16666667  0.79166667  0.15625000  1.0
  Ni  Ni93  1  0.50000000  0.12500000  0.15625000  1.0
  Ni  Ni94  1  0.50000000  0.45833333  0.15625000  1.0
  Ni  Ni95  1  0.50000000  0.79166667  0.15625000  1.0
  Ni  Ni96  1  0.83333333  0.12500000  0.15625000  1.0
  Ni  Ni97  1  0.83333333  0.45833333  0.15625000  1.0
  Ni  Ni98  1  0.83333333  0.79166667  0.15625000  1.0
  Ni  Ni99  1  0.16666667  0.29166667  0.10625000  1.0
  Ni  Ni100  1  0.16666667  0.62500000  0.10625000  1.0
  Ni  Ni101  1  0.16666667  0.95833333  0.10625000  1.0
  Ni  Ni102  1  0.50000000  0.29166667  0.10625000  1.0
  Ni  Ni103  1  0.50000000  0.62500000  0.10625000  1.0
  Ni  Ni104  1  0.50000000  0.95833333  0.10625000  1.0
  Ni  Ni105  1  0.83333333  0.29166667  0.10625000  1.0
  Ni  Ni106  1  0.83333333  0.62500000  0.10625000  1.0
  Ni  Ni107  1  0.83333333  0.95833333  0.10625000  1.0
  Ni  Ni108  1  0.16666667  0.04166667  0.18125000  1.0
  Ni  Ni109  1  0.16666667  0.37500000  0.18125000  1.0
  Ni  Ni110  1  0.16666667  0.70833333  0.18125000  1.0
  Ni  Ni111  1  0.50000000  0.04166667  0.18125000  1.0
  Ni  Ni112  1  0.50000000  0.37500000  0.18125000  1.0
  Ni  Ni113  1  0.50000000  0.70833333  0.18125000  1.0
  Ni  Ni114  1  0.83333333  0.04166667  0.18125000  1.0
  Ni  Ni115  1  0.83333333  0.37500000  0.18125000  1.0
  Ni  Ni116  1  0.83333333  0.70833333  0.18125000  1.0
  Ni  Ni117  1  0.16666667  0.20833333  0.13125000  1.0
  Ni  Ni118  1  0.16666667  0.54166667  0.13125000  1.0
  Ni  Ni119  1  0.16666667  0.87500000  0.13125000  1.0
  Ni  Ni120  1  0.50000000  0.20833333  0.13125000  1.0
  Ni  Ni121  1  0.50000000  0.54166667  0.13125000  1.0
  Ni  Ni122  1  0.50000000  0.87500000  0.13125000  1.0
  Ni  Ni123  1  0.83333333  0.20833333  0.13125000  1.0
  Ni  Ni124  1  0.83333333  0.54166667  0.13125000  1.0
  Ni  Ni125  1  0.83333333  0.87500000  0.13125000  1.0
  Ni  Ni126  1  0.00000000  0.08333333  0.16875000  1.0
  Ni  Ni127  1  0.00000000  0.41666667  0.16875000  1.0
  Ni  Ni128  1  0.00000000  0.75000000  0.16875000  1.0
  Ni  Ni129  1  0.33333333  0.08333333  0.16875000  1.0
  Ni  Ni130  1  0.33333333  0.41666667  0.16875000  1.0
  Ni  Ni131  1  0.33333333  0.75000000  0.16875000  1.0
  Ni  Ni132  1  0.66666667  0.08333333  0.16875000  1.0
  Ni  Ni133  1  0.66666667  0.41666667  0.16875000  1.0
  Ni  Ni134  1  0.66666667  0.75000000  0.16875000  1.0
  Ni  Ni135  1  0.00000000  0.25000000  0.11875000  1.0
  Ni  Ni136  1  1.00000000  0.58333333  0.11875000  1.0
  Ni  Ni137  1  0.00000000  0.91666667  0.11875000  1.0
  Ni  Ni138  1  0.33333333  0.25000000  0.11875000  1.0
  Ni  Ni139  1  0.33333333  0.58333333  0.11875000  1.0
  Ni  Ni140  1  0.33333333  0.91666667  0.11875000  1.0
  Ni  Ni141  1  0.66666667  0.25000000  0.11875000  1.0
  Ni  Ni142  1  0.66666667  0.58333333  0.11875000  1.0
  Ni  Ni143  1  0.66666667  0.91666667  0.11875000  1.0
  Cu  Cu144  1  0.00000000  0.16666667  0.24375000  1.0
  Cu  Cu145  1  0.00000000  0.50000000  0.24375000  1.0
  Cu  Cu146  1  0.00000000  0.83333333  0.24375000  1.0
  Cu  Cu147  1  0.33333333  0.16666667  0.24375000  1.0
  Cu  Cu148  1  0.33333333  0.50000000  0.24375000  1.0
  Cu  Cu149  1  0.33333333  0.83333333  0.24375000  1.0
  Cu  Cu150  1  0.66666667  0.16666667  0.24375000  1.0
  Cu  Cu151  1  0.66666667  0.50000000  0.24375000  1.0
  Cu  Cu152  1  0.66666667  0.83333333  0.24375000  1.0
  Cu  Cu153  1  0.00000000  0.00000000  0.29375000  1.0
  Cu  Cu154  1  0.00000000  0.33333333  0.29375000  1.0
  Cu  Cu155  1  0.00000000  0.66666667  0.29375000  1.0
  Cu  Cu156  1  0.33333333  0.00000000  0.29375000  1.0
  Cu  Cu157  1  0.33333333  0.33333333  0.29375000  1.0
  Cu  Cu158  1  0.33333333  0.66666667  0.29375000  1.0
  Cu  Cu159  1  0.66666667  0.00000000  0.29375000  1.0
  Cu  Cu160  1  0.66666667  0.33333333  0.29375000  1.0
  Cu  Cu161  1  0.66666667  0.66666667  0.29375000  1.0
  Ni  Ni162  1  0.16666667  0.12500000  0.25625000  1.0
  Ni  Ni163  1  0.16666667  0.45833333  0.25625000  1.0
  Ni  Ni164  1  0.16666667  0.79166667  0.25625000  1.0
  Ni  Ni165  1  0.50000000  0.12500000  0.25625000  1.0
  Ni  Ni166  1  0.50000000  0.45833333  0.25625000  1.0
  Ni  Ni167  1  0.50000000  0.79166667  0.25625000  1.0
  Ni  Ni168  1  0.83333333  0.12500000  0.25625000  1.0
  Ni  Ni169  1  0.83333333  0.45833333  0.25625000  1.0
  Ni  Ni170  1  0.83333333  0.79166667  0.25625000  1.0
  Ni  Ni171  1  0.16666667  0.29166667  0.20625000  1.0
  Ni  Ni172  1  0.16666667  0.62500000  0.20625000  1.0
  Ni  Ni173  1  0.16666667  0.95833333  0.20625000  1.0
  Ni  Ni174  1  0.50000000  0.29166667  0.20625000  1.0
  Ni  Ni175  1  0.50000000  0.62500000  0.20625000  1.0
  Ni  Ni176  1  0.50000000  0.95833333  0.20625000  1.0
  Ni  Ni177  1  0.83333333  0.29166667  0.20625000  1.0
  Ni  Ni178  1  0.83333333  0.62500000  0.20625000  1.0
  Ni  Ni179  1  0.83333333  0.95833333  0.20625000  1.0
  Ni  Ni180  1  0.16666667  0.04166667  0.28125000  1.0
  Ni  Ni181  1  0.16666667  0.37500000  0.28125000  1.0
  Ni  Ni182  1  0.16666667  0.70833333  0.28125000  1.0
  Ni  Ni183  1  0.50000000  0.04166667  0.28125000  1.0
  Ni  Ni184  1  0.50000000  0.37500000  0.28125000  1.0
  Ni  Ni185  1  0.50000000  0.70833333  0.28125000  1.0
  Ni  Ni186  1  0.83333333  0.04166667  0.28125000  1.0
  Ni  Ni187  1  0.83333333  0.37500000  0.28125000  1.0
  Ni  Ni188  1  0.83333333  0.70833333  0.28125000  1.0
  Ni  Ni189  1  0.16666667  0.20833333  0.23125000  1.0
  Ni  Ni190  1  0.16666667  0.54166667  0.23125000  1.0
  Ni  Ni191  1  0.16666667  0.87500000  0.23125000  1.0
  Ni  Ni192  1  0.50000000  0.20833333  0.23125000  1.0
  Ni  Ni193  1  0.50000000  0.54166667  0.23125000  1.0
  Ni  Ni194  1  0.50000000  0.87500000  0.23125000  1.0
  Ni  Ni195  1  0.83333333  0.20833333  0.23125000  1.0
  Ni  Ni196  1  0.83333333  0.54166667  0.23125000  1.0
  Ni  Ni197  1  0.83333333  0.87500000  0.23125000  1.0
  Ni  Ni198  1  0.00000000  0.08333333  0.26875000  1.0
  Ni  Ni199  1  0.00000000  0.41666667  0.26875000  1.0
  Ni  Ni200  1  0.00000000  0.75000000  0.26875000  1.0
  Ni  Ni201  1  0.33333333  0.08333333  0.26875000  1.0
  Ni  Ni202  1  0.33333333  0.41666667  0.26875000  1.0
  Ni  Ni203  1  0.33333333  0.75000000  0.26875000  1.0
  Ni  Ni204  1  0.66666667  0.08333333  0.26875000  1.0
  Ni  Ni205  1  0.66666667  0.41666667  0.26875000  1.0
  Ni  Ni206  1  0.66666667  0.75000000  0.26875000  1.0
  Ni  Ni207  1  0.00000000  0.25000000  0.21875000  1.0
  Ni  Ni208  1  1.00000000  0.58333333  0.21875000  1.0
  Ni  Ni209  1  0.00000000  0.91666667  0.21875000  1.0
  Ni  Ni210  1  0.33333333  0.25000000  0.21875000  1.0
  Ni  Ni211  1  0.33333333  0.58333333  0.21875000  1.0
  Ni  Ni212  1  0.33333333  0.91666667  0.21875000  1.0
  Ni  Ni213  1  0.66666667  0.25000000  0.21875000  1.0
  Ni  Ni214  1  0.66666667  0.58333333  0.21875000  1.0
  Ni  Ni215  1  0.66666667  0.91666667  0.21875000  1.0
  Cu  Cu216  1  0.00000000  0.16666667  0.34375000  1.0
  Cu  Cu217  1  0.00000000  0.50000000  0.34375000  1.0
  Cu  Cu218  1  0.00000000  0.83333333  0.34375000  1.0
  Cu  Cu219  1  0.33333333  0.16666667  0.34375000  1.0
  Cu  Cu220  1  0.33333333  0.50000000  0.34375000  1.0
  Cu  Cu221  1  0.33333333  0.83333333  0.34375000  1.0
  Cu  Cu222  1  0.66666667  0.16666667  0.34375000  1.0
  Cu  Cu223  1  0.66666667  0.50000000  0.34375000  1.0
  Cu  Cu224  1  0.66666667  0.83333333  0.34375000  1.0
  Cu  Cu225  1  0.00000000  0.00000000  0.39375000  1.0
  Cu  Cu226  1  0.00000000  0.33333333  0.39375000  1.0
  Cu  Cu227  1  0.00000000  0.66666667  0.39375000  1.0
  Cu  Cu228  1  0.33333333  0.00000000  0.39375000  1.0
  Cu  Cu229  1  0.33333333  0.33333333  0.39375000  1.0
  Cu  Cu230  1  0.33333333  0.66666667  0.39375000  1.0
  Cu  Cu231  1  0.66666667  0.00000000  0.39375000  1.0
  Cu  Cu232  1  0.66666667  0.33333333  0.39375000  1.0
  Cu  Cu233  1  0.66666667  0.66666667  0.39375000  1.0
  Ni  Ni234  1  0.16666667  0.12500000  0.35625000  1.0
  Ni  Ni235  1  0.16666667  0.45833333  0.35625000  1.0
  Ni  Ni236  1  0.16666667  0.79166667  0.35625000  1.0
  Ni  Ni237  1  0.50000000  0.12500000  0.35625000  1.0
  Ni  Ni238  1  0.50000000  0.45833333  0.35625000  1.0
  Ni  Ni239  1  0.50000000  0.79166667  0.35625000  1.0
  Ni  Ni240  1  0.83333333  0.12500000  0.35625000  1.0
  Ni  Ni241  1  0.83333333  0.45833333  0.35625000  1.0
  Ni  Ni242  1  0.83333333  0.79166667  0.35625000  1.0
  Ni  Ni243  1  0.16666667  0.29166667  0.30625000  1.0
  Ni  Ni244  1  0.16666667  0.62500000  0.30625000  1.0
  Ni  Ni245  1  0.16666667  0.95833333  0.30625000  1.0
  Ni  Ni246  1  0.50000000  0.29166667  0.30625000  1.0
  Ni  Ni247  1  0.50000000  0.62500000  0.30625000  1.0
  Ni  Ni248  1  0.50000000  0.95833333  0.30625000  1.0
  Ni  Ni249  1  0.83333333  0.29166667  0.30625000  1.0
  Ni  Ni250  1  0.83333333  0.62500000  0.30625000  1.0
  Ni  Ni251  1  0.83333333  0.95833333  0.30625000  1.0
  Ni  Ni252  1  0.16666667  0.04166667  0.38125000  1.0
  Ni  Ni253  1  0.16666667  0.37500000  0.38125000  1.0
  Ni  Ni254  1  0.16666667  0.70833333  0.38125000  1.0
  Ni  Ni255  1  0.50000000  0.04166667  0.38125000  1.0
  Ni  Ni256  1  0.50000000  0.37500000  0.38125000  1.0
  Ni  Ni257  1  0.50000000  0.70833333  0.38125000  1.0
  Ni  Ni258  1  0.83333333  0.04166667  0.38125000  1.0
  Ni  Ni259  1  0.83333333  0.37500000  0.38125000  1.0
  Ni  Ni260  1  0.83333333  0.70833333  0.38125000  1.0
  Ni  Ni261  1  0.16666667  0.20833333  0.33125000  1.0
  Ni  Ni262  1  0.16666667  0.54166667  0.33125000  1.0
  Ni  Ni263  1  0.16666667  0.87500000  0.33125000  1.0
  Ni  Ni264  1  0.50000000  0.20833333  0.33125000  1.0
  Ni  Ni265  1  0.50000000  0.54166667  0.33125000  1.0
  Ni  Ni266  1  0.50000000  0.87500000  0.33125000  1.0
  Ni  Ni267  1  0.83333333  0.20833333  0.33125000  1.0
  Ni  Ni268  1  0.83333333  0.54166667  0.33125000  1.0
  Ni  Ni269  1  0.83333333  0.87500000  0.33125000  1.0
  Ni  Ni270  1  0.00000000  0.08333333  0.36875000  1.0
  Ni  Ni271  1  0.00000000  0.41666667  0.36875000  1.0
  Ni  Ni272  1  0.00000000  0.75000000  0.36875000  1.0
  Ni  Ni273  1  0.33333333  0.08333333  0.36875000  1.0
  Ni  Ni274  1  0.33333333  0.41666667  0.36875000  1.0
  Ni  Ni275  1  0.33333333  0.75000000  0.36875000  1.0
  Ni  Ni276  1  0.66666667  0.08333333  0.36875000  1.0
  Ni  Ni277  1  0.66666667  0.41666667  0.36875000  1.0
  Ni  Ni278  1  0.66666667  0.75000000  0.36875000  1.0
  Ni  Ni279  1  0.00000000  0.25000000  0.31875000  1.0
  Ni  Ni280  1  1.00000000  0.58333333  0.31875000  1.0
  Ni  Ni281  1  0.00000000  0.91666667  0.31875000  1.0
  Ni  Ni282  1  0.33333333  0.25000000  0.31875000  1.0
  Ni  Ni283  1  0.33333333  0.58333333  0.31875000  1.0
  Ni  Ni284  1  0.33333333  0.91666667  0.31875000  1.0
  Ni  Ni285  1  0.66666667  0.25000000  0.31875000  1.0
  Ni  Ni286  1  0.66666667  0.58333333  0.31875000  1.0
  Ni  Ni287  1  0.66666667  0.91666667  0.31875000  1.0
