# generated using pymatgen
data_CuNi
_symmetry_space_group_name_H-M   'P 1'
_cell_length_a   12.99003655
_cell_length_b   25.96910096
_cell_length_c   54.99854140
_cell_angle_alpha   106.78595398
_cell_angle_beta   150.00000000
_cell_angle_gamma   75.51623727
_symmetry_Int_Tables_number   1
_chemical_formula_structural   CuNi
_chemical_formula_sum   'Cu162 Ni162'
_cell_volume   8881.31959177
_cell_formula_units_Z   162
loop_
 _symmetry_equiv_pos_site_id
 _symmetry_equiv_pos_as_xyz
  1  'x, y, z'
loop_
 _atom_site_type_symbol
 _atom_site_label
 _atom_site_symmetry_multiplicity
 _atom_site_fract_x
 _atom_site_fract_y
 _atom_site_fract_z
 _atom_site_occupancy
  Cu  Cu0  1  0.00000000  0.08333333  0.00568182  1.0
  Cu  Cu1  1  0.00000000  0.41666667  0.00568182  1.0
  Cu  Cu2  1  0.00000000  0.75000000  0.00568182  1.0
  Cu  Cu3  1  0.33333333  0.08333333  0.00568182  1.0
  Cu  Cu4  1  0.33333333  0.41666667  0.00568182  1.0
  Cu  Cu5  1  0.33333333  0.75000000  0.00568182  1.0
  Cu  Cu6  1  0.66666667  0.08333333  0.00568182  1.0
  Cu  Cu7  1  0.66666667  0.41666667  0.00568182  1.0
  Cu  Cu8  1  0.66666667  0.75000000  0.00568182  1.0
  Cu  Cu9  1  0.00000000  0.25000000  0.02840909  1.0
  Cu  Cu10  1  0.00000000  0.58333333  0.02840909  1.0
  Cu  Cu11  1  0.00000000  0.91666667  0.02840909  1.0
  Cu  Cu12  1  0.33333333  0.25000000  0.02840909  1.0
  Cu  Cu13  1  0.33333333  0.58333333  0.02840909  1.0
  Cu  Cu14  1  0.33333333  0.91666667  0.02840909  1.0
  Cu  Cu15  1  0.66666667  0.25000000  0.02840909  1.0
  Cu  Cu16  1  0.66666667  0.58333333  0.02840909  1.0
  Cu  Cu17  1  0.66666667  0.91666667  0.02840909  1.0
  Ni  Ni18  1  0.11111111  0.00000000  0.03977273  1.0
  Ni  Ni19  1  0.11111111  0.33333333  0.03977273  1.0
  Ni  Ni20  1  0.11111111  0.66666667  0.03977273  1.0
  Ni  Ni21  1  0.44444444  0.00000000  0.03977273  1.0
  Ni  Ni22  1  0.44444444  0.33333333  0.03977273  1.0
  Ni  Ni23  1  0.44444444  0.66666667  0.03977273  1.0
  Ni  Ni24  1  0.77777778  0.00000000  0.03977273  1.0
  Ni  Ni25  1  0.77777778  0.33333333  0.03977273  1.0
  Ni  Ni26  1  0.77777778  0.66666667  0.03977273  1.0
  Ni  Ni27  1  0.11111111  0.16666667  0.01704545  1.0
  Ni  Ni28  1  0.11111111  0.50000000  0.01704545  1.0
  Ni  Ni29  1  0.11111111  0.83333333  0.01704545  1.0
  Ni  Ni30  1  0.44444444  0.16666667  0.01704545  1.0
  Ni  Ni31  1  0.44444444  0.50000000  0.01704545  1.0
  Ni  Ni32  1  0.44444444  0.83333333  0.01704545  1.0
  Ni  Ni33  1  0.77777778  0.16666667  0.01704545  1.0
  Ni  Ni34  1  0.77777778  0.50000000  0.01704545  1.0
  Ni  Ni35  1  0.77777778  0.83333333  0.01704545  1.0
  Cu  Cu36  1  0.00000000  0.08333333  0.05113636  1.0
  Cu  Cu37  1  0.00000000  0.41666667  0.05113636  1.0
  Cu  Cu38  1  0.00000000  0.75000000  0.05113636  1.0
  Cu  Cu39  1  0.33333333  0.08333333  0.05113636  1.0
  Cu  Cu40  1  0.33333333  0.41666667  0.05113636  1.0
  Cu  Cu41  1  0.33333333  0.75000000  0.05113636  1.0
  Cu  Cu42  1  0.66666667  0.08333333  0.05113636  1.0
  Cu  Cu43  1  0.66666667  0.41666667  0.05113636  1.0
  Cu  Cu44  1  0.66666667  0.75000000  0.05113636  1.0
  Cu  Cu45  1  0.00000000  0.25000000  0.07386364  1.0
  Cu  Cu46  1  0.00000000  0.58333333  0.07386364  1.0
  Cu  Cu47  1  0.00000000  0.91666667  0.07386364  1.0
  Cu  Cu48  1  0.33333333  0.25000000  0.07386364  1.0
  Cu  Cu49  1  0.33333333  0.58333333  0.07386364  1.0
  Cu  Cu50  1  0.33333333  0.91666667  0.07386364  1.0
  Cu  Cu51  1  0.66666667  0.25000000  0.07386364  1.0
  Cu  Cu52  1  0.66666667  0.58333333  0.07386364  1.0
  Cu  Cu53  1  0.66666667  0.91666667  0.07386364  1.0
  Ni  Ni54  1  0.11111111  0.00000000  0.08522727  1.0
  Ni  Ni55  1  0.11111111  0.33333333  0.08522727  1.0
  Ni  Ni56  1  0.11111111  0.66666667  0.08522727  1.0
  Ni  Ni57  1  0.44444444  0.00000000  0.08522727  1.0
  Ni  Ni58  1  0.44444444  0.33333333  0.08522727  1.0
  Ni  Ni59  1  0.44444444  0.66666667  0.08522727  1.0
  Ni  Ni60  1  0.77777778  0.00000000  0.08522727  1.0
  Ni  Ni61  1  0.77777778  0.33333333  0.08522727  1.0
  Ni  Ni62  1  0.77777778  0.66666667  0.08522727  1.0
  Ni  Ni63  1  0.11111111  0.16666667  0.06250000  1.0
  Ni  Ni64  1  0.11111111  0.50000000  0.06250000  1.0
  Ni  Ni65  1  0.11111111  0.83333333  0.06250000  1.0
  Ni  Ni66  1  0.44444444  0.16666667  0.06250000  1.0
  Ni  Ni67  1  0.44444444  0.50000000  0.06250000  1.0
  Ni  Ni68  1  0.44444444  0.83333333  0.06250000  1.0
  Ni  Ni69  1  0.77777778  0.16666667  0.06250000  1.0
  Ni  Ni70  1  0.77777778  0.50000000  0.06250000  1.0
  Ni  Ni71  1  0.77777778  0.83333333  0.06250000  1.0
  Cu  Cu72  1  0.00000000  0.08333333  0.09659091  1.0
  Cu  Cu73  1  0.00000000  0.41666667  0.09659091  1.0
  Cu  Cu74  1  0.00000000  0.75000000  0.09659091  1.0
  Cu  Cu75  1  0.33333333  0.08333333  0.09659091  1.0
  Cu  Cu76  1  0.33333333  0.41666667  0.09659091  1.0
  Cu  Cu77  1  0.33333333  0.75000000  0.09659091  1.0
  Cu  Cu78  1  0.66666667  0.08333333  0.09659091  1.0
  Cu  Cu79  1  0.66666667  0.41666667  0.09659091  1.0
  Cu  Cu80  1  0.66666667  0.75000000  0.09659091  1.0
  Cu  Cu81  1  0.00000000  0.25000000  0.11931818  1.0
  Cu  Cu82  1  0.00000000  0.58333333  0.11931818  1.0
  Cu  Cu83  1  0.00000000  0.91666667  0.11931818  1.0
  Cu  Cu84  1  0.33333333  0.25000000  0.11931818  1.0
  Cu  Cu85  1  0.33333333  0.58333333  0.11931818  1.0
  Cu  Cu86  1  0.33333333  0.91666667  0.11931818  1.0
  Cu  Cu87  1  0.66666667  0.25000000  0.11931818  1.0
  Cu  Cu88  1  0.66666667  0.58333333  0.11931818  1.0
  Cu  Cu89  1  0.66666667  0.91666667  0.11931818  1.0
  Ni  Ni90  1  0.11111111  0.00000000  0.13068182  1.0
  Ni  Ni91  1  0.11111111  0.33333333  0.13068182  1.0
  Ni  Ni92  1  0.11111111  0.66666667  0.13068182  1.0
  Ni  Ni93  1  0.44444444  0.00000000  0.13068182  1.0
  Ni  Ni94  1  0.44444444  0.33333333  0.13068182  1.0
  Ni  Ni95  1  0.44444444  0.66666667  0.13068182  1.0
  Ni  Ni96  1  0.77777778  0.00000000  0.13068182  1.0
  Ni  Ni97  1  0.77777778  0.33333333  0.13068182  1.0
  Ni  Ni98  1  0.77777778  0.66666667  0.13068182  1.0
  Ni  Ni99  1  0.11111111  0.16666667  0.10795455  1.0
  Ni  Ni100  1  0.11111111  0.50000000  0.10795455  1.0
  Ni  Ni101  1  0.11111111  0.83333333  0.10795455  1.0
  Ni  Ni102  1  0.44444444  0.16666667  0.10795455  1.0
  Ni  Ni103  1  0.44444444  0.50000000  0.10795455  1.0
  Ni  Ni104  1  0.44444444  0.83333333  0.10795455  1.0
  Ni  Ni105  1  0.77777778  0.16666667  0.10795455  1.0
  Ni  Ni106  1  0.77777778  0.50000000  0.10795455  1.0
  Ni  Ni107  1  0.77777778  0.83333333  0.10795455  1.0
  Cu  Cu108  1  0.00000000  0.08333333  0.14204545  1.0
  Cu  Cu109  1  0.00000000  0.41666667  0.14204545  1.0
  Cu  Cu110  1  0.00000000  0.75000000  0.14204545  1.0
  Cu  Cu111  1  0.33333333  0.08333333  0.14204545  1.0
  Cu  Cu112  1  0.33333333  0.41666667  0.14204545  1.0
  Cu  Cu113  1  0.33333333  0.75000000  0.14204545  1.0
  Cu  Cu114  1  0.66666667  0.08333333  0.14204545  1.0
  Cu  Cu115  1  0.66666667  0.41666667  0.14204545  1.0
  Cu  Cu116  1  0.66666667  0.75000000  0.14204545  1.0
  Cu  Cu117  1  0.00000000  0.25000000  0.16477273  1.0
  Cu  Cu118  1  0.00000000  0.58333333  0.16477273  1.0
  Cu  Cu119  1  0.00000000  0.91666667  0.16477273  1.0
  Cu  Cu120  1  0.33333333  0.25000000  0.16477273  1.0
  Cu  Cu121  1  0.33333333  0.58333333  0.16477273  1.0
  Cu  Cu122  1  0.33333333  0.91666667  0.16477273  1.0
  Cu  Cu123  1  0.66666667  0.25000000  0.16477273  1.0
  Cu  Cu124  1  0.66666667  0.58333333  0.16477273  1.0
  Cu  Cu125  1  0.66666667  0.91666667  0.16477273  1.0
  Ni  Ni126  1  0.11111111  0.00000000  0.17613636  1.0
  Ni  Ni127  1  0.11111111  0.33333333  0.17613636  1.0
  Ni  Ni128  1  0.11111111  0.66666667  0.17613636  1.0
  Ni  Ni129  1  0.44444444  0.00000000  0.17613636  1.0
  Ni  Ni130  1  0.44444444  0.33333333  0.17613636  1.0
  Ni  Ni131  1  0.44444444  0.66666667  0.17613636  1.0
  Ni  Ni132  1  0.77777778  0.00000000  0.17613636  1.0
  Ni  Ni133  1  0.77777778  0.33333333  0.17613636  1.0
  Ni  Ni134  1  0.77777778  0.66666667  0.17613636  1.0
  Ni  Ni135  1  0.11111111  0.16666667  0.15340909  1.0
  Ni  Ni136  1  0.11111111  0.50000000  0.15340909  1.0
  Ni  Ni137  1  0.11111111  0.83333333  0.15340909  1.0
  Ni  Ni138  1  0.44444444  0.16666667  0.15340909  1.0
  Ni  Ni139  1  0.44444444  0.50000000  0.15340909  1.0
  Ni  Ni140  1  0.44444444  0.83333333  0.15340909  1.0
  Ni  Ni141  1  0.77777778  0.16666667  0.15340909  1.0
  Ni  Ni142  1  0.77777778  0.50000000  0.15340909  1.0
  Ni  Ni143  1  0.77777778  0.83333333  0.15340909  1.0
  Cu  Cu144  1  0.00000000  0.08333333  0.18750000  1.0
  Cu  Cu145  1  0.00000000  0.41666667  0.18750000  1.0
  Cu  Cu146  1  0.00000000  0.75000000  0.18750000  1.0
  Cu  Cu147  1  0.33333333  0.08333333  0.18750000  1.0
  Cu  Cu148  1  0.33333333  0.41666667  0.18750000  1.0
  Cu  Cu149  1  0.33333333  0.75000000  0.18750000  1.0
  Cu  Cu150  1  0.66666667  0.08333333  0.18750000  1.0
  Cu  Cu151  1  0.66666667  0.41666667  0.18750000  1.0
  Cu  Cu152  1  0.66666667  0.75000000  0.18750000  1.0
  Cu  Cu153  1  0.00000000  0.25000000  0.21022727  1.0
  Cu  Cu154  1  0.00000000  0.58333333  0.21022727  1.0
  Cu  Cu155  1  0.00000000  0.91666667  0.21022727  1.0
  Cu  Cu156  1  0.33333333  0.25000000  0.21022727  1.0
  Cu  Cu157  1  0.33333333  0.58333333  0.21022727  1.0
  Cu  Cu158  1  0.33333333  0.91666667  0.21022727  1.0
  Cu  Cu159  1  0.66666667  0.25000000  0.21022727  1.0
  Cu  Cu160  1  0.66666667  0.58333333  0.21022727  1.0
  Cu  Cu161  1  0.66666667  0.91666667  0.21022727  1.0
  Ni  Ni162  1  0.11111111  0.00000000  0.22159091  1.0
  Ni  Ni163  1  0.11111111  0.33333333  0.22159091  1.0
  Ni  Ni164  1  0.11111111  0.66666667  0.22159091  1.0
  Ni  Ni165  1  0.44444444  0.00000000  0.22159091  1.0
  Ni  Ni166  1  0.44444444  0.33333333  0.22159091  1.0
  Ni  Ni167  1  0.44444444  0.66666667  0.22159091  1.0
  Ni  Ni168  1  0.77777778  0.00000000  0.22159091  1.0
  Ni  Ni169  1  0.77777778  0.33333333  0.22159091  1.0
  Ni  Ni170  1  0.77777778  0.66666667  0.22159091  1.0
  Ni  Ni171  1  0.11111111  0.16666667  0.19886364  1.0
  Ni  Ni172  1  0.11111111  0.50000000  0.19886364  1.0
  Ni  Ni173  1  0.11111111  0.83333333  0.19886364  1.0
  Ni  Ni174  1  0.44444444  0.16666667  0.19886364  1.0
  Ni  Ni175  1  0.44444444  0.50000000  0.19886364  1.0
  Ni  Ni176  1  0.44444444  0.83333333  0.19886364  1.0
  Ni  Ni177  1  0.77777778  0.16666667  0.19886364  1.0
  Ni  Ni178  1  0.77777778  0.50000000  0.19886364  1.0
  Ni  Ni179  1  0.77777778  0.83333333  0.19886364  1.0
  Cu  Cu180  1  0.00000000  0.08333333  0.23295455  1.0
  Cu  Cu181  1  0.00000000  0.41666667  0.23295455  1.0
  Cu  Cu182  1  0.00000000  0.75000000  0.23295455  1.0
  Cu  Cu183  1  0.33333333  0.08333333  0.23295455  1.0
  Cu  Cu184  1  0.33333333  0.41666667  0.23295455  1.0
  Cu  Cu185  1  0.33333333  0.75000000  0.23295455  1.0
  Cu  Cu186  1  0.66666667  0.08333333  0.23295455  1.0
  Cu  Cu187  1  0.66666667  0.41666667  0.23295455  1.0
  Cu  Cu188  1  0.66666667  0.75000000  0.23295455  1.0
  Cu  Cu189  1  0.00000000  0.25000000  0.25568182  1.0
  Cu  Cu190  1  0.00000000  0.58333333  0.25568182  1.0
  Cu  Cu191  1  0.00000000  0.91666667  0.25568182  1.0
  Cu  Cu192  1  0.33333333  0.25000000  0.25568182  1.0
  Cu  Cu193  1  0.33333333  0.58333333  0.25568182  1.0
  Cu  Cu194  1  0.33333333  0.91666667  0.25568182  1.0
  Cu  Cu195  1  0.66666667  0.25000000  0.25568182  1.0
  Cu  Cu196  1  0.66666667  0.58333333  0.25568182  1.0
  Cu  Cu197  1  0.66666667  0.91666667  0.25568182  1.0
  Ni  Ni198  1  0.11111111  0.00000000  0.26704545  1.0
  Ni  Ni199  1  0.11111111  0.33333333  0.26704545  1.0
  Ni  Ni200  1  0.11111111  0.66666667  0.26704545  1.0
  Ni  Ni201  1  0.44444444  0.00000000  0.26704545  1.0
  Ni  Ni202  1  0.44444444  0.33333333  0.26704545  1.0
  Ni  Ni203  1  0.44444444  0.66666667  0.26704545  1.0
  Ni  Ni204  1  0.77777778  0.00000000  0.26704545  1.0
  Ni  Ni205  1  0.77777778  0.33333333  0.26704545  1.0
  Ni  Ni206  1  0.77777778  0.66666667  0.26704545  1.0
  Ni  Ni207  1  0.11111111  0.16666667  0.24431818  1.0
  Ni  Ni208  1  0.11111111  0.50000000  0.24431818  1.0
  Ni  Ni209  1  0.11111111  0.83333333  0.24431818  1.0
  Ni  Ni210  1  0.44444444  0.16666667  0.24431818  1.0
  Ni  Ni211  1  0.44444444  0.50000000  0.24431818  1.0
  Ni  Ni212  1  0.44444444  0.83333333  0.24431818  1.0
  Ni  Ni213  1  0.77777778  0.16666667  0.24431818  1.0
  Ni  Ni214  1  0.77777778  0.50000000  0.24431818  1.0
  Ni  Ni215  1  0.77777778  0.83333333  0.24431818  1.0
  Cu  Cu216  1  0.00000000  0.08333333  0.27840909  1.0
  Cu  Cu217  1  0.00000000  0.41666667  0.27840909  1.0
  Cu  Cu218  1  0.00000000  0.75000000  0.27840909  1.0
  Cu  Cu219  1  0.33333333  0.08333333  0.27840909  1.0
  Cu  Cu220  1  0.33333333  0.41666667  0.27840909  1.0
  Cu  Cu221  1  0.33333333  0.75000000  0.27840909  1.0
  Cu  Cu222  1  0.66666667  0.08333333  0.27840909  1.0
  Cu  Cu223  1  0.66666667  0.41666667  0.27840909  1.0
  Cu  Cu224  1  0.66666667  0.75000000  0.27840909  1.0
  Cu  Cu225  1  0.00000000  0.25000000  0.30113636  1.0
  Cu  Cu226  1  0.00000000  0.58333333  0.30113636  1.0
  Cu  Cu227  1  0.00000000  0.91666667  0.30113636  1.0
  Cu  Cu228  1  0.33333333  0.25000000  0.30113636  1.0
  Cu  Cu229  1  0.33333333  0.58333333  0.30113636  1.0
  Cu  Cu230  1  0.33333333  0.91666667  0.30113636  1.0
  Cu  Cu231  1  0.66666667  0.25000000  0.30113636  1.0
  Cu  Cu232  1  0.66666667  0.58333333  0.30113636  1.0
  Cu  Cu233  1  0.66666667  0.91666667  0.30113636  1.0
  Ni  Ni234  1  0.11111111  0.00000000  0.31250000  1.0
  Ni  Ni235  1  0.11111111  0.33333333  0.31250000  1.0
  Ni  Ni236  1  0.11111111  0.66666667  0.31250000  1.0
  Ni  Ni237  1  0.44444444  0.00000000  0.31250000  1.0
  Ni  Ni238  1  0.44444444  0.33333333  0.31250000  1.0
  Ni  Ni239  1  0.44444444  0.66666667  0.31250000  1.0
  Ni  Ni240  1  0.77777778  0.00000000  0.31250000  1.0
  Ni  Ni241  1  0.77777778  0.33333333  0.31250000  1.0
  Ni  Ni242  1  0.77777778  0.66666667  0.31250000  1.0
  Ni  Ni243  1  0.11111111  0.16666667  0.28977273  1.0
  Ni  Ni244  1  0.11111111  0.50000000  0.28977273  1.0
  Ni  Ni245  1  0.11111111  0.83333333  0.28977273  1.0
  Ni  Ni246  1  0.44444444  0.16666667  0.28977273  1.0
  Ni  Ni247  1  0.44444444  0.50000000  0.28977273  1.0
  Ni  Ni248  1  0.44444444  0.83333333  0.28977273  1.0
  Ni  Ni249  1  0.77777778  0.16666667  0.28977273  1.0
  Ni  Ni250  1  0.77777778  0.50000000  0.28977273  1.0
  Ni  Ni251  1  0.77777778  0.83333333  0.28977273  1.0
  Cu  Cu252  1  0.00000000  0.08333333  0.32386364  1.0
  Cu  Cu253  1  0.00000000  0.41666667  0.32386364  1.0
  Cu  Cu254  1  0.00000000  0.75000000  0.32386364  1.0
  Cu  Cu255  1  0.33333333  0.08333333  0.32386364  1.0
  Cu  Cu256  1  0.33333333  0.41666667  0.32386364  1.0
  Cu  Cu257  1  0.33333333  0.75000000  0.32386364  1.0
  Cu  Cu258  1  0.66666667  0.08333333  0.32386364  1.0
  Cu  Cu259  1  0.66666667  0.41666667  0.32386364  1.0
  Cu  Cu260  1  0.66666667  0.75000000  0.32386364  1.0
  Cu  Cu261  1  0.00000000  0.25000000  0.34659091  1.0
  Cu  Cu262  1  0.00000000  0.58333333  0.34659091  1.0
  Cu  Cu263  1  0.00000000  0.91666667  0.34659091  1.0
  Cu  Cu264  1  0.33333333  0.25000000  0.34659091  1.0
  Cu  Cu265  1  0.33333333  0.58333333  0.34659091  1.0
  Cu  Cu266  1  0.33333333  0.91666667  0.34659091  1.0
  Cu  Cu267  1  0.66666667  0.25000000  0.34659091  1.0
  Cu  Cu268  1  0.66666667  0.58333333  0.34659091  1.0
  Cu  Cu269  1  0.66666667  0.91666667  0.34659091  1.0
  Ni  Ni270  1  0.11111111  0.00000000  0.35795455  1.0
  Ni  Ni271  1  0.11111111  0.33333333  0.35795455  1.0
  Ni  Ni272  1  0.11111111  0.66666667  0.35795455  1.0
  Ni  Ni273  1  0.44444444  0.00000000  0.35795455  1.0
  Ni  Ni274  1  0.44444444  0.33333333  0.35795455  1.0
  Ni  Ni275  1  0.44444444  0.66666667  0.35795455  1.0
  Ni  Ni276  1  0.77777778  0.00000000  0.35795455  1.0
  Ni  Ni277  1  0.77777778  0.33333333  0.35795455  1.0
  Ni  Ni278  1  0.77777778  0.66666667  0.35795455  1.0
  Ni  Ni279  1  0.11111111  0.16666667  0.33522727  1.0
  Ni  Ni280  1  0.11111111  0.50000000  0.33522727  1.0
  Ni  Ni281  1  0.11111111  0.83333333  0.33522727  1.0
  Ni  Ni282  1  0.44444444  0.16666667  0.33522727  1.0
  Ni  Ni283  1  0.44444444  0.50000000  0.33522727  1.0
  Ni  Ni284  1  0.44444444  0.83333333  0.33522727  1.0
  Ni  Ni285  1  0.77777778  0.16666667  0.33522727  1.0
  Ni  Ni286  1  0.77777778  0.50000000  0.33522727  1.0
  Ni  Ni287  1  0.77777778  0.83333333  0.33522727  1.0
  Cu  Cu288  1  0.00000000  0.08333333  0.36931818  1.0
  Cu  Cu289  1  0.00000000  0.41666667  0.36931818  1.0
  Cu  Cu290  1  0.00000000  0.75000000  0.36931818  1.0
  Cu  Cu291  1  0.33333333  0.08333333  0.36931818  1.0
  Cu  Cu292  1  0.33333333  0.41666667  0.36931818  1.0
  Cu  Cu293  1  0.33333333  0.75000000  0.36931818  1.0
  Cu  Cu294  1  0.66666667  0.08333333  0.36931818  1.0
  Cu  Cu295  1  0.66666667  0.41666667  0.36931818  1.0
  Cu  Cu296  1  0.66666667  0.75000000  0.36931818  1.0
  Cu  Cu297  1  0.00000000  0.25000000  0.39204545  1.0
  Cu  Cu298  1  0.00000000  0.58333333  0.39204545  1.0
  Cu  Cu299  1  0.00000000  0.91666667  0.39204545  1.0
  Cu  Cu300  1  0.33333333  0.25000000  0.39204545  1.0
  Cu  Cu301  1  0.33333333  0.58333333  0.39204545  1.0
  Cu  Cu302  1  0.33333333  0.91666667  0.39204545  1.0
  Cu  Cu303  1  0.66666667  0.25000000  0.39204545  1.0
  Cu  Cu304  1  0.66666667  0.58333333  0.39204545  1.0
  Cu  Cu305  1  0.66666667  0.91666667  0.39204545  1.0
  Ni  Ni306  1  0.11111111  0.00000000  0.40340909  1.0
  Ni  Ni307  1  0.11111111  0.33333333  0.40340909  1.0
  Ni  Ni308  1  0.11111111  0.66666667  0.40340909  1.0
  Ni  Ni309  1  0.44444444  0.00000000  0.40340909  1.0
  Ni  Ni310  1  0.44444444  0.33333333  0.40340909  1.0
  Ni  Ni311  1  0.44444444  0.66666667  0.40340909  1.0
  Ni  Ni312  1  0.77777778  0.00000000  0.40340909  1.0
  Ni  Ni313  1  0.77777778  0.33333333  0.40340909  1.0
  Ni  Ni314  1  0.77777778  0.66666667  0.40340909  1.0
  Ni  Ni315  1  0.11111111  0.16666667  0.38068182  1.0
  Ni  Ni316  1  0.11111111  0.50000000  0.38068182  1.0
  Ni  Ni317  1  0.11111111  0.83333333  0.38068182  1.0
  Ni  Ni318  1  0.44444444  0.16666667  0.38068182  1.0
  Ni  Ni319  1  0.44444444  0.50000000  0.38068182  1.0
  Ni  Ni320  1  0.44444444  0.83333333  0.38068182  1.0
  Ni  Ni321  1  0.77777778  0.16666667  0.38068182  1.0
  Ni  Ni322  1  0.77777778  0.50000000  0.38068182  1.0
  Ni  Ni323  1  0.77777778  0.83333333  0.38068182  1.0
