# generated using pymatgen
data_CuNi
_symmetry_space_group_name_H-M   'P 1'
_cell_length_a   12.43128300
_cell_length_b   12.99003655
_cell_length_c   54.99854140
_cell_angle_alpha   150.00000000
_cell_angle_beta   90.00000000
_cell_angle_gamma   90.00000000
_symmetry_Int_Tables_number   1
_chemical_formula_structural   CuNi
_chemical_formula_sum   'Cu81 Ni81'
_cell_volume   4440.65979588
_cell_formula_units_Z   81
loop_
 _symmetry_equiv_pos_site_id
 _symmetry_equiv_pos_as_xyz
  1  'x, y, z'
loop_
 _atom_site_type_symbol
 _atom_site_label
 _atom_site_symmetry_multiplicity
 _atom_site_fract_x
 _atom_site_fract_y
 _atom_site_fract_z
 _atom_site_occupancy
  Cu  Cu0  1  0.16666667  0.00000000  0.02272727  1.0
  Cu  Cu1  1  0.16666667  0.33333333  0.02272727  1.0
  Cu  Cu2  1  0.16666667  0.66666667  0.02272727  1.0
  Cu  Cu3  1  0.50000000  0.00000000  0.02272727  1.0
  Cu  Cu4  1  0.50000000  0.33333333  0.02272727  1.0
  Cu  Cu5  1  0.50000000  0.66666667  0.02272727  1.0
  Cu  Cu6  1  0.83333333  0.00000000  0.02272727  1.0
  Cu  Cu7  1  0.83333333  0.33333333  0.02272727  1.0
  Cu  Cu8  1  0.83333333  0.66666667  0.02272727  1.0
  Ni  Ni9  1  0.00000000  0.22222222  0.02272727  1.0
  Ni  Ni10  1  0.00000000  0.55555556  0.02272727  1.0
  Ni  Ni11  1  0.00000000  0.88888889  0.02272727  1.0
  Ni  Ni12  1  0.33333333  0.22222222  0.02272727  1.0
  Ni  Ni13  1  0.33333333  0.55555556  0.02272727  1.0
  Ni  Ni14  1  0.33333333  0.88888889  0.02272727  1.0
  Ni  Ni15  1  0.66666667  0.22222222  0.02272727  1.0
  Ni  Ni16  1  0.66666667  0.55555556  0.02272727  1.0
  Ni  Ni17  1  0.66666667  0.88888889  0.02272727  1.0
  Cu  Cu18  1  0.16666667  0.00000000  0.06818182  1.0
  Cu  Cu19  1  0.16666667  0.33333333  0.06818182  1.0
  Cu  Cu20  1  0.16666667  0.66666667  0.06818182  1.0
  Cu  Cu21  1  0.50000000  0.00000000  0.06818182  1.0
  Cu  Cu22  1  0.50000000  0.33333333  0.06818182  1.0
  Cu  Cu23  1  0.50000000  0.66666667  0.06818182  1.0
  Cu  Cu24  1  0.83333333  0.00000000  0.06818182  1.0
  Cu  Cu25  1  0.83333333  0.33333333  0.06818182  1.0
  Cu  Cu26  1  0.83333333  0.66666667  0.06818182  1.0
  Ni  Ni27  1  0.00000000  0.22222222  0.06818182  1.0
  Ni  Ni28  1  0.00000000  0.55555556  0.06818182  1.0
  Ni  Ni29  1  0.00000000  0.88888889  0.06818182  1.0
  Ni  Ni30  1  0.33333333  0.22222222  0.06818182  1.0
  Ni  Ni31  1  0.33333333  0.55555556  0.06818182  1.0
  Ni  Ni32  1  0.33333333  0.88888889  0.06818182  1.0
  Ni  Ni33  1  0.66666667  0.22222222  0.06818182  1.0
  Ni  Ni34  1  0.66666667  0.55555556  0.06818182  1.0
  Ni  Ni35  1  0.66666667  0.88888889  0.06818182  1.0
  Cu  Cu36  1  0.16666667  0.00000000  0.11363636  1.0
  Cu  Cu37  1  0.16666667  0.33333333  0.11363636  1.0
  Cu  Cu38  1  0.16666667  0.66666667  0.11363636  1.0
  Cu  Cu39  1  0.50000000  0.00000000  0.11363636  1.0
  Cu  Cu40  1  0.50000000  0.33333333  0.11363636  1.0
  Cu  Cu41  1  0.50000000  0.66666667  0.11363636  1.0
  Cu  Cu42  1  0.83333333  0.00000000  0.11363636  1.0
  Cu  Cu43  1  0.83333333  0.33333333  0.11363636  1.0
  Cu  Cu44  1  0.83333333  0.66666667  0.11363636  1.0
  Ni  Ni45  1  0.00000000  0.22222222  0.11363636  1.0
  Ni  Ni46  1  0.00000000  0.55555556  0.11363636  1.0
  Ni  Ni47  1  0.00000000  0.88888889  0.11363636  1.0
  Ni  Ni48  1  0.33333333  0.22222222  0.11363636  1.0
  Ni  Ni49  1  0.33333333  0.55555556  0.11363636  1.0
  Ni  Ni50  1  0.33333333  0.88888889  0.11363636  1.0
  Ni  Ni51  1  0.66666667  0.22222222  0.11363636  1.0
  Ni  Ni52  1  0.66666667  0.55555556  0.11363636  1.0
  Ni  Ni53  1  0.66666667  0.88888889  0.11363636  1.0
  Cu  Cu54  1  0.16666667  0.00000000  0.15909091  1.0
  Cu  Cu55  1  0.16666667  0.33333333  0.15909091  1.0
  Cu  Cu56  1  0.16666667  0.66666667  0.15909091  1.0
  Cu  Cu57  1  0.50000000  0.00000000  0.15909091  1.0
  Cu  Cu58  1  0.50000000  0.33333333  0.15909091  1.0
  Cu  Cu59  1  0.50000000  0.66666667  0.15909091  1.0
  Cu  Cu60  1  0.83333333  0.00000000  0.15909091  1.0
  Cu  Cu61  1  0.83333333  0.33333333  0.15909091  1.0
  Cu  Cu62  1  0.83333333  0.66666667  0.15909091  1.0
  Ni  Ni63  1  0.00000000  0.22222222  0.15909091  1.0
  Ni  Ni64  1  0.00000000  0.55555556  0.15909091  1.0
  Ni  Ni65  1  0.00000000  0.88888889  0.15909091  1.0
  Ni  Ni66  1  0.33333333  0.22222222  0.15909091  1.0
  Ni  Ni67  1  0.33333333  0.55555556  0.15909091  1.0
  Ni  Ni68  1  0.33333333  0.88888889  0.15909091  1.0
  Ni  Ni69  1  0.66666667  0.22222222  0.15909091  1.0
  Ni  Ni70  1  0.66666667  0.55555556  0.15909091  1.0
  Ni  Ni71  1  0.66666667  0.88888889  0.15909091  1.0
  Cu  Cu72  1  0.16666667  0.00000000  0.20454545  1.0
  Cu  Cu73  1  0.16666667  0.33333333  0.20454545  1.0
  Cu  Cu74  1  0.16666667  0.66666667  0.20454545  1.0
  Cu  Cu75  1  0.50000000  0.00000000  0.20454545  1.0
  Cu  Cu76  1  0.50000000  0.33333333  0.20454545  1.0
  Cu  Cu77  1  0.50000000  0.66666667  0.20454545  1.0
  Cu  Cu78  1  0.83333333  0.00000000  0.20454545  1.0
  Cu  Cu79  1  0.83333333  0.33333333  0.20454545  1.0
  Cu  Cu80  1  0.83333333  0.66666667  0.20454545  1.0
  Ni  Ni81  1  0.00000000  0.22222222  0.20454545  1.0
  Ni  Ni82  1  0.00000000  0.55555556  0.20454545  1.0
  Ni  Ni83  1  0.00000000  0.88888889  0.20454545  1.0
  Ni  Ni84  1  0.33333333  0.22222222  0.20454545  1.0
  Ni  Ni85  1  0.33333333  0.55555556  0.20454545  1.0
  Ni  Ni86  1  0.33333333  0.88888889  0.20454545  1.0
  Ni  Ni87  1  0.66666667  0.22222222  0.20454545  1.0
  Ni  Ni88  1  0.66666667  0.55555556  0.20454545  1.0
  Ni  Ni89  1  0.66666667  0.88888889  0.20454545  1.0
  Cu  Cu90  1  0.16666667  0.00000000  0.25000000  1.0
  Cu  Cu91  1  0.16666667  0.33333333  0.25000000  1.0
  Cu  Cu92  1  0.16666667  0.66666667  0.25000000  1.0
  Cu  Cu93  1  0.50000000  0.00000000  0.25000000  1.0
  Cu  Cu94  1  0.50000000  0.33333333  0.25000000  1.0
  Cu  Cu95  1  0.50000000  0.66666667  0.25000000  1.0
  Cu  Cu96  1  0.83333333  0.00000000  0.25000000  1.0
  Cu  Cu97  1  0.83333333  0.33333333  0.25000000  1.0
  Cu  Cu98  1  0.83333333  0.66666667  0.25000000  1.0
  Ni  Ni99  1  0.00000000  0.22222222  0.25000000  1.0
  Ni  Ni100  1  0.00000000  0.55555556  0.25000000  1.0
  Ni  Ni101  1  0.00000000  0.88888889  0.25000000  1.0
  Ni  Ni102  1  0.33333333  0.22222222  0.25000000  1.0
  Ni  Ni103  1  0.33333333  0.55555556  0.25000000  1.0
  Ni  Ni104  1  0.33333333  0.88888889  0.25000000  1.0
  Ni  Ni105  1  0.66666667  0.22222222  0.25000000  1.0
  Ni  Ni106  1  0.66666667  0.55555556  0.25000000  1.0
  Ni  Ni107  1  0.66666667  0.88888889  0.25000000  1.0
  Cu  Cu108  1  0.16666667  0.00000000  0.29545455  1.0
  Cu  Cu109  1  0.16666667  0.33333333  0.29545455  1.0
  Cu  Cu110  1  0.16666667  0.66666667  0.29545455  1.0
  Cu  Cu111  1  0.50000000  0.00000000  0.29545455  1.0
  Cu  Cu112  1  0.50000000  0.33333333  0.29545455  1.0
  Cu  Cu113  1  0.50000000  0.66666667  0.29545455  1.0
  Cu  Cu114  1  0.83333333  0.00000000  0.29545455  1.0
  Cu  Cu115  1  0.83333333  0.33333333  0.29545455  1.0
  Cu  Cu116  1  0.83333333  0.66666667  0.29545455  1.0
  Ni  Ni117  1  0.00000000  0.22222222  0.29545455  1.0
  Ni  Ni118  1  0.00000000  0.55555556  0.29545455  1.0
  Ni  Ni119  1  0.00000000  0.88888889  0.29545455  1.0
  Ni  Ni120  1  0.33333333  0.22222222  0.29545455  1.0
  Ni  Ni121  1  0.33333333  0.55555556  0.29545455  1.0
  Ni  Ni122  1  0.33333333  0.88888889  0.29545455  1.0
  Ni  Ni123  1  0.66666667  0.22222222  0.29545455  1.0
  Ni  Ni124  1  0.66666667  0.55555556  0.29545455  1.0
  Ni  Ni125  1  0.66666667  0.88888889  0.29545455  1.0
  Cu  Cu126  1  0.16666667  0.00000000  0.34090909  1.0
  Cu  Cu127  1  0.16666667  0.33333333  0.34090909  1.0
  Cu  Cu128  1  0.16666667  0.66666667  0.34090909  1.0
  Cu  Cu129  1  0.50000000  0.00000000  0.34090909  1.0
  Cu  Cu130  1  0.50000000  0.33333333  0.34090909  1.0
  Cu  Cu131  1  0.50000000  0.66666667  0.34090909  1.0
  Cu  Cu132  1  0.83333333  0.00000000  0.34090909  1.0
  Cu  Cu133  1  0.83333333  0.33333333  0.34090909  1.0
  Cu  Cu134  1  0.83333333  0.66666667  0.34090909  1.0
  Ni  Ni135  1  0.00000000  0.22222222  0.34090909  1.0
  Ni  Ni136  1  0.00000000  0.55555556  0.34090909  1.0
  Ni  Ni137  1  0.00000000  0.88888889  0.34090909  1.0
  Ni  Ni138  1  0.33333333  0.22222222  0.34090909  1.0
  Ni  Ni139  1  0.33333333  0.55555556  0.34090909  1.0
  Ni  Ni140  1  0.33333333  0.88888889  0.34090909  1.0
  Ni  Ni141  1  0.66666667  0.22222222  0.34090909  1.0
  Ni  Ni142  1  0.66666667  0.55555556  0.34090909  1.0
  Ni  Ni143  1  0.66666667  0.88888889  0.34090909  1.0
  Cu  Cu144  1  0.16666667  0.00000000  0.38636364  1.0
  Cu  Cu145  1  0.16666667  0.33333333  0.38636364  1.0
  Cu  Cu146  1  0.16666667  0.66666667  0.38636364  1.0
  Cu  Cu147  1  0.50000000  0.00000000  0.38636364  1.0
  Cu  Cu148  1  0.50000000  0.33333333  0.38636364  1.0
  Cu  Cu149  1  0.50000000  0.66666667  0.38636364  1.0
  Cu  Cu150  1  0.83333333  0.00000000  0.38636364  1.0
  Cu  Cu151  1  0.83333333  0.33333333  0.38636364  1.0
  Cu  Cu152  1  0.83333333  0.66666667  0.38636364  1.0
  Ni  Ni153  1  0.00000000  0.22222222  0.38636364  1.0
  Ni  Ni154  1  0.00000000  0.55555556  0.38636364  1.0
  Ni  Ni155  1  0.00000000  0.88888889  0.38636364  1.0
  Ni  Ni156  1  0.33333333  0.22222222  0.38636364  1.0
  Ni  Ni157  1  0.33333333  0.55555556  0.38636364  1.0
  Ni  Ni158  1  0.33333333  0.88888889  0.38636364  1.0
  Ni  Ni159  1  0.66666667  0.22222222  0.38636364  1.0
  Ni  Ni160  1  0.66666667  0.55555556  0.38636364  1.0
  Ni  Ni161  1  0.66666667  0.88888889  0.38636364  1.0
