# generated using pymatgen
data_CuNi3
_symmetry_space_group_name_H-M   'P 1'
_cell_length_a   13.90017872
_cell_length_b   24.89418247
_cell_length_c   28.72316024
_cell_angle_alpha   98.15616242
_cell_angle_beta   90.52717364
_cell_angle_gamma   104.74946078
_symmetry_Int_Tables_number   1
_chemical_formula_structural   CuNi3
_chemical_formula_sum   'Cu90 Ni270'
_cell_volume   9503.77549203
_cell_formula_units_Z   90
loop_
 _symmetry_equiv_pos_site_id
 _symmetry_equiv_pos_as_xyz
  1  'x, y, z'
loop_
 _atom_site_type_symbol
 _atom_site_label
 _atom_site_symmetry_multiplicity
 _atom_site_fract_x
 _atom_site_fract_y
 _atom_site_fract_z
 _atom_site_occupancy
  Cu  Cu0  1  0.15448135  0.00000000  0.03655596  1.0
  Cu  Cu1  1  0.15448135  0.33333333  0.03655596  1.0
  Cu  Cu2  1  0.15448135  0.66666667  0.03655596  1.0
  Cu  Cu3  1  0.48781468  0.00000000  0.03655596  1.0
  Cu  Cu4  1  0.48781468  0.33333333  0.03655596  1.0
  Cu  Cu5  1  0.48781468  0.66666667  0.03655596  1.0
  Cu  Cu6  1  0.82114801  0.00000000  0.03655596  1.0
  Cu  Cu7  1  0.82114801  0.33333333  0.03655596  1.0
  Cu  Cu8  1  0.82114801  0.66666667  0.03655596  1.0
  Cu  Cu9  1  0.30725913  0.00000000  0.07822263  1.0
  Cu  Cu10  1  0.30725913  0.33333333  0.07822262  1.0
  Cu  Cu11  1  0.30725913  0.66666667  0.07822262  1.0
  Cu  Cu12  1  0.64059246  0.00000000  0.07822262  1.0
  Cu  Cu13  1  0.64059246  0.33333333  0.07822262  1.0
  Cu  Cu14  1  0.64059246  0.66666667  0.07822262  1.0
  Cu  Cu15  1  0.97392579  0.00000000  0.07822262  1.0
  Cu  Cu16  1  0.97392579  0.33333333  0.07822262  1.0
  Cu  Cu17  1  0.97392579  0.66666667  0.07822262  1.0
  Cu  Cu18  1  0.12670357  0.00000000  0.11988929  1.0
  Cu  Cu19  1  0.12670357  0.33333333  0.11988929  1.0
  Cu  Cu20  1  0.12670357  0.66666667  0.11988929  1.0
  Cu  Cu21  1  0.46003690  0.00000000  0.11988929  1.0
  Cu  Cu22  1  0.46003690  0.33333333  0.11988929  1.0
  Cu  Cu23  1  0.46003690  0.66666667  0.11988929  1.0
  Cu  Cu24  1  0.79337024  0.00000000  0.11988929  1.0
  Cu  Cu25  1  0.79337024  0.33333333  0.11988929  1.0
  Cu  Cu26  1  0.79337024  0.66666667  0.11988929  1.0
  Cu  Cu27  1  0.27948135  0.00000000  0.16155596  1.0
  Cu  Cu28  1  0.27948135  0.33333333  0.16155596  1.0
  Cu  Cu29  1  0.27948135  0.66666667  0.16155596  1.0
  Cu  Cu30  1  0.61281468  0.00000000  0.16155596  1.0
  Cu  Cu31  1  0.61281468  0.33333333  0.16155596  1.0
  Cu  Cu32  1  0.61281468  0.66666667  0.16155596  1.0
  Cu  Cu33  1  0.94614801  0.00000000  0.16155596  1.0
  Cu  Cu34  1  0.94614801  0.33333333  0.16155596  1.0
  Cu  Cu35  1  0.94614801  0.66666667  0.16155596  1.0
  Cu  Cu36  1  0.09892579  0.00000000  0.20322263  1.0
  Cu  Cu37  1  0.09892579  0.33333333  0.20322263  1.0
  Cu  Cu38  1  0.09892579  0.66666667  0.20322263  1.0
  Cu  Cu39  1  0.43225913  0.00000000  0.20322262  1.0
  Cu  Cu40  1  0.43225912  0.33333333  0.20322263  1.0
  Cu  Cu41  1  0.43225912  0.66666667  0.20322262  1.0
  Cu  Cu42  1  0.76559246  0.00000000  0.20322263  1.0
  Cu  Cu43  1  0.76559246  0.33333333  0.20322263  1.0
  Cu  Cu44  1  0.76559246  0.66666667  0.20322262  1.0
  Cu  Cu45  1  0.25170357  0.00000000  0.24488929  1.0
  Cu  Cu46  1  0.25170357  0.33333333  0.24488929  1.0
  Cu  Cu47  1  0.25170357  0.66666667  0.24488929  1.0
  Cu  Cu48  1  0.58503690  0.00000000  0.24488929  1.0
  Cu  Cu49  1  0.58503690  0.33333333  0.24488929  1.0
  Cu  Cu50  1  0.58503690  0.66666667  0.24488929  1.0
  Cu  Cu51  1  0.91837024  0.00000000  0.24488929  1.0
  Cu  Cu52  1  0.91837024  0.33333333  0.24488929  1.0
  Cu  Cu53  1  0.91837024  0.66666667  0.24488929  1.0
  Cu  Cu54  1  0.07114801  0.00000000  0.28655596  1.0
  Cu  Cu55  1  0.07114801  0.33333333  0.28655596  1.0
  Cu  Cu56  1  0.07114801  0.66666667  0.28655596  1.0
  Cu  Cu57  1  0.40448135  0.00000000  0.28655596  1.0
  Cu  Cu58  1  0.40448135  0.33333333  0.28655596  1.0
  Cu  Cu59  1  0.40448135  0.66666667  0.28655596  1.0
  Cu  Cu60  1  0.73781468  0.00000000  0.28655596  1.0
  Cu  Cu61  1  0.73781468  0.33333333  0.28655596  1.0
  Cu  Cu62  1  0.73781468  0.66666667  0.28655596  1.0
  Cu  Cu63  1  0.22392579  0.00000000  0.32822262  1.0
  Cu  Cu64  1  0.22392579  0.33333333  0.32822262  1.0
  Cu  Cu65  1  0.22392579  0.66666667  0.32822262  1.0
  Cu  Cu66  1  0.55725913  0.00000000  0.32822262  1.0
  Cu  Cu67  1  0.55725912  0.33333333  0.32822262  1.0
  Cu  Cu68  1  0.55725913  0.66666667  0.32822262  1.0
  Cu  Cu69  1  0.89059246  0.00000000  0.32822262  1.0
  Cu  Cu70  1  0.89059246  0.33333333  0.32822262  1.0
  Cu  Cu71  1  0.89059246  0.66666667  0.32822262  1.0
  Cu  Cu72  1  0.04337024  0.00000000  0.36988929  1.0
  Cu  Cu73  1  0.04337024  0.33333333  0.36988929  1.0
  Cu  Cu74  1  0.04337024  0.66666667  0.36988929  1.0
  Cu  Cu75  1  0.37670357  0.00000000  0.36988929  1.0
  Cu  Cu76  1  0.37670357  0.33333333  0.36988929  1.0
  Cu  Cu77  1  0.37670357  0.66666667  0.36988929  1.0
  Cu  Cu78  1  0.71003690  0.00000000  0.36988929  1.0
  Cu  Cu79  1  0.71003690  0.33333333  0.36988929  1.0
  Cu  Cu80  1  0.71003690  0.66666667  0.36988929  1.0
  Cu  Cu81  1  0.19614801  0.00000000  0.41155596  1.0
  Cu  Cu82  1  0.19614801  0.33333333  0.41155596  1.0
  Cu  Cu83  1  0.19614801  0.66666667  0.41155596  1.0
  Cu  Cu84  1  0.52948135  0.00000000  0.41155596  1.0
  Cu  Cu85  1  0.52948135  0.33333333  0.41155596  1.0
  Cu  Cu86  1  0.52948135  0.66666667  0.41155596  1.0
  Cu  Cu87  1  0.86281468  0.00000000  0.41155596  1.0
  Cu  Cu88  1  0.86281468  0.33333333  0.41155596  1.0
  Cu  Cu89  1  0.86281468  0.66666667  0.41155596  1.0
  Ni  Ni90  1  0.10311393  0.08489533  0.06800121  1.0
  Ni  Ni91  1  0.10311393  0.41822867  0.06800121  1.0
  Ni  Ni92  1  0.10311393  0.75156200  0.06800121  1.0
  Ni  Ni93  1  0.43644726  0.08489533  0.06800121  1.0
  Ni  Ni94  1  0.43644726  0.41822867  0.06800121  1.0
  Ni  Ni95  1  0.43644726  0.75156200  0.06800121  1.0
  Ni  Ni96  1  0.76978060  0.08489533  0.06800121  1.0
  Ni  Ni97  1  0.76978060  0.41822867  0.06800121  1.0
  Ni  Ni98  1  0.76978060  0.75156200  0.06800121  1.0
  Ni  Ni99  1  0.28366949  0.08489533  0.02633454  1.0
  Ni  Ni100  1  0.28366949  0.41822867  0.02633454  1.0
  Ni  Ni101  1  0.28366949  0.75156200  0.02633454  1.0
  Ni  Ni102  1  0.61700282  0.08489533  0.02633454  1.0
  Ni  Ni103  1  0.61700282  0.41822867  0.02633454  1.0
  Ni  Ni104  1  0.61700282  0.75156200  0.02633454  1.0
  Ni  Ni105  1  0.95033615  0.08489533  0.02633454  1.0
  Ni  Ni106  1  0.95033615  0.41822867  0.02633454  1.0
  Ni  Ni107  1  0.95033615  0.75156200  0.02633454  1.0
  Ni  Ni108  1  0.07809246  0.16666667  0.01572262  1.0
  Ni  Ni109  1  0.07809246  0.50000000  0.01572262  1.0
  Ni  Ni110  1  0.07809246  0.83333333  0.01572262  1.0
  Ni  Ni111  1  0.41142579  0.16666667  0.01572263  1.0
  Ni  Ni112  1  0.41142579  0.50000000  0.01572262  1.0
  Ni  Ni113  1  0.41142579  0.83333333  0.01572262  1.0
  Ni  Ni114  1  0.74475913  0.16666667  0.01572262  1.0
  Ni  Ni115  1  0.74475913  0.50000000  0.01572262  1.0
  Ni  Ni116  1  0.74475912  0.83333333  0.01572262  1.0
  Ni  Ni117  1  0.23087024  0.16666667  0.05738929  1.0
  Ni  Ni118  1  0.23087024  0.50000000  0.05738929  1.0
  Ni  Ni119  1  0.23087024  0.83333333  0.05738929  1.0
  Ni  Ni120  1  0.56420357  0.16666667  0.05738929  1.0
  Ni  Ni121  1  0.56420357  0.50000000  0.05738929  1.0
  Ni  Ni122  1  0.56420357  0.83333333  0.05738929  1.0
  Ni  Ni123  1  0.89753690  0.16666667  0.05738929  1.0
  Ni  Ni124  1  0.89753690  0.50000000  0.05738929  1.0
  Ni  Ni125  1  0.89753690  0.83333333  0.05738929  1.0
  Ni  Ni126  1  0.20584876  0.24843800  0.00511071  1.0
  Ni  Ni127  1  0.20584876  0.58177133  0.00511071  1.0
  Ni  Ni128  1  0.20584876  0.91510467  0.00511071  1.0
  Ni  Ni129  1  0.53918210  0.24843800  0.00511071  1.0
  Ni  Ni130  1  0.53918210  0.58177133  0.00511071  1.0
  Ni  Ni131  1  0.53918210  0.91510467  0.00511071  1.0
  Ni  Ni132  1  0.87251543  0.24843800  0.00511071  1.0
  Ni  Ni133  1  0.87251543  0.58177133  0.00511071  1.0
  Ni  Ni134  1  0.87251543  0.91510467  0.00511071  1.0
  Ni  Ni135  1  0.02529321  0.24843800  0.04677738  1.0
  Ni  Ni136  1  0.02529321  0.58177133  0.04677738  1.0
  Ni  Ni137  1  0.02529321  0.91510467  0.04677738  1.0
  Ni  Ni138  1  0.35862654  0.24843800  0.04677738  1.0
  Ni  Ni139  1  0.35862654  0.58177133  0.04677738  1.0
  Ni  Ni140  1  0.35862654  0.91510467  0.04677738  1.0
  Ni  Ni141  1  0.69195988  0.24843800  0.04677738  1.0
  Ni  Ni142  1  0.69195988  0.58177133  0.04677738  1.0
  Ni  Ni143  1  0.69195988  0.91510467  0.04677738  1.0
  Ni  Ni144  1  0.07533615  0.08489533  0.15133454  1.0
  Ni  Ni145  1  0.07533615  0.41822867  0.15133454  1.0
  Ni  Ni146  1  0.07533615  0.75156200  0.15133454  1.0
  Ni  Ni147  1  0.40866949  0.08489533  0.15133454  1.0
  Ni  Ni148  1  0.40866949  0.41822867  0.15133454  1.0
  Ni  Ni149  1  0.40866949  0.75156200  0.15133454  1.0
  Ni  Ni150  1  0.74200282  0.08489533  0.15133454  1.0
  Ni  Ni151  1  0.74200282  0.41822867  0.15133454  1.0
  Ni  Ni152  1  0.74200282  0.75156200  0.15133454  1.0
  Ni  Ni153  1  0.25589171  0.08489533  0.10966787  1.0
  Ni  Ni154  1  0.25589171  0.41822867  0.10966787  1.0
  Ni  Ni155  1  0.25589171  0.75156200  0.10966787  1.0
  Ni  Ni156  1  0.58922504  0.08489533  0.10966787  1.0
  Ni  Ni157  1  0.58922504  0.41822867  0.10966787  1.0
  Ni  Ni158  1  0.58922504  0.75156200  0.10966787  1.0
  Ni  Ni159  1  0.92255838  0.08489533  0.10966787  1.0
  Ni  Ni160  1  0.92255838  0.41822867  0.10966787  1.0
  Ni  Ni161  1  0.92255838  0.75156200  0.10966787  1.0
  Ni  Ni162  1  0.05031468  0.16666667  0.09905596  1.0
  Ni  Ni163  1  0.05031468  0.50000000  0.09905596  1.0
  Ni  Ni164  1  0.05031468  0.83333333  0.09905596  1.0
  Ni  Ni165  1  0.38364801  0.16666667  0.09905596  1.0
  Ni  Ni166  1  0.38364801  0.50000000  0.09905596  1.0
  Ni  Ni167  1  0.38364801  0.83333333  0.09905596  1.0
  Ni  Ni168  1  0.71698135  0.16666667  0.09905596  1.0
  Ni  Ni169  1  0.71698135  0.50000000  0.09905596  1.0
  Ni  Ni170  1  0.71698135  0.83333333  0.09905596  1.0
  Ni  Ni171  1  0.20309246  0.16666667  0.14072262  1.0
  Ni  Ni172  1  0.20309246  0.50000000  0.14072262  1.0
  Ni  Ni173  1  0.20309246  0.83333333  0.14072262  1.0
  Ni  Ni174  1  0.53642579  0.16666667  0.14072262  1.0
  Ni  Ni175  1  0.53642579  0.50000000  0.14072262  1.0
  Ni  Ni176  1  0.53642579  0.83333333  0.14072262  1.0
  Ni  Ni177  1  0.86975913  0.16666667  0.14072262  1.0
  Ni  Ni178  1  0.86975913  0.50000000  0.14072262  1.0
  Ni  Ni179  1  0.86975913  0.83333333  0.14072262  1.0
  Ni  Ni180  1  0.17807099  0.24843800  0.08844404  1.0
  Ni  Ni181  1  0.17807099  0.58177133  0.08844404  1.0
  Ni  Ni182  1  0.17807099  0.91510467  0.08844404  1.0
  Ni  Ni183  1  0.51140432  0.24843800  0.08844404  1.0
  Ni  Ni184  1  0.51140432  0.58177133  0.08844404  1.0
  Ni  Ni185  1  0.51140432  0.91510467  0.08844404  1.0
  Ni  Ni186  1  0.84473765  0.24843800  0.08844404  1.0
  Ni  Ni187  1  0.84473765  0.58177133  0.08844404  1.0
  Ni  Ni188  1  0.84473765  0.91510467  0.08844404  1.0
  Ni  Ni189  1  0.33084876  0.24843800  0.13011071  1.0
  Ni  Ni190  1  0.33084876  0.58177133  0.13011071  1.0
  Ni  Ni191  1  0.33084876  0.91510467  0.13011071  1.0
  Ni  Ni192  1  0.66418210  0.24843800  0.13011071  1.0
  Ni  Ni193  1  0.66418210  0.58177133  0.13011071  1.0
  Ni  Ni194  1  0.66418210  0.91510467  0.13011071  1.0
  Ni  Ni195  1  0.99751543  0.24843800  0.13011071  1.0
  Ni  Ni196  1  0.99751543  0.58177133  0.13011071  1.0
  Ni  Ni197  1  0.99751543  0.91510467  0.13011071  1.0
  Ni  Ni198  1  0.04755837  0.08489533  0.23466787  1.0
  Ni  Ni199  1  0.04755837  0.41822867  0.23466787  1.0
  Ni  Ni200  1  0.04755837  0.75156200  0.23466787  1.0
  Ni  Ni201  1  0.38089171  0.08489533  0.23466787  1.0
  Ni  Ni202  1  0.38089171  0.41822867  0.23466787  1.0
  Ni  Ni203  1  0.38089171  0.75156200  0.23466787  1.0
  Ni  Ni204  1  0.71422504  0.08489533  0.23466787  1.0
  Ni  Ni205  1  0.71422504  0.41822867  0.23466787  1.0
  Ni  Ni206  1  0.71422504  0.75156200  0.23466787  1.0
  Ni  Ni207  1  0.22811393  0.08489533  0.19300121  1.0
  Ni  Ni208  1  0.22811393  0.41822867  0.19300121  1.0
  Ni  Ni209  1  0.22811393  0.75156200  0.19300121  1.0
  Ni  Ni210  1  0.56144726  0.08489533  0.19300121  1.0
  Ni  Ni211  1  0.56144726  0.41822867  0.19300121  1.0
  Ni  Ni212  1  0.56144726  0.75156200  0.19300121  1.0
  Ni  Ni213  1  0.89478060  0.08489533  0.19300121  1.0
  Ni  Ni214  1  0.89478060  0.41822867  0.19300121  1.0
  Ni  Ni215  1  0.89478060  0.75156200  0.19300121  1.0
  Ni  Ni216  1  0.02253690  0.16666667  0.18238929  1.0
  Ni  Ni217  1  0.02253690  0.50000000  0.18238929  1.0
  Ni  Ni218  1  0.02253690  0.83333333  0.18238929  1.0
  Ni  Ni219  1  0.35587024  0.16666667  0.18238929  1.0
  Ni  Ni220  1  0.35587024  0.50000000  0.18238929  1.0
  Ni  Ni221  1  0.35587024  0.83333333  0.18238929  1.0
  Ni  Ni222  1  0.68920357  0.16666667  0.18238929  1.0
  Ni  Ni223  1  0.68920357  0.50000000  0.18238929  1.0
  Ni  Ni224  1  0.68920357  0.83333333  0.18238929  1.0
  Ni  Ni225  1  0.17531468  0.16666667  0.22405596  1.0
  Ni  Ni226  1  0.17531468  0.50000000  0.22405596  1.0
  Ni  Ni227  1  0.17531468  0.83333333  0.22405596  1.0
  Ni  Ni228  1  0.50864801  0.16666667  0.22405596  1.0
  Ni  Ni229  1  0.50864801  0.50000000  0.22405596  1.0
  Ni  Ni230  1  0.50864801  0.83333333  0.22405596  1.0
  Ni  Ni231  1  0.84198135  0.16666667  0.22405596  1.0
  Ni  Ni232  1  0.84198135  0.50000000  0.22405596  1.0
  Ni  Ni233  1  0.84198135  0.83333333  0.22405596  1.0
  Ni  Ni234  1  0.15029321  0.24843800  0.17177738  1.0
  Ni  Ni235  1  0.15029321  0.58177133  0.17177738  1.0
  Ni  Ni236  1  0.15029321  0.91510467  0.17177738  1.0
  Ni  Ni237  1  0.48362654  0.24843800  0.17177738  1.0
  Ni  Ni238  1  0.48362654  0.58177133  0.17177738  1.0
  Ni  Ni239  1  0.48362654  0.91510467  0.17177738  1.0
  Ni  Ni240  1  0.81695988  0.24843800  0.17177737  1.0
  Ni  Ni241  1  0.81695988  0.58177133  0.17177738  1.0
  Ni  Ni242  1  0.81695988  0.91510467  0.17177738  1.0
  Ni  Ni243  1  0.30307099  0.24843800  0.21344404  1.0
  Ni  Ni244  1  0.30307099  0.58177133  0.21344404  1.0
  Ni  Ni245  1  0.30307099  0.91510467  0.21344404  1.0
  Ni  Ni246  1  0.63640432  0.24843800  0.21344404  1.0
  Ni  Ni247  1  0.63640432  0.58177133  0.21344404  1.0
  Ni  Ni248  1  0.63640432  0.91510467  0.21344404  1.0
  Ni  Ni249  1  0.96973765  0.24843800  0.21344404  1.0
  Ni  Ni250  1  0.96973765  0.58177133  0.21344404  1.0
  Ni  Ni251  1  0.96973765  0.91510467  0.21344404  1.0
  Ni  Ni252  1  0.01978060  0.08489533  0.31800121  1.0
  Ni  Ni253  1  0.01978060  0.41822867  0.31800121  1.0
  Ni  Ni254  1  0.01978060  0.75156200  0.31800121  1.0
  Ni  Ni255  1  0.35311393  0.08489533  0.31800121  1.0
  Ni  Ni256  1  0.35311393  0.41822867  0.31800121  1.0
  Ni  Ni257  1  0.35311393  0.75156200  0.31800121  1.0
  Ni  Ni258  1  0.68644726  0.08489533  0.31800121  1.0
  Ni  Ni259  1  0.68644726  0.41822867  0.31800121  1.0
  Ni  Ni260  1  0.68644726  0.75156200  0.31800121  1.0
  Ni  Ni261  1  0.20033615  0.08489533  0.27633454  1.0
  Ni  Ni262  1  0.20033615  0.41822867  0.27633454  1.0
  Ni  Ni263  1  0.20033615  0.75156200  0.27633454  1.0
  Ni  Ni264  1  0.53366949  0.08489533  0.27633454  1.0
  Ni  Ni265  1  0.53366949  0.41822867  0.27633454  1.0
  Ni  Ni266  1  0.53366949  0.75156200  0.27633454  1.0
  Ni  Ni267  1  0.86700282  0.08489533  0.27633454  1.0
  Ni  Ni268  1  0.86700282  0.41822867  0.27633454  1.0
  Ni  Ni269  1  0.86700282  0.75156200  0.27633454  1.0
  Ni  Ni270  1  0.32809246  0.16666667  0.26572262  1.0
  Ni  Ni271  1  0.32809246  0.50000000  0.26572262  1.0
  Ni  Ni272  1  0.32809246  0.83333333  0.26572262  1.0
  Ni  Ni273  1  0.66142579  0.16666667  0.26572262  1.0
  Ni  Ni274  1  0.66142579  0.50000000  0.26572262  1.0
  Ni  Ni275  1  0.66142579  0.83333333  0.26572262  1.0
  Ni  Ni276  1  0.99475912  0.16666667  0.26572262  1.0
  Ni  Ni277  1  0.99475913  0.50000000  0.26572262  1.0
  Ni  Ni278  1  0.99475913  0.83333333  0.26572262  1.0
  Ni  Ni279  1  0.14753690  0.16666667  0.30738929  1.0
  Ni  Ni280  1  0.14753690  0.50000000  0.30738929  1.0
  Ni  Ni281  1  0.14753690  0.83333333  0.30738929  1.0
  Ni  Ni282  1  0.48087024  0.16666667  0.30738929  1.0
  Ni  Ni283  1  0.48087024  0.50000000  0.30738929  1.0
  Ni  Ni284  1  0.48087024  0.83333333  0.30738929  1.0
  Ni  Ni285  1  0.81420357  0.16666667  0.30738929  1.0
  Ni  Ni286  1  0.81420357  0.50000000  0.30738929  1.0
  Ni  Ni287  1  0.81420357  0.83333333  0.30738929  1.0
  Ni  Ni288  1  0.12251543  0.24843800  0.25511071  1.0
  Ni  Ni289  1  0.12251543  0.58177133  0.25511071  1.0
  Ni  Ni290  1  0.12251543  0.91510467  0.25511071  1.0
  Ni  Ni291  1  0.45584876  0.24843800  0.25511071  1.0
  Ni  Ni292  1  0.45584876  0.58177133  0.25511071  1.0
  Ni  Ni293  1  0.45584876  0.91510467  0.25511071  1.0
  Ni  Ni294  1  0.78918210  0.24843800  0.25511071  1.0
  Ni  Ni295  1  0.78918210  0.58177133  0.25511071  1.0
  Ni  Ni296  1  0.78918210  0.91510467  0.25511071  1.0
  Ni  Ni297  1  0.27529321  0.24843800  0.29677737  1.0
  Ni  Ni298  1  0.27529321  0.58177133  0.29677737  1.0
  Ni  Ni299  1  0.27529321  0.91510467  0.29677737  1.0
  Ni  Ni300  1  0.60862654  0.24843800  0.29677737  1.0
  Ni  Ni301  1  0.60862654  0.58177133  0.29677737  1.0
  Ni  Ni302  1  0.60862654  0.91510467  0.29677738  1.0
  Ni  Ni303  1  0.94195988  0.24843800  0.29677738  1.0
  Ni  Ni304  1  0.94195988  0.58177133  0.29677737  1.0
  Ni  Ni305  1  0.94195988  0.91510467  0.29677737  1.0
  Ni  Ni306  1  0.32533615  0.08489533  0.40133454  1.0
  Ni  Ni307  1  0.32533615  0.41822867  0.40133454  1.0
  Ni  Ni308  1  0.32533615  0.75156200  0.40133454  1.0
  Ni  Ni309  1  0.65866949  0.08489533  0.40133454  1.0
  Ni  Ni310  1  0.65866949  0.41822867  0.40133454  1.0
  Ni  Ni311  1  0.65866949  0.75156200  0.40133454  1.0
  Ni  Ni312  1  0.99200282  0.08489533  0.40133454  1.0
  Ni  Ni313  1  0.99200282  0.41822867  0.40133454  1.0
  Ni  Ni314  1  0.99200282  0.75156200  0.40133454  1.0
  Ni  Ni315  1  0.17255837  0.08489533  0.35966787  1.0
  Ni  Ni316  1  0.17255837  0.41822867  0.35966788  1.0
  Ni  Ni317  1  0.17255837  0.75156200  0.35966787  1.0
  Ni  Ni318  1  0.50589171  0.08489533  0.35966788  1.0
  Ni  Ni319  1  0.50589171  0.41822867  0.35966787  1.0
  Ni  Ni320  1  0.50589171  0.75156200  0.35966787  1.0
  Ni  Ni321  1  0.83922504  0.08489533  0.35966787  1.0
  Ni  Ni322  1  0.83922504  0.41822867  0.35966787  1.0
  Ni  Ni323  1  0.83922504  0.75156200  0.35966787  1.0
  Ni  Ni324  1  0.30031468  0.16666667  0.34905596  1.0
  Ni  Ni325  1  0.30031468  0.50000000  0.34905596  1.0
  Ni  Ni326  1  0.30031468  0.83333333  0.34905596  1.0
  Ni  Ni327  1  0.63364801  0.16666667  0.34905596  1.0
  Ni  Ni328  1  0.63364801  0.50000000  0.34905596  1.0
  Ni  Ni329  1  0.63364801  0.83333333  0.34905596  1.0
  Ni  Ni330  1  0.96698135  0.16666667  0.34905596  1.0
  Ni  Ni331  1  0.96698135  0.50000000  0.34905596  1.0
  Ni  Ni332  1  0.96698135  0.83333333  0.34905596  1.0
  Ni  Ni333  1  0.11975913  0.16666667  0.39072263  1.0
  Ni  Ni334  1  0.11975913  0.50000000  0.39072263  1.0
  Ni  Ni335  1  0.11975912  0.83333333  0.39072262  1.0
  Ni  Ni336  1  0.45309246  0.16666667  0.39072262  1.0
  Ni  Ni337  1  0.45309246  0.50000000  0.39072262  1.0
  Ni  Ni338  1  0.45309246  0.83333333  0.39072263  1.0
  Ni  Ni339  1  0.78642579  0.16666667  0.39072262  1.0
  Ni  Ni340  1  0.78642579  0.50000000  0.39072263  1.0
  Ni  Ni341  1  0.78642579  0.83333333  0.39072262  1.0
  Ni  Ni342  1  0.09473765  0.24843800  0.33844404  1.0
  Ni  Ni343  1  0.09473765  0.58177133  0.33844404  1.0
  Ni  Ni344  1  0.09473765  0.91510467  0.33844404  1.0
  Ni  Ni345  1  0.42807099  0.24843800  0.33844404  1.0
  Ni  Ni346  1  0.42807099  0.58177133  0.33844404  1.0
  Ni  Ni347  1  0.42807099  0.91510467  0.33844404  1.0
  Ni  Ni348  1  0.76140432  0.24843800  0.33844404  1.0
  Ni  Ni349  1  0.76140432  0.58177133  0.33844404  1.0
  Ni  Ni350  1  0.76140432  0.91510467  0.33844404  1.0
  Ni  Ni351  1  0.24751543  0.24843800  0.38011071  1.0
  Ni  Ni352  1  0.24751543  0.58177133  0.38011071  1.0
  Ni  Ni353  1  0.24751543  0.91510467  0.38011071  1.0
  Ni  Ni354  1  0.58084876  0.24843800  0.38011071  1.0
  Ni  Ni355  1  0.58084876  0.58177133  0.38011071  1.0
  Ni  Ni356  1  0.58084876  0.91510467  0.38011071  1.0
  Ni  Ni357  1  0.91418210  0.24843800  0.38011071  1.0
  Ni  Ni358  1  0.91418210  0.58177133  0.38011071  1.0
  Ni  Ni359  1  0.91418210  0.91510467  0.38011071  1.0
