# generated using pymatgen
data_CuNi
_symmetry_space_group_name_H-M   'P 1'
_cell_length_a   7.50244335
_cell_length_b   15.03688681
_cell_length_c   28.32367175
_cell_angle_alpha   90.17243746
_cell_angle_beta   90.00000000
_cell_angle_gamma   90.00000000
_symmetry_Int_Tables_number   1
_chemical_formula_structural   CuNi
_chemical_formula_sum   'Cu54 Ni54'
_cell_volume   3195.27499597
_cell_formula_units_Z   54
loop_
 _symmetry_equiv_pos_site_id
 _symmetry_equiv_pos_as_xyz
  1  'x, y, z'
loop_
 _atom_site_type_symbol
 _atom_site_label
 _atom_site_symmetry_multiplicity
 _atom_site_fract_x
 _atom_site_fract_y
 _atom_site_fract_z
 _atom_site_occupancy
  Cu  Cu0  1  0.00000000  0.12500000  0.90625000  1.0
  Cu  Cu1  1  0.00000000  0.45833333  0.90625000  1.0
  Cu  Cu2  1  0.00000000  0.79166667  0.90625000  1.0
  Cu  Cu3  1  0.33333333  0.12500000  0.90625000  1.0
  Cu  Cu4  1  0.33333333  0.45833333  0.90625000  1.0
  Cu  Cu5  1  0.33333333  0.79166667  0.90625000  1.0
  Cu  Cu6  1  0.66666667  0.12500000  0.90625000  1.0
  Cu  Cu7  1  0.66666667  0.45833333  0.90625000  1.0
  Cu  Cu8  1  0.66666667  0.79166667  0.90625000  1.0
  Cu  Cu9  1  0.16666667  0.20833333  0.96875000  1.0
  Cu  Cu10  1  0.16666667  0.54166667  0.96875000  1.0
  Cu  Cu11  1  0.16666667  0.87500000  0.96875000  1.0
  Cu  Cu12  1  0.50000000  0.20833333  0.96875000  1.0
  Cu  Cu13  1  0.50000000  0.54166667  0.96875000  1.0
  Cu  Cu14  1  0.50000000  0.87500000  0.96875000  1.0
  Cu  Cu15  1  0.83333333  0.20833333  0.96875000  1.0
  Cu  Cu16  1  0.83333333  0.54166667  0.96875000  1.0
  Cu  Cu17  1  0.83333333  0.87500000  0.96875000  1.0
  Cu  Cu18  1  0.00000000  0.29166667  0.78125000  1.0
  Cu  Cu19  1  0.00000000  0.62500000  0.78125000  1.0
  Cu  Cu20  1  0.00000000  0.95833333  0.78125000  1.0
  Cu  Cu21  1  0.33333333  0.29166667  0.78125000  1.0
  Cu  Cu22  1  0.33333333  0.62500000  0.78125000  1.0
  Cu  Cu23  1  0.33333333  0.95833333  0.78125000  1.0
  Cu  Cu24  1  0.66666667  0.29166667  0.78125000  1.0
  Cu  Cu25  1  0.66666667  0.62500000  0.78125000  1.0
  Cu  Cu26  1  0.66666667  0.95833333  0.78125000  1.0
  Cu  Cu27  1  0.16666667  0.04166667  0.84375000  1.0
  Cu  Cu28  1  0.16666667  0.37500000  0.84375000  1.0
  Cu  Cu29  1  0.16666667  0.70833333  0.84375000  1.0
  Cu  Cu30  1  0.50000000  0.04166667  0.84375000  1.0
  Cu  Cu31  1  0.50000000  0.37500000  0.84375000  1.0
  Cu  Cu32  1  0.50000000  0.70833333  0.84375000  1.0
  Cu  Cu33  1  0.83333333  0.04166667  0.84375000  1.0
  Cu  Cu34  1  0.83333333  0.37500000  0.84375000  1.0
  Cu  Cu35  1  0.83333333  0.70833333  0.84375000  1.0
  Cu  Cu36  1  0.00000000  0.12500000  0.65625000  1.0
  Cu  Cu37  1  0.00000000  0.45833333  0.65625000  1.0
  Cu  Cu38  1  0.00000000  0.79166667  0.65625000  1.0
  Cu  Cu39  1  0.33333333  0.12500000  0.65625000  1.0
  Cu  Cu40  1  0.33333333  0.45833333  0.65625000  1.0
  Cu  Cu41  1  0.33333333  0.79166667  0.65625000  1.0
  Cu  Cu42  1  0.66666667  0.12500000  0.65625000  1.0
  Cu  Cu43  1  0.66666667  0.45833333  0.65625000  1.0
  Cu  Cu44  1  0.66666667  0.79166667  0.65625000  1.0
  Cu  Cu45  1  0.16666667  0.20833333  0.71875000  1.0
  Cu  Cu46  1  0.16666667  0.54166667  0.71875000  1.0
  Cu  Cu47  1  0.16666667  0.87500000  0.71875000  1.0
  Cu  Cu48  1  0.50000000  0.20833333  0.71875000  1.0
  Cu  Cu49  1  0.50000000  0.54166667  0.71875000  1.0
  Cu  Cu50  1  0.50000000  0.87500000  0.71875000  1.0
  Cu  Cu51  1  0.83333333  0.20833333  0.71875000  1.0
  Cu  Cu52  1  0.83333333  0.54166667  0.71875000  1.0
  Cu  Cu53  1  0.83333333  0.87500000  0.71875000  1.0
  Ni  Ni54  1  0.33333333  0.29166667  0.90625000  1.0
  Ni  Ni55  1  0.33333333  0.62500000  0.90625000  1.0
  Ni  Ni56  1  0.33333333  0.95833333  0.90625000  1.0
  Ni  Ni57  1  0.66666667  0.29166667  0.90625000  1.0
  Ni  Ni58  1  0.66666667  0.62500000  0.90625000  1.0
  Ni  Ni59  1  0.66666667  0.95833333  0.90625000  1.0
  Ni  Ni60  1  1.00000000  0.29166667  0.90625000  1.0
  Ni  Ni61  1  1.00000000  0.62500000  0.90625000  1.0
  Ni  Ni62  1  1.00000000  0.95833333  0.90625000  1.0
  Ni  Ni63  1  0.16666667  0.04166667  0.96875000  1.0
  Ni  Ni64  1  0.16666667  0.37500000  0.96875000  1.0
  Ni  Ni65  1  0.16666667  0.70833333  0.96875000  1.0
  Ni  Ni66  1  0.50000000  0.04166667  0.96875000  1.0
  Ni  Ni67  1  0.50000000  0.37500000  0.96875000  1.0
  Ni  Ni68  1  0.50000000  0.70833333  0.96875000  1.0
  Ni  Ni69  1  0.83333333  0.04166667  0.96875000  1.0
  Ni  Ni70  1  0.83333333  0.37500000  0.96875000  1.0
  Ni  Ni71  1  0.83333333  0.70833333  0.96875000  1.0
  Ni  Ni72  1  0.33333333  0.12500000  0.78125000  1.0
  Ni  Ni73  1  0.33333333  0.45833333  0.78125000  1.0
  Ni  Ni74  1  0.33333333  0.79166667  0.78125000  1.0
  Ni  Ni75  1  0.66666667  0.12500000  0.78125000  1.0
  Ni  Ni76  1  0.66666667  0.45833333  0.78125000  1.0
  Ni  Ni77  1  0.66666667  0.79166667  0.78125000  1.0
  Ni  Ni78  1  1.00000000  0.12500000  0.78125000  1.0
  Ni  Ni79  1  1.00000000  0.45833333  0.78125000  1.0
  Ni  Ni80  1  0.00000000  0.79166667  0.78125000  1.0
  Ni  Ni81  1  0.16666667  0.20833333  0.84375000  1.0
  Ni  Ni82  1  0.16666667  0.54166667  0.84375000  1.0
  Ni  Ni83  1  0.16666667  0.87500000  0.84375000  1.0
  Ni  Ni84  1  0.50000000  0.20833333  0.84375000  1.0
  Ni  Ni85  1  0.50000000  0.54166667  0.84375000  1.0
  Ni  Ni86  1  0.50000000  0.87500000  0.84375000  1.0
  Ni  Ni87  1  0.83333333  0.20833333  0.84375000  1.0
  Ni  Ni88  1  0.83333333  0.54166667  0.84375000  1.0
  Ni  Ni89  1  0.83333333  0.87500000  0.84375000  1.0
  Ni  Ni90  1  0.00000000  0.29166667  0.65625000  1.0
  Ni  Ni91  1  0.00000000  0.62500000  0.65625000  1.0
  Ni  Ni92  1  0.00000000  0.95833333  0.65625000  1.0
  Ni  Ni93  1  0.33333333  0.29166667  0.65625000  1.0
  Ni  Ni94  1  0.33333333  0.62500000  0.65625000  1.0
  Ni  Ni95  1  0.33333333  0.95833333  0.65625000  1.0
  Ni  Ni96  1  0.66666667  0.29166667  0.65625000  1.0
  Ni  Ni97  1  0.66666667  0.62500000  0.65625000  1.0
  Ni  Ni98  1  0.66666667  0.95833333  0.65625000  1.0
  Ni  Ni99  1  0.16666667  0.04166667  0.71875000  1.0
  Ni  Ni100  1  0.16666667  0.37500000  0.71875000  1.0
  Ni  Ni101  1  0.16666667  0.70833333  0.71875000  1.0
  Ni  Ni102  1  0.50000000  0.04166667  0.71875000  1.0
  Ni  Ni103  1  0.50000000  0.37500000  0.71875000  1.0
  Ni  Ni104  1  0.50000000  0.70833333  0.71875000  1.0
  Ni  Ni105  1  0.83333333  0.04166667  0.71875000  1.0
  Ni  Ni106  1  0.83333333  0.37500000  0.71875000  1.0
  Ni  Ni107  1  0.83333333  0.70833333  0.71875000  1.0
