# generated using pymatgen
data_Fe2Ni
_symmetry_space_group_name_H-M   'P 1'
_cell_length_a   13.08228457
_cell_length_b   20.26028839
_cell_length_c   55.38911048
_cell_angle_alpha   111.88848073
_cell_angle_beta   150.00000000
_cell_angle_gamma   71.16430810
_symmetry_Int_Tables_number   1
_chemical_formula_structural   Fe2Ni
_chemical_formula_sum   'Fe162 Ni81'
_cell_volume   6811.30045295
_cell_formula_units_Z   81
loop_
 _symmetry_equiv_pos_site_id
 _symmetry_equiv_pos_as_xyz
  1  'x, y, z'
loop_
 _atom_site_type_symbol
 _atom_site_label
 _atom_site_symmetry_multiplicity
 _atom_site_fract_x
 _atom_site_fract_y
 _atom_site_fract_z
 _atom_site_occupancy
  Fe  Fe0  1  0.22222222  0.22382700  0.02305552  1.0
  Fe  Fe1  1  0.22222222  0.55716033  0.02305552  1.0
  Fe  Fe2  1  0.22222222  0.89049367  0.02305552  1.0
  Fe  Fe3  1  0.55555556  0.22382700  0.02305552  1.0
  Fe  Fe4  1  0.55555556  0.55716033  0.02305552  1.0
  Fe  Fe5  1  0.55555556  0.89049367  0.02305552  1.0
  Fe  Fe6  1  0.88888889  0.22382700  0.02305552  1.0
  Fe  Fe7  1  0.88888889  0.55716033  0.02305552  1.0
  Fe  Fe8  1  0.88888889  0.89049367  0.02305552  1.0
  Fe  Fe9  1  0.11111111  0.10950633  0.00746634  1.0
  Fe  Fe10  1  0.11111111  0.44283967  0.00746634  1.0
  Fe  Fe11  1  0.11111111  0.77617300  0.00746634  1.0
  Fe  Fe12  1  0.44444444  0.10950633  0.00746634  1.0
  Fe  Fe13  1  0.44444444  0.44283967  0.00746634  1.0
  Fe  Fe14  1  0.44444444  0.77617300  0.00746634  1.0
  Fe  Fe15  1  0.77777778  0.10950633  0.00746634  1.0
  Fe  Fe16  1  0.77777778  0.44283967  0.00746634  1.0
  Fe  Fe17  1  0.77777778  0.77617300  0.00746634  1.0
  Ni  Ni18  1  0.00000000  0.00000000  0.03798820  1.0
  Ni  Ni19  1  0.00000000  0.33333333  0.03798820  1.0
  Ni  Ni20  1  0.00000000  0.66666667  0.03798820  1.0
  Ni  Ni21  1  0.33333333  0.00000000  0.03798820  1.0
  Ni  Ni22  1  0.33333333  0.33333333  0.03798820  1.0
  Ni  Ni23  1  0.33333333  0.66666667  0.03798820  1.0
  Ni  Ni24  1  0.66666667  0.00000000  0.03798820  1.0
  Ni  Ni25  1  0.66666667  0.33333333  0.03798820  1.0
  Ni  Ni26  1  0.66666667  0.66666667  0.03798820  1.0
  Fe  Fe27  1  0.22222222  0.22382700  0.06851007  1.0
  Fe  Fe28  1  0.22222222  0.55716033  0.06851007  1.0
  Fe  Fe29  1  0.22222222  0.89049367  0.06851007  1.0
  Fe  Fe30  1  0.55555556  0.22382700  0.06851007  1.0
  Fe  Fe31  1  0.55555556  0.55716033  0.06851007  1.0
  Fe  Fe32  1  0.55555556  0.89049367  0.06851007  1.0
  Fe  Fe33  1  0.88888889  0.22382700  0.06851007  1.0
  Fe  Fe34  1  0.88888889  0.55716033  0.06851007  1.0
  Fe  Fe35  1  0.88888889  0.89049367  0.06851007  1.0
  Fe  Fe36  1  0.11111111  0.10950633  0.05292089  1.0
  Fe  Fe37  1  0.11111111  0.44283967  0.05292089  1.0
  Fe  Fe38  1  0.11111111  0.77617300  0.05292089  1.0
  Fe  Fe39  1  0.44444444  0.10950633  0.05292089  1.0
  Fe  Fe40  1  0.44444444  0.44283967  0.05292089  1.0
  Fe  Fe41  1  0.44444444  0.77617300  0.05292089  1.0
  Fe  Fe42  1  0.77777778  0.10950633  0.05292089  1.0
  Fe  Fe43  1  0.77777778  0.44283967  0.05292089  1.0
  Fe  Fe44  1  0.77777778  0.77617300  0.05292089  1.0
  Ni  Ni45  1  0.00000000  0.00000000  0.08344275  1.0
  Ni  Ni46  1  0.00000000  0.33333333  0.08344275  1.0
  Ni  Ni47  1  0.00000000  0.66666667  0.08344275  1.0
  Ni  Ni48  1  0.33333333  0.00000000  0.08344275  1.0
  Ni  Ni49  1  0.33333333  0.33333333  0.08344275  1.0
  Ni  Ni50  1  0.33333333  0.66666667  0.08344275  1.0
  Ni  Ni51  1  0.66666667  0.00000000  0.08344275  1.0
  Ni  Ni52  1  0.66666667  0.33333333  0.08344275  1.0
  Ni  Ni53  1  0.66666667  0.66666667  0.08344275  1.0
  Fe  Fe54  1  0.22222222  0.22382700  0.11396461  1.0
  Fe  Fe55  1  0.22222222  0.55716033  0.11396461  1.0
  Fe  Fe56  1  0.22222222  0.89049367  0.11396461  1.0
  Fe  Fe57  1  0.55555556  0.22382700  0.11396461  1.0
  Fe  Fe58  1  0.55555556  0.55716033  0.11396461  1.0
  Fe  Fe59  1  0.55555556  0.89049367  0.11396461  1.0
  Fe  Fe60  1  0.88888889  0.22382700  0.11396461  1.0
  Fe  Fe61  1  0.88888889  0.55716033  0.11396461  1.0
  Fe  Fe62  1  0.88888889  0.89049367  0.11396461  1.0
  Fe  Fe63  1  0.11111111  0.10950633  0.09837543  1.0
  Fe  Fe64  1  0.11111111  0.44283967  0.09837543  1.0
  Fe  Fe65  1  0.11111111  0.77617300  0.09837543  1.0
  Fe  Fe66  1  0.44444444  0.10950633  0.09837543  1.0
  Fe  Fe67  1  0.44444444  0.44283967  0.09837543  1.0
  Fe  Fe68  1  0.44444444  0.77617300  0.09837543  1.0
  Fe  Fe69  1  0.77777778  0.10950633  0.09837543  1.0
  Fe  Fe70  1  0.77777778  0.44283967  0.09837543  1.0
  Fe  Fe71  1  0.77777778  0.77617300  0.09837543  1.0
  Ni  Ni72  1  0.00000000  0.00000000  0.12889730  1.0
  Ni  Ni73  1  0.00000000  0.33333333  0.12889730  1.0
  Ni  Ni74  1  0.00000000  0.66666667  0.12889730  1.0
  Ni  Ni75  1  0.33333333  0.00000000  0.12889730  1.0
  Ni  Ni76  1  0.33333333  0.33333333  0.12889730  1.0
  Ni  Ni77  1  0.33333333  0.66666667  0.12889730  1.0
  Ni  Ni78  1  0.66666667  0.00000000  0.12889730  1.0
  Ni  Ni79  1  0.66666667  0.33333333  0.12889730  1.0
  Ni  Ni80  1  0.66666667  0.66666667  0.12889730  1.0
  Fe  Fe81  1  0.22222222  0.22382700  0.15941916  1.0
  Fe  Fe82  1  0.22222222  0.55716033  0.15941916  1.0
  Fe  Fe83  1  0.22222222  0.89049367  0.15941916  1.0
  Fe  Fe84  1  0.55555556  0.22382700  0.15941916  1.0
  Fe  Fe85  1  0.55555556  0.55716033  0.15941916  1.0
  Fe  Fe86  1  0.55555556  0.89049367  0.15941916  1.0
  Fe  Fe87  1  0.88888889  0.22382700  0.15941916  1.0
  Fe  Fe88  1  0.88888889  0.55716033  0.15941916  1.0
  Fe  Fe89  1  0.88888889  0.89049367  0.15941916  1.0
  Fe  Fe90  1  0.11111111  0.10950633  0.14382998  1.0
  Fe  Fe91  1  0.11111111  0.44283967  0.14382998  1.0
  Fe  Fe92  1  0.11111111  0.77617300  0.14382998  1.0
  Fe  Fe93  1  0.44444444  0.10950633  0.14382998  1.0
  Fe  Fe94  1  0.44444444  0.44283967  0.14382998  1.0
  Fe  Fe95  1  0.44444444  0.77617300  0.14382998  1.0
  Fe  Fe96  1  0.77777778  0.10950633  0.14382998  1.0
  Fe  Fe97  1  0.77777778  0.44283967  0.14382998  1.0
  Fe  Fe98  1  0.77777778  0.77617300  0.14382998  1.0
  Ni  Ni99  1  0.00000000  0.00000000  0.17435184  1.0
  Ni  Ni100  1  0.00000000  0.33333333  0.17435184  1.0
  Ni  Ni101  1  0.00000000  0.66666667  0.17435184  1.0
  Ni  Ni102  1  0.33333333  0.00000000  0.17435184  1.0
  Ni  Ni103  1  0.33333333  0.33333333  0.17435184  1.0
  Ni  Ni104  1  0.33333333  0.66666667  0.17435184  1.0
  Ni  Ni105  1  0.66666667  0.00000000  0.17435184  1.0
  Ni  Ni106  1  0.66666667  0.33333333  0.17435184  1.0
  Ni  Ni107  1  0.66666667  0.66666667  0.17435184  1.0
  Fe  Fe108  1  0.22222222  0.22382700  0.20487370  1.0
  Fe  Fe109  1  0.22222222  0.55716033  0.20487370  1.0
  Fe  Fe110  1  0.22222222  0.89049367  0.20487370  1.0
  Fe  Fe111  1  0.55555556  0.22382700  0.20487370  1.0
  Fe  Fe112  1  0.55555556  0.55716033  0.20487370  1.0
  Fe  Fe113  1  0.55555556  0.89049367  0.20487370  1.0
  Fe  Fe114  1  0.88888889  0.22382700  0.20487370  1.0
  Fe  Fe115  1  0.88888889  0.55716033  0.20487370  1.0
  Fe  Fe116  1  0.88888889  0.89049367  0.20487370  1.0
  Fe  Fe117  1  0.11111111  0.10950633  0.18928452  1.0
  Fe  Fe118  1  0.11111111  0.44283967  0.18928452  1.0
  Fe  Fe119  1  0.11111111  0.77617300  0.18928452  1.0
  Fe  Fe120  1  0.44444444  0.10950633  0.18928452  1.0
  Fe  Fe121  1  0.44444444  0.44283967  0.18928452  1.0
  Fe  Fe122  1  0.44444444  0.77617300  0.18928452  1.0
  Fe  Fe123  1  0.77777778  0.10950633  0.18928452  1.0
  Fe  Fe124  1  0.77777778  0.44283967  0.18928452  1.0
  Fe  Fe125  1  0.77777778  0.77617300  0.18928452  1.0
  Ni  Ni126  1  0.00000000  0.00000000  0.21980639  1.0
  Ni  Ni127  1  0.00000000  0.33333333  0.21980639  1.0
  Ni  Ni128  1  0.00000000  0.66666667  0.21980639  1.0
  Ni  Ni129  1  0.33333333  0.00000000  0.21980639  1.0
  Ni  Ni130  1  0.33333333  0.33333333  0.21980639  1.0
  Ni  Ni131  1  0.33333333  0.66666667  0.21980639  1.0
  Ni  Ni132  1  0.66666667  0.00000000  0.21980639  1.0
  Ni  Ni133  1  0.66666667  0.33333333  0.21980639  1.0
  Ni  Ni134  1  0.66666667  0.66666667  0.21980639  1.0
  Fe  Fe135  1  0.22222222  0.22382700  0.25032825  1.0
  Fe  Fe136  1  0.22222222  0.55716033  0.25032825  1.0
  Fe  Fe137  1  0.22222222  0.89049367  0.25032825  1.0
  Fe  Fe138  1  0.55555556  0.22382700  0.25032825  1.0
  Fe  Fe139  1  0.55555556  0.55716033  0.25032825  1.0
  Fe  Fe140  1  0.55555556  0.89049367  0.25032825  1.0
  Fe  Fe141  1  0.88888889  0.22382700  0.25032825  1.0
  Fe  Fe142  1  0.88888889  0.55716033  0.25032825  1.0
  Fe  Fe143  1  0.88888889  0.89049367  0.25032825  1.0
  Fe  Fe144  1  0.11111111  0.10950633  0.23473907  1.0
  Fe  Fe145  1  0.11111111  0.44283967  0.23473907  1.0
  Fe  Fe146  1  0.11111111  0.77617300  0.23473907  1.0
  Fe  Fe147  1  0.44444444  0.10950633  0.23473907  1.0
  Fe  Fe148  1  0.44444444  0.44283967  0.23473907  1.0
  Fe  Fe149  1  0.44444444  0.77617300  0.23473907  1.0
  Fe  Fe150  1  0.77777778  0.10950633  0.23473907  1.0
  Fe  Fe151  1  0.77777778  0.44283967  0.23473907  1.0
  Fe  Fe152  1  0.77777778  0.77617300  0.23473907  1.0
  Ni  Ni153  1  0.00000000  0.00000000  0.26526093  1.0
  Ni  Ni154  1  0.00000000  0.33333333  0.26526093  1.0
  Ni  Ni155  1  0.00000000  0.66666667  0.26526093  1.0
  Ni  Ni156  1  0.33333333  0.00000000  0.26526093  1.0
  Ni  Ni157  1  0.33333333  0.33333333  0.26526093  1.0
  Ni  Ni158  1  0.33333333  0.66666667  0.26526093  1.0
  Ni  Ni159  1  0.66666667  0.00000000  0.26526093  1.0
  Ni  Ni160  1  0.66666667  0.33333333  0.26526093  1.0
  Ni  Ni161  1  0.66666667  0.66666667  0.26526093  1.0
  Fe  Fe162  1  0.22222222  0.22382700  0.29578280  1.0
  Fe  Fe163  1  0.22222222  0.55716033  0.29578280  1.0
  Fe  Fe164  1  0.22222222  0.89049367  0.29578280  1.0
  Fe  Fe165  1  0.55555556  0.22382700  0.29578280  1.0
  Fe  Fe166  1  0.55555556  0.55716033  0.29578280  1.0
  Fe  Fe167  1  0.55555556  0.89049367  0.29578280  1.0
  Fe  Fe168  1  0.88888889  0.22382700  0.29578280  1.0
  Fe  Fe169  1  0.88888889  0.55716033  0.29578280  1.0
  Fe  Fe170  1  0.88888889  0.89049367  0.29578280  1.0
  Fe  Fe171  1  0.11111111  0.10950633  0.28019361  1.0
  Fe  Fe172  1  0.11111111  0.44283967  0.28019361  1.0
  Fe  Fe173  1  0.11111111  0.77617300  0.28019361  1.0
  Fe  Fe174  1  0.44444444  0.10950633  0.28019361  1.0
  Fe  Fe175  1  0.44444444  0.44283967  0.28019361  1.0
  Fe  Fe176  1  0.44444444  0.77617300  0.28019361  1.0
  Fe  Fe177  1  0.77777778  0.10950633  0.28019361  1.0
  Fe  Fe178  1  0.77777778  0.44283967  0.28019361  1.0
  Fe  Fe179  1  0.77777778  0.77617300  0.28019361  1.0
  Ni  Ni180  1  0.00000000  0.00000000  0.31071548  1.0
  Ni  Ni181  1  0.00000000  0.33333333  0.31071548  1.0
  Ni  Ni182  1  0.00000000  0.66666667  0.31071548  1.0
  Ni  Ni183  1  0.33333333  0.00000000  0.31071548  1.0
  Ni  Ni184  1  0.33333333  0.33333333  0.31071548  1.0
  Ni  Ni185  1  0.33333333  0.66666667  0.31071548  1.0
  Ni  Ni186  1  0.66666667  0.00000000  0.31071548  1.0
  Ni  Ni187  1  0.66666667  0.33333333  0.31071548  1.0
  Ni  Ni188  1  0.66666667  0.66666667  0.31071548  1.0
  Fe  Fe189  1  0.22222222  0.22382700  0.34123734  1.0
  Fe  Fe190  1  0.22222222  0.55716033  0.34123734  1.0
  Fe  Fe191  1  0.22222222  0.89049367  0.34123734  1.0
  Fe  Fe192  1  0.55555556  0.22382700  0.34123734  1.0
  Fe  Fe193  1  0.55555556  0.55716033  0.34123734  1.0
  Fe  Fe194  1  0.55555556  0.89049367  0.34123734  1.0
  Fe  Fe195  1  0.88888889  0.22382700  0.34123734  1.0
  Fe  Fe196  1  0.88888889  0.55716033  0.34123734  1.0
  Fe  Fe197  1  0.88888889  0.89049367  0.34123734  1.0
  Fe  Fe198  1  0.11111111  0.10950633  0.32564816  1.0
  Fe  Fe199  1  0.11111111  0.44283967  0.32564816  1.0
  Fe  Fe200  1  0.11111111  0.77617300  0.32564816  1.0
  Fe  Fe201  1  0.44444444  0.10950633  0.32564816  1.0
  Fe  Fe202  1  0.44444444  0.44283967  0.32564816  1.0
  Fe  Fe203  1  0.44444444  0.77617300  0.32564816  1.0
  Fe  Fe204  1  0.77777778  0.10950633  0.32564816  1.0
  Fe  Fe205  1  0.77777778  0.44283967  0.32564816  1.0
  Fe  Fe206  1  0.77777778  0.77617300  0.32564816  1.0
  Ni  Ni207  1  0.00000000  0.00000000  0.35617002  1.0
  Ni  Ni208  1  0.00000000  0.33333333  0.35617002  1.0
  Ni  Ni209  1  0.00000000  0.66666667  0.35617002  1.0
  Ni  Ni210  1  0.33333333  0.00000000  0.35617002  1.0
  Ni  Ni211  1  0.33333333  0.33333333  0.35617002  1.0
  Ni  Ni212  1  0.33333333  0.66666667  0.35617002  1.0
  Ni  Ni213  1  0.66666667  0.00000000  0.35617002  1.0
  Ni  Ni214  1  0.66666667  0.33333333  0.35617002  1.0
  Ni  Ni215  1  0.66666667  0.66666667  0.35617002  1.0
  Fe  Fe216  1  0.22222222  0.22382700  0.38669189  1.0
  Fe  Fe217  1  0.22222222  0.55716033  0.38669189  1.0
  Fe  Fe218  1  0.22222222  0.89049367  0.38669189  1.0
  Fe  Fe219  1  0.55555556  0.22382700  0.38669189  1.0
  Fe  Fe220  1  0.55555556  0.55716033  0.38669189  1.0
  Fe  Fe221  1  0.55555556  0.89049367  0.38669189  1.0
  Fe  Fe222  1  0.88888889  0.22382700  0.38669189  1.0
  Fe  Fe223  1  0.88888889  0.55716033  0.38669189  1.0
  Fe  Fe224  1  0.88888889  0.89049367  0.38669189  1.0
  Fe  Fe225  1  0.11111111  0.10950633  0.37110270  1.0
  Fe  Fe226  1  0.11111111  0.44283967  0.37110270  1.0
  Fe  Fe227  1  0.11111111  0.77617300  0.37110270  1.0
  Fe  Fe228  1  0.44444444  0.10950633  0.37110270  1.0
  Fe  Fe229  1  0.44444444  0.44283967  0.37110270  1.0
  Fe  Fe230  1  0.44444444  0.77617300  0.37110270  1.0
  Fe  Fe231  1  0.77777778  0.10950633  0.37110270  1.0
  Fe  Fe232  1  0.77777778  0.44283967  0.37110270  1.0
  Fe  Fe233  1  0.77777778  0.77617300  0.37110270  1.0
  Ni  Ni234  1  0.00000000  0.00000000  0.40162457  1.0
  Ni  Ni235  1  0.00000000  0.33333333  0.40162457  1.0
  Ni  Ni236  1  0.00000000  0.66666667  0.40162457  1.0
  Ni  Ni237  1  0.33333333  0.00000000  0.40162457  1.0
  Ni  Ni238  1  0.33333333  0.33333333  0.40162457  1.0
  Ni  Ni239  1  0.33333333  0.66666667  0.40162457  1.0
  Ni  Ni240  1  0.66666667  0.00000000  0.40162457  1.0
  Ni  Ni241  1  0.66666667  0.33333333  0.40162457  1.0
  Ni  Ni242  1  0.66666667  0.66666667  0.40162457  1.0
