# generated using pymatgen
data_Fe2Ni
_symmetry_space_group_name_H-M   'P 1'
_cell_length_a   13.08228457
_cell_length_b   20.26028839
_cell_length_c   30.21224208
_cell_angle_alpha   68.11151927
_cell_angle_beta   90.00000000
_cell_angle_gamma   90.00000000
_symmetry_Int_Tables_number   1
_chemical_formula_structural   Fe2Ni
_chemical_formula_sum   'Fe180 Ni90'
_cell_volume   7430.50958503
_cell_formula_units_Z   90
loop_
 _symmetry_equiv_pos_site_id
 _symmetry_equiv_pos_as_xyz
  1  'x, y, z'
loop_
 _atom_site_type_symbol
 _atom_site_label
 _atom_site_symmetry_multiplicity
 _atom_site_fract_x
 _atom_site_fract_y
 _atom_site_fract_z
 _atom_site_occupancy
  Fe  Fe0  1  0.05555556  0.22382700  0.06189821  1.0
  Fe  Fe1  1  0.05555556  0.55716033  0.06189821  1.0
  Fe  Fe2  1  0.05555556  0.89049367  0.06189821  1.0
  Fe  Fe3  1  0.38888889  0.22382700  0.06189821  1.0
  Fe  Fe4  1  0.38888889  0.55716033  0.06189821  1.0
  Fe  Fe5  1  0.38888889  0.89049367  0.06189821  1.0
  Fe  Fe6  1  0.72222222  0.22382700  0.06189821  1.0
  Fe  Fe7  1  0.72222222  0.55716033  0.06189821  1.0
  Fe  Fe8  1  0.72222222  0.89049367  0.06189821  1.0
  Fe  Fe9  1  0.22222222  0.22382700  0.02023154  1.0
  Fe  Fe10  1  0.22222222  0.55716033  0.02023154  1.0
  Fe  Fe11  1  0.22222222  0.89049367  0.02023154  1.0
  Fe  Fe12  1  0.55555556  0.22382700  0.02023154  1.0
  Fe  Fe13  1  0.55555556  0.55716033  0.02023154  1.0
  Fe  Fe14  1  0.55555556  0.89049367  0.02023154  1.0
  Fe  Fe15  1  0.88888889  0.22382700  0.02023154  1.0
  Fe  Fe16  1  0.88888889  0.55716033  0.02023154  1.0
  Fe  Fe17  1  0.88888889  0.89049367  0.02023154  1.0
  Fe  Fe18  1  0.11111111  0.10950633  0.04881171  1.0
  Fe  Fe19  1  0.11111111  0.44283967  0.04881171  1.0
  Fe  Fe20  1  0.11111111  0.77617300  0.04881171  1.0
  Fe  Fe21  1  0.44444444  0.10950633  0.04881171  1.0
  Fe  Fe22  1  0.44444444  0.44283967  0.04881171  1.0
  Fe  Fe23  1  0.44444444  0.77617300  0.04881171  1.0
  Fe  Fe24  1  0.77777778  0.10950633  0.04881171  1.0
  Fe  Fe25  1  0.77777778  0.44283967  0.04881171  1.0
  Fe  Fe26  1  0.77777778  0.77617300  0.04881171  1.0
  Fe  Fe27  1  0.27777778  0.10950633  0.00714504  1.0
  Fe  Fe28  1  0.27777778  0.44283967  0.00714504  1.0
  Fe  Fe29  1  0.27777778  0.77617300  0.00714504  1.0
  Fe  Fe30  1  0.61111111  0.10950633  0.00714504  1.0
  Fe  Fe31  1  0.61111111  0.44283967  0.00714504  1.0
  Fe  Fe32  1  0.61111111  0.77617300  0.00714504  1.0
  Fe  Fe33  1  0.94444444  0.10950633  0.00714504  1.0
  Fe  Fe34  1  0.94444444  0.44283967  0.00714504  1.0
  Fe  Fe35  1  0.94444444  0.77617300  0.00714504  1.0
  Ni  Ni36  1  0.16666667  0.00000000  0.03452163  1.0
  Ni  Ni37  1  0.16666667  0.33333333  0.03452163  1.0
  Ni  Ni38  1  0.16666667  0.66666667  0.03452163  1.0
  Ni  Ni39  1  0.50000000  0.00000000  0.03452163  1.0
  Ni  Ni40  1  0.50000000  0.33333333  0.03452163  1.0
  Ni  Ni41  1  0.50000000  0.66666667  0.03452163  1.0
  Ni  Ni42  1  0.83333333  0.00000000  0.03452163  1.0
  Ni  Ni43  1  0.83333333  0.33333333  0.03452163  1.0
  Ni  Ni44  1  0.83333333  0.66666667  0.03452163  1.0
  Ni  Ni45  1  0.00000000  0.00000000  0.07618829  1.0
  Ni  Ni46  1  0.00000000  0.33333333  0.07618829  1.0
  Ni  Ni47  1  0.00000000  0.66666667  0.07618829  1.0
  Ni  Ni48  1  0.33333333  0.00000000  0.07618829  1.0
  Ni  Ni49  1  0.33333333  0.33333333  0.07618829  1.0
  Ni  Ni50  1  0.33333333  0.66666667  0.07618829  1.0
  Ni  Ni51  1  0.66666667  0.00000000  0.07618829  1.0
  Ni  Ni52  1  0.66666667  0.33333333  0.07618829  1.0
  Ni  Ni53  1  0.66666667  0.66666667  0.07618829  1.0
  Fe  Fe54  1  0.05555556  0.22382700  0.14523154  1.0
  Fe  Fe55  1  0.05555556  0.55716033  0.14523154  1.0
  Fe  Fe56  1  0.05555556  0.89049367  0.14523154  1.0
  Fe  Fe57  1  0.38888889  0.22382700  0.14523154  1.0
  Fe  Fe58  1  0.38888889  0.55716033  0.14523154  1.0
  Fe  Fe59  1  0.38888889  0.89049367  0.14523154  1.0
  Fe  Fe60  1  0.72222222  0.22382700  0.14523154  1.0
  Fe  Fe61  1  0.72222222  0.55716033  0.14523154  1.0
  Fe  Fe62  1  0.72222222  0.89049367  0.14523154  1.0
  Fe  Fe63  1  0.22222222  0.22382700  0.10356488  1.0
  Fe  Fe64  1  0.22222222  0.55716033  0.10356488  1.0
  Fe  Fe65  1  0.22222222  0.89049367  0.10356488  1.0
  Fe  Fe66  1  0.55555556  0.22382700  0.10356488  1.0
  Fe  Fe67  1  0.55555556  0.55716033  0.10356488  1.0
  Fe  Fe68  1  0.55555556  0.89049367  0.10356488  1.0
  Fe  Fe69  1  0.88888889  0.22382700  0.10356488  1.0
  Fe  Fe70  1  0.88888889  0.55716033  0.10356488  1.0
  Fe  Fe71  1  0.88888889  0.89049367  0.10356488  1.0
  Fe  Fe72  1  0.11111111  0.10950633  0.13214504  1.0
  Fe  Fe73  1  0.11111111  0.44283967  0.13214504  1.0
  Fe  Fe74  1  0.11111111  0.77617300  0.13214504  1.0
  Fe  Fe75  1  0.44444444  0.10950633  0.13214504  1.0
  Fe  Fe76  1  0.44444444  0.44283967  0.13214504  1.0
  Fe  Fe77  1  0.44444444  0.77617300  0.13214504  1.0
  Fe  Fe78  1  0.77777778  0.10950633  0.13214504  1.0
  Fe  Fe79  1  0.77777778  0.44283967  0.13214504  1.0
  Fe  Fe80  1  0.77777778  0.77617300  0.13214504  1.0
  Fe  Fe81  1  0.27777778  0.10950633  0.09047837  1.0
  Fe  Fe82  1  0.27777778  0.44283967  0.09047837  1.0
  Fe  Fe83  1  0.27777778  0.77617300  0.09047837  1.0
  Fe  Fe84  1  0.61111111  0.10950633  0.09047837  1.0
  Fe  Fe85  1  0.61111111  0.44283967  0.09047837  1.0
  Fe  Fe86  1  0.61111111  0.77617300  0.09047837  1.0
  Fe  Fe87  1  0.94444444  0.10950633  0.09047837  1.0
  Fe  Fe88  1  0.94444444  0.44283967  0.09047837  1.0
  Fe  Fe89  1  0.94444444  0.77617300  0.09047837  1.0
  Ni  Ni90  1  0.16666667  0.00000000  0.11785496  1.0
  Ni  Ni91  1  0.16666667  0.33333333  0.11785496  1.0
  Ni  Ni92  1  0.16666667  0.66666667  0.11785496  1.0
  Ni  Ni93  1  0.50000000  0.00000000  0.11785496  1.0
  Ni  Ni94  1  0.50000000  0.33333333  0.11785496  1.0
  Ni  Ni95  1  0.50000000  0.66666667  0.11785496  1.0
  Ni  Ni96  1  0.83333333  0.00000000  0.11785496  1.0
  Ni  Ni97  1  0.83333333  0.33333333  0.11785496  1.0
  Ni  Ni98  1  0.83333333  0.66666667  0.11785496  1.0
  Ni  Ni99  1  0.00000000  0.00000000  0.15952162  1.0
  Ni  Ni100  1  0.00000000  0.33333333  0.15952162  1.0
  Ni  Ni101  1  0.00000000  0.66666667  0.15952163  1.0
  Ni  Ni102  1  0.33333333  0.00000000  0.15952162  1.0
  Ni  Ni103  1  0.33333333  0.33333333  0.15952163  1.0
  Ni  Ni104  1  0.33333333  0.66666667  0.15952163  1.0
  Ni  Ni105  1  0.66666667  0.00000000  0.15952162  1.0
  Ni  Ni106  1  0.66666667  0.33333333  0.15952163  1.0
  Ni  Ni107  1  0.66666667  0.66666667  0.15952163  1.0
  Fe  Fe108  1  0.05555556  0.22382700  0.22856487  1.0
  Fe  Fe109  1  0.05555556  0.55716033  0.22856487  1.0
  Fe  Fe110  1  0.05555556  0.89049367  0.22856487  1.0
  Fe  Fe111  1  0.38888889  0.22382700  0.22856487  1.0
  Fe  Fe112  1  0.38888889  0.55716033  0.22856487  1.0
  Fe  Fe113  1  0.38888889  0.89049367  0.22856487  1.0
  Fe  Fe114  1  0.72222222  0.22382700  0.22856487  1.0
  Fe  Fe115  1  0.72222222  0.55716033  0.22856487  1.0
  Fe  Fe116  1  0.72222222  0.89049367  0.22856487  1.0
  Fe  Fe117  1  0.22222222  0.22382700  0.18689821  1.0
  Fe  Fe118  1  0.22222222  0.55716033  0.18689821  1.0
  Fe  Fe119  1  0.22222222  0.89049367  0.18689821  1.0
  Fe  Fe120  1  0.55555556  0.22382700  0.18689821  1.0
  Fe  Fe121  1  0.55555556  0.55716033  0.18689821  1.0
  Fe  Fe122  1  0.55555556  0.89049367  0.18689821  1.0
  Fe  Fe123  1  0.88888889  0.22382700  0.18689821  1.0
  Fe  Fe124  1  0.88888889  0.55716033  0.18689821  1.0
  Fe  Fe125  1  0.88888889  0.89049367  0.18689821  1.0
  Fe  Fe126  1  0.11111111  0.10950633  0.21547837  1.0
  Fe  Fe127  1  0.11111111  0.44283967  0.21547838  1.0
  Fe  Fe128  1  0.11111111  0.77617300  0.21547838  1.0
  Fe  Fe129  1  0.44444444  0.10950633  0.21547837  1.0
  Fe  Fe130  1  0.44444444  0.44283967  0.21547838  1.0
  Fe  Fe131  1  0.44444444  0.77617300  0.21547838  1.0
  Fe  Fe132  1  0.77777778  0.10950633  0.21547837  1.0
  Fe  Fe133  1  0.77777778  0.44283967  0.21547838  1.0
  Fe  Fe134  1  0.77777778  0.77617300  0.21547837  1.0
  Fe  Fe135  1  0.27777778  0.10950633  0.17381171  1.0
  Fe  Fe136  1  0.27777778  0.44283967  0.17381171  1.0
  Fe  Fe137  1  0.27777778  0.77617300  0.17381171  1.0
  Fe  Fe138  1  0.61111111  0.10950633  0.17381171  1.0
  Fe  Fe139  1  0.61111111  0.44283967  0.17381171  1.0
  Fe  Fe140  1  0.61111111  0.77617300  0.17381171  1.0
  Fe  Fe141  1  0.94444444  0.10950633  0.17381171  1.0
  Fe  Fe142  1  0.94444444  0.44283967  0.17381171  1.0
  Fe  Fe143  1  0.94444444  0.77617300  0.17381171  1.0
  Ni  Ni144  1  0.16666667  0.00000000  0.20118829  1.0
  Ni  Ni145  1  0.16666667  0.33333333  0.20118829  1.0
  Ni  Ni146  1  0.16666667  0.66666667  0.20118829  1.0
  Ni  Ni147  1  0.50000000  0.00000000  0.20118829  1.0
  Ni  Ni148  1  0.50000000  0.33333333  0.20118829  1.0
  Ni  Ni149  1  0.50000000  0.66666667  0.20118829  1.0
  Ni  Ni150  1  0.83333333  0.00000000  0.20118829  1.0
  Ni  Ni151  1  0.83333333  0.33333333  0.20118829  1.0
  Ni  Ni152  1  0.83333333  0.66666667  0.20118829  1.0
  Ni  Ni153  1  0.00000000  0.00000000  0.24285496  1.0
  Ni  Ni154  1  0.00000000  0.33333333  0.24285496  1.0
  Ni  Ni155  1  0.00000000  0.66666667  0.24285496  1.0
  Ni  Ni156  1  0.33333333  0.00000000  0.24285496  1.0
  Ni  Ni157  1  0.33333333  0.33333333  0.24285496  1.0
  Ni  Ni158  1  0.33333333  0.66666667  0.24285496  1.0
  Ni  Ni159  1  0.66666667  0.00000000  0.24285496  1.0
  Ni  Ni160  1  0.66666667  0.33333333  0.24285496  1.0
  Ni  Ni161  1  0.66666667  0.66666667  0.24285496  1.0
  Fe  Fe162  1  0.05555556  0.22382700  0.31189821  1.0
  Fe  Fe163  1  0.05555556  0.55716033  0.31189821  1.0
  Fe  Fe164  1  0.05555556  0.89049367  0.31189821  1.0
  Fe  Fe165  1  0.38888889  0.22382700  0.31189821  1.0
  Fe  Fe166  1  0.38888889  0.55716033  0.31189821  1.0
  Fe  Fe167  1  0.38888889  0.89049367  0.31189821  1.0
  Fe  Fe168  1  0.72222222  0.22382700  0.31189821  1.0
  Fe  Fe169  1  0.72222222  0.55716033  0.31189821  1.0
  Fe  Fe170  1  0.72222222  0.89049367  0.31189821  1.0
  Fe  Fe171  1  0.22222222  0.22382700  0.27023154  1.0
  Fe  Fe172  1  0.22222222  0.55716033  0.27023154  1.0
  Fe  Fe173  1  0.22222222  0.89049367  0.27023154  1.0
  Fe  Fe174  1  0.55555556  0.22382700  0.27023154  1.0
  Fe  Fe175  1  0.55555556  0.55716033  0.27023154  1.0
  Fe  Fe176  1  0.55555556  0.89049367  0.27023154  1.0
  Fe  Fe177  1  0.88888889  0.22382700  0.27023154  1.0
  Fe  Fe178  1  0.88888889  0.55716033  0.27023154  1.0
  Fe  Fe179  1  0.88888889  0.89049367  0.27023154  1.0
  Fe  Fe180  1  0.11111111  0.10950633  0.29881171  1.0
  Fe  Fe181  1  0.11111111  0.44283967  0.29881171  1.0
  Fe  Fe182  1  0.11111111  0.77617300  0.29881171  1.0
  Fe  Fe183  1  0.44444444  0.10950633  0.29881171  1.0
  Fe  Fe184  1  0.44444444  0.44283967  0.29881171  1.0
  Fe  Fe185  1  0.44444444  0.77617300  0.29881171  1.0
  Fe  Fe186  1  0.77777778  0.10950633  0.29881171  1.0
  Fe  Fe187  1  0.77777778  0.44283967  0.29881171  1.0
  Fe  Fe188  1  0.77777778  0.77617300  0.29881171  1.0
  Fe  Fe189  1  0.27777778  0.10950633  0.25714504  1.0
  Fe  Fe190  1  0.27777778  0.44283967  0.25714504  1.0
  Fe  Fe191  1  0.27777778  0.77617300  0.25714504  1.0
  Fe  Fe192  1  0.61111111  0.10950633  0.25714504  1.0
  Fe  Fe193  1  0.61111111  0.44283967  0.25714504  1.0
  Fe  Fe194  1  0.61111111  0.77617300  0.25714504  1.0
  Fe  Fe195  1  0.94444444  0.10950633  0.25714504  1.0
  Fe  Fe196  1  0.94444444  0.44283967  0.25714504  1.0
  Fe  Fe197  1  0.94444444  0.77617300  0.25714504  1.0
  Ni  Ni198  1  0.16666667  0.00000000  0.28452163  1.0
  Ni  Ni199  1  0.16666667  0.33333333  0.28452163  1.0
  Ni  Ni200  1  0.16666667  0.66666667  0.28452163  1.0
  Ni  Ni201  1  0.50000000  0.00000000  0.28452163  1.0
  Ni  Ni202  1  0.50000000  0.33333333  0.28452163  1.0
  Ni  Ni203  1  0.50000000  0.66666667  0.28452163  1.0
  Ni  Ni204  1  0.83333333  0.00000000  0.28452163  1.0
  Ni  Ni205  1  0.83333333  0.33333333  0.28452163  1.0
  Ni  Ni206  1  0.83333333  0.66666667  0.28452163  1.0
  Ni  Ni207  1  0.00000000  0.00000000  0.32618829  1.0
  Ni  Ni208  1  0.00000000  0.33333333  0.32618829  1.0
  Ni  Ni209  1  0.00000000  0.66666667  0.32618829  1.0
  Ni  Ni210  1  0.33333333  0.00000000  0.32618829  1.0
  Ni  Ni211  1  0.33333333  0.33333333  0.32618829  1.0
  Ni  Ni212  1  0.33333333  0.66666667  0.32618829  1.0
  Ni  Ni213  1  0.66666667  0.00000000  0.32618829  1.0
  Ni  Ni214  1  0.66666667  0.33333333  0.32618829  1.0
  Ni  Ni215  1  0.66666667  0.66666667  0.32618829  1.0
  Fe  Fe216  1  0.05555556  0.22382700  0.39523154  1.0
  Fe  Fe217  1  0.05555556  0.55716033  0.39523154  1.0
  Fe  Fe218  1  0.05555556  0.89049367  0.39523154  1.0
  Fe  Fe219  1  0.38888889  0.22382700  0.39523154  1.0
  Fe  Fe220  1  0.38888889  0.55716033  0.39523154  1.0
  Fe  Fe221  1  0.38888889  0.89049367  0.39523154  1.0
  Fe  Fe222  1  0.72222222  0.22382700  0.39523154  1.0
  Fe  Fe223  1  0.72222222  0.55716033  0.39523154  1.0
  Fe  Fe224  1  0.72222222  0.89049367  0.39523154  1.0
  Fe  Fe225  1  0.22222222  0.22382700  0.35356488  1.0
  Fe  Fe226  1  0.22222222  0.55716033  0.35356488  1.0
  Fe  Fe227  1  0.22222222  0.89049367  0.35356488  1.0
  Fe  Fe228  1  0.55555556  0.22382700  0.35356488  1.0
  Fe  Fe229  1  0.55555556  0.55716033  0.35356488  1.0
  Fe  Fe230  1  0.55555556  0.89049367  0.35356488  1.0
  Fe  Fe231  1  0.88888889  0.22382700  0.35356488  1.0
  Fe  Fe232  1  0.88888889  0.55716033  0.35356488  1.0
  Fe  Fe233  1  0.88888889  0.89049367  0.35356488  1.0
  Fe  Fe234  1  0.11111111  0.10950633  0.38214504  1.0
  Fe  Fe235  1  0.11111111  0.44283967  0.38214504  1.0
  Fe  Fe236  1  0.11111111  0.77617300  0.38214504  1.0
  Fe  Fe237  1  0.44444444  0.10950633  0.38214504  1.0
  Fe  Fe238  1  0.44444444  0.44283967  0.38214504  1.0
  Fe  Fe239  1  0.44444444  0.77617300  0.38214504  1.0
  Fe  Fe240  1  0.77777778  0.10950633  0.38214504  1.0
  Fe  Fe241  1  0.77777778  0.44283967  0.38214504  1.0
  Fe  Fe242  1  0.77777778  0.77617300  0.38214504  1.0
  Fe  Fe243  1  0.27777778  0.10950633  0.34047837  1.0
  Fe  Fe244  1  0.27777778  0.44283967  0.34047837  1.0
  Fe  Fe245  1  0.27777778  0.77617300  0.34047837  1.0
  Fe  Fe246  1  0.61111111  0.10950633  0.34047837  1.0
  Fe  Fe247  1  0.61111111  0.44283967  0.34047837  1.0
  Fe  Fe248  1  0.61111111  0.77617300  0.34047837  1.0
  Fe  Fe249  1  0.94444444  0.10950633  0.34047837  1.0
  Fe  Fe250  1  0.94444444  0.44283967  0.34047837  1.0
  Fe  Fe251  1  0.94444444  0.77617300  0.34047837  1.0
  Ni  Ni252  1  0.16666667  0.00000000  0.36785496  1.0
  Ni  Ni253  1  0.16666667  0.33333333  0.36785496  1.0
  Ni  Ni254  1  0.16666667  0.66666667  0.36785496  1.0
  Ni  Ni255  1  0.50000000  0.00000000  0.36785496  1.0
  Ni  Ni256  1  0.50000000  0.33333333  0.36785496  1.0
  Ni  Ni257  1  0.50000000  0.66666667  0.36785496  1.0
  Ni  Ni258  1  0.83333333  0.00000000  0.36785496  1.0
  Ni  Ni259  1  0.83333333  0.33333333  0.36785496  1.0
  Ni  Ni260  1  0.83333333  0.66666667  0.36785496  1.0
  Ni  Ni261  1  0.00000000  0.00000000  0.40952163  1.0
  Ni  Ni262  1  0.00000000  0.33333333  0.40952163  1.0
  Ni  Ni263  1  0.00000000  0.66666667  0.40952163  1.0
  Ni  Ni264  1  0.33333333  0.00000000  0.40952163  1.0
  Ni  Ni265  1  0.33333333  0.33333333  0.40952163  1.0
  Ni  Ni266  1  0.33333333  0.66666667  0.40952163  1.0
  Ni  Ni267  1  0.66666667  0.00000000  0.40952163  1.0
  Ni  Ni268  1  0.66666667  0.33333333  0.40952163  1.0
  Ni  Ni269  1  0.66666667  0.66666667  0.40952163  1.0
