# generated using pymatgen
data_Fe2Ni
_symmetry_space_group_name_H-M   'P 1'
_cell_length_a   13.08228457
_cell_length_b   38.35063198
_cell_length_c   50.35373680
_cell_angle_alpha   101.35851276
_cell_angle_beta   150.00000000
_cell_angle_gamma   80.17953108
_symmetry_Int_Tables_number   1
_chemical_formula_structural   Fe2Ni
_chemical_formula_sum   'Fe288 Ni144'
_cell_volume   12384.18264172
_cell_formula_units_Z   144
loop_
 _symmetry_equiv_pos_site_id
 _symmetry_equiv_pos_as_xyz
  1  'x, y, z'
loop_
 _atom_site_type_symbol
 _atom_site_label
 _atom_site_symmetry_multiplicity
 _atom_site_fract_x
 _atom_site_fract_y
 _atom_site_fract_z
 _atom_site_occupancy
  Fe  Fe0  1  0.22222222  0.11191350  0.01268054  1.0
  Fe  Fe1  1  0.22222222  0.44524683  0.01268054  1.0
  Fe  Fe2  1  0.22222222  0.77858017  0.01268054  1.0
  Fe  Fe3  1  0.55555556  0.11191350  0.01268054  1.0
  Fe  Fe4  1  0.55555556  0.44524683  0.01268054  1.0
  Fe  Fe5  1  0.55555556  0.77858017  0.01268054  1.0
  Fe  Fe6  1  0.88888889  0.11191350  0.01268054  1.0
  Fe  Fe7  1  0.88888889  0.44524683  0.01268054  1.0
  Fe  Fe8  1  0.88888889  0.77858017  0.01268054  1.0
  Fe  Fe9  1  0.22222222  0.27858017  0.03768054  1.0
  Fe  Fe10  1  0.22222222  0.61191350  0.03768054  1.0
  Fe  Fe11  1  0.22222222  0.94524683  0.03768054  1.0
  Fe  Fe12  1  0.55555556  0.27858017  0.03768054  1.0
  Fe  Fe13  1  0.55555556  0.61191350  0.03768054  1.0
  Fe  Fe14  1  0.55555556  0.94524683  0.03768054  1.0
  Fe  Fe15  1  0.88888889  0.27858017  0.03768054  1.0
  Fe  Fe16  1  0.88888889  0.61191350  0.03768054  1.0
  Fe  Fe17  1  0.88888889  0.94524683  0.03768054  1.0
  Fe  Fe18  1  0.11111111  0.05475317  0.00410649  1.0
  Fe  Fe19  1  0.11111111  0.38808650  0.00410649  1.0
  Fe  Fe20  1  0.11111111  0.72141983  0.00410649  1.0
  Fe  Fe21  1  0.44444444  0.05475317  0.00410649  1.0
  Fe  Fe22  1  0.44444444  0.38808650  0.00410649  1.0
  Fe  Fe23  1  0.44444444  0.72141983  0.00410649  1.0
  Fe  Fe24  1  0.77777778  0.05475317  0.00410649  1.0
  Fe  Fe25  1  0.77777778  0.38808650  0.00410649  1.0
  Fe  Fe26  1  0.77777778  0.72141983  0.00410649  1.0
  Fe  Fe27  1  0.11111111  0.22141983  0.02910649  1.0
  Fe  Fe28  1  0.11111111  0.55475317  0.02910649  1.0
  Fe  Fe29  1  0.11111111  0.88808650  0.02910649  1.0
  Fe  Fe30  1  0.44444444  0.22141983  0.02910649  1.0
  Fe  Fe31  1  0.44444444  0.55475317  0.02910649  1.0
  Fe  Fe32  1  0.44444444  0.88808650  0.02910649  1.0
  Fe  Fe33  1  0.77777778  0.22141983  0.02910649  1.0
  Fe  Fe34  1  0.77777778  0.55475317  0.02910649  1.0
  Fe  Fe35  1  0.77777778  0.88808650  0.02910649  1.0
  Ni  Ni36  1  0.00000000  0.00000000  0.04589351  1.0
  Ni  Ni37  1  0.00000000  0.33333333  0.04589351  1.0
  Ni  Ni38  1  0.00000000  0.66666667  0.04589351  1.0
  Ni  Ni39  1  0.33333333  0.00000000  0.04589351  1.0
  Ni  Ni40  1  0.33333333  0.33333333  0.04589351  1.0
  Ni  Ni41  1  0.33333333  0.66666667  0.04589351  1.0
  Ni  Ni42  1  0.66666667  0.00000000  0.04589351  1.0
  Ni  Ni43  1  0.66666667  0.33333333  0.04589351  1.0
  Ni  Ni44  1  0.66666667  0.66666667  0.04589351  1.0
  Ni  Ni45  1  0.00000000  0.16666667  0.02089351  1.0
  Ni  Ni46  1  0.00000000  0.50000000  0.02089351  1.0
  Ni  Ni47  1  0.00000000  0.83333333  0.02089351  1.0
  Ni  Ni48  1  0.33333333  0.16666667  0.02089351  1.0
  Ni  Ni49  1  0.33333333  0.50000000  0.02089351  1.0
  Ni  Ni50  1  0.33333333  0.83333333  0.02089351  1.0
  Ni  Ni51  1  0.66666667  0.16666667  0.02089351  1.0
  Ni  Ni52  1  0.66666667  0.50000000  0.02089351  1.0
  Ni  Ni53  1  0.66666667  0.83333333  0.02089351  1.0
  Fe  Fe54  1  0.22222222  0.11191350  0.06268054  1.0
  Fe  Fe55  1  0.22222222  0.44524683  0.06268054  1.0
  Fe  Fe56  1  0.22222222  0.77858017  0.06268054  1.0
  Fe  Fe57  1  0.55555556  0.11191350  0.06268054  1.0
  Fe  Fe58  1  0.55555556  0.44524683  0.06268054  1.0
  Fe  Fe59  1  0.55555556  0.77858017  0.06268054  1.0
  Fe  Fe60  1  0.88888889  0.11191350  0.06268054  1.0
  Fe  Fe61  1  0.88888889  0.44524683  0.06268054  1.0
  Fe  Fe62  1  0.88888889  0.77858017  0.06268054  1.0
  Fe  Fe63  1  0.22222222  0.27858017  0.08768054  1.0
  Fe  Fe64  1  0.22222222  0.61191350  0.08768054  1.0
  Fe  Fe65  1  0.22222222  0.94524683  0.08768054  1.0
  Fe  Fe66  1  0.55555556  0.27858017  0.08768054  1.0
  Fe  Fe67  1  0.55555556  0.61191350  0.08768054  1.0
  Fe  Fe68  1  0.55555556  0.94524683  0.08768054  1.0
  Fe  Fe69  1  0.88888889  0.27858017  0.08768054  1.0
  Fe  Fe70  1  0.88888889  0.61191350  0.08768054  1.0
  Fe  Fe71  1  0.88888889  0.94524683  0.08768054  1.0
  Fe  Fe72  1  0.11111111  0.05475317  0.05410649  1.0
  Fe  Fe73  1  0.11111111  0.38808650  0.05410649  1.0
  Fe  Fe74  1  0.11111111  0.72141983  0.05410649  1.0
  Fe  Fe75  1  0.44444444  0.05475317  0.05410649  1.0
  Fe  Fe76  1  0.44444444  0.38808650  0.05410649  1.0
  Fe  Fe77  1  0.44444444  0.72141983  0.05410649  1.0
  Fe  Fe78  1  0.77777778  0.05475317  0.05410649  1.0
  Fe  Fe79  1  0.77777778  0.38808650  0.05410649  1.0
  Fe  Fe80  1  0.77777778  0.72141983  0.05410649  1.0
  Fe  Fe81  1  0.11111111  0.22141983  0.07910649  1.0
  Fe  Fe82  1  0.11111111  0.55475317  0.07910649  1.0
  Fe  Fe83  1  0.11111111  0.88808650  0.07910649  1.0
  Fe  Fe84  1  0.44444444  0.22141983  0.07910649  1.0
  Fe  Fe85  1  0.44444444  0.55475317  0.07910649  1.0
  Fe  Fe86  1  0.44444444  0.88808650  0.07910649  1.0
  Fe  Fe87  1  0.77777778  0.22141983  0.07910649  1.0
  Fe  Fe88  1  0.77777778  0.55475317  0.07910649  1.0
  Fe  Fe89  1  0.77777778  0.88808650  0.07910649  1.0
  Ni  Ni90  1  0.00000000  0.00000000  0.09589351  1.0
  Ni  Ni91  1  0.00000000  0.33333333  0.09589351  1.0
  Ni  Ni92  1  0.00000000  0.66666667  0.09589351  1.0
  Ni  Ni93  1  0.33333333  0.00000000  0.09589351  1.0
  Ni  Ni94  1  0.33333333  0.33333333  0.09589351  1.0
  Ni  Ni95  1  0.33333333  0.66666667  0.09589351  1.0
  Ni  Ni96  1  0.66666667  0.00000000  0.09589351  1.0
  Ni  Ni97  1  0.66666667  0.33333333  0.09589351  1.0
  Ni  Ni98  1  0.66666667  0.66666667  0.09589351  1.0
  Ni  Ni99  1  0.00000000  0.16666667  0.07089351  1.0
  Ni  Ni100  1  0.00000000  0.50000000  0.07089351  1.0
  Ni  Ni101  1  0.00000000  0.83333333  0.07089351  1.0
  Ni  Ni102  1  0.33333333  0.16666667  0.07089351  1.0
  Ni  Ni103  1  0.33333333  0.50000000  0.07089351  1.0
  Ni  Ni104  1  0.33333333  0.83333333  0.07089351  1.0
  Ni  Ni105  1  0.66666667  0.16666667  0.07089351  1.0
  Ni  Ni106  1  0.66666667  0.50000000  0.07089351  1.0
  Ni  Ni107  1  0.66666667  0.83333333  0.07089351  1.0
  Fe  Fe108  1  0.22222222  0.11191350  0.11268054  1.0
  Fe  Fe109  1  0.22222222  0.44524683  0.11268054  1.0
  Fe  Fe110  1  0.22222222  0.77858017  0.11268054  1.0
  Fe  Fe111  1  0.55555556  0.11191350  0.11268054  1.0
  Fe  Fe112  1  0.55555556  0.44524683  0.11268054  1.0
  Fe  Fe113  1  0.55555556  0.77858017  0.11268054  1.0
  Fe  Fe114  1  0.88888889  0.11191350  0.11268054  1.0
  Fe  Fe115  1  0.88888889  0.44524683  0.11268054  1.0
  Fe  Fe116  1  0.88888889  0.77858017  0.11268054  1.0
  Fe  Fe117  1  0.22222222  0.27858017  0.13768054  1.0
  Fe  Fe118  1  0.22222222  0.61191350  0.13768054  1.0
  Fe  Fe119  1  0.22222222  0.94524683  0.13768054  1.0
  Fe  Fe120  1  0.55555556  0.27858017  0.13768054  1.0
  Fe  Fe121  1  0.55555556  0.61191350  0.13768054  1.0
  Fe  Fe122  1  0.55555556  0.94524683  0.13768054  1.0
  Fe  Fe123  1  0.88888889  0.27858017  0.13768054  1.0
  Fe  Fe124  1  0.88888889  0.61191350  0.13768054  1.0
  Fe  Fe125  1  0.88888889  0.94524683  0.13768054  1.0
  Fe  Fe126  1  0.11111111  0.05475317  0.10410649  1.0
  Fe  Fe127  1  0.11111111  0.38808650  0.10410649  1.0
  Fe  Fe128  1  0.11111111  0.72141983  0.10410649  1.0
  Fe  Fe129  1  0.44444444  0.05475317  0.10410649  1.0
  Fe  Fe130  1  0.44444444  0.38808650  0.10410649  1.0
  Fe  Fe131  1  0.44444444  0.72141983  0.10410649  1.0
  Fe  Fe132  1  0.77777778  0.05475317  0.10410649  1.0
  Fe  Fe133  1  0.77777778  0.38808650  0.10410649  1.0
  Fe  Fe134  1  0.77777778  0.72141983  0.10410649  1.0
  Fe  Fe135  1  0.11111111  0.22141983  0.12910649  1.0
  Fe  Fe136  1  0.11111111  0.55475317  0.12910649  1.0
  Fe  Fe137  1  0.11111111  0.88808650  0.12910649  1.0
  Fe  Fe138  1  0.44444444  0.22141983  0.12910649  1.0
  Fe  Fe139  1  0.44444444  0.55475317  0.12910649  1.0
  Fe  Fe140  1  0.44444444  0.88808650  0.12910649  1.0
  Fe  Fe141  1  0.77777778  0.22141983  0.12910649  1.0
  Fe  Fe142  1  0.77777778  0.55475317  0.12910649  1.0
  Fe  Fe143  1  0.77777778  0.88808650  0.12910649  1.0
  Ni  Ni144  1  0.00000000  0.00000000  0.14589351  1.0
  Ni  Ni145  1  0.00000000  0.33333333  0.14589351  1.0
  Ni  Ni146  1  0.00000000  0.66666667  0.14589351  1.0
  Ni  Ni147  1  0.33333333  0.00000000  0.14589351  1.0
  Ni  Ni148  1  0.33333333  0.33333333  0.14589351  1.0
  Ni  Ni149  1  0.33333333  0.66666667  0.14589351  1.0
  Ni  Ni150  1  0.66666667  0.00000000  0.14589351  1.0
  Ni  Ni151  1  0.66666667  0.33333333  0.14589351  1.0
  Ni  Ni152  1  0.66666667  0.66666667  0.14589351  1.0
  Ni  Ni153  1  0.00000000  0.16666667  0.12089351  1.0
  Ni  Ni154  1  0.00000000  0.50000000  0.12089351  1.0
  Ni  Ni155  1  0.00000000  0.83333333  0.12089351  1.0
  Ni  Ni156  1  0.33333333  0.16666667  0.12089351  1.0
  Ni  Ni157  1  0.33333333  0.50000000  0.12089351  1.0
  Ni  Ni158  1  0.33333333  0.83333333  0.12089351  1.0
  Ni  Ni159  1  0.66666667  0.16666667  0.12089351  1.0
  Ni  Ni160  1  0.66666667  0.50000000  0.12089351  1.0
  Ni  Ni161  1  0.66666667  0.83333333  0.12089351  1.0
  Fe  Fe162  1  0.22222222  0.11191350  0.16268054  1.0
  Fe  Fe163  1  0.22222222  0.44524683  0.16268054  1.0
  Fe  Fe164  1  0.22222222  0.77858017  0.16268054  1.0
  Fe  Fe165  1  0.55555556  0.11191350  0.16268054  1.0
  Fe  Fe166  1  0.55555556  0.44524683  0.16268054  1.0
  Fe  Fe167  1  0.55555556  0.77858017  0.16268054  1.0
  Fe  Fe168  1  0.88888889  0.11191350  0.16268054  1.0
  Fe  Fe169  1  0.88888889  0.44524683  0.16268054  1.0
  Fe  Fe170  1  0.88888889  0.77858017  0.16268054  1.0
  Fe  Fe171  1  0.22222222  0.27858017  0.18768054  1.0
  Fe  Fe172  1  0.22222222  0.61191350  0.18768054  1.0
  Fe  Fe173  1  0.22222222  0.94524683  0.18768054  1.0
  Fe  Fe174  1  0.55555556  0.27858017  0.18768054  1.0
  Fe  Fe175  1  0.55555556  0.61191350  0.18768054  1.0
  Fe  Fe176  1  0.55555556  0.94524683  0.18768054  1.0
  Fe  Fe177  1  0.88888889  0.27858017  0.18768054  1.0
  Fe  Fe178  1  0.88888889  0.61191350  0.18768054  1.0
  Fe  Fe179  1  0.88888889  0.94524683  0.18768054  1.0
  Fe  Fe180  1  0.11111111  0.05475317  0.15410649  1.0
  Fe  Fe181  1  0.11111111  0.38808650  0.15410649  1.0
  Fe  Fe182  1  0.11111111  0.72141983  0.15410649  1.0
  Fe  Fe183  1  0.44444444  0.05475317  0.15410649  1.0
  Fe  Fe184  1  0.44444444  0.38808650  0.15410649  1.0
  Fe  Fe185  1  0.44444444  0.72141983  0.15410649  1.0
  Fe  Fe186  1  0.77777778  0.05475317  0.15410649  1.0
  Fe  Fe187  1  0.77777778  0.38808650  0.15410649  1.0
  Fe  Fe188  1  0.77777778  0.72141983  0.15410649  1.0
  Fe  Fe189  1  0.11111111  0.22141983  0.17910649  1.0
  Fe  Fe190  1  0.11111111  0.55475317  0.17910649  1.0
  Fe  Fe191  1  0.11111111  0.88808650  0.17910649  1.0
  Fe  Fe192  1  0.44444444  0.22141983  0.17910649  1.0
  Fe  Fe193  1  0.44444444  0.55475317  0.17910649  1.0
  Fe  Fe194  1  0.44444444  0.88808650  0.17910649  1.0
  Fe  Fe195  1  0.77777778  0.22141983  0.17910649  1.0
  Fe  Fe196  1  0.77777778  0.55475317  0.17910649  1.0
  Fe  Fe197  1  0.77777778  0.88808650  0.17910649  1.0
  Ni  Ni198  1  0.00000000  0.00000000  0.19589351  1.0
  Ni  Ni199  1  0.00000000  0.33333333  0.19589351  1.0
  Ni  Ni200  1  0.00000000  0.66666667  0.19589351  1.0
  Ni  Ni201  1  0.33333333  0.00000000  0.19589351  1.0
  Ni  Ni202  1  0.33333333  0.33333333  0.19589351  1.0
  Ni  Ni203  1  0.33333333  0.66666667  0.19589351  1.0
  Ni  Ni204  1  0.66666667  0.00000000  0.19589351  1.0
  Ni  Ni205  1  0.66666667  0.33333333  0.19589351  1.0
  Ni  Ni206  1  0.66666667  0.66666667  0.19589351  1.0
  Ni  Ni207  1  0.00000000  0.16666667  0.17089351  1.0
  Ni  Ni208  1  0.00000000  0.50000000  0.17089351  1.0
  Ni  Ni209  1  0.00000000  0.83333333  0.17089351  1.0
  Ni  Ni210  1  0.33333333  0.16666667  0.17089351  1.0
  Ni  Ni211  1  0.33333333  0.50000000  0.17089351  1.0
  Ni  Ni212  1  0.33333333  0.83333333  0.17089351  1.0
  Ni  Ni213  1  0.66666667  0.16666667  0.17089351  1.0
  Ni  Ni214  1  0.66666667  0.50000000  0.17089351  1.0
  Ni  Ni215  1  0.66666667  0.83333333  0.17089351  1.0
  Fe  Fe216  1  0.22222222  0.11191350  0.21268054  1.0
  Fe  Fe217  1  0.22222222  0.44524683  0.21268054  1.0
  Fe  Fe218  1  0.22222222  0.77858017  0.21268054  1.0
  Fe  Fe219  1  0.55555556  0.11191350  0.21268054  1.0
  Fe  Fe220  1  0.55555556  0.44524683  0.21268054  1.0
  Fe  Fe221  1  0.55555556  0.77858017  0.21268054  1.0
  Fe  Fe222  1  0.88888889  0.11191350  0.21268054  1.0
  Fe  Fe223  1  0.88888889  0.44524683  0.21268054  1.0
  Fe  Fe224  1  0.88888889  0.77858017  0.21268054  1.0
  Fe  Fe225  1  0.22222222  0.27858017  0.23768054  1.0
  Fe  Fe226  1  0.22222222  0.61191350  0.23768054  1.0
  Fe  Fe227  1  0.22222222  0.94524683  0.23768054  1.0
  Fe  Fe228  1  0.55555556  0.27858017  0.23768054  1.0
  Fe  Fe229  1  0.55555556  0.61191350  0.23768054  1.0
  Fe  Fe230  1  0.55555556  0.94524683  0.23768054  1.0
  Fe  Fe231  1  0.88888889  0.27858017  0.23768054  1.0
  Fe  Fe232  1  0.88888889  0.61191350  0.23768054  1.0
  Fe  Fe233  1  0.88888889  0.94524683  0.23768054  1.0
  Fe  Fe234  1  0.11111111  0.05475317  0.20410649  1.0
  Fe  Fe235  1  0.11111111  0.38808650  0.20410649  1.0
  Fe  Fe236  1  0.11111111  0.72141983  0.20410649  1.0
  Fe  Fe237  1  0.44444444  0.05475317  0.20410649  1.0
  Fe  Fe238  1  0.44444444  0.38808650  0.20410649  1.0
  Fe  Fe239  1  0.44444444  0.72141983  0.20410649  1.0
  Fe  Fe240  1  0.77777778  0.05475317  0.20410649  1.0
  Fe  Fe241  1  0.77777778  0.38808650  0.20410649  1.0
  Fe  Fe242  1  0.77777778  0.72141983  0.20410649  1.0
  Fe  Fe243  1  0.11111111  0.22141983  0.22910649  1.0
  Fe  Fe244  1  0.11111111  0.55475317  0.22910649  1.0
  Fe  Fe245  1  0.11111111  0.88808650  0.22910649  1.0
  Fe  Fe246  1  0.44444444  0.22141983  0.22910649  1.0
  Fe  Fe247  1  0.44444444  0.55475317  0.22910649  1.0
  Fe  Fe248  1  0.44444444  0.88808650  0.22910649  1.0
  Fe  Fe249  1  0.77777778  0.22141983  0.22910649  1.0
  Fe  Fe250  1  0.77777778  0.55475317  0.22910649  1.0
  Fe  Fe251  1  0.77777778  0.88808650  0.22910649  1.0
  Ni  Ni252  1  0.00000000  0.00000000  0.24589351  1.0
  Ni  Ni253  1  0.00000000  0.33333333  0.24589351  1.0
  Ni  Ni254  1  0.00000000  0.66666667  0.24589351  1.0
  Ni  Ni255  1  0.33333333  0.00000000  0.24589351  1.0
  Ni  Ni256  1  0.33333333  0.33333333  0.24589351  1.0
  Ni  Ni257  1  0.33333333  0.66666667  0.24589351  1.0
  Ni  Ni258  1  0.66666667  0.00000000  0.24589351  1.0
  Ni  Ni259  1  0.66666667  0.33333333  0.24589351  1.0
  Ni  Ni260  1  0.66666667  0.66666667  0.24589351  1.0
  Ni  Ni261  1  0.00000000  0.16666667  0.22089351  1.0
  Ni  Ni262  1  0.00000000  0.50000000  0.22089351  1.0
  Ni  Ni263  1  0.00000000  0.83333333  0.22089351  1.0
  Ni  Ni264  1  0.33333333  0.16666667  0.22089351  1.0
  Ni  Ni265  1  0.33333333  0.50000000  0.22089351  1.0
  Ni  Ni266  1  0.33333333  0.83333333  0.22089351  1.0
  Ni  Ni267  1  0.66666667  0.16666667  0.22089351  1.0
  Ni  Ni268  1  0.66666667  0.50000000  0.22089351  1.0
  Ni  Ni269  1  0.66666667  0.83333333  0.22089351  1.0
  Fe  Fe270  1  0.22222222  0.11191350  0.26268054  1.0
  Fe  Fe271  1  0.22222222  0.44524683  0.26268054  1.0
  Fe  Fe272  1  0.22222222  0.77858017  0.26268054  1.0
  Fe  Fe273  1  0.55555556  0.11191350  0.26268054  1.0
  Fe  Fe274  1  0.55555556  0.44524683  0.26268054  1.0
  Fe  Fe275  1  0.55555556  0.77858017  0.26268054  1.0
  Fe  Fe276  1  0.88888889  0.11191350  0.26268054  1.0
  Fe  Fe277  1  0.88888889  0.44524683  0.26268054  1.0
  Fe  Fe278  1  0.88888889  0.77858017  0.26268054  1.0
  Fe  Fe279  1  0.22222222  0.27858017  0.28768054  1.0
  Fe  Fe280  1  0.22222222  0.61191350  0.28768054  1.0
  Fe  Fe281  1  0.22222222  0.94524683  0.28768054  1.0
  Fe  Fe282  1  0.55555556  0.27858017  0.28768054  1.0
  Fe  Fe283  1  0.55555556  0.61191350  0.28768054  1.0
  Fe  Fe284  1  0.55555556  0.94524683  0.28768054  1.0
  Fe  Fe285  1  0.88888889  0.27858017  0.28768054  1.0
  Fe  Fe286  1  0.88888889  0.61191350  0.28768054  1.0
  Fe  Fe287  1  0.88888889  0.94524683  0.28768054  1.0
  Fe  Fe288  1  0.11111111  0.05475317  0.25410649  1.0
  Fe  Fe289  1  0.11111111  0.38808650  0.25410649  1.0
  Fe  Fe290  1  0.11111111  0.72141983  0.25410649  1.0
  Fe  Fe291  1  0.44444444  0.05475317  0.25410649  1.0
  Fe  Fe292  1  0.44444444  0.38808650  0.25410649  1.0
  Fe  Fe293  1  0.44444444  0.72141983  0.25410649  1.0
  Fe  Fe294  1  0.77777778  0.05475317  0.25410649  1.0
  Fe  Fe295  1  0.77777778  0.38808650  0.25410649  1.0
  Fe  Fe296  1  0.77777778  0.72141983  0.25410649  1.0
  Fe  Fe297  1  0.11111111  0.22141983  0.27910649  1.0
  Fe  Fe298  1  0.11111111  0.55475317  0.27910649  1.0
  Fe  Fe299  1  0.11111111  0.88808650  0.27910649  1.0
  Fe  Fe300  1  0.44444444  0.22141983  0.27910649  1.0
  Fe  Fe301  1  0.44444444  0.55475317  0.27910649  1.0
  Fe  Fe302  1  0.44444444  0.88808650  0.27910649  1.0
  Fe  Fe303  1  0.77777778  0.22141983  0.27910649  1.0
  Fe  Fe304  1  0.77777778  0.55475317  0.27910649  1.0
  Fe  Fe305  1  0.77777778  0.88808650  0.27910649  1.0
  Ni  Ni306  1  0.00000000  0.00000000  0.29589351  1.0
  Ni  Ni307  1  0.00000000  0.33333333  0.29589351  1.0
  Ni  Ni308  1  0.00000000  0.66666667  0.29589351  1.0
  Ni  Ni309  1  0.33333333  0.00000000  0.29589351  1.0
  Ni  Ni310  1  0.33333333  0.33333333  0.29589351  1.0
  Ni  Ni311  1  0.33333333  0.66666667  0.29589351  1.0
  Ni  Ni312  1  0.66666667  0.00000000  0.29589351  1.0
  Ni  Ni313  1  0.66666667  0.33333333  0.29589351  1.0
  Ni  Ni314  1  0.66666667  0.66666667  0.29589351  1.0
  Ni  Ni315  1  0.00000000  0.16666667  0.27089351  1.0
  Ni  Ni316  1  0.00000000  0.50000000  0.27089351  1.0
  Ni  Ni317  1  0.00000000  0.83333333  0.27089351  1.0
  Ni  Ni318  1  0.33333333  0.16666667  0.27089351  1.0
  Ni  Ni319  1  0.33333333  0.50000000  0.27089351  1.0
  Ni  Ni320  1  0.33333333  0.83333333  0.27089351  1.0
  Ni  Ni321  1  0.66666667  0.16666667  0.27089351  1.0
  Ni  Ni322  1  0.66666667  0.50000000  0.27089351  1.0
  Ni  Ni323  1  0.66666667  0.83333333  0.27089351  1.0
  Fe  Fe324  1  0.22222222  0.11191350  0.31268054  1.0
  Fe  Fe325  1  0.22222222  0.44524683  0.31268054  1.0
  Fe  Fe326  1  0.22222222  0.77858017  0.31268054  1.0
  Fe  Fe327  1  0.55555556  0.11191350  0.31268054  1.0
  Fe  Fe328  1  0.55555556  0.44524683  0.31268054  1.0
  Fe  Fe329  1  0.55555556  0.77858017  0.31268054  1.0
  Fe  Fe330  1  0.88888889  0.11191350  0.31268054  1.0
  Fe  Fe331  1  0.88888889  0.44524683  0.31268054  1.0
  Fe  Fe332  1  0.88888889  0.77858017  0.31268054  1.0
  Fe  Fe333  1  0.22222222  0.27858017  0.33768054  1.0
  Fe  Fe334  1  0.22222222  0.61191350  0.33768054  1.0
  Fe  Fe335  1  0.22222222  0.94524683  0.33768054  1.0
  Fe  Fe336  1  0.55555556  0.27858017  0.33768054  1.0
  Fe  Fe337  1  0.55555556  0.61191350  0.33768054  1.0
  Fe  Fe338  1  0.55555556  0.94524683  0.33768054  1.0
  Fe  Fe339  1  0.88888889  0.27858017  0.33768054  1.0
  Fe  Fe340  1  0.88888889  0.61191350  0.33768054  1.0
  Fe  Fe341  1  0.88888889  0.94524683  0.33768054  1.0
  Fe  Fe342  1  0.11111111  0.05475317  0.30410649  1.0
  Fe  Fe343  1  0.11111111  0.38808650  0.30410649  1.0
  Fe  Fe344  1  0.11111111  0.72141983  0.30410649  1.0
  Fe  Fe345  1  0.44444444  0.05475317  0.30410649  1.0
  Fe  Fe346  1  0.44444444  0.38808650  0.30410649  1.0
  Fe  Fe347  1  0.44444444  0.72141983  0.30410649  1.0
  Fe  Fe348  1  0.77777778  0.05475317  0.30410649  1.0
  Fe  Fe349  1  0.77777778  0.38808650  0.30410649  1.0
  Fe  Fe350  1  0.77777778  0.72141983  0.30410649  1.0
  Fe  Fe351  1  0.11111111  0.22141983  0.32910649  1.0
  Fe  Fe352  1  0.11111111  0.55475317  0.32910649  1.0
  Fe  Fe353  1  0.11111111  0.88808650  0.32910649  1.0
  Fe  Fe354  1  0.44444444  0.22141983  0.32910649  1.0
  Fe  Fe355  1  0.44444444  0.55475317  0.32910649  1.0
  Fe  Fe356  1  0.44444444  0.88808650  0.32910649  1.0
  Fe  Fe357  1  0.77777778  0.22141983  0.32910649  1.0
  Fe  Fe358  1  0.77777778  0.55475317  0.32910649  1.0
  Fe  Fe359  1  0.77777778  0.88808650  0.32910649  1.0
  Ni  Ni360  1  0.00000000  0.00000000  0.34589351  1.0
  Ni  Ni361  1  0.00000000  0.33333333  0.34589351  1.0
  Ni  Ni362  1  0.00000000  0.66666667  0.34589351  1.0
  Ni  Ni363  1  0.33333333  0.00000000  0.34589351  1.0
  Ni  Ni364  1  0.33333333  0.33333333  0.34589351  1.0
  Ni  Ni365  1  0.33333333  0.66666667  0.34589351  1.0
  Ni  Ni366  1  0.66666667  0.00000000  0.34589351  1.0
  Ni  Ni367  1  0.66666667  0.33333333  0.34589351  1.0
  Ni  Ni368  1  0.66666667  0.66666667  0.34589351  1.0
  Ni  Ni369  1  0.00000000  0.16666667  0.32089351  1.0
  Ni  Ni370  1  0.00000000  0.50000000  0.32089351  1.0
  Ni  Ni371  1  0.00000000  0.83333333  0.32089351  1.0
  Ni  Ni372  1  0.33333333  0.16666667  0.32089351  1.0
  Ni  Ni373  1  0.33333333  0.50000000  0.32089351  1.0
  Ni  Ni374  1  0.33333333  0.83333333  0.32089351  1.0
  Ni  Ni375  1  0.66666667  0.16666667  0.32089351  1.0
  Ni  Ni376  1  0.66666667  0.50000000  0.32089351  1.0
  Ni  Ni377  1  0.66666667  0.83333333  0.32089351  1.0
  Fe  Fe378  1  0.22222222  0.11191350  0.36268054  1.0
  Fe  Fe379  1  0.22222222  0.44524683  0.36268054  1.0
  Fe  Fe380  1  0.22222222  0.77858017  0.36268054  1.0
  Fe  Fe381  1  0.55555556  0.11191350  0.36268054  1.0
  Fe  Fe382  1  0.55555556  0.44524683  0.36268054  1.0
  Fe  Fe383  1  0.55555556  0.77858017  0.36268054  1.0
  Fe  Fe384  1  0.88888889  0.11191350  0.36268054  1.0
  Fe  Fe385  1  0.88888889  0.44524683  0.36268054  1.0
  Fe  Fe386  1  0.88888889  0.77858017  0.36268054  1.0
  Fe  Fe387  1  0.22222222  0.27858017  0.38768054  1.0
  Fe  Fe388  1  0.22222222  0.61191350  0.38768054  1.0
  Fe  Fe389  1  0.22222222  0.94524683  0.38768054  1.0
  Fe  Fe390  1  0.55555556  0.27858017  0.38768054  1.0
  Fe  Fe391  1  0.55555556  0.61191350  0.38768054  1.0
  Fe  Fe392  1  0.55555556  0.94524683  0.38768054  1.0
  Fe  Fe393  1  0.88888889  0.27858017  0.38768054  1.0
  Fe  Fe394  1  0.88888889  0.61191350  0.38768054  1.0
  Fe  Fe395  1  0.88888889  0.94524683  0.38768054  1.0
  Fe  Fe396  1  0.11111111  0.05475317  0.35410649  1.0
  Fe  Fe397  1  0.11111111  0.38808650  0.35410649  1.0
  Fe  Fe398  1  0.11111111  0.72141983  0.35410649  1.0
  Fe  Fe399  1  0.44444444  0.05475317  0.35410649  1.0
  Fe  Fe400  1  0.44444444  0.38808650  0.35410649  1.0
  Fe  Fe401  1  0.44444444  0.72141983  0.35410649  1.0
  Fe  Fe402  1  0.77777778  0.05475317  0.35410649  1.0
  Fe  Fe403  1  0.77777778  0.38808650  0.35410649  1.0
  Fe  Fe404  1  0.77777778  0.72141983  0.35410649  1.0
  Fe  Fe405  1  0.11111111  0.22141983  0.37910649  1.0
  Fe  Fe406  1  0.11111111  0.55475317  0.37910649  1.0
  Fe  Fe407  1  0.11111111  0.88808650  0.37910649  1.0
  Fe  Fe408  1  0.44444444  0.22141983  0.37910649  1.0
  Fe  Fe409  1  0.44444444  0.55475317  0.37910649  1.0
  Fe  Fe410  1  0.44444444  0.88808650  0.37910649  1.0
  Fe  Fe411  1  0.77777778  0.22141983  0.37910649  1.0
  Fe  Fe412  1  0.77777778  0.55475317  0.37910649  1.0
  Fe  Fe413  1  0.77777778  0.88808650  0.37910649  1.0
  Ni  Ni414  1  0.00000000  0.00000000  0.39589351  1.0
  Ni  Ni415  1  0.00000000  0.33333333  0.39589351  1.0
  Ni  Ni416  1  0.00000000  0.66666667  0.39589351  1.0
  Ni  Ni417  1  0.33333333  0.00000000  0.39589351  1.0
  Ni  Ni418  1  0.33333333  0.33333333  0.39589351  1.0
  Ni  Ni419  1  0.33333333  0.66666667  0.39589351  1.0
  Ni  Ni420  1  0.66666667  0.00000000  0.39589351  1.0
  Ni  Ni421  1  0.66666667  0.33333333  0.39589351  1.0
  Ni  Ni422  1  0.66666667  0.66666667  0.39589351  1.0
  Ni  Ni423  1  0.00000000  0.16666667  0.37089351  1.0
  Ni  Ni424  1  0.00000000  0.50000000  0.37089351  1.0
  Ni  Ni425  1  0.00000000  0.83333333  0.37089351  1.0
  Ni  Ni426  1  0.33333333  0.16666667  0.37089351  1.0
  Ni  Ni427  1  0.33333333  0.50000000  0.37089351  1.0
  Ni  Ni428  1  0.33333333  0.83333333  0.37089351  1.0
  Ni  Ni429  1  0.66666667  0.16666667  0.37089351  1.0
  Ni  Ni430  1  0.66666667  0.50000000  0.37089351  1.0
  Ni  Ni431  1  0.66666667  0.83333333  0.37089351  1.0
