# generated using pymatgen
data_Fe2Ni
_symmetry_space_group_name_H-M   'P 1'
_cell_length_a   13.84858590
_cell_length_b   13.84858590
_cell_length_c   41.54575770
_cell_angle_alpha   120.00000000
_cell_angle_beta   60.00000000
_cell_angle_gamma   90.00000000
_symmetry_Int_Tables_number   1
_chemical_formula_structural   Fe2Ni
_chemical_formula_sum   'Fe144 Ni72'
_cell_volume   5634.07396907
_cell_formula_units_Z   72
loop_
 _symmetry_equiv_pos_site_id
 _symmetry_equiv_pos_as_xyz
  1  'x, y, z'
loop_
 _atom_site_type_symbol
 _atom_site_label
 _atom_site_symmetry_multiplicity
 _atom_site_fract_x
 _atom_site_fract_y
 _atom_site_fract_z
 _atom_site_occupancy
  Fe  Fe0  1  0.12500000  0.29166667  0.06944444  1.0
  Fe  Fe1  1  0.12500000  0.62500000  0.06944444  1.0
  Fe  Fe2  1  0.12500000  0.95833333  0.06944444  1.0
  Fe  Fe3  1  0.45833333  0.29166667  0.06944444  1.0
  Fe  Fe4  1  0.45833333  0.62500000  0.06944444  1.0
  Fe  Fe5  1  0.45833333  0.95833333  0.06944444  1.0
  Fe  Fe6  1  0.79166667  0.29166667  0.06944444  1.0
  Fe  Fe7  1  0.79166667  0.62500000  0.06944444  1.0
  Fe  Fe8  1  0.79166667  0.95833333  0.06944444  1.0
  Fe  Fe9  1  0.29166667  0.12500000  0.01388889  1.0
  Fe  Fe10  1  0.29166667  0.45833333  0.01388889  1.0
  Fe  Fe11  1  0.29166667  0.79166667  0.01388889  1.0
  Fe  Fe12  1  0.62500000  0.12500000  0.01388889  1.0
  Fe  Fe13  1  0.62500000  0.45833333  0.01388889  1.0
  Fe  Fe14  1  0.62500000  0.79166667  0.01388889  1.0
  Fe  Fe15  1  0.95833333  0.12500000  0.01388889  1.0
  Fe  Fe16  1  0.95833333  0.45833333  0.01388889  1.0
  Fe  Fe17  1  0.95833333  0.79166667  0.01388889  1.0
  Fe  Fe18  1  0.29166667  0.29166667  0.01388889  1.0
  Fe  Fe19  1  0.29166667  0.62500000  0.01388889  1.0
  Fe  Fe20  1  0.29166667  0.95833333  0.01388889  1.0
  Fe  Fe21  1  0.62500000  0.29166667  0.01388889  1.0
  Fe  Fe22  1  0.62500000  0.62500000  0.01388889  1.0
  Fe  Fe23  1  0.62500000  0.95833333  0.01388889  1.0
  Fe  Fe24  1  0.95833333  0.29166667  0.01388889  1.0
  Fe  Fe25  1  0.95833333  0.62500000  0.01388889  1.0
  Fe  Fe26  1  0.95833333  0.95833333  0.01388889  1.0
  Fe  Fe27  1  0.29166667  0.29166667  0.06944444  1.0
  Fe  Fe28  1  0.29166667  0.62500000  0.06944444  1.0
  Fe  Fe29  1  0.29166667  0.95833333  0.06944444  1.0
  Fe  Fe30  1  0.62500000  0.29166667  0.06944444  1.0
  Fe  Fe31  1  0.62500000  0.62500000  0.06944444  1.0
  Fe  Fe32  1  0.62500000  0.95833333  0.06944444  1.0
  Fe  Fe33  1  0.95833333  0.29166667  0.06944444  1.0
  Fe  Fe34  1  0.95833333  0.62500000  0.06944444  1.0
  Fe  Fe35  1  0.95833333  0.95833333  0.06944444  1.0
  Ni  Ni36  1  0.08333333  0.08333333  0.04166667  1.0
  Ni  Ni37  1  0.08333333  0.41666667  0.04166667  1.0
  Ni  Ni38  1  0.08333333  0.75000000  0.04166667  1.0
  Ni  Ni39  1  0.41666667  0.08333333  0.04166667  1.0
  Ni  Ni40  1  0.41666667  0.41666667  0.04166667  1.0
  Ni  Ni41  1  0.41666667  0.75000000  0.04166667  1.0
  Ni  Ni42  1  0.75000000  0.08333333  0.04166667  1.0
  Ni  Ni43  1  0.75000000  0.41666667  0.04166667  1.0
  Ni  Ni44  1  0.75000000  0.75000000  0.04166667  1.0
  Ni  Ni45  1  0.16666667  0.16666667  0.09722222  1.0
  Ni  Ni46  1  0.16666667  0.50000000  0.09722222  1.0
  Ni  Ni47  1  0.16666667  0.83333333  0.09722222  1.0
  Ni  Ni48  1  0.50000000  0.16666667  0.09722222  1.0
  Ni  Ni49  1  0.50000000  0.50000000  0.09722222  1.0
  Ni  Ni50  1  0.50000000  0.83333333  0.09722222  1.0
  Ni  Ni51  1  0.83333333  0.16666667  0.09722222  1.0
  Ni  Ni52  1  0.83333333  0.50000000  0.09722222  1.0
  Ni  Ni53  1  0.83333333  0.83333333  0.09722222  1.0
  Fe  Fe54  1  0.12500000  0.29166667  0.18055556  1.0
  Fe  Fe55  1  0.12500000  0.62500000  0.18055556  1.0
  Fe  Fe56  1  0.12500000  0.95833333  0.18055556  1.0
  Fe  Fe57  1  0.45833333  0.29166667  0.18055556  1.0
  Fe  Fe58  1  0.45833333  0.62500000  0.18055556  1.0
  Fe  Fe59  1  0.45833333  0.95833333  0.18055556  1.0
  Fe  Fe60  1  0.79166667  0.29166667  0.18055556  1.0
  Fe  Fe61  1  0.79166667  0.62500000  0.18055556  1.0
  Fe  Fe62  1  0.79166667  0.95833333  0.18055556  1.0
  Fe  Fe63  1  0.29166667  0.12500000  0.12500000  1.0
  Fe  Fe64  1  0.29166667  0.45833333  0.12500000  1.0
  Fe  Fe65  1  0.29166667  0.79166667  0.12500000  1.0
  Fe  Fe66  1  0.62500000  0.12500000  0.12500000  1.0
  Fe  Fe67  1  0.62500000  0.45833333  0.12500000  1.0
  Fe  Fe68  1  0.62500000  0.79166667  0.12500000  1.0
  Fe  Fe69  1  0.95833333  0.12500000  0.12500000  1.0
  Fe  Fe70  1  0.95833333  0.45833333  0.12500000  1.0
  Fe  Fe71  1  0.95833333  0.79166667  0.12500000  1.0
  Fe  Fe72  1  0.29166667  0.29166667  0.12500000  1.0
  Fe  Fe73  1  0.29166667  0.62500000  0.12500000  1.0
  Fe  Fe74  1  0.29166667  0.95833333  0.12500000  1.0
  Fe  Fe75  1  0.62500000  0.29166667  0.12500000  1.0
  Fe  Fe76  1  0.62500000  0.62500000  0.12500000  1.0
  Fe  Fe77  1  0.62500000  0.95833333  0.12500000  1.0
  Fe  Fe78  1  0.95833333  0.29166667  0.12500000  1.0
  Fe  Fe79  1  0.95833333  0.62500000  0.12500000  1.0
  Fe  Fe80  1  0.95833333  0.95833333  0.12500000  1.0
  Fe  Fe81  1  0.29166667  0.29166667  0.18055556  1.0
  Fe  Fe82  1  0.29166667  0.62500000  0.18055556  1.0
  Fe  Fe83  1  0.29166667  0.95833333  0.18055556  1.0
  Fe  Fe84  1  0.62500000  0.29166667  0.18055556  1.0
  Fe  Fe85  1  0.62500000  0.62500000  0.18055556  1.0
  Fe  Fe86  1  0.62500000  0.95833333  0.18055556  1.0
  Fe  Fe87  1  0.95833333  0.29166667  0.18055556  1.0
  Fe  Fe88  1  0.95833333  0.62500000  0.18055556  1.0
  Fe  Fe89  1  0.95833333  0.95833333  0.18055556  1.0
  Ni  Ni90  1  0.08333333  0.08333333  0.15277778  1.0
  Ni  Ni91  1  0.08333333  0.41666667  0.15277778  1.0
  Ni  Ni92  1  0.08333333  0.75000000  0.15277778  1.0
  Ni  Ni93  1  0.41666667  0.08333333  0.15277778  1.0
  Ni  Ni94  1  0.41666667  0.41666667  0.15277778  1.0
  Ni  Ni95  1  0.41666667  0.75000000  0.15277778  1.0
  Ni  Ni96  1  0.75000000  0.08333333  0.15277778  1.0
  Ni  Ni97  1  0.75000000  0.41666667  0.15277778  1.0
  Ni  Ni98  1  0.75000000  0.75000000  0.15277778  1.0
  Ni  Ni99  1  0.16666667  0.16666667  0.20833333  1.0
  Ni  Ni100  1  0.16666667  0.50000000  0.20833333  1.0
  Ni  Ni101  1  0.16666667  0.83333333  0.20833333  1.0
  Ni  Ni102  1  0.50000000  0.16666667  0.20833333  1.0
  Ni  Ni103  1  0.50000000  0.50000000  0.20833333  1.0
  Ni  Ni104  1  0.50000000  0.83333333  0.20833333  1.0
  Ni  Ni105  1  0.83333333  0.16666667  0.20833333  1.0
  Ni  Ni106  1  0.83333333  0.50000000  0.20833333  1.0
  Ni  Ni107  1  0.83333333  0.83333333  0.20833333  1.0
  Fe  Fe108  1  0.12500000  0.29166667  0.29166667  1.0
  Fe  Fe109  1  0.12500000  0.62500000  0.29166667  1.0
  Fe  Fe110  1  0.12500000  0.95833333  0.29166667  1.0
  Fe  Fe111  1  0.45833333  0.29166667  0.29166667  1.0
  Fe  Fe112  1  0.45833333  0.62500000  0.29166667  1.0
  Fe  Fe113  1  0.45833333  0.95833333  0.29166667  1.0
  Fe  Fe114  1  0.79166667  0.29166667  0.29166667  1.0
  Fe  Fe115  1  0.79166667  0.62500000  0.29166667  1.0
  Fe  Fe116  1  0.79166667  0.95833333  0.29166667  1.0
  Fe  Fe117  1  0.29166667  0.12500000  0.23611111  1.0
  Fe  Fe118  1  0.29166667  0.45833333  0.23611111  1.0
  Fe  Fe119  1  0.29166667  0.79166667  0.23611111  1.0
  Fe  Fe120  1  0.62500000  0.12500000  0.23611111  1.0
  Fe  Fe121  1  0.62500000  0.45833333  0.23611111  1.0
  Fe  Fe122  1  0.62500000  0.79166667  0.23611111  1.0
  Fe  Fe123  1  0.95833333  0.12500000  0.23611111  1.0
  Fe  Fe124  1  0.95833333  0.45833333  0.23611111  1.0
  Fe  Fe125  1  0.95833333  0.79166667  0.23611111  1.0
  Fe  Fe126  1  0.29166667  0.29166667  0.23611111  1.0
  Fe  Fe127  1  0.29166667  0.62500000  0.23611111  1.0
  Fe  Fe128  1  0.29166667  0.95833333  0.23611111  1.0
  Fe  Fe129  1  0.62500000  0.29166667  0.23611111  1.0
  Fe  Fe130  1  0.62500000  0.62500000  0.23611111  1.0
  Fe  Fe131  1  0.62500000  0.95833333  0.23611111  1.0
  Fe  Fe132  1  0.95833333  0.29166667  0.23611111  1.0
  Fe  Fe133  1  0.95833333  0.62500000  0.23611111  1.0
  Fe  Fe134  1  0.95833333  0.95833333  0.23611111  1.0
  Fe  Fe135  1  0.29166667  0.29166667  0.29166667  1.0
  Fe  Fe136  1  0.29166667  0.62500000  0.29166667  1.0
  Fe  Fe137  1  0.29166667  0.95833333  0.29166667  1.0
  Fe  Fe138  1  0.62500000  0.29166667  0.29166667  1.0
  Fe  Fe139  1  0.62500000  0.62500000  0.29166667  1.0
  Fe  Fe140  1  0.62500000  0.95833333  0.29166667  1.0
  Fe  Fe141  1  0.95833333  0.29166667  0.29166667  1.0
  Fe  Fe142  1  0.95833333  0.62500000  0.29166667  1.0
  Fe  Fe143  1  0.95833333  0.95833333  0.29166667  1.0
  Ni  Ni144  1  0.08333333  0.08333333  0.26388889  1.0
  Ni  Ni145  1  0.08333333  0.41666667  0.26388889  1.0
  Ni  Ni146  1  0.08333333  0.75000000  0.26388889  1.0
  Ni  Ni147  1  0.41666667  0.08333333  0.26388889  1.0
  Ni  Ni148  1  0.41666667  0.41666667  0.26388889  1.0
  Ni  Ni149  1  0.41666667  0.75000000  0.26388889  1.0
  Ni  Ni150  1  0.75000000  0.08333333  0.26388889  1.0
  Ni  Ni151  1  0.75000000  0.41666667  0.26388889  1.0
  Ni  Ni152  1  0.75000000  0.75000000  0.26388889  1.0
  Ni  Ni153  1  0.16666667  0.16666667  0.31944444  1.0
  Ni  Ni154  1  0.16666667  0.50000000  0.31944444  1.0
  Ni  Ni155  1  0.16666667  0.83333333  0.31944444  1.0
  Ni  Ni156  1  0.50000000  0.16666667  0.31944444  1.0
  Ni  Ni157  1  0.50000000  0.50000000  0.31944444  1.0
  Ni  Ni158  1  0.50000000  0.83333333  0.31944444  1.0
  Ni  Ni159  1  0.83333333  0.16666667  0.31944444  1.0
  Ni  Ni160  1  0.83333333  0.50000000  0.31944444  1.0
  Ni  Ni161  1  0.83333333  0.83333333  0.31944444  1.0
  Fe  Fe162  1  0.12500000  0.29166667  0.40277778  1.0
  Fe  Fe163  1  0.12500000  0.62500000  0.40277778  1.0
  Fe  Fe164  1  0.12500000  0.95833333  0.40277778  1.0
  Fe  Fe165  1  0.45833333  0.29166667  0.40277778  1.0
  Fe  Fe166  1  0.45833333  0.62500000  0.40277778  1.0
  Fe  Fe167  1  0.45833333  0.95833333  0.40277778  1.0
  Fe  Fe168  1  0.79166667  0.29166667  0.40277778  1.0
  Fe  Fe169  1  0.79166667  0.62500000  0.40277778  1.0
  Fe  Fe170  1  0.79166667  0.95833333  0.40277778  1.0
  Fe  Fe171  1  0.29166667  0.12500000  0.34722222  1.0
  Fe  Fe172  1  0.29166667  0.45833333  0.34722222  1.0
  Fe  Fe173  1  0.29166667  0.79166667  0.34722222  1.0
  Fe  Fe174  1  0.62500000  0.12500000  0.34722222  1.0
  Fe  Fe175  1  0.62500000  0.45833333  0.34722222  1.0
  Fe  Fe176  1  0.62500000  0.79166667  0.34722222  1.0
  Fe  Fe177  1  0.95833333  0.12500000  0.34722222  1.0
  Fe  Fe178  1  0.95833333  0.45833333  0.34722222  1.0
  Fe  Fe179  1  0.95833333  0.79166667  0.34722222  1.0
  Fe  Fe180  1  0.29166667  0.29166667  0.34722222  1.0
  Fe  Fe181  1  0.29166667  0.62500000  0.34722222  1.0
  Fe  Fe182  1  0.29166667  0.95833333  0.34722222  1.0
  Fe  Fe183  1  0.62500000  0.29166667  0.34722222  1.0
  Fe  Fe184  1  0.62500000  0.62500000  0.34722222  1.0
  Fe  Fe185  1  0.62500000  0.95833333  0.34722222  1.0
  Fe  Fe186  1  0.95833333  0.29166667  0.34722222  1.0
  Fe  Fe187  1  0.95833333  0.62500000  0.34722222  1.0
  Fe  Fe188  1  0.95833333  0.95833333  0.34722222  1.0
  Fe  Fe189  1  0.29166667  0.29166667  0.40277778  1.0
  Fe  Fe190  1  0.29166667  0.62500000  0.40277778  1.0
  Fe  Fe191  1  0.29166667  0.95833333  0.40277778  1.0
  Fe  Fe192  1  0.62500000  0.29166667  0.40277778  1.0
  Fe  Fe193  1  0.62500000  0.62500000  0.40277778  1.0
  Fe  Fe194  1  0.62500000  0.95833333  0.40277778  1.0
  Fe  Fe195  1  0.95833333  0.29166667  0.40277778  1.0
  Fe  Fe196  1  0.95833333  0.62500000  0.40277778  1.0
  Fe  Fe197  1  0.95833333  0.95833333  0.40277778  1.0
  Ni  Ni198  1  0.08333333  0.08333333  0.37500000  1.0
  Ni  Ni199  1  0.08333333  0.41666667  0.37500000  1.0
  Ni  Ni200  1  0.08333333  0.75000000  0.37500000  1.0
  Ni  Ni201  1  0.41666667  0.08333333  0.37500000  1.0
  Ni  Ni202  1  0.41666667  0.41666667  0.37500000  1.0
  Ni  Ni203  1  0.41666667  0.75000000  0.37500000  1.0
  Ni  Ni204  1  0.75000000  0.08333333  0.37500000  1.0
  Ni  Ni205  1  0.75000000  0.41666667  0.37500000  1.0
  Ni  Ni206  1  0.75000000  0.75000000  0.37500000  1.0
  Ni  Ni207  1  0.16666667  0.16666667  0.43055556  1.0
  Ni  Ni208  1  0.16666667  0.50000000  0.43055556  1.0
  Ni  Ni209  1  0.16666667  0.83333333  0.43055556  1.0
  Ni  Ni210  1  0.50000000  0.16666667  0.43055556  1.0
  Ni  Ni211  1  0.50000000  0.50000000  0.43055556  1.0
  Ni  Ni212  1  0.50000000  0.83333333  0.43055556  1.0
  Ni  Ni213  1  0.83333333  0.16666667  0.43055556  1.0
  Ni  Ni214  1  0.83333333  0.50000000  0.43055556  1.0
  Ni  Ni215  1  0.83333333  0.83333333  0.43055556  1.0
