# generated using pymatgen
data_Fe2Ni
_symmetry_space_group_name_H-M   'P 1'
_cell_length_a   13.84858590
_cell_length_b   23.98645439
_cell_length_c   32.31336710
_cell_angle_alpha   90.00000000
_cell_angle_beta   120.00000000
_cell_angle_gamma   73.22134512
_symmetry_Int_Tables_number   1
_chemical_formula_structural   Fe2Ni
_chemical_formula_sum   'Fe216 Ni108'
_cell_volume   8764.11506300
_cell_formula_units_Z   108
loop_
 _symmetry_equiv_pos_site_id
 _symmetry_equiv_pos_as_xyz
  1  'x, y, z'
loop_
 _atom_site_type_symbol
 _atom_site_label
 _atom_site_symmetry_multiplicity
 _atom_site_fract_x
 _atom_site_fract_y
 _atom_site_fract_z
 _atom_site_occupancy
  Fe  Fe0  1  0.04166667  0.10416667  0.05803571  1.0
  Fe  Fe1  1  0.04166667  0.43750000  0.05803571  1.0
  Fe  Fe2  1  0.04166667  0.77083333  0.05803571  1.0
  Fe  Fe3  1  0.37500000  0.10416667  0.05803571  1.0
  Fe  Fe4  1  0.37500000  0.43750000  0.05803571  1.0
  Fe  Fe5  1  0.37500000  0.77083333  0.05803571  1.0
  Fe  Fe6  1  0.70833333  0.10416667  0.05803571  1.0
  Fe  Fe7  1  0.70833333  0.43750000  0.05803571  1.0
  Fe  Fe8  1  0.70833333  0.77083333  0.05803571  1.0
  Fe  Fe9  1  0.04166667  0.27083333  0.12946429  1.0
  Fe  Fe10  1  0.04166667  0.60416667  0.12946429  1.0
  Fe  Fe11  1  0.04166667  0.93750000  0.12946429  1.0
  Fe  Fe12  1  0.37500000  0.27083333  0.12946429  1.0
  Fe  Fe13  1  0.37500000  0.60416667  0.12946429  1.0
  Fe  Fe14  1  0.37500000  0.93750000  0.12946429  1.0
  Fe  Fe15  1  0.70833333  0.27083333  0.12946429  1.0
  Fe  Fe16  1  0.70833333  0.60416667  0.12946429  1.0
  Fe  Fe17  1  0.70833333  0.93750000  0.12946429  1.0
  Fe  Fe18  1  0.20833333  0.02083333  0.09375000  1.0
  Fe  Fe19  1  0.20833333  0.35416667  0.09375000  1.0
  Fe  Fe20  1  0.20833333  0.68750000  0.09375000  1.0
  Fe  Fe21  1  0.54166667  0.02083333  0.09375000  1.0
  Fe  Fe22  1  0.54166667  0.35416667  0.09375000  1.0
  Fe  Fe23  1  0.54166667  0.68750000  0.09375000  1.0
  Fe  Fe24  1  0.87500000  0.02083333  0.09375000  1.0
  Fe  Fe25  1  0.87500000  0.35416667  0.09375000  1.0
  Fe  Fe26  1  0.87500000  0.68750000  0.09375000  1.0
  Fe  Fe27  1  0.20833333  0.18750000  0.02232143  1.0
  Fe  Fe28  1  0.20833333  0.52083333  0.02232143  1.0
  Fe  Fe29  1  0.20833333  0.85416667  0.02232143  1.0
  Fe  Fe30  1  0.54166667  0.18750000  0.02232143  1.0
  Fe  Fe31  1  0.54166667  0.52083333  0.02232143  1.0
  Fe  Fe32  1  0.54166667  0.85416667  0.02232143  1.0
  Fe  Fe33  1  0.87500000  0.18750000  0.02232143  1.0
  Fe  Fe34  1  0.87500000  0.52083333  0.02232143  1.0
  Fe  Fe35  1  0.87500000  0.85416667  0.02232143  1.0
  Fe  Fe36  1  0.04166667  0.02083333  0.09375000  1.0
  Fe  Fe37  1  0.04166667  0.35416667  0.09375000  1.0
  Fe  Fe38  1  0.04166667  0.68750000  0.09375000  1.0
  Fe  Fe39  1  0.37500000  0.02083333  0.09375000  1.0
  Fe  Fe40  1  0.37500000  0.35416667  0.09375000  1.0
  Fe  Fe41  1  0.37500000  0.68750000  0.09375000  1.0
  Fe  Fe42  1  0.70833333  0.02083333  0.09375000  1.0
  Fe  Fe43  1  0.70833333  0.35416667  0.09375000  1.0
  Fe  Fe44  1  0.70833333  0.68750000  0.09375000  1.0
  Fe  Fe45  1  0.04166667  0.18750000  0.02232143  1.0
  Fe  Fe46  1  0.04166667  0.52083333  0.02232143  1.0
  Fe  Fe47  1  0.04166667  0.85416667  0.02232143  1.0
  Fe  Fe48  1  0.37500000  0.18750000  0.02232143  1.0
  Fe  Fe49  1  0.37500000  0.52083333  0.02232143  1.0
  Fe  Fe50  1  0.37500000  0.85416667  0.02232143  1.0
  Fe  Fe51  1  0.70833333  0.18750000  0.02232143  1.0
  Fe  Fe52  1  0.70833333  0.52083333  0.02232143  1.0
  Fe  Fe53  1  0.70833333  0.85416667  0.02232143  1.0
  Fe  Fe54  1  0.04166667  0.02083333  0.02232143  1.0
  Fe  Fe55  1  0.04166667  0.35416667  0.02232143  1.0
  Fe  Fe56  1  0.04166667  0.68750000  0.02232143  1.0
  Fe  Fe57  1  0.37500000  0.02083333  0.02232143  1.0
  Fe  Fe58  1  0.37500000  0.35416667  0.02232143  1.0
  Fe  Fe59  1  0.37500000  0.68750000  0.02232143  1.0
  Fe  Fe60  1  0.70833333  0.02083333  0.02232143  1.0
  Fe  Fe61  1  0.70833333  0.35416667  0.02232143  1.0
  Fe  Fe62  1  0.70833333  0.68750000  0.02232143  1.0
  Fe  Fe63  1  0.04166667  0.18750000  0.09375000  1.0
  Fe  Fe64  1  0.04166667  0.52083333  0.09375000  1.0
  Fe  Fe65  1  0.04166667  0.85416667  0.09375000  1.0
  Fe  Fe66  1  0.37500000  0.18750000  0.09375000  1.0
  Fe  Fe67  1  0.37500000  0.52083333  0.09375000  1.0
  Fe  Fe68  1  0.37500000  0.85416667  0.09375000  1.0
  Fe  Fe69  1  0.70833333  0.18750000  0.09375000  1.0
  Fe  Fe70  1  0.70833333  0.52083333  0.09375000  1.0
  Fe  Fe71  1  0.70833333  0.85416667  0.09375000  1.0
  Ni  Ni72  1  0.25000000  0.12500000  0.10267857  1.0
  Ni  Ni73  1  0.25000000  0.45833333  0.10267857  1.0
  Ni  Ni74  1  0.25000000  0.79166667  0.10267857  1.0
  Ni  Ni75  1  0.58333333  0.12500000  0.10267857  1.0
  Ni  Ni76  1  0.58333333  0.45833333  0.10267857  1.0
  Ni  Ni77  1  0.58333333  0.79166667  0.10267857  1.0
  Ni  Ni78  1  0.91666667  0.12500000  0.10267857  1.0
  Ni  Ni79  1  0.91666667  0.45833333  0.10267857  1.0
  Ni  Ni80  1  0.91666667  0.79166667  0.10267857  1.0
  Ni  Ni81  1  0.25000000  0.29166667  0.03125000  1.0
  Ni  Ni82  1  0.25000000  0.62500000  0.03125000  1.0
  Ni  Ni83  1  0.25000000  0.95833333  0.03125000  1.0
  Ni  Ni84  1  0.58333333  0.29166667  0.03125000  1.0
  Ni  Ni85  1  0.58333333  0.62500000  0.03125000  1.0
  Ni  Ni86  1  0.58333333  0.95833333  0.03125000  1.0
  Ni  Ni87  1  0.91666667  0.29166667  0.03125000  1.0
  Ni  Ni88  1  0.91666667  0.62500000  0.03125000  1.0
  Ni  Ni89  1  0.91666667  0.95833333  0.03125000  1.0
  Ni  Ni90  1  0.16666667  0.08333333  0.01339286  1.0
  Ni  Ni91  1  0.16666667  0.41666667  0.01339286  1.0
  Ni  Ni92  1  0.16666667  0.75000000  0.01339286  1.0
  Ni  Ni93  1  0.50000000  0.08333333  0.01339286  1.0
  Ni  Ni94  1  0.50000000  0.41666667  0.01339286  1.0
  Ni  Ni95  1  0.50000000  0.75000000  0.01339286  1.0
  Ni  Ni96  1  0.83333333  0.08333333  0.01339286  1.0
  Ni  Ni97  1  0.83333333  0.41666667  0.01339286  1.0
  Ni  Ni98  1  0.83333333  0.75000000  0.01339286  1.0
  Ni  Ni99  1  0.16666667  0.25000000  0.08482143  1.0
  Ni  Ni100  1  0.16666667  0.58333333  0.08482143  1.0
  Ni  Ni101  1  0.16666667  0.91666667  0.08482143  1.0
  Ni  Ni102  1  0.50000000  0.25000000  0.08482143  1.0
  Ni  Ni103  1  0.50000000  0.58333333  0.08482143  1.0
  Ni  Ni104  1  0.50000000  0.91666667  0.08482143  1.0
  Ni  Ni105  1  0.83333333  0.25000000  0.08482143  1.0
  Ni  Ni106  1  0.83333333  0.58333333  0.08482143  1.0
  Ni  Ni107  1  0.83333333  0.91666667  0.08482143  1.0
  Fe  Fe108  1  0.04166667  0.10416667  0.20089286  1.0
  Fe  Fe109  1  0.04166667  0.43750000  0.20089286  1.0
  Fe  Fe110  1  0.04166667  0.77083333  0.20089286  1.0
  Fe  Fe111  1  0.37500000  0.10416667  0.20089286  1.0
  Fe  Fe112  1  0.37500000  0.43750000  0.20089286  1.0
  Fe  Fe113  1  0.37500000  0.77083333  0.20089286  1.0
  Fe  Fe114  1  0.70833333  0.10416667  0.20089286  1.0
  Fe  Fe115  1  0.70833333  0.43750000  0.20089286  1.0
  Fe  Fe116  1  0.70833333  0.77083333  0.20089286  1.0
  Fe  Fe117  1  0.04166667  0.27083333  0.27232143  1.0
  Fe  Fe118  1  0.04166667  0.60416667  0.27232143  1.0
  Fe  Fe119  1  0.04166667  0.93750000  0.27232143  1.0
  Fe  Fe120  1  0.37500000  0.27083333  0.27232143  1.0
  Fe  Fe121  1  0.37500000  0.60416667  0.27232143  1.0
  Fe  Fe122  1  0.37500000  0.93750000  0.27232143  1.0
  Fe  Fe123  1  0.70833333  0.27083333  0.27232143  1.0
  Fe  Fe124  1  0.70833333  0.60416667  0.27232143  1.0
  Fe  Fe125  1  0.70833333  0.93750000  0.27232143  1.0
  Fe  Fe126  1  0.20833333  0.02083333  0.23660714  1.0
  Fe  Fe127  1  0.20833333  0.35416667  0.23660714  1.0
  Fe  Fe128  1  0.20833333  0.68750000  0.23660714  1.0
  Fe  Fe129  1  0.54166667  0.02083333  0.23660714  1.0
  Fe  Fe130  1  0.54166667  0.35416667  0.23660714  1.0
  Fe  Fe131  1  0.54166667  0.68750000  0.23660714  1.0
  Fe  Fe132  1  0.87500000  0.02083333  0.23660714  1.0
  Fe  Fe133  1  0.87500000  0.35416667  0.23660714  1.0
  Fe  Fe134  1  0.87500000  0.68750000  0.23660714  1.0
  Fe  Fe135  1  0.20833333  0.18750000  0.16517857  1.0
  Fe  Fe136  1  0.20833333  0.52083333  0.16517857  1.0
  Fe  Fe137  1  0.20833333  0.85416667  0.16517857  1.0
  Fe  Fe138  1  0.54166667  0.18750000  0.16517857  1.0
  Fe  Fe139  1  0.54166667  0.52083333  0.16517857  1.0
  Fe  Fe140  1  0.54166667  0.85416667  0.16517857  1.0
  Fe  Fe141  1  0.87500000  0.18750000  0.16517857  1.0
  Fe  Fe142  1  0.87500000  0.52083333  0.16517857  1.0
  Fe  Fe143  1  0.87500000  0.85416667  0.16517857  1.0
  Fe  Fe144  1  0.04166667  0.02083333  0.23660714  1.0
  Fe  Fe145  1  0.04166667  0.35416667  0.23660714  1.0
  Fe  Fe146  1  0.04166667  0.68750000  0.23660714  1.0
  Fe  Fe147  1  0.37500000  0.02083333  0.23660714  1.0
  Fe  Fe148  1  0.37500000  0.35416667  0.23660714  1.0
  Fe  Fe149  1  0.37500000  0.68750000  0.23660714  1.0
  Fe  Fe150  1  0.70833333  0.02083333  0.23660714  1.0
  Fe  Fe151  1  0.70833333  0.35416667  0.23660714  1.0
  Fe  Fe152  1  0.70833333  0.68750000  0.23660714  1.0
  Fe  Fe153  1  0.04166667  0.18750000  0.16517857  1.0
  Fe  Fe154  1  0.04166667  0.52083333  0.16517857  1.0
  Fe  Fe155  1  0.04166667  0.85416667  0.16517857  1.0
  Fe  Fe156  1  0.37500000  0.18750000  0.16517857  1.0
  Fe  Fe157  1  0.37500000  0.52083333  0.16517857  1.0
  Fe  Fe158  1  0.37500000  0.85416667  0.16517857  1.0
  Fe  Fe159  1  0.70833333  0.18750000  0.16517857  1.0
  Fe  Fe160  1  0.70833333  0.52083333  0.16517857  1.0
  Fe  Fe161  1  0.70833333  0.85416667  0.16517857  1.0
  Fe  Fe162  1  0.04166667  0.02083333  0.16517857  1.0
  Fe  Fe163  1  0.04166667  0.35416667  0.16517857  1.0
  Fe  Fe164  1  0.04166667  0.68750000  0.16517857  1.0
  Fe  Fe165  1  0.37500000  0.02083333  0.16517857  1.0
  Fe  Fe166  1  0.37500000  0.35416667  0.16517857  1.0
  Fe  Fe167  1  0.37500000  0.68750000  0.16517857  1.0
  Fe  Fe168  1  0.70833333  0.02083333  0.16517857  1.0
  Fe  Fe169  1  0.70833333  0.35416667  0.16517857  1.0
  Fe  Fe170  1  0.70833333  0.68750000  0.16517857  1.0
  Fe  Fe171  1  0.04166667  0.18750000  0.23660714  1.0
  Fe  Fe172  1  0.04166667  0.52083333  0.23660714  1.0
  Fe  Fe173  1  0.04166667  0.85416667  0.23660714  1.0
  Fe  Fe174  1  0.37500000  0.18750000  0.23660714  1.0
  Fe  Fe175  1  0.37500000  0.52083333  0.23660714  1.0
  Fe  Fe176  1  0.37500000  0.85416667  0.23660714  1.0
  Fe  Fe177  1  0.70833333  0.18750000  0.23660714  1.0
  Fe  Fe178  1  0.70833333  0.52083333  0.23660714  1.0
  Fe  Fe179  1  0.70833333  0.85416667  0.23660714  1.0
  Ni  Ni180  1  0.25000000  0.12500000  0.24553571  1.0
  Ni  Ni181  1  0.25000000  0.45833333  0.24553571  1.0
  Ni  Ni182  1  0.25000000  0.79166667  0.24553571  1.0
  Ni  Ni183  1  0.58333333  0.12500000  0.24553571  1.0
  Ni  Ni184  1  0.58333333  0.45833333  0.24553571  1.0
  Ni  Ni185  1  0.58333333  0.79166667  0.24553571  1.0
  Ni  Ni186  1  0.91666667  0.12500000  0.24553571  1.0
  Ni  Ni187  1  0.91666667  0.45833333  0.24553571  1.0
  Ni  Ni188  1  0.91666667  0.79166667  0.24553571  1.0
  Ni  Ni189  1  0.25000000  0.29166667  0.17410714  1.0
  Ni  Ni190  1  0.25000000  0.62500000  0.17410714  1.0
  Ni  Ni191  1  0.25000000  0.95833333  0.17410714  1.0
  Ni  Ni192  1  0.58333333  0.29166667  0.17410714  1.0
  Ni  Ni193  1  0.58333333  0.62500000  0.17410714  1.0
  Ni  Ni194  1  0.58333333  0.95833333  0.17410714  1.0
  Ni  Ni195  1  0.91666667  0.29166667  0.17410714  1.0
  Ni  Ni196  1  0.91666667  0.62500000  0.17410714  1.0
  Ni  Ni197  1  0.91666667  0.95833333  0.17410714  1.0
  Ni  Ni198  1  0.16666667  0.08333333  0.15625000  1.0
  Ni  Ni199  1  0.16666667  0.41666667  0.15625000  1.0
  Ni  Ni200  1  0.16666667  0.75000000  0.15625000  1.0
  Ni  Ni201  1  0.50000000  0.08333333  0.15625000  1.0
  Ni  Ni202  1  0.50000000  0.41666667  0.15625000  1.0
  Ni  Ni203  1  0.50000000  0.75000000  0.15625000  1.0
  Ni  Ni204  1  0.83333333  0.08333333  0.15625000  1.0
  Ni  Ni205  1  0.83333333  0.41666667  0.15625000  1.0
  Ni  Ni206  1  0.83333333  0.75000000  0.15625000  1.0
  Ni  Ni207  1  0.16666667  0.25000000  0.22767857  1.0
  Ni  Ni208  1  0.16666667  0.58333333  0.22767857  1.0
  Ni  Ni209  1  0.16666667  0.91666667  0.22767857  1.0
  Ni  Ni210  1  0.50000000  0.25000000  0.22767857  1.0
  Ni  Ni211  1  0.50000000  0.58333333  0.22767857  1.0
  Ni  Ni212  1  0.50000000  0.91666667  0.22767857  1.0
  Ni  Ni213  1  0.83333333  0.25000000  0.22767857  1.0
  Ni  Ni214  1  0.83333333  0.58333333  0.22767857  1.0
  Ni  Ni215  1  0.83333333  0.91666667  0.22767857  1.0
  Fe  Fe216  1  0.04166667  0.10416667  0.34375000  1.0
  Fe  Fe217  1  0.04166667  0.43750000  0.34375000  1.0
  Fe  Fe218  1  0.04166667  0.77083333  0.34375000  1.0
  Fe  Fe219  1  0.37500000  0.10416667  0.34375000  1.0
  Fe  Fe220  1  0.37500000  0.43750000  0.34375000  1.0
  Fe  Fe221  1  0.37500000  0.77083333  0.34375000  1.0
  Fe  Fe222  1  0.70833333  0.10416667  0.34375000  1.0
  Fe  Fe223  1  0.70833333  0.43750000  0.34375000  1.0
  Fe  Fe224  1  0.70833333  0.77083333  0.34375000  1.0
  Fe  Fe225  1  0.04166667  0.27083333  0.41517857  1.0
  Fe  Fe226  1  0.04166667  0.60416667  0.41517857  1.0
  Fe  Fe227  1  0.04166667  0.93750000  0.41517857  1.0
  Fe  Fe228  1  0.37500000  0.27083333  0.41517857  1.0
  Fe  Fe229  1  0.37500000  0.60416667  0.41517857  1.0
  Fe  Fe230  1  0.37500000  0.93750000  0.41517857  1.0
  Fe  Fe231  1  0.70833333  0.27083333  0.41517857  1.0
  Fe  Fe232  1  0.70833333  0.60416667  0.41517857  1.0
  Fe  Fe233  1  0.70833333  0.93750000  0.41517857  1.0
  Fe  Fe234  1  0.20833333  0.02083333  0.37946429  1.0
  Fe  Fe235  1  0.20833333  0.35416667  0.37946429  1.0
  Fe  Fe236  1  0.20833333  0.68750000  0.37946429  1.0
  Fe  Fe237  1  0.54166667  0.02083333  0.37946429  1.0
  Fe  Fe238  1  0.54166667  0.35416667  0.37946429  1.0
  Fe  Fe239  1  0.54166667  0.68750000  0.37946429  1.0
  Fe  Fe240  1  0.87500000  0.02083333  0.37946429  1.0
  Fe  Fe241  1  0.87500000  0.35416667  0.37946429  1.0
  Fe  Fe242  1  0.87500000  0.68750000  0.37946429  1.0
  Fe  Fe243  1  0.20833333  0.18750000  0.30803571  1.0
  Fe  Fe244  1  0.20833333  0.52083333  0.30803571  1.0
  Fe  Fe245  1  0.20833333  0.85416667  0.30803571  1.0
  Fe  Fe246  1  0.54166667  0.18750000  0.30803571  1.0
  Fe  Fe247  1  0.54166667  0.52083333  0.30803571  1.0
  Fe  Fe248  1  0.54166667  0.85416667  0.30803571  1.0
  Fe  Fe249  1  0.87500000  0.18750000  0.30803571  1.0
  Fe  Fe250  1  0.87500000  0.52083333  0.30803571  1.0
  Fe  Fe251  1  0.87500000  0.85416667  0.30803571  1.0
  Fe  Fe252  1  0.04166667  0.02083333  0.37946429  1.0
  Fe  Fe253  1  0.04166667  0.35416667  0.37946429  1.0
  Fe  Fe254  1  0.04166667  0.68750000  0.37946429  1.0
  Fe  Fe255  1  0.37500000  0.02083333  0.37946429  1.0
  Fe  Fe256  1  0.37500000  0.35416667  0.37946429  1.0
  Fe  Fe257  1  0.37500000  0.68750000  0.37946429  1.0
  Fe  Fe258  1  0.70833333  0.02083333  0.37946429  1.0
  Fe  Fe259  1  0.70833333  0.35416667  0.37946429  1.0
  Fe  Fe260  1  0.70833333  0.68750000  0.37946429  1.0
  Fe  Fe261  1  0.04166667  0.18750000  0.30803571  1.0
  Fe  Fe262  1  0.04166667  0.52083333  0.30803571  1.0
  Fe  Fe263  1  0.04166667  0.85416667  0.30803571  1.0
  Fe  Fe264  1  0.37500000  0.18750000  0.30803571  1.0
  Fe  Fe265  1  0.37500000  0.52083333  0.30803571  1.0
  Fe  Fe266  1  0.37500000  0.85416667  0.30803571  1.0
  Fe  Fe267  1  0.70833333  0.18750000  0.30803571  1.0
  Fe  Fe268  1  0.70833333  0.52083333  0.30803571  1.0
  Fe  Fe269  1  0.70833333  0.85416667  0.30803571  1.0
  Fe  Fe270  1  0.04166667  0.02083333  0.30803571  1.0
  Fe  Fe271  1  0.04166667  0.35416667  0.30803571  1.0
  Fe  Fe272  1  0.04166667  0.68750000  0.30803571  1.0
  Fe  Fe273  1  0.37500000  0.02083333  0.30803571  1.0
  Fe  Fe274  1  0.37500000  0.35416667  0.30803571  1.0
  Fe  Fe275  1  0.37500000  0.68750000  0.30803571  1.0
  Fe  Fe276  1  0.70833333  0.02083333  0.30803571  1.0
  Fe  Fe277  1  0.70833333  0.35416667  0.30803571  1.0
  Fe  Fe278  1  0.70833333  0.68750000  0.30803571  1.0
  Fe  Fe279  1  0.04166667  0.18750000  0.37946429  1.0
  Fe  Fe280  1  0.04166667  0.52083333  0.37946429  1.0
  Fe  Fe281  1  0.04166667  0.85416667  0.37946429  1.0
  Fe  Fe282  1  0.37500000  0.18750000  0.37946429  1.0
  Fe  Fe283  1  0.37500000  0.52083333  0.37946429  1.0
  Fe  Fe284  1  0.37500000  0.85416667  0.37946429  1.0
  Fe  Fe285  1  0.70833333  0.18750000  0.37946429  1.0
  Fe  Fe286  1  0.70833333  0.52083333  0.37946429  1.0
  Fe  Fe287  1  0.70833333  0.85416667  0.37946429  1.0
  Ni  Ni288  1  0.25000000  0.12500000  0.38839286  1.0
  Ni  Ni289  1  0.25000000  0.45833333  0.38839286  1.0
  Ni  Ni290  1  0.25000000  0.79166667  0.38839286  1.0
  Ni  Ni291  1  0.58333333  0.12500000  0.38839286  1.0
  Ni  Ni292  1  0.58333333  0.45833333  0.38839286  1.0
  Ni  Ni293  1  0.58333333  0.79166667  0.38839286  1.0
  Ni  Ni294  1  0.91666667  0.12500000  0.38839286  1.0
  Ni  Ni295  1  0.91666667  0.45833333  0.38839286  1.0
  Ni  Ni296  1  0.91666667  0.79166667  0.38839286  1.0
  Ni  Ni297  1  0.25000000  0.29166667  0.31696429  1.0
  Ni  Ni298  1  0.25000000  0.62500000  0.31696429  1.0
  Ni  Ni299  1  0.25000000  0.95833333  0.31696429  1.0
  Ni  Ni300  1  0.58333333  0.29166667  0.31696429  1.0
  Ni  Ni301  1  0.58333333  0.62500000  0.31696429  1.0
  Ni  Ni302  1  0.58333333  0.95833333  0.31696429  1.0
  Ni  Ni303  1  0.91666667  0.29166667  0.31696429  1.0
  Ni  Ni304  1  0.91666667  0.62500000  0.31696429  1.0
  Ni  Ni305  1  0.91666667  0.95833333  0.31696429  1.0
  Ni  Ni306  1  0.16666667  0.08333333  0.29910714  1.0
  Ni  Ni307  1  0.16666667  0.41666667  0.29910714  1.0
  Ni  Ni308  1  0.16666667  0.75000000  0.29910714  1.0
  Ni  Ni309  1  0.50000000  0.08333333  0.29910714  1.0
  Ni  Ni310  1  0.50000000  0.41666667  0.29910714  1.0
  Ni  Ni311  1  0.50000000  0.75000000  0.29910714  1.0
  Ni  Ni312  1  0.83333333  0.08333333  0.29910714  1.0
  Ni  Ni313  1  0.83333333  0.41666667  0.29910714  1.0
  Ni  Ni314  1  0.83333333  0.75000000  0.29910714  1.0
  Ni  Ni315  1  0.16666667  0.25000000  0.37053571  1.0
  Ni  Ni316  1  0.16666667  0.58333333  0.37053571  1.0
  Ni  Ni317  1  0.16666667  0.91666667  0.37053571  1.0
  Ni  Ni318  1  0.50000000  0.25000000  0.37053571  1.0
  Ni  Ni319  1  0.50000000  0.58333333  0.37053571  1.0
  Ni  Ni320  1  0.50000000  0.91666667  0.37053571  1.0
  Ni  Ni321  1  0.83333333  0.25000000  0.37053571  1.0
  Ni  Ni322  1  0.83333333  0.58333333  0.37053571  1.0
  Ni  Ni323  1  0.83333333  0.91666667  0.37053571  1.0
