# generated using pymatgen
data_Fe2Ni
_symmetry_space_group_name_H-M   'P 1'
_cell_length_a   7.55306052
_cell_length_b   18.79974900
_cell_length_c   30.21224208
_cell_angle_alpha   90.00000000
_cell_angle_beta   120.00000000
_cell_angle_gamma   90.00000000
_symmetry_Int_Tables_number   1
_chemical_formula_structural   Fe2Ni
_chemical_formula_sum   'Fe90 Ni45'
_cell_volume   3715.25479252
_cell_formula_units_Z   45
loop_
 _symmetry_equiv_pos_site_id
 _symmetry_equiv_pos_as_xyz
  1  'x, y, z'
loop_
 _atom_site_type_symbol
 _atom_site_label
 _atom_site_symmetry_multiplicity
 _atom_site_fract_x
 _atom_site_fract_y
 _atom_site_fract_z
 _atom_site_occupancy
  Fe  Fe0  1  0.22222222  0.22382700  0.01388889  1.0
  Fe  Fe1  1  0.22222222  0.55716033  0.01388889  1.0
  Fe  Fe2  1  0.22222222  0.89049367  0.01388889  1.0
  Fe  Fe3  1  0.55555556  0.22382700  0.01388889  1.0
  Fe  Fe4  1  0.55555556  0.55716033  0.01388889  1.0
  Fe  Fe5  1  0.55555556  0.89049367  0.01388889  1.0
  Fe  Fe6  1  0.88888889  0.22382700  0.01388889  1.0
  Fe  Fe7  1  0.88888889  0.55716033  0.01388889  1.0
  Fe  Fe8  1  0.88888889  0.89049367  0.01388889  1.0
  Fe  Fe9  1  0.11111111  0.10950633  0.04166667  1.0
  Fe  Fe10  1  0.11111111  0.44283967  0.04166667  1.0
  Fe  Fe11  1  0.11111111  0.77617300  0.04166667  1.0
  Fe  Fe12  1  0.44444444  0.10950633  0.04166667  1.0
  Fe  Fe13  1  0.44444444  0.44283967  0.04166667  1.0
  Fe  Fe14  1  0.44444444  0.77617300  0.04166667  1.0
  Fe  Fe15  1  0.77777778  0.10950633  0.04166667  1.0
  Fe  Fe16  1  0.77777778  0.44283967  0.04166667  1.0
  Fe  Fe17  1  0.77777778  0.77617300  0.04166667  1.0
  Ni  Ni18  1  0.00000000  0.00000000  0.06944444  1.0
  Ni  Ni19  1  0.00000000  0.33333333  0.06944444  1.0
  Ni  Ni20  1  0.00000000  0.66666667  0.06944444  1.0
  Ni  Ni21  1  0.33333333  0.00000000  0.06944444  1.0
  Ni  Ni22  1  0.33333333  0.33333333  0.06944444  1.0
  Ni  Ni23  1  0.33333333  0.66666667  0.06944444  1.0
  Ni  Ni24  1  0.66666667  0.00000000  0.06944444  1.0
  Ni  Ni25  1  0.66666667  0.33333333  0.06944444  1.0
  Ni  Ni26  1  0.66666667  0.66666667  0.06944444  1.0
  Fe  Fe27  1  0.22222222  0.22382700  0.09722222  1.0
  Fe  Fe28  1  0.22222222  0.55716033  0.09722222  1.0
  Fe  Fe29  1  0.22222222  0.89049367  0.09722222  1.0
  Fe  Fe30  1  0.55555556  0.22382700  0.09722222  1.0
  Fe  Fe31  1  0.55555556  0.55716033  0.09722222  1.0
  Fe  Fe32  1  0.55555556  0.89049367  0.09722222  1.0
  Fe  Fe33  1  0.88888889  0.22382700  0.09722222  1.0
  Fe  Fe34  1  0.88888889  0.55716033  0.09722222  1.0
  Fe  Fe35  1  0.88888889  0.89049367  0.09722222  1.0
  Fe  Fe36  1  0.11111111  0.10950633  0.12500000  1.0
  Fe  Fe37  1  0.11111111  0.44283967  0.12500000  1.0
  Fe  Fe38  1  0.11111111  0.77617300  0.12500000  1.0
  Fe  Fe39  1  0.44444444  0.10950633  0.12500000  1.0
  Fe  Fe40  1  0.44444444  0.44283967  0.12500000  1.0
  Fe  Fe41  1  0.44444444  0.77617300  0.12500000  1.0
  Fe  Fe42  1  0.77777778  0.10950633  0.12500000  1.0
  Fe  Fe43  1  0.77777778  0.44283967  0.12500000  1.0
  Fe  Fe44  1  0.77777778  0.77617300  0.12500000  1.0
  Ni  Ni45  1  0.00000000  0.00000000  0.15277778  1.0
  Ni  Ni46  1  0.00000000  0.33333333  0.15277778  1.0
  Ni  Ni47  1  0.00000000  0.66666667  0.15277778  1.0
  Ni  Ni48  1  0.33333333  0.00000000  0.15277778  1.0
  Ni  Ni49  1  0.33333333  0.33333333  0.15277778  1.0
  Ni  Ni50  1  0.33333333  0.66666667  0.15277778  1.0
  Ni  Ni51  1  0.66666667  0.00000000  0.15277778  1.0
  Ni  Ni52  1  0.66666667  0.33333333  0.15277778  1.0
  Ni  Ni53  1  0.66666667  0.66666667  0.15277778  1.0
  Fe  Fe54  1  0.22222222  0.22382700  0.18055556  1.0
  Fe  Fe55  1  0.22222222  0.55716033  0.18055556  1.0
  Fe  Fe56  1  0.22222222  0.89049367  0.18055556  1.0
  Fe  Fe57  1  0.55555556  0.22382700  0.18055556  1.0
  Fe  Fe58  1  0.55555556  0.55716033  0.18055556  1.0
  Fe  Fe59  1  0.55555556  0.89049367  0.18055556  1.0
  Fe  Fe60  1  0.88888889  0.22382700  0.18055556  1.0
  Fe  Fe61  1  0.88888889  0.55716033  0.18055556  1.0
  Fe  Fe62  1  0.88888889  0.89049367  0.18055556  1.0
  Fe  Fe63  1  0.11111111  0.10950633  0.20833333  1.0
  Fe  Fe64  1  0.11111111  0.44283967  0.20833333  1.0
  Fe  Fe65  1  0.11111111  0.77617300  0.20833333  1.0
  Fe  Fe66  1  0.44444444  0.10950633  0.20833333  1.0
  Fe  Fe67  1  0.44444444  0.44283967  0.20833333  1.0
  Fe  Fe68  1  0.44444444  0.77617300  0.20833333  1.0
  Fe  Fe69  1  0.77777778  0.10950633  0.20833333  1.0
  Fe  Fe70  1  0.77777778  0.44283967  0.20833333  1.0
  Fe  Fe71  1  0.77777778  0.77617300  0.20833333  1.0
  Ni  Ni72  1  0.00000000  0.00000000  0.23611111  1.0
  Ni  Ni73  1  0.00000000  0.33333333  0.23611111  1.0
  Ni  Ni74  1  0.00000000  0.66666667  0.23611111  1.0
  Ni  Ni75  1  0.33333333  0.00000000  0.23611111  1.0
  Ni  Ni76  1  0.33333333  0.33333333  0.23611111  1.0
  Ni  Ni77  1  0.33333333  0.66666667  0.23611111  1.0
  Ni  Ni78  1  0.66666667  0.00000000  0.23611111  1.0
  Ni  Ni79  1  0.66666667  0.33333333  0.23611111  1.0
  Ni  Ni80  1  0.66666667  0.66666667  0.23611111  1.0
  Fe  Fe81  1  0.22222222  0.22382700  0.26388889  1.0
  Fe  Fe82  1  0.22222222  0.55716033  0.26388889  1.0
  Fe  Fe83  1  0.22222222  0.89049367  0.26388889  1.0
  Fe  Fe84  1  0.55555556  0.22382700  0.26388889  1.0
  Fe  Fe85  1  0.55555556  0.55716033  0.26388889  1.0
  Fe  Fe86  1  0.55555556  0.89049367  0.26388889  1.0
  Fe  Fe87  1  0.88888889  0.22382700  0.26388889  1.0
  Fe  Fe88  1  0.88888889  0.55716033  0.26388889  1.0
  Fe  Fe89  1  0.88888889  0.89049367  0.26388889  1.0
  Fe  Fe90  1  0.11111111  0.10950633  0.29166667  1.0
  Fe  Fe91  1  0.11111111  0.44283967  0.29166667  1.0
  Fe  Fe92  1  0.11111111  0.77617300  0.29166667  1.0
  Fe  Fe93  1  0.44444444  0.10950633  0.29166667  1.0
  Fe  Fe94  1  0.44444444  0.44283967  0.29166667  1.0
  Fe  Fe95  1  0.44444444  0.77617300  0.29166667  1.0
  Fe  Fe96  1  0.77777778  0.10950633  0.29166667  1.0
  Fe  Fe97  1  0.77777778  0.44283967  0.29166667  1.0
  Fe  Fe98  1  0.77777778  0.77617300  0.29166667  1.0
  Ni  Ni99  1  0.00000000  0.00000000  0.31944444  1.0
  Ni  Ni100  1  0.00000000  0.33333333  0.31944444  1.0
  Ni  Ni101  1  0.00000000  0.66666667  0.31944444  1.0
  Ni  Ni102  1  0.33333333  0.00000000  0.31944444  1.0
  Ni  Ni103  1  0.33333333  0.33333333  0.31944444  1.0
  Ni  Ni104  1  0.33333333  0.66666667  0.31944444  1.0
  Ni  Ni105  1  0.66666667  0.00000000  0.31944444  1.0
  Ni  Ni106  1  0.66666667  0.33333333  0.31944444  1.0
  Ni  Ni107  1  0.66666667  0.66666667  0.31944444  1.0
  Fe  Fe108  1  0.22222222  0.22382700  0.34722222  1.0
  Fe  Fe109  1  0.22222222  0.55716033  0.34722222  1.0
  Fe  Fe110  1  0.22222222  0.89049367  0.34722222  1.0
  Fe  Fe111  1  0.55555556  0.22382700  0.34722222  1.0
  Fe  Fe112  1  0.55555556  0.55716033  0.34722222  1.0
  Fe  Fe113  1  0.55555556  0.89049367  0.34722222  1.0
  Fe  Fe114  1  0.88888889  0.22382700  0.34722222  1.0
  Fe  Fe115  1  0.88888889  0.55716033  0.34722222  1.0
  Fe  Fe116  1  0.88888889  0.89049367  0.34722222  1.0
  Fe  Fe117  1  0.11111111  0.10950633  0.37500000  1.0
  Fe  Fe118  1  0.11111111  0.44283967  0.37500000  1.0
  Fe  Fe119  1  0.11111111  0.77617300  0.37500000  1.0
  Fe  Fe120  1  0.44444444  0.10950633  0.37500000  1.0
  Fe  Fe121  1  0.44444444  0.44283967  0.37500000  1.0
  Fe  Fe122  1  0.44444444  0.77617300  0.37500000  1.0
  Fe  Fe123  1  0.77777778  0.10950633  0.37500000  1.0
  Fe  Fe124  1  0.77777778  0.44283967  0.37500000  1.0
  Fe  Fe125  1  0.77777778  0.77617300  0.37500000  1.0
  Ni  Ni126  1  0.00000000  0.00000000  0.40277778  1.0
  Ni  Ni127  1  0.00000000  0.33333333  0.40277778  1.0
  Ni  Ni128  1  0.00000000  0.66666667  0.40277778  1.0
  Ni  Ni129  1  0.33333333  0.00000000  0.40277778  1.0
  Ni  Ni130  1  0.33333333  0.33333333  0.40277778  1.0
  Ni  Ni131  1  0.33333333  0.66666667  0.40277778  1.0
  Ni  Ni132  1  0.66666667  0.00000000  0.40277778  1.0
  Ni  Ni133  1  0.66666667  0.33333333  0.40277778  1.0
  Ni  Ni134  1  0.66666667  0.66666667  0.40277778  1.0
