# generated using pymatgen
data_Fe2Ni
_symmetry_space_group_name_H-M   'P 1'
_cell_length_a   7.55306052
_cell_length_b   7.55306052
_cell_length_c   31.33291500
_cell_angle_alpha   90.00000000
_cell_angle_beta   90.00000000
_cell_angle_gamma   120.00000000
_symmetry_Int_Tables_number   1
_chemical_formula_structural   Fe2Ni
_chemical_formula_sum   'Fe36 Ni18'
_cell_volume   1548.02283022
_cell_formula_units_Z   18
loop_
 _symmetry_equiv_pos_site_id
 _symmetry_equiv_pos_as_xyz
  1  'x, y, z'
loop_
 _atom_site_type_symbol
 _atom_site_label
 _atom_site_symmetry_multiplicity
 _atom_site_fract_x
 _atom_site_fract_y
 _atom_site_fract_z
 _atom_site_occupancy
  Fe  Fe0  1  0.11111111  0.22222222  0.10144430  1.0
  Fe  Fe1  1  0.11111111  0.55555556  0.10144430  1.0
  Fe  Fe2  1  0.11111111  0.88888889  0.10144430  1.0
  Fe  Fe3  1  0.44444444  0.22222222  0.10144430  1.0
  Fe  Fe4  1  0.44444444  0.55555556  0.10144430  1.0
  Fe  Fe5  1  0.44444444  0.88888889  0.10144430  1.0
  Fe  Fe6  1  0.77777778  0.22222222  0.10144430  1.0
  Fe  Fe7  1  0.77777778  0.55555556  0.10144430  1.0
  Fe  Fe8  1  0.77777778  0.88888889  0.10144430  1.0
  Fe  Fe9  1  0.22222222  0.11111111  0.03285190  1.0
  Fe  Fe10  1  0.22222222  0.44444444  0.03285190  1.0
  Fe  Fe11  1  0.22222222  0.77777778  0.03285190  1.0
  Fe  Fe12  1  0.55555556  0.11111111  0.03285190  1.0
  Fe  Fe13  1  0.55555556  0.44444444  0.03285190  1.0
  Fe  Fe14  1  0.55555556  0.77777778  0.03285190  1.0
  Fe  Fe15  1  0.88888889  0.11111111  0.03285190  1.0
  Fe  Fe16  1  0.88888889  0.44444444  0.03285190  1.0
  Fe  Fe17  1  0.88888889  0.77777778  0.03285190  1.0
  Ni  Ni18  1  0.00000000  0.00000000  0.16714810  1.0
  Ni  Ni19  1  0.00000000  0.33333333  0.16714810  1.0
  Ni  Ni20  1  0.00000000  0.66666667  0.16714810  1.0
  Ni  Ni21  1  0.33333333  0.00000000  0.16714810  1.0
  Ni  Ni22  1  0.33333333  0.33333333  0.16714810  1.0
  Ni  Ni23  1  0.33333333  0.66666667  0.16714810  1.0
  Ni  Ni24  1  0.66666667  0.00000000  0.16714810  1.0
  Ni  Ni25  1  0.66666667  0.33333333  0.16714810  1.0
  Ni  Ni26  1  0.66666667  0.66666667  0.16714810  1.0
  Fe  Fe27  1  0.11111111  0.22222222  0.30144430  1.0
  Fe  Fe28  1  0.11111111  0.55555556  0.30144430  1.0
  Fe  Fe29  1  0.11111111  0.88888889  0.30144430  1.0
  Fe  Fe30  1  0.44444444  0.22222222  0.30144430  1.0
  Fe  Fe31  1  0.44444444  0.55555556  0.30144430  1.0
  Fe  Fe32  1  0.44444444  0.88888889  0.30144430  1.0
  Fe  Fe33  1  0.77777778  0.22222222  0.30144430  1.0
  Fe  Fe34  1  0.77777778  0.55555556  0.30144430  1.0
  Fe  Fe35  1  0.77777778  0.88888889  0.30144430  1.0
  Fe  Fe36  1  0.22222222  0.11111111  0.23285190  1.0
  Fe  Fe37  1  0.22222222  0.44444444  0.23285190  1.0
  Fe  Fe38  1  0.22222222  0.77777778  0.23285190  1.0
  Fe  Fe39  1  0.55555556  0.11111111  0.23285190  1.0
  Fe  Fe40  1  0.55555556  0.44444444  0.23285190  1.0
  Fe  Fe41  1  0.55555556  0.77777778  0.23285190  1.0
  Fe  Fe42  1  0.88888889  0.11111111  0.23285190  1.0
  Fe  Fe43  1  0.88888889  0.44444444  0.23285190  1.0
  Fe  Fe44  1  0.88888889  0.77777778  0.23285190  1.0
  Ni  Ni45  1  0.00000000  0.00000000  0.36714810  1.0
  Ni  Ni46  1  0.00000000  0.33333333  0.36714810  1.0
  Ni  Ni47  1  0.00000000  0.66666667  0.36714810  1.0
  Ni  Ni48  1  0.33333333  0.00000000  0.36714810  1.0
  Ni  Ni49  1  0.33333333  0.33333333  0.36714810  1.0
  Ni  Ni50  1  0.33333333  0.66666667  0.36714810  1.0
  Ni  Ni51  1  0.66666667  0.00000000  0.36714810  1.0
  Ni  Ni52  1  0.66666667  0.33333333  0.36714810  1.0
  Ni  Ni53  1  0.66666667  0.66666667  0.36714810  1.0
