# generated using pymatgen
data_Fe2Ni
_symmetry_space_group_name_H-M   'P 1'
_cell_length_a   19.98351977
_cell_length_b   20.26028839
_cell_length_c   27.94465001
_cell_angle_alpha   83.83910521
_cell_angle_beta   87.07209528
_cell_angle_gamma   69.37414248
_symmetry_Int_Tables_number   1
_chemical_formula_structural   Fe2Ni
_chemical_formula_sum   'Fe252 Ni126'
_cell_volume   10526.55524546
_cell_formula_units_Z   126
loop_
 _symmetry_equiv_pos_site_id
 _symmetry_equiv_pos_as_xyz
  1  'x, y, z'
loop_
 _atom_site_type_symbol
 _atom_site_label
 _atom_site_symmetry_multiplicity
 _atom_site_fract_x
 _atom_site_fract_y
 _atom_site_fract_z
 _atom_site_occupancy
  Fe  Fe0  1  0.14925920  0.12425942  0.95574075  1.0
  Fe  Fe1  1  0.14925920  0.45759275  0.95574075  1.0
  Fe  Fe2  1  0.14925920  0.79092608  0.95574075  1.0
  Fe  Fe3  1  0.48259254  0.12425942  0.95574075  1.0
  Fe  Fe4  1  0.48259254  0.45759275  0.95574075  1.0
  Fe  Fe5  1  0.48259254  0.79092608  0.95574075  1.0
  Fe  Fe6  1  0.81592587  0.12425942  0.95574075  1.0
  Fe  Fe7  1  0.81592587  0.45759275  0.95574075  1.0
  Fe  Fe8  1  0.81592587  0.79092608  0.95574075  1.0
  Fe  Fe9  1  0.03161214  0.11445549  0.98515252  1.0
  Fe  Fe10  1  0.03161214  0.44778883  0.98515252  1.0
  Fe  Fe11  1  0.03161214  0.78112216  0.98515252  1.0
  Fe  Fe12  1  0.36494548  0.11445549  0.98515252  1.0
  Fe  Fe13  1  0.36494548  0.44778883  0.98515252  1.0
  Fe  Fe14  1  0.36494548  0.78112216  0.98515252  1.0
  Fe  Fe15  1  0.69827881  0.11445549  0.98515252  1.0
  Fe  Fe16  1  0.69827881  0.44778883  0.98515252  1.0
  Fe  Fe17  1  0.69827881  0.78112216  0.98515252  1.0
  Fe  Fe18  1  0.03701531  0.23848568  0.95602395  1.0
  Fe  Fe19  1  0.03701531  0.57181902  0.95602395  1.0
  Fe  Fe20  1  0.03701531  0.90515235  0.95602395  1.0
  Fe  Fe21  1  0.37034864  0.23848568  0.95602395  1.0
  Fe  Fe22  1  0.37034864  0.57181902  0.95602395  1.0
  Fe  Fe23  1  0.37034864  0.90515235  0.95602395  1.0
  Fe  Fe24  1  0.70368197  0.23848568  0.95602395  1.0
  Fe  Fe25  1  0.70368197  0.57181902  0.95602395  1.0
  Fe  Fe26  1  0.70368197  0.90515235  0.95602395  1.0
  Fe  Fe27  1  0.25270158  0.22868176  0.98543572  1.0
  Fe  Fe28  1  0.25270158  0.56201509  0.98543572  1.0
  Fe  Fe29  1  0.25270158  0.89534843  0.98543572  1.0
  Fe  Fe30  1  0.58603492  0.22868176  0.98543572  1.0
  Fe  Fe31  1  0.58603492  0.56201509  0.98543572  1.0
  Fe  Fe32  1  0.58603492  0.89534843  0.98543572  1.0
  Fe  Fe33  1  0.91936825  0.22868176  0.98543572  1.0
  Fe  Fe34  1  0.91936825  0.56201509  0.98543572  1.0
  Fe  Fe35  1  0.91936825  0.89534843  0.98543572  1.0
  Fe  Fe36  1  0.05121999  0.14386726  0.89691723  1.0
  Fe  Fe37  1  0.05121999  0.47720059  0.89691723  1.0
  Fe  Fe38  1  0.05121999  0.81053392  0.89691723  1.0
  Fe  Fe39  1  0.38455332  0.14386726  0.89691723  1.0
  Fe  Fe40  1  0.38455332  0.47720059  0.89691723  1.0
  Fe  Fe41  1  0.38455332  0.81053392  0.89691723  1.0
  Fe  Fe42  1  0.71788665  0.14386726  0.89691723  1.0
  Fe  Fe43  1  0.71788665  0.47720059  0.89691723  1.0
  Fe  Fe44  1  0.71788665  0.81053392  0.89691723  1.0
  Fe  Fe45  1  0.26690626  0.13406334  0.92632899  1.0
  Fe  Fe46  1  0.26690626  0.46739667  0.92632899  1.0
  Fe  Fe47  1  0.26690626  0.80073000  0.92632899  1.0
  Fe  Fe48  1  0.60023959  0.13406334  0.92632899  1.0
  Fe  Fe49  1  0.60023959  0.46739667  0.92632899  1.0
  Fe  Fe50  1  0.60023959  0.80073000  0.92632899  1.0
  Fe  Fe51  1  0.93357293  0.13406334  0.92632899  1.0
  Fe  Fe52  1  0.93357293  0.46739667  0.92632899  1.0
  Fe  Fe53  1  0.93357293  0.80073000  0.92632899  1.0
  Fe  Fe54  1  0.27230942  0.25809353  0.89720042  1.0
  Fe  Fe55  1  0.27230942  0.59142686  0.89720042  1.0
  Fe  Fe56  1  0.27230942  0.92476019  0.89720042  1.0
  Fe  Fe57  1  0.60564276  0.25809353  0.89720042  1.0
  Fe  Fe58  1  0.60564276  0.59142686  0.89720042  1.0
  Fe  Fe59  1  0.60564276  0.92476019  0.89720042  1.0
  Fe  Fe60  1  0.93897609  0.25809353  0.89720042  1.0
  Fe  Fe61  1  0.93897609  0.59142686  0.89720042  1.0
  Fe  Fe62  1  0.93897609  0.92476019  0.89720042  1.0
  Fe  Fe63  1  0.15466237  0.24828960  0.92661219  1.0
  Fe  Fe64  1  0.15466237  0.58162294  0.92661219  1.0
  Fe  Fe65  1  0.15466237  0.91495627  0.92661219  1.0
  Fe  Fe66  1  0.48799570  0.24828960  0.92661219  1.0
  Fe  Fe67  1  0.48799570  0.58162294  0.92661219  1.0
  Fe  Fe68  1  0.48799570  0.91495627  0.92661219  1.0
  Fe  Fe69  1  0.82132903  0.24828960  0.92661219  1.0
  Fe  Fe70  1  0.82132903  0.58162294  0.92661219  1.0
  Fe  Fe71  1  0.82132903  0.91495627  0.92661219  1.0
  Fe  Fe72  1  0.28651410  0.16347510  0.83809370  1.0
  Fe  Fe73  1  0.28651410  0.49680843  0.83809370  1.0
  Fe  Fe74  1  0.28651410  0.83014177  0.83809370  1.0
  Fe  Fe75  1  0.61984744  0.16347510  0.83809370  1.0
  Fe  Fe76  1  0.61984744  0.49680843  0.83809370  1.0
  Fe  Fe77  1  0.61984744  0.83014177  0.83809370  1.0
  Fe  Fe78  1  0.95318077  0.16347510  0.83809370  1.0
  Fe  Fe79  1  0.95318077  0.49680843  0.83809370  1.0
  Fe  Fe80  1  0.95318077  0.83014177  0.83809370  1.0
  Fe  Fe81  1  0.16886705  0.15367118  0.86750546  1.0
  Fe  Fe82  1  0.16886705  0.48700451  0.86750546  1.0
  Fe  Fe83  1  0.16886705  0.82033785  0.86750546  1.0
  Fe  Fe84  1  0.50220038  0.15367118  0.86750546  1.0
  Fe  Fe85  1  0.50220038  0.48700451  0.86750546  1.0
  Fe  Fe86  1  0.50220038  0.82033785  0.86750546  1.0
  Fe  Fe87  1  0.83553371  0.15367118  0.86750546  1.0
  Fe  Fe88  1  0.83553371  0.48700451  0.86750546  1.0
  Fe  Fe89  1  0.83553371  0.82033785  0.86750546  1.0
  Fe  Fe90  1  0.17427021  0.27770137  0.83837689  1.0
  Fe  Fe91  1  0.17427021  0.61103470  0.83837689  1.0
  Fe  Fe92  1  0.17427021  0.94436804  0.83837689  1.0
  Fe  Fe93  1  0.50760354  0.27770137  0.83837689  1.0
  Fe  Fe94  1  0.50760354  0.61103470  0.83837689  1.0
  Fe  Fe95  1  0.50760354  0.94436804  0.83837689  1.0
  Fe  Fe96  1  0.84093688  0.27770137  0.83837689  1.0
  Fe  Fe97  1  0.84093688  0.61103470  0.83837689  1.0
  Fe  Fe98  1  0.84093688  0.94436804  0.83837689  1.0
  Fe  Fe99  1  0.05662315  0.26789745  0.86778866  1.0
  Fe  Fe100  1  0.05662315  0.60123078  0.86778866  1.0
  Fe  Fe101  1  0.05662315  0.93456411  0.86778866  1.0
  Fe  Fe102  1  0.38995648  0.26789745  0.86778866  1.0
  Fe  Fe103  1  0.38995648  0.60123078  0.86778866  1.0
  Fe  Fe104  1  0.38995648  0.93456411  0.86778866  1.0
  Fe  Fe105  1  0.72328982  0.26789745  0.86778866  1.0
  Fe  Fe106  1  0.72328982  0.60123078  0.86778866  1.0
  Fe  Fe107  1  0.72328982  0.93456411  0.86778866  1.0
  Fe  Fe108  1  0.18847489  0.18308294  0.77927017  1.0
  Fe  Fe109  1  0.18847489  0.51641628  0.77927017  1.0
  Fe  Fe110  1  0.18847489  0.84974961  0.77927017  1.0
  Fe  Fe111  1  0.52180822  0.18308294  0.77927017  1.0
  Fe  Fe112  1  0.52180822  0.51641628  0.77927017  1.0
  Fe  Fe113  1  0.52180822  0.84974961  0.77927017  1.0
  Fe  Fe114  1  0.85514156  0.18308294  0.77927017  1.0
  Fe  Fe115  1  0.85514156  0.51641628  0.77927017  1.0
  Fe  Fe116  1  0.85514156  0.84974961  0.77927017  1.0
  Fe  Fe117  1  0.07082783  0.17327902  0.80868193  1.0
  Fe  Fe118  1  0.07082783  0.50661236  0.80868193  1.0
  Fe  Fe119  1  0.07082783  0.83994569  0.80868193  1.0
  Fe  Fe120  1  0.40416116  0.17327902  0.80868193  1.0
  Fe  Fe121  1  0.40416116  0.50661236  0.80868193  1.0
  Fe  Fe122  1  0.40416116  0.83994569  0.80868193  1.0
  Fe  Fe123  1  0.73749450  0.17327902  0.80868193  1.0
  Fe  Fe124  1  0.73749450  0.50661236  0.80868193  1.0
  Fe  Fe125  1  0.73749450  0.83994569  0.80868193  1.0
  Fe  Fe126  1  0.07623099  0.29730921  0.77955336  1.0
  Fe  Fe127  1  0.07623099  0.63064255  0.77955336  1.0
  Fe  Fe128  1  0.07623099  0.96397588  0.77955336  1.0
  Fe  Fe129  1  0.40956433  0.29730921  0.77955336  1.0
  Fe  Fe130  1  0.40956433  0.63064255  0.77955336  1.0
  Fe  Fe131  1  0.40956433  0.96397588  0.77955336  1.0
  Fe  Fe132  1  0.74289766  0.29730921  0.77955336  1.0
  Fe  Fe133  1  0.74289766  0.63064255  0.77955336  1.0
  Fe  Fe134  1  0.74289766  0.96397588  0.77955336  1.0
  Fe  Fe135  1  0.29191727  0.28750529  0.80896513  1.0
  Fe  Fe136  1  0.29191727  0.62083862  0.80896513  1.0
  Fe  Fe137  1  0.29191727  0.95417196  0.80896513  1.0
  Fe  Fe138  1  0.62525060  0.28750529  0.80896513  1.0
  Fe  Fe139  1  0.62525060  0.62083862  0.80896513  1.0
  Fe  Fe140  1  0.62525060  0.95417196  0.80896513  1.0
  Fe  Fe141  1  0.95858393  0.28750529  0.80896513  1.0
  Fe  Fe142  1  0.95858393  0.62083862  0.80896513  1.0
  Fe  Fe143  1  0.95858393  0.95417196  0.80896513  1.0
  Fe  Fe144  1  0.09043567  0.20269079  0.72044664  1.0
  Fe  Fe145  1  0.09043567  0.53602412  0.72044664  1.0
  Fe  Fe146  1  0.09043567  0.86935745  0.72044664  1.0
  Fe  Fe147  1  0.42376901  0.20269079  0.72044664  1.0
  Fe  Fe148  1  0.42376901  0.53602412  0.72044664  1.0
  Fe  Fe149  1  0.42376901  0.86935745  0.72044664  1.0
  Fe  Fe150  1  0.75710234  0.20269079  0.72044664  1.0
  Fe  Fe151  1  0.75710234  0.53602412  0.72044664  1.0
  Fe  Fe152  1  0.75710234  0.86935745  0.72044664  1.0
  Fe  Fe153  1  0.30612195  0.19288687  0.74985840  1.0
  Fe  Fe154  1  0.30612195  0.52622020  0.74985840  1.0
  Fe  Fe155  1  0.30612195  0.85955353  0.74985840  1.0
  Fe  Fe156  1  0.63945528  0.19288687  0.74985840  1.0
  Fe  Fe157  1  0.63945528  0.52622020  0.74985840  1.0
  Fe  Fe158  1  0.63945528  0.85955353  0.74985840  1.0
  Fe  Fe159  1  0.97278861  0.19288687  0.74985840  1.0
  Fe  Fe160  1  0.97278861  0.52622020  0.74985840  1.0
  Fe  Fe161  1  0.97278861  0.85955353  0.74985840  1.0
  Fe  Fe162  1  0.31152511  0.31691706  0.72072983  1.0
  Fe  Fe163  1  0.31152511  0.65025039  0.72072983  1.0
  Fe  Fe164  1  0.31152511  0.98358372  0.72072983  1.0
  Fe  Fe165  1  0.64485844  0.31691706  0.72072983  1.0
  Fe  Fe166  1  0.64485844  0.65025039  0.72072983  1.0
  Fe  Fe167  1  0.64485844  0.98358372  0.72072983  1.0
  Fe  Fe168  1  0.97819178  0.31691706  0.72072983  1.0
  Fe  Fe169  1  0.97819178  0.65025039  0.72072983  1.0
  Fe  Fe170  1  0.97819178  0.98358372  0.72072983  1.0
  Fe  Fe171  1  0.19387805  0.30711313  0.75014160  1.0
  Fe  Fe172  1  0.19387805  0.64044647  0.75014160  1.0
  Fe  Fe173  1  0.19387805  0.97377980  0.75014160  1.0
  Fe  Fe174  1  0.52721139  0.30711313  0.75014160  1.0
  Fe  Fe175  1  0.52721139  0.64044647  0.75014160  1.0
  Fe  Fe176  1  0.52721139  0.97377980  0.75014160  1.0
  Fe  Fe177  1  0.86054472  0.30711313  0.75014160  1.0
  Fe  Fe178  1  0.86054472  0.64044647  0.75014160  1.0
  Fe  Fe179  1  0.86054472  0.97377980  0.75014160  1.0
  Fe  Fe180  1  0.32572979  0.22229863  0.66162311  1.0
  Fe  Fe181  1  0.32572979  0.55563196  0.66162311  1.0
  Fe  Fe182  1  0.32572979  0.88896530  0.66162311  1.0
  Fe  Fe183  1  0.65906312  0.22229863  0.66162311  1.0
  Fe  Fe184  1  0.65906312  0.55563196  0.66162311  1.0
  Fe  Fe185  1  0.65906312  0.88896530  0.66162311  1.0
  Fe  Fe186  1  0.99239646  0.22229863  0.66162311  1.0
  Fe  Fe187  1  0.99239646  0.55563196  0.66162311  1.0
  Fe  Fe188  1  0.99239646  0.88896530  0.66162311  1.0
  Fe  Fe189  1  0.20808273  0.21249471  0.69103487  1.0
  Fe  Fe190  1  0.20808273  0.54582804  0.69103487  1.0
  Fe  Fe191  1  0.20808273  0.87916138  0.69103487  1.0
  Fe  Fe192  1  0.54141607  0.21249471  0.69103487  1.0
  Fe  Fe193  1  0.54141607  0.54582804  0.69103487  1.0
  Fe  Fe194  1  0.54141607  0.87916138  0.69103487  1.0
  Fe  Fe195  1  0.87474940  0.21249471  0.69103487  1.0
  Fe  Fe196  1  0.87474940  0.54582804  0.69103487  1.0
  Fe  Fe197  1  0.87474940  0.87916138  0.69103487  1.0
  Fe  Fe198  1  0.21348590  0.00319157  0.66190630  1.0
  Fe  Fe199  1  0.21348590  0.33652490  0.66190630  1.0
  Fe  Fe200  1  0.21348590  0.66985823  0.66190630  1.0
  Fe  Fe201  1  0.54681923  0.00319157  0.66190630  1.0
  Fe  Fe202  1  0.54681923  0.33652490  0.66190630  1.0
  Fe  Fe203  1  0.54681923  0.66985823  0.66190630  1.0
  Fe  Fe204  1  0.88015256  0.00319157  0.66190630  1.0
  Fe  Fe205  1  0.88015256  0.33652490  0.66190630  1.0
  Fe  Fe206  1  0.88015256  0.66985823  0.66190630  1.0
  Fe  Fe207  1  0.09583884  0.32672098  0.69131807  1.0
  Fe  Fe208  1  0.09583884  0.66005431  0.69131807  1.0
  Fe  Fe209  1  0.09583884  0.99338764  0.69131807  1.0
  Fe  Fe210  1  0.42917217  0.32672098  0.69131807  1.0
  Fe  Fe211  1  0.42917217  0.66005431  0.69131807  1.0
  Fe  Fe212  1  0.42917217  0.99338764  0.69131807  1.0
  Fe  Fe213  1  0.76250550  0.32672098  0.69131807  1.0
  Fe  Fe214  1  0.76250550  0.66005431  0.69131807  1.0
  Fe  Fe215  1  0.76250550  0.99338764  0.69131807  1.0
  Fe  Fe216  1  0.22769058  0.24190647  0.60279958  1.0
  Fe  Fe217  1  0.22769058  0.57523981  0.60279958  1.0
  Fe  Fe218  1  0.22769058  0.90857314  0.60279958  1.0
  Fe  Fe219  1  0.56102391  0.24190647  0.60279958  1.0
  Fe  Fe220  1  0.56102391  0.57523981  0.60279958  1.0
  Fe  Fe221  1  0.56102391  0.90857314  0.60279958  1.0
  Fe  Fe222  1  0.89435724  0.24190647  0.60279958  1.0
  Fe  Fe223  1  0.89435724  0.57523981  0.60279958  1.0
  Fe  Fe224  1  0.89435724  0.90857314  0.60279958  1.0
  Fe  Fe225  1  0.11004352  0.23210255  0.63221134  1.0
  Fe  Fe226  1  0.11004352  0.56543589  0.63221134  1.0
  Fe  Fe227  1  0.11004352  0.89876922  0.63221134  1.0
  Fe  Fe228  1  0.44337685  0.23210255  0.63221134  1.0
  Fe  Fe229  1  0.44337685  0.56543589  0.63221134  1.0
  Fe  Fe230  1  0.44337685  0.89876922  0.63221134  1.0
  Fe  Fe231  1  0.77671018  0.23210255  0.63221134  1.0
  Fe  Fe232  1  0.77671018  0.56543589  0.63221134  1.0
  Fe  Fe233  1  0.77671018  0.89876922  0.63221134  1.0
  Fe  Fe234  1  0.11544668  0.02279941  0.60308277  1.0
  Fe  Fe235  1  0.11544668  0.35613274  0.60308277  1.0
  Fe  Fe236  1  0.11544668  0.68946608  0.60308277  1.0
  Fe  Fe237  1  0.44878001  0.02279941  0.60308277  1.0
  Fe  Fe238  1  0.44878001  0.35613274  0.60308277  1.0
  Fe  Fe239  1  0.44878001  0.68946608  0.60308277  1.0
  Fe  Fe240  1  0.78211335  0.02279941  0.60308277  1.0
  Fe  Fe241  1  0.78211335  0.35613274  0.60308277  1.0
  Fe  Fe242  1  0.78211335  0.68946608  0.60308277  1.0
  Fe  Fe243  1  0.33113295  0.01299549  0.63249454  1.0
  Fe  Fe244  1  0.33113295  0.34632882  0.63249454  1.0
  Fe  Fe245  1  0.33113295  0.67966215  0.63249454  1.0
  Fe  Fe246  1  0.66446629  0.01299549  0.63249454  1.0
  Fe  Fe247  1  0.66446629  0.34632882  0.63249454  1.0
  Fe  Fe248  1  0.66446629  0.67966215  0.63249454  1.0
  Fe  Fe249  1  0.99779962  0.01299549  0.63249454  1.0
  Fe  Fe250  1  0.99779962  0.34632882  0.63249454  1.0
  Fe  Fe251  1  0.99779962  0.67966215  0.63249454  1.0
  Ni  Ni252  1  0.25980392  0.01470588  0.95588235  1.0
  Ni  Ni253  1  0.25980392  0.34803922  0.95588235  1.0
  Ni  Ni254  1  0.25980392  0.68137255  0.95588235  1.0
  Ni  Ni255  1  0.59313725  0.01470588  0.95588235  1.0
  Ni  Ni256  1  0.59313725  0.34803922  0.95588235  1.0
  Ni  Ni257  1  0.59313725  0.68137255  0.95588235  1.0
  Ni  Ni258  1  0.92647059  0.01470588  0.95588235  1.0
  Ni  Ni259  1  0.92647059  0.34803922  0.95588235  1.0
  Ni  Ni260  1  0.92647059  0.68137255  0.95588235  1.0
  Ni  Ni261  1  0.14215686  0.00490196  0.98529412  1.0
  Ni  Ni262  1  0.14215686  0.33823529  0.98529412  1.0
  Ni  Ni263  1  0.14215686  0.67156863  0.98529412  1.0
  Ni  Ni264  1  0.47549020  0.00490196  0.98529412  1.0
  Ni  Ni265  1  0.47549020  0.33823529  0.98529412  1.0
  Ni  Ni266  1  0.47549020  0.67156863  0.98529412  1.0
  Ni  Ni267  1  0.80882353  0.00490196  0.98529412  1.0
  Ni  Ni268  1  0.80882353  0.33823529  0.98529412  1.0
  Ni  Ni269  1  0.80882353  0.67156863  0.98529412  1.0
  Ni  Ni270  1  0.16176471  0.03431373  0.89705882  1.0
  Ni  Ni271  1  0.16176471  0.36764706  0.89705882  1.0
  Ni  Ni272  1  0.16176471  0.70098039  0.89705882  1.0
  Ni  Ni273  1  0.49509804  0.03431373  0.89705882  1.0
  Ni  Ni274  1  0.49509804  0.36764706  0.89705882  1.0
  Ni  Ni275  1  0.49509804  0.70098039  0.89705882  1.0
  Ni  Ni276  1  0.82843137  0.03431373  0.89705882  1.0
  Ni  Ni277  1  0.82843137  0.36764706  0.89705882  1.0
  Ni  Ni278  1  0.82843137  0.70098039  0.89705882  1.0
  Ni  Ni279  1  0.04411765  0.02450980  0.92647059  1.0
  Ni  Ni280  1  0.04411765  0.35784314  0.92647059  1.0
  Ni  Ni281  1  0.04411765  0.69117647  0.92647059  1.0
  Ni  Ni282  1  0.37745098  0.02450980  0.92647059  1.0
  Ni  Ni283  1  0.37745098  0.35784314  0.92647059  1.0
  Ni  Ni284  1  0.37745098  0.69117647  0.92647059  1.0
  Ni  Ni285  1  0.71078431  0.02450980  0.92647059  1.0
  Ni  Ni286  1  0.71078431  0.35784314  0.92647059  1.0
  Ni  Ni287  1  0.71078431  0.69117647  0.92647059  1.0
  Ni  Ni288  1  0.06372549  0.05392157  0.83823529  1.0
  Ni  Ni289  1  0.06372549  0.38725490  0.83823529  1.0
  Ni  Ni290  1  0.06372549  0.72058824  0.83823529  1.0
  Ni  Ni291  1  0.39705882  0.05392157  0.83823529  1.0
  Ni  Ni292  1  0.39705882  0.38725490  0.83823529  1.0
  Ni  Ni293  1  0.39705882  0.72058824  0.83823529  1.0
  Ni  Ni294  1  0.73039216  0.05392157  0.83823529  1.0
  Ni  Ni295  1  0.73039216  0.38725490  0.83823529  1.0
  Ni  Ni296  1  0.73039216  0.72058824  0.83823529  1.0
  Ni  Ni297  1  0.27941176  0.04411765  0.86764706  1.0
  Ni  Ni298  1  0.27941176  0.37745098  0.86764706  1.0
  Ni  Ni299  1  0.27941176  0.71078431  0.86764706  1.0
  Ni  Ni300  1  0.61274510  0.04411765  0.86764706  1.0
  Ni  Ni301  1  0.61274510  0.37745098  0.86764706  1.0
  Ni  Ni302  1  0.61274510  0.71078431  0.86764706  1.0
  Ni  Ni303  1  0.94607843  0.04411765  0.86764706  1.0
  Ni  Ni304  1  0.94607843  0.37745098  0.86764706  1.0
  Ni  Ni305  1  0.94607843  0.71078431  0.86764706  1.0
  Ni  Ni306  1  0.29901961  0.07352941  0.77941176  1.0
  Ni  Ni307  1  0.29901961  0.40686275  0.77941176  1.0
  Ni  Ni308  1  0.29901961  0.74019608  0.77941176  1.0
  Ni  Ni309  1  0.63235294  0.07352941  0.77941176  1.0
  Ni  Ni310  1  0.63235294  0.40686275  0.77941176  1.0
  Ni  Ni311  1  0.63235294  0.74019608  0.77941176  1.0
  Ni  Ni312  1  0.96568627  0.07352941  0.77941176  1.0
  Ni  Ni313  1  0.96568627  0.40686275  0.77941176  1.0
  Ni  Ni314  1  0.96568627  0.74019608  0.77941176  1.0
  Ni  Ni315  1  0.18137255  0.06372549  0.80882353  1.0
  Ni  Ni316  1  0.18137255  0.39705882  0.80882353  1.0
  Ni  Ni317  1  0.18137255  0.73039216  0.80882353  1.0
  Ni  Ni318  1  0.51470588  0.06372549  0.80882353  1.0
  Ni  Ni319  1  0.51470588  0.39705882  0.80882353  1.0
  Ni  Ni320  1  0.51470588  0.73039216  0.80882353  1.0
  Ni  Ni321  1  0.84803922  0.06372549  0.80882353  1.0
  Ni  Ni322  1  0.84803922  0.39705882  0.80882353  1.0
  Ni  Ni323  1  0.84803922  0.73039216  0.80882353  1.0
  Ni  Ni324  1  0.20098039  0.09313725  0.72058824  1.0
  Ni  Ni325  1  0.20098039  0.42647059  0.72058824  1.0
  Ni  Ni326  1  0.20098039  0.75980392  0.72058824  1.0
  Ni  Ni327  1  0.53431373  0.09313725  0.72058824  1.0
  Ni  Ni328  1  0.53431373  0.42647059  0.72058824  1.0
  Ni  Ni329  1  0.53431373  0.75980392  0.72058824  1.0
  Ni  Ni330  1  0.86764706  0.09313725  0.72058824  1.0
  Ni  Ni331  1  0.86764706  0.42647059  0.72058824  1.0
  Ni  Ni332  1  0.86764706  0.75980392  0.72058824  1.0
  Ni  Ni333  1  0.08333333  0.08333333  0.75000000  1.0
  Ni  Ni334  1  0.08333333  0.41666667  0.75000000  1.0
  Ni  Ni335  1  0.08333333  0.75000000  0.75000000  1.0
  Ni  Ni336  1  0.41666667  0.08333333  0.75000000  1.0
  Ni  Ni337  1  0.41666667  0.41666667  0.75000000  1.0
  Ni  Ni338  1  0.41666667  0.75000000  0.75000000  1.0
  Ni  Ni339  1  0.75000000  0.08333333  0.75000000  1.0
  Ni  Ni340  1  0.75000000  0.41666667  0.75000000  1.0
  Ni  Ni341  1  0.75000000  0.75000000  0.75000000  1.0
  Ni  Ni342  1  0.10294118  0.11274510  0.66176471  1.0
  Ni  Ni343  1  0.10294118  0.44607843  0.66176471  1.0
  Ni  Ni344  1  0.10294118  0.77941176  0.66176471  1.0
  Ni  Ni345  1  0.43627451  0.11274510  0.66176471  1.0
  Ni  Ni346  1  0.43627451  0.44607843  0.66176471  1.0
  Ni  Ni347  1  0.43627451  0.77941176  0.66176471  1.0
  Ni  Ni348  1  0.76960784  0.11274510  0.66176471  1.0
  Ni  Ni349  1  0.76960784  0.44607843  0.66176471  1.0
  Ni  Ni350  1  0.76960784  0.77941176  0.66176471  1.0
  Ni  Ni351  1  0.31862745  0.10294118  0.69117647  1.0
  Ni  Ni352  1  0.31862745  0.43627451  0.69117647  1.0
  Ni  Ni353  1  0.31862745  0.76960784  0.69117647  1.0
  Ni  Ni354  1  0.65196078  0.10294118  0.69117647  1.0
  Ni  Ni355  1  0.65196078  0.43627451  0.69117647  1.0
  Ni  Ni356  1  0.65196078  0.76960784  0.69117647  1.0
  Ni  Ni357  1  0.98529412  0.10294118  0.69117647  1.0
  Ni  Ni358  1  0.98529412  0.43627451  0.69117647  1.0
  Ni  Ni359  1  0.98529412  0.76960784  0.69117647  1.0
  Ni  Ni360  1  0.00490196  0.13235294  0.60294118  1.0
  Ni  Ni361  1  0.00490196  0.46568627  0.60294118  1.0
  Ni  Ni362  1  0.00490196  0.79901961  0.60294118  1.0
  Ni  Ni363  1  0.33823529  0.13235294  0.60294118  1.0
  Ni  Ni364  1  0.33823529  0.46568627  0.60294118  1.0
  Ni  Ni365  1  0.33823529  0.79901961  0.60294118  1.0
  Ni  Ni366  1  0.67156863  0.13235294  0.60294118  1.0
  Ni  Ni367  1  0.67156863  0.46568627  0.60294118  1.0
  Ni  Ni368  1  0.67156863  0.79901961  0.60294118  1.0
  Ni  Ni369  1  0.22058824  0.12254902  0.63235294  1.0
  Ni  Ni370  1  0.22058824  0.45588235  0.63235294  1.0
  Ni  Ni371  1  0.22058824  0.78921569  0.63235294  1.0
  Ni  Ni372  1  0.55392157  0.12254902  0.63235294  1.0
  Ni  Ni373  1  0.55392157  0.45588235  0.63235294  1.0
  Ni  Ni374  1  0.55392157  0.78921569  0.63235294  1.0
  Ni  Ni375  1  0.88725490  0.12254902  0.63235294  1.0
  Ni  Ni376  1  0.88725490  0.45588235  0.63235294  1.0
  Ni  Ni377  1  0.88725490  0.78921569  0.63235294  1.0
