# generated using pymatgen
data_Fe2Ni
_symmetry_space_group_name_H-M   'P 1'
_cell_length_a   13.84858590
_cell_length_b   13.84858590
_cell_length_c   32.31336710
_cell_angle_alpha   120.00000000
_cell_angle_beta   120.00000000
_cell_angle_gamma   60.00000000
_symmetry_Int_Tables_number   1
_chemical_formula_structural   Fe2Ni
_chemical_formula_sum   'Fe108 Ni54'
_cell_volume   4382.05753150
_cell_formula_units_Z   54
loop_
 _symmetry_equiv_pos_site_id
 _symmetry_equiv_pos_as_xyz
  1  'x, y, z'
loop_
 _atom_site_type_symbol
 _atom_site_label
 _atom_site_symmetry_multiplicity
 _atom_site_fract_x
 _atom_site_fract_y
 _atom_site_fract_z
 _atom_site_occupancy
  Fe  Fe0  1  0.04166667  0.20833333  0.11607143  1.0
  Fe  Fe1  1  0.04166667  0.54166667  0.11607143  1.0
  Fe  Fe2  1  0.04166667  0.87500000  0.11607143  1.0
  Fe  Fe3  1  0.37500000  0.20833333  0.11607143  1.0
  Fe  Fe4  1  0.37500000  0.54166667  0.11607143  1.0
  Fe  Fe5  1  0.37500000  0.87500000  0.11607143  1.0
  Fe  Fe6  1  0.70833333  0.20833333  0.11607143  1.0
  Fe  Fe7  1  0.70833333  0.54166667  0.11607143  1.0
  Fe  Fe8  1  0.70833333  0.87500000  0.11607143  1.0
  Fe  Fe9  1  0.20833333  0.04166667  0.11607143  1.0
  Fe  Fe10  1  0.20833333  0.37500000  0.11607143  1.0
  Fe  Fe11  1  0.20833333  0.70833333  0.11607143  1.0
  Fe  Fe12  1  0.54166667  0.04166667  0.11607143  1.0
  Fe  Fe13  1  0.54166667  0.37500000  0.11607143  1.0
  Fe  Fe14  1  0.54166667  0.70833333  0.11607143  1.0
  Fe  Fe15  1  0.87500000  0.04166667  0.11607143  1.0
  Fe  Fe16  1  0.87500000  0.37500000  0.11607143  1.0
  Fe  Fe17  1  0.87500000  0.70833333  0.11607143  1.0
  Fe  Fe18  1  0.04166667  0.04166667  0.11607143  1.0
  Fe  Fe19  1  0.04166667  0.37500000  0.11607143  1.0
  Fe  Fe20  1  0.04166667  0.70833333  0.11607143  1.0
  Fe  Fe21  1  0.37500000  0.04166667  0.11607143  1.0
  Fe  Fe22  1  0.37500000  0.37500000  0.11607143  1.0
  Fe  Fe23  1  0.37500000  0.70833333  0.11607143  1.0
  Fe  Fe24  1  0.70833333  0.04166667  0.11607143  1.0
  Fe  Fe25  1  0.70833333  0.37500000  0.11607143  1.0
  Fe  Fe26  1  0.70833333  0.70833333  0.11607143  1.0
  Fe  Fe27  1  0.04166667  0.04166667  0.04464286  1.0
  Fe  Fe28  1  0.04166667  0.37500000  0.04464286  1.0
  Fe  Fe29  1  0.04166667  0.70833333  0.04464286  1.0
  Fe  Fe30  1  0.37500000  0.04166667  0.04464286  1.0
  Fe  Fe31  1  0.37500000  0.37500000  0.04464286  1.0
  Fe  Fe32  1  0.37500000  0.70833333  0.04464286  1.0
  Fe  Fe33  1  0.70833333  0.04166667  0.04464286  1.0
  Fe  Fe34  1  0.70833333  0.37500000  0.04464286  1.0
  Fe  Fe35  1  0.70833333  0.70833333  0.04464286  1.0
  Ni  Ni36  1  0.25000000  0.25000000  0.02678571  1.0
  Ni  Ni37  1  0.25000000  0.58333333  0.02678571  1.0
  Ni  Ni38  1  0.25000000  0.91666667  0.02678571  1.0
  Ni  Ni39  1  0.58333333  0.25000000  0.02678571  1.0
  Ni  Ni40  1  0.58333333  0.58333333  0.02678571  1.0
  Ni  Ni41  1  0.58333333  0.91666667  0.02678571  1.0
  Ni  Ni42  1  0.91666667  0.25000000  0.02678571  1.0
  Ni  Ni43  1  0.91666667  0.58333333  0.02678571  1.0
  Ni  Ni44  1  0.91666667  0.91666667  0.02678571  1.0
  Ni  Ni45  1  0.16666667  0.16666667  0.06250000  1.0
  Ni  Ni46  1  0.16666667  0.50000000  0.06250000  1.0
  Ni  Ni47  1  0.16666667  0.83333333  0.06250000  1.0
  Ni  Ni48  1  0.50000000  0.16666667  0.06250000  1.0
  Ni  Ni49  1  0.50000000  0.50000000  0.06250000  1.0
  Ni  Ni50  1  0.50000000  0.83333333  0.06250000  1.0
  Ni  Ni51  1  0.83333333  0.16666667  0.06250000  1.0
  Ni  Ni52  1  0.83333333  0.50000000  0.06250000  1.0
  Ni  Ni53  1  0.83333333  0.83333333  0.06250000  1.0
  Fe  Fe54  1  0.04166667  0.20833333  0.25892857  1.0
  Fe  Fe55  1  0.04166667  0.54166667  0.25892857  1.0
  Fe  Fe56  1  0.04166667  0.87500000  0.25892857  1.0
  Fe  Fe57  1  0.37500000  0.20833333  0.25892857  1.0
  Fe  Fe58  1  0.37500000  0.54166667  0.25892857  1.0
  Fe  Fe59  1  0.37500000  0.87500000  0.25892857  1.0
  Fe  Fe60  1  0.70833333  0.20833333  0.25892857  1.0
  Fe  Fe61  1  0.70833333  0.54166667  0.25892857  1.0
  Fe  Fe62  1  0.70833333  0.87500000  0.25892857  1.0
  Fe  Fe63  1  0.20833333  0.04166667  0.25892857  1.0
  Fe  Fe64  1  0.20833333  0.37500000  0.25892857  1.0
  Fe  Fe65  1  0.20833333  0.70833333  0.25892857  1.0
  Fe  Fe66  1  0.54166667  0.04166667  0.25892857  1.0
  Fe  Fe67  1  0.54166667  0.37500000  0.25892857  1.0
  Fe  Fe68  1  0.54166667  0.70833333  0.25892857  1.0
  Fe  Fe69  1  0.87500000  0.04166667  0.25892857  1.0
  Fe  Fe70  1  0.87500000  0.37500000  0.25892857  1.0
  Fe  Fe71  1  0.87500000  0.70833333  0.25892857  1.0
  Fe  Fe72  1  0.04166667  0.04166667  0.25892857  1.0
  Fe  Fe73  1  0.04166667  0.37500000  0.25892857  1.0
  Fe  Fe74  1  0.04166667  0.70833333  0.25892857  1.0
  Fe  Fe75  1  0.37500000  0.04166667  0.25892857  1.0
  Fe  Fe76  1  0.37500000  0.37500000  0.25892857  1.0
  Fe  Fe77  1  0.37500000  0.70833333  0.25892857  1.0
  Fe  Fe78  1  0.70833333  0.04166667  0.25892857  1.0
  Fe  Fe79  1  0.70833333  0.37500000  0.25892857  1.0
  Fe  Fe80  1  0.70833333  0.70833333  0.25892857  1.0
  Fe  Fe81  1  0.04166667  0.04166667  0.18750000  1.0
  Fe  Fe82  1  0.04166667  0.37500000  0.18750000  1.0
  Fe  Fe83  1  0.04166667  0.70833333  0.18750000  1.0
  Fe  Fe84  1  0.37500000  0.04166667  0.18750000  1.0
  Fe  Fe85  1  0.37500000  0.37500000  0.18750000  1.0
  Fe  Fe86  1  0.37500000  0.70833333  0.18750000  1.0
  Fe  Fe87  1  0.70833333  0.04166667  0.18750000  1.0
  Fe  Fe88  1  0.70833333  0.37500000  0.18750000  1.0
  Fe  Fe89  1  0.70833333  0.70833333  0.18750000  1.0
  Ni  Ni90  1  0.25000000  0.25000000  0.16964286  1.0
  Ni  Ni91  1  0.25000000  0.58333333  0.16964286  1.0
  Ni  Ni92  1  0.25000000  0.91666667  0.16964286  1.0
  Ni  Ni93  1  0.58333333  0.25000000  0.16964286  1.0
  Ni  Ni94  1  0.58333333  0.58333333  0.16964286  1.0
  Ni  Ni95  1  0.58333333  0.91666667  0.16964286  1.0
  Ni  Ni96  1  0.91666667  0.25000000  0.16964286  1.0
  Ni  Ni97  1  0.91666667  0.58333333  0.16964286  1.0
  Ni  Ni98  1  0.91666667  0.91666667  0.16964286  1.0
  Ni  Ni99  1  0.16666667  0.16666667  0.20535714  1.0
  Ni  Ni100  1  0.16666667  0.50000000  0.20535714  1.0
  Ni  Ni101  1  0.16666667  0.83333333  0.20535714  1.0
  Ni  Ni102  1  0.50000000  0.16666667  0.20535714  1.0
  Ni  Ni103  1  0.50000000  0.50000000  0.20535714  1.0
  Ni  Ni104  1  0.50000000  0.83333333  0.20535714  1.0
  Ni  Ni105  1  0.83333333  0.16666667  0.20535714  1.0
  Ni  Ni106  1  0.83333333  0.50000000  0.20535714  1.0
  Ni  Ni107  1  0.83333333  0.83333333  0.20535714  1.0
  Fe  Fe108  1  0.04166667  0.20833333  0.40178571  1.0
  Fe  Fe109  1  0.04166667  0.54166667  0.40178571  1.0
  Fe  Fe110  1  0.04166667  0.87500000  0.40178571  1.0
  Fe  Fe111  1  0.37500000  0.20833333  0.40178571  1.0
  Fe  Fe112  1  0.37500000  0.54166667  0.40178571  1.0
  Fe  Fe113  1  0.37500000  0.87500000  0.40178571  1.0
  Fe  Fe114  1  0.70833333  0.20833333  0.40178571  1.0
  Fe  Fe115  1  0.70833333  0.54166667  0.40178571  1.0
  Fe  Fe116  1  0.70833333  0.87500000  0.40178571  1.0
  Fe  Fe117  1  0.20833333  0.04166667  0.40178571  1.0
  Fe  Fe118  1  0.20833333  0.37500000  0.40178571  1.0
  Fe  Fe119  1  0.20833333  0.70833333  0.40178571  1.0
  Fe  Fe120  1  0.54166667  0.04166667  0.40178571  1.0
  Fe  Fe121  1  0.54166667  0.37500000  0.40178571  1.0
  Fe  Fe122  1  0.54166667  0.70833333  0.40178571  1.0
  Fe  Fe123  1  0.87500000  0.04166667  0.40178571  1.0
  Fe  Fe124  1  0.87500000  0.37500000  0.40178571  1.0
  Fe  Fe125  1  0.87500000  0.70833333  0.40178571  1.0
  Fe  Fe126  1  0.04166667  0.04166667  0.40178571  1.0
  Fe  Fe127  1  0.04166667  0.37500000  0.40178571  1.0
  Fe  Fe128  1  0.04166667  0.70833333  0.40178571  1.0
  Fe  Fe129  1  0.37500000  0.04166667  0.40178571  1.0
  Fe  Fe130  1  0.37500000  0.37500000  0.40178571  1.0
  Fe  Fe131  1  0.37500000  0.70833333  0.40178571  1.0
  Fe  Fe132  1  0.70833333  0.04166667  0.40178571  1.0
  Fe  Fe133  1  0.70833333  0.37500000  0.40178571  1.0
  Fe  Fe134  1  0.70833333  0.70833333  0.40178571  1.0
  Fe  Fe135  1  0.04166667  0.04166667  0.33035714  1.0
  Fe  Fe136  1  0.04166667  0.37500000  0.33035714  1.0
  Fe  Fe137  1  0.04166667  0.70833333  0.33035714  1.0
  Fe  Fe138  1  0.37500000  0.04166667  0.33035714  1.0
  Fe  Fe139  1  0.37500000  0.37500000  0.33035714  1.0
  Fe  Fe140  1  0.37500000  0.70833333  0.33035714  1.0
  Fe  Fe141  1  0.70833333  0.04166667  0.33035714  1.0
  Fe  Fe142  1  0.70833333  0.37500000  0.33035714  1.0
  Fe  Fe143  1  0.70833333  0.70833333  0.33035714  1.0
  Ni  Ni144  1  0.25000000  0.25000000  0.31250000  1.0
  Ni  Ni145  1  0.25000000  0.58333333  0.31250000  1.0
  Ni  Ni146  1  0.25000000  0.91666667  0.31250000  1.0
  Ni  Ni147  1  0.58333333  0.25000000  0.31250000  1.0
  Ni  Ni148  1  0.58333333  0.58333333  0.31250000  1.0
  Ni  Ni149  1  0.58333333  0.91666667  0.31250000  1.0
  Ni  Ni150  1  0.91666667  0.25000000  0.31250000  1.0
  Ni  Ni151  1  0.91666667  0.58333333  0.31250000  1.0
  Ni  Ni152  1  0.91666667  0.91666667  0.31250000  1.0
  Ni  Ni153  1  0.16666667  0.16666667  0.34821429  1.0
  Ni  Ni154  1  0.16666667  0.50000000  0.34821429  1.0
  Ni  Ni155  1  0.16666667  0.83333333  0.34821429  1.0
  Ni  Ni156  1  0.50000000  0.16666667  0.34821429  1.0
  Ni  Ni157  1  0.50000000  0.50000000  0.34821429  1.0
  Ni  Ni158  1  0.50000000  0.83333333  0.34821429  1.0
  Ni  Ni159  1  0.83333333  0.16666667  0.34821429  1.0
  Ni  Ni160  1  0.83333333  0.50000000  0.34821429  1.0
  Ni  Ni161  1  0.83333333  0.83333333  0.34821429  1.0
