# generated using pymatgen
data_Fe3Ni
_symmetry_space_group_name_H-M   'P 1'
_cell_length_a   7.51013874
_cell_length_b   26.34296095
_cell_length_c   28.68567484
_cell_angle_alpha   92.41889648
_cell_angle_beta   90.00000000
_cell_angle_gamma   90.00000000
_symmetry_Int_Tables_number   1
_chemical_formula_structural   Fe3Ni
_chemical_formula_sum   'Fe162 Ni54'
_cell_volume   5670.09682691
_cell_formula_units_Z   54
loop_
 _symmetry_equiv_pos_site_id
 _symmetry_equiv_pos_as_xyz
  1  'x, y, z'
loop_
 _atom_site_type_symbol
 _atom_site_label
 _atom_site_symmetry_multiplicity
 _atom_site_fract_x
 _atom_site_fract_y
 _atom_site_fract_z
 _atom_site_occupancy
  Fe  Fe0  1  0.33333333  0.17845200  0.96424800  1.0
  Fe  Fe1  1  0.33333333  0.51178533  0.96424800  1.0
  Fe  Fe2  1  0.33333333  0.84511867  0.96424800  1.0
  Fe  Fe3  1  0.66666667  0.17845200  0.96424800  1.0
  Fe  Fe4  1  0.66666667  0.51178533  0.96424800  1.0
  Fe  Fe5  1  0.66666667  0.84511867  0.96424800  1.0
  Fe  Fe6  1  1.00000000  0.17845200  0.96424800  1.0
  Fe  Fe7  1  1.00000000  0.51178533  0.96424800  1.0
  Fe  Fe8  1  0.00000000  0.84511867  0.96424800  1.0
  Fe  Fe9  1  0.16666667  0.20226152  0.89281943  1.0
  Fe  Fe10  1  0.16666667  0.53559486  0.89281943  1.0
  Fe  Fe11  1  0.16666667  0.86892819  0.89281943  1.0
  Fe  Fe12  1  0.50000000  0.20226152  0.89281943  1.0
  Fe  Fe13  1  0.50000000  0.53559486  0.89281943  1.0
  Fe  Fe14  1  0.50000000  0.86892819  0.89281943  1.0
  Fe  Fe15  1  0.83333333  0.20226152  0.89281943  1.0
  Fe  Fe16  1  0.83333333  0.53559486  0.89281943  1.0
  Fe  Fe17  1  0.83333333  0.86892819  0.89281943  1.0
  Fe  Fe18  1  0.00000000  0.28571429  0.89285714  1.0
  Fe  Fe19  1  0.00000000  0.61904762  0.89285714  1.0
  Fe  Fe20  1  0.00000000  0.95238095  0.89285714  1.0
  Fe  Fe21  1  0.33333333  0.28571429  0.89285714  1.0
  Fe  Fe22  1  0.33333333  0.61904762  0.89285714  1.0
  Fe  Fe23  1  0.33333333  0.95238095  0.89285714  1.0
  Fe  Fe24  1  0.66666667  0.28571429  0.89285714  1.0
  Fe  Fe25  1  0.66666667  0.61904762  0.89285714  1.0
  Fe  Fe26  1  0.66666667  0.95238095  0.89285714  1.0
  Fe  Fe27  1  0.16666667  0.26190476  0.96428571  1.0
  Fe  Fe28  1  0.16666667  0.59523810  0.96428571  1.0
  Fe  Fe29  1  0.16666667  0.92857143  0.96428571  1.0
  Fe  Fe30  1  0.50000000  0.26190476  0.96428571  1.0
  Fe  Fe31  1  0.50000000  0.59523810  0.96428571  1.0
  Fe  Fe32  1  0.50000000  0.92857143  0.96428571  1.0
  Fe  Fe33  1  0.83333333  0.26190476  0.96428571  1.0
  Fe  Fe34  1  0.83333333  0.59523810  0.96428571  1.0
  Fe  Fe35  1  0.83333333  0.92857143  0.96428571  1.0
  Fe  Fe36  1  0.00000000  0.01202419  0.96432343  1.0
  Fe  Fe37  1  0.00000000  0.34535752  0.96432343  1.0
  Fe  Fe38  1  0.00000000  0.67869086  0.96432343  1.0
  Fe  Fe39  1  0.33333333  0.01202419  0.96432343  1.0
  Fe  Fe40  1  0.33333333  0.34535752  0.96432343  1.0
  Fe  Fe41  1  0.33333333  0.67869086  0.96432343  1.0
  Fe  Fe42  1  0.66666667  0.01202419  0.96432343  1.0
  Fe  Fe43  1  0.66666667  0.34535752  0.96432343  1.0
  Fe  Fe44  1  0.66666667  0.67869086  0.96432343  1.0
  Fe  Fe45  1  0.16666667  0.03583371  0.89289486  1.0
  Fe  Fe46  1  0.16666667  0.36916705  0.89289486  1.0
  Fe  Fe47  1  0.16666667  0.70250038  0.89289486  1.0
  Fe  Fe48  1  0.50000000  0.03583371  0.89289486  1.0
  Fe  Fe49  1  0.50000000  0.36916705  0.89289486  1.0
  Fe  Fe50  1  0.50000000  0.70250038  0.89289486  1.0
  Fe  Fe51  1  0.83333333  0.03583371  0.89289486  1.0
  Fe  Fe52  1  0.83333333  0.36916705  0.89289486  1.0
  Fe  Fe53  1  0.83333333  0.70250038  0.89289486  1.0
  Fe  Fe54  1  0.33333333  0.22607105  0.82139086  1.0
  Fe  Fe55  1  0.33333333  0.55940438  0.82139086  1.0
  Fe  Fe56  1  0.33333333  0.89273771  0.82139086  1.0
  Fe  Fe57  1  0.66666667  0.22607105  0.82139086  1.0
  Fe  Fe58  1  0.66666667  0.55940438  0.82139086  1.0
  Fe  Fe59  1  0.66666667  0.89273771  0.82139086  1.0
  Fe  Fe60  1  1.00000000  0.22607105  0.82139086  1.0
  Fe  Fe61  1  1.00000000  0.55940438  0.82139086  1.0
  Fe  Fe62  1  0.00000000  0.89273771  0.82139086  1.0
  Fe  Fe63  1  0.16666667  0.24988057  0.74996229  1.0
  Fe  Fe64  1  0.16666667  0.58321390  0.74996229  1.0
  Fe  Fe65  1  0.16666667  0.91654724  0.74996229  1.0
  Fe  Fe66  1  0.50000000  0.24988057  0.74996229  1.0
  Fe  Fe67  1  0.50000000  0.58321390  0.74996229  1.0
  Fe  Fe68  1  0.50000000  0.91654724  0.74996229  1.0
  Fe  Fe69  1  0.83333333  0.24988057  0.74996229  1.0
  Fe  Fe70  1  0.83333333  0.58321390  0.74996229  1.0
  Fe  Fe71  1  0.83333333  0.91654724  0.74996229  1.0
  Fe  Fe72  1  0.33333333  0.00000000  0.75000000  1.0
  Fe  Fe73  1  0.33333333  0.33333333  0.75000000  1.0
  Fe  Fe74  1  0.33333333  0.66666667  0.75000000  1.0
  Fe  Fe75  1  0.66666667  0.00000000  0.75000000  1.0
  Fe  Fe76  1  0.66666667  0.33333333  0.75000000  1.0
  Fe  Fe77  1  0.66666667  0.66666667  0.75000000  1.0
  Fe  Fe78  1  0.00000000  0.00000000  0.75000000  1.0
  Fe  Fe79  1  1.00000000  0.33333333  0.75000000  1.0
  Fe  Fe80  1  1.00000000  0.66666667  0.75000000  1.0
  Fe  Fe81  1  0.16666667  0.30952381  0.82142857  1.0
  Fe  Fe82  1  0.16666667  0.64285714  0.82142857  1.0
  Fe  Fe83  1  0.16666667  0.97619048  0.82142857  1.0
  Fe  Fe84  1  0.50000000  0.30952381  0.82142857  1.0
  Fe  Fe85  1  0.50000000  0.64285714  0.82142857  1.0
  Fe  Fe86  1  0.50000000  0.97619048  0.82142857  1.0
  Fe  Fe87  1  0.83333333  0.30952381  0.82142857  1.0
  Fe  Fe88  1  0.83333333  0.64285714  0.82142857  1.0
  Fe  Fe89  1  0.83333333  0.97619048  0.82142857  1.0
  Fe  Fe90  1  0.00000000  0.05964324  0.82146629  1.0
  Fe  Fe91  1  0.00000000  0.39297657  0.82146629  1.0
  Fe  Fe92  1  0.00000000  0.72630990  0.82146629  1.0
  Fe  Fe93  1  0.33333333  0.05964324  0.82146629  1.0
  Fe  Fe94  1  0.33333333  0.39297657  0.82146629  1.0
  Fe  Fe95  1  0.33333333  0.72630990  0.82146629  1.0
  Fe  Fe96  1  0.66666667  0.05964324  0.82146629  1.0
  Fe  Fe97  1  0.66666667  0.39297657  0.82146629  1.0
  Fe  Fe98  1  0.66666667  0.72630990  0.82146629  1.0
  Fe  Fe99  1  0.16666667  0.08345276  0.75003771  1.0
  Fe  Fe100  1  0.16666667  0.41678610  0.75003771  1.0
  Fe  Fe101  1  0.16666667  0.75011943  0.75003771  1.0
  Fe  Fe102  1  0.50000000  0.08345276  0.75003771  1.0
  Fe  Fe103  1  0.50000000  0.41678610  0.75003771  1.0
  Fe  Fe104  1  0.50000000  0.75011943  0.75003771  1.0
  Fe  Fe105  1  0.83333333  0.08345276  0.75003771  1.0
  Fe  Fe106  1  0.83333333  0.41678610  0.75003771  1.0
  Fe  Fe107  1  0.83333333  0.75011943  0.75003771  1.0
  Fe  Fe108  1  0.00000000  0.27369010  0.67853371  1.0
  Fe  Fe109  1  0.00000000  0.60702343  0.67853371  1.0
  Fe  Fe110  1  0.00000000  0.94035676  0.67853371  1.0
  Fe  Fe111  1  0.33333333  0.27369010  0.67853371  1.0
  Fe  Fe112  1  0.33333333  0.60702343  0.67853371  1.0
  Fe  Fe113  1  0.33333333  0.94035676  0.67853371  1.0
  Fe  Fe114  1  0.66666667  0.27369010  0.67853371  1.0
  Fe  Fe115  1  0.66666667  0.60702343  0.67853371  1.0
  Fe  Fe116  1  0.66666667  0.94035676  0.67853371  1.0
  Fe  Fe117  1  0.16666667  0.29749962  0.60710514  1.0
  Fe  Fe118  1  0.16666667  0.63083295  0.60710514  1.0
  Fe  Fe119  1  0.16666667  0.96416629  0.60710514  1.0
  Fe  Fe120  1  0.50000000  0.29749962  0.60710514  1.0
  Fe  Fe121  1  0.50000000  0.63083295  0.60710514  1.0
  Fe  Fe122  1  0.50000000  0.96416629  0.60710514  1.0
  Fe  Fe123  1  0.83333333  0.29749962  0.60710514  1.0
  Fe  Fe124  1  0.83333333  0.63083295  0.60710514  1.0
  Fe  Fe125  1  0.83333333  0.96416629  0.60710514  1.0
  Fe  Fe126  1  0.00000000  0.04761905  0.60714286  1.0
  Fe  Fe127  1  0.00000000  0.38095238  0.60714286  1.0
  Fe  Fe128  1  0.00000000  0.71428571  0.60714286  1.0
  Fe  Fe129  1  0.33333333  0.04761905  0.60714286  1.0
  Fe  Fe130  1  0.33333333  0.38095238  0.60714286  1.0
  Fe  Fe131  1  0.33333333  0.71428571  0.60714286  1.0
  Fe  Fe132  1  0.66666667  0.04761905  0.60714286  1.0
  Fe  Fe133  1  0.66666667  0.38095238  0.60714286  1.0
  Fe  Fe134  1  0.66666667  0.71428571  0.60714286  1.0
  Fe  Fe135  1  0.16666667  0.02380952  0.67857143  1.0
  Fe  Fe136  1  0.16666667  0.35714286  0.67857143  1.0
  Fe  Fe137  1  0.16666667  0.69047619  0.67857143  1.0
  Fe  Fe138  1  0.50000000  0.02380952  0.67857143  1.0
  Fe  Fe139  1  0.50000000  0.35714286  0.67857143  1.0
  Fe  Fe140  1  0.50000000  0.69047619  0.67857143  1.0
  Fe  Fe141  1  0.83333333  0.02380952  0.67857143  1.0
  Fe  Fe142  1  0.83333333  0.35714286  0.67857143  1.0
  Fe  Fe143  1  0.83333333  0.69047619  0.67857143  1.0
  Fe  Fe144  1  0.00000000  0.10726229  0.67860914  1.0
  Fe  Fe145  1  0.00000000  0.44059562  0.67860914  1.0
  Fe  Fe146  1  0.00000000  0.77392895  0.67860914  1.0
  Fe  Fe147  1  0.33333333  0.10726229  0.67860914  1.0
  Fe  Fe148  1  0.33333333  0.44059562  0.67860914  1.0
  Fe  Fe149  1  0.33333333  0.77392895  0.67860914  1.0
  Fe  Fe150  1  0.66666667  0.10726229  0.67860914  1.0
  Fe  Fe151  1  0.66666667  0.44059562  0.67860914  1.0
  Fe  Fe152  1  0.66666667  0.77392895  0.67860914  1.0
  Fe  Fe153  1  0.16666667  0.13107181  0.60718057  1.0
  Fe  Fe154  1  0.16666667  0.46440514  0.60718057  1.0
  Fe  Fe155  1  0.16666667  0.79773848  0.60718057  1.0
  Fe  Fe156  1  0.50000000  0.13107181  0.60718057  1.0
  Fe  Fe157  1  0.50000000  0.46440514  0.60718057  1.0
  Fe  Fe158  1  0.50000000  0.79773848  0.60718057  1.0
  Fe  Fe159  1  0.83333333  0.13107181  0.60718057  1.0
  Fe  Fe160  1  0.83333333  0.46440514  0.60718057  1.0
  Fe  Fe161  1  0.83333333  0.79773848  0.60718057  1.0
  Ni  Ni162  1  0.00000000  0.11904762  0.89285714  1.0
  Ni  Ni163  1  0.00000000  0.45238095  0.89285714  1.0
  Ni  Ni164  1  0.00000000  0.78571429  0.89285714  1.0
  Ni  Ni165  1  0.33333333  0.11904762  0.89285714  1.0
  Ni  Ni166  1  0.33333333  0.45238095  0.89285714  1.0
  Ni  Ni167  1  0.33333333  0.78571429  0.89285714  1.0
  Ni  Ni168  1  0.66666667  0.11904762  0.89285714  1.0
  Ni  Ni169  1  0.66666667  0.45238095  0.89285714  1.0
  Ni  Ni170  1  0.66666667  0.78571429  0.89285714  1.0
  Ni  Ni171  1  0.16666667  0.09523810  0.96428571  1.0
  Ni  Ni172  1  0.16666667  0.42857143  0.96428571  1.0
  Ni  Ni173  1  0.16666667  0.76190476  0.96428571  1.0
  Ni  Ni174  1  0.50000000  0.09523810  0.96428571  1.0
  Ni  Ni175  1  0.50000000  0.42857143  0.96428571  1.0
  Ni  Ni176  1  0.50000000  0.76190476  0.96428571  1.0
  Ni  Ni177  1  0.83333333  0.09523810  0.96428571  1.0
  Ni  Ni178  1  0.83333333  0.42857143  0.96428571  1.0
  Ni  Ni179  1  0.83333333  0.76190476  0.96428571  1.0
  Ni  Ni180  1  0.33333333  0.16666667  0.75000000  1.0
  Ni  Ni181  1  0.33333333  0.50000000  0.75000000  1.0
  Ni  Ni182  1  0.33333333  0.83333333  0.75000000  1.0
  Ni  Ni183  1  0.66666667  0.16666667  0.75000000  1.0
  Ni  Ni184  1  0.66666667  0.50000000  0.75000000  1.0
  Ni  Ni185  1  0.66666667  0.83333333  0.75000000  1.0
  Ni  Ni186  1  1.00000000  0.16666667  0.75000000  1.0
  Ni  Ni187  1  1.00000000  0.50000000  0.75000000  1.0
  Ni  Ni188  1  0.00000000  0.83333333  0.75000000  1.0
  Ni  Ni189  1  0.16666667  0.14285714  0.82142857  1.0
  Ni  Ni190  1  0.16666667  0.47619048  0.82142857  1.0
  Ni  Ni191  1  0.16666667  0.80952381  0.82142857  1.0
  Ni  Ni192  1  0.50000000  0.14285714  0.82142857  1.0
  Ni  Ni193  1  0.50000000  0.47619048  0.82142857  1.0
  Ni  Ni194  1  0.50000000  0.80952381  0.82142857  1.0
  Ni  Ni195  1  0.83333333  0.14285714  0.82142857  1.0
  Ni  Ni196  1  0.83333333  0.47619048  0.82142857  1.0
  Ni  Ni197  1  0.83333333  0.80952381  0.82142857  1.0
  Ni  Ni198  1  0.00000000  0.21428571  0.60714286  1.0
  Ni  Ni199  1  0.00000000  0.54761905  0.60714286  1.0
  Ni  Ni200  1  0.00000000  0.88095238  0.60714286  1.0
  Ni  Ni201  1  0.33333333  0.21428571  0.60714286  1.0
  Ni  Ni202  1  0.33333333  0.54761905  0.60714286  1.0
  Ni  Ni203  1  0.33333333  0.88095238  0.60714286  1.0
  Ni  Ni204  1  0.66666667  0.21428571  0.60714286  1.0
  Ni  Ni205  1  0.66666667  0.54761905  0.60714286  1.0
  Ni  Ni206  1  0.66666667  0.88095238  0.60714286  1.0
  Ni  Ni207  1  0.16666667  0.19047619  0.67857143  1.0
  Ni  Ni208  1  0.16666667  0.52380952  0.67857143  1.0
  Ni  Ni209  1  0.16666667  0.85714286  0.67857143  1.0
  Ni  Ni210  1  0.50000000  0.19047619  0.67857143  1.0
  Ni  Ni211  1  0.50000000  0.52380952  0.67857143  1.0
  Ni  Ni212  1  0.50000000  0.85714286  0.67857143  1.0
  Ni  Ni213  1  0.83333333  0.19047619  0.67857143  1.0
  Ni  Ni214  1  0.83333333  0.52380952  0.67857143  1.0
  Ni  Ni215  1  0.83333333  0.85714286  0.67857143  1.0
