# generated using pymatgen
data_Fe3Ni
_symmetry_space_group_name_H-M   'P 1'
_cell_length_a   20.13000150
_cell_length_b   24.75912704
_cell_length_c   27.45197173
_cell_angle_alpha   93.81405327
_cell_angle_beta   92.49476210
_cell_angle_gamma   112.97284960
_symmetry_Int_Tables_number   1
_chemical_formula_structural   Fe3Ni
_chemical_formula_sum   'Fe324 Ni108'
_cell_volume   12533.05768263
_cell_formula_units_Z   108
loop_
 _symmetry_equiv_pos_site_id
 _symmetry_equiv_pos_as_xyz
  1  'x, y, z'
loop_
 _atom_site_type_symbol
 _atom_site_label
 _atom_site_symmetry_multiplicity
 _atom_site_fract_x
 _atom_site_fract_y
 _atom_site_fract_z
 _atom_site_occupancy
  Fe  Fe0  1  0.29444444  0.11388889  0.95416667  1.0
  Fe  Fe1  1  0.29444444  0.44722222  0.95416667  1.0
  Fe  Fe2  1  0.29444444  0.78055556  0.95416667  1.0
  Fe  Fe3  1  0.62777778  0.11388889  0.95416667  1.0
  Fe  Fe4  1  0.62777778  0.44722222  0.95416667  1.0
  Fe  Fe5  1  0.62777778  0.78055556  0.95416667  1.0
  Fe  Fe6  1  0.96111111  0.11388889  0.95416667  1.0
  Fe  Fe7  1  0.96111111  0.44722222  0.95416667  1.0
  Fe  Fe8  1  0.96111111  0.78055556  0.95416667  1.0
  Fe  Fe9  1  0.21666667  0.25833333  0.98750000  1.0
  Fe  Fe10  1  0.21666667  0.59166667  0.98750000  1.0
  Fe  Fe11  1  0.21666667  0.92500000  0.98750000  1.0
  Fe  Fe12  1  0.55000000  0.25833333  0.98750000  1.0
  Fe  Fe13  1  0.55000000  0.59166667  0.98750000  1.0
  Fe  Fe14  1  0.55000000  0.92500000  0.98750000  1.0
  Fe  Fe15  1  0.88333333  0.25833333  0.98750000  1.0
  Fe  Fe16  1  0.88333333  0.59166667  0.98750000  1.0
  Fe  Fe17  1  0.88333333  0.92500000  0.98750000  1.0
  Fe  Fe18  1  0.11388889  0.29444444  0.99583333  1.0
  Fe  Fe19  1  0.11388889  0.62777778  0.99583333  1.0
  Fe  Fe20  1  0.11388889  0.96111111  0.99583333  1.0
  Fe  Fe21  1  0.44722222  0.29444444  0.99583333  1.0
  Fe  Fe22  1  0.44722222  0.62777778  0.99583333  1.0
  Fe  Fe23  1  0.44722222  0.96111111  0.99583333  1.0
  Fe  Fe24  1  0.78055556  0.29444444  0.99583333  1.0
  Fe  Fe25  1  0.78055556  0.62777778  0.99583333  1.0
  Fe  Fe26  1  0.78055556  0.96111111  0.99583333  1.0
  Fe  Fe27  1  0.19166667  0.15000000  0.96250000  1.0
  Fe  Fe28  1  0.19166667  0.48333333  0.96250000  1.0
  Fe  Fe29  1  0.19166667  0.81666667  0.96250000  1.0
  Fe  Fe30  1  0.52500000  0.15000000  0.96250000  1.0
  Fe  Fe31  1  0.52500000  0.48333333  0.96250000  1.0
  Fe  Fe32  1  0.52500000  0.81666667  0.96250000  1.0
  Fe  Fe33  1  0.85833333  0.15000000  0.96250000  1.0
  Fe  Fe34  1  0.85833333  0.48333333  0.96250000  1.0
  Fe  Fe35  1  0.85833333  0.81666667  0.96250000  1.0
  Fe  Fe36  1  0.06388889  0.07777778  0.94583333  1.0
  Fe  Fe37  1  0.06388889  0.41111111  0.94583333  1.0
  Fe  Fe38  1  0.06388889  0.74444444  0.94583333  1.0
  Fe  Fe39  1  0.39722222  0.07777778  0.94583333  1.0
  Fe  Fe40  1  0.39722222  0.41111111  0.94583333  1.0
  Fe  Fe41  1  0.39722222  0.74444444  0.94583333  1.0
  Fe  Fe42  1  0.73055556  0.07777778  0.94583333  1.0
  Fe  Fe43  1  0.73055556  0.41111111  0.94583333  1.0
  Fe  Fe44  1  0.73055556  0.74444444  0.94583333  1.0
  Fe  Fe45  1  0.31944444  0.22222222  0.97916667  1.0
  Fe  Fe46  1  0.31944444  0.55555556  0.97916667  1.0
  Fe  Fe47  1  0.31944444  0.88888889  0.97916667  1.0
  Fe  Fe48  1  0.65277778  0.22222222  0.97916667  1.0
  Fe  Fe49  1  0.65277778  0.55555556  0.97916667  1.0
  Fe  Fe50  1  0.65277778  0.88888889  0.97916667  1.0
  Fe  Fe51  1  0.98611111  0.22222222  0.97916667  1.0
  Fe  Fe52  1  0.98611111  0.55555556  0.97916667  1.0
  Fe  Fe53  1  0.98611111  0.88888889  0.97916667  1.0
  Fe  Fe54  1  0.11666667  0.15833333  0.88750000  1.0
  Fe  Fe55  1  0.11666667  0.49166667  0.88750000  1.0
  Fe  Fe56  1  0.11666667  0.82500000  0.88750000  1.0
  Fe  Fe57  1  0.45000000  0.15833333  0.88750000  1.0
  Fe  Fe58  1  0.45000000  0.49166667  0.88750000  1.0
  Fe  Fe59  1  0.45000000  0.82500000  0.88750000  1.0
  Fe  Fe60  1  0.78333333  0.15833333  0.88750000  1.0
  Fe  Fe61  1  0.78333333  0.49166667  0.88750000  1.0
  Fe  Fe62  1  0.78333333  0.82500000  0.88750000  1.0
  Fe  Fe63  1  0.03888889  0.30277778  0.92083333  1.0
  Fe  Fe64  1  0.03888889  0.63611111  0.92083333  1.0
  Fe  Fe65  1  0.03888889  0.96944444  0.92083333  1.0
  Fe  Fe66  1  0.37222222  0.30277778  0.92083333  1.0
  Fe  Fe67  1  0.37222222  0.63611111  0.92083333  1.0
  Fe  Fe68  1  0.37222222  0.96944444  0.92083333  1.0
  Fe  Fe69  1  0.70555556  0.30277778  0.92083333  1.0
  Fe  Fe70  1  0.70555556  0.63611111  0.92083333  1.0
  Fe  Fe71  1  0.70555556  0.96944444  0.92083333  1.0
  Fe  Fe72  1  0.26944444  0.00555556  0.92916667  1.0
  Fe  Fe73  1  0.26944444  0.33888889  0.92916667  1.0
  Fe  Fe74  1  0.26944444  0.67222222  0.92916667  1.0
  Fe  Fe75  1  0.60277778  0.00555556  0.92916667  1.0
  Fe  Fe76  1  0.60277778  0.33888889  0.92916667  1.0
  Fe  Fe77  1  0.60277778  0.67222222  0.92916667  1.0
  Fe  Fe78  1  0.93611111  0.00555556  0.92916667  1.0
  Fe  Fe79  1  0.93611111  0.33888889  0.92916667  1.0
  Fe  Fe80  1  0.93611111  0.67222222  0.92916667  1.0
  Fe  Fe81  1  0.01388889  0.19444444  0.89583333  1.0
  Fe  Fe82  1  0.01388889  0.52777778  0.89583333  1.0
  Fe  Fe83  1  0.01388889  0.86111111  0.89583333  1.0
  Fe  Fe84  1  0.34722222  0.19444444  0.89583333  1.0
  Fe  Fe85  1  0.34722222  0.52777778  0.89583333  1.0
  Fe  Fe86  1  0.34722222  0.86111111  0.89583333  1.0
  Fe  Fe87  1  0.68055556  0.19444444  0.89583333  1.0
  Fe  Fe88  1  0.68055556  0.52777778  0.89583333  1.0
  Fe  Fe89  1  0.68055556  0.86111111  0.89583333  1.0
  Fe  Fe90  1  0.21944444  0.12222222  0.87916667  1.0
  Fe  Fe91  1  0.21944444  0.45555556  0.87916667  1.0
  Fe  Fe92  1  0.21944444  0.78888889  0.87916667  1.0
  Fe  Fe93  1  0.55277778  0.12222222  0.87916667  1.0
  Fe  Fe94  1  0.55277778  0.45555556  0.87916667  1.0
  Fe  Fe95  1  0.55277778  0.78888889  0.87916667  1.0
  Fe  Fe96  1  0.88611111  0.12222222  0.87916667  1.0
  Fe  Fe97  1  0.88611111  0.45555556  0.87916667  1.0
  Fe  Fe98  1  0.88611111  0.78888889  0.87916667  1.0
  Fe  Fe99  1  0.14166667  0.26666667  0.91250000  1.0
  Fe  Fe100  1  0.14166667  0.60000000  0.91250000  1.0
  Fe  Fe101  1  0.14166667  0.93333333  0.91250000  1.0
  Fe  Fe102  1  0.47500000  0.26666667  0.91250000  1.0
  Fe  Fe103  1  0.47500000  0.60000000  0.91250000  1.0
  Fe  Fe104  1  0.47500000  0.93333333  0.91250000  1.0
  Fe  Fe105  1  0.80833333  0.26666667  0.91250000  1.0
  Fe  Fe106  1  0.80833333  0.60000000  0.91250000  1.0
  Fe  Fe107  1  0.80833333  0.93333333  0.91250000  1.0
  Fe  Fe108  1  0.27222222  0.20277778  0.82083333  1.0
  Fe  Fe109  1  0.27222222  0.53611111  0.82083333  1.0
  Fe  Fe110  1  0.27222222  0.86944444  0.82083333  1.0
  Fe  Fe111  1  0.60555556  0.20277778  0.82083333  1.0
  Fe  Fe112  1  0.60555556  0.53611111  0.82083333  1.0
  Fe  Fe113  1  0.60555556  0.86944444  0.82083333  1.0
  Fe  Fe114  1  0.93888889  0.20277778  0.82083333  1.0
  Fe  Fe115  1  0.93888889  0.53611111  0.82083333  1.0
  Fe  Fe116  1  0.93888889  0.86944444  0.82083333  1.0
  Fe  Fe117  1  0.19444444  0.01388889  0.85416667  1.0
  Fe  Fe118  1  0.19444444  0.34722222  0.85416667  1.0
  Fe  Fe119  1  0.19444444  0.68055556  0.85416667  1.0
  Fe  Fe120  1  0.52777778  0.01388889  0.85416667  1.0
  Fe  Fe121  1  0.52777778  0.34722222  0.85416667  1.0
  Fe  Fe122  1  0.52777778  0.68055556  0.85416667  1.0
  Fe  Fe123  1  0.86111111  0.01388889  0.85416667  1.0
  Fe  Fe124  1  0.86111111  0.34722222  0.85416667  1.0
  Fe  Fe125  1  0.86111111  0.68055556  0.85416667  1.0
  Fe  Fe126  1  0.09166667  0.05000000  0.86250000  1.0
  Fe  Fe127  1  0.09166667  0.38333333  0.86250000  1.0
  Fe  Fe128  1  0.09166667  0.71666667  0.86250000  1.0
  Fe  Fe129  1  0.42500000  0.05000000  0.86250000  1.0
  Fe  Fe130  1  0.42500000  0.38333333  0.86250000  1.0
  Fe  Fe131  1  0.42500000  0.71666667  0.86250000  1.0
  Fe  Fe132  1  0.75833333  0.05000000  0.86250000  1.0
  Fe  Fe133  1  0.75833333  0.38333333  0.86250000  1.0
  Fe  Fe134  1  0.75833333  0.71666667  0.86250000  1.0
  Fe  Fe135  1  0.16944444  0.23888889  0.82916667  1.0
  Fe  Fe136  1  0.16944444  0.57222222  0.82916667  1.0
  Fe  Fe137  1  0.16944444  0.90555556  0.82916667  1.0
  Fe  Fe138  1  0.50277778  0.23888889  0.82916667  1.0
  Fe  Fe139  1  0.50277778  0.57222222  0.82916667  1.0
  Fe  Fe140  1  0.50277778  0.90555556  0.82916667  1.0
  Fe  Fe141  1  0.83611111  0.23888889  0.82916667  1.0
  Fe  Fe142  1  0.83611111  0.57222222  0.82916667  1.0
  Fe  Fe143  1  0.83611111  0.90555556  0.82916667  1.0
  Fe  Fe144  1  0.04166667  0.16666667  0.81250000  1.0
  Fe  Fe145  1  0.04166667  0.50000000  0.81250000  1.0
  Fe  Fe146  1  0.04166667  0.83333333  0.81250000  1.0
  Fe  Fe147  1  0.37500000  0.16666667  0.81250000  1.0
  Fe  Fe148  1  0.37500000  0.50000000  0.81250000  1.0
  Fe  Fe149  1  0.37500000  0.83333333  0.81250000  1.0
  Fe  Fe150  1  0.70833333  0.16666667  0.81250000  1.0
  Fe  Fe151  1  0.70833333  0.50000000  0.81250000  1.0
  Fe  Fe152  1  0.70833333  0.83333333  0.81250000  1.0
  Fe  Fe153  1  0.29722222  0.31111111  0.84583333  1.0
  Fe  Fe154  1  0.29722222  0.64444444  0.84583333  1.0
  Fe  Fe155  1  0.29722222  0.97777778  0.84583333  1.0
  Fe  Fe156  1  0.63055556  0.31111111  0.84583333  1.0
  Fe  Fe157  1  0.63055556  0.64444444  0.84583333  1.0
  Fe  Fe158  1  0.63055556  0.97777778  0.84583333  1.0
  Fe  Fe159  1  0.96388889  0.31111111  0.84583333  1.0
  Fe  Fe160  1  0.96388889  0.64444444  0.84583333  1.0
  Fe  Fe161  1  0.96388889  0.97777778  0.84583333  1.0
  Fe  Fe162  1  0.09444444  0.24722222  0.75416667  1.0
  Fe  Fe163  1  0.09444444  0.58055556  0.75416667  1.0
  Fe  Fe164  1  0.09444444  0.91388889  0.75416667  1.0
  Fe  Fe165  1  0.42777778  0.24722222  0.75416667  1.0
  Fe  Fe166  1  0.42777778  0.58055556  0.75416667  1.0
  Fe  Fe167  1  0.42777778  0.91388889  0.75416667  1.0
  Fe  Fe168  1  0.76111111  0.24722222  0.75416667  1.0
  Fe  Fe169  1  0.76111111  0.58055556  0.75416667  1.0
  Fe  Fe170  1  0.76111111  0.91388889  0.75416667  1.0
  Fe  Fe171  1  0.01666667  0.05833333  0.78750000  1.0
  Fe  Fe172  1  0.01666667  0.39166667  0.78750000  1.0
  Fe  Fe173  1  0.01666667  0.72500000  0.78750000  1.0
  Fe  Fe174  1  0.35000000  0.05833333  0.78750000  1.0
  Fe  Fe175  1  0.35000000  0.39166667  0.78750000  1.0
  Fe  Fe176  1  0.35000000  0.72500000  0.78750000  1.0
  Fe  Fe177  1  0.68333333  0.05833333  0.78750000  1.0
  Fe  Fe178  1  0.68333333  0.39166667  0.78750000  1.0
  Fe  Fe179  1  0.68333333  0.72500000  0.78750000  1.0
  Fe  Fe180  1  0.24722222  0.09444444  0.79583333  1.0
  Fe  Fe181  1  0.24722222  0.42777778  0.79583333  1.0
  Fe  Fe182  1  0.24722222  0.76111111  0.79583333  1.0
  Fe  Fe183  1  0.58055556  0.09444444  0.79583333  1.0
  Fe  Fe184  1  0.58055556  0.42777778  0.79583333  1.0
  Fe  Fe185  1  0.58055556  0.76111111  0.79583333  1.0
  Fe  Fe186  1  0.91388889  0.09444444  0.79583333  1.0
  Fe  Fe187  1  0.91388889  0.42777778  0.79583333  1.0
  Fe  Fe188  1  0.91388889  0.76111111  0.79583333  1.0
  Fe  Fe189  1  0.32500000  0.28333333  0.76250000  1.0
  Fe  Fe190  1  0.32500000  0.61666667  0.76250000  1.0
  Fe  Fe191  1  0.32500000  0.95000000  0.76250000  1.0
  Fe  Fe192  1  0.65833333  0.28333333  0.76250000  1.0
  Fe  Fe193  1  0.65833333  0.61666667  0.76250000  1.0
  Fe  Fe194  1  0.65833333  0.95000000  0.76250000  1.0
  Fe  Fe195  1  0.99166667  0.28333333  0.76250000  1.0
  Fe  Fe196  1  0.99166667  0.61666667  0.76250000  1.0
  Fe  Fe197  1  0.99166667  0.95000000  0.76250000  1.0
  Fe  Fe198  1  0.19722222  0.21111111  0.74583333  1.0
  Fe  Fe199  1  0.19722222  0.54444444  0.74583333  1.0
  Fe  Fe200  1  0.19722222  0.87777778  0.74583333  1.0
  Fe  Fe201  1  0.53055556  0.21111111  0.74583333  1.0
  Fe  Fe202  1  0.53055556  0.54444444  0.74583333  1.0
  Fe  Fe203  1  0.53055556  0.87777778  0.74583333  1.0
  Fe  Fe204  1  0.86388889  0.21111111  0.74583333  1.0
  Fe  Fe205  1  0.86388889  0.54444444  0.74583333  1.0
  Fe  Fe206  1  0.86388889  0.87777778  0.74583333  1.0
  Fe  Fe207  1  0.11944444  0.02222222  0.77916667  1.0
  Fe  Fe208  1  0.11944444  0.35555556  0.77916667  1.0
  Fe  Fe209  1  0.11944444  0.68888889  0.77916667  1.0
  Fe  Fe210  1  0.45277778  0.02222222  0.77916667  1.0
  Fe  Fe211  1  0.45277778  0.35555556  0.77916667  1.0
  Fe  Fe212  1  0.45277778  0.68888889  0.77916667  1.0
  Fe  Fe213  1  0.78611111  0.02222222  0.77916667  1.0
  Fe  Fe214  1  0.78611111  0.35555556  0.77916667  1.0
  Fe  Fe215  1  0.78611111  0.68888889  0.77916667  1.0
  Fe  Fe216  1  0.25000000  0.29166667  0.68750000  1.0
  Fe  Fe217  1  0.25000000  0.62500000  0.68750000  1.0
  Fe  Fe218  1  0.25000000  0.95833333  0.68750000  1.0
  Fe  Fe219  1  0.58333333  0.29166667  0.68750000  1.0
  Fe  Fe220  1  0.58333333  0.62500000  0.68750000  1.0
  Fe  Fe221  1  0.58333333  0.95833333  0.68750000  1.0
  Fe  Fe222  1  0.91666667  0.29166667  0.68750000  1.0
  Fe  Fe223  1  0.91666667  0.62500000  0.68750000  1.0
  Fe  Fe224  1  0.91666667  0.95833333  0.68750000  1.0
  Fe  Fe225  1  0.17222222  0.10277778  0.72083333  1.0
  Fe  Fe226  1  0.17222222  0.43611111  0.72083333  1.0
  Fe  Fe227  1  0.17222222  0.76944444  0.72083333  1.0
  Fe  Fe228  1  0.50555556  0.10277778  0.72083333  1.0
  Fe  Fe229  1  0.50555556  0.43611111  0.72083333  1.0
  Fe  Fe230  1  0.50555556  0.76944444  0.72083333  1.0
  Fe  Fe231  1  0.83888889  0.10277778  0.72083333  1.0
  Fe  Fe232  1  0.83888889  0.43611111  0.72083333  1.0
  Fe  Fe233  1  0.83888889  0.76944444  0.72083333  1.0
  Fe  Fe234  1  0.06944444  0.13888889  0.72916667  1.0
  Fe  Fe235  1  0.06944444  0.47222222  0.72916667  1.0
  Fe  Fe236  1  0.06944444  0.80555556  0.72916667  1.0
  Fe  Fe237  1  0.40277778  0.13888889  0.72916667  1.0
  Fe  Fe238  1  0.40277778  0.47222222  0.72916667  1.0
  Fe  Fe239  1  0.40277778  0.80555556  0.72916667  1.0
  Fe  Fe240  1  0.73611111  0.13888889  0.72916667  1.0
  Fe  Fe241  1  0.73611111  0.47222222  0.72916667  1.0
  Fe  Fe242  1  0.73611111  0.80555556  0.72916667  1.0
  Fe  Fe243  1  0.14722222  0.32777778  0.69583333  1.0
  Fe  Fe244  1  0.14722222  0.66111111  0.69583333  1.0
  Fe  Fe245  1  0.14722222  0.99444444  0.69583333  1.0
  Fe  Fe246  1  0.48055556  0.32777778  0.69583333  1.0
  Fe  Fe247  1  0.48055556  0.66111111  0.69583333  1.0
  Fe  Fe248  1  0.48055556  0.99444444  0.69583333  1.0
  Fe  Fe249  1  0.81388889  0.32777778  0.69583333  1.0
  Fe  Fe250  1  0.81388889  0.66111111  0.69583333  1.0
  Fe  Fe251  1  0.81388889  0.99444444  0.69583333  1.0
  Fe  Fe252  1  0.01944444  0.25555556  0.67916667  1.0
  Fe  Fe253  1  0.01944444  0.58888889  0.67916667  1.0
  Fe  Fe254  1  0.01944444  0.92222222  0.67916667  1.0
  Fe  Fe255  1  0.35277778  0.25555556  0.67916667  1.0
  Fe  Fe256  1  0.35277778  0.58888889  0.67916667  1.0
  Fe  Fe257  1  0.35277778  0.92222222  0.67916667  1.0
  Fe  Fe258  1  0.68611111  0.25555556  0.67916667  1.0
  Fe  Fe259  1  0.68611111  0.58888889  0.67916667  1.0
  Fe  Fe260  1  0.68611111  0.92222222  0.67916667  1.0
  Fe  Fe261  1  0.27500000  0.06666667  0.71250000  1.0
  Fe  Fe262  1  0.27500000  0.40000000  0.71250000  1.0
  Fe  Fe263  1  0.27500000  0.73333333  0.71250000  1.0
  Fe  Fe264  1  0.60833333  0.06666667  0.71250000  1.0
  Fe  Fe265  1  0.60833333  0.40000000  0.71250000  1.0
  Fe  Fe266  1  0.60833333  0.73333333  0.71250000  1.0
  Fe  Fe267  1  0.94166667  0.06666667  0.71250000  1.0
  Fe  Fe268  1  0.94166667  0.40000000  0.71250000  1.0
  Fe  Fe269  1  0.94166667  0.73333333  0.71250000  1.0
  Fe  Fe270  1  0.07222222  0.00277778  0.62083333  1.0
  Fe  Fe271  1  0.07222222  0.33611111  0.62083333  1.0
  Fe  Fe272  1  0.07222222  0.66944444  0.62083333  1.0
  Fe  Fe273  1  0.40555556  0.00277778  0.62083333  1.0
  Fe  Fe274  1  0.40555556  0.33611111  0.62083333  1.0
  Fe  Fe275  1  0.40555556  0.66944444  0.62083333  1.0
  Fe  Fe276  1  0.73888889  0.00277778  0.62083333  1.0
  Fe  Fe277  1  0.73888889  0.33611111  0.62083333  1.0
  Fe  Fe278  1  0.73888889  0.66944444  0.62083333  1.0
  Fe  Fe279  1  0.32777778  0.14722222  0.65416667  1.0
  Fe  Fe280  1  0.32777778  0.48055556  0.65416667  1.0
  Fe  Fe281  1  0.32777778  0.81388889  0.65416667  1.0
  Fe  Fe282  1  0.66111111  0.14722222  0.65416667  1.0
  Fe  Fe283  1  0.66111111  0.48055556  0.65416667  1.0
  Fe  Fe284  1  0.66111111  0.81388889  0.65416667  1.0
  Fe  Fe285  1  0.99444444  0.14722222  0.65416667  1.0
  Fe  Fe286  1  0.99444444  0.48055556  0.65416667  1.0
  Fe  Fe287  1  0.99444444  0.81388889  0.65416667  1.0
  Fe  Fe288  1  0.22500000  0.18333333  0.66250000  1.0
  Fe  Fe289  1  0.22500000  0.51666667  0.66250000  1.0
  Fe  Fe290  1  0.22500000  0.85000000  0.66250000  1.0
  Fe  Fe291  1  0.55833333  0.18333333  0.66250000  1.0
  Fe  Fe292  1  0.55833333  0.51666667  0.66250000  1.0
  Fe  Fe293  1  0.55833333  0.85000000  0.66250000  1.0
  Fe  Fe294  1  0.89166667  0.18333333  0.66250000  1.0
  Fe  Fe295  1  0.89166667  0.51666667  0.66250000  1.0
  Fe  Fe296  1  0.89166667  0.85000000  0.66250000  1.0
  Fe  Fe297  1  0.30277778  0.03888889  0.62916667  1.0
  Fe  Fe298  1  0.30277778  0.37222222  0.62916667  1.0
  Fe  Fe299  1  0.30277778  0.70555556  0.62916667  1.0
  Fe  Fe300  1  0.63611111  0.03888889  0.62916667  1.0
  Fe  Fe301  1  0.63611111  0.37222222  0.62916667  1.0
  Fe  Fe302  1  0.63611111  0.70555556  0.62916667  1.0
  Fe  Fe303  1  0.96944444  0.03888889  0.62916667  1.0
  Fe  Fe304  1  0.96944444  0.37222222  0.62916667  1.0
  Fe  Fe305  1  0.96944444  0.70555556  0.62916667  1.0
  Fe  Fe306  1  0.17500000  0.30000000  0.61250000  1.0
  Fe  Fe307  1  0.17500000  0.63333333  0.61250000  1.0
  Fe  Fe308  1  0.17500000  0.96666667  0.61250000  1.0
  Fe  Fe309  1  0.50833333  0.30000000  0.61250000  1.0
  Fe  Fe310  1  0.50833333  0.63333333  0.61250000  1.0
  Fe  Fe311  1  0.50833333  0.96666667  0.61250000  1.0
  Fe  Fe312  1  0.84166667  0.30000000  0.61250000  1.0
  Fe  Fe313  1  0.84166667  0.63333333  0.61250000  1.0
  Fe  Fe314  1  0.84166667  0.96666667  0.61250000  1.0
  Fe  Fe315  1  0.09722222  0.11111111  0.64583333  1.0
  Fe  Fe316  1  0.09722222  0.44444444  0.64583333  1.0
  Fe  Fe317  1  0.09722222  0.77777778  0.64583333  1.0
  Fe  Fe318  1  0.43055556  0.11111111  0.64583333  1.0
  Fe  Fe319  1  0.43055556  0.44444444  0.64583333  1.0
  Fe  Fe320  1  0.43055556  0.77777778  0.64583333  1.0
  Fe  Fe321  1  0.76388889  0.11111111  0.64583333  1.0
  Fe  Fe322  1  0.76388889  0.44444444  0.64583333  1.0
  Fe  Fe323  1  0.76388889  0.77777778  0.64583333  1.0
  Ni  Ni324  1  0.16666667  0.04166667  0.93750000  1.0
  Ni  Ni325  1  0.16666667  0.37500000  0.93750000  1.0
  Ni  Ni326  1  0.16666667  0.70833333  0.93750000  1.0
  Ni  Ni327  1  0.50000000  0.04166667  0.93750000  1.0
  Ni  Ni328  1  0.50000000  0.37500000  0.93750000  1.0
  Ni  Ni329  1  0.50000000  0.70833333  0.93750000  1.0
  Ni  Ni330  1  0.83333333  0.04166667  0.93750000  1.0
  Ni  Ni331  1  0.83333333  0.37500000  0.93750000  1.0
  Ni  Ni332  1  0.83333333  0.70833333  0.93750000  1.0
  Ni  Ni333  1  0.08888889  0.18611111  0.97083333  1.0
  Ni  Ni334  1  0.08888889  0.51944444  0.97083333  1.0
  Ni  Ni335  1  0.08888889  0.85277778  0.97083333  1.0
  Ni  Ni336  1  0.42222222  0.18611111  0.97083333  1.0
  Ni  Ni337  1  0.42222222  0.51944444  0.97083333  1.0
  Ni  Ni338  1  0.42222222  0.85277778  0.97083333  1.0
  Ni  Ni339  1  0.75555556  0.18611111  0.97083333  1.0
  Ni  Ni340  1  0.75555556  0.51944444  0.97083333  1.0
  Ni  Ni341  1  0.75555556  0.85277778  0.97083333  1.0
  Ni  Ni342  1  0.32222222  0.08611111  0.87083333  1.0
  Ni  Ni343  1  0.32222222  0.41944444  0.87083333  1.0
  Ni  Ni344  1  0.32222222  0.75277778  0.87083333  1.0
  Ni  Ni345  1  0.65555556  0.08611111  0.87083333  1.0
  Ni  Ni346  1  0.65555556  0.41944444  0.87083333  1.0
  Ni  Ni347  1  0.65555556  0.75277778  0.87083333  1.0
  Ni  Ni348  1  0.98888889  0.08611111  0.87083333  1.0
  Ni  Ni349  1  0.98888889  0.41944444  0.87083333  1.0
  Ni  Ni350  1  0.98888889  0.75277778  0.87083333  1.0
  Ni  Ni351  1  0.24444444  0.23055556  0.90416667  1.0
  Ni  Ni352  1  0.24444444  0.56388889  0.90416667  1.0
  Ni  Ni353  1  0.24444444  0.89722222  0.90416667  1.0
  Ni  Ni354  1  0.57777778  0.23055556  0.90416667  1.0
  Ni  Ni355  1  0.57777778  0.56388889  0.90416667  1.0
  Ni  Ni356  1  0.57777778  0.89722222  0.90416667  1.0
  Ni  Ni357  1  0.91111111  0.23055556  0.90416667  1.0
  Ni  Ni358  1  0.91111111  0.56388889  0.90416667  1.0
  Ni  Ni359  1  0.91111111  0.89722222  0.90416667  1.0
  Ni  Ni360  1  0.14444444  0.13055556  0.80416667  1.0
  Ni  Ni361  1  0.14444444  0.46388889  0.80416667  1.0
  Ni  Ni362  1  0.14444444  0.79722222  0.80416667  1.0
  Ni  Ni363  1  0.47777778  0.13055556  0.80416667  1.0
  Ni  Ni364  1  0.47777778  0.46388889  0.80416667  1.0
  Ni  Ni365  1  0.47777778  0.79722222  0.80416667  1.0
  Ni  Ni366  1  0.81111111  0.13055556  0.80416667  1.0
  Ni  Ni367  1  0.81111111  0.46388889  0.80416667  1.0
  Ni  Ni368  1  0.81111111  0.79722222  0.80416667  1.0
  Ni  Ni369  1  0.06666667  0.27500000  0.83750000  1.0
  Ni  Ni370  1  0.06666667  0.60833333  0.83750000  1.0
  Ni  Ni371  1  0.06666667  0.94166667  0.83750000  1.0
  Ni  Ni372  1  0.40000000  0.27500000  0.83750000  1.0
  Ni  Ni373  1  0.40000000  0.60833333  0.83750000  1.0
  Ni  Ni374  1  0.40000000  0.94166667  0.83750000  1.0
  Ni  Ni375  1  0.73333333  0.27500000  0.83750000  1.0
  Ni  Ni376  1  0.73333333  0.60833333  0.83750000  1.0
  Ni  Ni377  1  0.73333333  0.94166667  0.83750000  1.0
  Ni  Ni378  1  0.30000000  0.17500000  0.73750000  1.0
  Ni  Ni379  1  0.30000000  0.50833333  0.73750000  1.0
  Ni  Ni380  1  0.30000000  0.84166667  0.73750000  1.0
  Ni  Ni381  1  0.63333333  0.17500000  0.73750000  1.0
  Ni  Ni382  1  0.63333333  0.50833333  0.73750000  1.0
  Ni  Ni383  1  0.63333333  0.84166667  0.73750000  1.0
  Ni  Ni384  1  0.96666667  0.17500000  0.73750000  1.0
  Ni  Ni385  1  0.96666667  0.50833333  0.73750000  1.0
  Ni  Ni386  1  0.96666667  0.84166667  0.73750000  1.0
  Ni  Ni387  1  0.22222222  0.31944444  0.77083333  1.0
  Ni  Ni388  1  0.22222222  0.65277778  0.77083333  1.0
  Ni  Ni389  1  0.22222222  0.98611111  0.77083333  1.0
  Ni  Ni390  1  0.55555556  0.31944444  0.77083333  1.0
  Ni  Ni391  1  0.55555556  0.65277778  0.77083333  1.0
  Ni  Ni392  1  0.55555556  0.98611111  0.77083333  1.0
  Ni  Ni393  1  0.88888889  0.31944444  0.77083333  1.0
  Ni  Ni394  1  0.88888889  0.65277778  0.77083333  1.0
  Ni  Ni395  1  0.88888889  0.98611111  0.77083333  1.0
  Ni  Ni396  1  0.12222222  0.21944444  0.67083333  1.0
  Ni  Ni397  1  0.12222222  0.55277778  0.67083333  1.0
  Ni  Ni398  1  0.12222222  0.88611111  0.67083333  1.0
  Ni  Ni399  1  0.45555556  0.21944444  0.67083333  1.0
  Ni  Ni400  1  0.45555556  0.55277778  0.67083333  1.0
  Ni  Ni401  1  0.45555556  0.88611111  0.67083333  1.0
  Ni  Ni402  1  0.78888889  0.21944444  0.67083333  1.0
  Ni  Ni403  1  0.78888889  0.55277778  0.67083333  1.0
  Ni  Ni404  1  0.78888889  0.88611111  0.67083333  1.0
  Ni  Ni405  1  0.04444444  0.03055556  0.70416667  1.0
  Ni  Ni406  1  0.04444444  0.36388889  0.70416667  1.0
  Ni  Ni407  1  0.04444444  0.69722222  0.70416667  1.0
  Ni  Ni408  1  0.37777778  0.03055556  0.70416667  1.0
  Ni  Ni409  1  0.37777778  0.36388889  0.70416667  1.0
  Ni  Ni410  1  0.37777778  0.69722222  0.70416667  1.0
  Ni  Ni411  1  0.71111111  0.03055556  0.70416667  1.0
  Ni  Ni412  1  0.71111111  0.36388889  0.70416667  1.0
  Ni  Ni413  1  0.71111111  0.69722222  0.70416667  1.0
  Ni  Ni414  1  0.27777778  0.26388889  0.60416667  1.0
  Ni  Ni415  1  0.27777778  0.59722222  0.60416667  1.0
  Ni  Ni416  1  0.27777778  0.93055556  0.60416667  1.0
  Ni  Ni417  1  0.61111111  0.26388889  0.60416667  1.0
  Ni  Ni418  1  0.61111111  0.59722222  0.60416667  1.0
  Ni  Ni419  1  0.61111111  0.93055556  0.60416667  1.0
  Ni  Ni420  1  0.94444444  0.26388889  0.60416667  1.0
  Ni  Ni421  1  0.94444444  0.59722222  0.60416667  1.0
  Ni  Ni422  1  0.94444444  0.93055556  0.60416667  1.0
  Ni  Ni423  1  0.20000000  0.07500000  0.63750000  1.0
  Ni  Ni424  1  0.20000000  0.40833333  0.63750000  1.0
  Ni  Ni425  1  0.20000000  0.74166667  0.63750000  1.0
  Ni  Ni426  1  0.53333333  0.07500000  0.63750000  1.0
  Ni  Ni427  1  0.53333333  0.40833333  0.63750000  1.0
  Ni  Ni428  1  0.53333333  0.74166667  0.63750000  1.0
  Ni  Ni429  1  0.86666667  0.07500000  0.63750000  1.0
  Ni  Ni430  1  0.86666667  0.40833333  0.63750000  1.0
  Ni  Ni431  1  0.86666667  0.74166667  0.63750000  1.0
