# generated using pymatgen
data_Fe3Ni
_symmetry_space_group_name_H-M   'P 1'
_cell_length_a   13.46289429
_cell_length_b   14.96554168
_cell_length_c   58.33920859
_cell_angle_alpha   123.76631670
_cell_angle_beta   133.71554879
_cell_angle_gamma   90.00000000
_symmetry_Int_Tables_number   1
_chemical_formula_structural   Fe3Ni
_chemical_formula_sum   'Fe135 Ni45'
_cell_volume   5430.99166247
_cell_formula_units_Z   45
loop_
 _symmetry_equiv_pos_site_id
 _symmetry_equiv_pos_as_xyz
  1  'x, y, z'
loop_
 _atom_site_type_symbol
 _atom_site_label
 _atom_site_symmetry_multiplicity
 _atom_site_fract_x
 _atom_site_fract_y
 _atom_site_fract_z
 _atom_site_occupancy
  Fe  Fe0  1  0.00000000  0.16666667  0.03846154  1.0
  Fe  Fe1  1  0.00000000  0.50000000  0.03846154  1.0
  Fe  Fe2  1  0.00000000  0.83333333  0.03846154  1.0
  Fe  Fe3  1  0.33333333  0.16666667  0.03846154  1.0
  Fe  Fe4  1  0.33333333  0.50000000  0.03846154  1.0
  Fe  Fe5  1  0.33333333  0.83333333  0.03846154  1.0
  Fe  Fe6  1  0.66666667  0.16666667  0.03846154  1.0
  Fe  Fe7  1  0.66666667  0.50000000  0.03846154  1.0
  Fe  Fe8  1  0.66666667  0.83333333  0.03846154  1.0
  Fe  Fe9  1  0.16666667  0.25000000  0.03846154  1.0
  Fe  Fe10  1  0.16666667  0.58333333  0.03846154  1.0
  Fe  Fe11  1  0.16666667  0.91666667  0.03846154  1.0
  Fe  Fe12  1  0.50000000  0.25000000  0.03846154  1.0
  Fe  Fe13  1  0.50000000  0.58333333  0.03846154  1.0
  Fe  Fe14  1  0.50000000  0.91666667  0.03846154  1.0
  Fe  Fe15  1  0.83333333  0.25000000  0.03846154  1.0
  Fe  Fe16  1  0.83333333  0.58333333  0.03846154  1.0
  Fe  Fe17  1  0.83333333  0.91666667  0.03846154  1.0
  Fe  Fe18  1  0.16666667  0.08333333  0.03846154  1.0
  Fe  Fe19  1  0.16666667  0.41666667  0.03846154  1.0
  Fe  Fe20  1  0.16666667  0.75000000  0.03846154  1.0
  Fe  Fe21  1  0.50000000  0.08333333  0.03846154  1.0
  Fe  Fe22  1  0.50000000  0.41666667  0.03846154  1.0
  Fe  Fe23  1  0.50000000  0.75000000  0.03846154  1.0
  Fe  Fe24  1  0.83333333  0.08333333  0.03846154  1.0
  Fe  Fe25  1  0.83333333  0.41666667  0.03846154  1.0
  Fe  Fe26  1  0.83333333  0.75000000  0.03846154  1.0
  Ni  Ni27  1  0.00000000  0.00000000  0.03846154  1.0
  Ni  Ni28  1  0.00000000  0.33333333  0.03846154  1.0
  Ni  Ni29  1  0.00000000  0.66666667  0.03846154  1.0
  Ni  Ni30  1  0.33333333  0.00000000  0.03846154  1.0
  Ni  Ni31  1  0.33333333  0.33333333  0.03846154  1.0
  Ni  Ni32  1  0.33333333  0.66666667  0.03846154  1.0
  Ni  Ni33  1  0.66666667  0.00000000  0.03846154  1.0
  Ni  Ni34  1  0.66666667  0.33333333  0.03846154  1.0
  Ni  Ni35  1  0.66666667  0.66666667  0.03846154  1.0
  Fe  Fe36  1  0.00000000  0.16666667  0.11538462  1.0
  Fe  Fe37  1  0.00000000  0.50000000  0.11538462  1.0
  Fe  Fe38  1  0.00000000  0.83333333  0.11538462  1.0
  Fe  Fe39  1  0.33333333  0.16666667  0.11538462  1.0
  Fe  Fe40  1  0.33333333  0.50000000  0.11538462  1.0
  Fe  Fe41  1  0.33333333  0.83333333  0.11538462  1.0
  Fe  Fe42  1  0.66666667  0.16666667  0.11538462  1.0
  Fe  Fe43  1  0.66666667  0.50000000  0.11538462  1.0
  Fe  Fe44  1  0.66666667  0.83333333  0.11538462  1.0
  Fe  Fe45  1  0.16666667  0.25000000  0.11538462  1.0
  Fe  Fe46  1  0.16666667  0.58333333  0.11538462  1.0
  Fe  Fe47  1  0.16666667  0.91666667  0.11538462  1.0
  Fe  Fe48  1  0.50000000  0.25000000  0.11538462  1.0
  Fe  Fe49  1  0.50000000  0.58333333  0.11538462  1.0
  Fe  Fe50  1  0.50000000  0.91666667  0.11538462  1.0
  Fe  Fe51  1  0.83333333  0.25000000  0.11538462  1.0
  Fe  Fe52  1  0.83333333  0.58333333  0.11538462  1.0
  Fe  Fe53  1  0.83333333  0.91666667  0.11538462  1.0
  Fe  Fe54  1  0.16666667  0.08333333  0.11538462  1.0
  Fe  Fe55  1  0.16666667  0.41666667  0.11538462  1.0
  Fe  Fe56  1  0.16666667  0.75000000  0.11538462  1.0
  Fe  Fe57  1  0.50000000  0.08333333  0.11538462  1.0
  Fe  Fe58  1  0.50000000  0.41666667  0.11538462  1.0
  Fe  Fe59  1  0.50000000  0.75000000  0.11538462  1.0
  Fe  Fe60  1  0.83333333  0.08333333  0.11538462  1.0
  Fe  Fe61  1  0.83333333  0.41666667  0.11538462  1.0
  Fe  Fe62  1  0.83333333  0.75000000  0.11538462  1.0
  Ni  Ni63  1  0.00000000  0.00000000  0.11538462  1.0
  Ni  Ni64  1  0.00000000  0.33333333  0.11538462  1.0
  Ni  Ni65  1  0.00000000  0.66666667  0.11538462  1.0
  Ni  Ni66  1  0.33333333  0.00000000  0.11538462  1.0
  Ni  Ni67  1  0.33333333  0.33333333  0.11538462  1.0
  Ni  Ni68  1  0.33333333  0.66666667  0.11538462  1.0
  Ni  Ni69  1  0.66666667  0.00000000  0.11538462  1.0
  Ni  Ni70  1  0.66666667  0.33333333  0.11538462  1.0
  Ni  Ni71  1  0.66666667  0.66666667  0.11538462  1.0
  Fe  Fe72  1  0.00000000  0.16666667  0.19230769  1.0
  Fe  Fe73  1  0.00000000  0.50000000  0.19230769  1.0
  Fe  Fe74  1  0.00000000  0.83333333  0.19230769  1.0
  Fe  Fe75  1  0.33333333  0.16666667  0.19230769  1.0
  Fe  Fe76  1  0.33333333  0.50000000  0.19230769  1.0
  Fe  Fe77  1  0.33333333  0.83333333  0.19230769  1.0
  Fe  Fe78  1  0.66666667  0.16666667  0.19230769  1.0
  Fe  Fe79  1  0.66666667  0.50000000  0.19230769  1.0
  Fe  Fe80  1  0.66666667  0.83333333  0.19230769  1.0
  Fe  Fe81  1  0.16666667  0.25000000  0.19230769  1.0
  Fe  Fe82  1  0.16666667  0.58333333  0.19230769  1.0
  Fe  Fe83  1  0.16666667  0.91666667  0.19230769  1.0
  Fe  Fe84  1  0.50000000  0.25000000  0.19230769  1.0
  Fe  Fe85  1  0.50000000  0.58333333  0.19230769  1.0
  Fe  Fe86  1  0.50000000  0.91666667  0.19230769  1.0
  Fe  Fe87  1  0.83333333  0.25000000  0.19230769  1.0
  Fe  Fe88  1  0.83333333  0.58333333  0.19230769  1.0
  Fe  Fe89  1  0.83333333  0.91666667  0.19230769  1.0
  Fe  Fe90  1  0.16666667  0.08333333  0.19230769  1.0
  Fe  Fe91  1  0.16666667  0.41666667  0.19230769  1.0
  Fe  Fe92  1  0.16666667  0.75000000  0.19230769  1.0
  Fe  Fe93  1  0.50000000  0.08333333  0.19230769  1.0
  Fe  Fe94  1  0.50000000  0.41666667  0.19230769  1.0
  Fe  Fe95  1  0.50000000  0.75000000  0.19230769  1.0
  Fe  Fe96  1  0.83333333  0.08333333  0.19230769  1.0
  Fe  Fe97  1  0.83333333  0.41666667  0.19230769  1.0
  Fe  Fe98  1  0.83333333  0.75000000  0.19230769  1.0
  Ni  Ni99  1  0.00000000  0.00000000  0.19230769  1.0
  Ni  Ni100  1  0.00000000  0.33333333  0.19230769  1.0
  Ni  Ni101  1  0.00000000  0.66666667  0.19230769  1.0
  Ni  Ni102  1  0.33333333  0.00000000  0.19230769  1.0
  Ni  Ni103  1  0.33333333  0.33333333  0.19230769  1.0
  Ni  Ni104  1  0.33333333  0.66666667  0.19230769  1.0
  Ni  Ni105  1  0.66666667  0.00000000  0.19230769  1.0
  Ni  Ni106  1  0.66666667  0.33333333  0.19230769  1.0
  Ni  Ni107  1  0.66666667  0.66666667  0.19230769  1.0
  Fe  Fe108  1  0.00000000  0.16666667  0.26923077  1.0
  Fe  Fe109  1  0.00000000  0.50000000  0.26923077  1.0
  Fe  Fe110  1  0.00000000  0.83333333  0.26923077  1.0
  Fe  Fe111  1  0.33333333  0.16666667  0.26923077  1.0
  Fe  Fe112  1  0.33333333  0.50000000  0.26923077  1.0
  Fe  Fe113  1  0.33333333  0.83333333  0.26923077  1.0
  Fe  Fe114  1  0.66666667  0.16666667  0.26923077  1.0
  Fe  Fe115  1  0.66666667  0.50000000  0.26923077  1.0
  Fe  Fe116  1  0.66666667  0.83333333  0.26923077  1.0
  Fe  Fe117  1  0.16666667  0.25000000  0.26923077  1.0
  Fe  Fe118  1  0.16666667  0.58333333  0.26923077  1.0
  Fe  Fe119  1  0.16666667  0.91666667  0.26923077  1.0
  Fe  Fe120  1  0.50000000  0.25000000  0.26923077  1.0
  Fe  Fe121  1  0.50000000  0.58333333  0.26923077  1.0
  Fe  Fe122  1  0.50000000  0.91666667  0.26923077  1.0
  Fe  Fe123  1  0.83333333  0.25000000  0.26923077  1.0
  Fe  Fe124  1  0.83333333  0.58333333  0.26923077  1.0
  Fe  Fe125  1  0.83333333  0.91666667  0.26923077  1.0
  Fe  Fe126  1  0.16666667  0.08333333  0.26923077  1.0
  Fe  Fe127  1  0.16666667  0.41666667  0.26923077  1.0
  Fe  Fe128  1  0.16666667  0.75000000  0.26923077  1.0
  Fe  Fe129  1  0.50000000  0.08333333  0.26923077  1.0
  Fe  Fe130  1  0.50000000  0.41666667  0.26923077  1.0
  Fe  Fe131  1  0.50000000  0.75000000  0.26923077  1.0
  Fe  Fe132  1  0.83333333  0.08333333  0.26923077  1.0
  Fe  Fe133  1  0.83333333  0.41666667  0.26923077  1.0
  Fe  Fe134  1  0.83333333  0.75000000  0.26923077  1.0
  Ni  Ni135  1  0.00000000  0.00000000  0.26923077  1.0
  Ni  Ni136  1  0.00000000  0.33333333  0.26923077  1.0
  Ni  Ni137  1  0.00000000  0.66666667  0.26923077  1.0
  Ni  Ni138  1  0.33333333  0.00000000  0.26923077  1.0
  Ni  Ni139  1  0.33333333  0.33333333  0.26923077  1.0
  Ni  Ni140  1  0.33333333  0.66666667  0.26923077  1.0
  Ni  Ni141  1  0.66666667  0.00000000  0.26923077  1.0
  Ni  Ni142  1  0.66666667  0.33333333  0.26923077  1.0
  Ni  Ni143  1  0.66666667  0.66666667  0.26923077  1.0
  Fe  Fe144  1  0.00000000  0.16666667  0.34615385  1.0
  Fe  Fe145  1  0.00000000  0.50000000  0.34615385  1.0
  Fe  Fe146  1  0.00000000  0.83333333  0.34615385  1.0
  Fe  Fe147  1  0.33333333  0.16666667  0.34615385  1.0
  Fe  Fe148  1  0.33333333  0.50000000  0.34615385  1.0
  Fe  Fe149  1  0.33333333  0.83333333  0.34615385  1.0
  Fe  Fe150  1  0.66666667  0.16666667  0.34615385  1.0
  Fe  Fe151  1  0.66666667  0.50000000  0.34615385  1.0
  Fe  Fe152  1  0.66666667  0.83333333  0.34615385  1.0
  Fe  Fe153  1  0.16666667  0.25000000  0.34615385  1.0
  Fe  Fe154  1  0.16666667  0.58333333  0.34615385  1.0
  Fe  Fe155  1  0.16666667  0.91666667  0.34615385  1.0
  Fe  Fe156  1  0.50000000  0.25000000  0.34615385  1.0
  Fe  Fe157  1  0.50000000  0.58333333  0.34615385  1.0
  Fe  Fe158  1  0.50000000  0.91666667  0.34615385  1.0
  Fe  Fe159  1  0.83333333  0.25000000  0.34615385  1.0
  Fe  Fe160  1  0.83333333  0.58333333  0.34615385  1.0
  Fe  Fe161  1  0.83333333  0.91666667  0.34615385  1.0
  Fe  Fe162  1  0.16666667  0.08333333  0.34615385  1.0
  Fe  Fe163  1  0.16666667  0.41666667  0.34615385  1.0
  Fe  Fe164  1  0.16666667  0.75000000  0.34615385  1.0
  Fe  Fe165  1  0.50000000  0.08333333  0.34615385  1.0
  Fe  Fe166  1  0.50000000  0.41666667  0.34615385  1.0
  Fe  Fe167  1  0.50000000  0.75000000  0.34615385  1.0
  Fe  Fe168  1  0.83333333  0.08333333  0.34615385  1.0
  Fe  Fe169  1  0.83333333  0.41666667  0.34615385  1.0
  Fe  Fe170  1  0.83333333  0.75000000  0.34615385  1.0
  Ni  Ni171  1  0.00000000  0.00000000  0.34615385  1.0
  Ni  Ni172  1  0.00000000  0.33333333  0.34615385  1.0
  Ni  Ni173  1  0.00000000  0.66666667  0.34615385  1.0
  Ni  Ni174  1  0.33333333  0.00000000  0.34615385  1.0
  Ni  Ni175  1  0.33333333  0.33333333  0.34615385  1.0
  Ni  Ni176  1  0.33333333  0.66666667  0.34615385  1.0
  Ni  Ni177  1  0.66666667  0.00000000  0.34615385  1.0
  Ni  Ni178  1  0.66666667  0.33333333  0.34615385  1.0
  Ni  Ni179  1  0.66666667  0.66666667  0.34615385  1.0
