# generated using pymatgen
data_Fe3Ni
_symmetry_space_group_name_H-M   'P 1'
_cell_length_a   19.86995941
_cell_length_b   26.34296095
_cell_length_c   27.87645522
_cell_angle_alpha   92.93504737
_cell_angle_beta   91.94511908
_cell_angle_gamma   108.86035485
_symmetry_Int_Tables_number   1
_chemical_formula_structural   Fe3Ni
_chemical_formula_sum   'Fe378 Ni126'
_cell_volume   13770.23515107
_cell_formula_units_Z   126
loop_
 _symmetry_equiv_pos_site_id
 _symmetry_equiv_pos_as_xyz
  1  'x, y, z'
loop_
 _atom_site_type_symbol
 _atom_site_label
 _atom_site_symmetry_multiplicity
 _atom_site_fract_x
 _atom_site_fract_y
 _atom_site_fract_z
 _atom_site_occupancy
  Fe  Fe0  1  0.23780851  0.29182067  0.99265871  1.0
  Fe  Fe1  1  0.23780851  0.62515400  0.99265871  1.0
  Fe  Fe2  1  0.23780851  0.95848733  0.99265871  1.0
  Fe  Fe3  1  0.57114184  0.29182067  0.99265871  1.0
  Fe  Fe4  1  0.57114184  0.62515400  0.99265871  1.0
  Fe  Fe5  1  0.57114184  0.95848733  0.99265871  1.0
  Fe  Fe6  1  0.90447518  0.29182067  0.99265871  1.0
  Fe  Fe7  1  0.90447518  0.62515400  0.99265871  1.0
  Fe  Fe8  1  0.90447518  0.95848733  0.99265871  1.0
  Fe  Fe9  1  0.02212224  0.29182067  0.96324694  1.0
  Fe  Fe10  1  0.02212224  0.62515400  0.96324694  1.0
  Fe  Fe11  1  0.02212224  0.95848733  0.96324694  1.0
  Fe  Fe12  1  0.35545557  0.29182067  0.96324694  1.0
  Fe  Fe13  1  0.35545557  0.62515400  0.96324694  1.0
  Fe  Fe14  1  0.35545557  0.95848733  0.96324694  1.0
  Fe  Fe15  1  0.68878890  0.29182067  0.96324694  1.0
  Fe  Fe16  1  0.68878890  0.62515400  0.96324694  1.0
  Fe  Fe17  1  0.68878890  0.95848733  0.96324694  1.0
  Fe  Fe18  1  0.24755549  0.20835533  0.94853329  1.0
  Fe  Fe19  1  0.24755549  0.54168867  0.94853329  1.0
  Fe  Fe20  1  0.24755549  0.87502200  0.94853329  1.0
  Fe  Fe21  1  0.58088882  0.20835533  0.94853329  1.0
  Fe  Fe22  1  0.58088882  0.54168867  0.94853329  1.0
  Fe  Fe23  1  0.58088882  0.87502200  0.94853329  1.0
  Fe  Fe24  1  0.91422216  0.20835533  0.94853329  1.0
  Fe  Fe25  1  0.91422216  0.54168867  0.94853329  1.0
  Fe  Fe26  1  0.91422216  0.87502200  0.94853329  1.0
  Fe  Fe27  1  0.12990843  0.20835533  0.97794506  1.0
  Fe  Fe28  1  0.12990843  0.54168867  0.97794506  1.0
  Fe  Fe29  1  0.12990843  0.87502200  0.97794506  1.0
  Fe  Fe30  1  0.46324176  0.20835533  0.97794506  1.0
  Fe  Fe31  1  0.46324176  0.54168867  0.97794506  1.0
  Fe  Fe32  1  0.46324176  0.87502200  0.97794506  1.0
  Fe  Fe33  1  0.79657510  0.20835533  0.97794506  1.0
  Fe  Fe34  1  0.79657510  0.54168867  0.97794506  1.0
  Fe  Fe35  1  0.79657510  0.87502200  0.97794506  1.0
  Fe  Fe36  1  0.02200835  0.12489000  0.96323141  1.0
  Fe  Fe37  1  0.02200835  0.45822333  0.96323141  1.0
  Fe  Fe38  1  0.02200835  0.79155667  0.96323141  1.0
  Fe  Fe39  1  0.35534169  0.12489000  0.96323141  1.0
  Fe  Fe40  1  0.35534169  0.45822333  0.96323141  1.0
  Fe  Fe41  1  0.35534169  0.79155667  0.96323141  1.0
  Fe  Fe42  1  0.68867502  0.12489000  0.96323141  1.0
  Fe  Fe43  1  0.68867502  0.45822333  0.96323141  1.0
  Fe  Fe44  1  0.68867502  0.79155667  0.96323141  1.0
  Fe  Fe45  1  0.23769463  0.12489000  0.99264318  1.0
  Fe  Fe46  1  0.23769463  0.45822333  0.99264318  1.0
  Fe  Fe47  1  0.23769463  0.79155667  0.99264318  1.0
  Fe  Fe48  1  0.57102796  0.12489000  0.99264318  1.0
  Fe  Fe49  1  0.57102796  0.45822333  0.99264318  1.0
  Fe  Fe50  1  0.57102796  0.79155667  0.99264318  1.0
  Fe  Fe51  1  0.90436129  0.12489000  0.99264318  1.0
  Fe  Fe52  1  0.90436129  0.45822333  0.99264318  1.0
  Fe  Fe53  1  0.90436129  0.79155667  0.99264318  1.0
  Fe  Fe54  1  0.13976929  0.29182067  0.93383518  1.0
  Fe  Fe55  1  0.13976929  0.62515400  0.93383518  1.0
  Fe  Fe56  1  0.13976929  0.95848733  0.93383518  1.0
  Fe  Fe57  1  0.47310263  0.29182067  0.93383518  1.0
  Fe  Fe58  1  0.47310263  0.62515400  0.93383518  1.0
  Fe  Fe59  1  0.47310263  0.95848733  0.93383518  1.0
  Fe  Fe60  1  0.80643596  0.29182067  0.93383518  1.0
  Fe  Fe61  1  0.80643596  0.62515400  0.93383518  1.0
  Fe  Fe62  1  0.80643596  0.95848733  0.93383518  1.0
  Fe  Fe63  1  0.25741635  0.29182067  0.90442341  1.0
  Fe  Fe64  1  0.25741635  0.62515400  0.90442341  1.0
  Fe  Fe65  1  0.25741635  0.95848733  0.90442341  1.0
  Fe  Fe66  1  0.59074969  0.29182067  0.90442341  1.0
  Fe  Fe67  1  0.59074969  0.62515400  0.90442341  1.0
  Fe  Fe68  1  0.59074969  0.95848733  0.90442341  1.0
  Fe  Fe69  1  0.92408302  0.29182067  0.90442341  1.0
  Fe  Fe70  1  0.92408302  0.62515400  0.90442341  1.0
  Fe  Fe71  1  0.92408302  0.95848733  0.90442341  1.0
  Fe  Fe72  1  0.14951627  0.20835533  0.88970976  1.0
  Fe  Fe73  1  0.14951627  0.54168867  0.88970976  1.0
  Fe  Fe74  1  0.14951627  0.87502200  0.88970976  1.0
  Fe  Fe75  1  0.48284961  0.20835533  0.88970976  1.0
  Fe  Fe76  1  0.48284961  0.54168867  0.88970976  1.0
  Fe  Fe77  1  0.48284961  0.87502200  0.88970976  1.0
  Fe  Fe78  1  0.81618294  0.20835533  0.88970976  1.0
  Fe  Fe79  1  0.81618294  0.54168867  0.88970976  1.0
  Fe  Fe80  1  0.81618294  0.87502200  0.88970976  1.0
  Fe  Fe81  1  0.03186922  0.20835533  0.91912153  1.0
  Fe  Fe82  1  0.03186922  0.54168867  0.91912153  1.0
  Fe  Fe83  1  0.03186922  0.87502200  0.91912153  1.0
  Fe  Fe84  1  0.36520255  0.20835533  0.91912153  1.0
  Fe  Fe85  1  0.36520255  0.54168867  0.91912153  1.0
  Fe  Fe86  1  0.36520255  0.87502200  0.91912153  1.0
  Fe  Fe87  1  0.69853588  0.20835533  0.91912153  1.0
  Fe  Fe88  1  0.69853588  0.54168867  0.91912153  1.0
  Fe  Fe89  1  0.69853588  0.87502200  0.91912153  1.0
  Fe  Fe90  1  0.25730247  0.12489000  0.90440788  1.0
  Fe  Fe91  1  0.25730247  0.45822333  0.90440788  1.0
  Fe  Fe92  1  0.25730247  0.79155667  0.90440788  1.0
  Fe  Fe93  1  0.59063580  0.12489000  0.90440788  1.0
  Fe  Fe94  1  0.59063580  0.45822333  0.90440788  1.0
  Fe  Fe95  1  0.59063580  0.79155667  0.90440788  1.0
  Fe  Fe96  1  0.92396914  0.12489000  0.90440788  1.0
  Fe  Fe97  1  0.92396914  0.45822333  0.90440788  1.0
  Fe  Fe98  1  0.92396914  0.79155667  0.90440788  1.0
  Fe  Fe99  1  0.13965541  0.12489000  0.93381965  1.0
  Fe  Fe100  1  0.13965541  0.45822333  0.93381965  1.0
  Fe  Fe101  1  0.13965541  0.79155667  0.93381965  1.0
  Fe  Fe102  1  0.47298875  0.12489000  0.93381965  1.0
  Fe  Fe103  1  0.47298875  0.45822333  0.93381965  1.0
  Fe  Fe104  1  0.47298875  0.79155667  0.93381965  1.0
  Fe  Fe105  1  0.80632208  0.12489000  0.93381965  1.0
  Fe  Fe106  1  0.80632208  0.45822333  0.93381965  1.0
  Fe  Fe107  1  0.80632208  0.79155667  0.93381965  1.0
  Fe  Fe108  1  0.04173008  0.29182067  0.87501165  1.0
  Fe  Fe109  1  0.04173008  0.62515400  0.87501165  1.0
  Fe  Fe110  1  0.04173008  0.95848733  0.87501165  1.0
  Fe  Fe111  1  0.37506341  0.29182067  0.87501165  1.0
  Fe  Fe112  1  0.37506341  0.62515400  0.87501165  1.0
  Fe  Fe113  1  0.37506341  0.95848733  0.87501165  1.0
  Fe  Fe114  1  0.70839675  0.29182067  0.87501165  1.0
  Fe  Fe115  1  0.70839675  0.62515400  0.87501165  1.0
  Fe  Fe116  1  0.70839675  0.95848733  0.87501165  1.0
  Fe  Fe117  1  0.15937714  0.29182067  0.84559988  1.0
  Fe  Fe118  1  0.15937714  0.62515400  0.84559988  1.0
  Fe  Fe119  1  0.15937714  0.95848733  0.84559988  1.0
  Fe  Fe120  1  0.49271047  0.29182067  0.84559988  1.0
  Fe  Fe121  1  0.49271047  0.62515400  0.84559988  1.0
  Fe  Fe122  1  0.49271047  0.95848733  0.84559988  1.0
  Fe  Fe123  1  0.82604380  0.29182067  0.84559988  1.0
  Fe  Fe124  1  0.82604380  0.62515400  0.84559988  1.0
  Fe  Fe125  1  0.82604380  0.95848733  0.84559988  1.0
  Fe  Fe126  1  0.05147706  0.20835533  0.83088624  1.0
  Fe  Fe127  1  0.05147706  0.54168867  0.83088624  1.0
  Fe  Fe128  1  0.05147706  0.87502200  0.83088624  1.0
  Fe  Fe129  1  0.38481039  0.20835533  0.83088624  1.0
  Fe  Fe130  1  0.38481039  0.54168867  0.83088624  1.0
  Fe  Fe131  1  0.38481039  0.87502200  0.83088624  1.0
  Fe  Fe132  1  0.71814373  0.20835533  0.83088624  1.0
  Fe  Fe133  1  0.71814373  0.54168867  0.83088624  1.0
  Fe  Fe134  1  0.71814373  0.87502200  0.83088624  1.0
  Fe  Fe135  1  0.26716333  0.20835533  0.86029800  1.0
  Fe  Fe136  1  0.26716333  0.54168867  0.86029800  1.0
  Fe  Fe137  1  0.26716333  0.87502200  0.86029800  1.0
  Fe  Fe138  1  0.60049667  0.20835533  0.86029800  1.0
  Fe  Fe139  1  0.60049667  0.54168867  0.86029800  1.0
  Fe  Fe140  1  0.60049667  0.87502200  0.86029800  1.0
  Fe  Fe141  1  0.93383000  0.20835533  0.86029800  1.0
  Fe  Fe142  1  0.93383000  0.54168867  0.86029800  1.0
  Fe  Fe143  1  0.93383000  0.87502200  0.86029800  1.0
  Fe  Fe144  1  0.15926325  0.12489000  0.84558435  1.0
  Fe  Fe145  1  0.15926325  0.45822333  0.84558435  1.0
  Fe  Fe146  1  0.15926325  0.79155667  0.84558435  1.0
  Fe  Fe147  1  0.49259659  0.12489000  0.84558435  1.0
  Fe  Fe148  1  0.49259659  0.45822333  0.84558435  1.0
  Fe  Fe149  1  0.49259659  0.79155667  0.84558435  1.0
  Fe  Fe150  1  0.82592992  0.12489000  0.84558435  1.0
  Fe  Fe151  1  0.82592992  0.45822333  0.84558435  1.0
  Fe  Fe152  1  0.82592992  0.79155667  0.84558435  1.0
  Fe  Fe153  1  0.04161620  0.12489000  0.87499612  1.0
  Fe  Fe154  1  0.04161620  0.45822333  0.87499612  1.0
  Fe  Fe155  1  0.04161620  0.79155667  0.87499612  1.0
  Fe  Fe156  1  0.37494953  0.12489000  0.87499612  1.0
  Fe  Fe157  1  0.37494953  0.45822333  0.87499612  1.0
  Fe  Fe158  1  0.37494953  0.79155667  0.87499612  1.0
  Fe  Fe159  1  0.70828286  0.12489000  0.87499612  1.0
  Fe  Fe160  1  0.70828286  0.45822333  0.87499612  1.0
  Fe  Fe161  1  0.70828286  0.79155667  0.87499612  1.0
  Fe  Fe162  1  0.27702420  0.29182067  0.81618812  1.0
  Fe  Fe163  1  0.27702420  0.62515400  0.81618812  1.0
  Fe  Fe164  1  0.27702420  0.95848733  0.81618812  1.0
  Fe  Fe165  1  0.61035753  0.29182067  0.81618812  1.0
  Fe  Fe166  1  0.61035753  0.62515400  0.81618812  1.0
  Fe  Fe167  1  0.61035753  0.95848733  0.81618812  1.0
  Fe  Fe168  1  0.94369086  0.29182067  0.81618812  1.0
  Fe  Fe169  1  0.94369086  0.62515400  0.81618812  1.0
  Fe  Fe170  1  0.94369086  0.95848733  0.81618812  1.0
  Fe  Fe171  1  0.06133792  0.29182067  0.78677635  1.0
  Fe  Fe172  1  0.06133792  0.62515400  0.78677635  1.0
  Fe  Fe173  1  0.06133792  0.95848733  0.78677635  1.0
  Fe  Fe174  1  0.39467125  0.29182067  0.78677635  1.0
  Fe  Fe175  1  0.39467125  0.62515400  0.78677635  1.0
  Fe  Fe176  1  0.39467125  0.95848733  0.78677635  1.0
  Fe  Fe177  1  0.72800459  0.29182067  0.78677635  1.0
  Fe  Fe178  1  0.72800459  0.62515400  0.78677635  1.0
  Fe  Fe179  1  0.72800459  0.95848733  0.78677635  1.0
  Fe  Fe180  1  0.28677118  0.20835533  0.77206271  1.0
  Fe  Fe181  1  0.28677118  0.54168867  0.77206271  1.0
  Fe  Fe182  1  0.28677118  0.87502200  0.77206271  1.0
  Fe  Fe183  1  0.62010451  0.20835533  0.77206271  1.0
  Fe  Fe184  1  0.62010451  0.54168867  0.77206271  1.0
  Fe  Fe185  1  0.62010451  0.87502200  0.77206271  1.0
  Fe  Fe186  1  0.95343784  0.20835533  0.77206271  1.0
  Fe  Fe187  1  0.95343784  0.54168867  0.77206271  1.0
  Fe  Fe188  1  0.95343784  0.87502200  0.77206271  1.0
  Fe  Fe189  1  0.16912412  0.20835533  0.80147447  1.0
  Fe  Fe190  1  0.16912412  0.54168867  0.80147447  1.0
  Fe  Fe191  1  0.16912412  0.87502200  0.80147447  1.0
  Fe  Fe192  1  0.50245745  0.20835533  0.80147447  1.0
  Fe  Fe193  1  0.50245745  0.54168867  0.80147447  1.0
  Fe  Fe194  1  0.50245745  0.87502200  0.80147447  1.0
  Fe  Fe195  1  0.83579078  0.20835533  0.80147447  1.0
  Fe  Fe196  1  0.83579078  0.54168867  0.80147447  1.0
  Fe  Fe197  1  0.83579078  0.87502200  0.80147447  1.0
  Fe  Fe198  1  0.06122404  0.12489000  0.78676082  1.0
  Fe  Fe199  1  0.06122404  0.45822333  0.78676082  1.0
  Fe  Fe200  1  0.06122404  0.79155667  0.78676082  1.0
  Fe  Fe201  1  0.39455737  0.12489000  0.78676082  1.0
  Fe  Fe202  1  0.39455737  0.45822333  0.78676082  1.0
  Fe  Fe203  1  0.39455737  0.79155667  0.78676082  1.0
  Fe  Fe204  1  0.72789071  0.12489000  0.78676082  1.0
  Fe  Fe205  1  0.72789071  0.45822333  0.78676082  1.0
  Fe  Fe206  1  0.72789071  0.79155667  0.78676082  1.0
  Fe  Fe207  1  0.27691031  0.12489000  0.81617259  1.0
  Fe  Fe208  1  0.27691031  0.45822333  0.81617259  1.0
  Fe  Fe209  1  0.27691031  0.79155667  0.81617259  1.0
  Fe  Fe210  1  0.61024365  0.12489000  0.81617259  1.0
  Fe  Fe211  1  0.61024365  0.45822333  0.81617259  1.0
  Fe  Fe212  1  0.61024365  0.79155667  0.81617259  1.0
  Fe  Fe213  1  0.94357698  0.12489000  0.81617259  1.0
  Fe  Fe214  1  0.94357698  0.45822333  0.81617259  1.0
  Fe  Fe215  1  0.94357698  0.79155667  0.81617259  1.0
  Fe  Fe216  1  0.17898498  0.29182067  0.75736459  1.0
  Fe  Fe217  1  0.17898498  0.62515400  0.75736459  1.0
  Fe  Fe218  1  0.17898498  0.95848733  0.75736459  1.0
  Fe  Fe219  1  0.51231831  0.29182067  0.75736459  1.0
  Fe  Fe220  1  0.51231831  0.62515400  0.75736459  1.0
  Fe  Fe221  1  0.51231831  0.95848733  0.75736459  1.0
  Fe  Fe222  1  0.84565165  0.29182067  0.75736459  1.0
  Fe  Fe223  1  0.84565165  0.62515400  0.75736459  1.0
  Fe  Fe224  1  0.84565165  0.95848733  0.75736459  1.0
  Fe  Fe225  1  0.29663204  0.29182067  0.72795282  1.0
  Fe  Fe226  1  0.29663204  0.62515400  0.72795282  1.0
  Fe  Fe227  1  0.29663204  0.95848733  0.72795282  1.0
  Fe  Fe228  1  0.62996537  0.29182067  0.72795282  1.0
  Fe  Fe229  1  0.62996537  0.62515400  0.72795282  1.0
  Fe  Fe230  1  0.62996537  0.95848733  0.72795282  1.0
  Fe  Fe231  1  0.96329871  0.29182067  0.72795282  1.0
  Fe  Fe232  1  0.96329871  0.62515400  0.72795282  1.0
  Fe  Fe233  1  0.96329871  0.95848733  0.72795282  1.0
  Fe  Fe234  1  0.18873196  0.20835533  0.71323918  1.0
  Fe  Fe235  1  0.18873196  0.54168867  0.71323918  1.0
  Fe  Fe236  1  0.18873196  0.87502200  0.71323918  1.0
  Fe  Fe237  1  0.52206529  0.20835533  0.71323918  1.0
  Fe  Fe238  1  0.52206529  0.54168867  0.71323918  1.0
  Fe  Fe239  1  0.52206529  0.87502200  0.71323918  1.0
  Fe  Fe240  1  0.85539863  0.20835533  0.71323918  1.0
  Fe  Fe241  1  0.85539863  0.54168867  0.71323918  1.0
  Fe  Fe242  1  0.85539863  0.87502200  0.71323918  1.0
  Fe  Fe243  1  0.07108490  0.20835533  0.74265094  1.0
  Fe  Fe244  1  0.07108490  0.54168867  0.74265094  1.0
  Fe  Fe245  1  0.07108490  0.87502200  0.74265094  1.0
  Fe  Fe246  1  0.40441824  0.20835533  0.74265094  1.0
  Fe  Fe247  1  0.40441824  0.54168867  0.74265094  1.0
  Fe  Fe248  1  0.40441824  0.87502200  0.74265094  1.0
  Fe  Fe249  1  0.73775157  0.20835533  0.74265094  1.0
  Fe  Fe250  1  0.73775157  0.54168867  0.74265094  1.0
  Fe  Fe251  1  0.73775157  0.87502200  0.74265094  1.0
  Fe  Fe252  1  0.29651816  0.12489000  0.72793729  1.0
  Fe  Fe253  1  0.29651816  0.45822333  0.72793729  1.0
  Fe  Fe254  1  0.29651816  0.79155667  0.72793729  1.0
  Fe  Fe255  1  0.62985149  0.12489000  0.72793729  1.0
  Fe  Fe256  1  0.62985149  0.45822333  0.72793729  1.0
  Fe  Fe257  1  0.62985149  0.79155667  0.72793729  1.0
  Fe  Fe258  1  0.96318482  0.12489000  0.72793729  1.0
  Fe  Fe259  1  0.96318482  0.45822333  0.72793729  1.0
  Fe  Fe260  1  0.96318482  0.79155667  0.72793729  1.0
  Fe  Fe261  1  0.17887110  0.12489000  0.75734906  1.0
  Fe  Fe262  1  0.17887110  0.45822333  0.75734906  1.0
  Fe  Fe263  1  0.17887110  0.79155667  0.75734906  1.0
  Fe  Fe264  1  0.51220443  0.12489000  0.75734906  1.0
  Fe  Fe265  1  0.51220443  0.45822333  0.75734906  1.0
  Fe  Fe266  1  0.51220443  0.79155667  0.75734906  1.0
  Fe  Fe267  1  0.84553776  0.12489000  0.75734906  1.0
  Fe  Fe268  1  0.84553776  0.45822333  0.75734906  1.0
  Fe  Fe269  1  0.84553776  0.79155667  0.75734906  1.0
  Fe  Fe270  1  0.08094576  0.29182067  0.69854106  1.0
  Fe  Fe271  1  0.08094576  0.62515400  0.69854106  1.0
  Fe  Fe272  1  0.08094576  0.95848733  0.69854106  1.0
  Fe  Fe273  1  0.41427910  0.29182067  0.69854106  1.0
  Fe  Fe274  1  0.41427910  0.62515400  0.69854106  1.0
  Fe  Fe275  1  0.41427910  0.95848733  0.69854106  1.0
  Fe  Fe276  1  0.74761243  0.29182067  0.69854106  1.0
  Fe  Fe277  1  0.74761243  0.62515400  0.69854106  1.0
  Fe  Fe278  1  0.74761243  0.95848733  0.69854106  1.0
  Fe  Fe279  1  0.19859282  0.29182067  0.66912929  1.0
  Fe  Fe280  1  0.19859282  0.62515400  0.66912929  1.0
  Fe  Fe281  1  0.19859282  0.95848733  0.66912929  1.0
  Fe  Fe282  1  0.53192616  0.29182067  0.66912929  1.0
  Fe  Fe283  1  0.53192616  0.62515400  0.66912929  1.0
  Fe  Fe284  1  0.53192616  0.95848733  0.66912929  1.0
  Fe  Fe285  1  0.86525949  0.29182067  0.66912929  1.0
  Fe  Fe286  1  0.86525949  0.62515400  0.66912929  1.0
  Fe  Fe287  1  0.86525949  0.95848733  0.66912929  1.0
  Fe  Fe288  1  0.09069275  0.20835533  0.65441565  1.0
  Fe  Fe289  1  0.09069275  0.54168867  0.65441565  1.0
  Fe  Fe290  1  0.09069275  0.87502200  0.65441565  1.0
  Fe  Fe291  1  0.42402608  0.20835533  0.65441565  1.0
  Fe  Fe292  1  0.42402608  0.54168867  0.65441565  1.0
  Fe  Fe293  1  0.42402608  0.87502200  0.65441565  1.0
  Fe  Fe294  1  0.75735941  0.20835533  0.65441565  1.0
  Fe  Fe295  1  0.75735941  0.54168867  0.65441565  1.0
  Fe  Fe296  1  0.75735941  0.87502200  0.65441565  1.0
  Fe  Fe297  1  0.30637902  0.20835533  0.68382741  1.0
  Fe  Fe298  1  0.30637902  0.54168867  0.68382741  1.0
  Fe  Fe299  1  0.30637902  0.87502200  0.68382741  1.0
  Fe  Fe300  1  0.63971235  0.20835533  0.68382741  1.0
  Fe  Fe301  1  0.63971235  0.54168867  0.68382741  1.0
  Fe  Fe302  1  0.63971235  0.87502200  0.68382741  1.0
  Fe  Fe303  1  0.97304569  0.20835533  0.68382741  1.0
  Fe  Fe304  1  0.97304569  0.54168867  0.68382741  1.0
  Fe  Fe305  1  0.97304569  0.87502200  0.68382741  1.0
  Fe  Fe306  1  0.19847894  0.12489000  0.66911376  1.0
  Fe  Fe307  1  0.19847894  0.45822333  0.66911376  1.0
  Fe  Fe308  1  0.19847894  0.79155667  0.66911376  1.0
  Fe  Fe309  1  0.53181227  0.12489000  0.66911376  1.0
  Fe  Fe310  1  0.53181227  0.45822333  0.66911376  1.0
  Fe  Fe311  1  0.53181227  0.79155667  0.66911376  1.0
  Fe  Fe312  1  0.86514561  0.12489000  0.66911376  1.0
  Fe  Fe313  1  0.86514561  0.45822333  0.66911376  1.0
  Fe  Fe314  1  0.86514561  0.79155667  0.66911376  1.0
  Fe  Fe315  1  0.08083188  0.12489000  0.69852553  1.0
  Fe  Fe316  1  0.08083188  0.45822333  0.69852553  1.0
  Fe  Fe317  1  0.08083188  0.79155667  0.69852553  1.0
  Fe  Fe318  1  0.41416522  0.12489000  0.69852553  1.0
  Fe  Fe319  1  0.41416522  0.45822333  0.69852553  1.0
  Fe  Fe320  1  0.41416522  0.79155667  0.69852553  1.0
  Fe  Fe321  1  0.74749855  0.12489000  0.69852553  1.0
  Fe  Fe322  1  0.74749855  0.45822333  0.69852553  1.0
  Fe  Fe323  1  0.74749855  0.79155667  0.69852553  1.0
  Fe  Fe324  1  0.31623988  0.29182067  0.63971753  1.0
  Fe  Fe325  1  0.31623988  0.62515400  0.63971753  1.0
  Fe  Fe326  1  0.31623988  0.95848733  0.63971753  1.0
  Fe  Fe327  1  0.64957322  0.29182067  0.63971753  1.0
  Fe  Fe328  1  0.64957322  0.62515400  0.63971753  1.0
  Fe  Fe329  1  0.64957322  0.95848733  0.63971753  1.0
  Fe  Fe330  1  0.98290655  0.29182067  0.63971753  1.0
  Fe  Fe331  1  0.98290655  0.62515400  0.63971753  1.0
  Fe  Fe332  1  0.98290655  0.95848733  0.63971753  1.0
  Fe  Fe333  1  0.10055361  0.29182067  0.61030576  1.0
  Fe  Fe334  1  0.10055361  0.62515400  0.61030576  1.0
  Fe  Fe335  1  0.10055361  0.95848733  0.61030576  1.0
  Fe  Fe336  1  0.43388694  0.29182067  0.61030576  1.0
  Fe  Fe337  1  0.43388694  0.62515400  0.61030576  1.0
  Fe  Fe338  1  0.43388694  0.95848733  0.61030576  1.0
  Fe  Fe339  1  0.76722027  0.29182067  0.61030576  1.0
  Fe  Fe340  1  0.76722027  0.62515400  0.61030576  1.0
  Fe  Fe341  1  0.76722027  0.95848733  0.61030576  1.0
  Fe  Fe342  1  0.32598686  0.20835533  0.59559212  1.0
  Fe  Fe343  1  0.32598686  0.54168867  0.59559212  1.0
  Fe  Fe344  1  0.32598686  0.87502200  0.59559212  1.0
  Fe  Fe345  1  0.65932020  0.20835533  0.59559212  1.0
  Fe  Fe346  1  0.65932020  0.54168867  0.59559212  1.0
  Fe  Fe347  1  0.65932020  0.87502200  0.59559212  1.0
  Fe  Fe348  1  0.99265353  0.20835533  0.59559212  1.0
  Fe  Fe349  1  0.99265353  0.54168867  0.59559212  1.0
  Fe  Fe350  1  0.99265353  0.87502200  0.59559212  1.0
  Fe  Fe351  1  0.20833980  0.20835533  0.62500388  1.0
  Fe  Fe352  1  0.20833980  0.54168867  0.62500388  1.0
  Fe  Fe353  1  0.20833980  0.87502200  0.62500388  1.0
  Fe  Fe354  1  0.54167314  0.20835533  0.62500388  1.0
  Fe  Fe355  1  0.54167314  0.54168867  0.62500388  1.0
  Fe  Fe356  1  0.54167314  0.87502200  0.62500388  1.0
  Fe  Fe357  1  0.87500647  0.20835533  0.62500388  1.0
  Fe  Fe358  1  0.87500647  0.54168867  0.62500388  1.0
  Fe  Fe359  1  0.87500647  0.87502200  0.62500388  1.0
  Fe  Fe360  1  0.10043973  0.12489000  0.61029024  1.0
  Fe  Fe361  1  0.10043973  0.45822333  0.61029024  1.0
  Fe  Fe362  1  0.10043973  0.79155667  0.61029024  1.0
  Fe  Fe363  1  0.43377306  0.12489000  0.61029024  1.0
  Fe  Fe364  1  0.43377306  0.45822333  0.61029024  1.0
  Fe  Fe365  1  0.43377306  0.79155667  0.61029024  1.0
  Fe  Fe366  1  0.76710639  0.12489000  0.61029024  1.0
  Fe  Fe367  1  0.76710639  0.45822333  0.61029024  1.0
  Fe  Fe368  1  0.76710639  0.79155667  0.61029024  1.0
  Fe  Fe369  1  0.31612600  0.12489000  0.63970200  1.0
  Fe  Fe370  1  0.31612600  0.45822333  0.63970200  1.0
  Fe  Fe371  1  0.31612600  0.79155667  0.63970200  1.0
  Fe  Fe372  1  0.64945933  0.12489000  0.63970200  1.0
  Fe  Fe373  1  0.64945933  0.45822333  0.63970200  1.0
  Fe  Fe374  1  0.64945933  0.79155667  0.63970200  1.0
  Fe  Fe375  1  0.98279267  0.12489000  0.63970200  1.0
  Fe  Fe376  1  0.98279267  0.45822333  0.63970200  1.0
  Fe  Fe377  1  0.98279267  0.79155667  0.63970200  1.0
  Ni  Ni378  1  0.12990843  0.04168867  0.97794506  1.0
  Ni  Ni379  1  0.12990843  0.37502200  0.97794506  1.0
  Ni  Ni380  1  0.12990843  0.70835533  0.97794506  1.0
  Ni  Ni381  1  0.46324176  0.04168867  0.97794506  1.0
  Ni  Ni382  1  0.46324176  0.37502200  0.97794506  1.0
  Ni  Ni383  1  0.46324176  0.70835533  0.97794506  1.0
  Ni  Ni384  1  0.79657510  0.04168867  0.97794506  1.0
  Ni  Ni385  1  0.79657510  0.37502200  0.97794506  1.0
  Ni  Ni386  1  0.79657510  0.70835533  0.97794506  1.0
  Ni  Ni387  1  0.24755549  0.04168867  0.94853329  1.0
  Ni  Ni388  1  0.24755549  0.37502200  0.94853329  1.0
  Ni  Ni389  1  0.24755549  0.70835533  0.94853329  1.0
  Ni  Ni390  1  0.58088882  0.04168867  0.94853329  1.0
  Ni  Ni391  1  0.58088882  0.37502200  0.94853329  1.0
  Ni  Ni392  1  0.58088882  0.70835533  0.94853329  1.0
  Ni  Ni393  1  0.91422216  0.04168867  0.94853329  1.0
  Ni  Ni394  1  0.91422216  0.37502200  0.94853329  1.0
  Ni  Ni395  1  0.91422216  0.70835533  0.94853329  1.0
  Ni  Ni396  1  0.03186922  0.04168867  0.91912153  1.0
  Ni  Ni397  1  0.03186922  0.37502200  0.91912153  1.0
  Ni  Ni398  1  0.03186922  0.70835533  0.91912153  1.0
  Ni  Ni399  1  0.36520255  0.04168867  0.91912153  1.0
  Ni  Ni400  1  0.36520255  0.37502200  0.91912153  1.0
  Ni  Ni401  1  0.36520255  0.70835533  0.91912153  1.0
  Ni  Ni402  1  0.69853588  0.04168867  0.91912153  1.0
  Ni  Ni403  1  0.69853588  0.37502200  0.91912153  1.0
  Ni  Ni404  1  0.69853588  0.70835533  0.91912153  1.0
  Ni  Ni405  1  0.14951627  0.04168867  0.88970976  1.0
  Ni  Ni406  1  0.14951627  0.37502200  0.88970976  1.0
  Ni  Ni407  1  0.14951627  0.70835533  0.88970976  1.0
  Ni  Ni408  1  0.48284961  0.04168867  0.88970976  1.0
  Ni  Ni409  1  0.48284961  0.37502200  0.88970976  1.0
  Ni  Ni410  1  0.48284961  0.70835533  0.88970976  1.0
  Ni  Ni411  1  0.81618294  0.04168867  0.88970976  1.0
  Ni  Ni412  1  0.81618294  0.37502200  0.88970976  1.0
  Ni  Ni413  1  0.81618294  0.70835533  0.88970976  1.0
  Ni  Ni414  1  0.26716333  0.04168867  0.86029800  1.0
  Ni  Ni415  1  0.26716333  0.37502200  0.86029800  1.0
  Ni  Ni416  1  0.26716333  0.70835533  0.86029800  1.0
  Ni  Ni417  1  0.60049667  0.04168867  0.86029800  1.0
  Ni  Ni418  1  0.60049667  0.37502200  0.86029800  1.0
  Ni  Ni419  1  0.60049667  0.70835533  0.86029800  1.0
  Ni  Ni420  1  0.93383000  0.04168867  0.86029800  1.0
  Ni  Ni421  1  0.93383000  0.37502200  0.86029800  1.0
  Ni  Ni422  1  0.93383000  0.70835533  0.86029800  1.0
  Ni  Ni423  1  0.05147706  0.04168867  0.83088624  1.0
  Ni  Ni424  1  0.05147706  0.37502200  0.83088624  1.0
  Ni  Ni425  1  0.05147706  0.70835533  0.83088624  1.0
  Ni  Ni426  1  0.38481039  0.04168867  0.83088624  1.0
  Ni  Ni427  1  0.38481039  0.37502200  0.83088624  1.0
  Ni  Ni428  1  0.38481039  0.70835533  0.83088624  1.0
  Ni  Ni429  1  0.71814373  0.04168867  0.83088624  1.0
  Ni  Ni430  1  0.71814373  0.37502200  0.83088624  1.0
  Ni  Ni431  1  0.71814373  0.70835533  0.83088624  1.0
  Ni  Ni432  1  0.16912412  0.04168867  0.80147447  1.0
  Ni  Ni433  1  0.16912412  0.37502200  0.80147447  1.0
  Ni  Ni434  1  0.16912412  0.70835533  0.80147447  1.0
  Ni  Ni435  1  0.50245745  0.04168867  0.80147447  1.0
  Ni  Ni436  1  0.50245745  0.37502200  0.80147447  1.0
  Ni  Ni437  1  0.50245745  0.70835533  0.80147447  1.0
  Ni  Ni438  1  0.83579078  0.04168867  0.80147447  1.0
  Ni  Ni439  1  0.83579078  0.37502200  0.80147447  1.0
  Ni  Ni440  1  0.83579078  0.70835533  0.80147447  1.0
  Ni  Ni441  1  0.28677118  0.04168867  0.77206271  1.0
  Ni  Ni442  1  0.28677118  0.37502200  0.77206271  1.0
  Ni  Ni443  1  0.28677118  0.70835533  0.77206271  1.0
  Ni  Ni444  1  0.62010451  0.04168867  0.77206271  1.0
  Ni  Ni445  1  0.62010451  0.37502200  0.77206271  1.0
  Ni  Ni446  1  0.62010451  0.70835533  0.77206271  1.0
  Ni  Ni447  1  0.95343784  0.04168867  0.77206271  1.0
  Ni  Ni448  1  0.95343784  0.37502200  0.77206271  1.0
  Ni  Ni449  1  0.95343784  0.70835533  0.77206271  1.0
  Ni  Ni450  1  0.07108490  0.04168867  0.74265094  1.0
  Ni  Ni451  1  0.07108490  0.37502200  0.74265094  1.0
  Ni  Ni452  1  0.07108490  0.70835533  0.74265094  1.0
  Ni  Ni453  1  0.40441824  0.04168867  0.74265094  1.0
  Ni  Ni454  1  0.40441824  0.37502200  0.74265094  1.0
  Ni  Ni455  1  0.40441824  0.70835533  0.74265094  1.0
  Ni  Ni456  1  0.73775157  0.04168867  0.74265094  1.0
  Ni  Ni457  1  0.73775157  0.37502200  0.74265094  1.0
  Ni  Ni458  1  0.73775157  0.70835533  0.74265094  1.0
  Ni  Ni459  1  0.18873196  0.04168867  0.71323918  1.0
  Ni  Ni460  1  0.18873196  0.37502200  0.71323918  1.0
  Ni  Ni461  1  0.18873196  0.70835533  0.71323918  1.0
  Ni  Ni462  1  0.52206529  0.04168867  0.71323918  1.0
  Ni  Ni463  1  0.52206529  0.37502200  0.71323918  1.0
  Ni  Ni464  1  0.52206529  0.70835533  0.71323918  1.0
  Ni  Ni465  1  0.85539863  0.04168867  0.71323918  1.0
  Ni  Ni466  1  0.85539863  0.37502200  0.71323918  1.0
  Ni  Ni467  1  0.85539863  0.70835533  0.71323918  1.0
  Ni  Ni468  1  0.30637902  0.04168867  0.68382741  1.0
  Ni  Ni469  1  0.30637902  0.37502200  0.68382741  1.0
  Ni  Ni470  1  0.30637902  0.70835533  0.68382741  1.0
  Ni  Ni471  1  0.63971235  0.04168867  0.68382741  1.0
  Ni  Ni472  1  0.63971235  0.37502200  0.68382741  1.0
  Ni  Ni473  1  0.63971235  0.70835533  0.68382741  1.0
  Ni  Ni474  1  0.97304569  0.04168867  0.68382741  1.0
  Ni  Ni475  1  0.97304569  0.37502200  0.68382741  1.0
  Ni  Ni476  1  0.97304569  0.70835533  0.68382741  1.0
  Ni  Ni477  1  0.09069275  0.04168867  0.65441565  1.0
  Ni  Ni478  1  0.09069275  0.37502200  0.65441565  1.0
  Ni  Ni479  1  0.09069275  0.70835533  0.65441565  1.0
  Ni  Ni480  1  0.42402608  0.04168867  0.65441565  1.0
  Ni  Ni481  1  0.42402608  0.37502200  0.65441565  1.0
  Ni  Ni482  1  0.42402608  0.70835533  0.65441565  1.0
  Ni  Ni483  1  0.75735941  0.04168867  0.65441565  1.0
  Ni  Ni484  1  0.75735941  0.37502200  0.65441565  1.0
  Ni  Ni485  1  0.75735941  0.70835533  0.65441565  1.0
  Ni  Ni486  1  0.20833980  0.04168867  0.62500388  1.0
  Ni  Ni487  1  0.20833980  0.37502200  0.62500388  1.0
  Ni  Ni488  1  0.20833980  0.70835533  0.62500388  1.0
  Ni  Ni489  1  0.54167314  0.04168867  0.62500388  1.0
  Ni  Ni490  1  0.54167314  0.37502200  0.62500388  1.0
  Ni  Ni491  1  0.54167314  0.70835533  0.62500388  1.0
  Ni  Ni492  1  0.87500647  0.04168867  0.62500388  1.0
  Ni  Ni493  1  0.87500647  0.37502200  0.62500388  1.0
  Ni  Ni494  1  0.87500647  0.70835533  0.62500388  1.0
  Ni  Ni495  1  0.32598686  0.04168867  0.59559212  1.0
  Ni  Ni496  1  0.32598686  0.37502200  0.59559212  1.0
  Ni  Ni497  1  0.32598686  0.70835533  0.59559212  1.0
  Ni  Ni498  1  0.65932020  0.04168867  0.59559212  1.0
  Ni  Ni499  1  0.65932020  0.37502200  0.59559212  1.0
  Ni  Ni500  1  0.65932020  0.70835533  0.59559212  1.0
  Ni  Ni501  1  0.99265353  0.04168867  0.59559212  1.0
  Ni  Ni502  1  0.99265353  0.37502200  0.59559212  1.0
  Ni  Ni503  1  0.99265353  0.70835533  0.59559212  1.0
