# generated using pymatgen
data_Fe3Ni
_symmetry_space_group_name_H-M   'P 1'
_cell_length_a   18.38362196
_cell_length_b   25.05299902
_cell_length_c   28.22337854
_cell_angle_alpha   83.11734981
_cell_angle_beta   88.47050496
_cell_angle_gamma   74.21293592
_symmetry_Int_Tables_number   1
_chemical_formula_structural   Fe3Ni
_chemical_formula_sum   'Fe324 Ni108'
_cell_volume   12418.00122090
_cell_formula_units_Z   108
loop_
 _symmetry_equiv_pos_site_id
 _symmetry_equiv_pos_as_xyz
  1  'x, y, z'
loop_
 _atom_site_type_symbol
 _atom_site_label
 _atom_site_symmetry_multiplicity
 _atom_site_fract_x
 _atom_site_fract_y
 _atom_site_fract_z
 _atom_site_occupancy
  Fe  Fe0  1  0.13040981  0.25033633  0.99581652  1.0
  Fe  Fe1  1  0.13040981  0.58366967  0.99581652  1.0
  Fe  Fe2  1  0.13040981  0.91700300  0.99581652  1.0
  Fe  Fe3  1  0.46374314  0.25033633  0.99581652  1.0
  Fe  Fe4  1  0.46374314  0.58366967  0.99581652  1.0
  Fe  Fe5  1  0.46374314  0.91700300  0.99581652  1.0
  Fe  Fe6  1  0.79707648  0.25033633  0.99581652  1.0
  Fe  Fe7  1  0.79707648  0.58366967  0.99581652  1.0
  Fe  Fe8  1  0.79707648  0.91700300  0.99581652  1.0
  Fe  Fe9  1  0.00818759  0.25033633  0.96248318  1.0
  Fe  Fe10  1  0.00818759  0.58366967  0.96248318  1.0
  Fe  Fe11  1  0.00818759  0.91700300  0.96248318  1.0
  Fe  Fe12  1  0.34152092  0.25033633  0.96248318  1.0
  Fe  Fe13  1  0.34152092  0.58366967  0.96248318  1.0
  Fe  Fe14  1  0.34152092  0.91700300  0.96248318  1.0
  Fe  Fe15  1  0.67485426  0.25033633  0.96248318  1.0
  Fe  Fe16  1  0.67485426  0.58366967  0.96248318  1.0
  Fe  Fe17  1  0.67485426  0.91700300  0.96248318  1.0
  Fe  Fe18  1  0.26664424  0.16666667  0.98751682  1.0
  Fe  Fe19  1  0.26664424  0.50000000  0.98751682  1.0
  Fe  Fe20  1  0.26664424  0.83333333  0.98751682  1.0
  Fe  Fe21  1  0.59997758  0.16666667  0.98751682  1.0
  Fe  Fe22  1  0.59997758  0.50000000  0.98751682  1.0
  Fe  Fe23  1  0.59997758  0.83333333  0.98751682  1.0
  Fe  Fe24  1  0.93331091  0.16666667  0.98751682  1.0
  Fe  Fe25  1  0.93331091  0.50000000  0.98751682  1.0
  Fe  Fe26  1  0.93331091  0.83333333  0.98751682  1.0
  Fe  Fe27  1  0.14442202  0.16666667  0.95418348  1.0
  Fe  Fe28  1  0.14442202  0.50000000  0.95418348  1.0
  Fe  Fe29  1  0.14442202  0.83333333  0.95418348  1.0
  Fe  Fe30  1  0.47775536  0.16666667  0.95418348  1.0
  Fe  Fe31  1  0.47775536  0.50000000  0.95418348  1.0
  Fe  Fe32  1  0.47775536  0.83333333  0.95418348  1.0
  Fe  Fe33  1  0.81108869  0.16666667  0.95418348  1.0
  Fe  Fe34  1  0.81108869  0.50000000  0.95418348  1.0
  Fe  Fe35  1  0.81108869  0.83333333  0.95418348  1.0
  Fe  Fe36  1  0.28065646  0.08299700  0.94588378  1.0
  Fe  Fe37  1  0.28065646  0.41633033  0.94588378  1.0
  Fe  Fe38  1  0.28065646  0.74966367  0.94588378  1.0
  Fe  Fe39  1  0.61398979  0.08299700  0.94588378  1.0
  Fe  Fe40  1  0.61398979  0.41633033  0.94588378  1.0
  Fe  Fe41  1  0.61398979  0.74966367  0.94588378  1.0
  Fe  Fe42  1  0.94732312  0.08299700  0.94588378  1.0
  Fe  Fe43  1  0.94732312  0.41633033  0.94588378  1.0
  Fe  Fe44  1  0.94732312  0.74966367  0.94588378  1.0
  Fe  Fe45  1  0.06954534  0.08299700  0.97921712  1.0
  Fe  Fe46  1  0.06954534  0.41633033  0.97921712  1.0
  Fe  Fe47  1  0.06954534  0.74966367  0.97921712  1.0
  Fe  Fe48  1  0.40287868  0.08299700  0.97921712  1.0
  Fe  Fe49  1  0.40287868  0.41633033  0.97921712  1.0
  Fe  Fe50  1  0.40287868  0.74966367  0.97921712  1.0
  Fe  Fe51  1  0.73621201  0.08299700  0.97921712  1.0
  Fe  Fe52  1  0.73621201  0.41633033  0.97921712  1.0
  Fe  Fe53  1  0.73621201  0.74966367  0.97921712  1.0
  Fe  Fe54  1  0.21929870  0.25033633  0.92914985  1.0
  Fe  Fe55  1  0.21929870  0.58366967  0.92914985  1.0
  Fe  Fe56  1  0.21929870  0.91700300  0.92914985  1.0
  Fe  Fe57  1  0.55263203  0.25033633  0.92914985  1.0
  Fe  Fe58  1  0.55263203  0.58366967  0.92914985  1.0
  Fe  Fe59  1  0.55263203  0.91700300  0.92914985  1.0
  Fe  Fe60  1  0.88596537  0.25033633  0.92914985  1.0
  Fe  Fe61  1  0.88596537  0.58366967  0.92914985  1.0
  Fe  Fe62  1  0.88596537  0.91700300  0.92914985  1.0
  Fe  Fe63  1  0.09707648  0.25033633  0.89581652  1.0
  Fe  Fe64  1  0.09707648  0.58366967  0.89581652  1.0
  Fe  Fe65  1  0.09707648  0.91700300  0.89581652  1.0
  Fe  Fe66  1  0.43040981  0.25033633  0.89581652  1.0
  Fe  Fe67  1  0.43040981  0.58366967  0.89581652  1.0
  Fe  Fe68  1  0.43040981  0.91700300  0.89581652  1.0
  Fe  Fe69  1  0.76374314  0.25033633  0.89581652  1.0
  Fe  Fe70  1  0.76374314  0.58366967  0.89581652  1.0
  Fe  Fe71  1  0.76374314  0.91700300  0.89581652  1.0
  Fe  Fe72  1  0.02219980  0.16666667  0.92085015  1.0
  Fe  Fe73  1  0.02219980  0.50000000  0.92085015  1.0
  Fe  Fe74  1  0.02219980  0.83333333  0.92085015  1.0
  Fe  Fe75  1  0.35553313  0.16666667  0.92085015  1.0
  Fe  Fe76  1  0.35553313  0.50000000  0.92085015  1.0
  Fe  Fe77  1  0.35553313  0.83333333  0.92085015  1.0
  Fe  Fe78  1  0.68886647  0.16666667  0.92085015  1.0
  Fe  Fe79  1  0.68886647  0.50000000  0.92085015  1.0
  Fe  Fe80  1  0.68886647  0.83333333  0.92085015  1.0
  Fe  Fe81  1  0.23331091  0.16666667  0.88751682  1.0
  Fe  Fe82  1  0.23331091  0.50000000  0.88751682  1.0
  Fe  Fe83  1  0.23331091  0.83333333  0.88751682  1.0
  Fe  Fe84  1  0.56664424  0.16666667  0.88751682  1.0
  Fe  Fe85  1  0.56664424  0.50000000  0.88751682  1.0
  Fe  Fe86  1  0.56664424  0.83333333  0.88751682  1.0
  Fe  Fe87  1  0.89997758  0.16666667  0.88751682  1.0
  Fe  Fe88  1  0.89997758  0.50000000  0.88751682  1.0
  Fe  Fe89  1  0.89997758  0.83333333  0.88751682  1.0
  Fe  Fe90  1  0.03621201  0.08299700  0.87921712  1.0
  Fe  Fe91  1  0.03621201  0.41633033  0.87921712  1.0
  Fe  Fe92  1  0.03621201  0.74966367  0.87921712  1.0
  Fe  Fe93  1  0.36954534  0.08299700  0.87921712  1.0
  Fe  Fe94  1  0.36954534  0.41633033  0.87921712  1.0
  Fe  Fe95  1  0.36954534  0.74966367  0.87921712  1.0
  Fe  Fe96  1  0.70287868  0.08299700  0.87921712  1.0
  Fe  Fe97  1  0.70287868  0.41633033  0.87921712  1.0
  Fe  Fe98  1  0.70287868  0.74966367  0.87921712  1.0
  Fe  Fe99  1  0.15843423  0.08299700  0.91255045  1.0
  Fe  Fe100  1  0.15843423  0.41633033  0.91255045  1.0
  Fe  Fe101  1  0.15843423  0.74966367  0.91255045  1.0
  Fe  Fe102  1  0.49176757  0.08299700  0.91255045  1.0
  Fe  Fe103  1  0.49176757  0.41633033  0.91255045  1.0
  Fe  Fe104  1  0.49176757  0.74966367  0.91255045  1.0
  Fe  Fe105  1  0.82510090  0.08299700  0.91255045  1.0
  Fe  Fe106  1  0.82510090  0.41633033  0.91255045  1.0
  Fe  Fe107  1  0.82510090  0.74966367  0.91255045  1.0
  Fe  Fe108  1  0.30818759  0.25033633  0.86248318  1.0
  Fe  Fe109  1  0.30818759  0.58366967  0.86248318  1.0
  Fe  Fe110  1  0.30818759  0.91700300  0.86248318  1.0
  Fe  Fe111  1  0.64152092  0.25033633  0.86248318  1.0
  Fe  Fe112  1  0.64152092  0.58366967  0.86248318  1.0
  Fe  Fe113  1  0.64152092  0.91700300  0.86248318  1.0
  Fe  Fe114  1  0.97485426  0.25033633  0.86248318  1.0
  Fe  Fe115  1  0.97485426  0.58366967  0.86248318  1.0
  Fe  Fe116  1  0.97485426  0.91700300  0.86248318  1.0
  Fe  Fe117  1  0.18596537  0.25033633  0.82914985  1.0
  Fe  Fe118  1  0.18596537  0.58366967  0.82914985  1.0
  Fe  Fe119  1  0.18596537  0.91700300  0.82914985  1.0
  Fe  Fe120  1  0.51929870  0.25033633  0.82914985  1.0
  Fe  Fe121  1  0.51929870  0.58366967  0.82914985  1.0
  Fe  Fe122  1  0.51929870  0.91700300  0.82914985  1.0
  Fe  Fe123  1  0.85263203  0.25033633  0.82914985  1.0
  Fe  Fe124  1  0.85263203  0.58366967  0.82914985  1.0
  Fe  Fe125  1  0.85263203  0.91700300  0.82914985  1.0
  Fe  Fe126  1  0.11108869  0.16666667  0.85418348  1.0
  Fe  Fe127  1  0.11108869  0.50000000  0.85418348  1.0
  Fe  Fe128  1  0.11108869  0.83333333  0.85418348  1.0
  Fe  Fe129  1  0.44442202  0.16666667  0.85418348  1.0
  Fe  Fe130  1  0.44442202  0.50000000  0.85418348  1.0
  Fe  Fe131  1  0.44442202  0.83333333  0.85418348  1.0
  Fe  Fe132  1  0.77775536  0.16666667  0.85418348  1.0
  Fe  Fe133  1  0.77775536  0.50000000  0.85418348  1.0
  Fe  Fe134  1  0.77775536  0.83333333  0.85418348  1.0
  Fe  Fe135  1  0.32219980  0.16666667  0.82085015  1.0
  Fe  Fe136  1  0.32219980  0.50000000  0.82085015  1.0
  Fe  Fe137  1  0.32219980  0.83333333  0.82085015  1.0
  Fe  Fe138  1  0.65553313  0.16666667  0.82085015  1.0
  Fe  Fe139  1  0.65553313  0.50000000  0.82085015  1.0
  Fe  Fe140  1  0.65553313  0.83333333  0.82085015  1.0
  Fe  Fe141  1  0.98886647  0.16666667  0.82085015  1.0
  Fe  Fe142  1  0.98886647  0.50000000  0.82085015  1.0
  Fe  Fe143  1  0.98886647  0.83333333  0.82085015  1.0
  Fe  Fe144  1  0.12510090  0.08299700  0.81255045  1.0
  Fe  Fe145  1  0.12510090  0.41633033  0.81255045  1.0
  Fe  Fe146  1  0.12510090  0.74966367  0.81255045  1.0
  Fe  Fe147  1  0.45843423  0.08299700  0.81255045  1.0
  Fe  Fe148  1  0.45843423  0.41633033  0.81255045  1.0
  Fe  Fe149  1  0.45843423  0.74966367  0.81255045  1.0
  Fe  Fe150  1  0.79176757  0.08299700  0.81255045  1.0
  Fe  Fe151  1  0.79176757  0.41633033  0.81255045  1.0
  Fe  Fe152  1  0.79176757  0.74966367  0.81255045  1.0
  Fe  Fe153  1  0.24732312  0.08299700  0.84588378  1.0
  Fe  Fe154  1  0.24732312  0.41633033  0.84588378  1.0
  Fe  Fe155  1  0.24732312  0.74966367  0.84588378  1.0
  Fe  Fe156  1  0.58065646  0.08299700  0.84588378  1.0
  Fe  Fe157  1  0.58065646  0.41633033  0.84588378  1.0
  Fe  Fe158  1  0.58065646  0.74966367  0.84588378  1.0
  Fe  Fe159  1  0.91398979  0.08299700  0.84588378  1.0
  Fe  Fe160  1  0.91398979  0.41633033  0.84588378  1.0
  Fe  Fe161  1  0.91398979  0.74966367  0.84588378  1.0
  Fe  Fe162  1  0.06374314  0.25033633  0.79581652  1.0
  Fe  Fe163  1  0.06374314  0.58366967  0.79581652  1.0
  Fe  Fe164  1  0.06374314  0.91700300  0.79581652  1.0
  Fe  Fe165  1  0.39707648  0.25033633  0.79581652  1.0
  Fe  Fe166  1  0.39707648  0.58366967  0.79581652  1.0
  Fe  Fe167  1  0.39707648  0.91700300  0.79581652  1.0
  Fe  Fe168  1  0.73040981  0.25033633  0.79581652  1.0
  Fe  Fe169  1  0.73040981  0.58366967  0.79581652  1.0
  Fe  Fe170  1  0.73040981  0.91700300  0.79581652  1.0
  Fe  Fe171  1  0.27485426  0.25033633  0.76248318  1.0
  Fe  Fe172  1  0.27485426  0.58366967  0.76248318  1.0
  Fe  Fe173  1  0.27485426  0.91700300  0.76248318  1.0
  Fe  Fe174  1  0.60818759  0.25033633  0.76248318  1.0
  Fe  Fe175  1  0.60818759  0.58366967  0.76248318  1.0
  Fe  Fe176  1  0.60818759  0.91700300  0.76248318  1.0
  Fe  Fe177  1  0.94152092  0.25033633  0.76248318  1.0
  Fe  Fe178  1  0.94152092  0.58366967  0.76248318  1.0
  Fe  Fe179  1  0.94152092  0.91700300  0.76248318  1.0
  Fe  Fe180  1  0.19997758  0.16666667  0.78751682  1.0
  Fe  Fe181  1  0.19997758  0.50000000  0.78751682  1.0
  Fe  Fe182  1  0.19997758  0.83333333  0.78751682  1.0
  Fe  Fe183  1  0.53331091  0.16666667  0.78751682  1.0
  Fe  Fe184  1  0.53331091  0.50000000  0.78751682  1.0
  Fe  Fe185  1  0.53331091  0.83333333  0.78751682  1.0
  Fe  Fe186  1  0.86664424  0.16666667  0.78751682  1.0
  Fe  Fe187  1  0.86664424  0.50000000  0.78751682  1.0
  Fe  Fe188  1  0.86664424  0.83333333  0.78751682  1.0
  Fe  Fe189  1  0.07775536  0.16666667  0.75418348  1.0
  Fe  Fe190  1  0.07775536  0.50000000  0.75418348  1.0
  Fe  Fe191  1  0.07775536  0.83333333  0.75418348  1.0
  Fe  Fe192  1  0.41108869  0.16666667  0.75418348  1.0
  Fe  Fe193  1  0.41108869  0.50000000  0.75418348  1.0
  Fe  Fe194  1  0.41108869  0.83333333  0.75418348  1.0
  Fe  Fe195  1  0.74442202  0.16666667  0.75418348  1.0
  Fe  Fe196  1  0.74442202  0.50000000  0.75418348  1.0
  Fe  Fe197  1  0.74442202  0.83333333  0.75418348  1.0
  Fe  Fe198  1  0.21398979  0.08299700  0.74588378  1.0
  Fe  Fe199  1  0.21398979  0.41633033  0.74588378  1.0
  Fe  Fe200  1  0.21398979  0.74966367  0.74588378  1.0
  Fe  Fe201  1  0.54732312  0.08299700  0.74588378  1.0
  Fe  Fe202  1  0.54732312  0.41633033  0.74588378  1.0
  Fe  Fe203  1  0.54732312  0.74966367  0.74588378  1.0
  Fe  Fe204  1  0.88065646  0.08299700  0.74588378  1.0
  Fe  Fe205  1  0.88065646  0.41633033  0.74588378  1.0
  Fe  Fe206  1  0.88065646  0.74966367  0.74588378  1.0
  Fe  Fe207  1  0.00287868  0.08299700  0.77921712  1.0
  Fe  Fe208  1  0.00287868  0.41633033  0.77921712  1.0
  Fe  Fe209  1  0.00287868  0.74966367  0.77921712  1.0
  Fe  Fe210  1  0.33621201  0.08299700  0.77921712  1.0
  Fe  Fe211  1  0.33621201  0.41633033  0.77921712  1.0
  Fe  Fe212  1  0.33621201  0.74966367  0.77921712  1.0
  Fe  Fe213  1  0.66954534  0.08299700  0.77921712  1.0
  Fe  Fe214  1  0.66954534  0.41633033  0.77921712  1.0
  Fe  Fe215  1  0.66954534  0.74966367  0.77921712  1.0
  Fe  Fe216  1  0.15263203  0.25033633  0.72914985  1.0
  Fe  Fe217  1  0.15263203  0.58366967  0.72914985  1.0
  Fe  Fe218  1  0.15263203  0.91700300  0.72914985  1.0
  Fe  Fe219  1  0.48596537  0.25033633  0.72914985  1.0
  Fe  Fe220  1  0.48596537  0.58366967  0.72914985  1.0
  Fe  Fe221  1  0.48596537  0.91700300  0.72914985  1.0
  Fe  Fe222  1  0.81929870  0.25033633  0.72914985  1.0
  Fe  Fe223  1  0.81929870  0.58366967  0.72914985  1.0
  Fe  Fe224  1  0.81929870  0.91700300  0.72914985  1.0
  Fe  Fe225  1  0.03040981  0.25033633  0.69581652  1.0
  Fe  Fe226  1  0.03040981  0.58366967  0.69581652  1.0
  Fe  Fe227  1  0.03040981  0.91700300  0.69581652  1.0
  Fe  Fe228  1  0.36374314  0.25033633  0.69581652  1.0
  Fe  Fe229  1  0.36374314  0.58366967  0.69581652  1.0
  Fe  Fe230  1  0.36374314  0.91700300  0.69581652  1.0
  Fe  Fe231  1  0.69707648  0.25033633  0.69581652  1.0
  Fe  Fe232  1  0.69707648  0.58366967  0.69581652  1.0
  Fe  Fe233  1  0.69707648  0.91700300  0.69581652  1.0
  Fe  Fe234  1  0.28886647  0.16666667  0.72085015  1.0
  Fe  Fe235  1  0.28886647  0.50000000  0.72085015  1.0
  Fe  Fe236  1  0.28886647  0.83333333  0.72085015  1.0
  Fe  Fe237  1  0.62219980  0.16666667  0.72085015  1.0
  Fe  Fe238  1  0.62219980  0.50000000  0.72085015  1.0
  Fe  Fe239  1  0.62219980  0.83333333  0.72085015  1.0
  Fe  Fe240  1  0.95553313  0.16666667  0.72085015  1.0
  Fe  Fe241  1  0.95553313  0.50000000  0.72085015  1.0
  Fe  Fe242  1  0.95553313  0.83333333  0.72085015  1.0
  Fe  Fe243  1  0.16664424  0.16666667  0.68751682  1.0
  Fe  Fe244  1  0.16664424  0.50000000  0.68751682  1.0
  Fe  Fe245  1  0.16664424  0.83333333  0.68751682  1.0
  Fe  Fe246  1  0.49997758  0.16666667  0.68751682  1.0
  Fe  Fe247  1  0.49997758  0.50000000  0.68751682  1.0
  Fe  Fe248  1  0.49997758  0.83333333  0.68751682  1.0
  Fe  Fe249  1  0.83331091  0.16666667  0.68751682  1.0
  Fe  Fe250  1  0.83331091  0.50000000  0.68751682  1.0
  Fe  Fe251  1  0.83331091  0.83333333  0.68751682  1.0
  Fe  Fe252  1  0.30287868  0.08299700  0.67921712  1.0
  Fe  Fe253  1  0.30287868  0.41633033  0.67921712  1.0
  Fe  Fe254  1  0.30287868  0.74966367  0.67921712  1.0
  Fe  Fe255  1  0.63621201  0.08299700  0.67921712  1.0
  Fe  Fe256  1  0.63621201  0.41633033  0.67921712  1.0
  Fe  Fe257  1  0.63621201  0.74966367  0.67921712  1.0
  Fe  Fe258  1  0.96954534  0.08299700  0.67921712  1.0
  Fe  Fe259  1  0.96954534  0.41633033  0.67921712  1.0
  Fe  Fe260  1  0.96954534  0.74966367  0.67921712  1.0
  Fe  Fe261  1  0.09176757  0.08299700  0.71255045  1.0
  Fe  Fe262  1  0.09176757  0.41633033  0.71255045  1.0
  Fe  Fe263  1  0.09176757  0.74966367  0.71255045  1.0
  Fe  Fe264  1  0.42510090  0.08299700  0.71255045  1.0
  Fe  Fe265  1  0.42510090  0.41633033  0.71255045  1.0
  Fe  Fe266  1  0.42510090  0.74966367  0.71255045  1.0
  Fe  Fe267  1  0.75843423  0.08299700  0.71255045  1.0
  Fe  Fe268  1  0.75843423  0.41633033  0.71255045  1.0
  Fe  Fe269  1  0.75843423  0.74966367  0.71255045  1.0
  Fe  Fe270  1  0.24152092  0.25033633  0.66248318  1.0
  Fe  Fe271  1  0.24152092  0.58366967  0.66248318  1.0
  Fe  Fe272  1  0.24152092  0.91700300  0.66248318  1.0
  Fe  Fe273  1  0.57485426  0.25033633  0.66248318  1.0
  Fe  Fe274  1  0.57485426  0.58366967  0.66248318  1.0
  Fe  Fe275  1  0.57485426  0.91700300  0.66248318  1.0
  Fe  Fe276  1  0.90818759  0.25033633  0.66248318  1.0
  Fe  Fe277  1  0.90818759  0.58366967  0.66248318  1.0
  Fe  Fe278  1  0.90818759  0.91700300  0.66248318  1.0
  Fe  Fe279  1  0.11929870  0.25033633  0.62914985  1.0
  Fe  Fe280  1  0.11929870  0.58366967  0.62914985  1.0
  Fe  Fe281  1  0.11929870  0.91700300  0.62914985  1.0
  Fe  Fe282  1  0.45263203  0.25033633  0.62914985  1.0
  Fe  Fe283  1  0.45263203  0.58366967  0.62914985  1.0
  Fe  Fe284  1  0.45263203  0.91700300  0.62914985  1.0
  Fe  Fe285  1  0.78596537  0.25033633  0.62914985  1.0
  Fe  Fe286  1  0.78596537  0.58366967  0.62914985  1.0
  Fe  Fe287  1  0.78596537  0.91700300  0.62914985  1.0
  Fe  Fe288  1  0.04442202  0.16666667  0.65418348  1.0
  Fe  Fe289  1  0.04442202  0.50000000  0.65418348  1.0
  Fe  Fe290  1  0.04442202  0.83333333  0.65418348  1.0
  Fe  Fe291  1  0.37775536  0.16666667  0.65418348  1.0
  Fe  Fe292  1  0.37775536  0.50000000  0.65418348  1.0
  Fe  Fe293  1  0.37775536  0.83333333  0.65418348  1.0
  Fe  Fe294  1  0.71108869  0.16666667  0.65418348  1.0
  Fe  Fe295  1  0.71108869  0.50000000  0.65418348  1.0
  Fe  Fe296  1  0.71108869  0.83333333  0.65418348  1.0
  Fe  Fe297  1  0.25553313  0.16666667  0.62085015  1.0
  Fe  Fe298  1  0.25553313  0.50000000  0.62085015  1.0
  Fe  Fe299  1  0.25553313  0.83333333  0.62085015  1.0
  Fe  Fe300  1  0.58886647  0.16666667  0.62085015  1.0
  Fe  Fe301  1  0.58886647  0.50000000  0.62085015  1.0
  Fe  Fe302  1  0.58886647  0.83333333  0.62085015  1.0
  Fe  Fe303  1  0.92219980  0.16666667  0.62085015  1.0
  Fe  Fe304  1  0.92219980  0.50000000  0.62085015  1.0
  Fe  Fe305  1  0.92219980  0.83333333  0.62085015  1.0
  Fe  Fe306  1  0.05843423  0.08299700  0.61255045  1.0
  Fe  Fe307  1  0.05843423  0.41633033  0.61255045  1.0
  Fe  Fe308  1  0.05843423  0.74966367  0.61255045  1.0
  Fe  Fe309  1  0.39176757  0.08299700  0.61255045  1.0
  Fe  Fe310  1  0.39176757  0.41633033  0.61255045  1.0
  Fe  Fe311  1  0.39176757  0.74966367  0.61255045  1.0
  Fe  Fe312  1  0.72510090  0.08299700  0.61255045  1.0
  Fe  Fe313  1  0.72510090  0.41633033  0.61255045  1.0
  Fe  Fe314  1  0.72510090  0.74966367  0.61255045  1.0
  Fe  Fe315  1  0.18065646  0.08299700  0.64588378  1.0
  Fe  Fe316  1  0.18065646  0.41633033  0.64588378  1.0
  Fe  Fe317  1  0.18065646  0.74966367  0.64588378  1.0
  Fe  Fe318  1  0.51398979  0.08299700  0.64588378  1.0
  Fe  Fe319  1  0.51398979  0.41633033  0.64588378  1.0
  Fe  Fe320  1  0.51398979  0.74966367  0.64588378  1.0
  Fe  Fe321  1  0.84732312  0.08299700  0.64588378  1.0
  Fe  Fe322  1  0.84732312  0.41633033  0.64588378  1.0
  Fe  Fe323  1  0.84732312  0.74966367  0.64588378  1.0
  Ni  Ni324  1  0.08331091  0.00000000  0.93751682  1.0
  Ni  Ni325  1  0.08331091  0.33333333  0.93751682  1.0
  Ni  Ni326  1  0.08331091  0.66666667  0.93751682  1.0
  Ni  Ni327  1  0.41664424  0.00000000  0.93751682  1.0
  Ni  Ni328  1  0.41664424  0.33333333  0.93751682  1.0
  Ni  Ni329  1  0.41664424  0.66666667  0.93751682  1.0
  Ni  Ni330  1  0.74997758  0.00000000  0.93751682  1.0
  Ni  Ni331  1  0.74997758  0.33333333  0.93751682  1.0
  Ni  Ni332  1  0.74997758  0.66666667  0.93751682  1.0
  Ni  Ni333  1  0.20553313  0.00000000  0.97085015  1.0
  Ni  Ni334  1  0.20553313  0.33333333  0.97085015  1.0
  Ni  Ni335  1  0.20553313  0.66666667  0.97085015  1.0
  Ni  Ni336  1  0.53886647  0.00000000  0.97085015  1.0
  Ni  Ni337  1  0.53886647  0.33333333  0.97085015  1.0
  Ni  Ni338  1  0.53886647  0.66666667  0.97085015  1.0
  Ni  Ni339  1  0.87219980  0.00000000  0.97085015  1.0
  Ni  Ni340  1  0.87219980  0.33333333  0.97085015  1.0
  Ni  Ni341  1  0.87219980  0.66666667  0.97085015  1.0
  Ni  Ni342  1  0.17219980  0.00000000  0.87085015  1.0
  Ni  Ni343  1  0.17219980  0.33333333  0.87085015  1.0
  Ni  Ni344  1  0.17219980  0.66666667  0.87085015  1.0
  Ni  Ni345  1  0.50553313  0.00000000  0.87085015  1.0
  Ni  Ni346  1  0.50553313  0.33333333  0.87085015  1.0
  Ni  Ni347  1  0.50553313  0.66666667  0.87085015  1.0
  Ni  Ni348  1  0.83886647  0.00000000  0.87085015  1.0
  Ni  Ni349  1  0.83886647  0.33333333  0.87085015  1.0
  Ni  Ni350  1  0.83886647  0.66666667  0.87085015  1.0
  Ni  Ni351  1  0.29442202  0.00000000  0.90418348  1.0
  Ni  Ni352  1  0.29442202  0.33333333  0.90418348  1.0
  Ni  Ni353  1  0.29442202  0.66666667  0.90418348  1.0
  Ni  Ni354  1  0.62775536  0.00000000  0.90418348  1.0
  Ni  Ni355  1  0.62775536  0.33333333  0.90418348  1.0
  Ni  Ni356  1  0.62775536  0.66666667  0.90418348  1.0
  Ni  Ni357  1  0.96108869  0.00000000  0.90418348  1.0
  Ni  Ni358  1  0.96108869  0.33333333  0.90418348  1.0
  Ni  Ni359  1  0.96108869  0.66666667  0.90418348  1.0
  Ni  Ni360  1  0.26108869  0.00000000  0.80418348  1.0
  Ni  Ni361  1  0.26108869  0.33333333  0.80418348  1.0
  Ni  Ni362  1  0.26108869  0.66666667  0.80418348  1.0
  Ni  Ni363  1  0.59442202  0.00000000  0.80418348  1.0
  Ni  Ni364  1  0.59442202  0.33333333  0.80418348  1.0
  Ni  Ni365  1  0.59442202  0.66666667  0.80418348  1.0
  Ni  Ni366  1  0.92775536  0.00000000  0.80418348  1.0
  Ni  Ni367  1  0.92775536  0.33333333  0.80418348  1.0
  Ni  Ni368  1  0.92775536  0.66666667  0.80418348  1.0
  Ni  Ni369  1  0.04997758  0.00000000  0.83751682  1.0
  Ni  Ni370  1  0.04997758  0.33333333  0.83751682  1.0
  Ni  Ni371  1  0.04997758  0.66666667  0.83751682  1.0
  Ni  Ni372  1  0.38331091  0.00000000  0.83751682  1.0
  Ni  Ni373  1  0.38331091  0.33333333  0.83751682  1.0
  Ni  Ni374  1  0.38331091  0.66666667  0.83751682  1.0
  Ni  Ni375  1  0.71664424  0.00000000  0.83751682  1.0
  Ni  Ni376  1  0.71664424  0.33333333  0.83751682  1.0
  Ni  Ni377  1  0.71664424  0.66666667  0.83751682  1.0
  Ni  Ni378  1  0.01664424  0.00000000  0.73751682  1.0
  Ni  Ni379  1  0.01664424  0.33333333  0.73751682  1.0
  Ni  Ni380  1  0.01664424  0.66666667  0.73751682  1.0
  Ni  Ni381  1  0.34997758  0.00000000  0.73751682  1.0
  Ni  Ni382  1  0.34997758  0.33333333  0.73751682  1.0
  Ni  Ni383  1  0.34997758  0.66666667  0.73751682  1.0
  Ni  Ni384  1  0.68331091  0.00000000  0.73751682  1.0
  Ni  Ni385  1  0.68331091  0.33333333  0.73751682  1.0
  Ni  Ni386  1  0.68331091  0.66666667  0.73751682  1.0
  Ni  Ni387  1  0.13886647  0.00000000  0.77085015  1.0
  Ni  Ni388  1  0.13886647  0.33333333  0.77085015  1.0
  Ni  Ni389  1  0.13886647  0.66666667  0.77085015  1.0
  Ni  Ni390  1  0.47219980  0.00000000  0.77085015  1.0
  Ni  Ni391  1  0.47219980  0.33333333  0.77085015  1.0
  Ni  Ni392  1  0.47219980  0.66666667  0.77085015  1.0
  Ni  Ni393  1  0.80553313  0.00000000  0.77085015  1.0
  Ni  Ni394  1  0.80553313  0.33333333  0.77085015  1.0
  Ni  Ni395  1  0.80553313  0.66666667  0.77085015  1.0
  Ni  Ni396  1  0.10553313  0.00000000  0.67085015  1.0
  Ni  Ni397  1  0.10553313  0.33333333  0.67085015  1.0
  Ni  Ni398  1  0.10553313  0.66666667  0.67085015  1.0
  Ni  Ni399  1  0.43886647  0.00000000  0.67085015  1.0
  Ni  Ni400  1  0.43886647  0.33333333  0.67085015  1.0
  Ni  Ni401  1  0.43886647  0.66666667  0.67085015  1.0
  Ni  Ni402  1  0.77219980  0.00000000  0.67085015  1.0
  Ni  Ni403  1  0.77219980  0.33333333  0.67085015  1.0
  Ni  Ni404  1  0.77219980  0.66666667  0.67085015  1.0
  Ni  Ni405  1  0.22775536  0.00000000  0.70418348  1.0
  Ni  Ni406  1  0.22775536  0.33333333  0.70418348  1.0
  Ni  Ni407  1  0.22775536  0.66666667  0.70418348  1.0
  Ni  Ni408  1  0.56108869  0.00000000  0.70418348  1.0
  Ni  Ni409  1  0.56108869  0.33333333  0.70418348  1.0
  Ni  Ni410  1  0.56108869  0.66666667  0.70418348  1.0
  Ni  Ni411  1  0.89442202  0.00000000  0.70418348  1.0
  Ni  Ni412  1  0.89442202  0.33333333  0.70418348  1.0
  Ni  Ni413  1  0.89442202  0.66666667  0.70418348  1.0
  Ni  Ni414  1  0.19442202  0.00000000  0.60418348  1.0
  Ni  Ni415  1  0.19442202  0.33333333  0.60418348  1.0
  Ni  Ni416  1  0.19442202  0.66666667  0.60418348  1.0
  Ni  Ni417  1  0.52775536  0.00000000  0.60418348  1.0
  Ni  Ni418  1  0.52775536  0.33333333  0.60418348  1.0
  Ni  Ni419  1  0.52775536  0.66666667  0.60418348  1.0
  Ni  Ni420  1  0.86108869  0.00000000  0.60418348  1.0
  Ni  Ni421  1  0.86108869  0.33333333  0.60418348  1.0
  Ni  Ni422  1  0.86108869  0.66666667  0.60418348  1.0
  Ni  Ni423  1  0.31664424  0.00000000  0.63751682  1.0
  Ni  Ni424  1  0.31664424  0.33333333  0.63751682  1.0
  Ni  Ni425  1  0.31664424  0.66666667  0.63751682  1.0
  Ni  Ni426  1  0.64997758  0.00000000  0.63751682  1.0
  Ni  Ni427  1  0.64997758  0.33333333  0.63751682  1.0
  Ni  Ni428  1  0.64997758  0.66666667  0.63751682  1.0
  Ni  Ni429  1  0.98331091  0.00000000  0.63751682  1.0
  Ni  Ni430  1  0.98331091  0.33333333  0.63751682  1.0
  Ni  Ni431  1  0.98331091  0.66666667  0.63751682  1.0
