# generated using pymatgen
data_Fe3Ni
_symmetry_space_group_name_H-M   'P 1'
_cell_length_a   15.20830557
_cell_length_b   18.62629425
_cell_length_c   29.34147748
_cell_angle_alpha   94.04469124
_cell_angle_beta   90.00000000
_cell_angle_gamma   90.00000000
_symmetry_Int_Tables_number   1
_chemical_formula_structural   Fe3Ni
_chemical_formula_sum   'Fe216 Ni72'
_cell_volume   8290.98706051
_cell_formula_units_Z   72
loop_
 _symmetry_equiv_pos_site_id
 _symmetry_equiv_pos_as_xyz
  1  'x, y, z'
loop_
 _atom_site_type_symbol
 _atom_site_label
 _atom_site_symmetry_multiplicity
 _atom_site_fract_x
 _atom_site_fract_y
 _atom_site_fract_z
 _atom_site_occupancy
  Fe  Fe0  1  0.00000000  0.20416667  0.96250000  1.0
  Fe  Fe1  1  0.00000000  0.53750000  0.96250000  1.0
  Fe  Fe2  1  0.00000000  0.87083333  0.96250000  1.0
  Fe  Fe3  1  0.33333333  0.20416667  0.96250000  1.0
  Fe  Fe4  1  0.33333333  0.53750000  0.96250000  1.0
  Fe  Fe5  1  0.33333333  0.87083333  0.96250000  1.0
  Fe  Fe6  1  0.66666667  0.20416667  0.96250000  1.0
  Fe  Fe7  1  0.66666667  0.53750000  0.96250000  1.0
  Fe  Fe8  1  0.66666667  0.87083333  0.96250000  1.0
  Fe  Fe9  1  0.16666667  0.08750000  0.91250000  1.0
  Fe  Fe10  1  0.16666667  0.42083333  0.91250000  1.0
  Fe  Fe11  1  0.16666667  0.75416667  0.91250000  1.0
  Fe  Fe12  1  0.50000000  0.08750000  0.91250000  1.0
  Fe  Fe13  1  0.50000000  0.42083333  0.91250000  1.0
  Fe  Fe14  1  0.50000000  0.75416667  0.91250000  1.0
  Fe  Fe15  1  0.83333333  0.08750000  0.91250000  1.0
  Fe  Fe16  1  0.83333333  0.42083333  0.91250000  1.0
  Fe  Fe17  1  0.83333333  0.75416667  0.91250000  1.0
  Fe  Fe18  1  0.08333333  0.31250000  0.93750000  1.0
  Fe  Fe19  1  0.08333333  0.64583333  0.93750000  1.0
  Fe  Fe20  1  0.08333333  0.97916667  0.93750000  1.0
  Fe  Fe21  1  0.41666667  0.31250000  0.93750000  1.0
  Fe  Fe22  1  0.41666667  0.64583333  0.93750000  1.0
  Fe  Fe23  1  0.41666667  0.97916667  0.93750000  1.0
  Fe  Fe24  1  0.75000000  0.31250000  0.93750000  1.0
  Fe  Fe25  1  0.75000000  0.64583333  0.93750000  1.0
  Fe  Fe26  1  0.75000000  0.97916667  0.93750000  1.0
  Fe  Fe27  1  0.25000000  0.09583333  0.98750000  1.0
  Fe  Fe28  1  0.25000000  0.42916667  0.98750000  1.0
  Fe  Fe29  1  0.25000000  0.76250000  0.98750000  1.0
  Fe  Fe30  1  0.58333333  0.09583333  0.98750000  1.0
  Fe  Fe31  1  0.58333333  0.42916667  0.98750000  1.0
  Fe  Fe32  1  0.58333333  0.76250000  0.98750000  1.0
  Fe  Fe33  1  0.91666667  0.09583333  0.98750000  1.0
  Fe  Fe34  1  0.91666667  0.42916667  0.98750000  1.0
  Fe  Fe35  1  0.91666667  0.76250000  0.98750000  1.0
  Fe  Fe36  1  0.25000000  0.31250000  0.93750000  1.0
  Fe  Fe37  1  0.25000000  0.64583333  0.93750000  1.0
  Fe  Fe38  1  0.25000000  0.97916667  0.93750000  1.0
  Fe  Fe39  1  0.58333333  0.31250000  0.93750000  1.0
  Fe  Fe40  1  0.58333333  0.64583333  0.93750000  1.0
  Fe  Fe41  1  0.58333333  0.97916667  0.93750000  1.0
  Fe  Fe42  1  0.91666667  0.31250000  0.93750000  1.0
  Fe  Fe43  1  0.91666667  0.64583333  0.93750000  1.0
  Fe  Fe44  1  0.91666667  0.97916667  0.93750000  1.0
  Fe  Fe45  1  0.08333333  0.09583333  0.98750000  1.0
  Fe  Fe46  1  0.08333333  0.42916667  0.98750000  1.0
  Fe  Fe47  1  0.08333333  0.76250000  0.98750000  1.0
  Fe  Fe48  1  0.41666667  0.09583333  0.98750000  1.0
  Fe  Fe49  1  0.41666667  0.42916667  0.98750000  1.0
  Fe  Fe50  1  0.41666667  0.76250000  0.98750000  1.0
  Fe  Fe51  1  0.75000000  0.09583333  0.98750000  1.0
  Fe  Fe52  1  0.75000000  0.42916667  0.98750000  1.0
  Fe  Fe53  1  0.75000000  0.76250000  0.98750000  1.0
  Fe  Fe54  1  0.00000000  0.30416667  0.86250000  1.0
  Fe  Fe55  1  0.00000000  0.63750000  0.86250000  1.0
  Fe  Fe56  1  0.00000000  0.97083333  0.86250000  1.0
  Fe  Fe57  1  0.33333333  0.30416667  0.86250000  1.0
  Fe  Fe58  1  0.33333333  0.63750000  0.86250000  1.0
  Fe  Fe59  1  0.33333333  0.97083333  0.86250000  1.0
  Fe  Fe60  1  0.66666667  0.30416667  0.86250000  1.0
  Fe  Fe61  1  0.66666667  0.63750000  0.86250000  1.0
  Fe  Fe62  1  0.66666667  0.97083333  0.86250000  1.0
  Fe  Fe63  1  0.16666667  0.18750000  0.81250000  1.0
  Fe  Fe64  1  0.16666667  0.52083333  0.81250000  1.0
  Fe  Fe65  1  0.16666667  0.85416667  0.81250000  1.0
  Fe  Fe66  1  0.50000000  0.18750000  0.81250000  1.0
  Fe  Fe67  1  0.50000000  0.52083333  0.81250000  1.0
  Fe  Fe68  1  0.50000000  0.85416667  0.81250000  1.0
  Fe  Fe69  1  0.83333333  0.18750000  0.81250000  1.0
  Fe  Fe70  1  0.83333333  0.52083333  0.81250000  1.0
  Fe  Fe71  1  0.83333333  0.85416667  0.81250000  1.0
  Fe  Fe72  1  0.08333333  0.07916667  0.83750000  1.0
  Fe  Fe73  1  0.08333333  0.41250000  0.83750000  1.0
  Fe  Fe74  1  0.08333333  0.74583333  0.83750000  1.0
  Fe  Fe75  1  0.41666667  0.07916667  0.83750000  1.0
  Fe  Fe76  1  0.41666667  0.41250000  0.83750000  1.0
  Fe  Fe77  1  0.41666667  0.74583333  0.83750000  1.0
  Fe  Fe78  1  0.75000000  0.07916667  0.83750000  1.0
  Fe  Fe79  1  0.75000000  0.41250000  0.83750000  1.0
  Fe  Fe80  1  0.75000000  0.74583333  0.83750000  1.0
  Fe  Fe81  1  0.25000000  0.19583333  0.88750000  1.0
  Fe  Fe82  1  0.25000000  0.52916667  0.88750000  1.0
  Fe  Fe83  1  0.25000000  0.86250000  0.88750000  1.0
  Fe  Fe84  1  0.58333333  0.19583333  0.88750000  1.0
  Fe  Fe85  1  0.58333333  0.52916667  0.88750000  1.0
  Fe  Fe86  1  0.58333333  0.86250000  0.88750000  1.0
  Fe  Fe87  1  0.91666667  0.19583333  0.88750000  1.0
  Fe  Fe88  1  0.91666667  0.52916667  0.88750000  1.0
  Fe  Fe89  1  0.91666667  0.86250000  0.88750000  1.0
  Fe  Fe90  1  0.25000000  0.07916667  0.83750000  1.0
  Fe  Fe91  1  0.25000000  0.41250000  0.83750000  1.0
  Fe  Fe92  1  0.25000000  0.74583333  0.83750000  1.0
  Fe  Fe93  1  0.58333333  0.07916667  0.83750000  1.0
  Fe  Fe94  1  0.58333333  0.41250000  0.83750000  1.0
  Fe  Fe95  1  0.58333333  0.74583333  0.83750000  1.0
  Fe  Fe96  1  0.91666667  0.07916667  0.83750000  1.0
  Fe  Fe97  1  0.91666667  0.41250000  0.83750000  1.0
  Fe  Fe98  1  0.91666667  0.74583333  0.83750000  1.0
  Fe  Fe99  1  0.08333333  0.19583333  0.88750000  1.0
  Fe  Fe100  1  0.08333333  0.52916667  0.88750000  1.0
  Fe  Fe101  1  0.08333333  0.86250000  0.88750000  1.0
  Fe  Fe102  1  0.41666667  0.19583333  0.88750000  1.0
  Fe  Fe103  1  0.41666667  0.52916667  0.88750000  1.0
  Fe  Fe104  1  0.41666667  0.86250000  0.88750000  1.0
  Fe  Fe105  1  0.75000000  0.19583333  0.88750000  1.0
  Fe  Fe106  1  0.75000000  0.52916667  0.88750000  1.0
  Fe  Fe107  1  0.75000000  0.86250000  0.88750000  1.0
  Fe  Fe108  1  0.00000000  0.07083333  0.76250000  1.0
  Fe  Fe109  1  0.00000000  0.40416667  0.76250000  1.0
  Fe  Fe110  1  0.00000000  0.73750000  0.76250000  1.0
  Fe  Fe111  1  0.33333333  0.07083333  0.76250000  1.0
  Fe  Fe112  1  0.33333333  0.40416667  0.76250000  1.0
  Fe  Fe113  1  0.33333333  0.73750000  0.76250000  1.0
  Fe  Fe114  1  0.66666667  0.07083333  0.76250000  1.0
  Fe  Fe115  1  0.66666667  0.40416667  0.76250000  1.0
  Fe  Fe116  1  0.66666667  0.73750000  0.76250000  1.0
  Fe  Fe117  1  0.16666667  0.28750000  0.71250000  1.0
  Fe  Fe118  1  0.16666667  0.62083333  0.71250000  1.0
  Fe  Fe119  1  0.16666667  0.95416667  0.71250000  1.0
  Fe  Fe120  1  0.50000000  0.28750000  0.71250000  1.0
  Fe  Fe121  1  0.50000000  0.62083333  0.71250000  1.0
  Fe  Fe122  1  0.50000000  0.95416667  0.71250000  1.0
  Fe  Fe123  1  0.83333333  0.28750000  0.71250000  1.0
  Fe  Fe124  1  0.83333333  0.62083333  0.71250000  1.0
  Fe  Fe125  1  0.83333333  0.95416667  0.71250000  1.0
  Fe  Fe126  1  0.08333333  0.17916667  0.73750000  1.0
  Fe  Fe127  1  0.08333333  0.51250000  0.73750000  1.0
  Fe  Fe128  1  0.08333333  0.84583333  0.73750000  1.0
  Fe  Fe129  1  0.41666667  0.17916667  0.73750000  1.0
  Fe  Fe130  1  0.41666667  0.51250000  0.73750000  1.0
  Fe  Fe131  1  0.41666667  0.84583333  0.73750000  1.0
  Fe  Fe132  1  0.75000000  0.17916667  0.73750000  1.0
  Fe  Fe133  1  0.75000000  0.51250000  0.73750000  1.0
  Fe  Fe134  1  0.75000000  0.84583333  0.73750000  1.0
  Fe  Fe135  1  0.25000000  0.29583333  0.78750000  1.0
  Fe  Fe136  1  0.25000000  0.62916667  0.78750000  1.0
  Fe  Fe137  1  0.25000000  0.96250000  0.78750000  1.0
  Fe  Fe138  1  0.58333333  0.29583333  0.78750000  1.0
  Fe  Fe139  1  0.58333333  0.62916667  0.78750000  1.0
  Fe  Fe140  1  0.58333333  0.96250000  0.78750000  1.0
  Fe  Fe141  1  0.91666667  0.29583333  0.78750000  1.0
  Fe  Fe142  1  0.91666667  0.62916667  0.78750000  1.0
  Fe  Fe143  1  0.91666667  0.96250000  0.78750000  1.0
  Fe  Fe144  1  0.25000000  0.17916667  0.73750000  1.0
  Fe  Fe145  1  0.25000000  0.51250000  0.73750000  1.0
  Fe  Fe146  1  0.25000000  0.84583333  0.73750000  1.0
  Fe  Fe147  1  0.58333333  0.17916667  0.73750000  1.0
  Fe  Fe148  1  0.58333333  0.51250000  0.73750000  1.0
  Fe  Fe149  1  0.58333333  0.84583333  0.73750000  1.0
  Fe  Fe150  1  0.91666667  0.17916667  0.73750000  1.0
  Fe  Fe151  1  0.91666667  0.51250000  0.73750000  1.0
  Fe  Fe152  1  0.91666667  0.84583333  0.73750000  1.0
  Fe  Fe153  1  0.08333333  0.29583333  0.78750000  1.0
  Fe  Fe154  1  0.08333333  0.62916667  0.78750000  1.0
  Fe  Fe155  1  0.08333333  0.96250000  0.78750000  1.0
  Fe  Fe156  1  0.41666667  0.29583333  0.78750000  1.0
  Fe  Fe157  1  0.41666667  0.62916667  0.78750000  1.0
  Fe  Fe158  1  0.41666667  0.96250000  0.78750000  1.0
  Fe  Fe159  1  0.75000000  0.29583333  0.78750000  1.0
  Fe  Fe160  1  0.75000000  0.62916667  0.78750000  1.0
  Fe  Fe161  1  0.75000000  0.96250000  0.78750000  1.0
  Fe  Fe162  1  0.00000000  0.17083333  0.66250000  1.0
  Fe  Fe163  1  0.00000000  0.50416667  0.66250000  1.0
  Fe  Fe164  1  0.00000000  0.83750000  0.66250000  1.0
  Fe  Fe165  1  0.33333333  0.17083333  0.66250000  1.0
  Fe  Fe166  1  0.33333333  0.50416667  0.66250000  1.0
  Fe  Fe167  1  0.33333333  0.83750000  0.66250000  1.0
  Fe  Fe168  1  0.66666667  0.17083333  0.66250000  1.0
  Fe  Fe169  1  0.66666667  0.50416667  0.66250000  1.0
  Fe  Fe170  1  0.66666667  0.83750000  0.66250000  1.0
  Fe  Fe171  1  0.16666667  0.05416667  0.61250000  1.0
  Fe  Fe172  1  0.16666667  0.38750000  0.61250000  1.0
  Fe  Fe173  1  0.16666667  0.72083333  0.61250000  1.0
  Fe  Fe174  1  0.50000000  0.05416667  0.61250000  1.0
  Fe  Fe175  1  0.50000000  0.38750000  0.61250000  1.0
  Fe  Fe176  1  0.50000000  0.72083333  0.61250000  1.0
  Fe  Fe177  1  0.83333333  0.05416667  0.61250000  1.0
  Fe  Fe178  1  0.83333333  0.38750000  0.61250000  1.0
  Fe  Fe179  1  0.83333333  0.72083333  0.61250000  1.0
  Fe  Fe180  1  0.08333333  0.27916667  0.63750000  1.0
  Fe  Fe181  1  0.08333333  0.61250000  0.63750000  1.0
  Fe  Fe182  1  0.08333333  0.94583333  0.63750000  1.0
  Fe  Fe183  1  0.41666667  0.27916667  0.63750000  1.0
  Fe  Fe184  1  0.41666667  0.61250000  0.63750000  1.0
  Fe  Fe185  1  0.41666667  0.94583333  0.63750000  1.0
  Fe  Fe186  1  0.75000000  0.27916667  0.63750000  1.0
  Fe  Fe187  1  0.75000000  0.61250000  0.63750000  1.0
  Fe  Fe188  1  0.75000000  0.94583333  0.63750000  1.0
  Fe  Fe189  1  0.25000000  0.06250000  0.68750000  1.0
  Fe  Fe190  1  0.25000000  0.39583333  0.68750000  1.0
  Fe  Fe191  1  0.25000000  0.72916667  0.68750000  1.0
  Fe  Fe192  1  0.58333333  0.06250000  0.68750000  1.0
  Fe  Fe193  1  0.58333333  0.39583333  0.68750000  1.0
  Fe  Fe194  1  0.58333333  0.72916667  0.68750000  1.0
  Fe  Fe195  1  0.91666667  0.06250000  0.68750000  1.0
  Fe  Fe196  1  0.91666667  0.39583333  0.68750000  1.0
  Fe  Fe197  1  0.91666667  0.72916667  0.68750000  1.0
  Fe  Fe198  1  0.25000000  0.27916667  0.63750000  1.0
  Fe  Fe199  1  0.25000000  0.61250000  0.63750000  1.0
  Fe  Fe200  1  0.25000000  0.94583333  0.63750000  1.0
  Fe  Fe201  1  0.58333333  0.27916667  0.63750000  1.0
  Fe  Fe202  1  0.58333333  0.61250000  0.63750000  1.0
  Fe  Fe203  1  0.58333333  0.94583333  0.63750000  1.0
  Fe  Fe204  1  0.91666667  0.27916667  0.63750000  1.0
  Fe  Fe205  1  0.91666667  0.61250000  0.63750000  1.0
  Fe  Fe206  1  0.91666667  0.94583333  0.63750000  1.0
  Fe  Fe207  1  0.08333333  0.06250000  0.68750000  1.0
  Fe  Fe208  1  0.08333333  0.39583333  0.68750000  1.0
  Fe  Fe209  1  0.08333333  0.72916667  0.68750000  1.0
  Fe  Fe210  1  0.41666667  0.06250000  0.68750000  1.0
  Fe  Fe211  1  0.41666667  0.39583333  0.68750000  1.0
  Fe  Fe212  1  0.41666667  0.72916667  0.68750000  1.0
  Fe  Fe213  1  0.75000000  0.06250000  0.68750000  1.0
  Fe  Fe214  1  0.75000000  0.39583333  0.68750000  1.0
  Fe  Fe215  1  0.75000000  0.72916667  0.68750000  1.0
  Ni  Ni216  1  0.00000000  0.08750000  0.91250000  1.0
  Ni  Ni217  1  0.00000000  0.42083333  0.91250000  1.0
  Ni  Ni218  1  0.00000000  0.75416667  0.91250000  1.0
  Ni  Ni219  1  0.33333333  0.08750000  0.91250000  1.0
  Ni  Ni220  1  0.33333333  0.42083333  0.91250000  1.0
  Ni  Ni221  1  0.33333333  0.75416667  0.91250000  1.0
  Ni  Ni222  1  0.66666667  0.08750000  0.91250000  1.0
  Ni  Ni223  1  0.66666667  0.42083333  0.91250000  1.0
  Ni  Ni224  1  0.66666667  0.75416667  0.91250000  1.0
  Ni  Ni225  1  0.16666667  0.20416667  0.96250000  1.0
  Ni  Ni226  1  0.16666667  0.53750000  0.96250000  1.0
  Ni  Ni227  1  0.16666667  0.87083333  0.96250000  1.0
  Ni  Ni228  1  0.50000000  0.20416667  0.96250000  1.0
  Ni  Ni229  1  0.50000000  0.53750000  0.96250000  1.0
  Ni  Ni230  1  0.50000000  0.87083333  0.96250000  1.0
  Ni  Ni231  1  0.83333333  0.20416667  0.96250000  1.0
  Ni  Ni232  1  0.83333333  0.53750000  0.96250000  1.0
  Ni  Ni233  1  0.83333333  0.87083333  0.96250000  1.0
  Ni  Ni234  1  0.00000000  0.18750000  0.81250000  1.0
  Ni  Ni235  1  0.00000000  0.52083333  0.81250000  1.0
  Ni  Ni236  1  0.00000000  0.85416667  0.81250000  1.0
  Ni  Ni237  1  0.33333333  0.18750000  0.81250000  1.0
  Ni  Ni238  1  0.33333333  0.52083333  0.81250000  1.0
  Ni  Ni239  1  0.33333333  0.85416667  0.81250000  1.0
  Ni  Ni240  1  0.66666667  0.18750000  0.81250000  1.0
  Ni  Ni241  1  0.66666667  0.52083333  0.81250000  1.0
  Ni  Ni242  1  0.66666667  0.85416667  0.81250000  1.0
  Ni  Ni243  1  0.16666667  0.30416667  0.86250000  1.0
  Ni  Ni244  1  0.16666667  0.63750000  0.86250000  1.0
  Ni  Ni245  1  0.16666667  0.97083333  0.86250000  1.0
  Ni  Ni246  1  0.50000000  0.30416667  0.86250000  1.0
  Ni  Ni247  1  0.50000000  0.63750000  0.86250000  1.0
  Ni  Ni248  1  0.50000000  0.97083333  0.86250000  1.0
  Ni  Ni249  1  0.83333333  0.30416667  0.86250000  1.0
  Ni  Ni250  1  0.83333333  0.63750000  0.86250000  1.0
  Ni  Ni251  1  0.83333333  0.97083333  0.86250000  1.0
  Ni  Ni252  1  0.00000000  0.28750000  0.71250000  1.0
  Ni  Ni253  1  0.00000000  0.62083333  0.71250000  1.0
  Ni  Ni254  1  0.00000000  0.95416667  0.71250000  1.0
  Ni  Ni255  1  0.33333333  0.28750000  0.71250000  1.0
  Ni  Ni256  1  0.33333333  0.62083333  0.71250000  1.0
  Ni  Ni257  1  0.33333333  0.95416667  0.71250000  1.0
  Ni  Ni258  1  0.66666667  0.28750000  0.71250000  1.0
  Ni  Ni259  1  0.66666667  0.62083333  0.71250000  1.0
  Ni  Ni260  1  0.66666667  0.95416667  0.71250000  1.0
  Ni  Ni261  1  0.16666667  0.07083333  0.76250000  1.0
  Ni  Ni262  1  0.16666667  0.40416667  0.76250000  1.0
  Ni  Ni263  1  0.16666667  0.73750000  0.76250000  1.0
  Ni  Ni264  1  0.50000000  0.07083333  0.76250000  1.0
  Ni  Ni265  1  0.50000000  0.40416667  0.76250000  1.0
  Ni  Ni266  1  0.50000000  0.73750000  0.76250000  1.0
  Ni  Ni267  1  0.83333333  0.07083333  0.76250000  1.0
  Ni  Ni268  1  0.83333333  0.40416667  0.76250000  1.0
  Ni  Ni269  1  0.83333333  0.73750000  0.76250000  1.0
  Ni  Ni270  1  0.00000000  0.05416667  0.61250000  1.0
  Ni  Ni271  1  0.00000000  0.38750000  0.61250000  1.0
  Ni  Ni272  1  0.00000000  0.72083333  0.61250000  1.0
  Ni  Ni273  1  0.33333333  0.05416667  0.61250000  1.0
  Ni  Ni274  1  0.33333333  0.38750000  0.61250000  1.0
  Ni  Ni275  1  0.33333333  0.72083333  0.61250000  1.0
  Ni  Ni276  1  0.66666667  0.05416667  0.61250000  1.0
  Ni  Ni277  1  0.66666667  0.38750000  0.61250000  1.0
  Ni  Ni278  1  0.66666667  0.72083333  0.61250000  1.0
  Ni  Ni279  1  0.16666667  0.17083333  0.66250000  1.0
  Ni  Ni280  1  0.16666667  0.50416667  0.66250000  1.0
  Ni  Ni281  1  0.16666667  0.83750000  0.66250000  1.0
  Ni  Ni282  1  0.50000000  0.17083333  0.66250000  1.0
  Ni  Ni283  1  0.50000000  0.50416667  0.66250000  1.0
  Ni  Ni284  1  0.50000000  0.83750000  0.66250000  1.0
  Ni  Ni285  1  0.83333333  0.17083333  0.66250000  1.0
  Ni  Ni286  1  0.83333333  0.50416667  0.66250000  1.0
  Ni  Ni287  1  0.83333333  0.83750000  0.66250000  1.0
