# generated using pymatgen
data_Fe3Ni
_symmetry_space_group_name_H-M   'P 1'
_cell_length_a   14.96554168
_cell_length_b   24.75912704
_cell_length_c   98.72789146
_cell_angle_alpha   125.70253175
_cell_angle_beta   56.23368330
_cell_angle_gamma   72.40884585
_symmetry_Int_Tables_number   1
_chemical_formula_structural   Fe3Ni
_chemical_formula_sum   'Fe243 Ni81'
_cell_volume   9190.90896726
_cell_formula_units_Z   81
loop_
 _symmetry_equiv_pos_site_id
 _symmetry_equiv_pos_as_xyz
  1  'x, y, z'
loop_
 _atom_site_type_symbol
 _atom_site_label
 _atom_site_symmetry_multiplicity
 _atom_site_fract_x
 _atom_site_fract_y
 _atom_site_fract_z
 _atom_site_occupancy
  Fe  Fe0  1  0.16666667  0.00000000  0.03409091  1.0
  Fe  Fe1  1  0.16666667  0.33333333  0.03409091  1.0
  Fe  Fe2  1  0.16666667  0.66666667  0.03409091  1.0
  Fe  Fe3  1  0.50000000  0.00000000  0.03409091  1.0
  Fe  Fe4  1  0.50000000  0.33333333  0.03409091  1.0
  Fe  Fe5  1  0.50000000  0.66666667  0.03409091  1.0
  Fe  Fe6  1  0.83333333  0.00000000  0.03409091  1.0
  Fe  Fe7  1  0.83333333  0.33333333  0.03409091  1.0
  Fe  Fe8  1  0.83333333  0.66666667  0.03409091  1.0
  Fe  Fe9  1  0.25000000  0.16666667  0.01136364  1.0
  Fe  Fe10  1  0.25000000  0.50000000  0.01136364  1.0
  Fe  Fe11  1  0.25000000  0.83333333  0.01136364  1.0
  Fe  Fe12  1  0.58333333  0.16666667  0.01136364  1.0
  Fe  Fe13  1  0.58333333  0.50000000  0.01136364  1.0
  Fe  Fe14  1  0.58333333  0.83333333  0.01136364  1.0
  Fe  Fe15  1  0.91666667  0.16666667  0.01136364  1.0
  Fe  Fe16  1  0.91666667  0.50000000  0.01136364  1.0
  Fe  Fe17  1  0.91666667  0.83333333  0.01136364  1.0
  Fe  Fe18  1  0.08333333  0.16666667  0.01136364  1.0
  Fe  Fe19  1  0.08333333  0.50000000  0.01136364  1.0
  Fe  Fe20  1  0.08333333  0.83333333  0.01136364  1.0
  Fe  Fe21  1  0.41666667  0.16666667  0.01136364  1.0
  Fe  Fe22  1  0.41666667  0.50000000  0.01136364  1.0
  Fe  Fe23  1  0.41666667  0.83333333  0.01136364  1.0
  Fe  Fe24  1  0.75000000  0.16666667  0.01136364  1.0
  Fe  Fe25  1  0.75000000  0.50000000  0.01136364  1.0
  Fe  Fe26  1  0.75000000  0.83333333  0.01136364  1.0
  Ni  Ni27  1  0.00000000  0.00000000  0.03409091  1.0
  Ni  Ni28  1  1.00000000  0.33333333  0.03409091  1.0
  Ni  Ni29  1  1.00000000  0.66666667  0.03409091  1.0
  Ni  Ni30  1  0.33333333  0.00000000  0.03409091  1.0
  Ni  Ni31  1  0.33333333  0.33333333  0.03409091  1.0
  Ni  Ni32  1  0.33333333  0.66666667  0.03409091  1.0
  Ni  Ni33  1  0.66666667  0.00000000  0.03409091  1.0
  Ni  Ni34  1  0.66666667  0.33333333  0.03409091  1.0
  Ni  Ni35  1  0.66666667  0.66666667  0.03409091  1.0
  Fe  Fe36  1  0.16666667  0.00000000  0.07954545  1.0
  Fe  Fe37  1  0.16666667  0.33333333  0.07954545  1.0
  Fe  Fe38  1  0.16666667  0.66666667  0.07954545  1.0
  Fe  Fe39  1  0.50000000  0.00000000  0.07954545  1.0
  Fe  Fe40  1  0.50000000  0.33333333  0.07954545  1.0
  Fe  Fe41  1  0.50000000  0.66666667  0.07954545  1.0
  Fe  Fe42  1  0.83333333  0.00000000  0.07954545  1.0
  Fe  Fe43  1  0.83333333  0.33333333  0.07954545  1.0
  Fe  Fe44  1  0.83333333  0.66666667  0.07954545  1.0
  Fe  Fe45  1  0.25000000  0.16666667  0.05681818  1.0
  Fe  Fe46  1  0.25000000  0.50000000  0.05681818  1.0
  Fe  Fe47  1  0.25000000  0.83333333  0.05681818  1.0
  Fe  Fe48  1  0.58333333  0.16666667  0.05681818  1.0
  Fe  Fe49  1  0.58333333  0.50000000  0.05681818  1.0
  Fe  Fe50  1  0.58333333  0.83333333  0.05681818  1.0
  Fe  Fe51  1  0.91666667  0.16666667  0.05681818  1.0
  Fe  Fe52  1  0.91666667  0.50000000  0.05681818  1.0
  Fe  Fe53  1  0.91666667  0.83333333  0.05681818  1.0
  Fe  Fe54  1  0.08333333  0.16666667  0.05681818  1.0
  Fe  Fe55  1  0.08333333  0.50000000  0.05681818  1.0
  Fe  Fe56  1  0.08333333  0.83333333  0.05681818  1.0
  Fe  Fe57  1  0.41666667  0.16666667  0.05681818  1.0
  Fe  Fe58  1  0.41666667  0.50000000  0.05681818  1.0
  Fe  Fe59  1  0.41666667  0.83333333  0.05681818  1.0
  Fe  Fe60  1  0.75000000  0.16666667  0.05681818  1.0
  Fe  Fe61  1  0.75000000  0.50000000  0.05681818  1.0
  Fe  Fe62  1  0.75000000  0.83333333  0.05681818  1.0
  Ni  Ni63  1  0.00000000  0.00000000  0.07954545  1.0
  Ni  Ni64  1  1.00000000  0.33333333  0.07954545  1.0
  Ni  Ni65  1  1.00000000  0.66666667  0.07954545  1.0
  Ni  Ni66  1  0.33333333  0.00000000  0.07954545  1.0
  Ni  Ni67  1  0.33333333  0.33333333  0.07954545  1.0
  Ni  Ni68  1  0.33333333  0.66666667  0.07954545  1.0
  Ni  Ni69  1  0.66666667  0.00000000  0.07954545  1.0
  Ni  Ni70  1  0.66666667  0.33333333  0.07954545  1.0
  Ni  Ni71  1  0.66666667  0.66666667  0.07954545  1.0
  Fe  Fe72  1  0.16666667  0.00000000  0.12500000  1.0
  Fe  Fe73  1  0.16666667  0.33333333  0.12500000  1.0
  Fe  Fe74  1  0.16666667  0.66666667  0.12500000  1.0
  Fe  Fe75  1  0.50000000  0.00000000  0.12500000  1.0
  Fe  Fe76  1  0.50000000  0.33333333  0.12500000  1.0
  Fe  Fe77  1  0.50000000  0.66666667  0.12500000  1.0
  Fe  Fe78  1  0.83333333  0.00000000  0.12500000  1.0
  Fe  Fe79  1  0.83333333  0.33333333  0.12500000  1.0
  Fe  Fe80  1  0.83333333  0.66666667  0.12500000  1.0
  Fe  Fe81  1  0.25000000  0.16666667  0.10227273  1.0
  Fe  Fe82  1  0.25000000  0.50000000  0.10227273  1.0
  Fe  Fe83  1  0.25000000  0.83333333  0.10227273  1.0
  Fe  Fe84  1  0.58333333  0.16666667  0.10227273  1.0
  Fe  Fe85  1  0.58333333  0.50000000  0.10227273  1.0
  Fe  Fe86  1  0.58333333  0.83333333  0.10227273  1.0
  Fe  Fe87  1  0.91666667  0.16666667  0.10227273  1.0
  Fe  Fe88  1  0.91666667  0.50000000  0.10227273  1.0
  Fe  Fe89  1  0.91666667  0.83333333  0.10227273  1.0
  Fe  Fe90  1  0.08333333  0.16666667  0.10227273  1.0
  Fe  Fe91  1  0.08333333  0.50000000  0.10227273  1.0
  Fe  Fe92  1  0.08333333  0.83333333  0.10227273  1.0
  Fe  Fe93  1  0.41666667  0.16666667  0.10227273  1.0
  Fe  Fe94  1  0.41666667  0.50000000  0.10227273  1.0
  Fe  Fe95  1  0.41666667  0.83333333  0.10227273  1.0
  Fe  Fe96  1  0.75000000  0.16666667  0.10227273  1.0
  Fe  Fe97  1  0.75000000  0.50000000  0.10227273  1.0
  Fe  Fe98  1  0.75000000  0.83333333  0.10227273  1.0
  Ni  Ni99  1  0.00000000  0.00000000  0.12500000  1.0
  Ni  Ni100  1  1.00000000  0.33333333  0.12500000  1.0
  Ni  Ni101  1  1.00000000  0.66666667  0.12500000  1.0
  Ni  Ni102  1  0.33333333  0.00000000  0.12500000  1.0
  Ni  Ni103  1  0.33333333  0.33333333  0.12500000  1.0
  Ni  Ni104  1  0.33333333  0.66666667  0.12500000  1.0
  Ni  Ni105  1  0.66666667  0.00000000  0.12500000  1.0
  Ni  Ni106  1  0.66666667  0.33333333  0.12500000  1.0
  Ni  Ni107  1  0.66666667  0.66666667  0.12500000  1.0
  Fe  Fe108  1  0.16666667  0.00000000  0.17045455  1.0
  Fe  Fe109  1  0.16666667  0.33333333  0.17045455  1.0
  Fe  Fe110  1  0.16666667  0.66666667  0.17045455  1.0
  Fe  Fe111  1  0.50000000  0.00000000  0.17045455  1.0
  Fe  Fe112  1  0.50000000  0.33333333  0.17045455  1.0
  Fe  Fe113  1  0.50000000  0.66666667  0.17045455  1.0
  Fe  Fe114  1  0.83333333  0.00000000  0.17045455  1.0
  Fe  Fe115  1  0.83333333  0.33333333  0.17045455  1.0
  Fe  Fe116  1  0.83333333  0.66666667  0.17045455  1.0
  Fe  Fe117  1  0.25000000  0.16666667  0.14772727  1.0
  Fe  Fe118  1  0.25000000  0.50000000  0.14772727  1.0
  Fe  Fe119  1  0.25000000  0.83333333  0.14772727  1.0
  Fe  Fe120  1  0.58333333  0.16666667  0.14772727  1.0
  Fe  Fe121  1  0.58333333  0.50000000  0.14772727  1.0
  Fe  Fe122  1  0.58333333  0.83333333  0.14772727  1.0
  Fe  Fe123  1  0.91666667  0.16666667  0.14772727  1.0
  Fe  Fe124  1  0.91666667  0.50000000  0.14772727  1.0
  Fe  Fe125  1  0.91666667  0.83333333  0.14772727  1.0
  Fe  Fe126  1  0.08333333  0.16666667  0.14772727  1.0
  Fe  Fe127  1  0.08333333  0.50000000  0.14772727  1.0
  Fe  Fe128  1  0.08333333  0.83333333  0.14772727  1.0
  Fe  Fe129  1  0.41666667  0.16666667  0.14772727  1.0
  Fe  Fe130  1  0.41666667  0.50000000  0.14772727  1.0
  Fe  Fe131  1  0.41666667  0.83333333  0.14772727  1.0
  Fe  Fe132  1  0.75000000  0.16666667  0.14772727  1.0
  Fe  Fe133  1  0.75000000  0.50000000  0.14772727  1.0
  Fe  Fe134  1  0.75000000  0.83333333  0.14772727  1.0
  Ni  Ni135  1  0.00000000  0.00000000  0.17045455  1.0
  Ni  Ni136  1  1.00000000  0.33333333  0.17045455  1.0
  Ni  Ni137  1  1.00000000  0.66666667  0.17045455  1.0
  Ni  Ni138  1  0.33333333  0.00000000  0.17045455  1.0
  Ni  Ni139  1  0.33333333  0.33333333  0.17045455  1.0
  Ni  Ni140  1  0.33333333  0.66666667  0.17045455  1.0
  Ni  Ni141  1  0.66666667  0.00000000  0.17045455  1.0
  Ni  Ni142  1  0.66666667  0.33333333  0.17045455  1.0
  Ni  Ni143  1  0.66666667  0.66666667  0.17045455  1.0
  Fe  Fe144  1  0.16666667  0.00000000  0.21590909  1.0
  Fe  Fe145  1  0.16666667  0.33333333  0.21590909  1.0
  Fe  Fe146  1  0.16666667  0.66666667  0.21590909  1.0
  Fe  Fe147  1  0.50000000  0.00000000  0.21590909  1.0
  Fe  Fe148  1  0.50000000  0.33333333  0.21590909  1.0
  Fe  Fe149  1  0.50000000  0.66666667  0.21590909  1.0
  Fe  Fe150  1  0.83333333  0.00000000  0.21590909  1.0
  Fe  Fe151  1  0.83333333  0.33333333  0.21590909  1.0
  Fe  Fe152  1  0.83333333  0.66666667  0.21590909  1.0
  Fe  Fe153  1  0.25000000  0.16666667  0.19318182  1.0
  Fe  Fe154  1  0.25000000  0.50000000  0.19318182  1.0
  Fe  Fe155  1  0.25000000  0.83333333  0.19318182  1.0
  Fe  Fe156  1  0.58333333  0.16666667  0.19318182  1.0
  Fe  Fe157  1  0.58333333  0.50000000  0.19318182  1.0
  Fe  Fe158  1  0.58333333  0.83333333  0.19318182  1.0
  Fe  Fe159  1  0.91666667  0.16666667  0.19318182  1.0
  Fe  Fe160  1  0.91666667  0.50000000  0.19318182  1.0
  Fe  Fe161  1  0.91666667  0.83333333  0.19318182  1.0
  Fe  Fe162  1  0.08333333  0.16666667  0.19318182  1.0
  Fe  Fe163  1  0.08333333  0.50000000  0.19318182  1.0
  Fe  Fe164  1  0.08333333  0.83333333  0.19318182  1.0
  Fe  Fe165  1  0.41666667  0.16666667  0.19318182  1.0
  Fe  Fe166  1  0.41666667  0.50000000  0.19318182  1.0
  Fe  Fe167  1  0.41666667  0.83333333  0.19318182  1.0
  Fe  Fe168  1  0.75000000  0.16666667  0.19318182  1.0
  Fe  Fe169  1  0.75000000  0.50000000  0.19318182  1.0
  Fe  Fe170  1  0.75000000  0.83333333  0.19318182  1.0
  Ni  Ni171  1  0.00000000  0.00000000  0.21590909  1.0
  Ni  Ni172  1  1.00000000  0.33333333  0.21590909  1.0
  Ni  Ni173  1  1.00000000  0.66666667  0.21590909  1.0
  Ni  Ni174  1  0.33333333  0.00000000  0.21590909  1.0
  Ni  Ni175  1  0.33333333  0.33333333  0.21590909  1.0
  Ni  Ni176  1  0.33333333  0.66666667  0.21590909  1.0
  Ni  Ni177  1  0.66666667  0.00000000  0.21590909  1.0
  Ni  Ni178  1  0.66666667  0.33333333  0.21590909  1.0
  Ni  Ni179  1  0.66666667  0.66666667  0.21590909  1.0
  Fe  Fe180  1  0.16666667  0.00000000  0.26136364  1.0
  Fe  Fe181  1  0.16666667  0.33333333  0.26136364  1.0
  Fe  Fe182  1  0.16666667  0.66666667  0.26136364  1.0
  Fe  Fe183  1  0.50000000  0.00000000  0.26136364  1.0
  Fe  Fe184  1  0.50000000  0.33333333  0.26136364  1.0
  Fe  Fe185  1  0.50000000  0.66666667  0.26136364  1.0
  Fe  Fe186  1  0.83333333  0.00000000  0.26136364  1.0
  Fe  Fe187  1  0.83333333  0.33333333  0.26136364  1.0
  Fe  Fe188  1  0.83333333  0.66666667  0.26136364  1.0
  Fe  Fe189  1  0.25000000  0.16666667  0.23863636  1.0
  Fe  Fe190  1  0.25000000  0.50000000  0.23863636  1.0
  Fe  Fe191  1  0.25000000  0.83333333  0.23863636  1.0
  Fe  Fe192  1  0.58333333  0.16666667  0.23863636  1.0
  Fe  Fe193  1  0.58333333  0.50000000  0.23863636  1.0
  Fe  Fe194  1  0.58333333  0.83333333  0.23863636  1.0
  Fe  Fe195  1  0.91666667  0.16666667  0.23863636  1.0
  Fe  Fe196  1  0.91666667  0.50000000  0.23863636  1.0
  Fe  Fe197  1  0.91666667  0.83333333  0.23863636  1.0
  Fe  Fe198  1  0.08333333  0.16666667  0.23863636  1.0
  Fe  Fe199  1  0.08333333  0.50000000  0.23863636  1.0
  Fe  Fe200  1  0.08333333  0.83333333  0.23863636  1.0
  Fe  Fe201  1  0.41666667  0.16666667  0.23863636  1.0
  Fe  Fe202  1  0.41666667  0.50000000  0.23863636  1.0
  Fe  Fe203  1  0.41666667  0.83333333  0.23863636  1.0
  Fe  Fe204  1  0.75000000  0.16666667  0.23863636  1.0
  Fe  Fe205  1  0.75000000  0.50000000  0.23863636  1.0
  Fe  Fe206  1  0.75000000  0.83333333  0.23863636  1.0
  Ni  Ni207  1  0.00000000  0.00000000  0.26136364  1.0
  Ni  Ni208  1  1.00000000  0.33333333  0.26136364  1.0
  Ni  Ni209  1  1.00000000  0.66666667  0.26136364  1.0
  Ni  Ni210  1  0.33333333  0.00000000  0.26136364  1.0
  Ni  Ni211  1  0.33333333  0.33333333  0.26136364  1.0
  Ni  Ni212  1  0.33333333  0.66666667  0.26136364  1.0
  Ni  Ni213  1  0.66666667  0.00000000  0.26136364  1.0
  Ni  Ni214  1  0.66666667  0.33333333  0.26136364  1.0
  Ni  Ni215  1  0.66666667  0.66666667  0.26136364  1.0
  Fe  Fe216  1  0.16666667  0.00000000  0.30681818  1.0
  Fe  Fe217  1  0.16666667  0.33333333  0.30681818  1.0
  Fe  Fe218  1  0.16666667  0.66666667  0.30681818  1.0
  Fe  Fe219  1  0.50000000  0.00000000  0.30681818  1.0
  Fe  Fe220  1  0.50000000  0.33333333  0.30681818  1.0
  Fe  Fe221  1  0.50000000  0.66666667  0.30681818  1.0
  Fe  Fe222  1  0.83333333  0.00000000  0.30681818  1.0
  Fe  Fe223  1  0.83333333  0.33333333  0.30681818  1.0
  Fe  Fe224  1  0.83333333  0.66666667  0.30681818  1.0
  Fe  Fe225  1  0.25000000  0.16666667  0.28409091  1.0
  Fe  Fe226  1  0.25000000  0.50000000  0.28409091  1.0
  Fe  Fe227  1  0.25000000  0.83333333  0.28409091  1.0
  Fe  Fe228  1  0.58333333  0.16666667  0.28409091  1.0
  Fe  Fe229  1  0.58333333  0.50000000  0.28409091  1.0
  Fe  Fe230  1  0.58333333  0.83333333  0.28409091  1.0
  Fe  Fe231  1  0.91666667  0.16666667  0.28409091  1.0
  Fe  Fe232  1  0.91666667  0.50000000  0.28409091  1.0
  Fe  Fe233  1  0.91666667  0.83333333  0.28409091  1.0
  Fe  Fe234  1  0.08333333  0.16666667  0.28409091  1.0
  Fe  Fe235  1  0.08333333  0.50000000  0.28409091  1.0
  Fe  Fe236  1  0.08333333  0.83333333  0.28409091  1.0
  Fe  Fe237  1  0.41666667  0.16666667  0.28409091  1.0
  Fe  Fe238  1  0.41666667  0.50000000  0.28409091  1.0
  Fe  Fe239  1  0.41666667  0.83333333  0.28409091  1.0
  Fe  Fe240  1  0.75000000  0.16666667  0.28409091  1.0
  Fe  Fe241  1  0.75000000  0.50000000  0.28409091  1.0
  Fe  Fe242  1  0.75000000  0.83333333  0.28409091  1.0
  Ni  Ni243  1  0.00000000  0.00000000  0.30681818  1.0
  Ni  Ni244  1  1.00000000  0.33333333  0.30681818  1.0
  Ni  Ni245  1  1.00000000  0.66666667  0.30681818  1.0
  Ni  Ni246  1  0.33333333  0.00000000  0.30681818  1.0
  Ni  Ni247  1  0.33333333  0.33333333  0.30681818  1.0
  Ni  Ni248  1  0.33333333  0.66666667  0.30681818  1.0
  Ni  Ni249  1  0.66666667  0.00000000  0.30681818  1.0
  Ni  Ni250  1  0.66666667  0.33333333  0.30681818  1.0
  Ni  Ni251  1  0.66666667  0.66666667  0.30681818  1.0
  Fe  Fe252  1  0.16666667  0.00000000  0.35227273  1.0
  Fe  Fe253  1  0.16666667  0.33333333  0.35227273  1.0
  Fe  Fe254  1  0.16666667  0.66666667  0.35227273  1.0
  Fe  Fe255  1  0.50000000  0.00000000  0.35227273  1.0
  Fe  Fe256  1  0.50000000  0.33333333  0.35227273  1.0
  Fe  Fe257  1  0.50000000  0.66666667  0.35227273  1.0
  Fe  Fe258  1  0.83333333  0.00000000  0.35227273  1.0
  Fe  Fe259  1  0.83333333  0.33333333  0.35227273  1.0
  Fe  Fe260  1  0.83333333  0.66666667  0.35227273  1.0
  Fe  Fe261  1  0.25000000  0.16666667  0.32954545  1.0
  Fe  Fe262  1  0.25000000  0.50000000  0.32954545  1.0
  Fe  Fe263  1  0.25000000  0.83333333  0.32954545  1.0
  Fe  Fe264  1  0.58333333  0.16666667  0.32954545  1.0
  Fe  Fe265  1  0.58333333  0.50000000  0.32954545  1.0
  Fe  Fe266  1  0.58333333  0.83333333  0.32954545  1.0
  Fe  Fe267  1  0.91666667  0.16666667  0.32954545  1.0
  Fe  Fe268  1  0.91666667  0.50000000  0.32954545  1.0
  Fe  Fe269  1  0.91666667  0.83333333  0.32954545  1.0
  Fe  Fe270  1  0.08333333  0.16666667  0.32954545  1.0
  Fe  Fe271  1  0.08333333  0.50000000  0.32954545  1.0
  Fe  Fe272  1  0.08333333  0.83333333  0.32954545  1.0
  Fe  Fe273  1  0.41666667  0.16666667  0.32954545  1.0
  Fe  Fe274  1  0.41666667  0.50000000  0.32954545  1.0
  Fe  Fe275  1  0.41666667  0.83333333  0.32954545  1.0
  Fe  Fe276  1  0.75000000  0.16666667  0.32954545  1.0
  Fe  Fe277  1  0.75000000  0.50000000  0.32954545  1.0
  Fe  Fe278  1  0.75000000  0.83333333  0.32954545  1.0
  Ni  Ni279  1  0.00000000  0.00000000  0.35227273  1.0
  Ni  Ni280  1  1.00000000  0.33333333  0.35227273  1.0
  Ni  Ni281  1  1.00000000  0.66666667  0.35227273  1.0
  Ni  Ni282  1  0.33333333  0.00000000  0.35227273  1.0
  Ni  Ni283  1  0.33333333  0.33333333  0.35227273  1.0
  Ni  Ni284  1  0.33333333  0.66666667  0.35227273  1.0
  Ni  Ni285  1  0.66666667  0.00000000  0.35227273  1.0
  Ni  Ni286  1  0.66666667  0.33333333  0.35227273  1.0
  Ni  Ni287  1  0.66666667  0.66666667  0.35227273  1.0
  Fe  Fe288  1  0.16666667  0.00000000  0.39772727  1.0
  Fe  Fe289  1  0.16666667  0.33333333  0.39772727  1.0
  Fe  Fe290  1  0.16666667  0.66666667  0.39772727  1.0
  Fe  Fe291  1  0.50000000  0.00000000  0.39772727  1.0
  Fe  Fe292  1  0.50000000  0.33333333  0.39772727  1.0
  Fe  Fe293  1  0.50000000  0.66666667  0.39772727  1.0
  Fe  Fe294  1  0.83333333  0.00000000  0.39772727  1.0
  Fe  Fe295  1  0.83333333  0.33333333  0.39772727  1.0
  Fe  Fe296  1  0.83333333  0.66666667  0.39772727  1.0
  Fe  Fe297  1  0.25000000  0.16666667  0.37500000  1.0
  Fe  Fe298  1  0.25000000  0.50000000  0.37500000  1.0
  Fe  Fe299  1  0.25000000  0.83333333  0.37500000  1.0
  Fe  Fe300  1  0.58333333  0.16666667  0.37500000  1.0
  Fe  Fe301  1  0.58333333  0.50000000  0.37500000  1.0
  Fe  Fe302  1  0.58333333  0.83333333  0.37500000  1.0
  Fe  Fe303  1  0.91666667  0.16666667  0.37500000  1.0
  Fe  Fe304  1  0.91666667  0.50000000  0.37500000  1.0
  Fe  Fe305  1  0.91666667  0.83333333  0.37500000  1.0
  Fe  Fe306  1  0.08333333  0.16666667  0.37500000  1.0
  Fe  Fe307  1  0.08333333  0.50000000  0.37500000  1.0
  Fe  Fe308  1  0.08333333  0.83333333  0.37500000  1.0
  Fe  Fe309  1  0.41666667  0.16666667  0.37500000  1.0
  Fe  Fe310  1  0.41666667  0.50000000  0.37500000  1.0
  Fe  Fe311  1  0.41666667  0.83333333  0.37500000  1.0
  Fe  Fe312  1  0.75000000  0.16666667  0.37500000  1.0
  Fe  Fe313  1  0.75000000  0.50000000  0.37500000  1.0
  Fe  Fe314  1  0.75000000  0.83333333  0.37500000  1.0
  Ni  Ni315  1  0.00000000  0.00000000  0.39772727  1.0
  Ni  Ni316  1  1.00000000  0.33333333  0.39772727  1.0
  Ni  Ni317  1  1.00000000  0.66666667  0.39772727  1.0
  Ni  Ni318  1  0.33333333  0.00000000  0.39772727  1.0
  Ni  Ni319  1  0.33333333  0.33333333  0.39772727  1.0
  Ni  Ni320  1  0.33333333  0.66666667  0.39772727  1.0
  Ni  Ni321  1  0.66666667  0.00000000  0.39772727  1.0
  Ni  Ni322  1  0.66666667  0.33333333  0.39772727  1.0
  Ni  Ni323  1  0.66666667  0.66666667  0.39772727  1.0
