# generated using pymatgen
data_Fe3Ni2
_symmetry_space_group_name_H-M   'P 1'
_cell_length_a   10.61431908
_cell_length_b   55.04449184
_cell_length_c   37.52728500
_cell_angle_alpha   97.83683876
_cell_angle_beta   135.00000000
_cell_angle_gamma   84.46718585
_symmetry_Int_Tables_number   1
_chemical_formula_structural   Fe3Ni2
_chemical_formula_sum   'Fe324 Ni216'
_cell_volume   15359.00020374
_cell_formula_units_Z   108
loop_
 _symmetry_equiv_pos_site_id
 _symmetry_equiv_pos_as_xyz
  1  'x, y, z'
loop_
 _atom_site_type_symbol
 _atom_site_label
 _atom_site_symmetry_multiplicity
 _atom_site_fract_x
 _atom_site_fract_y
 _atom_site_fract_z
 _atom_site_occupancy
  Fe  Fe0  1  0.00000000  0.29853467  0.05622707  1.0
  Fe  Fe1  1  0.00000000  0.63186800  0.05622707  1.0
  Fe  Fe2  1  0.00000000  0.96520133  0.05622707  1.0
  Fe  Fe3  1  0.33333333  0.29853467  0.05622707  1.0
  Fe  Fe4  1  0.33333333  0.63186800  0.05622707  1.0
  Fe  Fe5  1  0.33333333  0.96520133  0.05622707  1.0
  Fe  Fe6  1  0.66666667  0.29853467  0.05622707  1.0
  Fe  Fe7  1  0.66666667  0.63186800  0.05622707  1.0
  Fe  Fe8  1  0.66666667  0.96520133  0.05622707  1.0
  Fe  Fe9  1  0.00000000  0.03479867  0.00347987  1.0
  Fe  Fe10  1  0.00000000  0.36813200  0.00347987  1.0
  Fe  Fe11  1  0.00000000  0.70146533  0.00347987  1.0
  Fe  Fe12  1  0.33333333  0.03479867  0.00347987  1.0
  Fe  Fe13  1  0.33333333  0.36813200  0.00347987  1.0
  Fe  Fe14  1  0.33333333  0.70146533  0.00347987  1.0
  Fe  Fe15  1  0.66666667  0.03479867  0.00347987  1.0
  Fe  Fe16  1  0.66666667  0.36813200  0.00347987  1.0
  Fe  Fe17  1  0.66666667  0.70146533  0.00347987  1.0
  Fe  Fe18  1  0.00000000  0.10043067  0.01660627  1.0
  Fe  Fe19  1  0.00000000  0.43376400  0.01660627  1.0
  Fe  Fe20  1  0.00000000  0.76709733  0.01660627  1.0
  Fe  Fe21  1  0.33333333  0.10043067  0.01660627  1.0
  Fe  Fe22  1  0.33333333  0.43376400  0.01660627  1.0
  Fe  Fe23  1  0.33333333  0.76709733  0.01660627  1.0
  Fe  Fe24  1  0.66666667  0.10043067  0.01660627  1.0
  Fe  Fe25  1  0.66666667  0.43376400  0.01660627  1.0
  Fe  Fe26  1  0.66666667  0.76709733  0.01660627  1.0
  Fe  Fe27  1  0.00000000  0.16666667  0.02985347  1.0
  Fe  Fe28  1  0.00000000  0.50000000  0.02985347  1.0
  Fe  Fe29  1  0.00000000  0.83333333  0.02985347  1.0
  Fe  Fe30  1  0.33333333  0.16666667  0.02985347  1.0
  Fe  Fe31  1  0.33333333  0.50000000  0.02985347  1.0
  Fe  Fe32  1  0.33333333  0.83333333  0.02985347  1.0
  Fe  Fe33  1  0.66666667  0.16666667  0.02985347  1.0
  Fe  Fe34  1  0.66666667  0.50000000  0.02985347  1.0
  Fe  Fe35  1  0.66666667  0.83333333  0.02985347  1.0
  Fe  Fe36  1  0.00000000  0.23290267  0.04310067  1.0
  Fe  Fe37  1  0.00000000  0.56623600  0.04310067  1.0
  Fe  Fe38  1  0.00000000  0.89956933  0.04310067  1.0
  Fe  Fe39  1  0.33333333  0.23290267  0.04310067  1.0
  Fe  Fe40  1  0.33333333  0.56623600  0.04310067  1.0
  Fe  Fe41  1  0.33333333  0.89956933  0.04310067  1.0
  Fe  Fe42  1  0.66666667  0.23290267  0.04310067  1.0
  Fe  Fe43  1  0.66666667  0.56623600  0.04310067  1.0
  Fe  Fe44  1  0.66666667  0.89956933  0.04310067  1.0
  Fe  Fe45  1  0.16666667  0.00000000  0.06318680  1.0
  Fe  Fe46  1  0.16666667  0.33333333  0.06318680  1.0
  Fe  Fe47  1  0.16666667  0.66666667  0.06318680  1.0
  Fe  Fe48  1  0.50000000  0.00000000  0.06318680  1.0
  Fe  Fe49  1  0.50000000  0.33333333  0.06318680  1.0
  Fe  Fe50  1  0.50000000  0.66666667  0.06318680  1.0
  Fe  Fe51  1  0.83333333  0.00000000  0.06318680  1.0
  Fe  Fe52  1  0.83333333  0.33333333  0.06318680  1.0
  Fe  Fe53  1  0.83333333  0.66666667  0.06318680  1.0
  Ni  Ni54  1  0.16666667  0.06762867  0.01004587  1.0
  Ni  Ni55  1  0.16666667  0.40096200  0.01004587  1.0
  Ni  Ni56  1  0.16666667  0.73429533  0.01004587  1.0
  Ni  Ni57  1  0.50000000  0.06762867  0.01004587  1.0
  Ni  Ni58  1  0.50000000  0.40096200  0.01004587  1.0
  Ni  Ni59  1  0.50000000  0.73429533  0.01004587  1.0
  Ni  Ni60  1  0.83333333  0.06762867  0.01004587  1.0
  Ni  Ni61  1  0.83333333  0.40096200  0.01004587  1.0
  Ni  Ni62  1  0.83333333  0.73429533  0.01004587  1.0
  Ni  Ni63  1  0.16666667  0.13339133  0.02319840  1.0
  Ni  Ni64  1  0.16666667  0.46672467  0.02319840  1.0
  Ni  Ni65  1  0.16666667  0.80005800  0.02319840  1.0
  Ni  Ni66  1  0.50000000  0.13339133  0.02319840  1.0
  Ni  Ni67  1  0.50000000  0.46672467  0.02319840  1.0
  Ni  Ni68  1  0.50000000  0.80005800  0.02319840  1.0
  Ni  Ni69  1  0.83333333  0.13339133  0.02319840  1.0
  Ni  Ni70  1  0.83333333  0.46672467  0.02319840  1.0
  Ni  Ni71  1  0.83333333  0.80005800  0.02319840  1.0
  Ni  Ni72  1  0.16666667  0.19994200  0.03650853  1.0
  Ni  Ni73  1  0.16666667  0.53327533  0.03650853  1.0
  Ni  Ni74  1  0.16666667  0.86660867  0.03650853  1.0
  Ni  Ni75  1  0.50000000  0.19994200  0.03650853  1.0
  Ni  Ni76  1  0.50000000  0.53327533  0.03650853  1.0
  Ni  Ni77  1  0.50000000  0.86660867  0.03650853  1.0
  Ni  Ni78  1  0.83333333  0.19994200  0.03650853  1.0
  Ni  Ni79  1  0.83333333  0.53327533  0.03650853  1.0
  Ni  Ni80  1  0.83333333  0.86660867  0.03650853  1.0
  Ni  Ni81  1  0.16666667  0.26570467  0.04966107  1.0
  Ni  Ni82  1  0.16666667  0.59903800  0.04966107  1.0
  Ni  Ni83  1  0.16666667  0.93237133  0.04966107  1.0
  Ni  Ni84  1  0.50000000  0.26570467  0.04966107  1.0
  Ni  Ni85  1  0.50000000  0.59903800  0.04966107  1.0
  Ni  Ni86  1  0.50000000  0.93237133  0.04966107  1.0
  Ni  Ni87  1  0.83333333  0.26570467  0.04966107  1.0
  Ni  Ni88  1  0.83333333  0.59903800  0.04966107  1.0
  Ni  Ni89  1  0.83333333  0.93237133  0.04966107  1.0
  Fe  Fe90  1  0.00000000  0.29853467  0.12289373  1.0
  Fe  Fe91  1  0.00000000  0.63186800  0.12289373  1.0
  Fe  Fe92  1  0.00000000  0.96520133  0.12289373  1.0
  Fe  Fe93  1  0.33333333  0.29853467  0.12289373  1.0
  Fe  Fe94  1  0.33333333  0.63186800  0.12289373  1.0
  Fe  Fe95  1  0.33333333  0.96520133  0.12289373  1.0
  Fe  Fe96  1  0.66666667  0.29853467  0.12289373  1.0
  Fe  Fe97  1  0.66666667  0.63186800  0.12289373  1.0
  Fe  Fe98  1  0.66666667  0.96520133  0.12289373  1.0
  Fe  Fe99  1  0.00000000  0.03479867  0.07014653  1.0
  Fe  Fe100  1  0.00000000  0.36813200  0.07014653  1.0
  Fe  Fe101  1  0.00000000  0.70146533  0.07014653  1.0
  Fe  Fe102  1  0.33333333  0.03479867  0.07014653  1.0
  Fe  Fe103  1  0.33333333  0.36813200  0.07014653  1.0
  Fe  Fe104  1  0.33333333  0.70146533  0.07014653  1.0
  Fe  Fe105  1  0.66666667  0.03479867  0.07014653  1.0
  Fe  Fe106  1  0.66666667  0.36813200  0.07014653  1.0
  Fe  Fe107  1  0.66666667  0.70146533  0.07014653  1.0
  Fe  Fe108  1  0.00000000  0.10043067  0.08327293  1.0
  Fe  Fe109  1  0.00000000  0.43376400  0.08327293  1.0
  Fe  Fe110  1  0.00000000  0.76709733  0.08327293  1.0
  Fe  Fe111  1  0.33333333  0.10043067  0.08327293  1.0
  Fe  Fe112  1  0.33333333  0.43376400  0.08327293  1.0
  Fe  Fe113  1  0.33333333  0.76709733  0.08327293  1.0
  Fe  Fe114  1  0.66666667  0.10043067  0.08327293  1.0
  Fe  Fe115  1  0.66666667  0.43376400  0.08327293  1.0
  Fe  Fe116  1  0.66666667  0.76709733  0.08327293  1.0
  Fe  Fe117  1  0.00000000  0.16666667  0.09652013  1.0
  Fe  Fe118  1  0.00000000  0.50000000  0.09652013  1.0
  Fe  Fe119  1  0.00000000  0.83333333  0.09652013  1.0
  Fe  Fe120  1  0.33333333  0.16666667  0.09652013  1.0
  Fe  Fe121  1  0.33333333  0.50000000  0.09652013  1.0
  Fe  Fe122  1  0.33333333  0.83333333  0.09652013  1.0
  Fe  Fe123  1  0.66666667  0.16666667  0.09652013  1.0
  Fe  Fe124  1  0.66666667  0.50000000  0.09652013  1.0
  Fe  Fe125  1  0.66666667  0.83333333  0.09652013  1.0
  Fe  Fe126  1  0.00000000  0.23290267  0.10976733  1.0
  Fe  Fe127  1  0.00000000  0.56623600  0.10976733  1.0
  Fe  Fe128  1  0.00000000  0.89956933  0.10976733  1.0
  Fe  Fe129  1  0.33333333  0.23290267  0.10976733  1.0
  Fe  Fe130  1  0.33333333  0.56623600  0.10976733  1.0
  Fe  Fe131  1  0.33333333  0.89956933  0.10976733  1.0
  Fe  Fe132  1  0.66666667  0.23290267  0.10976733  1.0
  Fe  Fe133  1  0.66666667  0.56623600  0.10976733  1.0
  Fe  Fe134  1  0.66666667  0.89956933  0.10976733  1.0
  Fe  Fe135  1  0.16666667  0.00000000  0.12985347  1.0
  Fe  Fe136  1  0.16666667  0.33333333  0.12985347  1.0
  Fe  Fe137  1  0.16666667  0.66666667  0.12985347  1.0
  Fe  Fe138  1  0.50000000  0.00000000  0.12985347  1.0
  Fe  Fe139  1  0.50000000  0.33333333  0.12985347  1.0
  Fe  Fe140  1  0.50000000  0.66666667  0.12985347  1.0
  Fe  Fe141  1  0.83333333  0.00000000  0.12985347  1.0
  Fe  Fe142  1  0.83333333  0.33333333  0.12985347  1.0
  Fe  Fe143  1  0.83333333  0.66666667  0.12985347  1.0
  Ni  Ni144  1  0.16666667  0.06762867  0.07671253  1.0
  Ni  Ni145  1  0.16666667  0.40096200  0.07671253  1.0
  Ni  Ni146  1  0.16666667  0.73429533  0.07671253  1.0
  Ni  Ni147  1  0.50000000  0.06762867  0.07671253  1.0
  Ni  Ni148  1  0.50000000  0.40096200  0.07671253  1.0
  Ni  Ni149  1  0.50000000  0.73429533  0.07671253  1.0
  Ni  Ni150  1  0.83333333  0.06762867  0.07671253  1.0
  Ni  Ni151  1  0.83333333  0.40096200  0.07671253  1.0
  Ni  Ni152  1  0.83333333  0.73429533  0.07671253  1.0
  Ni  Ni153  1  0.16666667  0.13339133  0.08986507  1.0
  Ni  Ni154  1  0.16666667  0.46672467  0.08986507  1.0
  Ni  Ni155  1  0.16666667  0.80005800  0.08986507  1.0
  Ni  Ni156  1  0.50000000  0.13339133  0.08986507  1.0
  Ni  Ni157  1  0.50000000  0.46672467  0.08986507  1.0
  Ni  Ni158  1  0.50000000  0.80005800  0.08986507  1.0
  Ni  Ni159  1  0.83333333  0.13339133  0.08986507  1.0
  Ni  Ni160  1  0.83333333  0.46672467  0.08986507  1.0
  Ni  Ni161  1  0.83333333  0.80005800  0.08986507  1.0
  Ni  Ni162  1  0.16666667  0.19994200  0.10317520  1.0
  Ni  Ni163  1  0.16666667  0.53327533  0.10317520  1.0
  Ni  Ni164  1  0.16666667  0.86660867  0.10317520  1.0
  Ni  Ni165  1  0.50000000  0.19994200  0.10317520  1.0
  Ni  Ni166  1  0.50000000  0.53327533  0.10317520  1.0
  Ni  Ni167  1  0.50000000  0.86660867  0.10317520  1.0
  Ni  Ni168  1  0.83333333  0.19994200  0.10317520  1.0
  Ni  Ni169  1  0.83333333  0.53327533  0.10317520  1.0
  Ni  Ni170  1  0.83333333  0.86660867  0.10317520  1.0
  Ni  Ni171  1  0.16666667  0.26570467  0.11632773  1.0
  Ni  Ni172  1  0.16666667  0.59903800  0.11632773  1.0
  Ni  Ni173  1  0.16666667  0.93237133  0.11632773  1.0
  Ni  Ni174  1  0.50000000  0.26570467  0.11632773  1.0
  Ni  Ni175  1  0.50000000  0.59903800  0.11632773  1.0
  Ni  Ni176  1  0.50000000  0.93237133  0.11632773  1.0
  Ni  Ni177  1  0.83333333  0.26570467  0.11632773  1.0
  Ni  Ni178  1  0.83333333  0.59903800  0.11632773  1.0
  Ni  Ni179  1  0.83333333  0.93237133  0.11632773  1.0
  Fe  Fe180  1  0.00000000  0.29853467  0.18956040  1.0
  Fe  Fe181  1  0.00000000  0.63186800  0.18956040  1.0
  Fe  Fe182  1  0.00000000  0.96520133  0.18956040  1.0
  Fe  Fe183  1  0.33333333  0.29853467  0.18956040  1.0
  Fe  Fe184  1  0.33333333  0.63186800  0.18956040  1.0
  Fe  Fe185  1  0.33333333  0.96520133  0.18956040  1.0
  Fe  Fe186  1  0.66666667  0.29853467  0.18956040  1.0
  Fe  Fe187  1  0.66666667  0.63186800  0.18956040  1.0
  Fe  Fe188  1  0.66666667  0.96520133  0.18956040  1.0
  Fe  Fe189  1  0.00000000  0.03479867  0.13681320  1.0
  Fe  Fe190  1  0.00000000  0.36813200  0.13681320  1.0
  Fe  Fe191  1  0.00000000  0.70146533  0.13681320  1.0
  Fe  Fe192  1  0.33333333  0.03479867  0.13681320  1.0
  Fe  Fe193  1  0.33333333  0.36813200  0.13681320  1.0
  Fe  Fe194  1  0.33333333  0.70146533  0.13681320  1.0
  Fe  Fe195  1  0.66666667  0.03479867  0.13681320  1.0
  Fe  Fe196  1  0.66666667  0.36813200  0.13681320  1.0
  Fe  Fe197  1  0.66666667  0.70146533  0.13681320  1.0
  Fe  Fe198  1  0.00000000  0.10043067  0.14993960  1.0
  Fe  Fe199  1  0.00000000  0.43376400  0.14993960  1.0
  Fe  Fe200  1  0.00000000  0.76709733  0.14993960  1.0
  Fe  Fe201  1  0.33333333  0.10043067  0.14993960  1.0
  Fe  Fe202  1  0.33333333  0.43376400  0.14993960  1.0
  Fe  Fe203  1  0.33333333  0.76709733  0.14993960  1.0
  Fe  Fe204  1  0.66666667  0.10043067  0.14993960  1.0
  Fe  Fe205  1  0.66666667  0.43376400  0.14993960  1.0
  Fe  Fe206  1  0.66666667  0.76709733  0.14993960  1.0
  Fe  Fe207  1  0.00000000  0.16666667  0.16318680  1.0
  Fe  Fe208  1  0.00000000  0.50000000  0.16318680  1.0
  Fe  Fe209  1  0.00000000  0.83333333  0.16318680  1.0
  Fe  Fe210  1  0.33333333  0.16666667  0.16318680  1.0
  Fe  Fe211  1  0.33333333  0.50000000  0.16318680  1.0
  Fe  Fe212  1  0.33333333  0.83333333  0.16318680  1.0
  Fe  Fe213  1  0.66666667  0.16666667  0.16318680  1.0
  Fe  Fe214  1  0.66666667  0.50000000  0.16318680  1.0
  Fe  Fe215  1  0.66666667  0.83333333  0.16318680  1.0
  Fe  Fe216  1  0.00000000  0.23290267  0.17643400  1.0
  Fe  Fe217  1  0.00000000  0.56623600  0.17643400  1.0
  Fe  Fe218  1  0.00000000  0.89956933  0.17643400  1.0
  Fe  Fe219  1  0.33333333  0.23290267  0.17643400  1.0
  Fe  Fe220  1  0.33333333  0.56623600  0.17643400  1.0
  Fe  Fe221  1  0.33333333  0.89956933  0.17643400  1.0
  Fe  Fe222  1  0.66666667  0.23290267  0.17643400  1.0
  Fe  Fe223  1  0.66666667  0.56623600  0.17643400  1.0
  Fe  Fe224  1  0.66666667  0.89956933  0.17643400  1.0
  Fe  Fe225  1  0.16666667  0.00000000  0.19652013  1.0
  Fe  Fe226  1  0.16666667  0.33333333  0.19652013  1.0
  Fe  Fe227  1  0.16666667  0.66666667  0.19652013  1.0
  Fe  Fe228  1  0.50000000  0.00000000  0.19652013  1.0
  Fe  Fe229  1  0.50000000  0.33333333  0.19652013  1.0
  Fe  Fe230  1  0.50000000  0.66666667  0.19652013  1.0
  Fe  Fe231  1  0.83333333  0.00000000  0.19652013  1.0
  Fe  Fe232  1  0.83333333  0.33333333  0.19652013  1.0
  Fe  Fe233  1  0.83333333  0.66666667  0.19652013  1.0
  Ni  Ni234  1  0.16666667  0.06762867  0.14337920  1.0
  Ni  Ni235  1  0.16666667  0.40096200  0.14337920  1.0
  Ni  Ni236  1  0.16666667  0.73429533  0.14337920  1.0
  Ni  Ni237  1  0.50000000  0.06762867  0.14337920  1.0
  Ni  Ni238  1  0.50000000  0.40096200  0.14337920  1.0
  Ni  Ni239  1  0.50000000  0.73429533  0.14337920  1.0
  Ni  Ni240  1  0.83333333  0.06762867  0.14337920  1.0
  Ni  Ni241  1  0.83333333  0.40096200  0.14337920  1.0
  Ni  Ni242  1  0.83333333  0.73429533  0.14337920  1.0
  Ni  Ni243  1  0.16666667  0.13339133  0.15653173  1.0
  Ni  Ni244  1  0.16666667  0.46672467  0.15653173  1.0
  Ni  Ni245  1  0.16666667  0.80005800  0.15653173  1.0
  Ni  Ni246  1  0.50000000  0.13339133  0.15653173  1.0
  Ni  Ni247  1  0.50000000  0.46672467  0.15653173  1.0
  Ni  Ni248  1  0.50000000  0.80005800  0.15653173  1.0
  Ni  Ni249  1  0.83333333  0.13339133  0.15653173  1.0
  Ni  Ni250  1  0.83333333  0.46672467  0.15653173  1.0
  Ni  Ni251  1  0.83333333  0.80005800  0.15653173  1.0
  Ni  Ni252  1  0.16666667  0.19994200  0.16984187  1.0
  Ni  Ni253  1  0.16666667  0.53327533  0.16984187  1.0
  Ni  Ni254  1  0.16666667  0.86660867  0.16984187  1.0
  Ni  Ni255  1  0.50000000  0.19994200  0.16984187  1.0
  Ni  Ni256  1  0.50000000  0.53327533  0.16984187  1.0
  Ni  Ni257  1  0.50000000  0.86660867  0.16984187  1.0
  Ni  Ni258  1  0.83333333  0.19994200  0.16984187  1.0
  Ni  Ni259  1  0.83333333  0.53327533  0.16984187  1.0
  Ni  Ni260  1  0.83333333  0.86660867  0.16984187  1.0
  Ni  Ni261  1  0.16666667  0.26570467  0.18299440  1.0
  Ni  Ni262  1  0.16666667  0.59903800  0.18299440  1.0
  Ni  Ni263  1  0.16666667  0.93237133  0.18299440  1.0
  Ni  Ni264  1  0.50000000  0.26570467  0.18299440  1.0
  Ni  Ni265  1  0.50000000  0.59903800  0.18299440  1.0
  Ni  Ni266  1  0.50000000  0.93237133  0.18299440  1.0
  Ni  Ni267  1  0.83333333  0.26570467  0.18299440  1.0
  Ni  Ni268  1  0.83333333  0.59903800  0.18299440  1.0
  Ni  Ni269  1  0.83333333  0.93237133  0.18299440  1.0
  Fe  Fe270  1  0.00000000  0.29853467  0.25622707  1.0
  Fe  Fe271  1  0.00000000  0.63186800  0.25622707  1.0
  Fe  Fe272  1  0.00000000  0.96520133  0.25622707  1.0
  Fe  Fe273  1  0.33333333  0.29853467  0.25622707  1.0
  Fe  Fe274  1  0.33333333  0.63186800  0.25622707  1.0
  Fe  Fe275  1  0.33333333  0.96520133  0.25622707  1.0
  Fe  Fe276  1  0.66666667  0.29853467  0.25622707  1.0
  Fe  Fe277  1  0.66666667  0.63186800  0.25622707  1.0
  Fe  Fe278  1  0.66666667  0.96520133  0.25622707  1.0
  Fe  Fe279  1  0.00000000  0.03479867  0.20347987  1.0
  Fe  Fe280  1  0.00000000  0.36813200  0.20347987  1.0
  Fe  Fe281  1  0.00000000  0.70146533  0.20347987  1.0
  Fe  Fe282  1  0.33333333  0.03479867  0.20347987  1.0
  Fe  Fe283  1  0.33333333  0.36813200  0.20347987  1.0
  Fe  Fe284  1  0.33333333  0.70146533  0.20347987  1.0
  Fe  Fe285  1  0.66666667  0.03479867  0.20347987  1.0
  Fe  Fe286  1  0.66666667  0.36813200  0.20347987  1.0
  Fe  Fe287  1  0.66666667  0.70146533  0.20347987  1.0
  Fe  Fe288  1  0.00000000  0.10043067  0.21660627  1.0
  Fe  Fe289  1  0.00000000  0.43376400  0.21660627  1.0
  Fe  Fe290  1  0.00000000  0.76709733  0.21660627  1.0
  Fe  Fe291  1  0.33333333  0.10043067  0.21660627  1.0
  Fe  Fe292  1  0.33333333  0.43376400  0.21660627  1.0
  Fe  Fe293  1  0.33333333  0.76709733  0.21660627  1.0
  Fe  Fe294  1  0.66666667  0.10043067  0.21660627  1.0
  Fe  Fe295  1  0.66666667  0.43376400  0.21660627  1.0
  Fe  Fe296  1  0.66666667  0.76709733  0.21660627  1.0
  Fe  Fe297  1  0.00000000  0.16666667  0.22985347  1.0
  Fe  Fe298  1  0.00000000  0.50000000  0.22985347  1.0
  Fe  Fe299  1  0.00000000  0.83333333  0.22985347  1.0
  Fe  Fe300  1  0.33333333  0.16666667  0.22985347  1.0
  Fe  Fe301  1  0.33333333  0.50000000  0.22985347  1.0
  Fe  Fe302  1  0.33333333  0.83333333  0.22985347  1.0
  Fe  Fe303  1  0.66666667  0.16666667  0.22985347  1.0
  Fe  Fe304  1  0.66666667  0.50000000  0.22985347  1.0
  Fe  Fe305  1  0.66666667  0.83333333  0.22985347  1.0
  Fe  Fe306  1  0.00000000  0.23290267  0.24310067  1.0
  Fe  Fe307  1  0.00000000  0.56623600  0.24310067  1.0
  Fe  Fe308  1  0.00000000  0.89956933  0.24310067  1.0
  Fe  Fe309  1  0.33333333  0.23290267  0.24310067  1.0
  Fe  Fe310  1  0.33333333  0.56623600  0.24310067  1.0
  Fe  Fe311  1  0.33333333  0.89956933  0.24310067  1.0
  Fe  Fe312  1  0.66666667  0.23290267  0.24310067  1.0
  Fe  Fe313  1  0.66666667  0.56623600  0.24310067  1.0
  Fe  Fe314  1  0.66666667  0.89956933  0.24310067  1.0
  Fe  Fe315  1  0.16666667  0.00000000  0.26318680  1.0
  Fe  Fe316  1  0.16666667  0.33333333  0.26318680  1.0
  Fe  Fe317  1  0.16666667  0.66666667  0.26318680  1.0
  Fe  Fe318  1  0.50000000  0.00000000  0.26318680  1.0
  Fe  Fe319  1  0.50000000  0.33333333  0.26318680  1.0
  Fe  Fe320  1  0.50000000  0.66666667  0.26318680  1.0
  Fe  Fe321  1  0.83333333  0.00000000  0.26318680  1.0
  Fe  Fe322  1  0.83333333  0.33333333  0.26318680  1.0
  Fe  Fe323  1  0.83333333  0.66666667  0.26318680  1.0
  Ni  Ni324  1  0.16666667  0.06762867  0.21004587  1.0
  Ni  Ni325  1  0.16666667  0.40096200  0.21004587  1.0
  Ni  Ni326  1  0.16666667  0.73429533  0.21004587  1.0
  Ni  Ni327  1  0.50000000  0.06762867  0.21004587  1.0
  Ni  Ni328  1  0.50000000  0.40096200  0.21004587  1.0
  Ni  Ni329  1  0.50000000  0.73429533  0.21004587  1.0
  Ni  Ni330  1  0.83333333  0.06762867  0.21004587  1.0
  Ni  Ni331  1  0.83333333  0.40096200  0.21004587  1.0
  Ni  Ni332  1  0.83333333  0.73429533  0.21004587  1.0
  Ni  Ni333  1  0.16666667  0.13339133  0.22319840  1.0
  Ni  Ni334  1  0.16666667  0.46672467  0.22319840  1.0
  Ni  Ni335  1  0.16666667  0.80005800  0.22319840  1.0
  Ni  Ni336  1  0.50000000  0.13339133  0.22319840  1.0
  Ni  Ni337  1  0.50000000  0.46672467  0.22319840  1.0
  Ni  Ni338  1  0.50000000  0.80005800  0.22319840  1.0
  Ni  Ni339  1  0.83333333  0.13339133  0.22319840  1.0
  Ni  Ni340  1  0.83333333  0.46672467  0.22319840  1.0
  Ni  Ni341  1  0.83333333  0.80005800  0.22319840  1.0
  Ni  Ni342  1  0.16666667  0.19994200  0.23650853  1.0
  Ni  Ni343  1  0.16666667  0.53327533  0.23650853  1.0
  Ni  Ni344  1  0.16666667  0.86660867  0.23650853  1.0
  Ni  Ni345  1  0.50000000  0.19994200  0.23650853  1.0
  Ni  Ni346  1  0.50000000  0.53327533  0.23650853  1.0
  Ni  Ni347  1  0.50000000  0.86660867  0.23650853  1.0
  Ni  Ni348  1  0.83333333  0.19994200  0.23650853  1.0
  Ni  Ni349  1  0.83333333  0.53327533  0.23650853  1.0
  Ni  Ni350  1  0.83333333  0.86660867  0.23650853  1.0
  Ni  Ni351  1  0.16666667  0.26570467  0.24966107  1.0
  Ni  Ni352  1  0.16666667  0.59903800  0.24966107  1.0
  Ni  Ni353  1  0.16666667  0.93237133  0.24966107  1.0
  Ni  Ni354  1  0.50000000  0.26570467  0.24966107  1.0
  Ni  Ni355  1  0.50000000  0.59903800  0.24966107  1.0
  Ni  Ni356  1  0.50000000  0.93237133  0.24966107  1.0
  Ni  Ni357  1  0.83333333  0.26570467  0.24966107  1.0
  Ni  Ni358  1  0.83333333  0.59903800  0.24966107  1.0
  Ni  Ni359  1  0.83333333  0.93237133  0.24966107  1.0
  Fe  Fe360  1  0.00000000  0.29853467  0.32289373  1.0
  Fe  Fe361  1  0.00000000  0.63186800  0.32289373  1.0
  Fe  Fe362  1  0.00000000  0.96520133  0.32289373  1.0
  Fe  Fe363  1  0.33333333  0.29853467  0.32289373  1.0
  Fe  Fe364  1  0.33333333  0.63186800  0.32289373  1.0
  Fe  Fe365  1  0.33333333  0.96520133  0.32289373  1.0
  Fe  Fe366  1  0.66666667  0.29853467  0.32289373  1.0
  Fe  Fe367  1  0.66666667  0.63186800  0.32289373  1.0
  Fe  Fe368  1  0.66666667  0.96520133  0.32289373  1.0
  Fe  Fe369  1  0.00000000  0.03479867  0.27014653  1.0
  Fe  Fe370  1  0.00000000  0.36813200  0.27014653  1.0
  Fe  Fe371  1  0.00000000  0.70146533  0.27014653  1.0
  Fe  Fe372  1  0.33333333  0.03479867  0.27014653  1.0
  Fe  Fe373  1  0.33333333  0.36813200  0.27014653  1.0
  Fe  Fe374  1  0.33333333  0.70146533  0.27014653  1.0
  Fe  Fe375  1  0.66666667  0.03479867  0.27014653  1.0
  Fe  Fe376  1  0.66666667  0.36813200  0.27014653  1.0
  Fe  Fe377  1  0.66666667  0.70146533  0.27014653  1.0
  Fe  Fe378  1  0.00000000  0.10043067  0.28327293  1.0
  Fe  Fe379  1  0.00000000  0.43376400  0.28327293  1.0
  Fe  Fe380  1  0.00000000  0.76709733  0.28327293  1.0
  Fe  Fe381  1  0.33333333  0.10043067  0.28327293  1.0
  Fe  Fe382  1  0.33333333  0.43376400  0.28327293  1.0
  Fe  Fe383  1  0.33333333  0.76709733  0.28327293  1.0
  Fe  Fe384  1  0.66666667  0.10043067  0.28327293  1.0
  Fe  Fe385  1  0.66666667  0.43376400  0.28327293  1.0
  Fe  Fe386  1  0.66666667  0.76709733  0.28327293  1.0
  Fe  Fe387  1  0.00000000  0.16666667  0.29652013  1.0
  Fe  Fe388  1  0.00000000  0.50000000  0.29652013  1.0
  Fe  Fe389  1  0.00000000  0.83333333  0.29652013  1.0
  Fe  Fe390  1  0.33333333  0.16666667  0.29652013  1.0
  Fe  Fe391  1  0.33333333  0.50000000  0.29652013  1.0
  Fe  Fe392  1  0.33333333  0.83333333  0.29652013  1.0
  Fe  Fe393  1  0.66666667  0.16666667  0.29652013  1.0
  Fe  Fe394  1  0.66666667  0.50000000  0.29652013  1.0
  Fe  Fe395  1  0.66666667  0.83333333  0.29652013  1.0
  Fe  Fe396  1  0.00000000  0.23290267  0.30976733  1.0
  Fe  Fe397  1  0.00000000  0.56623600  0.30976733  1.0
  Fe  Fe398  1  0.00000000  0.89956933  0.30976733  1.0
  Fe  Fe399  1  0.33333333  0.23290267  0.30976733  1.0
  Fe  Fe400  1  0.33333333  0.56623600  0.30976733  1.0
  Fe  Fe401  1  0.33333333  0.89956933  0.30976733  1.0
  Fe  Fe402  1  0.66666667  0.23290267  0.30976733  1.0
  Fe  Fe403  1  0.66666667  0.56623600  0.30976733  1.0
  Fe  Fe404  1  0.66666667  0.89956933  0.30976733  1.0
  Fe  Fe405  1  0.16666667  0.00000000  0.32985347  1.0
  Fe  Fe406  1  0.16666667  0.33333333  0.32985347  1.0
  Fe  Fe407  1  0.16666667  0.66666667  0.32985347  1.0
  Fe  Fe408  1  0.50000000  0.00000000  0.32985347  1.0
  Fe  Fe409  1  0.50000000  0.33333333  0.32985347  1.0
  Fe  Fe410  1  0.50000000  0.66666667  0.32985347  1.0
  Fe  Fe411  1  0.83333333  0.00000000  0.32985347  1.0
  Fe  Fe412  1  0.83333333  0.33333333  0.32985347  1.0
  Fe  Fe413  1  0.83333333  0.66666667  0.32985347  1.0
  Ni  Ni414  1  0.16666667  0.06762867  0.27671253  1.0
  Ni  Ni415  1  0.16666667  0.40096200  0.27671253  1.0
  Ni  Ni416  1  0.16666667  0.73429533  0.27671253  1.0
  Ni  Ni417  1  0.50000000  0.06762867  0.27671253  1.0
  Ni  Ni418  1  0.50000000  0.40096200  0.27671253  1.0
  Ni  Ni419  1  0.50000000  0.73429533  0.27671253  1.0
  Ni  Ni420  1  0.83333333  0.06762867  0.27671253  1.0
  Ni  Ni421  1  0.83333333  0.40096200  0.27671253  1.0
  Ni  Ni422  1  0.83333333  0.73429533  0.27671253  1.0
  Ni  Ni423  1  0.16666667  0.13339133  0.28986507  1.0
  Ni  Ni424  1  0.16666667  0.46672467  0.28986507  1.0
  Ni  Ni425  1  0.16666667  0.80005800  0.28986507  1.0
  Ni  Ni426  1  0.50000000  0.13339133  0.28986507  1.0
  Ni  Ni427  1  0.50000000  0.46672467  0.28986507  1.0
  Ni  Ni428  1  0.50000000  0.80005800  0.28986507  1.0
  Ni  Ni429  1  0.83333333  0.13339133  0.28986507  1.0
  Ni  Ni430  1  0.83333333  0.46672467  0.28986507  1.0
  Ni  Ni431  1  0.83333333  0.80005800  0.28986507  1.0
  Ni  Ni432  1  0.16666667  0.19994200  0.30317520  1.0
  Ni  Ni433  1  0.16666667  0.53327533  0.30317520  1.0
  Ni  Ni434  1  0.16666667  0.86660867  0.30317520  1.0
  Ni  Ni435  1  0.50000000  0.19994200  0.30317520  1.0
  Ni  Ni436  1  0.50000000  0.53327533  0.30317520  1.0
  Ni  Ni437  1  0.50000000  0.86660867  0.30317520  1.0
  Ni  Ni438  1  0.83333333  0.19994200  0.30317520  1.0
  Ni  Ni439  1  0.83333333  0.53327533  0.30317520  1.0
  Ni  Ni440  1  0.83333333  0.86660867  0.30317520  1.0
  Ni  Ni441  1  0.16666667  0.26570467  0.31632773  1.0
  Ni  Ni442  1  0.16666667  0.59903800  0.31632773  1.0
  Ni  Ni443  1  0.16666667  0.93237133  0.31632773  1.0
  Ni  Ni444  1  0.50000000  0.26570467  0.31632773  1.0
  Ni  Ni445  1  0.50000000  0.59903800  0.31632773  1.0
  Ni  Ni446  1  0.50000000  0.93237133  0.31632773  1.0
  Ni  Ni447  1  0.83333333  0.26570467  0.31632773  1.0
  Ni  Ni448  1  0.83333333  0.59903800  0.31632773  1.0
  Ni  Ni449  1  0.83333333  0.93237133  0.31632773  1.0
  Fe  Fe450  1  0.00000000  0.29853467  0.38956040  1.0
  Fe  Fe451  1  0.00000000  0.63186800  0.38956040  1.0
  Fe  Fe452  1  0.00000000  0.96520133  0.38956040  1.0
  Fe  Fe453  1  0.33333333  0.29853467  0.38956040  1.0
  Fe  Fe454  1  0.33333333  0.63186800  0.38956040  1.0
  Fe  Fe455  1  0.33333333  0.96520133  0.38956040  1.0
  Fe  Fe456  1  0.66666667  0.29853467  0.38956040  1.0
  Fe  Fe457  1  0.66666667  0.63186800  0.38956040  1.0
  Fe  Fe458  1  0.66666667  0.96520133  0.38956040  1.0
  Fe  Fe459  1  0.00000000  0.03479867  0.33681320  1.0
  Fe  Fe460  1  0.00000000  0.36813200  0.33681320  1.0
  Fe  Fe461  1  0.00000000  0.70146533  0.33681320  1.0
  Fe  Fe462  1  0.33333333  0.03479867  0.33681320  1.0
  Fe  Fe463  1  0.33333333  0.36813200  0.33681320  1.0
  Fe  Fe464  1  0.33333333  0.70146533  0.33681320  1.0
  Fe  Fe465  1  0.66666667  0.03479867  0.33681320  1.0
  Fe  Fe466  1  0.66666667  0.36813200  0.33681320  1.0
  Fe  Fe467  1  0.66666667  0.70146533  0.33681320  1.0
  Fe  Fe468  1  0.00000000  0.10043067  0.34993960  1.0
  Fe  Fe469  1  0.00000000  0.43376400  0.34993960  1.0
  Fe  Fe470  1  0.00000000  0.76709733  0.34993960  1.0
  Fe  Fe471  1  0.33333333  0.10043067  0.34993960  1.0
  Fe  Fe472  1  0.33333333  0.43376400  0.34993960  1.0
  Fe  Fe473  1  0.33333333  0.76709733  0.34993960  1.0
  Fe  Fe474  1  0.66666667  0.10043067  0.34993960  1.0
  Fe  Fe475  1  0.66666667  0.43376400  0.34993960  1.0
  Fe  Fe476  1  0.66666667  0.76709733  0.34993960  1.0
  Fe  Fe477  1  0.00000000  0.16666667  0.36318680  1.0
  Fe  Fe478  1  0.00000000  0.50000000  0.36318680  1.0
  Fe  Fe479  1  0.00000000  0.83333333  0.36318680  1.0
  Fe  Fe480  1  0.33333333  0.16666667  0.36318680  1.0
  Fe  Fe481  1  0.33333333  0.50000000  0.36318680  1.0
  Fe  Fe482  1  0.33333333  0.83333333  0.36318680  1.0
  Fe  Fe483  1  0.66666667  0.16666667  0.36318680  1.0
  Fe  Fe484  1  0.66666667  0.50000000  0.36318680  1.0
  Fe  Fe485  1  0.66666667  0.83333333  0.36318680  1.0
  Fe  Fe486  1  0.00000000  0.23290267  0.37643400  1.0
  Fe  Fe487  1  0.00000000  0.56623600  0.37643400  1.0
  Fe  Fe488  1  0.00000000  0.89956933  0.37643400  1.0
  Fe  Fe489  1  0.33333333  0.23290267  0.37643400  1.0
  Fe  Fe490  1  0.33333333  0.56623600  0.37643400  1.0
  Fe  Fe491  1  0.33333333  0.89956933  0.37643400  1.0
  Fe  Fe492  1  0.66666667  0.23290267  0.37643400  1.0
  Fe  Fe493  1  0.66666667  0.56623600  0.37643400  1.0
  Fe  Fe494  1  0.66666667  0.89956933  0.37643400  1.0
  Fe  Fe495  1  0.16666667  0.00000000  0.39652013  1.0
  Fe  Fe496  1  0.16666667  0.33333333  0.39652013  1.0
  Fe  Fe497  1  0.16666667  0.66666667  0.39652013  1.0
  Fe  Fe498  1  0.50000000  0.00000000  0.39652013  1.0
  Fe  Fe499  1  0.50000000  0.33333333  0.39652013  1.0
  Fe  Fe500  1  0.50000000  0.66666667  0.39652013  1.0
  Fe  Fe501  1  0.83333333  0.00000000  0.39652013  1.0
  Fe  Fe502  1  0.83333333  0.33333333  0.39652013  1.0
  Fe  Fe503  1  0.83333333  0.66666667  0.39652013  1.0
  Ni  Ni504  1  0.16666667  0.06762867  0.34337920  1.0
  Ni  Ni505  1  0.16666667  0.40096200  0.34337920  1.0
  Ni  Ni506  1  0.16666667  0.73429533  0.34337920  1.0
  Ni  Ni507  1  0.50000000  0.06762867  0.34337920  1.0
  Ni  Ni508  1  0.50000000  0.40096200  0.34337920  1.0
  Ni  Ni509  1  0.50000000  0.73429533  0.34337920  1.0
  Ni  Ni510  1  0.83333333  0.06762867  0.34337920  1.0
  Ni  Ni511  1  0.83333333  0.40096200  0.34337920  1.0
  Ni  Ni512  1  0.83333333  0.73429533  0.34337920  1.0
  Ni  Ni513  1  0.16666667  0.13339133  0.35653173  1.0
  Ni  Ni514  1  0.16666667  0.46672467  0.35653173  1.0
  Ni  Ni515  1  0.16666667  0.80005800  0.35653173  1.0
  Ni  Ni516  1  0.50000000  0.13339133  0.35653173  1.0
  Ni  Ni517  1  0.50000000  0.46672467  0.35653173  1.0
  Ni  Ni518  1  0.50000000  0.80005800  0.35653173  1.0
  Ni  Ni519  1  0.83333333  0.13339133  0.35653173  1.0
  Ni  Ni520  1  0.83333333  0.46672467  0.35653173  1.0
  Ni  Ni521  1  0.83333333  0.80005800  0.35653173  1.0
  Ni  Ni522  1  0.16666667  0.19994200  0.36984187  1.0
  Ni  Ni523  1  0.16666667  0.53327533  0.36984187  1.0
  Ni  Ni524  1  0.16666667  0.86660867  0.36984187  1.0
  Ni  Ni525  1  0.50000000  0.19994200  0.36984187  1.0
  Ni  Ni526  1  0.50000000  0.53327533  0.36984187  1.0
  Ni  Ni527  1  0.50000000  0.86660867  0.36984187  1.0
  Ni  Ni528  1  0.83333333  0.19994200  0.36984187  1.0
  Ni  Ni529  1  0.83333333  0.53327533  0.36984187  1.0
  Ni  Ni530  1  0.83333333  0.86660867  0.36984187  1.0
  Ni  Ni531  1  0.16666667  0.26570467  0.38299440  1.0
  Ni  Ni532  1  0.16666667  0.59903800  0.38299440  1.0
  Ni  Ni533  1  0.16666667  0.93237133  0.38299440  1.0
  Ni  Ni534  1  0.50000000  0.26570467  0.38299440  1.0
  Ni  Ni535  1  0.50000000  0.59903800  0.38299440  1.0
  Ni  Ni536  1  0.50000000  0.93237133  0.38299440  1.0
  Ni  Ni537  1  0.83333333  0.26570467  0.38299440  1.0
  Ni  Ni538  1  0.83333333  0.59903800  0.38299440  1.0
  Ni  Ni539  1  0.83333333  0.93237133  0.38299440  1.0
