# generated using pymatgen
data_Fe3Ni
_symmetry_space_group_name_H-M   'P 1'
_cell_length_a   14.96554168
_cell_length_b   10.58223600
_cell_length_c   35.90105144
_cell_angle_alpha   66.85777440
_cell_angle_beta   56.23368330
_cell_angle_gamma   44.99999999
_symmetry_Int_Tables_number   1
_chemical_formula_structural   Fe3Ni
_chemical_formula_sum   'Fe81 Ni27'
_cell_volume   3342.14871537
_cell_formula_units_Z   27
loop_
 _symmetry_equiv_pos_site_id
 _symmetry_equiv_pos_as_xyz
  1  'x, y, z'
loop_
 _atom_site_type_symbol
 _atom_site_label
 _atom_site_symmetry_multiplicity
 _atom_site_fract_x
 _atom_site_fract_y
 _atom_site_fract_z
 _atom_site_occupancy
  Fe  Fe0  1  0.16666667  0.00000000  0.09375000  1.0
  Fe  Fe1  1  0.16666667  0.33333333  0.09375000  1.0
  Fe  Fe2  1  0.16666667  0.66666667  0.09375000  1.0
  Fe  Fe3  1  0.50000000  0.00000000  0.09375000  1.0
  Fe  Fe4  1  0.50000000  0.33333333  0.09375000  1.0
  Fe  Fe5  1  0.50000000  0.66666667  0.09375000  1.0
  Fe  Fe6  1  0.83333333  0.00000000  0.09375000  1.0
  Fe  Fe7  1  0.83333333  0.33333333  0.09375000  1.0
  Fe  Fe8  1  0.83333333  0.66666667  0.09375000  1.0
  Fe  Fe9  1  0.08333333  0.16666667  0.03125000  1.0
  Fe  Fe10  1  0.08333333  0.50000000  0.03125000  1.0
  Fe  Fe11  1  0.08333333  0.83333333  0.03125000  1.0
  Fe  Fe12  1  0.41666667  0.16666667  0.03125000  1.0
  Fe  Fe13  1  0.41666667  0.50000000  0.03125000  1.0
  Fe  Fe14  1  0.41666667  0.83333333  0.03125000  1.0
  Fe  Fe15  1  0.75000000  0.16666667  0.03125000  1.0
  Fe  Fe16  1  0.75000000  0.50000000  0.03125000  1.0
  Fe  Fe17  1  0.75000000  0.83333333  0.03125000  1.0
  Fe  Fe18  1  0.25000000  0.16666667  0.03125000  1.0
  Fe  Fe19  1  0.25000000  0.50000000  0.03125000  1.0
  Fe  Fe20  1  0.25000000  0.83333333  0.03125000  1.0
  Fe  Fe21  1  0.58333333  0.16666667  0.03125000  1.0
  Fe  Fe22  1  0.58333333  0.50000000  0.03125000  1.0
  Fe  Fe23  1  0.58333333  0.83333333  0.03125000  1.0
  Fe  Fe24  1  0.91666667  0.16666667  0.03125000  1.0
  Fe  Fe25  1  0.91666667  0.50000000  0.03125000  1.0
  Fe  Fe26  1  0.91666667  0.83333333  0.03125000  1.0
  Ni  Ni27  1  0.00000000  0.00000000  0.09375000  1.0
  Ni  Ni28  1  0.00000000  0.33333333  0.09375000  1.0
  Ni  Ni29  1  0.00000000  0.66666667  0.09375000  1.0
  Ni  Ni30  1  0.33333333  0.00000000  0.09375000  1.0
  Ni  Ni31  1  0.33333333  0.33333333  0.09375000  1.0
  Ni  Ni32  1  0.33333333  0.66666667  0.09375000  1.0
  Ni  Ni33  1  0.66666667  0.00000000  0.09375000  1.0
  Ni  Ni34  1  0.66666667  0.33333333  0.09375000  1.0
  Ni  Ni35  1  0.66666667  0.66666667  0.09375000  1.0
  Fe  Fe36  1  0.16666667  0.00000000  0.21875000  1.0
  Fe  Fe37  1  0.16666667  0.33333333  0.21875000  1.0
  Fe  Fe38  1  0.16666667  0.66666667  0.21875000  1.0
  Fe  Fe39  1  0.50000000  0.00000000  0.21875000  1.0
  Fe  Fe40  1  0.50000000  0.33333333  0.21875000  1.0
  Fe  Fe41  1  0.50000000  0.66666667  0.21875000  1.0
  Fe  Fe42  1  0.83333333  0.00000000  0.21875000  1.0
  Fe  Fe43  1  0.83333333  0.33333333  0.21875000  1.0
  Fe  Fe44  1  0.83333333  0.66666667  0.21875000  1.0
  Fe  Fe45  1  0.08333333  0.16666667  0.15625000  1.0
  Fe  Fe46  1  0.08333333  0.50000000  0.15625000  1.0
  Fe  Fe47  1  0.08333333  0.83333333  0.15625000  1.0
  Fe  Fe48  1  0.41666667  0.16666667  0.15625000  1.0
  Fe  Fe49  1  0.41666667  0.50000000  0.15625000  1.0
  Fe  Fe50  1  0.41666667  0.83333333  0.15625000  1.0
  Fe  Fe51  1  0.75000000  0.16666667  0.15625000  1.0
  Fe  Fe52  1  0.75000000  0.50000000  0.15625000  1.0
  Fe  Fe53  1  0.75000000  0.83333333  0.15625000  1.0
  Fe  Fe54  1  0.25000000  0.16666667  0.15625000  1.0
  Fe  Fe55  1  0.25000000  0.50000000  0.15625000  1.0
  Fe  Fe56  1  0.25000000  0.83333333  0.15625000  1.0
  Fe  Fe57  1  0.58333333  0.16666667  0.15625000  1.0
  Fe  Fe58  1  0.58333333  0.50000000  0.15625000  1.0
  Fe  Fe59  1  0.58333333  0.83333333  0.15625000  1.0
  Fe  Fe60  1  0.91666667  0.16666667  0.15625000  1.0
  Fe  Fe61  1  0.91666667  0.50000000  0.15625000  1.0
  Fe  Fe62  1  0.91666667  0.83333333  0.15625000  1.0
  Ni  Ni63  1  0.00000000  0.00000000  0.21875000  1.0
  Ni  Ni64  1  0.00000000  0.33333333  0.21875000  1.0
  Ni  Ni65  1  0.00000000  0.66666667  0.21875000  1.0
  Ni  Ni66  1  0.33333333  0.00000000  0.21875000  1.0
  Ni  Ni67  1  0.33333333  0.33333333  0.21875000  1.0
  Ni  Ni68  1  0.33333333  0.66666667  0.21875000  1.0
  Ni  Ni69  1  0.66666667  0.00000000  0.21875000  1.0
  Ni  Ni70  1  0.66666667  0.33333333  0.21875000  1.0
  Ni  Ni71  1  0.66666667  0.66666667  0.21875000  1.0
  Fe  Fe72  1  0.16666667  0.00000000  0.34375000  1.0
  Fe  Fe73  1  0.16666667  0.33333333  0.34375000  1.0
  Fe  Fe74  1  0.16666667  0.66666667  0.34375000  1.0
  Fe  Fe75  1  0.50000000  0.00000000  0.34375000  1.0
  Fe  Fe76  1  0.50000000  0.33333333  0.34375000  1.0
  Fe  Fe77  1  0.50000000  0.66666667  0.34375000  1.0
  Fe  Fe78  1  0.83333333  0.00000000  0.34375000  1.0
  Fe  Fe79  1  0.83333333  0.33333333  0.34375000  1.0
  Fe  Fe80  1  0.83333333  0.66666667  0.34375000  1.0
  Fe  Fe81  1  0.08333333  0.16666667  0.28125000  1.0
  Fe  Fe82  1  0.08333333  0.50000000  0.28125000  1.0
  Fe  Fe83  1  0.08333333  0.83333333  0.28125000  1.0
  Fe  Fe84  1  0.41666667  0.16666667  0.28125000  1.0
  Fe  Fe85  1  0.41666667  0.50000000  0.28125000  1.0
  Fe  Fe86  1  0.41666667  0.83333333  0.28125000  1.0
  Fe  Fe87  1  0.75000000  0.16666667  0.28125000  1.0
  Fe  Fe88  1  0.75000000  0.50000000  0.28125000  1.0
  Fe  Fe89  1  0.75000000  0.83333333  0.28125000  1.0
  Fe  Fe90  1  0.25000000  0.16666667  0.28125000  1.0
  Fe  Fe91  1  0.25000000  0.50000000  0.28125000  1.0
  Fe  Fe92  1  0.25000000  0.83333333  0.28125000  1.0
  Fe  Fe93  1  0.58333333  0.16666667  0.28125000  1.0
  Fe  Fe94  1  0.58333333  0.50000000  0.28125000  1.0
  Fe  Fe95  1  0.58333333  0.83333333  0.28125000  1.0
  Fe  Fe96  1  0.91666667  0.16666667  0.28125000  1.0
  Fe  Fe97  1  0.91666667  0.50000000  0.28125000  1.0
  Fe  Fe98  1  0.91666667  0.83333333  0.28125000  1.0
  Ni  Ni99  1  0.00000000  0.00000000  0.34375000  1.0
  Ni  Ni100  1  0.00000000  0.33333333  0.34375000  1.0
  Ni  Ni101  1  0.00000000  0.66666667  0.34375000  1.0
  Ni  Ni102  1  0.33333333  0.00000000  0.34375000  1.0
  Ni  Ni103  1  0.33333333  0.33333333  0.34375000  1.0
  Ni  Ni104  1  0.33333333  0.66666667  0.34375000  1.0
  Ni  Ni105  1  0.66666667  0.00000000  0.34375000  1.0
  Ni  Ni106  1  0.66666667  0.33333333  0.34375000  1.0
  Ni  Ni107  1  0.66666667  0.66666667  0.34375000  1.0
