# generated using pymatgen
data_Fe3Ni
_symmetry_space_group_name_H-M   'P 1'
_cell_length_a   14.36033917
_cell_length_b   25.05299902
_cell_length_c   28.85365347
_cell_angle_alpha   96.49509185
_cell_angle_beta   92.87155491
_cell_angle_gamma   104.87685535
_symmetry_Int_Tables_number   1
_chemical_formula_structural   Fe3Ni
_chemical_formula_sum   'Fe270 Ni90'
_cell_volume   9934.40097672
_cell_formula_units_Z   90
loop_
 _symmetry_equiv_pos_site_id
 _symmetry_equiv_pos_as_xyz
  1  'x, y, z'
loop_
 _atom_site_type_symbol
 _atom_site_label
 _atom_site_symmetry_multiplicity
 _atom_site_fract_x
 _atom_site_fract_y
 _atom_site_fract_z
 _atom_site_occupancy
  Fe  Fe0  1  0.25359835  0.27288476  0.06764527  1.0
  Fe  Fe1  1  0.25359835  0.60621809  0.06764527  1.0
  Fe  Fe2  1  0.25359835  0.93955142  0.06764527  1.0
  Fe  Fe3  1  0.58693168  0.27288476  0.06764527  1.0
  Fe  Fe4  1  0.58693168  0.60621809  0.06764527  1.0
  Fe  Fe5  1  0.58693168  0.93955142  0.06764527  1.0
  Fe  Fe6  1  0.92026501  0.27288476  0.06764527  1.0
  Fe  Fe7  1  0.92026501  0.60621809  0.06764527  1.0
  Fe  Fe8  1  0.92026501  0.93955142  0.06764527  1.0
  Fe  Fe9  1  0.05915390  0.25899587  0.02597860  1.0
  Fe  Fe10  1  0.05915390  0.59232920  0.02597860  1.0
  Fe  Fe11  1  0.05915390  0.92566253  0.02597860  1.0
  Fe  Fe12  1  0.39248724  0.25899587  0.02597860  1.0
  Fe  Fe13  1  0.39248724  0.59232920  0.02597860  1.0
  Fe  Fe14  1  0.39248724  0.92566253  0.02597860  1.0
  Fe  Fe15  1  0.72582057  0.25899587  0.02597860  1.0
  Fe  Fe16  1  0.72582057  0.59232920  0.02597860  1.0
  Fe  Fe17  1  0.72582057  0.92566253  0.02597860  1.0
  Fe  Fe18  1  0.26040265  0.17186799  0.01560398  1.0
  Fe  Fe19  1  0.26040265  0.50520133  0.01560398  1.0
  Fe  Fe20  1  0.26040265  0.83853466  0.01560398  1.0
  Fe  Fe21  1  0.59373599  0.17186799  0.01560398  1.0
  Fe  Fe22  1  0.59373599  0.50520133  0.01560398  1.0
  Fe  Fe23  1  0.59373599  0.83853466  0.01560398  1.0
  Fe  Fe24  1  0.92706932  0.17186799  0.01560398  1.0
  Fe  Fe25  1  0.92706932  0.50520133  0.01560398  1.0
  Fe  Fe26  1  0.92706932  0.83853466  0.01560398  1.0
  Fe  Fe27  1  0.12151376  0.18575688  0.05727065  1.0
  Fe  Fe28  1  0.12151376  0.51909022  0.05727065  1.0
  Fe  Fe29  1  0.12151376  0.85242355  0.05727065  1.0
  Fe  Fe30  1  0.45484710  0.18575688  0.05727065  1.0
  Fe  Fe31  1  0.45484710  0.51909022  0.05727065  1.0
  Fe  Fe32  1  0.45484710  0.85242355  0.05727065  1.0
  Fe  Fe33  1  0.78818043  0.18575688  0.05727065  1.0
  Fe  Fe34  1  0.78818043  0.51909022  0.05727065  1.0
  Fe  Fe35  1  0.78818043  0.85242355  0.05727065  1.0
  Fe  Fe36  1  0.12831807  0.08474012  0.00522935  1.0
  Fe  Fe37  1  0.12831807  0.41807345  0.00522935  1.0
  Fe  Fe38  1  0.12831807  0.75140678  0.00522935  1.0
  Fe  Fe39  1  0.46165140  0.08474012  0.00522935  1.0
  Fe  Fe40  1  0.46165140  0.41807345  0.00522935  1.0
  Fe  Fe41  1  0.46165140  0.75140678  0.00522935  1.0
  Fe  Fe42  1  0.79498474  0.08474012  0.00522935  1.0
  Fe  Fe43  1  0.79498474  0.41807345  0.00522935  1.0
  Fe  Fe44  1  0.79498474  0.75140678  0.00522935  1.0
  Fe  Fe45  1  0.32276251  0.09862901  0.04689602  1.0
  Fe  Fe46  1  0.32276251  0.43196234  0.04689602  1.0
  Fe  Fe47  1  0.32276251  0.76529567  0.04689602  1.0
  Fe  Fe48  1  0.65609585  0.09862901  0.04689602  1.0
  Fe  Fe49  1  0.65609585  0.43196234  0.04689602  1.0
  Fe  Fe50  1  0.65609585  0.76529567  0.04689602  1.0
  Fe  Fe51  1  0.98942918  0.09862901  0.04689602  1.0
  Fe  Fe52  1  0.98942918  0.43196234  0.04689602  1.0
  Fe  Fe53  1  0.98942918  0.76529567  0.04689602  1.0
  Fe  Fe54  1  0.30915390  0.30066253  0.15097860  1.0
  Fe  Fe55  1  0.30915390  0.63399587  0.15097860  1.0
  Fe  Fe56  1  0.30915390  0.96732920  0.15097860  1.0
  Fe  Fe57  1  0.64248724  0.30066253  0.15097860  1.0
  Fe  Fe58  1  0.64248724  0.63399587  0.15097860  1.0
  Fe  Fe59  1  0.64248724  0.96732920  0.15097860  1.0
  Fe  Fe60  1  0.97582057  0.30066253  0.15097860  1.0
  Fe  Fe61  1  0.97582057  0.63399587  0.15097860  1.0
  Fe  Fe62  1  0.97582057  0.96732920  0.15097860  1.0
  Fe  Fe63  1  0.11470946  0.28677365  0.10931194  1.0
  Fe  Fe64  1  0.11470946  0.62010698  0.10931194  1.0
  Fe  Fe65  1  0.11470946  0.95344031  0.10931194  1.0
  Fe  Fe66  1  0.44804279  0.28677365  0.10931194  1.0
  Fe  Fe67  1  0.44804279  0.62010698  0.10931194  1.0
  Fe  Fe68  1  0.44804279  0.95344031  0.10931194  1.0
  Fe  Fe69  1  0.78137612  0.28677365  0.10931194  1.0
  Fe  Fe70  1  0.78137612  0.62010698  0.10931194  1.0
  Fe  Fe71  1  0.78137612  0.95344031  0.10931194  1.0
  Fe  Fe72  1  0.31595821  0.19964577  0.09893731  1.0
  Fe  Fe73  1  0.31595821  0.53297910  0.09893731  1.0
  Fe  Fe74  1  0.31595821  0.86631244  0.09893731  1.0
  Fe  Fe75  1  0.64929154  0.19964577  0.09893731  1.0
  Fe  Fe76  1  0.64929154  0.53297910  0.09893731  1.0
  Fe  Fe77  1  0.64929154  0.86631244  0.09893731  1.0
  Fe  Fe78  1  0.98262487  0.19964577  0.09893731  1.0
  Fe  Fe79  1  0.98262487  0.53297910  0.09893731  1.0
  Fe  Fe80  1  0.98262487  0.86631244  0.09893731  1.0
  Fe  Fe81  1  0.17706932  0.21353466  0.14060398  1.0
  Fe  Fe82  1  0.17706932  0.54686799  0.14060398  1.0
  Fe  Fe83  1  0.17706932  0.88020133  0.14060398  1.0
  Fe  Fe84  1  0.51040265  0.21353466  0.14060398  1.0
  Fe  Fe85  1  0.51040265  0.54686799  0.14060398  1.0
  Fe  Fe86  1  0.51040265  0.88020133  0.14060398  1.0
  Fe  Fe87  1  0.84373599  0.21353466  0.14060398  1.0
  Fe  Fe88  1  0.84373599  0.54686799  0.14060398  1.0
  Fe  Fe89  1  0.84373599  0.88020133  0.14060398  1.0
  Fe  Fe90  1  0.18387363  0.11251790  0.08856269  1.0
  Fe  Fe91  1  0.18387363  0.44585123  0.08856269  1.0
  Fe  Fe92  1  0.18387363  0.77918456  0.08856269  1.0
  Fe  Fe93  1  0.51720696  0.11251790  0.08856269  1.0
  Fe  Fe94  1  0.51720696  0.44585123  0.08856269  1.0
  Fe  Fe95  1  0.51720696  0.77918456  0.08856269  1.0
  Fe  Fe96  1  0.85054029  0.11251790  0.08856269  1.0
  Fe  Fe97  1  0.85054029  0.44585123  0.08856269  1.0
  Fe  Fe98  1  0.85054029  0.77918456  0.08856269  1.0
  Fe  Fe99  1  0.04498474  0.12640678  0.13022935  1.0
  Fe  Fe100  1  0.04498474  0.45974012  0.13022935  1.0
  Fe  Fe101  1  0.04498474  0.79307345  0.13022935  1.0
  Fe  Fe102  1  0.37831807  0.12640678  0.13022935  1.0
  Fe  Fe103  1  0.37831807  0.45974012  0.13022935  1.0
  Fe  Fe104  1  0.37831807  0.79307345  0.13022935  1.0
  Fe  Fe105  1  0.71165140  0.12640678  0.13022935  1.0
  Fe  Fe106  1  0.71165140  0.45974012  0.13022935  1.0
  Fe  Fe107  1  0.71165140  0.79307345  0.13022935  1.0
  Fe  Fe108  1  0.03137613  0.32844031  0.23431194  1.0
  Fe  Fe109  1  0.03137613  0.66177365  0.23431194  1.0
  Fe  Fe110  1  0.03137613  0.99510698  0.23431194  1.0
  Fe  Fe111  1  0.36470946  0.32844031  0.23431194  1.0
  Fe  Fe112  1  0.36470946  0.66177365  0.23431194  1.0
  Fe  Fe113  1  0.36470946  0.99510698  0.23431194  1.0
  Fe  Fe114  1  0.69804279  0.32844031  0.23431194  1.0
  Fe  Fe115  1  0.69804279  0.66177365  0.23431194  1.0
  Fe  Fe116  1  0.69804279  0.99510698  0.23431194  1.0
  Fe  Fe117  1  0.17026501  0.31455142  0.19264527  1.0
  Fe  Fe118  1  0.17026501  0.64788476  0.19264527  1.0
  Fe  Fe119  1  0.17026501  0.98121809  0.19264527  1.0
  Fe  Fe120  1  0.50359835  0.31455142  0.19264527  1.0
  Fe  Fe121  1  0.50359835  0.64788476  0.19264527  1.0
  Fe  Fe122  1  0.50359835  0.98121809  0.19264527  1.0
  Fe  Fe123  1  0.83693168  0.31455142  0.19264527  1.0
  Fe  Fe124  1  0.83693168  0.64788476  0.19264527  1.0
  Fe  Fe125  1  0.83693168  0.98121809  0.19264527  1.0
  Fe  Fe126  1  0.03818043  0.22742355  0.18227065  1.0
  Fe  Fe127  1  0.03818043  0.56075688  0.18227065  1.0
  Fe  Fe128  1  0.03818043  0.89409022  0.18227065  1.0
  Fe  Fe129  1  0.37151376  0.22742355  0.18227065  1.0
  Fe  Fe130  1  0.37151376  0.56075688  0.18227065  1.0
  Fe  Fe131  1  0.37151376  0.89409022  0.18227065  1.0
  Fe  Fe132  1  0.70484710  0.22742355  0.18227065  1.0
  Fe  Fe133  1  0.70484710  0.56075688  0.18227065  1.0
  Fe  Fe134  1  0.70484710  0.89409022  0.18227065  1.0
  Fe  Fe135  1  0.23262488  0.24131244  0.22393731  1.0
  Fe  Fe136  1  0.23262488  0.57464577  0.22393731  1.0
  Fe  Fe137  1  0.23262488  0.90797910  0.22393731  1.0
  Fe  Fe138  1  0.56595821  0.24131244  0.22393731  1.0
  Fe  Fe139  1  0.56595821  0.57464577  0.22393731  1.0
  Fe  Fe140  1  0.56595821  0.90797910  0.22393731  1.0
  Fe  Fe141  1  0.89929154  0.24131244  0.22393731  1.0
  Fe  Fe142  1  0.89929154  0.57464577  0.22393731  1.0
  Fe  Fe143  1  0.89929154  0.90797910  0.22393731  1.0
  Fe  Fe144  1  0.23942918  0.14029567  0.17189602  1.0
  Fe  Fe145  1  0.23942918  0.47362901  0.17189602  1.0
  Fe  Fe146  1  0.23942918  0.80696234  0.17189602  1.0
  Fe  Fe147  1  0.57276251  0.14029567  0.17189602  1.0
  Fe  Fe148  1  0.57276251  0.47362901  0.17189602  1.0
  Fe  Fe149  1  0.57276251  0.80696234  0.17189602  1.0
  Fe  Fe150  1  0.90609585  0.14029567  0.17189602  1.0
  Fe  Fe151  1  0.90609585  0.47362901  0.17189602  1.0
  Fe  Fe152  1  0.90609585  0.80696234  0.17189602  1.0
  Fe  Fe153  1  0.10054029  0.15418456  0.21356269  1.0
  Fe  Fe154  1  0.10054029  0.48751790  0.21356269  1.0
  Fe  Fe155  1  0.10054029  0.82085123  0.21356269  1.0
  Fe  Fe156  1  0.43387362  0.15418456  0.21356269  1.0
  Fe  Fe157  1  0.43387363  0.48751790  0.21356269  1.0
  Fe  Fe158  1  0.43387363  0.82085123  0.21356269  1.0
  Fe  Fe159  1  0.76720696  0.15418456  0.21356269  1.0
  Fe  Fe160  1  0.76720696  0.48751790  0.21356269  1.0
  Fe  Fe161  1  0.76720696  0.82085123  0.21356269  1.0
  Fe  Fe162  1  0.08693168  0.02288476  0.31764527  1.0
  Fe  Fe163  1  0.08693168  0.35621809  0.31764527  1.0
  Fe  Fe164  1  0.08693168  0.68955142  0.31764527  1.0
  Fe  Fe165  1  0.42026501  0.02288476  0.31764527  1.0
  Fe  Fe166  1  0.42026501  0.35621809  0.31764527  1.0
  Fe  Fe167  1  0.42026501  0.68955142  0.31764527  1.0
  Fe  Fe168  1  0.75359835  0.02288476  0.31764527  1.0
  Fe  Fe169  1  0.75359835  0.35621809  0.31764527  1.0
  Fe  Fe170  1  0.75359835  0.68955142  0.31764527  1.0
  Fe  Fe171  1  0.22582057  0.00899587  0.27597860  1.0
  Fe  Fe172  1  0.22582057  0.34232920  0.27597860  1.0
  Fe  Fe173  1  0.22582057  0.67566253  0.27597860  1.0
  Fe  Fe174  1  0.55915390  0.00899587  0.27597860  1.0
  Fe  Fe175  1  0.55915390  0.34232920  0.27597860  1.0
  Fe  Fe176  1  0.55915390  0.67566253  0.27597860  1.0
  Fe  Fe177  1  0.89248724  0.00899587  0.27597860  1.0
  Fe  Fe178  1  0.89248724  0.34232920  0.27597860  1.0
  Fe  Fe179  1  0.89248724  0.67566253  0.27597860  1.0
  Fe  Fe180  1  0.09373599  0.25520133  0.26560398  1.0
  Fe  Fe181  1  0.09373599  0.58853466  0.26560398  1.0
  Fe  Fe182  1  0.09373599  0.92186799  0.26560398  1.0
  Fe  Fe183  1  0.42706932  0.25520133  0.26560398  1.0
  Fe  Fe184  1  0.42706932  0.58853466  0.26560398  1.0
  Fe  Fe185  1  0.42706932  0.92186799  0.26560398  1.0
  Fe  Fe186  1  0.76040265  0.25520133  0.26560398  1.0
  Fe  Fe187  1  0.76040265  0.58853466  0.26560398  1.0
  Fe  Fe188  1  0.76040265  0.92186799  0.26560398  1.0
  Fe  Fe189  1  0.28818043  0.26909022  0.30727065  1.0
  Fe  Fe190  1  0.28818043  0.60242355  0.30727065  1.0
  Fe  Fe191  1  0.28818043  0.93575688  0.30727065  1.0
  Fe  Fe192  1  0.62151376  0.26909022  0.30727065  1.0
  Fe  Fe193  1  0.62151376  0.60242355  0.30727065  1.0
  Fe  Fe194  1  0.62151376  0.93575688  0.30727065  1.0
  Fe  Fe195  1  0.95484710  0.26909022  0.30727065  1.0
  Fe  Fe196  1  0.95484710  0.60242355  0.30727065  1.0
  Fe  Fe197  1  0.95484710  0.93575688  0.30727065  1.0
  Fe  Fe198  1  0.29498474  0.16807345  0.25522935  1.0
  Fe  Fe199  1  0.29498474  0.50140678  0.25522935  1.0
  Fe  Fe200  1  0.29498474  0.83474012  0.25522935  1.0
  Fe  Fe201  1  0.62831807  0.16807345  0.25522935  1.0
  Fe  Fe202  1  0.62831807  0.50140678  0.25522935  1.0
  Fe  Fe203  1  0.62831807  0.83474012  0.25522935  1.0
  Fe  Fe204  1  0.96165140  0.16807345  0.25522935  1.0
  Fe  Fe205  1  0.96165140  0.50140678  0.25522935  1.0
  Fe  Fe206  1  0.96165140  0.83474012  0.25522935  1.0
  Fe  Fe207  1  0.15609585  0.18196234  0.29689602  1.0
  Fe  Fe208  1  0.15609585  0.51529567  0.29689602  1.0
  Fe  Fe209  1  0.15609585  0.84862901  0.29689602  1.0
  Fe  Fe210  1  0.48942918  0.18196234  0.29689602  1.0
  Fe  Fe211  1  0.48942918  0.51529567  0.29689602  1.0
  Fe  Fe212  1  0.48942918  0.84862901  0.29689602  1.0
  Fe  Fe213  1  0.82276251  0.18196234  0.29689602  1.0
  Fe  Fe214  1  0.82276251  0.51529567  0.29689602  1.0
  Fe  Fe215  1  0.82276251  0.84862901  0.29689602  1.0
  Fe  Fe216  1  0.14248724  0.05066253  0.40097860  1.0
  Fe  Fe217  1  0.14248724  0.38399587  0.40097860  1.0
  Fe  Fe218  1  0.14248724  0.71732920  0.40097860  1.0
  Fe  Fe219  1  0.47582057  0.05066253  0.40097860  1.0
  Fe  Fe220  1  0.47582057  0.38399587  0.40097860  1.0
  Fe  Fe221  1  0.47582057  0.71732920  0.40097860  1.0
  Fe  Fe222  1  0.80915390  0.05066253  0.40097860  1.0
  Fe  Fe223  1  0.80915390  0.38399587  0.40097860  1.0
  Fe  Fe224  1  0.80915390  0.71732920  0.40097860  1.0
  Fe  Fe225  1  0.28137612  0.03677365  0.35931194  1.0
  Fe  Fe226  1  0.28137612  0.37010698  0.35931194  1.0
  Fe  Fe227  1  0.28137613  0.70344031  0.35931194  1.0
  Fe  Fe228  1  0.61470946  0.03677365  0.35931194  1.0
  Fe  Fe229  1  0.61470946  0.37010698  0.35931194  1.0
  Fe  Fe230  1  0.61470946  0.70344031  0.35931194  1.0
  Fe  Fe231  1  0.94804279  0.03677365  0.35931194  1.0
  Fe  Fe232  1  0.94804279  0.37010698  0.35931194  1.0
  Fe  Fe233  1  0.94804279  0.70344031  0.35931194  1.0
  Fe  Fe234  1  0.14929154  0.28297910  0.34893731  1.0
  Fe  Fe235  1  0.14929154  0.61631244  0.34893731  1.0
  Fe  Fe236  1  0.14929154  0.94964577  0.34893731  1.0
  Fe  Fe237  1  0.48262487  0.28297910  0.34893731  1.0
  Fe  Fe238  1  0.48262487  0.61631244  0.34893731  1.0
  Fe  Fe239  1  0.48262487  0.94964577  0.34893731  1.0
  Fe  Fe240  1  0.81595821  0.28297910  0.34893731  1.0
  Fe  Fe241  1  0.81595821  0.61631244  0.34893731  1.0
  Fe  Fe242  1  0.81595821  0.94964577  0.34893731  1.0
  Fe  Fe243  1  0.01040265  0.29686799  0.39060398  1.0
  Fe  Fe244  1  0.01040265  0.63020133  0.39060398  1.0
  Fe  Fe245  1  0.01040265  0.96353466  0.39060398  1.0
  Fe  Fe246  1  0.34373599  0.29686799  0.39060398  1.0
  Fe  Fe247  1  0.34373599  0.63020133  0.39060398  1.0
  Fe  Fe248  1  0.34373599  0.96353466  0.39060398  1.0
  Fe  Fe249  1  0.67706932  0.29686799  0.39060398  1.0
  Fe  Fe250  1  0.67706932  0.63020133  0.39060398  1.0
  Fe  Fe251  1  0.67706932  0.96353466  0.39060398  1.0
  Fe  Fe252  1  0.01720696  0.19585123  0.33856269  1.0
  Fe  Fe253  1  0.01720696  0.52918456  0.33856269  1.0
  Fe  Fe254  1  0.01720696  0.86251790  0.33856269  1.0
  Fe  Fe255  1  0.35054029  0.19585123  0.33856269  1.0
  Fe  Fe256  1  0.35054029  0.52918456  0.33856269  1.0
  Fe  Fe257  1  0.35054029  0.86251790  0.33856269  1.0
  Fe  Fe258  1  0.68387362  0.19585123  0.33856269  1.0
  Fe  Fe259  1  0.68387362  0.52918456  0.33856269  1.0
  Fe  Fe260  1  0.68387362  0.86251790  0.33856269  1.0
  Fe  Fe261  1  0.21165140  0.20974012  0.38022935  1.0
  Fe  Fe262  1  0.21165140  0.54307345  0.38022935  1.0
  Fe  Fe263  1  0.21165140  0.87640678  0.38022935  1.0
  Fe  Fe264  1  0.54498474  0.20974012  0.38022935  1.0
  Fe  Fe265  1  0.54498474  0.54307345  0.38022935  1.0
  Fe  Fe266  1  0.54498474  0.87640678  0.38022935  1.0
  Fe  Fe267  1  0.87831807  0.20974012  0.38022935  1.0
  Fe  Fe268  1  0.87831807  0.54307345  0.38022935  1.0
  Fe  Fe269  1  0.87831807  0.87640678  0.38022935  1.0
  Ni  Ni270  1  0.19095821  0.01214577  0.03643731  1.0
  Ni  Ni271  1  0.19095821  0.34547910  0.03643731  1.0
  Ni  Ni272  1  0.19095821  0.67881244  0.03643731  1.0
  Ni  Ni273  1  0.52429154  0.01214577  0.03643731  1.0
  Ni  Ni274  1  0.52429154  0.34547910  0.03643731  1.0
  Ni  Ni275  1  0.52429154  0.67881244  0.03643731  1.0
  Ni  Ni276  1  0.85762487  0.01214577  0.03643731  1.0
  Ni  Ni277  1  0.85762487  0.34547910  0.03643731  1.0
  Ni  Ni278  1  0.85762487  0.67881244  0.03643731  1.0
  Ni  Ni279  1  0.05206932  0.02603466  0.07810398  1.0
  Ni  Ni280  1  0.05206932  0.35936799  0.07810398  1.0
  Ni  Ni281  1  0.05206932  0.69270133  0.07810398  1.0
  Ni  Ni282  1  0.38540265  0.02603466  0.07810398  1.0
  Ni  Ni283  1  0.38540265  0.35936799  0.07810398  1.0
  Ni  Ni284  1  0.38540265  0.69270133  0.07810398  1.0
  Ni  Ni285  1  0.71873599  0.02603466  0.07810398  1.0
  Ni  Ni286  1  0.71873599  0.35936799  0.07810398  1.0
  Ni  Ni287  1  0.71873599  0.69270133  0.07810398  1.0
  Ni  Ni288  1  0.24651376  0.03992355  0.11977065  1.0
  Ni  Ni289  1  0.24651376  0.37325688  0.11977065  1.0
  Ni  Ni290  1  0.24651376  0.70659022  0.11977065  1.0
  Ni  Ni291  1  0.57984710  0.03992355  0.11977065  1.0
  Ni  Ni292  1  0.57984710  0.37325688  0.11977065  1.0
  Ni  Ni293  1  0.57984710  0.70659022  0.11977065  1.0
  Ni  Ni294  1  0.91318043  0.03992355  0.11977065  1.0
  Ni  Ni295  1  0.91318043  0.37325688  0.11977065  1.0
  Ni  Ni296  1  0.91318043  0.70659022  0.11977065  1.0
  Ni  Ni297  1  0.10762487  0.05381244  0.16143731  1.0
  Ni  Ni298  1  0.10762488  0.38714577  0.16143731  1.0
  Ni  Ni299  1  0.10762488  0.72047910  0.16143731  1.0
  Ni  Ni300  1  0.44095821  0.05381244  0.16143731  1.0
  Ni  Ni301  1  0.44095821  0.38714577  0.16143731  1.0
  Ni  Ni302  1  0.44095821  0.72047910  0.16143731  1.0
  Ni  Ni303  1  0.77429154  0.05381244  0.16143731  1.0
  Ni  Ni304  1  0.77429154  0.38714577  0.16143731  1.0
  Ni  Ni305  1  0.77429154  0.72047910  0.16143731  1.0
  Ni  Ni306  1  0.30206932  0.06770133  0.20310398  1.0
  Ni  Ni307  1  0.30206932  0.40103466  0.20310398  1.0
  Ni  Ni308  1  0.30206932  0.73436799  0.20310398  1.0
  Ni  Ni309  1  0.63540265  0.06770133  0.20310398  1.0
  Ni  Ni310  1  0.63540265  0.40103466  0.20310398  1.0
  Ni  Ni311  1  0.63540265  0.73436799  0.20310398  1.0
  Ni  Ni312  1  0.96873599  0.06770133  0.20310398  1.0
  Ni  Ni313  1  0.96873599  0.40103466  0.20310398  1.0
  Ni  Ni314  1  0.96873599  0.73436799  0.20310398  1.0
  Ni  Ni315  1  0.16318043  0.08159022  0.24477065  1.0
  Ni  Ni316  1  0.16318043  0.41492355  0.24477065  1.0
  Ni  Ni317  1  0.16318043  0.74825688  0.24477065  1.0
  Ni  Ni318  1  0.49651376  0.08159022  0.24477065  1.0
  Ni  Ni319  1  0.49651376  0.41492355  0.24477065  1.0
  Ni  Ni320  1  0.49651376  0.74825688  0.24477065  1.0
  Ni  Ni321  1  0.82984710  0.08159022  0.24477065  1.0
  Ni  Ni322  1  0.82984710  0.41492355  0.24477065  1.0
  Ni  Ni323  1  0.82984710  0.74825688  0.24477065  1.0
  Ni  Ni324  1  0.02429154  0.09547910  0.28643731  1.0
  Ni  Ni325  1  0.02429154  0.42881244  0.28643731  1.0
  Ni  Ni326  1  0.02429154  0.76214577  0.28643731  1.0
  Ni  Ni327  1  0.35762487  0.09547910  0.28643731  1.0
  Ni  Ni328  1  0.35762487  0.42881244  0.28643731  1.0
  Ni  Ni329  1  0.35762487  0.76214577  0.28643731  1.0
  Ni  Ni330  1  0.69095821  0.09547910  0.28643731  1.0
  Ni  Ni331  1  0.69095821  0.42881244  0.28643731  1.0
  Ni  Ni332  1  0.69095821  0.76214577  0.28643731  1.0
  Ni  Ni333  1  0.21873599  0.10936799  0.32810398  1.0
  Ni  Ni334  1  0.21873599  0.44270133  0.32810398  1.0
  Ni  Ni335  1  0.21873599  0.77603466  0.32810398  1.0
  Ni  Ni336  1  0.55206932  0.10936799  0.32810398  1.0
  Ni  Ni337  1  0.55206932  0.44270133  0.32810398  1.0
  Ni  Ni338  1  0.55206932  0.77603466  0.32810398  1.0
  Ni  Ni339  1  0.88540265  0.10936799  0.32810398  1.0
  Ni  Ni340  1  0.88540265  0.44270133  0.32810398  1.0
  Ni  Ni341  1  0.88540265  0.77603466  0.32810398  1.0
  Ni  Ni342  1  0.07984710  0.12325688  0.36977065  1.0
  Ni  Ni343  1  0.07984710  0.45659022  0.36977065  1.0
  Ni  Ni344  1  0.07984710  0.78992355  0.36977065  1.0
  Ni  Ni345  1  0.41318043  0.12325688  0.36977065  1.0
  Ni  Ni346  1  0.41318043  0.45659022  0.36977065  1.0
  Ni  Ni347  1  0.41318043  0.78992355  0.36977065  1.0
  Ni  Ni348  1  0.74651376  0.12325688  0.36977065  1.0
  Ni  Ni349  1  0.74651376  0.45659022  0.36977065  1.0
  Ni  Ni350  1  0.74651376  0.78992355  0.36977065  1.0
  Ni  Ni351  1  0.27429154  0.13714577  0.41143731  1.0
  Ni  Ni352  1  0.27429154  0.47047910  0.41143731  1.0
  Ni  Ni353  1  0.27429154  0.80381244  0.41143731  1.0
  Ni  Ni354  1  0.60762487  0.13714577  0.41143731  1.0
  Ni  Ni355  1  0.60762487  0.47047910  0.41143731  1.0
  Ni  Ni356  1  0.60762487  0.80381244  0.41143731  1.0
  Ni  Ni357  1  0.94095821  0.13714577  0.41143731  1.0
  Ni  Ni358  1  0.94095821  0.47047910  0.41143731  1.0
  Ni  Ni359  1  0.94095821  0.80381244  0.41143731  1.0
