# generated using pymatgen
data_Fe3Ni
_symmetry_space_group_name_H-M   'P 1'
_cell_length_a   12.10301928
_cell_length_b   29.64622158
_cell_length_c   27.95072576
_cell_angle_alpha   90.00000000
_cell_angle_beta   90.00000000
_cell_angle_gamma   90.00000000
_symmetry_Int_Tables_number   1
_chemical_formula_structural   Fe3Ni
_chemical_formula_sum   'Fe270 Ni90'
_cell_volume   10028.96612769
_cell_formula_units_Z   90
loop_
 _symmetry_equiv_pos_site_id
 _symmetry_equiv_pos_as_xyz
  1  'x, y, z'
loop_
 _atom_site_type_symbol
 _atom_site_label
 _atom_site_symmetry_multiplicity
 _atom_site_fract_x
 _atom_site_fract_y
 _atom_site_fract_z
 _atom_site_occupancy
  Fe  Fe0  1  0.33333333  0.33333333  0.06250000  1.0
  Fe  Fe1  1  0.33333333  0.66666667  0.06250000  1.0
  Fe  Fe2  1  0.33333333  1.00000000  0.06250000  1.0
  Fe  Fe3  1  0.66666667  0.33333333  0.06250000  1.0
  Fe  Fe4  1  0.66666667  0.66666667  0.06250000  1.0
  Fe  Fe5  1  0.66666667  1.00000000  0.06250000  1.0
  Fe  Fe6  1  1.00000000  0.33333333  0.06250000  1.0
  Fe  Fe7  1  0.00000000  0.66666667  0.06250000  1.0
  Fe  Fe8  1  0.00000000  1.00000000  0.06250000  1.0
  Fe  Fe9  1  0.16666667  0.11111111  0.02083333  1.0
  Fe  Fe10  1  0.16666667  0.44444444  0.02083333  1.0
  Fe  Fe11  1  0.16666667  0.77777778  0.02083333  1.0
  Fe  Fe12  1  0.50000000  0.11111111  0.02083333  1.0
  Fe  Fe13  1  0.50000000  0.44444444  0.02083333  1.0
  Fe  Fe14  1  0.50000000  0.77777778  0.02083333  1.0
  Fe  Fe15  1  0.83333333  0.11111111  0.02083333  1.0
  Fe  Fe16  1  0.83333333  0.44444444  0.02083333  1.0
  Fe  Fe17  1  0.83333333  0.77777778  0.02083333  1.0
  Fe  Fe18  1  0.00000000  0.16666667  0.06250000  1.0
  Fe  Fe19  1  0.00000000  0.50000000  0.06250000  1.0
  Fe  Fe20  1  0.00000000  0.83333333  0.06250000  1.0
  Fe  Fe21  1  0.33333333  0.16666667  0.06250000  1.0
  Fe  Fe22  1  0.33333333  0.50000000  0.06250000  1.0
  Fe  Fe23  1  0.33333333  0.83333333  0.06250000  1.0
  Fe  Fe24  1  0.66666667  0.16666667  0.06250000  1.0
  Fe  Fe25  1  0.66666667  0.50000000  0.06250000  1.0
  Fe  Fe26  1  0.66666667  0.83333333  0.06250000  1.0
  Fe  Fe27  1  0.16666667  0.27777778  0.02083333  1.0
  Fe  Fe28  1  0.16666667  0.61111111  0.02083333  1.0
  Fe  Fe29  1  0.16666667  0.94444444  0.02083333  1.0
  Fe  Fe30  1  0.50000000  0.27777778  0.02083333  1.0
  Fe  Fe31  1  0.50000000  0.61111111  0.02083333  1.0
  Fe  Fe32  1  0.50000000  0.94444444  0.02083333  1.0
  Fe  Fe33  1  0.83333333  0.27777778  0.02083333  1.0
  Fe  Fe34  1  0.83333333  0.61111111  0.02083333  1.0
  Fe  Fe35  1  0.83333333  0.94444444  0.02083333  1.0
  Fe  Fe36  1  0.00000000  0.25000000  0.06250000  1.0
  Fe  Fe37  1  0.00000000  0.58333333  0.06250000  1.0
  Fe  Fe38  1  0.00000000  0.91666667  0.06250000  1.0
  Fe  Fe39  1  0.33333333  0.25000000  0.06250000  1.0
  Fe  Fe40  1  0.33333333  0.58333333  0.06250000  1.0
  Fe  Fe41  1  0.33333333  0.91666667  0.06250000  1.0
  Fe  Fe42  1  0.66666667  0.25000000  0.06250000  1.0
  Fe  Fe43  1  0.66666667  0.58333333  0.06250000  1.0
  Fe  Fe44  1  0.66666667  0.91666667  0.06250000  1.0
  Fe  Fe45  1  0.16666667  0.02777778  0.02083333  1.0
  Fe  Fe46  1  0.16666667  0.36111111  0.02083333  1.0
  Fe  Fe47  1  0.16666667  0.69444444  0.02083333  1.0
  Fe  Fe48  1  0.50000000  0.02777778  0.02083333  1.0
  Fe  Fe49  1  0.50000000  0.36111111  0.02083333  1.0
  Fe  Fe50  1  0.50000000  0.69444444  0.02083333  1.0
  Fe  Fe51  1  0.83333333  0.02777778  0.02083333  1.0
  Fe  Fe52  1  0.83333333  0.36111111  0.02083333  1.0
  Fe  Fe53  1  0.83333333  0.69444444  0.02083333  1.0
  Fe  Fe54  1  0.33333333  0.11111111  0.14583333  1.0
  Fe  Fe55  1  0.33333333  0.44444444  0.14583333  1.0
  Fe  Fe56  1  0.33333333  0.77777778  0.14583333  1.0
  Fe  Fe57  1  0.66666667  0.11111111  0.14583333  1.0
  Fe  Fe58  1  0.66666667  0.44444444  0.14583333  1.0
  Fe  Fe59  1  0.66666667  0.77777778  0.14583333  1.0
  Fe  Fe60  1  0.00000000  0.11111111  0.14583333  1.0
  Fe  Fe61  1  1.00000000  0.44444444  0.14583333  1.0
  Fe  Fe62  1  0.00000000  0.77777778  0.14583333  1.0
  Fe  Fe63  1  0.16666667  0.22222222  0.10416667  1.0
  Fe  Fe64  1  0.16666667  0.55555556  0.10416667  1.0
  Fe  Fe65  1  0.16666667  0.88888889  0.10416667  1.0
  Fe  Fe66  1  0.50000000  0.22222222  0.10416667  1.0
  Fe  Fe67  1  0.50000000  0.55555556  0.10416667  1.0
  Fe  Fe68  1  0.50000000  0.88888889  0.10416667  1.0
  Fe  Fe69  1  0.83333333  0.22222222  0.10416667  1.0
  Fe  Fe70  1  0.83333333  0.55555556  0.10416667  1.0
  Fe  Fe71  1  0.83333333  0.88888889  0.10416667  1.0
  Fe  Fe72  1  0.00000000  0.27777778  0.14583333  1.0
  Fe  Fe73  1  0.00000000  0.61111111  0.14583333  1.0
  Fe  Fe74  1  0.00000000  0.94444444  0.14583333  1.0
  Fe  Fe75  1  0.33333333  0.27777778  0.14583333  1.0
  Fe  Fe76  1  0.33333333  0.61111111  0.14583333  1.0
  Fe  Fe77  1  0.33333333  0.94444444  0.14583333  1.0
  Fe  Fe78  1  0.66666667  0.27777778  0.14583333  1.0
  Fe  Fe79  1  0.66666667  0.61111111  0.14583333  1.0
  Fe  Fe80  1  0.66666667  0.94444444  0.14583333  1.0
  Fe  Fe81  1  0.16666667  0.05555556  0.10416667  1.0
  Fe  Fe82  1  0.16666667  0.38888889  0.10416667  1.0
  Fe  Fe83  1  0.16666667  0.72222222  0.10416667  1.0
  Fe  Fe84  1  0.50000000  0.05555556  0.10416667  1.0
  Fe  Fe85  1  0.50000000  0.38888889  0.10416667  1.0
  Fe  Fe86  1  0.50000000  0.72222222  0.10416667  1.0
  Fe  Fe87  1  0.83333333  0.05555556  0.10416667  1.0
  Fe  Fe88  1  0.83333333  0.38888889  0.10416667  1.0
  Fe  Fe89  1  0.83333333  0.72222222  0.10416667  1.0
  Fe  Fe90  1  0.00000000  0.02777778  0.14583333  1.0
  Fe  Fe91  1  0.00000000  0.36111111  0.14583333  1.0
  Fe  Fe92  1  0.00000000  0.69444444  0.14583333  1.0
  Fe  Fe93  1  0.33333333  0.02777778  0.14583333  1.0
  Fe  Fe94  1  0.33333333  0.36111111  0.14583333  1.0
  Fe  Fe95  1  0.33333333  0.69444444  0.14583333  1.0
  Fe  Fe96  1  0.66666667  0.02777778  0.14583333  1.0
  Fe  Fe97  1  0.66666667  0.36111111  0.14583333  1.0
  Fe  Fe98  1  0.66666667  0.69444444  0.14583333  1.0
  Fe  Fe99  1  0.16666667  0.13888889  0.10416667  1.0
  Fe  Fe100  1  0.16666667  0.47222222  0.10416667  1.0
  Fe  Fe101  1  0.16666667  0.80555556  0.10416667  1.0
  Fe  Fe102  1  0.50000000  0.13888889  0.10416667  1.0
  Fe  Fe103  1  0.50000000  0.47222222  0.10416667  1.0
  Fe  Fe104  1  0.50000000  0.80555556  0.10416667  1.0
  Fe  Fe105  1  0.83333333  0.13888889  0.10416667  1.0
  Fe  Fe106  1  0.83333333  0.47222222  0.10416667  1.0
  Fe  Fe107  1  0.83333333  0.80555556  0.10416667  1.0
  Fe  Fe108  1  0.33333333  0.22222222  0.22916667  1.0
  Fe  Fe109  1  0.33333333  0.55555556  0.22916667  1.0
  Fe  Fe110  1  0.33333333  0.88888889  0.22916667  1.0
  Fe  Fe111  1  0.66666667  0.22222222  0.22916667  1.0
  Fe  Fe112  1  0.66666667  0.55555556  0.22916667  1.0
  Fe  Fe113  1  0.66666667  0.88888889  0.22916667  1.0
  Fe  Fe114  1  1.00000000  0.22222222  0.22916667  1.0
  Fe  Fe115  1  1.00000000  0.55555556  0.22916667  1.0
  Fe  Fe116  1  0.00000000  0.88888889  0.22916667  1.0
  Fe  Fe117  1  0.16666667  0.33333333  0.18750000  1.0
  Fe  Fe118  1  0.16666667  0.66666667  0.18750000  1.0
  Fe  Fe119  1  0.16666667  1.00000000  0.18750000  1.0
  Fe  Fe120  1  0.50000000  0.33333333  0.18750000  1.0
  Fe  Fe121  1  0.50000000  0.66666667  0.18750000  1.0
  Fe  Fe122  1  0.50000000  1.00000000  0.18750000  1.0
  Fe  Fe123  1  0.83333333  0.33333333  0.18750000  1.0
  Fe  Fe124  1  0.83333333  0.66666667  0.18750000  1.0
  Fe  Fe125  1  0.83333333  1.00000000  0.18750000  1.0
  Fe  Fe126  1  0.00000000  0.05555556  0.22916667  1.0
  Fe  Fe127  1  0.00000000  0.38888889  0.22916667  1.0
  Fe  Fe128  1  0.00000000  0.72222222  0.22916667  1.0
  Fe  Fe129  1  0.33333333  0.05555556  0.22916667  1.0
  Fe  Fe130  1  0.33333333  0.38888889  0.22916667  1.0
  Fe  Fe131  1  0.33333333  0.72222222  0.22916667  1.0
  Fe  Fe132  1  0.66666667  0.05555556  0.22916667  1.0
  Fe  Fe133  1  0.66666667  0.38888889  0.22916667  1.0
  Fe  Fe134  1  0.66666667  0.72222222  0.22916667  1.0
  Fe  Fe135  1  0.16666667  0.16666667  0.18750000  1.0
  Fe  Fe136  1  0.16666667  0.50000000  0.18750000  1.0
  Fe  Fe137  1  0.16666667  0.83333333  0.18750000  1.0
  Fe  Fe138  1  0.50000000  0.16666667  0.18750000  1.0
  Fe  Fe139  1  0.50000000  0.50000000  0.18750000  1.0
  Fe  Fe140  1  0.50000000  0.83333333  0.18750000  1.0
  Fe  Fe141  1  0.83333333  0.16666667  0.18750000  1.0
  Fe  Fe142  1  0.83333333  0.50000000  0.18750000  1.0
  Fe  Fe143  1  0.83333333  0.83333333  0.18750000  1.0
  Fe  Fe144  1  0.00000000  0.13888889  0.22916667  1.0
  Fe  Fe145  1  0.00000000  0.47222222  0.22916667  1.0
  Fe  Fe146  1  0.00000000  0.80555556  0.22916667  1.0
  Fe  Fe147  1  0.33333333  0.13888889  0.22916667  1.0
  Fe  Fe148  1  0.33333333  0.47222222  0.22916667  1.0
  Fe  Fe149  1  0.33333333  0.80555556  0.22916667  1.0
  Fe  Fe150  1  0.66666667  0.13888889  0.22916667  1.0
  Fe  Fe151  1  0.66666667  0.47222222  0.22916667  1.0
  Fe  Fe152  1  0.66666667  0.80555556  0.22916667  1.0
  Fe  Fe153  1  0.16666667  0.25000000  0.18750000  1.0
  Fe  Fe154  1  0.16666667  0.58333333  0.18750000  1.0
  Fe  Fe155  1  0.16666667  0.91666667  0.18750000  1.0
  Fe  Fe156  1  0.50000000  0.25000000  0.18750000  1.0
  Fe  Fe157  1  0.50000000  0.58333333  0.18750000  1.0
  Fe  Fe158  1  0.50000000  0.91666667  0.18750000  1.0
  Fe  Fe159  1  0.83333333  0.25000000  0.18750000  1.0
  Fe  Fe160  1  0.83333333  0.58333333  0.18750000  1.0
  Fe  Fe161  1  0.83333333  0.91666667  0.18750000  1.0
  Fe  Fe162  1  0.00000000  0.00000000  0.31250000  1.0
  Fe  Fe163  1  0.00000000  0.33333333  0.31250000  1.0
  Fe  Fe164  1  0.00000000  0.66666667  0.31250000  1.0
  Fe  Fe165  1  0.33333333  0.00000000  0.31250000  1.0
  Fe  Fe166  1  0.33333333  0.33333333  0.31250000  1.0
  Fe  Fe167  1  0.33333333  0.66666667  0.31250000  1.0
  Fe  Fe168  1  0.66666667  0.00000000  0.31250000  1.0
  Fe  Fe169  1  0.66666667  0.33333333  0.31250000  1.0
  Fe  Fe170  1  0.66666667  0.66666667  0.31250000  1.0
  Fe  Fe171  1  0.16666667  0.11111111  0.27083333  1.0
  Fe  Fe172  1  0.16666667  0.44444444  0.27083333  1.0
  Fe  Fe173  1  0.16666667  0.77777778  0.27083333  1.0
  Fe  Fe174  1  0.50000000  0.11111111  0.27083333  1.0
  Fe  Fe175  1  0.50000000  0.44444444  0.27083333  1.0
  Fe  Fe176  1  0.50000000  0.77777778  0.27083333  1.0
  Fe  Fe177  1  0.83333333  0.11111111  0.27083333  1.0
  Fe  Fe178  1  0.83333333  0.44444444  0.27083333  1.0
  Fe  Fe179  1  0.83333333  0.77777778  0.27083333  1.0
  Fe  Fe180  1  0.00000000  0.16666667  0.31250000  1.0
  Fe  Fe181  1  0.00000000  0.50000000  0.31250000  1.0
  Fe  Fe182  1  0.00000000  0.83333333  0.31250000  1.0
  Fe  Fe183  1  0.33333333  0.16666667  0.31250000  1.0
  Fe  Fe184  1  0.33333333  0.50000000  0.31250000  1.0
  Fe  Fe185  1  0.33333333  0.83333333  0.31250000  1.0
  Fe  Fe186  1  0.66666667  0.16666667  0.31250000  1.0
  Fe  Fe187  1  0.66666667  0.50000000  0.31250000  1.0
  Fe  Fe188  1  0.66666667  0.83333333  0.31250000  1.0
  Fe  Fe189  1  0.16666667  0.27777778  0.27083333  1.0
  Fe  Fe190  1  0.16666667  0.61111111  0.27083333  1.0
  Fe  Fe191  1  0.16666667  0.94444444  0.27083333  1.0
  Fe  Fe192  1  0.50000000  0.27777778  0.27083333  1.0
  Fe  Fe193  1  0.50000000  0.61111111  0.27083333  1.0
  Fe  Fe194  1  0.50000000  0.94444444  0.27083333  1.0
  Fe  Fe195  1  0.83333333  0.27777778  0.27083333  1.0
  Fe  Fe196  1  0.83333333  0.61111111  0.27083333  1.0
  Fe  Fe197  1  0.83333333  0.94444444  0.27083333  1.0
  Fe  Fe198  1  0.00000000  0.25000000  0.31250000  1.0
  Fe  Fe199  1  0.00000000  0.58333333  0.31250000  1.0
  Fe  Fe200  1  0.00000000  0.91666667  0.31250000  1.0
  Fe  Fe201  1  0.33333333  0.25000000  0.31250000  1.0
  Fe  Fe202  1  0.33333333  0.58333333  0.31250000  1.0
  Fe  Fe203  1  0.33333333  0.91666667  0.31250000  1.0
  Fe  Fe204  1  0.66666667  0.25000000  0.31250000  1.0
  Fe  Fe205  1  0.66666667  0.58333333  0.31250000  1.0
  Fe  Fe206  1  0.66666667  0.91666667  0.31250000  1.0
  Fe  Fe207  1  0.16666667  0.02777778  0.27083333  1.0
  Fe  Fe208  1  0.16666667  0.36111111  0.27083333  1.0
  Fe  Fe209  1  0.16666667  0.69444444  0.27083333  1.0
  Fe  Fe210  1  0.50000000  0.02777778  0.27083333  1.0
  Fe  Fe211  1  0.50000000  0.36111111  0.27083333  1.0
  Fe  Fe212  1  0.50000000  0.69444444  0.27083333  1.0
  Fe  Fe213  1  0.83333333  0.02777778  0.27083333  1.0
  Fe  Fe214  1  0.83333333  0.36111111  0.27083333  1.0
  Fe  Fe215  1  0.83333333  0.69444444  0.27083333  1.0
  Fe  Fe216  1  0.33333333  0.11111111  0.39583333  1.0
  Fe  Fe217  1  0.33333333  0.44444444  0.39583333  1.0
  Fe  Fe218  1  0.33333333  0.77777778  0.39583333  1.0
  Fe  Fe219  1  0.66666667  0.11111111  0.39583333  1.0
  Fe  Fe220  1  0.66666667  0.44444444  0.39583333  1.0
  Fe  Fe221  1  0.66666667  0.77777778  0.39583333  1.0
  Fe  Fe222  1  0.00000000  0.11111111  0.39583333  1.0
  Fe  Fe223  1  1.00000000  0.44444444  0.39583333  1.0
  Fe  Fe224  1  1.00000000  0.77777778  0.39583333  1.0
  Fe  Fe225  1  0.16666667  0.22222222  0.35416667  1.0
  Fe  Fe226  1  0.16666667  0.55555556  0.35416667  1.0
  Fe  Fe227  1  0.16666667  0.88888889  0.35416667  1.0
  Fe  Fe228  1  0.50000000  0.22222222  0.35416667  1.0
  Fe  Fe229  1  0.50000000  0.55555556  0.35416667  1.0
  Fe  Fe230  1  0.50000000  0.88888889  0.35416667  1.0
  Fe  Fe231  1  0.83333333  0.22222222  0.35416667  1.0
  Fe  Fe232  1  0.83333333  0.55555556  0.35416667  1.0
  Fe  Fe233  1  0.83333333  0.88888889  0.35416667  1.0
  Fe  Fe234  1  0.00000000  0.27777778  0.39583333  1.0
  Fe  Fe235  1  0.00000000  0.61111111  0.39583333  1.0
  Fe  Fe236  1  0.00000000  0.94444444  0.39583333  1.0
  Fe  Fe237  1  0.33333333  0.27777778  0.39583333  1.0
  Fe  Fe238  1  0.33333333  0.61111111  0.39583333  1.0
  Fe  Fe239  1  0.33333333  0.94444444  0.39583333  1.0
  Fe  Fe240  1  0.66666667  0.27777778  0.39583333  1.0
  Fe  Fe241  1  0.66666667  0.61111111  0.39583333  1.0
  Fe  Fe242  1  0.66666667  0.94444444  0.39583333  1.0
  Fe  Fe243  1  0.16666667  0.05555556  0.35416667  1.0
  Fe  Fe244  1  0.16666667  0.38888889  0.35416667  1.0
  Fe  Fe245  1  0.16666667  0.72222222  0.35416667  1.0
  Fe  Fe246  1  0.50000000  0.05555556  0.35416667  1.0
  Fe  Fe247  1  0.50000000  0.38888889  0.35416667  1.0
  Fe  Fe248  1  0.50000000  0.72222222  0.35416667  1.0
  Fe  Fe249  1  0.83333333  0.05555556  0.35416667  1.0
  Fe  Fe250  1  0.83333333  0.38888889  0.35416667  1.0
  Fe  Fe251  1  0.83333333  0.72222222  0.35416667  1.0
  Fe  Fe252  1  0.00000000  0.02777778  0.39583333  1.0
  Fe  Fe253  1  0.00000000  0.36111111  0.39583333  1.0
  Fe  Fe254  1  0.00000000  0.69444444  0.39583333  1.0
  Fe  Fe255  1  0.33333333  0.02777778  0.39583333  1.0
  Fe  Fe256  1  0.33333333  0.36111111  0.39583333  1.0
  Fe  Fe257  1  0.33333333  0.69444444  0.39583333  1.0
  Fe  Fe258  1  0.66666667  0.02777778  0.39583333  1.0
  Fe  Fe259  1  0.66666667  0.36111111  0.39583333  1.0
  Fe  Fe260  1  0.66666667  0.69444444  0.39583333  1.0
  Fe  Fe261  1  0.16666667  0.13888889  0.35416667  1.0
  Fe  Fe262  1  0.16666667  0.47222222  0.35416667  1.0
  Fe  Fe263  1  0.16666667  0.80555556  0.35416667  1.0
  Fe  Fe264  1  0.50000000  0.13888889  0.35416667  1.0
  Fe  Fe265  1  0.50000000  0.47222222  0.35416667  1.0
  Fe  Fe266  1  0.50000000  0.80555556  0.35416667  1.0
  Fe  Fe267  1  0.83333333  0.13888889  0.35416667  1.0
  Fe  Fe268  1  0.83333333  0.47222222  0.35416667  1.0
  Fe  Fe269  1  0.83333333  0.80555556  0.35416667  1.0
  Ni  Ni270  1  0.33333333  0.08333333  0.06250000  1.0
  Ni  Ni271  1  0.33333333  0.41666667  0.06250000  1.0
  Ni  Ni272  1  0.33333333  0.75000000  0.06250000  1.0
  Ni  Ni273  1  0.66666667  0.08333333  0.06250000  1.0
  Ni  Ni274  1  0.66666667  0.41666667  0.06250000  1.0
  Ni  Ni275  1  0.66666667  0.75000000  0.06250000  1.0
  Ni  Ni276  1  1.00000000  0.08333333  0.06250000  1.0
  Ni  Ni277  1  1.00000000  0.41666667  0.06250000  1.0
  Ni  Ni278  1  1.00000000  0.75000000  0.06250000  1.0
  Ni  Ni279  1  0.16666667  0.19444444  0.02083333  1.0
  Ni  Ni280  1  0.16666667  0.52777778  0.02083333  1.0
  Ni  Ni281  1  0.16666667  0.86111111  0.02083333  1.0
  Ni  Ni282  1  0.50000000  0.19444444  0.02083333  1.0
  Ni  Ni283  1  0.50000000  0.52777778  0.02083333  1.0
  Ni  Ni284  1  0.50000000  0.86111111  0.02083333  1.0
  Ni  Ni285  1  0.83333333  0.19444444  0.02083333  1.0
  Ni  Ni286  1  0.83333333  0.52777778  0.02083333  1.0
  Ni  Ni287  1  0.83333333  0.86111111  0.02083333  1.0
  Ni  Ni288  1  0.33333333  0.19444444  0.14583333  1.0
  Ni  Ni289  1  0.33333333  0.52777778  0.14583333  1.0
  Ni  Ni290  1  0.33333333  0.86111111  0.14583333  1.0
  Ni  Ni291  1  0.66666667  0.19444444  0.14583333  1.0
  Ni  Ni292  1  0.66666667  0.52777778  0.14583333  1.0
  Ni  Ni293  1  0.66666667  0.86111111  0.14583333  1.0
  Ni  Ni294  1  1.00000000  0.19444444  0.14583333  1.0
  Ni  Ni295  1  1.00000000  0.52777778  0.14583333  1.0
  Ni  Ni296  1  1.00000000  0.86111111  0.14583333  1.0
  Ni  Ni297  1  0.16666667  0.30555556  0.10416667  1.0
  Ni  Ni298  1  0.16666667  0.63888889  0.10416667  1.0
  Ni  Ni299  1  0.16666667  0.97222222  0.10416667  1.0
  Ni  Ni300  1  0.50000000  0.30555556  0.10416667  1.0
  Ni  Ni301  1  0.50000000  0.63888889  0.10416667  1.0
  Ni  Ni302  1  0.50000000  0.97222222  0.10416667  1.0
  Ni  Ni303  1  0.83333333  0.30555556  0.10416667  1.0
  Ni  Ni304  1  0.83333333  0.63888889  0.10416667  1.0
  Ni  Ni305  1  0.83333333  0.97222222  0.10416667  1.0
  Ni  Ni306  1  0.33333333  0.30555556  0.22916667  1.0
  Ni  Ni307  1  0.33333333  0.63888889  0.22916667  1.0
  Ni  Ni308  1  0.33333333  0.97222222  0.22916667  1.0
  Ni  Ni309  1  0.66666667  0.30555556  0.22916667  1.0
  Ni  Ni310  1  0.66666667  0.63888889  0.22916667  1.0
  Ni  Ni311  1  0.66666667  0.97222222  0.22916667  1.0
  Ni  Ni312  1  1.00000000  0.30555556  0.22916667  1.0
  Ni  Ni313  1  1.00000000  0.63888889  0.22916667  1.0
  Ni  Ni314  1  0.00000000  0.97222222  0.22916667  1.0
  Ni  Ni315  1  0.16666667  0.08333333  0.18750000  1.0
  Ni  Ni316  1  0.16666667  0.41666667  0.18750000  1.0
  Ni  Ni317  1  0.16666667  0.75000000  0.18750000  1.0
  Ni  Ni318  1  0.50000000  0.08333333  0.18750000  1.0
  Ni  Ni319  1  0.50000000  0.41666667  0.18750000  1.0
  Ni  Ni320  1  0.50000000  0.75000000  0.18750000  1.0
  Ni  Ni321  1  0.83333333  0.08333333  0.18750000  1.0
  Ni  Ni322  1  0.83333333  0.41666667  0.18750000  1.0
  Ni  Ni323  1  0.83333333  0.75000000  0.18750000  1.0
  Ni  Ni324  1  0.33333333  0.08333333  0.31250000  1.0
  Ni  Ni325  1  0.33333333  0.41666667  0.31250000  1.0
  Ni  Ni326  1  0.33333333  0.75000000  0.31250000  1.0
  Ni  Ni327  1  0.66666667  0.08333333  0.31250000  1.0
  Ni  Ni328  1  0.66666667  0.41666667  0.31250000  1.0
  Ni  Ni329  1  0.66666667  0.75000000  0.31250000  1.0
  Ni  Ni330  1  1.00000000  0.08333333  0.31250000  1.0
  Ni  Ni331  1  1.00000000  0.41666667  0.31250000  1.0
  Ni  Ni332  1  1.00000000  0.75000000  0.31250000  1.0
  Ni  Ni333  1  0.16666667  0.19444444  0.27083333  1.0
  Ni  Ni334  1  0.16666667  0.52777778  0.27083333  1.0
  Ni  Ni335  1  0.16666667  0.86111111  0.27083333  1.0
  Ni  Ni336  1  0.50000000  0.19444444  0.27083333  1.0
  Ni  Ni337  1  0.50000000  0.52777778  0.27083333  1.0
  Ni  Ni338  1  0.50000000  0.86111111  0.27083333  1.0
  Ni  Ni339  1  0.83333333  0.19444444  0.27083333  1.0
  Ni  Ni340  1  0.83333333  0.52777778  0.27083333  1.0
  Ni  Ni341  1  0.83333333  0.86111111  0.27083333  1.0
  Ni  Ni342  1  0.33333333  0.19444444  0.39583333  1.0
  Ni  Ni343  1  0.33333333  0.52777778  0.39583333  1.0
  Ni  Ni344  1  0.33333333  0.86111111  0.39583333  1.0
  Ni  Ni345  1  0.66666667  0.19444444  0.39583333  1.0
  Ni  Ni346  1  0.66666667  0.52777778  0.39583333  1.0
  Ni  Ni347  1  0.66666667  0.86111111  0.39583333  1.0
  Ni  Ni348  1  1.00000000  0.19444444  0.39583333  1.0
  Ni  Ni349  1  1.00000000  0.52777778  0.39583333  1.0
  Ni  Ni350  1  1.00000000  0.86111111  0.39583333  1.0
  Ni  Ni351  1  0.16666667  0.30555556  0.35416667  1.0
  Ni  Ni352  1  0.16666667  0.63888889  0.35416667  1.0
  Ni  Ni353  1  0.16666667  0.97222222  0.35416667  1.0
  Ni  Ni354  1  0.50000000  0.30555556  0.35416667  1.0
  Ni  Ni355  1  0.50000000  0.63888889  0.35416667  1.0
  Ni  Ni356  1  0.50000000  0.97222222  0.35416667  1.0
  Ni  Ni357  1  0.83333333  0.30555556  0.35416667  1.0
  Ni  Ni358  1  0.83333333  0.63888889  0.35416667  1.0
  Ni  Ni359  1  0.83333333  0.97222222  0.35416667  1.0
