# generated using pymatgen
data_Fe3Ni
_symmetry_space_group_name_H-M   'P 1'
_cell_length_a   10.58223600
_cell_length_b   20.13000150
_cell_length_c   28.49730757
_cell_angle_alpha   92.94213263
_cell_angle_beta   90.00000002
_cell_angle_gamma   105.23908246
_symmetry_Int_Tables_number   1
_chemical_formula_structural   Fe3Ni
_chemical_formula_sum   'Fe162 Ni54'
_cell_volume   5848.76025189
_cell_formula_units_Z   54
loop_
 _symmetry_equiv_pos_site_id
 _symmetry_equiv_pos_as_xyz
  1  'x, y, z'
loop_
 _atom_site_type_symbol
 _atom_site_label
 _atom_site_symmetry_multiplicity
 _atom_site_fract_x
 _atom_site_fract_y
 _atom_site_fract_z
 _atom_site_occupancy
  Fe  Fe0  1  0.06845238  0.11607143  0.09821429  1.0
  Fe  Fe1  1  0.06845238  0.44940476  0.09821429  1.0
  Fe  Fe2  1  0.06845238  0.78273810  0.09821429  1.0
  Fe  Fe3  1  0.40178571  0.11607143  0.09821429  1.0
  Fe  Fe4  1  0.40178571  0.44940476  0.09821429  1.0
  Fe  Fe5  1  0.40178571  0.78273810  0.09821429  1.0
  Fe  Fe6  1  0.73511905  0.11607143  0.09821429  1.0
  Fe  Fe7  1  0.73511905  0.44940476  0.09821429  1.0
  Fe  Fe8  1  0.73511905  0.78273810  0.09821429  1.0
  Fe  Fe9  1  0.13988095  0.25892857  0.02678571  1.0
  Fe  Fe10  1  0.13988095  0.59226190  0.02678571  1.0
  Fe  Fe11  1  0.13988095  0.92559524  0.02678571  1.0
  Fe  Fe12  1  0.47321429  0.25892857  0.02678571  1.0
  Fe  Fe13  1  0.47321429  0.59226190  0.02678571  1.0
  Fe  Fe14  1  0.47321429  0.92559524  0.02678571  1.0
  Fe  Fe15  1  0.80654762  0.25892857  0.02678571  1.0
  Fe  Fe16  1  0.80654762  0.59226190  0.02678571  1.0
  Fe  Fe17  1  0.80654762  0.92559524  0.02678571  1.0
  Fe  Fe18  1  0.13392857  0.24702381  0.11607143  1.0
  Fe  Fe19  1  0.13392857  0.58035714  0.11607143  1.0
  Fe  Fe20  1  0.13392857  0.91369048  0.11607143  1.0
  Fe  Fe21  1  0.46726190  0.24702381  0.11607143  1.0
  Fe  Fe22  1  0.46726190  0.58035714  0.11607143  1.0
  Fe  Fe23  1  0.46726190  0.91369048  0.11607143  1.0
  Fe  Fe24  1  0.80059524  0.24702381  0.11607143  1.0
  Fe  Fe25  1  0.80059524  0.58035714  0.11607143  1.0
  Fe  Fe26  1  0.80059524  0.91369048  0.11607143  1.0
  Fe  Fe27  1  0.20535714  0.05654762  0.04464286  1.0
  Fe  Fe28  1  0.20535714  0.38988095  0.04464286  1.0
  Fe  Fe29  1  0.20535714  0.72321429  0.04464286  1.0
  Fe  Fe30  1  0.53869048  0.05654762  0.04464286  1.0
  Fe  Fe31  1  0.53869048  0.38988095  0.04464286  1.0
  Fe  Fe32  1  0.53869048  0.72321429  0.04464286  1.0
  Fe  Fe33  1  0.87202381  0.05654762  0.04464286  1.0
  Fe  Fe34  1  0.87202381  0.38988095  0.04464286  1.0
  Fe  Fe35  1  0.87202381  0.72321429  0.04464286  1.0
  Fe  Fe36  1  0.07440476  0.12797619  0.00892857  1.0
  Fe  Fe37  1  0.07440476  0.46130952  0.00892857  1.0
  Fe  Fe38  1  0.07440476  0.79464286  0.00892857  1.0
  Fe  Fe39  1  0.40773810  0.12797619  0.00892857  1.0
  Fe  Fe40  1  0.40773810  0.46130952  0.00892857  1.0
  Fe  Fe41  1  0.40773810  0.79464286  0.00892857  1.0
  Fe  Fe42  1  0.74107143  0.12797619  0.00892857  1.0
  Fe  Fe43  1  0.74107143  0.46130952  0.00892857  1.0
  Fe  Fe44  1  0.74107143  0.79464286  0.00892857  1.0
  Fe  Fe45  1  0.00297619  0.31845238  0.08035714  1.0
  Fe  Fe46  1  0.00297619  0.65178571  0.08035714  1.0
  Fe  Fe47  1  0.00297619  0.98511905  0.08035714  1.0
  Fe  Fe48  1  0.33630952  0.31845238  0.08035714  1.0
  Fe  Fe49  1  0.33630952  0.65178571  0.08035714  1.0
  Fe  Fe50  1  0.33630952  0.98511905  0.08035714  1.0
  Fe  Fe51  1  0.66964286  0.31845238  0.08035714  1.0
  Fe  Fe52  1  0.66964286  0.65178571  0.08035714  1.0
  Fe  Fe53  1  0.66964286  0.98511905  0.08035714  1.0
  Fe  Fe54  1  0.25892857  0.16369048  0.24107143  1.0
  Fe  Fe55  1  0.25892857  0.49702381  0.24107143  1.0
  Fe  Fe56  1  0.25892857  0.83035714  0.24107143  1.0
  Fe  Fe57  1  0.59226190  0.16369048  0.24107143  1.0
  Fe  Fe58  1  0.59226190  0.49702381  0.24107143  1.0
  Fe  Fe59  1  0.59226190  0.83035714  0.24107143  1.0
  Fe  Fe60  1  0.92559524  0.16369048  0.24107143  1.0
  Fe  Fe61  1  0.92559524  0.49702381  0.24107143  1.0
  Fe  Fe62  1  0.92559524  0.83035714  0.24107143  1.0
  Fe  Fe63  1  0.33035714  0.30654762  0.16964286  1.0
  Fe  Fe64  1  0.33035714  0.63988095  0.16964286  1.0
  Fe  Fe65  1  0.33035714  0.97321429  0.16964286  1.0
  Fe  Fe66  1  0.66369048  0.30654762  0.16964286  1.0
  Fe  Fe67  1  0.66369048  0.63988095  0.16964286  1.0
  Fe  Fe68  1  0.66369048  0.97321429  0.16964286  1.0
  Fe  Fe69  1  0.99702381  0.30654762  0.16964286  1.0
  Fe  Fe70  1  0.99702381  0.63988095  0.16964286  1.0
  Fe  Fe71  1  0.99702381  0.97321429  0.16964286  1.0
  Fe  Fe72  1  0.32440476  0.29464286  0.25892857  1.0
  Fe  Fe73  1  0.32440476  0.62797619  0.25892857  1.0
  Fe  Fe74  1  0.32440476  0.96130952  0.25892857  1.0
  Fe  Fe75  1  0.65773810  0.29464286  0.25892857  1.0
  Fe  Fe76  1  0.65773810  0.62797619  0.25892857  1.0
  Fe  Fe77  1  0.65773810  0.96130952  0.25892857  1.0
  Fe  Fe78  1  0.99107143  0.29464286  0.25892857  1.0
  Fe  Fe79  1  0.99107143  0.62797619  0.25892857  1.0
  Fe  Fe80  1  0.99107143  0.96130952  0.25892857  1.0
  Fe  Fe81  1  0.06250000  0.10416667  0.18750000  1.0
  Fe  Fe82  1  0.06250000  0.43750000  0.18750000  1.0
  Fe  Fe83  1  0.06250000  0.77083333  0.18750000  1.0
  Fe  Fe84  1  0.39583333  0.10416667  0.18750000  1.0
  Fe  Fe85  1  0.39583333  0.43750000  0.18750000  1.0
  Fe  Fe86  1  0.39583333  0.77083333  0.18750000  1.0
  Fe  Fe87  1  0.72916667  0.10416667  0.18750000  1.0
  Fe  Fe88  1  0.72916667  0.43750000  0.18750000  1.0
  Fe  Fe89  1  0.72916667  0.77083333  0.18750000  1.0
  Fe  Fe90  1  0.26488095  0.17559524  0.15178571  1.0
  Fe  Fe91  1  0.26488095  0.50892857  0.15178571  1.0
  Fe  Fe92  1  0.26488095  0.84226190  0.15178571  1.0
  Fe  Fe93  1  0.59821429  0.17559524  0.15178571  1.0
  Fe  Fe94  1  0.59821429  0.50892857  0.15178571  1.0
  Fe  Fe95  1  0.59821429  0.84226190  0.15178571  1.0
  Fe  Fe96  1  0.93154762  0.17559524  0.15178571  1.0
  Fe  Fe97  1  0.93154762  0.50892857  0.15178571  1.0
  Fe  Fe98  1  0.93154762  0.84226190  0.15178571  1.0
  Fe  Fe99  1  0.19345238  0.03273810  0.22321429  1.0
  Fe  Fe100  1  0.19345238  0.36607143  0.22321429  1.0
  Fe  Fe101  1  0.19345238  0.69940476  0.22321429  1.0
  Fe  Fe102  1  0.52678571  0.03273810  0.22321429  1.0
  Fe  Fe103  1  0.52678571  0.36607143  0.22321429  1.0
  Fe  Fe104  1  0.52678571  0.69940476  0.22321429  1.0
  Fe  Fe105  1  0.86011905  0.03273810  0.22321429  1.0
  Fe  Fe106  1  0.86011905  0.36607143  0.22321429  1.0
  Fe  Fe107  1  0.86011905  0.69940476  0.22321429  1.0
  Fe  Fe108  1  0.11607143  0.21130952  0.38392857  1.0
  Fe  Fe109  1  0.11607143  0.54464286  0.38392857  1.0
  Fe  Fe110  1  0.11607143  0.87797619  0.38392857  1.0
  Fe  Fe111  1  0.44940476  0.21130952  0.38392857  1.0
  Fe  Fe112  1  0.44940476  0.54464286  0.38392857  1.0
  Fe  Fe113  1  0.44940476  0.87797619  0.38392857  1.0
  Fe  Fe114  1  0.78273810  0.21130952  0.38392857  1.0
  Fe  Fe115  1  0.78273810  0.54464286  0.38392857  1.0
  Fe  Fe116  1  0.78273810  0.87797619  0.38392857  1.0
  Fe  Fe117  1  0.18750000  0.02083333  0.31250000  1.0
  Fe  Fe118  1  0.18750000  0.35416667  0.31250000  1.0
  Fe  Fe119  1  0.18750000  0.68750000  0.31250000  1.0
  Fe  Fe120  1  0.52083333  0.02083333  0.31250000  1.0
  Fe  Fe121  1  0.52083333  0.35416667  0.31250000  1.0
  Fe  Fe122  1  0.52083333  0.68750000  0.31250000  1.0
  Fe  Fe123  1  0.85416667  0.02083333  0.31250000  1.0
  Fe  Fe124  1  0.85416667  0.35416667  0.31250000  1.0
  Fe  Fe125  1  0.85416667  0.68750000  0.31250000  1.0
  Fe  Fe126  1  0.18154762  0.00892857  0.40178571  1.0
  Fe  Fe127  1  0.18154762  0.34226190  0.40178571  1.0
  Fe  Fe128  1  0.18154762  0.67559524  0.40178571  1.0
  Fe  Fe129  1  0.51488095  0.00892857  0.40178571  1.0
  Fe  Fe130  1  0.51488095  0.34226190  0.40178571  1.0
  Fe  Fe131  1  0.51488095  0.67559524  0.40178571  1.0
  Fe  Fe132  1  0.84821429  0.00892857  0.40178571  1.0
  Fe  Fe133  1  0.84821429  0.34226190  0.40178571  1.0
  Fe  Fe134  1  0.84821429  0.67559524  0.40178571  1.0
  Fe  Fe135  1  0.25297619  0.15178571  0.33035714  1.0
  Fe  Fe136  1  0.25297619  0.48511905  0.33035714  1.0
  Fe  Fe137  1  0.25297619  0.81845238  0.33035714  1.0
  Fe  Fe138  1  0.58630952  0.15178571  0.33035714  1.0
  Fe  Fe139  1  0.58630952  0.48511905  0.33035714  1.0
  Fe  Fe140  1  0.58630952  0.81845238  0.33035714  1.0
  Fe  Fe141  1  0.91964286  0.15178571  0.33035714  1.0
  Fe  Fe142  1  0.91964286  0.48511905  0.33035714  1.0
  Fe  Fe143  1  0.91964286  0.81845238  0.33035714  1.0
  Fe  Fe144  1  0.12202381  0.22321429  0.29464286  1.0
  Fe  Fe145  1  0.12202381  0.55654762  0.29464286  1.0
  Fe  Fe146  1  0.12202381  0.88988095  0.29464286  1.0
  Fe  Fe147  1  0.45535714  0.22321429  0.29464286  1.0
  Fe  Fe148  1  0.45535714  0.55654762  0.29464286  1.0
  Fe  Fe149  1  0.45535714  0.88988095  0.29464286  1.0
  Fe  Fe150  1  0.78869048  0.22321429  0.29464286  1.0
  Fe  Fe151  1  0.78869048  0.55654762  0.29464286  1.0
  Fe  Fe152  1  0.78869048  0.88988095  0.29464286  1.0
  Fe  Fe153  1  0.05059524  0.08035714  0.36607143  1.0
  Fe  Fe154  1  0.05059524  0.41369048  0.36607143  1.0
  Fe  Fe155  1  0.05059524  0.74702381  0.36607143  1.0
  Fe  Fe156  1  0.38392857  0.08035714  0.36607143  1.0
  Fe  Fe157  1  0.38392857  0.41369048  0.36607143  1.0
  Fe  Fe158  1  0.38392857  0.74702381  0.36607143  1.0
  Fe  Fe159  1  0.71726190  0.08035714  0.36607143  1.0
  Fe  Fe160  1  0.71726190  0.41369048  0.36607143  1.0
  Fe  Fe161  1  0.71726190  0.74702381  0.36607143  1.0
  Ni  Ni162  1  0.27083333  0.18750000  0.06250000  1.0
  Ni  Ni163  1  0.27083333  0.52083333  0.06250000  1.0
  Ni  Ni164  1  0.27083333  0.85416667  0.06250000  1.0
  Ni  Ni165  1  0.60416667  0.18750000  0.06250000  1.0
  Ni  Ni166  1  0.60416667  0.52083333  0.06250000  1.0
  Ni  Ni167  1  0.60416667  0.85416667  0.06250000  1.0
  Ni  Ni168  1  0.93750000  0.18750000  0.06250000  1.0
  Ni  Ni169  1  0.93750000  0.52083333  0.06250000  1.0
  Ni  Ni170  1  0.93750000  0.85416667  0.06250000  1.0
  Ni  Ni171  1  0.19940476  0.04464286  0.13392857  1.0
  Ni  Ni172  1  0.19940476  0.37797619  0.13392857  1.0
  Ni  Ni173  1  0.19940476  0.71130952  0.13392857  1.0
  Ni  Ni174  1  0.53273810  0.04464286  0.13392857  1.0
  Ni  Ni175  1  0.53273810  0.37797619  0.13392857  1.0
  Ni  Ni176  1  0.53273810  0.71130952  0.13392857  1.0
  Ni  Ni177  1  0.86607143  0.04464286  0.13392857  1.0
  Ni  Ni178  1  0.86607143  0.37797619  0.13392857  1.0
  Ni  Ni179  1  0.86607143  0.71130952  0.13392857  1.0
  Ni  Ni180  1  0.12797619  0.23511905  0.20535714  1.0
  Ni  Ni181  1  0.12797619  0.56845238  0.20535714  1.0
  Ni  Ni182  1  0.12797619  0.90178571  0.20535714  1.0
  Ni  Ni183  1  0.46130952  0.23511905  0.20535714  1.0
  Ni  Ni184  1  0.46130952  0.56845238  0.20535714  1.0
  Ni  Ni185  1  0.46130952  0.90178571  0.20535714  1.0
  Ni  Ni186  1  0.79464286  0.23511905  0.20535714  1.0
  Ni  Ni187  1  0.79464286  0.56845238  0.20535714  1.0
  Ni  Ni188  1  0.79464286  0.90178571  0.20535714  1.0
  Ni  Ni189  1  0.05654762  0.09226190  0.27678571  1.0
  Ni  Ni190  1  0.05654762  0.42559524  0.27678571  1.0
  Ni  Ni191  1  0.05654762  0.75892857  0.27678571  1.0
  Ni  Ni192  1  0.38988095  0.09226190  0.27678571  1.0
  Ni  Ni193  1  0.38988095  0.42559524  0.27678571  1.0
  Ni  Ni194  1  0.38988095  0.75892857  0.27678571  1.0
  Ni  Ni195  1  0.72321429  0.09226190  0.27678571  1.0
  Ni  Ni196  1  0.72321429  0.42559524  0.27678571  1.0
  Ni  Ni197  1  0.72321429  0.75892857  0.27678571  1.0
  Ni  Ni198  1  0.31845238  0.28273810  0.34821429  1.0
  Ni  Ni199  1  0.31845238  0.61607143  0.34821429  1.0
  Ni  Ni200  1  0.31845238  0.94940476  0.34821429  1.0
  Ni  Ni201  1  0.65178571  0.28273810  0.34821429  1.0
  Ni  Ni202  1  0.65178571  0.61607143  0.34821429  1.0
  Ni  Ni203  1  0.65178571  0.94940476  0.34821429  1.0
  Ni  Ni204  1  0.98511905  0.28273810  0.34821429  1.0
  Ni  Ni205  1  0.98511905  0.61607143  0.34821429  1.0
  Ni  Ni206  1  0.98511905  0.94940476  0.34821429  1.0
  Ni  Ni207  1  0.24702381  0.13988095  0.41964286  1.0
  Ni  Ni208  1  0.24702381  0.47321429  0.41964286  1.0
  Ni  Ni209  1  0.24702381  0.80654762  0.41964286  1.0
  Ni  Ni210  1  0.58035714  0.13988095  0.41964286  1.0
  Ni  Ni211  1  0.58035714  0.47321429  0.41964286  1.0
  Ni  Ni212  1  0.58035714  0.80654762  0.41964286  1.0
  Ni  Ni213  1  0.91369048  0.13988095  0.41964286  1.0
  Ni  Ni214  1  0.91369048  0.47321429  0.41964286  1.0
  Ni  Ni215  1  0.91369048  0.80654762  0.41964286  1.0
