# generated using pymatgen
data_Fe3Ni
_symmetry_space_group_name_H-M   'P 1'
_cell_length_a   27.39258614
_cell_length_b   49.93791593
_cell_length_c   185.16476550
_cell_angle_alpha   8.55259059
_cell_angle_beta   151.76316702
_cell_angle_gamma   150.49243366
_symmetry_Int_Tables_number   1
_chemical_formula_structural   Fe3Ni
_chemical_formula_sum   'Fe486 Ni162'
_cell_volume   17820.30431315
_cell_formula_units_Z   162
loop_
 _symmetry_equiv_pos_site_id
 _symmetry_equiv_pos_as_xyz
  1  'x, y, z'
loop_
 _atom_site_type_symbol
 _atom_site_label
 _atom_site_symmetry_multiplicity
 _atom_site_fract_x
 _atom_site_fract_y
 _atom_site_fract_z
 _atom_site_occupancy
  Fe  Fe0  1  0.29164467  0.12506600  0.03692732  1.0
  Fe  Fe1  1  0.29164467  0.45839933  0.03692732  1.0
  Fe  Fe2  1  0.29164467  0.79173267  0.03692732  1.0
  Fe  Fe3  1  0.62497800  0.12506600  0.03692732  1.0
  Fe  Fe4  1  0.62497800  0.45839933  0.03692732  1.0
  Fe  Fe5  1  0.62497800  0.79173267  0.03692732  1.0
  Fe  Fe6  1  0.95831133  0.12506600  0.03692732  1.0
  Fe  Fe7  1  0.95831133  0.45839933  0.03692732  1.0
  Fe  Fe8  1  0.95831133  0.79173267  0.03692732  1.0
  Fe  Fe9  1  0.12497800  0.29173267  0.01420005  1.0
  Fe  Fe10  1  0.12497800  0.62506600  0.01420005  1.0
  Fe  Fe11  1  0.12497800  0.95839933  0.01420005  1.0
  Fe  Fe12  1  0.45831133  0.29173267  0.01420005  1.0
  Fe  Fe13  1  0.45831133  0.62506600  0.01420005  1.0
  Fe  Fe14  1  0.45831133  0.95839933  0.01420005  1.0
  Fe  Fe15  1  0.79164467  0.29173267  0.01420005  1.0
  Fe  Fe16  1  0.79164467  0.62506600  0.01420005  1.0
  Fe  Fe17  1  0.79164467  0.95839933  0.01420005  1.0
  Fe  Fe18  1  0.25000000  0.25000000  0.03124850  1.0
  Fe  Fe19  1  0.25000000  0.58333333  0.03124850  1.0
  Fe  Fe20  1  0.25000000  0.91666667  0.03124850  1.0
  Fe  Fe21  1  0.58333333  0.25000000  0.03124850  1.0
  Fe  Fe22  1  0.58333333  0.58333333  0.03124850  1.0
  Fe  Fe23  1  0.58333333  0.91666667  0.03124850  1.0
  Fe  Fe24  1  0.91666667  0.25000000  0.03124850  1.0
  Fe  Fe25  1  0.91666667  0.58333333  0.03124850  1.0
  Fe  Fe26  1  0.91666667  0.91666667  0.03124850  1.0
  Fe  Fe27  1  0.08333333  0.08333333  0.00852123  1.0
  Fe  Fe28  1  0.08333333  0.41666667  0.00852123  1.0
  Fe  Fe29  1  0.08333333  0.75000000  0.00852123  1.0
  Fe  Fe30  1  0.41666667  0.08333333  0.00852123  1.0
  Fe  Fe31  1  0.41666667  0.41666667  0.00852123  1.0
  Fe  Fe32  1  0.41666667  0.75000000  0.00852123  1.0
  Fe  Fe33  1  0.75000000  0.08333333  0.00852123  1.0
  Fe  Fe34  1  0.75000000  0.41666667  0.00852123  1.0
  Fe  Fe35  1  0.75000000  0.75000000  0.00852123  1.0
  Fe  Fe36  1  0.20835533  0.04160067  0.02556968  1.0
  Fe  Fe37  1  0.20835533  0.37493400  0.02556968  1.0
  Fe  Fe38  1  0.20835533  0.70826733  0.02556968  1.0
  Fe  Fe39  1  0.54168867  0.04160067  0.02556968  1.0
  Fe  Fe40  1  0.54168867  0.37493400  0.02556968  1.0
  Fe  Fe41  1  0.54168867  0.70826733  0.02556968  1.0
  Fe  Fe42  1  0.87502200  0.04160067  0.02556968  1.0
  Fe  Fe43  1  0.87502200  0.37493400  0.02556968  1.0
  Fe  Fe44  1  0.87502200  0.70826733  0.02556968  1.0
  Fe  Fe45  1  0.04168867  0.20826733  0.00284241  1.0
  Fe  Fe46  1  0.04168867  0.54160067  0.00284241  1.0
  Fe  Fe47  1  0.04168867  0.87493400  0.00284241  1.0
  Fe  Fe48  1  0.37502200  0.20826733  0.00284241  1.0
  Fe  Fe49  1  0.37502200  0.54160067  0.00284241  1.0
  Fe  Fe50  1  0.37502200  0.87493400  0.00284241  1.0
  Fe  Fe51  1  0.70835533  0.20826733  0.00284241  1.0
  Fe  Fe52  1  0.70835533  0.54160067  0.00284241  1.0
  Fe  Fe53  1  0.70835533  0.87493400  0.00284241  1.0
  Ni  Ni54  1  0.00000000  0.00000000  0.04261214  1.0
  Ni  Ni55  1  0.00000000  0.33333333  0.04261214  1.0
  Ni  Ni56  1  0.00000000  0.66666667  0.04261214  1.0
  Ni  Ni57  1  0.33333333  0.00000000  0.04261214  1.0
  Ni  Ni58  1  0.33333333  0.33333333  0.04261214  1.0
  Ni  Ni59  1  0.33333333  0.66666667  0.04261214  1.0
  Ni  Ni60  1  0.66666667  0.00000000  0.04261214  1.0
  Ni  Ni61  1  0.66666667  0.33333333  0.04261214  1.0
  Ni  Ni62  1  0.66666667  0.66666667  0.04261214  1.0
  Ni  Ni63  1  0.16666667  0.16666667  0.01988486  1.0
  Ni  Ni64  1  0.16666667  0.50000000  0.01988486  1.0
  Ni  Ni65  1  0.16666667  0.83333333  0.01988486  1.0
  Ni  Ni66  1  0.50000000  0.16666667  0.01988486  1.0
  Ni  Ni67  1  0.50000000  0.50000000  0.01988486  1.0
  Ni  Ni68  1  0.50000000  0.83333333  0.01988486  1.0
  Ni  Ni69  1  0.83333333  0.16666667  0.01988486  1.0
  Ni  Ni70  1  0.83333333  0.50000000  0.01988486  1.0
  Ni  Ni71  1  0.83333333  0.83333333  0.01988486  1.0
  Fe  Fe72  1  0.29164467  0.12506600  0.08238186  1.0
  Fe  Fe73  1  0.29164467  0.45839933  0.08238186  1.0
  Fe  Fe74  1  0.29164467  0.79173267  0.08238186  1.0
  Fe  Fe75  1  0.62497800  0.12506600  0.08238186  1.0
  Fe  Fe76  1  0.62497800  0.45839933  0.08238186  1.0
  Fe  Fe77  1  0.62497800  0.79173267  0.08238186  1.0
  Fe  Fe78  1  0.95831133  0.12506600  0.08238186  1.0
  Fe  Fe79  1  0.95831133  0.45839933  0.08238186  1.0
  Fe  Fe80  1  0.95831133  0.79173267  0.08238186  1.0
  Fe  Fe81  1  0.12497800  0.29173267  0.05965459  1.0
  Fe  Fe82  1  0.12497800  0.62506600  0.05965459  1.0
  Fe  Fe83  1  0.12497800  0.95839933  0.05965459  1.0
  Fe  Fe84  1  0.45831133  0.29173267  0.05965459  1.0
  Fe  Fe85  1  0.45831133  0.62506600  0.05965459  1.0
  Fe  Fe86  1  0.45831133  0.95839933  0.05965459  1.0
  Fe  Fe87  1  0.79164467  0.29173267  0.05965459  1.0
  Fe  Fe88  1  0.79164467  0.62506600  0.05965459  1.0
  Fe  Fe89  1  0.79164467  0.95839933  0.05965459  1.0
  Fe  Fe90  1  0.25000000  0.25000000  0.07670305  1.0
  Fe  Fe91  1  0.25000000  0.58333333  0.07670305  1.0
  Fe  Fe92  1  0.25000000  0.91666667  0.07670305  1.0
  Fe  Fe93  1  0.58333333  0.25000000  0.07670305  1.0
  Fe  Fe94  1  0.58333333  0.58333333  0.07670305  1.0
  Fe  Fe95  1  0.58333333  0.91666667  0.07670305  1.0
  Fe  Fe96  1  0.91666667  0.25000000  0.07670305  1.0
  Fe  Fe97  1  0.91666667  0.58333333  0.07670305  1.0
  Fe  Fe98  1  0.91666667  0.91666667  0.07670305  1.0
  Fe  Fe99  1  0.08333333  0.08333333  0.05397577  1.0
  Fe  Fe100  1  0.08333333  0.41666667  0.05397577  1.0
  Fe  Fe101  1  0.08333333  0.75000000  0.05397577  1.0
  Fe  Fe102  1  0.41666667  0.08333333  0.05397577  1.0
  Fe  Fe103  1  0.41666667  0.41666667  0.05397577  1.0
  Fe  Fe104  1  0.41666667  0.75000000  0.05397577  1.0
  Fe  Fe105  1  0.75000000  0.08333333  0.05397577  1.0
  Fe  Fe106  1  0.75000000  0.41666667  0.05397577  1.0
  Fe  Fe107  1  0.75000000  0.75000000  0.05397577  1.0
  Fe  Fe108  1  0.20835533  0.04160067  0.07102423  1.0
  Fe  Fe109  1  0.20835533  0.37493400  0.07102423  1.0
  Fe  Fe110  1  0.20835533  0.70826733  0.07102423  1.0
  Fe  Fe111  1  0.54168867  0.04160067  0.07102423  1.0
  Fe  Fe112  1  0.54168867  0.37493400  0.07102423  1.0
  Fe  Fe113  1  0.54168867  0.70826733  0.07102423  1.0
  Fe  Fe114  1  0.87502200  0.04160067  0.07102423  1.0
  Fe  Fe115  1  0.87502200  0.37493400  0.07102423  1.0
  Fe  Fe116  1  0.87502200  0.70826733  0.07102423  1.0
  Fe  Fe117  1  0.04168867  0.20826733  0.04829695  1.0
  Fe  Fe118  1  0.04168867  0.54160067  0.04829695  1.0
  Fe  Fe119  1  0.04168867  0.87493400  0.04829695  1.0
  Fe  Fe120  1  0.37502200  0.20826733  0.04829695  1.0
  Fe  Fe121  1  0.37502200  0.54160067  0.04829695  1.0
  Fe  Fe122  1  0.37502200  0.87493400  0.04829695  1.0
  Fe  Fe123  1  0.70835533  0.20826733  0.04829695  1.0
  Fe  Fe124  1  0.70835533  0.54160067  0.04829695  1.0
  Fe  Fe125  1  0.70835533  0.87493400  0.04829695  1.0
  Ni  Ni126  1  0.00000000  0.00000000  0.08806668  1.0
  Ni  Ni127  1  0.00000000  0.33333333  0.08806668  1.0
  Ni  Ni128  1  0.00000000  0.66666667  0.08806668  1.0
  Ni  Ni129  1  0.33333333  0.00000000  0.08806668  1.0
  Ni  Ni130  1  0.33333333  0.33333333  0.08806668  1.0
  Ni  Ni131  1  0.33333333  0.66666667  0.08806668  1.0
  Ni  Ni132  1  0.66666667  0.00000000  0.08806668  1.0
  Ni  Ni133  1  0.66666667  0.33333333  0.08806668  1.0
  Ni  Ni134  1  0.66666667  0.66666667  0.08806668  1.0
  Ni  Ni135  1  0.16666667  0.16666667  0.06533941  1.0
  Ni  Ni136  1  0.16666667  0.50000000  0.06533941  1.0
  Ni  Ni137  1  0.16666667  0.83333333  0.06533941  1.0
  Ni  Ni138  1  0.50000000  0.16666667  0.06533941  1.0
  Ni  Ni139  1  0.50000000  0.50000000  0.06533941  1.0
  Ni  Ni140  1  0.50000000  0.83333333  0.06533941  1.0
  Ni  Ni141  1  0.83333333  0.16666667  0.06533941  1.0
  Ni  Ni142  1  0.83333333  0.50000000  0.06533941  1.0
  Ni  Ni143  1  0.83333333  0.83333333  0.06533941  1.0
  Fe  Fe144  1  0.29164467  0.12506600  0.12783641  1.0
  Fe  Fe145  1  0.29164467  0.45839933  0.12783641  1.0
  Fe  Fe146  1  0.29164467  0.79173267  0.12783641  1.0
  Fe  Fe147  1  0.62497800  0.12506600  0.12783641  1.0
  Fe  Fe148  1  0.62497800  0.45839933  0.12783641  1.0
  Fe  Fe149  1  0.62497800  0.79173267  0.12783641  1.0
  Fe  Fe150  1  0.95831133  0.12506600  0.12783641  1.0
  Fe  Fe151  1  0.95831133  0.45839933  0.12783641  1.0
  Fe  Fe152  1  0.95831133  0.79173267  0.12783641  1.0
  Fe  Fe153  1  0.12497800  0.29173267  0.10510914  1.0
  Fe  Fe154  1  0.12497800  0.62506600  0.10510914  1.0
  Fe  Fe155  1  0.12497800  0.95839933  0.10510914  1.0
  Fe  Fe156  1  0.45831133  0.29173267  0.10510914  1.0
  Fe  Fe157  1  0.45831133  0.62506600  0.10510914  1.0
  Fe  Fe158  1  0.45831133  0.95839933  0.10510914  1.0
  Fe  Fe159  1  0.79164467  0.29173267  0.10510914  1.0
  Fe  Fe160  1  0.79164467  0.62506600  0.10510914  1.0
  Fe  Fe161  1  0.79164467  0.95839933  0.10510914  1.0
  Fe  Fe162  1  0.25000000  0.25000000  0.12215759  1.0
  Fe  Fe163  1  0.25000000  0.58333333  0.12215759  1.0
  Fe  Fe164  1  0.25000000  0.91666667  0.12215759  1.0
  Fe  Fe165  1  0.58333333  0.25000000  0.12215759  1.0
  Fe  Fe166  1  0.58333333  0.58333333  0.12215759  1.0
  Fe  Fe167  1  0.58333333  0.91666667  0.12215759  1.0
  Fe  Fe168  1  0.91666667  0.25000000  0.12215759  1.0
  Fe  Fe169  1  0.91666667  0.58333333  0.12215759  1.0
  Fe  Fe170  1  0.91666667  0.91666667  0.12215759  1.0
  Fe  Fe171  1  0.08333333  0.08333333  0.09943032  1.0
  Fe  Fe172  1  0.08333333  0.41666667  0.09943032  1.0
  Fe  Fe173  1  0.08333333  0.75000000  0.09943032  1.0
  Fe  Fe174  1  0.41666667  0.08333333  0.09943032  1.0
  Fe  Fe175  1  0.41666667  0.41666667  0.09943032  1.0
  Fe  Fe176  1  0.41666667  0.75000000  0.09943032  1.0
  Fe  Fe177  1  0.75000000  0.08333333  0.09943032  1.0
  Fe  Fe178  1  0.75000000  0.41666667  0.09943032  1.0
  Fe  Fe179  1  0.75000000  0.75000000  0.09943032  1.0
  Fe  Fe180  1  0.20835533  0.04160067  0.11647877  1.0
  Fe  Fe181  1  0.20835533  0.37493400  0.11647877  1.0
  Fe  Fe182  1  0.20835533  0.70826733  0.11647877  1.0
  Fe  Fe183  1  0.54168867  0.04160067  0.11647877  1.0
  Fe  Fe184  1  0.54168867  0.37493400  0.11647877  1.0
  Fe  Fe185  1  0.54168867  0.70826733  0.11647877  1.0
  Fe  Fe186  1  0.87502200  0.04160067  0.11647877  1.0
  Fe  Fe187  1  0.87502200  0.37493400  0.11647877  1.0
  Fe  Fe188  1  0.87502200  0.70826733  0.11647877  1.0
  Fe  Fe189  1  0.04168867  0.20826733  0.09375150  1.0
  Fe  Fe190  1  0.04168867  0.54160067  0.09375150  1.0
  Fe  Fe191  1  0.04168867  0.87493400  0.09375150  1.0
  Fe  Fe192  1  0.37502200  0.20826733  0.09375150  1.0
  Fe  Fe193  1  0.37502200  0.54160067  0.09375150  1.0
  Fe  Fe194  1  0.37502200  0.87493400  0.09375150  1.0
  Fe  Fe195  1  0.70835533  0.20826733  0.09375150  1.0
  Fe  Fe196  1  0.70835533  0.54160067  0.09375150  1.0
  Fe  Fe197  1  0.70835533  0.87493400  0.09375150  1.0
  Ni  Ni198  1  0.00000000  0.00000000  0.13352123  1.0
  Ni  Ni199  1  0.00000000  0.33333333  0.13352123  1.0
  Ni  Ni200  1  0.00000000  0.66666667  0.13352123  1.0
  Ni  Ni201  1  0.33333333  0.00000000  0.13352123  1.0
  Ni  Ni202  1  0.33333333  0.33333333  0.13352123  1.0
  Ni  Ni203  1  0.33333333  0.66666667  0.13352123  1.0
  Ni  Ni204  1  0.66666667  0.00000000  0.13352123  1.0
  Ni  Ni205  1  0.66666667  0.33333333  0.13352123  1.0
  Ni  Ni206  1  0.66666667  0.66666667  0.13352123  1.0
  Ni  Ni207  1  0.16666667  0.16666667  0.11079395  1.0
  Ni  Ni208  1  0.16666667  0.50000000  0.11079395  1.0
  Ni  Ni209  1  0.16666667  0.83333333  0.11079395  1.0
  Ni  Ni210  1  0.50000000  0.16666667  0.11079395  1.0
  Ni  Ni211  1  0.50000000  0.50000000  0.11079395  1.0
  Ni  Ni212  1  0.50000000  0.83333333  0.11079395  1.0
  Ni  Ni213  1  0.83333333  0.16666667  0.11079395  1.0
  Ni  Ni214  1  0.83333333  0.50000000  0.11079395  1.0
  Ni  Ni215  1  0.83333333  0.83333333  0.11079395  1.0
  Fe  Fe216  1  0.29164467  0.12506600  0.17329095  1.0
  Fe  Fe217  1  0.29164467  0.45839933  0.17329095  1.0
  Fe  Fe218  1  0.29164467  0.79173267  0.17329095  1.0
  Fe  Fe219  1  0.62497800  0.12506600  0.17329095  1.0
  Fe  Fe220  1  0.62497800  0.45839933  0.17329095  1.0
  Fe  Fe221  1  0.62497800  0.79173267  0.17329095  1.0
  Fe  Fe222  1  0.95831133  0.12506600  0.17329095  1.0
  Fe  Fe223  1  0.95831133  0.45839933  0.17329095  1.0
  Fe  Fe224  1  0.95831133  0.79173267  0.17329095  1.0
  Fe  Fe225  1  0.12497800  0.29173267  0.15056368  1.0
  Fe  Fe226  1  0.12497800  0.62506600  0.15056368  1.0
  Fe  Fe227  1  0.12497800  0.95839933  0.15056368  1.0
  Fe  Fe228  1  0.45831133  0.29173267  0.15056368  1.0
  Fe  Fe229  1  0.45831133  0.62506600  0.15056368  1.0
  Fe  Fe230  1  0.45831133  0.95839933  0.15056368  1.0
  Fe  Fe231  1  0.79164467  0.29173267  0.15056368  1.0
  Fe  Fe232  1  0.79164467  0.62506600  0.15056368  1.0
  Fe  Fe233  1  0.79164467  0.95839933  0.15056368  1.0
  Fe  Fe234  1  0.25000000  0.25000000  0.16761214  1.0
  Fe  Fe235  1  0.25000000  0.58333333  0.16761214  1.0
  Fe  Fe236  1  0.25000000  0.91666667  0.16761214  1.0
  Fe  Fe237  1  0.58333333  0.25000000  0.16761214  1.0
  Fe  Fe238  1  0.58333333  0.58333333  0.16761214  1.0
  Fe  Fe239  1  0.58333333  0.91666667  0.16761214  1.0
  Fe  Fe240  1  0.91666667  0.25000000  0.16761214  1.0
  Fe  Fe241  1  0.91666667  0.58333333  0.16761214  1.0
  Fe  Fe242  1  0.91666667  0.91666667  0.16761214  1.0
  Fe  Fe243  1  0.08333333  0.08333333  0.14488486  1.0
  Fe  Fe244  1  0.08333333  0.41666667  0.14488486  1.0
  Fe  Fe245  1  0.08333333  0.75000000  0.14488486  1.0
  Fe  Fe246  1  0.41666667  0.08333333  0.14488486  1.0
  Fe  Fe247  1  0.41666667  0.41666667  0.14488486  1.0
  Fe  Fe248  1  0.41666667  0.75000000  0.14488486  1.0
  Fe  Fe249  1  0.75000000  0.08333333  0.14488486  1.0
  Fe  Fe250  1  0.75000000  0.41666667  0.14488486  1.0
  Fe  Fe251  1  0.75000000  0.75000000  0.14488486  1.0
  Fe  Fe252  1  0.20835533  0.04160067  0.16193332  1.0
  Fe  Fe253  1  0.20835533  0.37493400  0.16193332  1.0
  Fe  Fe254  1  0.20835533  0.70826733  0.16193332  1.0
  Fe  Fe255  1  0.54168867  0.04160067  0.16193332  1.0
  Fe  Fe256  1  0.54168867  0.37493400  0.16193332  1.0
  Fe  Fe257  1  0.54168867  0.70826733  0.16193332  1.0
  Fe  Fe258  1  0.87502200  0.04160067  0.16193332  1.0
  Fe  Fe259  1  0.87502200  0.37493400  0.16193332  1.0
  Fe  Fe260  1  0.87502200  0.70826733  0.16193332  1.0
  Fe  Fe261  1  0.04168867  0.20826733  0.13920605  1.0
  Fe  Fe262  1  0.04168867  0.54160067  0.13920605  1.0
  Fe  Fe263  1  0.04168867  0.87493400  0.13920605  1.0
  Fe  Fe264  1  0.37502200  0.20826733  0.13920605  1.0
  Fe  Fe265  1  0.37502200  0.54160067  0.13920605  1.0
  Fe  Fe266  1  0.37502200  0.87493400  0.13920605  1.0
  Fe  Fe267  1  0.70835533  0.20826733  0.13920605  1.0
  Fe  Fe268  1  0.70835533  0.54160067  0.13920605  1.0
  Fe  Fe269  1  0.70835533  0.87493400  0.13920605  1.0
  Ni  Ni270  1  0.00000000  0.00000000  0.17897577  1.0
  Ni  Ni271  1  0.00000000  0.33333333  0.17897577  1.0
  Ni  Ni272  1  0.00000000  0.66666667  0.17897577  1.0
  Ni  Ni273  1  0.33333333  0.00000000  0.17897577  1.0
  Ni  Ni274  1  0.33333333  0.33333333  0.17897577  1.0
  Ni  Ni275  1  0.33333333  0.66666667  0.17897577  1.0
  Ni  Ni276  1  0.66666667  0.00000000  0.17897577  1.0
  Ni  Ni277  1  0.66666667  0.33333333  0.17897577  1.0
  Ni  Ni278  1  0.66666667  0.66666667  0.17897577  1.0
  Ni  Ni279  1  0.16666667  0.16666667  0.15624850  1.0
  Ni  Ni280  1  0.16666667  0.50000000  0.15624850  1.0
  Ni  Ni281  1  0.16666667  0.83333333  0.15624850  1.0
  Ni  Ni282  1  0.50000000  0.16666667  0.15624850  1.0
  Ni  Ni283  1  0.50000000  0.50000000  0.15624850  1.0
  Ni  Ni284  1  0.50000000  0.83333333  0.15624850  1.0
  Ni  Ni285  1  0.83333333  0.16666667  0.15624850  1.0
  Ni  Ni286  1  0.83333333  0.50000000  0.15624850  1.0
  Ni  Ni287  1  0.83333333  0.83333333  0.15624850  1.0
  Fe  Fe288  1  0.29164467  0.12506600  0.21874550  1.0
  Fe  Fe289  1  0.29164467  0.45839933  0.21874550  1.0
  Fe  Fe290  1  0.29164467  0.79173267  0.21874550  1.0
  Fe  Fe291  1  0.62497800  0.12506600  0.21874550  1.0
  Fe  Fe292  1  0.62497800  0.45839933  0.21874550  1.0
  Fe  Fe293  1  0.62497800  0.79173267  0.21874550  1.0
  Fe  Fe294  1  0.95831133  0.12506600  0.21874550  1.0
  Fe  Fe295  1  0.95831133  0.45839933  0.21874550  1.0
  Fe  Fe296  1  0.95831133  0.79173267  0.21874550  1.0
  Fe  Fe297  1  0.12497800  0.29173267  0.19601823  1.0
  Fe  Fe298  1  0.12497800  0.62506600  0.19601823  1.0
  Fe  Fe299  1  0.12497800  0.95839933  0.19601823  1.0
  Fe  Fe300  1  0.45831133  0.29173267  0.19601823  1.0
  Fe  Fe301  1  0.45831133  0.62506600  0.19601823  1.0
  Fe  Fe302  1  0.45831133  0.95839933  0.19601823  1.0
  Fe  Fe303  1  0.79164467  0.29173267  0.19601823  1.0
  Fe  Fe304  1  0.79164467  0.62506600  0.19601823  1.0
  Fe  Fe305  1  0.79164467  0.95839933  0.19601823  1.0
  Fe  Fe306  1  0.25000000  0.25000000  0.21306668  1.0
  Fe  Fe307  1  0.25000000  0.58333333  0.21306668  1.0
  Fe  Fe308  1  0.25000000  0.91666667  0.21306668  1.0
  Fe  Fe309  1  0.58333333  0.25000000  0.21306668  1.0
  Fe  Fe310  1  0.58333333  0.58333333  0.21306668  1.0
  Fe  Fe311  1  0.58333333  0.91666667  0.21306668  1.0
  Fe  Fe312  1  0.91666667  0.25000000  0.21306668  1.0
  Fe  Fe313  1  0.91666667  0.58333333  0.21306668  1.0
  Fe  Fe314  1  0.91666667  0.91666667  0.21306668  1.0
  Fe  Fe315  1  0.08333333  0.08333333  0.19033941  1.0
  Fe  Fe316  1  0.08333333  0.41666667  0.19033941  1.0
  Fe  Fe317  1  0.08333333  0.75000000  0.19033941  1.0
  Fe  Fe318  1  0.41666667  0.08333333  0.19033941  1.0
  Fe  Fe319  1  0.41666667  0.41666667  0.19033941  1.0
  Fe  Fe320  1  0.41666667  0.75000000  0.19033941  1.0
  Fe  Fe321  1  0.75000000  0.08333333  0.19033941  1.0
  Fe  Fe322  1  0.75000000  0.41666667  0.19033941  1.0
  Fe  Fe323  1  0.75000000  0.75000000  0.19033941  1.0
  Fe  Fe324  1  0.20835533  0.04160067  0.20738786  1.0
  Fe  Fe325  1  0.20835533  0.37493400  0.20738786  1.0
  Fe  Fe326  1  0.20835533  0.70826733  0.20738786  1.0
  Fe  Fe327  1  0.54168867  0.04160067  0.20738786  1.0
  Fe  Fe328  1  0.54168867  0.37493400  0.20738786  1.0
  Fe  Fe329  1  0.54168867  0.70826733  0.20738786  1.0
  Fe  Fe330  1  0.87502200  0.04160067  0.20738786  1.0
  Fe  Fe331  1  0.87502200  0.37493400  0.20738786  1.0
  Fe  Fe332  1  0.87502200  0.70826733  0.20738786  1.0
  Fe  Fe333  1  0.04168867  0.20826733  0.18466059  1.0
  Fe  Fe334  1  0.04168867  0.54160067  0.18466059  1.0
  Fe  Fe335  1  0.04168867  0.87493400  0.18466059  1.0
  Fe  Fe336  1  0.37502200  0.20826733  0.18466059  1.0
  Fe  Fe337  1  0.37502200  0.54160067  0.18466059  1.0
  Fe  Fe338  1  0.37502200  0.87493400  0.18466059  1.0
  Fe  Fe339  1  0.70835533  0.20826733  0.18466059  1.0
  Fe  Fe340  1  0.70835533  0.54160067  0.18466059  1.0
  Fe  Fe341  1  0.70835533  0.87493400  0.18466059  1.0
  Ni  Ni342  1  0.00000000  0.00000000  0.22443032  1.0
  Ni  Ni343  1  0.00000000  0.33333333  0.22443032  1.0
  Ni  Ni344  1  0.00000000  0.66666667  0.22443032  1.0
  Ni  Ni345  1  0.33333333  0.00000000  0.22443032  1.0
  Ni  Ni346  1  0.33333333  0.33333333  0.22443032  1.0
  Ni  Ni347  1  0.33333333  0.66666667  0.22443032  1.0
  Ni  Ni348  1  0.66666667  0.00000000  0.22443032  1.0
  Ni  Ni349  1  0.66666667  0.33333333  0.22443032  1.0
  Ni  Ni350  1  0.66666667  0.66666667  0.22443032  1.0
  Ni  Ni351  1  0.16666667  0.16666667  0.20170305  1.0
  Ni  Ni352  1  0.16666667  0.50000000  0.20170305  1.0
  Ni  Ni353  1  0.16666667  0.83333333  0.20170305  1.0
  Ni  Ni354  1  0.50000000  0.16666667  0.20170305  1.0
  Ni  Ni355  1  0.50000000  0.50000000  0.20170305  1.0
  Ni  Ni356  1  0.50000000  0.83333333  0.20170305  1.0
  Ni  Ni357  1  0.83333333  0.16666667  0.20170305  1.0
  Ni  Ni358  1  0.83333333  0.50000000  0.20170305  1.0
  Ni  Ni359  1  0.83333333  0.83333333  0.20170305  1.0
  Fe  Fe360  1  0.29164467  0.12506600  0.26420005  1.0
  Fe  Fe361  1  0.29164467  0.45839933  0.26420005  1.0
  Fe  Fe362  1  0.29164467  0.79173267  0.26420005  1.0
  Fe  Fe363  1  0.62497800  0.12506600  0.26420005  1.0
  Fe  Fe364  1  0.62497800  0.45839933  0.26420005  1.0
  Fe  Fe365  1  0.62497800  0.79173267  0.26420005  1.0
  Fe  Fe366  1  0.95831133  0.12506600  0.26420005  1.0
  Fe  Fe367  1  0.95831133  0.45839933  0.26420005  1.0
  Fe  Fe368  1  0.95831133  0.79173267  0.26420005  1.0
  Fe  Fe369  1  0.12497800  0.29173267  0.24147277  1.0
  Fe  Fe370  1  0.12497800  0.62506600  0.24147277  1.0
  Fe  Fe371  1  0.12497800  0.95839933  0.24147277  1.0
  Fe  Fe372  1  0.45831133  0.29173267  0.24147277  1.0
  Fe  Fe373  1  0.45831133  0.62506600  0.24147277  1.0
  Fe  Fe374  1  0.45831133  0.95839933  0.24147277  1.0
  Fe  Fe375  1  0.79164467  0.29173267  0.24147277  1.0
  Fe  Fe376  1  0.79164467  0.62506600  0.24147277  1.0
  Fe  Fe377  1  0.79164467  0.95839933  0.24147277  1.0
  Fe  Fe378  1  0.25000000  0.25000000  0.25852123  1.0
  Fe  Fe379  1  0.25000000  0.58333333  0.25852123  1.0
  Fe  Fe380  1  0.25000000  0.91666667  0.25852123  1.0
  Fe  Fe381  1  0.58333333  0.25000000  0.25852123  1.0
  Fe  Fe382  1  0.58333333  0.58333333  0.25852123  1.0
  Fe  Fe383  1  0.58333333  0.91666667  0.25852123  1.0
  Fe  Fe384  1  0.91666667  0.25000000  0.25852123  1.0
  Fe  Fe385  1  0.91666667  0.58333333  0.25852123  1.0
  Fe  Fe386  1  0.91666667  0.91666667  0.25852123  1.0
  Fe  Fe387  1  0.08333333  0.08333333  0.23579395  1.0
  Fe  Fe388  1  0.08333333  0.41666667  0.23579395  1.0
  Fe  Fe389  1  0.08333333  0.75000000  0.23579395  1.0
  Fe  Fe390  1  0.41666667  0.08333333  0.23579395  1.0
  Fe  Fe391  1  0.41666667  0.41666667  0.23579395  1.0
  Fe  Fe392  1  0.41666667  0.75000000  0.23579395  1.0
  Fe  Fe393  1  0.75000000  0.08333333  0.23579395  1.0
  Fe  Fe394  1  0.75000000  0.41666667  0.23579395  1.0
  Fe  Fe395  1  0.75000000  0.75000000  0.23579395  1.0
  Fe  Fe396  1  0.20835533  0.04160067  0.25284241  1.0
  Fe  Fe397  1  0.20835533  0.37493400  0.25284241  1.0
  Fe  Fe398  1  0.20835533  0.70826733  0.25284241  1.0
  Fe  Fe399  1  0.54168867  0.04160067  0.25284241  1.0
  Fe  Fe400  1  0.54168867  0.37493400  0.25284241  1.0
  Fe  Fe401  1  0.54168867  0.70826733  0.25284241  1.0
  Fe  Fe402  1  0.87502200  0.04160067  0.25284241  1.0
  Fe  Fe403  1  0.87502200  0.37493400  0.25284241  1.0
  Fe  Fe404  1  0.87502200  0.70826733  0.25284241  1.0
  Fe  Fe405  1  0.04168867  0.20826733  0.23011514  1.0
  Fe  Fe406  1  0.04168867  0.54160067  0.23011514  1.0
  Fe  Fe407  1  0.04168867  0.87493400  0.23011514  1.0
  Fe  Fe408  1  0.37502200  0.20826733  0.23011514  1.0
  Fe  Fe409  1  0.37502200  0.54160067  0.23011514  1.0
  Fe  Fe410  1  0.37502200  0.87493400  0.23011514  1.0
  Fe  Fe411  1  0.70835533  0.20826733  0.23011514  1.0
  Fe  Fe412  1  0.70835533  0.54160067  0.23011514  1.0
  Fe  Fe413  1  0.70835533  0.87493400  0.23011514  1.0
  Ni  Ni414  1  0.00000000  0.00000000  0.26988486  1.0
  Ni  Ni415  1  0.00000000  0.33333333  0.26988486  1.0
  Ni  Ni416  1  0.00000000  0.66666667  0.26988486  1.0
  Ni  Ni417  1  0.33333333  0.00000000  0.26988486  1.0
  Ni  Ni418  1  0.33333333  0.33333333  0.26988486  1.0
  Ni  Ni419  1  0.33333333  0.66666667  0.26988486  1.0
  Ni  Ni420  1  0.66666667  0.00000000  0.26988486  1.0
  Ni  Ni421  1  0.66666667  0.33333333  0.26988486  1.0
  Ni  Ni422  1  0.66666667  0.66666667  0.26988486  1.0
  Ni  Ni423  1  0.16666667  0.16666667  0.24715759  1.0
  Ni  Ni424  1  0.16666667  0.50000000  0.24715759  1.0
  Ni  Ni425  1  0.16666667  0.83333333  0.24715759  1.0
  Ni  Ni426  1  0.50000000  0.16666667  0.24715759  1.0
  Ni  Ni427  1  0.50000000  0.50000000  0.24715759  1.0
  Ni  Ni428  1  0.50000000  0.83333333  0.24715759  1.0
  Ni  Ni429  1  0.83333333  0.16666667  0.24715759  1.0
  Ni  Ni430  1  0.83333333  0.50000000  0.24715759  1.0
  Ni  Ni431  1  0.83333333  0.83333333  0.24715759  1.0
  Fe  Fe432  1  0.29164467  0.12506600  0.30965459  1.0
  Fe  Fe433  1  0.29164467  0.45839933  0.30965459  1.0
  Fe  Fe434  1  0.29164467  0.79173267  0.30965459  1.0
  Fe  Fe435  1  0.62497800  0.12506600  0.30965459  1.0
  Fe  Fe436  1  0.62497800  0.45839933  0.30965459  1.0
  Fe  Fe437  1  0.62497800  0.79173267  0.30965459  1.0
  Fe  Fe438  1  0.95831133  0.12506600  0.30965459  1.0
  Fe  Fe439  1  0.95831133  0.45839933  0.30965459  1.0
  Fe  Fe440  1  0.95831133  0.79173267  0.30965459  1.0
  Fe  Fe441  1  0.12497800  0.29173267  0.28692732  1.0
  Fe  Fe442  1  0.12497800  0.62506600  0.28692732  1.0
  Fe  Fe443  1  0.12497800  0.95839933  0.28692732  1.0
  Fe  Fe444  1  0.45831133  0.29173267  0.28692732  1.0
  Fe  Fe445  1  0.45831133  0.62506600  0.28692732  1.0
  Fe  Fe446  1  0.45831133  0.95839933  0.28692732  1.0
  Fe  Fe447  1  0.79164467  0.29173267  0.28692732  1.0
  Fe  Fe448  1  0.79164467  0.62506600  0.28692732  1.0
  Fe  Fe449  1  0.79164467  0.95839933  0.28692732  1.0
  Fe  Fe450  1  0.25000000  0.25000000  0.30397577  1.0
  Fe  Fe451  1  0.25000000  0.58333333  0.30397577  1.0
  Fe  Fe452  1  0.25000000  0.91666667  0.30397577  1.0
  Fe  Fe453  1  0.58333333  0.25000000  0.30397577  1.0
  Fe  Fe454  1  0.58333333  0.58333333  0.30397577  1.0
  Fe  Fe455  1  0.58333333  0.91666667  0.30397577  1.0
  Fe  Fe456  1  0.91666667  0.25000000  0.30397577  1.0
  Fe  Fe457  1  0.91666667  0.58333333  0.30397577  1.0
  Fe  Fe458  1  0.91666667  0.91666667  0.30397577  1.0
  Fe  Fe459  1  0.08333333  0.08333333  0.28124850  1.0
  Fe  Fe460  1  0.08333333  0.41666667  0.28124850  1.0
  Fe  Fe461  1  0.08333333  0.75000000  0.28124850  1.0
  Fe  Fe462  1  0.41666667  0.08333333  0.28124850  1.0
  Fe  Fe463  1  0.41666667  0.41666667  0.28124850  1.0
  Fe  Fe464  1  0.41666667  0.75000000  0.28124850  1.0
  Fe  Fe465  1  0.75000000  0.08333333  0.28124850  1.0
  Fe  Fe466  1  0.75000000  0.41666667  0.28124850  1.0
  Fe  Fe467  1  0.75000000  0.75000000  0.28124850  1.0
  Fe  Fe468  1  0.20835533  0.04160067  0.29829695  1.0
  Fe  Fe469  1  0.20835533  0.37493400  0.29829695  1.0
  Fe  Fe470  1  0.20835533  0.70826733  0.29829695  1.0
  Fe  Fe471  1  0.54168867  0.04160067  0.29829695  1.0
  Fe  Fe472  1  0.54168867  0.37493400  0.29829695  1.0
  Fe  Fe473  1  0.54168867  0.70826733  0.29829695  1.0
  Fe  Fe474  1  0.87502200  0.04160067  0.29829695  1.0
  Fe  Fe475  1  0.87502200  0.37493400  0.29829695  1.0
  Fe  Fe476  1  0.87502200  0.70826733  0.29829695  1.0
  Fe  Fe477  1  0.04168867  0.20826733  0.27556968  1.0
  Fe  Fe478  1  0.04168867  0.54160067  0.27556968  1.0
  Fe  Fe479  1  0.04168867  0.87493400  0.27556968  1.0
  Fe  Fe480  1  0.37502200  0.20826733  0.27556968  1.0
  Fe  Fe481  1  0.37502200  0.54160067  0.27556968  1.0
  Fe  Fe482  1  0.37502200  0.87493400  0.27556968  1.0
  Fe  Fe483  1  0.70835533  0.20826733  0.27556968  1.0
  Fe  Fe484  1  0.70835533  0.54160067  0.27556968  1.0
  Fe  Fe485  1  0.70835533  0.87493400  0.27556968  1.0
  Ni  Ni486  1  0.00000000  0.00000000  0.31533941  1.0
  Ni  Ni487  1  0.00000000  0.33333333  0.31533941  1.0
  Ni  Ni488  1  0.00000000  0.66666667  0.31533941  1.0
  Ni  Ni489  1  0.33333333  0.00000000  0.31533941  1.0
  Ni  Ni490  1  0.33333333  0.33333333  0.31533941  1.0
  Ni  Ni491  1  0.33333333  0.66666667  0.31533941  1.0
  Ni  Ni492  1  0.66666667  0.00000000  0.31533941  1.0
  Ni  Ni493  1  0.66666667  0.33333333  0.31533941  1.0
  Ni  Ni494  1  0.66666667  0.66666667  0.31533941  1.0
  Ni  Ni495  1  0.16666667  0.16666667  0.29261214  1.0
  Ni  Ni496  1  0.16666667  0.50000000  0.29261214  1.0
  Ni  Ni497  1  0.16666667  0.83333333  0.29261214  1.0
  Ni  Ni498  1  0.50000000  0.16666667  0.29261214  1.0
  Ni  Ni499  1  0.50000000  0.50000000  0.29261214  1.0
  Ni  Ni500  1  0.50000000  0.83333333  0.29261214  1.0
  Ni  Ni501  1  0.83333333  0.16666667  0.29261214  1.0
  Ni  Ni502  1  0.83333333  0.50000000  0.29261214  1.0
  Ni  Ni503  1  0.83333333  0.83333333  0.29261214  1.0
  Fe  Fe504  1  0.29164467  0.12506600  0.35510914  1.0
  Fe  Fe505  1  0.29164467  0.45839933  0.35510914  1.0
  Fe  Fe506  1  0.29164467  0.79173267  0.35510914  1.0
  Fe  Fe507  1  0.62497800  0.12506600  0.35510914  1.0
  Fe  Fe508  1  0.62497800  0.45839933  0.35510914  1.0
  Fe  Fe509  1  0.62497800  0.79173267  0.35510914  1.0
  Fe  Fe510  1  0.95831133  0.12506600  0.35510914  1.0
  Fe  Fe511  1  0.95831133  0.45839933  0.35510914  1.0
  Fe  Fe512  1  0.95831133  0.79173267  0.35510914  1.0
  Fe  Fe513  1  0.12497800  0.29173267  0.33238186  1.0
  Fe  Fe514  1  0.12497800  0.62506600  0.33238186  1.0
  Fe  Fe515  1  0.12497800  0.95839933  0.33238186  1.0
  Fe  Fe516  1  0.45831133  0.29173267  0.33238186  1.0
  Fe  Fe517  1  0.45831133  0.62506600  0.33238186  1.0
  Fe  Fe518  1  0.45831133  0.95839933  0.33238186  1.0
  Fe  Fe519  1  0.79164467  0.29173267  0.33238186  1.0
  Fe  Fe520  1  0.79164467  0.62506600  0.33238186  1.0
  Fe  Fe521  1  0.79164467  0.95839933  0.33238186  1.0
  Fe  Fe522  1  0.25000000  0.25000000  0.34943032  1.0
  Fe  Fe523  1  0.25000000  0.58333333  0.34943032  1.0
  Fe  Fe524  1  0.25000000  0.91666667  0.34943032  1.0
  Fe  Fe525  1  0.58333333  0.25000000  0.34943032  1.0
  Fe  Fe526  1  0.58333333  0.58333333  0.34943032  1.0
  Fe  Fe527  1  0.58333333  0.91666667  0.34943032  1.0
  Fe  Fe528  1  0.91666667  0.25000000  0.34943032  1.0
  Fe  Fe529  1  0.91666667  0.58333333  0.34943032  1.0
  Fe  Fe530  1  0.91666667  0.91666667  0.34943032  1.0
  Fe  Fe531  1  0.08333333  0.08333333  0.32670305  1.0
  Fe  Fe532  1  0.08333333  0.41666667  0.32670305  1.0
  Fe  Fe533  1  0.08333333  0.75000000  0.32670305  1.0
  Fe  Fe534  1  0.41666667  0.08333333  0.32670305  1.0
  Fe  Fe535  1  0.41666667  0.41666667  0.32670305  1.0
  Fe  Fe536  1  0.41666667  0.75000000  0.32670305  1.0
  Fe  Fe537  1  0.75000000  0.08333333  0.32670305  1.0
  Fe  Fe538  1  0.75000000  0.41666667  0.32670305  1.0
  Fe  Fe539  1  0.75000000  0.75000000  0.32670305  1.0
  Fe  Fe540  1  0.20835533  0.04160067  0.34375150  1.0
  Fe  Fe541  1  0.20835533  0.37493400  0.34375150  1.0
  Fe  Fe542  1  0.20835533  0.70826733  0.34375150  1.0
  Fe  Fe543  1  0.54168867  0.04160067  0.34375150  1.0
  Fe  Fe544  1  0.54168867  0.37493400  0.34375150  1.0
  Fe  Fe545  1  0.54168867  0.70826733  0.34375150  1.0
  Fe  Fe546  1  0.87502200  0.04160067  0.34375150  1.0
  Fe  Fe547  1  0.87502200  0.37493400  0.34375150  1.0
  Fe  Fe548  1  0.87502200  0.70826733  0.34375150  1.0
  Fe  Fe549  1  0.04168867  0.20826733  0.32102423  1.0
  Fe  Fe550  1  0.04168867  0.54160067  0.32102423  1.0
  Fe  Fe551  1  0.04168867  0.87493400  0.32102423  1.0
  Fe  Fe552  1  0.37502200  0.20826733  0.32102423  1.0
  Fe  Fe553  1  0.37502200  0.54160067  0.32102423  1.0
  Fe  Fe554  1  0.37502200  0.87493400  0.32102423  1.0
  Fe  Fe555  1  0.70835533  0.20826733  0.32102423  1.0
  Fe  Fe556  1  0.70835533  0.54160067  0.32102423  1.0
  Fe  Fe557  1  0.70835533  0.87493400  0.32102423  1.0
  Ni  Ni558  1  0.00000000  0.00000000  0.36079395  1.0
  Ni  Ni559  1  0.00000000  0.33333333  0.36079395  1.0
  Ni  Ni560  1  0.00000000  0.66666667  0.36079395  1.0
  Ni  Ni561  1  0.33333333  0.00000000  0.36079395  1.0
  Ni  Ni562  1  0.33333333  0.33333333  0.36079395  1.0
  Ni  Ni563  1  0.33333333  0.66666667  0.36079395  1.0
  Ni  Ni564  1  0.66666667  0.00000000  0.36079395  1.0
  Ni  Ni565  1  0.66666667  0.33333333  0.36079395  1.0
  Ni  Ni566  1  0.66666667  0.66666667  0.36079395  1.0
  Ni  Ni567  1  0.16666667  0.16666667  0.33806668  1.0
  Ni  Ni568  1  0.16666667  0.50000000  0.33806668  1.0
  Ni  Ni569  1  0.16666667  0.83333333  0.33806668  1.0
  Ni  Ni570  1  0.50000000  0.16666667  0.33806668  1.0
  Ni  Ni571  1  0.50000000  0.50000000  0.33806668  1.0
  Ni  Ni572  1  0.50000000  0.83333333  0.33806668  1.0
  Ni  Ni573  1  0.83333333  0.16666667  0.33806668  1.0
  Ni  Ni574  1  0.83333333  0.50000000  0.33806668  1.0
  Ni  Ni575  1  0.83333333  0.83333333  0.33806668  1.0
  Fe  Fe576  1  0.29164467  0.12506600  0.40056368  1.0
  Fe  Fe577  1  0.29164467  0.45839933  0.40056368  1.0
  Fe  Fe578  1  0.29164467  0.79173267  0.40056368  1.0
  Fe  Fe579  1  0.62497800  0.12506600  0.40056368  1.0
  Fe  Fe580  1  0.62497800  0.45839933  0.40056368  1.0
  Fe  Fe581  1  0.62497800  0.79173267  0.40056368  1.0
  Fe  Fe582  1  0.95831133  0.12506600  0.40056368  1.0
  Fe  Fe583  1  0.95831133  0.45839933  0.40056368  1.0
  Fe  Fe584  1  0.95831133  0.79173267  0.40056368  1.0
  Fe  Fe585  1  0.12497800  0.29173267  0.37783641  1.0
  Fe  Fe586  1  0.12497800  0.62506600  0.37783641  1.0
  Fe  Fe587  1  0.12497800  0.95839933  0.37783641  1.0
  Fe  Fe588  1  0.45831133  0.29173267  0.37783641  1.0
  Fe  Fe589  1  0.45831133  0.62506600  0.37783641  1.0
  Fe  Fe590  1  0.45831133  0.95839933  0.37783641  1.0
  Fe  Fe591  1  0.79164467  0.29173267  0.37783641  1.0
  Fe  Fe592  1  0.79164467  0.62506600  0.37783641  1.0
  Fe  Fe593  1  0.79164467  0.95839933  0.37783641  1.0
  Fe  Fe594  1  0.25000000  0.25000000  0.39488486  1.0
  Fe  Fe595  1  0.25000000  0.58333333  0.39488486  1.0
  Fe  Fe596  1  0.25000000  0.91666667  0.39488486  1.0
  Fe  Fe597  1  0.58333333  0.25000000  0.39488486  1.0
  Fe  Fe598  1  0.58333333  0.58333333  0.39488486  1.0
  Fe  Fe599  1  0.58333333  0.91666667  0.39488486  1.0
  Fe  Fe600  1  0.91666667  0.25000000  0.39488486  1.0
  Fe  Fe601  1  0.91666667  0.58333333  0.39488486  1.0
  Fe  Fe602  1  0.91666667  0.91666667  0.39488486  1.0
  Fe  Fe603  1  0.08333333  0.08333333  0.37215759  1.0
  Fe  Fe604  1  0.08333333  0.41666667  0.37215759  1.0
  Fe  Fe605  1  0.08333333  0.75000000  0.37215759  1.0
  Fe  Fe606  1  0.41666667  0.08333333  0.37215759  1.0
  Fe  Fe607  1  0.41666667  0.41666667  0.37215759  1.0
  Fe  Fe608  1  0.41666667  0.75000000  0.37215759  1.0
  Fe  Fe609  1  0.75000000  0.08333333  0.37215759  1.0
  Fe  Fe610  1  0.75000000  0.41666667  0.37215759  1.0
  Fe  Fe611  1  0.75000000  0.75000000  0.37215759  1.0
  Fe  Fe612  1  0.20835533  0.04160067  0.38920605  1.0
  Fe  Fe613  1  0.20835533  0.37493400  0.38920605  1.0
  Fe  Fe614  1  0.20835533  0.70826733  0.38920605  1.0
  Fe  Fe615  1  0.54168867  0.04160067  0.38920605  1.0
  Fe  Fe616  1  0.54168867  0.37493400  0.38920605  1.0
  Fe  Fe617  1  0.54168867  0.70826733  0.38920605  1.0
  Fe  Fe618  1  0.87502200  0.04160067  0.38920605  1.0
  Fe  Fe619  1  0.87502200  0.37493400  0.38920605  1.0
  Fe  Fe620  1  0.87502200  0.70826733  0.38920605  1.0
  Fe  Fe621  1  0.04168867  0.20826733  0.36647877  1.0
  Fe  Fe622  1  0.04168867  0.54160067  0.36647877  1.0
  Fe  Fe623  1  0.04168867  0.87493400  0.36647877  1.0
  Fe  Fe624  1  0.37502200  0.20826733  0.36647877  1.0
  Fe  Fe625  1  0.37502200  0.54160067  0.36647877  1.0
  Fe  Fe626  1  0.37502200  0.87493400  0.36647877  1.0
  Fe  Fe627  1  0.70835533  0.20826733  0.36647877  1.0
  Fe  Fe628  1  0.70835533  0.54160067  0.36647877  1.0
  Fe  Fe629  1  0.70835533  0.87493400  0.36647877  1.0
  Ni  Ni630  1  0.00000000  0.00000000  0.40624850  1.0
  Ni  Ni631  1  0.00000000  0.33333333  0.40624850  1.0
  Ni  Ni632  1  0.00000000  0.66666667  0.40624850  1.0
  Ni  Ni633  1  0.33333333  0.00000000  0.40624850  1.0
  Ni  Ni634  1  0.33333333  0.33333333  0.40624850  1.0
  Ni  Ni635  1  0.33333333  0.66666667  0.40624850  1.0
  Ni  Ni636  1  0.66666667  0.00000000  0.40624850  1.0
  Ni  Ni637  1  0.66666667  0.33333333  0.40624850  1.0
  Ni  Ni638  1  0.66666667  0.66666667  0.40624850  1.0
  Ni  Ni639  1  0.16666667  0.16666667  0.38352123  1.0
  Ni  Ni640  1  0.16666667  0.50000000  0.38352123  1.0
  Ni  Ni641  1  0.16666667  0.83333333  0.38352123  1.0
  Ni  Ni642  1  0.50000000  0.16666667  0.38352123  1.0
  Ni  Ni643  1  0.50000000  0.50000000  0.38352123  1.0
  Ni  Ni644  1  0.50000000  0.83333333  0.38352123  1.0
  Ni  Ni645  1  0.83333333  0.16666667  0.38352123  1.0
  Ni  Ni646  1  0.83333333  0.50000000  0.38352123  1.0
  Ni  Ni647  1  0.83333333  0.83333333  0.38352123  1.0
