# generated using pymatgen
data_Fe3Ni
_symmetry_space_group_name_H-M   'P 1'
_cell_length_a   12.10301928
_cell_length_b   17.11625401
_cell_length_c   28.24037832
_cell_angle_alpha   90.00000000
_cell_angle_beta   90.00000000
_cell_angle_gamma   90.00000000
_symmetry_Int_Tables_number   1
_chemical_formula_structural   Fe3Ni
_chemical_formula_sum   'Fe162 Ni54'
_cell_volume   5850.23024115
_cell_formula_units_Z   54
loop_
 _symmetry_equiv_pos_site_id
 _symmetry_equiv_pos_as_xyz
  1  'x, y, z'
loop_
 _atom_site_type_symbol
 _atom_site_label
 _atom_site_symmetry_multiplicity
 _atom_site_fract_x
 _atom_site_fract_y
 _atom_site_fract_z
 _atom_site_occupancy
  Fe  Fe0  1  0.33333333  0.25000000  0.96428571  1.0
  Fe  Fe1  1  0.33333333  0.58333333  0.96428571  1.0
  Fe  Fe2  1  0.33333333  0.91666667  0.96428571  1.0
  Fe  Fe3  1  0.66666667  0.25000000  0.96428571  1.0
  Fe  Fe4  1  0.66666667  0.58333333  0.96428571  1.0
  Fe  Fe5  1  0.66666667  0.91666667  0.96428571  1.0
  Fe  Fe6  1  1.00000000  0.25000000  0.96428571  1.0
  Fe  Fe7  1  1.00000000  0.58333333  0.96428571  1.0
  Fe  Fe8  1  1.00000000  0.91666667  0.96428571  1.0
  Fe  Fe9  1  0.16666667  0.08333333  0.89285714  1.0
  Fe  Fe10  1  0.16666667  0.41666667  0.89285714  1.0
  Fe  Fe11  1  0.16666667  0.75000000  0.89285714  1.0
  Fe  Fe12  1  0.50000000  0.08333333  0.89285714  1.0
  Fe  Fe13  1  0.50000000  0.41666667  0.89285714  1.0
  Fe  Fe14  1  0.50000000  0.75000000  0.89285714  1.0
  Fe  Fe15  1  0.83333333  0.08333333  0.89285714  1.0
  Fe  Fe16  1  0.83333333  0.41666667  0.89285714  1.0
  Fe  Fe17  1  0.83333333  0.75000000  0.89285714  1.0
  Fe  Fe18  1  0.33333333  0.08333333  0.96428571  1.0
  Fe  Fe19  1  0.33333333  0.41666667  0.96428571  1.0
  Fe  Fe20  1  0.33333333  0.75000000  0.96428571  1.0
  Fe  Fe21  1  0.66666667  0.08333333  0.96428571  1.0
  Fe  Fe22  1  0.66666667  0.41666667  0.96428571  1.0
  Fe  Fe23  1  0.66666667  0.75000000  0.96428571  1.0
  Fe  Fe24  1  0.00000000  0.08333333  0.96428571  1.0
  Fe  Fe25  1  0.00000000  0.41666667  0.96428571  1.0
  Fe  Fe26  1  0.00000000  0.75000000  0.96428571  1.0
  Fe  Fe27  1  0.16666667  0.25000000  0.89285714  1.0
  Fe  Fe28  1  0.16666667  0.58333333  0.89285714  1.0
  Fe  Fe29  1  0.16666667  0.91666667  0.89285714  1.0
  Fe  Fe30  1  0.50000000  0.25000000  0.89285714  1.0
  Fe  Fe31  1  0.50000000  0.58333333  0.89285714  1.0
  Fe  Fe32  1  0.50000000  0.91666667  0.89285714  1.0
  Fe  Fe33  1  0.83333333  0.25000000  0.89285714  1.0
  Fe  Fe34  1  0.83333333  0.58333333  0.89285714  1.0
  Fe  Fe35  1  0.83333333  0.91666667  0.89285714  1.0
  Fe  Fe36  1  0.33333333  0.16666667  0.89285714  1.0
  Fe  Fe37  1  0.33333333  0.50000000  0.89285714  1.0
  Fe  Fe38  1  0.33333333  0.83333333  0.89285714  1.0
  Fe  Fe39  1  0.66666667  0.16666667  0.89285714  1.0
  Fe  Fe40  1  0.66666667  0.50000000  0.89285714  1.0
  Fe  Fe41  1  0.66666667  0.83333333  0.89285714  1.0
  Fe  Fe42  1  1.00000000  0.16666667  0.89285714  1.0
  Fe  Fe43  1  1.00000000  0.50000000  0.89285714  1.0
  Fe  Fe44  1  1.00000000  0.83333333  0.89285714  1.0
  Fe  Fe45  1  0.16666667  0.33333333  0.96428571  1.0
  Fe  Fe46  1  0.16666667  0.66666667  0.96428571  1.0
  Fe  Fe47  1  0.16666667  1.00000000  0.96428571  1.0
  Fe  Fe48  1  0.50000000  0.33333333  0.96428571  1.0
  Fe  Fe49  1  0.50000000  0.66666667  0.96428571  1.0
  Fe  Fe50  1  0.50000000  1.00000000  0.96428571  1.0
  Fe  Fe51  1  0.83333333  0.33333333  0.96428571  1.0
  Fe  Fe52  1  0.83333333  0.66666667  0.96428571  1.0
  Fe  Fe53  1  0.83333333  1.00000000  0.96428571  1.0
  Fe  Fe54  1  0.33333333  0.25000000  0.82142857  1.0
  Fe  Fe55  1  0.33333333  0.58333333  0.82142857  1.0
  Fe  Fe56  1  0.33333333  0.91666667  0.82142857  1.0
  Fe  Fe57  1  0.66666667  0.25000000  0.82142857  1.0
  Fe  Fe58  1  0.66666667  0.58333333  0.82142857  1.0
  Fe  Fe59  1  0.66666667  0.91666667  0.82142857  1.0
  Fe  Fe60  1  1.00000000  0.25000000  0.82142857  1.0
  Fe  Fe61  1  1.00000000  0.58333333  0.82142857  1.0
  Fe  Fe62  1  1.00000000  0.91666667  0.82142857  1.0
  Fe  Fe63  1  0.16666667  0.08333333  0.75000000  1.0
  Fe  Fe64  1  0.16666667  0.41666667  0.75000000  1.0
  Fe  Fe65  1  0.16666667  0.75000000  0.75000000  1.0
  Fe  Fe66  1  0.50000000  0.08333333  0.75000000  1.0
  Fe  Fe67  1  0.50000000  0.41666667  0.75000000  1.0
  Fe  Fe68  1  0.50000000  0.75000000  0.75000000  1.0
  Fe  Fe69  1  0.83333333  0.08333333  0.75000000  1.0
  Fe  Fe70  1  0.83333333  0.41666667  0.75000000  1.0
  Fe  Fe71  1  0.83333333  0.75000000  0.75000000  1.0
  Fe  Fe72  1  0.33333333  0.08333333  0.82142857  1.0
  Fe  Fe73  1  0.33333333  0.41666667  0.82142857  1.0
  Fe  Fe74  1  0.33333333  0.75000000  0.82142857  1.0
  Fe  Fe75  1  0.66666667  0.08333333  0.82142857  1.0
  Fe  Fe76  1  0.66666667  0.41666667  0.82142857  1.0
  Fe  Fe77  1  0.66666667  0.75000000  0.82142857  1.0
  Fe  Fe78  1  1.00000000  0.08333333  0.82142857  1.0
  Fe  Fe79  1  1.00000000  0.41666667  0.82142857  1.0
  Fe  Fe80  1  1.00000000  0.75000000  0.82142857  1.0
  Fe  Fe81  1  0.16666667  0.25000000  0.75000000  1.0
  Fe  Fe82  1  0.16666667  0.58333333  0.75000000  1.0
  Fe  Fe83  1  0.16666667  0.91666667  0.75000000  1.0
  Fe  Fe84  1  0.50000000  0.25000000  0.75000000  1.0
  Fe  Fe85  1  0.50000000  0.58333333  0.75000000  1.0
  Fe  Fe86  1  0.50000000  0.91666667  0.75000000  1.0
  Fe  Fe87  1  0.83333333  0.25000000  0.75000000  1.0
  Fe  Fe88  1  0.83333333  0.58333333  0.75000000  1.0
  Fe  Fe89  1  0.83333333  0.91666667  0.75000000  1.0
  Fe  Fe90  1  0.33333333  0.16666667  0.75000000  1.0
  Fe  Fe91  1  0.33333333  0.50000000  0.75000000  1.0
  Fe  Fe92  1  0.33333333  0.83333333  0.75000000  1.0
  Fe  Fe93  1  0.66666667  0.16666667  0.75000000  1.0
  Fe  Fe94  1  0.66666667  0.50000000  0.75000000  1.0
  Fe  Fe95  1  0.66666667  0.83333333  0.75000000  1.0
  Fe  Fe96  1  1.00000000  0.16666667  0.75000000  1.0
  Fe  Fe97  1  1.00000000  0.50000000  0.75000000  1.0
  Fe  Fe98  1  1.00000000  0.83333333  0.75000000  1.0
  Fe  Fe99  1  0.16666667  0.33333333  0.82142857  1.0
  Fe  Fe100  1  0.16666667  0.66666667  0.82142857  1.0
  Fe  Fe101  1  0.16666667  1.00000000  0.82142857  1.0
  Fe  Fe102  1  0.50000000  0.33333333  0.82142857  1.0
  Fe  Fe103  1  0.50000000  0.66666667  0.82142857  1.0
  Fe  Fe104  1  0.50000000  1.00000000  0.82142857  1.0
  Fe  Fe105  1  0.83333333  0.33333333  0.82142857  1.0
  Fe  Fe106  1  0.83333333  0.66666667  0.82142857  1.0
  Fe  Fe107  1  0.83333333  1.00000000  0.82142857  1.0
  Fe  Fe108  1  0.33333333  0.25000000  0.67857143  1.0
  Fe  Fe109  1  0.33333333  0.58333333  0.67857143  1.0
  Fe  Fe110  1  0.33333333  0.91666667  0.67857143  1.0
  Fe  Fe111  1  0.66666667  0.25000000  0.67857143  1.0
  Fe  Fe112  1  0.66666667  0.58333333  0.67857143  1.0
  Fe  Fe113  1  0.66666667  0.91666667  0.67857143  1.0
  Fe  Fe114  1  1.00000000  0.25000000  0.67857143  1.0
  Fe  Fe115  1  1.00000000  0.58333333  0.67857143  1.0
  Fe  Fe116  1  1.00000000  0.91666667  0.67857143  1.0
  Fe  Fe117  1  0.16666667  0.08333333  0.60714286  1.0
  Fe  Fe118  1  0.16666667  0.41666667  0.60714286  1.0
  Fe  Fe119  1  0.16666667  0.75000000  0.60714286  1.0
  Fe  Fe120  1  0.50000000  0.08333333  0.60714286  1.0
  Fe  Fe121  1  0.50000000  0.41666667  0.60714286  1.0
  Fe  Fe122  1  0.50000000  0.75000000  0.60714286  1.0
  Fe  Fe123  1  0.83333333  0.08333333  0.60714286  1.0
  Fe  Fe124  1  0.83333333  0.41666667  0.60714286  1.0
  Fe  Fe125  1  0.83333333  0.75000000  0.60714286  1.0
  Fe  Fe126  1  0.33333333  0.08333333  0.67857143  1.0
  Fe  Fe127  1  0.33333333  0.41666667  0.67857143  1.0
  Fe  Fe128  1  0.33333333  0.75000000  0.67857143  1.0
  Fe  Fe129  1  0.66666667  0.08333333  0.67857143  1.0
  Fe  Fe130  1  0.66666667  0.41666667  0.67857143  1.0
  Fe  Fe131  1  0.66666667  0.75000000  0.67857143  1.0
  Fe  Fe132  1  1.00000000  0.08333333  0.67857143  1.0
  Fe  Fe133  1  1.00000000  0.41666667  0.67857143  1.0
  Fe  Fe134  1  1.00000000  0.75000000  0.67857143  1.0
  Fe  Fe135  1  0.16666667  0.25000000  0.60714286  1.0
  Fe  Fe136  1  0.16666667  0.58333333  0.60714286  1.0
  Fe  Fe137  1  0.16666667  0.91666667  0.60714286  1.0
  Fe  Fe138  1  0.50000000  0.25000000  0.60714286  1.0
  Fe  Fe139  1  0.50000000  0.58333333  0.60714286  1.0
  Fe  Fe140  1  0.50000000  0.91666667  0.60714286  1.0
  Fe  Fe141  1  0.83333333  0.25000000  0.60714286  1.0
  Fe  Fe142  1  0.83333333  0.58333333  0.60714286  1.0
  Fe  Fe143  1  0.83333333  0.91666667  0.60714286  1.0
  Fe  Fe144  1  0.33333333  0.16666667  0.60714286  1.0
  Fe  Fe145  1  0.33333333  0.50000000  0.60714286  1.0
  Fe  Fe146  1  0.33333333  0.83333333  0.60714286  1.0
  Fe  Fe147  1  0.66666667  0.16666667  0.60714286  1.0
  Fe  Fe148  1  0.66666667  0.50000000  0.60714286  1.0
  Fe  Fe149  1  0.66666667  0.83333333  0.60714286  1.0
  Fe  Fe150  1  1.00000000  0.16666667  0.60714286  1.0
  Fe  Fe151  1  1.00000000  0.50000000  0.60714286  1.0
  Fe  Fe152  1  1.00000000  0.83333333  0.60714286  1.0
  Fe  Fe153  1  0.16666667  0.00000000  0.67857143  1.0
  Fe  Fe154  1  0.16666667  0.33333333  0.67857143  1.0
  Fe  Fe155  1  0.16666667  0.66666667  0.67857143  1.0
  Fe  Fe156  1  0.50000000  0.00000000  0.67857143  1.0
  Fe  Fe157  1  0.50000000  0.33333333  0.67857143  1.0
  Fe  Fe158  1  0.50000000  0.66666667  0.67857143  1.0
  Fe  Fe159  1  0.83333333  0.00000000  0.67857143  1.0
  Fe  Fe160  1  0.83333333  0.33333333  0.67857143  1.0
  Fe  Fe161  1  0.83333333  0.66666667  0.67857143  1.0
  Ni  Ni162  1  0.00000000  0.00000000  0.89285714  1.0
  Ni  Ni163  1  0.00000000  0.33333333  0.89285714  1.0
  Ni  Ni164  1  0.00000000  0.66666667  0.89285714  1.0
  Ni  Ni165  1  0.33333333  0.00000000  0.89285714  1.0
  Ni  Ni166  1  0.33333333  0.33333333  0.89285714  1.0
  Ni  Ni167  1  0.33333333  0.66666667  0.89285714  1.0
  Ni  Ni168  1  0.66666667  0.00000000  0.89285714  1.0
  Ni  Ni169  1  0.66666667  0.33333333  0.89285714  1.0
  Ni  Ni170  1  0.66666667  0.66666667  0.89285714  1.0
  Ni  Ni171  1  0.16666667  0.16666667  0.96428571  1.0
  Ni  Ni172  1  0.16666667  0.50000000  0.96428571  1.0
  Ni  Ni173  1  0.16666667  0.83333333  0.96428571  1.0
  Ni  Ni174  1  0.50000000  0.16666667  0.96428571  1.0
  Ni  Ni175  1  0.50000000  0.50000000  0.96428571  1.0
  Ni  Ni176  1  0.50000000  0.83333333  0.96428571  1.0
  Ni  Ni177  1  0.83333333  0.16666667  0.96428571  1.0
  Ni  Ni178  1  0.83333333  0.50000000  0.96428571  1.0
  Ni  Ni179  1  0.83333333  0.83333333  0.96428571  1.0
  Ni  Ni180  1  0.00000000  0.00000000  0.75000000  1.0
  Ni  Ni181  1  0.00000000  0.33333333  0.75000000  1.0
  Ni  Ni182  1  0.00000000  0.66666667  0.75000000  1.0
  Ni  Ni183  1  0.33333333  0.00000000  0.75000000  1.0
  Ni  Ni184  1  0.33333333  0.33333333  0.75000000  1.0
  Ni  Ni185  1  0.33333333  0.66666667  0.75000000  1.0
  Ni  Ni186  1  0.66666667  0.00000000  0.75000000  1.0
  Ni  Ni187  1  0.66666667  0.33333333  0.75000000  1.0
  Ni  Ni188  1  0.66666667  0.66666667  0.75000000  1.0
  Ni  Ni189  1  0.16666667  0.16666667  0.82142857  1.0
  Ni  Ni190  1  0.16666667  0.50000000  0.82142857  1.0
  Ni  Ni191  1  0.16666667  0.83333333  0.82142857  1.0
  Ni  Ni192  1  0.50000000  0.16666667  0.82142857  1.0
  Ni  Ni193  1  0.50000000  0.50000000  0.82142857  1.0
  Ni  Ni194  1  0.50000000  0.83333333  0.82142857  1.0
  Ni  Ni195  1  0.83333333  0.16666667  0.82142857  1.0
  Ni  Ni196  1  0.83333333  0.50000000  0.82142857  1.0
  Ni  Ni197  1  0.83333333  0.83333333  0.82142857  1.0
  Ni  Ni198  1  0.33333333  0.33333333  0.60714286  1.0
  Ni  Ni199  1  0.33333333  0.66666667  0.60714286  1.0
  Ni  Ni200  1  0.33333333  1.00000000  0.60714286  1.0
  Ni  Ni201  1  0.66666667  0.33333333  0.60714286  1.0
  Ni  Ni202  1  0.66666667  0.66666667  0.60714286  1.0
  Ni  Ni203  1  0.66666667  1.00000000  0.60714286  1.0
  Ni  Ni204  1  1.00000000  0.33333333  0.60714286  1.0
  Ni  Ni205  1  1.00000000  0.66666667  0.60714286  1.0
  Ni  Ni206  1  1.00000000  1.00000000  0.60714286  1.0
  Ni  Ni207  1  0.16666667  0.16666667  0.67857143  1.0
  Ni  Ni208  1  0.16666667  0.50000000  0.67857143  1.0
  Ni  Ni209  1  0.16666667  0.83333333  0.67857143  1.0
  Ni  Ni210  1  0.50000000  0.16666667  0.67857143  1.0
  Ni  Ni211  1  0.50000000  0.50000000  0.67857143  1.0
  Ni  Ni212  1  0.50000000  0.83333333  0.67857143  1.0
  Ni  Ni213  1  0.83333333  0.16666667  0.67857143  1.0
  Ni  Ni214  1  0.83333333  0.50000000  0.67857143  1.0
  Ni  Ni215  1  0.83333333  0.83333333  0.67857143  1.0
