# generated using pymatgen
data_Fe3Ni
_symmetry_space_group_name_H-M   'P 1'
_cell_length_a   27.39258614
_cell_length_b   7.51013874
_cell_length_c   58.91606175
_cell_angle_alpha   81.44740942
_cell_angle_beta   28.23683298
_cell_angle_gamma   82.12088877
_symmetry_Int_Tables_number   1
_chemical_formula_structural   Fe3Ni
_chemical_formula_sum   'Fe162 Ni54'
_cell_volume   5670.09682691
_cell_formula_units_Z   54
loop_
 _symmetry_equiv_pos_site_id
 _symmetry_equiv_pos_as_xyz
  1  'x, y, z'
loop_
 _atom_site_type_symbol
 _atom_site_label
 _atom_site_symmetry_multiplicity
 _atom_site_fract_x
 _atom_site_fract_y
 _atom_site_fract_z
 _atom_site_occupancy
  Fe  Fe0  1  0.20835533  0.04160067  0.00895214  1.0
  Fe  Fe1  1  0.20835533  0.37493400  0.00895214  1.0
  Fe  Fe2  1  0.20835533  0.70826733  0.00895214  1.0
  Fe  Fe3  1  0.54168867  0.04160067  0.00895214  1.0
  Fe  Fe4  1  0.54168867  0.37493400  0.00895214  1.0
  Fe  Fe5  1  0.54168867  0.70826733  0.00895214  1.0
  Fe  Fe6  1  0.87502200  0.04160067  0.00895214  1.0
  Fe  Fe7  1  0.87502200  0.37493400  0.00895214  1.0
  Fe  Fe8  1  0.87502200  0.70826733  0.00895214  1.0
  Fe  Fe9  1  0.04168867  0.20826733  0.08038071  1.0
  Fe  Fe10  1  0.04168867  0.54160067  0.08038071  1.0
  Fe  Fe11  1  0.04168867  0.87493400  0.08038071  1.0
  Fe  Fe12  1  0.37502200  0.20826733  0.08038071  1.0
  Fe  Fe13  1  0.37502200  0.54160067  0.08038071  1.0
  Fe  Fe14  1  0.37502200  0.87493400  0.08038071  1.0
  Fe  Fe15  1  0.70835533  0.20826733  0.08038071  1.0
  Fe  Fe16  1  0.70835533  0.54160067  0.08038071  1.0
  Fe  Fe17  1  0.70835533  0.87493400  0.08038071  1.0
  Fe  Fe18  1  0.25000000  0.25000000  0.09819071  1.0
  Fe  Fe19  1  0.25000000  0.58333333  0.09819071  1.0
  Fe  Fe20  1  0.25000000  0.91666667  0.09819071  1.0
  Fe  Fe21  1  0.58333333  0.25000000  0.09819071  1.0
  Fe  Fe22  1  0.58333333  0.58333333  0.09819071  1.0
  Fe  Fe23  1  0.58333333  0.91666667  0.09819071  1.0
  Fe  Fe24  1  0.91666667  0.25000000  0.09819071  1.0
  Fe  Fe25  1  0.91666667  0.58333333  0.09819071  1.0
  Fe  Fe26  1  0.91666667  0.91666667  0.09819071  1.0
  Fe  Fe27  1  0.08333333  0.08333333  0.02676214  1.0
  Fe  Fe28  1  0.08333333  0.41666667  0.02676214  1.0
  Fe  Fe29  1  0.08333333  0.75000000  0.02676214  1.0
  Fe  Fe30  1  0.41666667  0.08333333  0.02676214  1.0
  Fe  Fe31  1  0.41666667  0.41666667  0.02676214  1.0
  Fe  Fe32  1  0.41666667  0.75000000  0.02676214  1.0
  Fe  Fe33  1  0.75000000  0.08333333  0.02676214  1.0
  Fe  Fe34  1  0.75000000  0.41666667  0.02676214  1.0
  Fe  Fe35  1  0.75000000  0.75000000  0.02676214  1.0
  Fe  Fe36  1  0.29164467  0.12506600  0.04457214  1.0
  Fe  Fe37  1  0.29164467  0.45839933  0.04457214  1.0
  Fe  Fe38  1  0.29164467  0.79173267  0.04457214  1.0
  Fe  Fe39  1  0.62497800  0.12506600  0.04457214  1.0
  Fe  Fe40  1  0.62497800  0.45839933  0.04457214  1.0
  Fe  Fe41  1  0.62497800  0.79173267  0.04457214  1.0
  Fe  Fe42  1  0.95831133  0.12506600  0.04457214  1.0
  Fe  Fe43  1  0.95831133  0.45839933  0.04457214  1.0
  Fe  Fe44  1  0.95831133  0.79173267  0.04457214  1.0
  Fe  Fe45  1  0.12497800  0.29173267  0.11600071  1.0
  Fe  Fe46  1  0.12497800  0.62506600  0.11600071  1.0
  Fe  Fe47  1  0.12497800  0.95839933  0.11600071  1.0
  Fe  Fe48  1  0.45831133  0.29173267  0.11600071  1.0
  Fe  Fe49  1  0.45831133  0.62506600  0.11600071  1.0
  Fe  Fe50  1  0.45831133  0.95839933  0.11600071  1.0
  Fe  Fe51  1  0.79164467  0.29173267  0.11600071  1.0
  Fe  Fe52  1  0.79164467  0.62506600  0.11600071  1.0
  Fe  Fe53  1  0.79164467  0.95839933  0.11600071  1.0
  Ni  Ni54  1  0.16666667  0.16666667  0.06247643  1.0
  Ni  Ni55  1  0.16666667  0.50000000  0.06247643  1.0
  Ni  Ni56  1  0.16666667  0.83333333  0.06247643  1.0
  Ni  Ni57  1  0.50000000  0.16666667  0.06247643  1.0
  Ni  Ni58  1  0.50000000  0.50000000  0.06247643  1.0
  Ni  Ni59  1  0.50000000  0.83333333  0.06247643  1.0
  Ni  Ni60  1  0.83333333  0.16666667  0.06247643  1.0
  Ni  Ni61  1  0.83333333  0.50000000  0.06247643  1.0
  Ni  Ni62  1  0.83333333  0.83333333  0.06247643  1.0
  Ni  Ni63  1  0.00000000  0.00000000  0.13390500  1.0
  Ni  Ni64  1  0.00000000  0.33333333  0.13390500  1.0
  Ni  Ni65  1  0.00000000  0.66666667  0.13390500  1.0
  Ni  Ni66  1  0.33333333  0.00000000  0.13390500  1.0
  Ni  Ni67  1  0.33333333  0.33333333  0.13390500  1.0
  Ni  Ni68  1  0.33333333  0.66666667  0.13390500  1.0
  Ni  Ni69  1  0.66666667  0.00000000  0.13390500  1.0
  Ni  Ni70  1  0.66666667  0.33333333  0.13390500  1.0
  Ni  Ni71  1  0.66666667  0.66666667  0.13390500  1.0
  Fe  Fe72  1  0.20835533  0.04160067  0.15180929  1.0
  Fe  Fe73  1  0.20835533  0.37493400  0.15180929  1.0
  Fe  Fe74  1  0.20835533  0.70826733  0.15180929  1.0
  Fe  Fe75  1  0.54168867  0.04160067  0.15180929  1.0
  Fe  Fe76  1  0.54168867  0.37493400  0.15180929  1.0
  Fe  Fe77  1  0.54168867  0.70826733  0.15180929  1.0
  Fe  Fe78  1  0.87502200  0.04160067  0.15180929  1.0
  Fe  Fe79  1  0.87502200  0.37493400  0.15180929  1.0
  Fe  Fe80  1  0.87502200  0.70826733  0.15180929  1.0
  Fe  Fe81  1  0.04168867  0.20826733  0.22323786  1.0
  Fe  Fe82  1  0.04168867  0.54160067  0.22323786  1.0
  Fe  Fe83  1  0.04168867  0.87493400  0.22323786  1.0
  Fe  Fe84  1  0.37502200  0.20826733  0.22323786  1.0
  Fe  Fe85  1  0.37502200  0.54160067  0.22323786  1.0
  Fe  Fe86  1  0.37502200  0.87493400  0.22323786  1.0
  Fe  Fe87  1  0.70835533  0.20826733  0.22323786  1.0
  Fe  Fe88  1  0.70835533  0.54160067  0.22323786  1.0
  Fe  Fe89  1  0.70835533  0.87493400  0.22323786  1.0
  Fe  Fe90  1  0.25000000  0.25000000  0.24104786  1.0
  Fe  Fe91  1  0.25000000  0.58333333  0.24104786  1.0
  Fe  Fe92  1  0.25000000  0.91666667  0.24104786  1.0
  Fe  Fe93  1  0.58333333  0.25000000  0.24104786  1.0
  Fe  Fe94  1  0.58333333  0.58333333  0.24104786  1.0
  Fe  Fe95  1  0.58333333  0.91666667  0.24104786  1.0
  Fe  Fe96  1  0.91666667  0.25000000  0.24104786  1.0
  Fe  Fe97  1  0.91666667  0.58333333  0.24104786  1.0
  Fe  Fe98  1  0.91666667  0.91666667  0.24104786  1.0
  Fe  Fe99  1  0.08333333  0.08333333  0.16961929  1.0
  Fe  Fe100  1  0.08333333  0.41666667  0.16961929  1.0
  Fe  Fe101  1  0.08333333  0.75000000  0.16961929  1.0
  Fe  Fe102  1  0.41666667  0.08333333  0.16961929  1.0
  Fe  Fe103  1  0.41666667  0.41666667  0.16961929  1.0
  Fe  Fe104  1  0.41666667  0.75000000  0.16961929  1.0
  Fe  Fe105  1  0.75000000  0.08333333  0.16961929  1.0
  Fe  Fe106  1  0.75000000  0.41666667  0.16961929  1.0
  Fe  Fe107  1  0.75000000  0.75000000  0.16961929  1.0
  Fe  Fe108  1  0.29164467  0.12506600  0.18742929  1.0
  Fe  Fe109  1  0.29164467  0.45839933  0.18742929  1.0
  Fe  Fe110  1  0.29164467  0.79173267  0.18742929  1.0
  Fe  Fe111  1  0.62497800  0.12506600  0.18742929  1.0
  Fe  Fe112  1  0.62497800  0.45839933  0.18742929  1.0
  Fe  Fe113  1  0.62497800  0.79173267  0.18742929  1.0
  Fe  Fe114  1  0.95831133  0.12506600  0.18742929  1.0
  Fe  Fe115  1  0.95831133  0.45839933  0.18742929  1.0
  Fe  Fe116  1  0.95831133  0.79173267  0.18742929  1.0
  Fe  Fe117  1  0.12497800  0.29173267  0.25885786  1.0
  Fe  Fe118  1  0.12497800  0.62506600  0.25885786  1.0
  Fe  Fe119  1  0.12497800  0.95839933  0.25885786  1.0
  Fe  Fe120  1  0.45831133  0.29173267  0.25885786  1.0
  Fe  Fe121  1  0.45831133  0.62506600  0.25885786  1.0
  Fe  Fe122  1  0.45831133  0.95839933  0.25885786  1.0
  Fe  Fe123  1  0.79164467  0.29173267  0.25885786  1.0
  Fe  Fe124  1  0.79164467  0.62506600  0.25885786  1.0
  Fe  Fe125  1  0.79164467  0.95839933  0.25885786  1.0
  Ni  Ni126  1  0.16666667  0.16666667  0.20533357  1.0
  Ni  Ni127  1  0.16666667  0.50000000  0.20533357  1.0
  Ni  Ni128  1  0.16666667  0.83333333  0.20533357  1.0
  Ni  Ni129  1  0.50000000  0.16666667  0.20533357  1.0
  Ni  Ni130  1  0.50000000  0.50000000  0.20533357  1.0
  Ni  Ni131  1  0.50000000  0.83333333  0.20533357  1.0
  Ni  Ni132  1  0.83333333  0.16666667  0.20533357  1.0
  Ni  Ni133  1  0.83333333  0.50000000  0.20533357  1.0
  Ni  Ni134  1  0.83333333  0.83333333  0.20533357  1.0
  Ni  Ni135  1  0.00000000  0.00000000  0.27676214  1.0
  Ni  Ni136  1  0.00000000  0.33333333  0.27676214  1.0
  Ni  Ni137  1  0.00000000  0.66666667  0.27676214  1.0
  Ni  Ni138  1  0.33333333  0.00000000  0.27676214  1.0
  Ni  Ni139  1  0.33333333  0.33333333  0.27676214  1.0
  Ni  Ni140  1  0.33333333  0.66666667  0.27676214  1.0
  Ni  Ni141  1  0.66666667  0.00000000  0.27676214  1.0
  Ni  Ni142  1  0.66666667  0.33333333  0.27676214  1.0
  Ni  Ni143  1  0.66666667  0.66666667  0.27676214  1.0
  Fe  Fe144  1  0.20835533  0.04160067  0.29466643  1.0
  Fe  Fe145  1  0.20835533  0.37493400  0.29466643  1.0
  Fe  Fe146  1  0.20835533  0.70826733  0.29466643  1.0
  Fe  Fe147  1  0.54168867  0.04160067  0.29466643  1.0
  Fe  Fe148  1  0.54168867  0.37493400  0.29466643  1.0
  Fe  Fe149  1  0.54168867  0.70826733  0.29466643  1.0
  Fe  Fe150  1  0.87502200  0.04160067  0.29466643  1.0
  Fe  Fe151  1  0.87502200  0.37493400  0.29466643  1.0
  Fe  Fe152  1  0.87502200  0.70826733  0.29466643  1.0
  Fe  Fe153  1  0.04168867  0.20826733  0.36609500  1.0
  Fe  Fe154  1  0.04168867  0.54160067  0.36609500  1.0
  Fe  Fe155  1  0.04168867  0.87493400  0.36609500  1.0
  Fe  Fe156  1  0.37502200  0.20826733  0.36609500  1.0
  Fe  Fe157  1  0.37502200  0.54160067  0.36609500  1.0
  Fe  Fe158  1  0.37502200  0.87493400  0.36609500  1.0
  Fe  Fe159  1  0.70835533  0.20826733  0.36609500  1.0
  Fe  Fe160  1  0.70835533  0.54160067  0.36609500  1.0
  Fe  Fe161  1  0.70835533  0.87493400  0.36609500  1.0
  Fe  Fe162  1  0.25000000  0.25000000  0.38390500  1.0
  Fe  Fe163  1  0.25000000  0.58333333  0.38390500  1.0
  Fe  Fe164  1  0.25000000  0.91666667  0.38390500  1.0
  Fe  Fe165  1  0.58333333  0.25000000  0.38390500  1.0
  Fe  Fe166  1  0.58333333  0.58333333  0.38390500  1.0
  Fe  Fe167  1  0.58333333  0.91666667  0.38390500  1.0
  Fe  Fe168  1  0.91666667  0.25000000  0.38390500  1.0
  Fe  Fe169  1  0.91666667  0.58333333  0.38390500  1.0
  Fe  Fe170  1  0.91666667  0.91666667  0.38390500  1.0
  Fe  Fe171  1  0.08333333  0.08333333  0.31247643  1.0
  Fe  Fe172  1  0.08333333  0.41666667  0.31247643  1.0
  Fe  Fe173  1  0.08333333  0.75000000  0.31247643  1.0
  Fe  Fe174  1  0.41666667  0.08333333  0.31247643  1.0
  Fe  Fe175  1  0.41666667  0.41666667  0.31247643  1.0
  Fe  Fe176  1  0.41666667  0.75000000  0.31247643  1.0
  Fe  Fe177  1  0.75000000  0.08333333  0.31247643  1.0
  Fe  Fe178  1  0.75000000  0.41666667  0.31247643  1.0
  Fe  Fe179  1  0.75000000  0.75000000  0.31247643  1.0
  Fe  Fe180  1  0.29164467  0.12506600  0.33028643  1.0
  Fe  Fe181  1  0.29164467  0.45839933  0.33028643  1.0
  Fe  Fe182  1  0.29164467  0.79173267  0.33028643  1.0
  Fe  Fe183  1  0.62497800  0.12506600  0.33028643  1.0
  Fe  Fe184  1  0.62497800  0.45839933  0.33028643  1.0
  Fe  Fe185  1  0.62497800  0.79173267  0.33028643  1.0
  Fe  Fe186  1  0.95831133  0.12506600  0.33028643  1.0
  Fe  Fe187  1  0.95831133  0.45839933  0.33028643  1.0
  Fe  Fe188  1  0.95831133  0.79173267  0.33028643  1.0
  Fe  Fe189  1  0.12497800  0.29173267  0.40171500  1.0
  Fe  Fe190  1  0.12497800  0.62506600  0.40171500  1.0
  Fe  Fe191  1  0.12497800  0.95839933  0.40171500  1.0
  Fe  Fe192  1  0.45831133  0.29173267  0.40171500  1.0
  Fe  Fe193  1  0.45831133  0.62506600  0.40171500  1.0
  Fe  Fe194  1  0.45831133  0.95839933  0.40171500  1.0
  Fe  Fe195  1  0.79164467  0.29173267  0.40171500  1.0
  Fe  Fe196  1  0.79164467  0.62506600  0.40171500  1.0
  Fe  Fe197  1  0.79164467  0.95839933  0.40171500  1.0
  Ni  Ni198  1  0.16666667  0.16666667  0.34819071  1.0
  Ni  Ni199  1  0.16666667  0.50000000  0.34819071  1.0
  Ni  Ni200  1  0.16666667  0.83333333  0.34819071  1.0
  Ni  Ni201  1  0.50000000  0.16666667  0.34819071  1.0
  Ni  Ni202  1  0.50000000  0.50000000  0.34819071  1.0
  Ni  Ni203  1  0.50000000  0.83333333  0.34819071  1.0
  Ni  Ni204  1  0.83333333  0.16666667  0.34819071  1.0
  Ni  Ni205  1  0.83333333  0.50000000  0.34819071  1.0
  Ni  Ni206  1  0.83333333  0.83333333  0.34819071  1.0
  Ni  Ni207  1  0.00000000  0.00000000  0.41961929  1.0
  Ni  Ni208  1  0.00000000  0.33333333  0.41961929  1.0
  Ni  Ni209  1  0.00000000  0.66666667  0.41961929  1.0
  Ni  Ni210  1  0.33333333  0.00000000  0.41961929  1.0
  Ni  Ni211  1  0.33333333  0.33333333  0.41961929  1.0
  Ni  Ni212  1  0.33333333  0.66666667  0.41961929  1.0
  Ni  Ni213  1  0.66666667  0.00000000  0.41961929  1.0
  Ni  Ni214  1  0.66666667  0.33333333  0.41961929  1.0
  Ni  Ni215  1  0.66666667  0.66666667  0.41961929  1.0
