# generated using pymatgen
data_Fe3Ni
_symmetry_space_group_name_H-M   'P 1'
_cell_length_a   14.96554168
_cell_length_b   20.13000150
_cell_length_c   44.87631430
_cell_angle_alpha   104.80829632
_cell_angle_beta   56.23368330
_cell_angle_gamma   68.17812356
_symmetry_Int_Tables_number   1
_chemical_formula_structural   Fe3Ni
_chemical_formula_sum   'Fe216 Ni72'
_cell_volume   8355.37178842
_cell_formula_units_Z   72
loop_
 _symmetry_equiv_pos_site_id
 _symmetry_equiv_pos_as_xyz
  1  'x, y, z'
loop_
 _atom_site_type_symbol
 _atom_site_label
 _atom_site_symmetry_multiplicity
 _atom_site_fract_x
 _atom_site_fract_y
 _atom_site_fract_z
 _atom_site_occupancy
  Fe  Fe0  1  0.16666667  0.16666667  0.03750000  1.0
  Fe  Fe1  1  0.16666667  0.50000000  0.03750000  1.0
  Fe  Fe2  1  0.16666667  0.83333333  0.03750000  1.0
  Fe  Fe3  1  0.50000000  0.16666667  0.03750000  1.0
  Fe  Fe4  1  0.50000000  0.50000000  0.03750000  1.0
  Fe  Fe5  1  0.50000000  0.83333333  0.03750000  1.0
  Fe  Fe6  1  0.83333333  0.16666667  0.03750000  1.0
  Fe  Fe7  1  0.83333333  0.50000000  0.03750000  1.0
  Fe  Fe8  1  0.83333333  0.83333333  0.03750000  1.0
  Fe  Fe9  1  0.16666667  0.33333333  0.08750000  1.0
  Fe  Fe10  1  0.16666667  0.66666667  0.08750000  1.0
  Fe  Fe11  1  0.16666667  1.00000000  0.08750000  1.0
  Fe  Fe12  1  0.50000000  0.33333333  0.08750000  1.0
  Fe  Fe13  1  0.50000000  0.66666667  0.08750000  1.0
  Fe  Fe14  1  0.50000000  1.00000000  0.08750000  1.0
  Fe  Fe15  1  0.83333333  0.33333333  0.08750000  1.0
  Fe  Fe16  1  0.83333333  0.66666667  0.08750000  1.0
  Fe  Fe17  1  0.83333333  0.00000000  0.08750000  1.0
  Fe  Fe18  1  0.08333333  0.08333333  0.06250000  1.0
  Fe  Fe19  1  0.08333333  0.41666667  0.06250000  1.0
  Fe  Fe20  1  0.08333333  0.75000000  0.06250000  1.0
  Fe  Fe21  1  0.41666667  0.08333333  0.06250000  1.0
  Fe  Fe22  1  0.41666667  0.41666667  0.06250000  1.0
  Fe  Fe23  1  0.41666667  0.75000000  0.06250000  1.0
  Fe  Fe24  1  0.75000000  0.08333333  0.06250000  1.0
  Fe  Fe25  1  0.75000000  0.41666667  0.06250000  1.0
  Fe  Fe26  1  0.75000000  0.75000000  0.06250000  1.0
  Fe  Fe27  1  0.08333333  0.25000000  0.01250000  1.0
  Fe  Fe28  1  0.08333333  0.58333333  0.01250000  1.0
  Fe  Fe29  1  0.08333333  0.91666667  0.01250000  1.0
  Fe  Fe30  1  0.41666667  0.25000000  0.01250000  1.0
  Fe  Fe31  1  0.41666667  0.58333333  0.01250000  1.0
  Fe  Fe32  1  0.41666667  0.91666667  0.01250000  1.0
  Fe  Fe33  1  0.75000000  0.25000000  0.01250000  1.0
  Fe  Fe34  1  0.75000000  0.58333333  0.01250000  1.0
  Fe  Fe35  1  0.75000000  0.91666667  0.01250000  1.0
  Fe  Fe36  1  0.25000000  0.08333333  0.06250000  1.0
  Fe  Fe37  1  0.25000000  0.41666667  0.06250000  1.0
  Fe  Fe38  1  0.25000000  0.75000000  0.06250000  1.0
  Fe  Fe39  1  0.58333333  0.08333333  0.06250000  1.0
  Fe  Fe40  1  0.58333333  0.41666667  0.06250000  1.0
  Fe  Fe41  1  0.58333333  0.75000000  0.06250000  1.0
  Fe  Fe42  1  0.91666667  0.08333333  0.06250000  1.0
  Fe  Fe43  1  0.91666667  0.41666667  0.06250000  1.0
  Fe  Fe44  1  0.91666667  0.75000000  0.06250000  1.0
  Fe  Fe45  1  0.25000000  0.25000000  0.01250000  1.0
  Fe  Fe46  1  0.25000000  0.58333333  0.01250000  1.0
  Fe  Fe47  1  0.25000000  0.91666667  0.01250000  1.0
  Fe  Fe48  1  0.58333333  0.25000000  0.01250000  1.0
  Fe  Fe49  1  0.58333333  0.58333333  0.01250000  1.0
  Fe  Fe50  1  0.58333333  0.91666667  0.01250000  1.0
  Fe  Fe51  1  0.91666667  0.25000000  0.01250000  1.0
  Fe  Fe52  1  0.91666667  0.58333333  0.01250000  1.0
  Fe  Fe53  1  0.91666667  0.91666667  0.01250000  1.0
  Ni  Ni54  1  0.33333333  0.16666667  0.03750000  1.0
  Ni  Ni55  1  0.33333333  0.50000000  0.03750000  1.0
  Ni  Ni56  1  0.33333333  0.83333333  0.03750000  1.0
  Ni  Ni57  1  0.66666667  0.16666667  0.03750000  1.0
  Ni  Ni58  1  0.66666667  0.50000000  0.03750000  1.0
  Ni  Ni59  1  0.66666667  0.83333333  0.03750000  1.0
  Ni  Ni60  1  0.00000000  0.16666667  0.03750000  1.0
  Ni  Ni61  1  1.00000000  0.50000000  0.03750000  1.0
  Ni  Ni62  1  1.00000000  0.83333333  0.03750000  1.0
  Ni  Ni63  1  0.00000000  0.00000000  0.08750000  1.0
  Ni  Ni64  1  0.00000000  0.33333333  0.08750000  1.0
  Ni  Ni65  1  1.00000000  0.66666667  0.08750000  1.0
  Ni  Ni66  1  0.33333333  0.00000000  0.08750000  1.0
  Ni  Ni67  1  0.33333333  0.33333333  0.08750000  1.0
  Ni  Ni68  1  0.33333333  0.66666667  0.08750000  1.0
  Ni  Ni69  1  0.66666667  0.00000000  0.08750000  1.0
  Ni  Ni70  1  0.66666667  0.33333333  0.08750000  1.0
  Ni  Ni71  1  0.66666667  0.66666667  0.08750000  1.0
  Fe  Fe72  1  0.16666667  0.16666667  0.13750000  1.0
  Fe  Fe73  1  0.16666667  0.50000000  0.13750000  1.0
  Fe  Fe74  1  0.16666667  0.83333333  0.13750000  1.0
  Fe  Fe75  1  0.50000000  0.16666667  0.13750000  1.0
  Fe  Fe76  1  0.50000000  0.50000000  0.13750000  1.0
  Fe  Fe77  1  0.50000000  0.83333333  0.13750000  1.0
  Fe  Fe78  1  0.83333333  0.16666667  0.13750000  1.0
  Fe  Fe79  1  0.83333333  0.50000000  0.13750000  1.0
  Fe  Fe80  1  0.83333333  0.83333333  0.13750000  1.0
  Fe  Fe81  1  0.16666667  0.33333333  0.18750000  1.0
  Fe  Fe82  1  0.16666667  0.66666667  0.18750000  1.0
  Fe  Fe83  1  0.16666667  1.00000000  0.18750000  1.0
  Fe  Fe84  1  0.50000000  0.33333333  0.18750000  1.0
  Fe  Fe85  1  0.50000000  0.66666667  0.18750000  1.0
  Fe  Fe86  1  0.50000000  1.00000000  0.18750000  1.0
  Fe  Fe87  1  0.83333333  0.33333333  0.18750000  1.0
  Fe  Fe88  1  0.83333333  0.66666667  0.18750000  1.0
  Fe  Fe89  1  0.83333333  0.00000000  0.18750000  1.0
  Fe  Fe90  1  0.08333333  0.08333333  0.16250000  1.0
  Fe  Fe91  1  0.08333333  0.41666667  0.16250000  1.0
  Fe  Fe92  1  0.08333333  0.75000000  0.16250000  1.0
  Fe  Fe93  1  0.41666667  0.08333333  0.16250000  1.0
  Fe  Fe94  1  0.41666667  0.41666667  0.16250000  1.0
  Fe  Fe95  1  0.41666667  0.75000000  0.16250000  1.0
  Fe  Fe96  1  0.75000000  0.08333333  0.16250000  1.0
  Fe  Fe97  1  0.75000000  0.41666667  0.16250000  1.0
  Fe  Fe98  1  0.75000000  0.75000000  0.16250000  1.0
  Fe  Fe99  1  0.08333333  0.25000000  0.11250000  1.0
  Fe  Fe100  1  0.08333333  0.58333333  0.11250000  1.0
  Fe  Fe101  1  0.08333333  0.91666667  0.11250000  1.0
  Fe  Fe102  1  0.41666667  0.25000000  0.11250000  1.0
  Fe  Fe103  1  0.41666667  0.58333333  0.11250000  1.0
  Fe  Fe104  1  0.41666667  0.91666667  0.11250000  1.0
  Fe  Fe105  1  0.75000000  0.25000000  0.11250000  1.0
  Fe  Fe106  1  0.75000000  0.58333333  0.11250000  1.0
  Fe  Fe107  1  0.75000000  0.91666667  0.11250000  1.0
  Fe  Fe108  1  0.25000000  0.08333333  0.16250000  1.0
  Fe  Fe109  1  0.25000000  0.41666667  0.16250000  1.0
  Fe  Fe110  1  0.25000000  0.75000000  0.16250000  1.0
  Fe  Fe111  1  0.58333333  0.08333333  0.16250000  1.0
  Fe  Fe112  1  0.58333333  0.41666667  0.16250000  1.0
  Fe  Fe113  1  0.58333333  0.75000000  0.16250000  1.0
  Fe  Fe114  1  0.91666667  0.08333333  0.16250000  1.0
  Fe  Fe115  1  0.91666667  0.41666667  0.16250000  1.0
  Fe  Fe116  1  0.91666667  0.75000000  0.16250000  1.0
  Fe  Fe117  1  0.25000000  0.25000000  0.11250000  1.0
  Fe  Fe118  1  0.25000000  0.58333333  0.11250000  1.0
  Fe  Fe119  1  0.25000000  0.91666667  0.11250000  1.0
  Fe  Fe120  1  0.58333333  0.25000000  0.11250000  1.0
  Fe  Fe121  1  0.58333333  0.58333333  0.11250000  1.0
  Fe  Fe122  1  0.58333333  0.91666667  0.11250000  1.0
  Fe  Fe123  1  0.91666667  0.25000000  0.11250000  1.0
  Fe  Fe124  1  0.91666667  0.58333333  0.11250000  1.0
  Fe  Fe125  1  0.91666667  0.91666667  0.11250000  1.0
  Ni  Ni126  1  0.33333333  0.16666667  0.13750000  1.0
  Ni  Ni127  1  0.33333333  0.50000000  0.13750000  1.0
  Ni  Ni128  1  0.33333333  0.83333333  0.13750000  1.0
  Ni  Ni129  1  0.66666667  0.16666667  0.13750000  1.0
  Ni  Ni130  1  0.66666667  0.50000000  0.13750000  1.0
  Ni  Ni131  1  0.66666667  0.83333333  0.13750000  1.0
  Ni  Ni132  1  0.00000000  0.16666667  0.13750000  1.0
  Ni  Ni133  1  1.00000000  0.50000000  0.13750000  1.0
  Ni  Ni134  1  1.00000000  0.83333333  0.13750000  1.0
  Ni  Ni135  1  0.00000000  0.00000000  0.18750000  1.0
  Ni  Ni136  1  0.00000000  0.33333333  0.18750000  1.0
  Ni  Ni137  1  1.00000000  0.66666667  0.18750000  1.0
  Ni  Ni138  1  0.33333333  0.00000000  0.18750000  1.0
  Ni  Ni139  1  0.33333333  0.33333333  0.18750000  1.0
  Ni  Ni140  1  0.33333333  0.66666667  0.18750000  1.0
  Ni  Ni141  1  0.66666667  0.00000000  0.18750000  1.0
  Ni  Ni142  1  0.66666667  0.33333333  0.18750000  1.0
  Ni  Ni143  1  0.66666667  0.66666667  0.18750000  1.0
  Fe  Fe144  1  0.16666667  0.16666667  0.23750000  1.0
  Fe  Fe145  1  0.16666667  0.50000000  0.23750000  1.0
  Fe  Fe146  1  0.16666667  0.83333333  0.23750000  1.0
  Fe  Fe147  1  0.50000000  0.16666667  0.23750000  1.0
  Fe  Fe148  1  0.50000000  0.50000000  0.23750000  1.0
  Fe  Fe149  1  0.50000000  0.83333333  0.23750000  1.0
  Fe  Fe150  1  0.83333333  0.16666667  0.23750000  1.0
  Fe  Fe151  1  0.83333333  0.50000000  0.23750000  1.0
  Fe  Fe152  1  0.83333333  0.83333333  0.23750000  1.0
  Fe  Fe153  1  0.16666667  0.33333333  0.28750000  1.0
  Fe  Fe154  1  0.16666667  0.66666667  0.28750000  1.0
  Fe  Fe155  1  0.16666667  1.00000000  0.28750000  1.0
  Fe  Fe156  1  0.50000000  0.33333333  0.28750000  1.0
  Fe  Fe157  1  0.50000000  0.66666667  0.28750000  1.0
  Fe  Fe158  1  0.50000000  1.00000000  0.28750000  1.0
  Fe  Fe159  1  0.83333333  0.33333333  0.28750000  1.0
  Fe  Fe160  1  0.83333333  0.66666667  0.28750000  1.0
  Fe  Fe161  1  0.83333333  0.00000000  0.28750000  1.0
  Fe  Fe162  1  0.08333333  0.08333333  0.26250000  1.0
  Fe  Fe163  1  0.08333333  0.41666667  0.26250000  1.0
  Fe  Fe164  1  0.08333333  0.75000000  0.26250000  1.0
  Fe  Fe165  1  0.41666667  0.08333333  0.26250000  1.0
  Fe  Fe166  1  0.41666667  0.41666667  0.26250000  1.0
  Fe  Fe167  1  0.41666667  0.75000000  0.26250000  1.0
  Fe  Fe168  1  0.75000000  0.08333333  0.26250000  1.0
  Fe  Fe169  1  0.75000000  0.41666667  0.26250000  1.0
  Fe  Fe170  1  0.75000000  0.75000000  0.26250000  1.0
  Fe  Fe171  1  0.08333333  0.25000000  0.21250000  1.0
  Fe  Fe172  1  0.08333333  0.58333333  0.21250000  1.0
  Fe  Fe173  1  0.08333333  0.91666667  0.21250000  1.0
  Fe  Fe174  1  0.41666667  0.25000000  0.21250000  1.0
  Fe  Fe175  1  0.41666667  0.58333333  0.21250000  1.0
  Fe  Fe176  1  0.41666667  0.91666667  0.21250000  1.0
  Fe  Fe177  1  0.75000000  0.25000000  0.21250000  1.0
  Fe  Fe178  1  0.75000000  0.58333333  0.21250000  1.0
  Fe  Fe179  1  0.75000000  0.91666667  0.21250000  1.0
  Fe  Fe180  1  0.25000000  0.08333333  0.26250000  1.0
  Fe  Fe181  1  0.25000000  0.41666667  0.26250000  1.0
  Fe  Fe182  1  0.25000000  0.75000000  0.26250000  1.0
  Fe  Fe183  1  0.58333333  0.08333333  0.26250000  1.0
  Fe  Fe184  1  0.58333333  0.41666667  0.26250000  1.0
  Fe  Fe185  1  0.58333333  0.75000000  0.26250000  1.0
  Fe  Fe186  1  0.91666667  0.08333333  0.26250000  1.0
  Fe  Fe187  1  0.91666667  0.41666667  0.26250000  1.0
  Fe  Fe188  1  0.91666667  0.75000000  0.26250000  1.0
  Fe  Fe189  1  0.25000000  0.25000000  0.21250000  1.0
  Fe  Fe190  1  0.25000000  0.58333333  0.21250000  1.0
  Fe  Fe191  1  0.25000000  0.91666667  0.21250000  1.0
  Fe  Fe192  1  0.58333333  0.25000000  0.21250000  1.0
  Fe  Fe193  1  0.58333333  0.58333333  0.21250000  1.0
  Fe  Fe194  1  0.58333333  0.91666667  0.21250000  1.0
  Fe  Fe195  1  0.91666667  0.25000000  0.21250000  1.0
  Fe  Fe196  1  0.91666667  0.58333333  0.21250000  1.0
  Fe  Fe197  1  0.91666667  0.91666667  0.21250000  1.0
  Ni  Ni198  1  0.33333333  0.16666667  0.23750000  1.0
  Ni  Ni199  1  0.33333333  0.50000000  0.23750000  1.0
  Ni  Ni200  1  0.33333333  0.83333333  0.23750000  1.0
  Ni  Ni201  1  0.66666667  0.16666667  0.23750000  1.0
  Ni  Ni202  1  0.66666667  0.50000000  0.23750000  1.0
  Ni  Ni203  1  0.66666667  0.83333333  0.23750000  1.0
  Ni  Ni204  1  0.00000000  0.16666667  0.23750000  1.0
  Ni  Ni205  1  1.00000000  0.50000000  0.23750000  1.0
  Ni  Ni206  1  1.00000000  0.83333333  0.23750000  1.0
  Ni  Ni207  1  0.00000000  0.00000000  0.28750000  1.0
  Ni  Ni208  1  0.00000000  0.33333333  0.28750000  1.0
  Ni  Ni209  1  1.00000000  0.66666667  0.28750000  1.0
  Ni  Ni210  1  0.33333333  0.00000000  0.28750000  1.0
  Ni  Ni211  1  0.33333333  0.33333333  0.28750000  1.0
  Ni  Ni212  1  0.33333333  0.66666667  0.28750000  1.0
  Ni  Ni213  1  0.66666667  0.00000000  0.28750000  1.0
  Ni  Ni214  1  0.66666667  0.33333333  0.28750000  1.0
  Ni  Ni215  1  0.66666667  0.66666667  0.28750000  1.0
  Fe  Fe216  1  0.16666667  0.16666667  0.33750000  1.0
  Fe  Fe217  1  0.16666667  0.50000000  0.33750000  1.0
  Fe  Fe218  1  0.16666667  0.83333333  0.33750000  1.0
  Fe  Fe219  1  0.50000000  0.16666667  0.33750000  1.0
  Fe  Fe220  1  0.50000000  0.50000000  0.33750000  1.0
  Fe  Fe221  1  0.50000000  0.83333333  0.33750000  1.0
  Fe  Fe222  1  0.83333333  0.16666667  0.33750000  1.0
  Fe  Fe223  1  0.83333333  0.50000000  0.33750000  1.0
  Fe  Fe224  1  0.83333333  0.83333333  0.33750000  1.0
  Fe  Fe225  1  0.16666667  0.33333333  0.38750000  1.0
  Fe  Fe226  1  0.16666667  0.66666667  0.38750000  1.0
  Fe  Fe227  1  0.16666667  1.00000000  0.38750000  1.0
  Fe  Fe228  1  0.50000000  0.33333333  0.38750000  1.0
  Fe  Fe229  1  0.50000000  0.66666667  0.38750000  1.0
  Fe  Fe230  1  0.50000000  1.00000000  0.38750000  1.0
  Fe  Fe231  1  0.83333333  0.33333333  0.38750000  1.0
  Fe  Fe232  1  0.83333333  0.66666667  0.38750000  1.0
  Fe  Fe233  1  0.83333333  0.00000000  0.38750000  1.0
  Fe  Fe234  1  0.08333333  0.08333333  0.36250000  1.0
  Fe  Fe235  1  0.08333333  0.41666667  0.36250000  1.0
  Fe  Fe236  1  0.08333333  0.75000000  0.36250000  1.0
  Fe  Fe237  1  0.41666667  0.08333333  0.36250000  1.0
  Fe  Fe238  1  0.41666667  0.41666667  0.36250000  1.0
  Fe  Fe239  1  0.41666667  0.75000000  0.36250000  1.0
  Fe  Fe240  1  0.75000000  0.08333333  0.36250000  1.0
  Fe  Fe241  1  0.75000000  0.41666667  0.36250000  1.0
  Fe  Fe242  1  0.75000000  0.75000000  0.36250000  1.0
  Fe  Fe243  1  0.08333333  0.25000000  0.31250000  1.0
  Fe  Fe244  1  0.08333333  0.58333333  0.31250000  1.0
  Fe  Fe245  1  0.08333333  0.91666667  0.31250000  1.0
  Fe  Fe246  1  0.41666667  0.25000000  0.31250000  1.0
  Fe  Fe247  1  0.41666667  0.58333333  0.31250000  1.0
  Fe  Fe248  1  0.41666667  0.91666667  0.31250000  1.0
  Fe  Fe249  1  0.75000000  0.25000000  0.31250000  1.0
  Fe  Fe250  1  0.75000000  0.58333333  0.31250000  1.0
  Fe  Fe251  1  0.75000000  0.91666667  0.31250000  1.0
  Fe  Fe252  1  0.25000000  0.08333333  0.36250000  1.0
  Fe  Fe253  1  0.25000000  0.41666667  0.36250000  1.0
  Fe  Fe254  1  0.25000000  0.75000000  0.36250000  1.0
  Fe  Fe255  1  0.58333333  0.08333333  0.36250000  1.0
  Fe  Fe256  1  0.58333333  0.41666667  0.36250000  1.0
  Fe  Fe257  1  0.58333333  0.75000000  0.36250000  1.0
  Fe  Fe258  1  0.91666667  0.08333333  0.36250000  1.0
  Fe  Fe259  1  0.91666667  0.41666667  0.36250000  1.0
  Fe  Fe260  1  0.91666667  0.75000000  0.36250000  1.0
  Fe  Fe261  1  0.25000000  0.25000000  0.31250000  1.0
  Fe  Fe262  1  0.25000000  0.58333333  0.31250000  1.0
  Fe  Fe263  1  0.25000000  0.91666667  0.31250000  1.0
  Fe  Fe264  1  0.58333333  0.25000000  0.31250000  1.0
  Fe  Fe265  1  0.58333333  0.58333333  0.31250000  1.0
  Fe  Fe266  1  0.58333333  0.91666667  0.31250000  1.0
  Fe  Fe267  1  0.91666667  0.25000000  0.31250000  1.0
  Fe  Fe268  1  0.91666667  0.58333333  0.31250000  1.0
  Fe  Fe269  1  0.91666667  0.91666667  0.31250000  1.0
  Ni  Ni270  1  0.33333333  0.16666667  0.33750000  1.0
  Ni  Ni271  1  0.33333333  0.50000000  0.33750000  1.0
  Ni  Ni272  1  0.33333333  0.83333333  0.33750000  1.0
  Ni  Ni273  1  0.66666667  0.16666667  0.33750000  1.0
  Ni  Ni274  1  0.66666667  0.50000000  0.33750000  1.0
  Ni  Ni275  1  0.66666667  0.83333333  0.33750000  1.0
  Ni  Ni276  1  0.00000000  0.16666667  0.33750000  1.0
  Ni  Ni277  1  1.00000000  0.50000000  0.33750000  1.0
  Ni  Ni278  1  1.00000000  0.83333333  0.33750000  1.0
  Ni  Ni279  1  0.00000000  0.00000000  0.38750000  1.0
  Ni  Ni280  1  0.00000000  0.33333333  0.38750000  1.0
  Ni  Ni281  1  1.00000000  0.66666667  0.38750000  1.0
  Ni  Ni282  1  0.33333333  0.00000000  0.38750000  1.0
  Ni  Ni283  1  0.33333333  0.33333333  0.38750000  1.0
  Ni  Ni284  1  0.33333333  0.66666667  0.38750000  1.0
  Ni  Ni285  1  0.66666667  0.00000000  0.38750000  1.0
  Ni  Ni286  1  0.66666667  0.33333333  0.38750000  1.0
  Ni  Ni287  1  0.66666667  0.66666667  0.38750000  1.0
