# generated using pymatgen
data_FeNi3
_symmetry_space_group_name_H-M   'P 1'
_cell_length_a   27.05851511
_cell_length_b   7.49622582
_cell_length_c   58.08905557
_cell_angle_alpha   98.65909001
_cell_angle_beta   33.21344963
_cell_angle_gamma   82.03785563
_symmetry_Int_Tables_number   1
_chemical_formula_structural   FeNi3
_chemical_formula_sum   'Fe54 Ni162'
_cell_volume   5567.70656629
_cell_formula_units_Z   54
loop_
 _symmetry_equiv_pos_site_id
 _symmetry_equiv_pos_as_xyz
  1  'x, y, z'
loop_
 _atom_site_type_symbol
 _atom_site_label
 _atom_site_symmetry_multiplicity
 _atom_site_fract_x
 _atom_site_fract_y
 _atom_site_fract_z
 _atom_site_occupancy
  Fe  Fe0  1  0.00000000  0.00000000  0.13387321  1.0
  Fe  Fe1  1  0.00000000  0.33333333  0.13387321  1.0
  Fe  Fe2  1  0.00000000  0.66666667  0.13387321  1.0
  Fe  Fe3  1  0.33333333  0.00000000  0.13387321  1.0
  Fe  Fe4  1  0.33333333  0.33333333  0.13387321  1.0
  Fe  Fe5  1  0.33333333  0.66666667  0.13387321  1.0
  Fe  Fe6  1  0.66666667  0.00000000  0.13387321  1.0
  Fe  Fe7  1  0.66666667  0.33333333  0.13387321  1.0
  Fe  Fe8  1  0.66666667  0.66666667  0.13387321  1.0
  Fe  Fe9  1  0.16666667  0.00000000  0.06244464  1.0
  Fe  Fe10  1  0.16666667  0.33333333  0.06244464  1.0
  Fe  Fe11  1  0.16666667  0.66666667  0.06244464  1.0
  Fe  Fe12  1  0.50000000  0.00000000  0.06244464  1.0
  Fe  Fe13  1  0.50000000  0.33333333  0.06244464  1.0
  Fe  Fe14  1  0.50000000  0.66666667  0.06244464  1.0
  Fe  Fe15  1  0.83333333  0.00000000  0.06244464  1.0
  Fe  Fe16  1  0.83333333  0.33333333  0.06244464  1.0
  Fe  Fe17  1  0.83333333  0.66666667  0.06244464  1.0
  Ni  Ni18  1  0.04171833  0.08343667  0.08041250  1.0
  Ni  Ni19  1  0.04171833  0.41677000  0.08041250  1.0
  Ni  Ni20  1  0.04171833  0.75010333  0.08041250  1.0
  Ni  Ni21  1  0.37505167  0.08343667  0.08041250  1.0
  Ni  Ni22  1  0.37505167  0.41677000  0.08041250  1.0
  Ni  Ni23  1  0.37505167  0.75010333  0.08041250  1.0
  Ni  Ni24  1  0.70838500  0.08343667  0.08041250  1.0
  Ni  Ni25  1  0.70838500  0.41677000  0.08041250  1.0
  Ni  Ni26  1  0.70838500  0.75010333  0.08041250  1.0
  Ni  Ni27  1  0.20838500  0.08343667  0.00898393  1.0
  Ni  Ni28  1  0.20838500  0.41677000  0.00898393  1.0
  Ni  Ni29  1  0.20838500  0.75010333  0.00898393  1.0
  Ni  Ni30  1  0.54171833  0.08343667  0.00898393  1.0
  Ni  Ni31  1  0.54171833  0.41677000  0.00898393  1.0
  Ni  Ni32  1  0.54171833  0.75010333  0.00898393  1.0
  Ni  Ni33  1  0.87505167  0.08343667  0.00898393  1.0
  Ni  Ni34  1  0.87505167  0.41677000  0.00898393  1.0
  Ni  Ni35  1  0.87505167  0.75010333  0.00898393  1.0
  Ni  Ni36  1  0.08333333  0.16666667  0.02673036  1.0
  Ni  Ni37  1  0.08333333  0.50000000  0.02673036  1.0
  Ni  Ni38  1  0.08333333  0.83333333  0.02673036  1.0
  Ni  Ni39  1  0.41666667  0.16666667  0.02673036  1.0
  Ni  Ni40  1  0.41666667  0.50000000  0.02673036  1.0
  Ni  Ni41  1  0.41666667  0.83333333  0.02673036  1.0
  Ni  Ni42  1  0.75000000  0.16666667  0.02673036  1.0
  Ni  Ni43  1  0.75000000  0.50000000  0.02673036  1.0
  Ni  Ni44  1  0.75000000  0.83333333  0.02673036  1.0
  Ni  Ni45  1  0.25000000  0.16666667  0.09815893  1.0
  Ni  Ni46  1  0.25000000  0.50000000  0.09815893  1.0
  Ni  Ni47  1  0.25000000  0.83333333  0.09815893  1.0
  Ni  Ni48  1  0.58333333  0.16666667  0.09815893  1.0
  Ni  Ni49  1  0.58333333  0.50000000  0.09815893  1.0
  Ni  Ni50  1  0.58333333  0.83333333  0.09815893  1.0
  Ni  Ni51  1  0.91666667  0.16666667  0.09815893  1.0
  Ni  Ni52  1  0.91666667  0.50000000  0.09815893  1.0
  Ni  Ni53  1  0.91666667  0.83333333  0.09815893  1.0
  Ni  Ni54  1  0.12494833  0.24989667  0.11590536  1.0
  Ni  Ni55  1  0.12494833  0.58323000  0.11590536  1.0
  Ni  Ni56  1  0.12494833  0.91656333  0.11590536  1.0
  Ni  Ni57  1  0.45828167  0.24989667  0.11590536  1.0
  Ni  Ni58  1  0.45828167  0.58323000  0.11590536  1.0
  Ni  Ni59  1  0.45828167  0.91656333  0.11590536  1.0
  Ni  Ni60  1  0.79161500  0.24989667  0.11590536  1.0
  Ni  Ni61  1  0.79161500  0.58323000  0.11590536  1.0
  Ni  Ni62  1  0.79161500  0.91656333  0.11590536  1.0
  Ni  Ni63  1  0.29161500  0.24989667  0.04447679  1.0
  Ni  Ni64  1  0.29161500  0.58323000  0.04447679  1.0
  Ni  Ni65  1  0.29161500  0.91656333  0.04447679  1.0
  Ni  Ni66  1  0.62494833  0.24989667  0.04447679  1.0
  Ni  Ni67  1  0.62494833  0.58323000  0.04447679  1.0
  Ni  Ni68  1  0.62494833  0.91656333  0.04447679  1.0
  Ni  Ni69  1  0.95828167  0.24989667  0.04447679  1.0
  Ni  Ni70  1  0.95828167  0.58323000  0.04447679  1.0
  Ni  Ni71  1  0.95828167  0.91656333  0.04447679  1.0
  Fe  Fe72  1  0.00000000  0.00000000  0.27673036  1.0
  Fe  Fe73  1  0.00000000  0.33333333  0.27673036  1.0
  Fe  Fe74  1  0.00000000  0.66666667  0.27673036  1.0
  Fe  Fe75  1  0.33333333  0.00000000  0.27673036  1.0
  Fe  Fe76  1  0.33333333  0.33333333  0.27673036  1.0
  Fe  Fe77  1  0.33333333  0.66666667  0.27673036  1.0
  Fe  Fe78  1  0.66666667  0.00000000  0.27673036  1.0
  Fe  Fe79  1  0.66666667  0.33333333  0.27673036  1.0
  Fe  Fe80  1  0.66666667  0.66666667  0.27673036  1.0
  Fe  Fe81  1  0.16666667  0.00000000  0.20530179  1.0
  Fe  Fe82  1  0.16666667  0.33333333  0.20530179  1.0
  Fe  Fe83  1  0.16666667  0.66666667  0.20530179  1.0
  Fe  Fe84  1  0.50000000  0.00000000  0.20530179  1.0
  Fe  Fe85  1  0.50000000  0.33333333  0.20530179  1.0
  Fe  Fe86  1  0.50000000  0.66666667  0.20530179  1.0
  Fe  Fe87  1  0.83333333  0.00000000  0.20530179  1.0
  Fe  Fe88  1  0.83333333  0.33333333  0.20530179  1.0
  Fe  Fe89  1  0.83333333  0.66666667  0.20530179  1.0
  Ni  Ni90  1  0.04171833  0.08343667  0.22326964  1.0
  Ni  Ni91  1  0.04171833  0.41677000  0.22326964  1.0
  Ni  Ni92  1  0.04171833  0.75010333  0.22326964  1.0
  Ni  Ni93  1  0.37505167  0.08343667  0.22326964  1.0
  Ni  Ni94  1  0.37505167  0.41677000  0.22326964  1.0
  Ni  Ni95  1  0.37505167  0.75010333  0.22326964  1.0
  Ni  Ni96  1  0.70838500  0.08343667  0.22326964  1.0
  Ni  Ni97  1  0.70838500  0.41677000  0.22326964  1.0
  Ni  Ni98  1  0.70838500  0.75010333  0.22326964  1.0
  Ni  Ni99  1  0.20838500  0.08343667  0.15184107  1.0
  Ni  Ni100  1  0.20838500  0.41677000  0.15184107  1.0
  Ni  Ni101  1  0.20838500  0.75010333  0.15184107  1.0
  Ni  Ni102  1  0.54171833  0.08343667  0.15184107  1.0
  Ni  Ni103  1  0.54171833  0.41677000  0.15184107  1.0
  Ni  Ni104  1  0.54171833  0.75010333  0.15184107  1.0
  Ni  Ni105  1  0.87505167  0.08343667  0.15184107  1.0
  Ni  Ni106  1  0.87505167  0.41677000  0.15184107  1.0
  Ni  Ni107  1  0.87505167  0.75010333  0.15184107  1.0
  Ni  Ni108  1  0.08333333  0.16666667  0.16958750  1.0
  Ni  Ni109  1  0.08333333  0.50000000  0.16958750  1.0
  Ni  Ni110  1  0.08333333  0.83333333  0.16958750  1.0
  Ni  Ni111  1  0.41666667  0.16666667  0.16958750  1.0
  Ni  Ni112  1  0.41666667  0.50000000  0.16958750  1.0
  Ni  Ni113  1  0.41666667  0.83333333  0.16958750  1.0
  Ni  Ni114  1  0.75000000  0.16666667  0.16958750  1.0
  Ni  Ni115  1  0.75000000  0.50000000  0.16958750  1.0
  Ni  Ni116  1  0.75000000  0.83333333  0.16958750  1.0
  Ni  Ni117  1  0.25000000  0.16666667  0.24101607  1.0
  Ni  Ni118  1  0.25000000  0.50000000  0.24101607  1.0
  Ni  Ni119  1  0.25000000  0.83333333  0.24101607  1.0
  Ni  Ni120  1  0.58333333  0.16666667  0.24101607  1.0
  Ni  Ni121  1  0.58333333  0.50000000  0.24101607  1.0
  Ni  Ni122  1  0.58333333  0.83333333  0.24101607  1.0
  Ni  Ni123  1  0.91666667  0.16666667  0.24101607  1.0
  Ni  Ni124  1  0.91666667  0.50000000  0.24101607  1.0
  Ni  Ni125  1  0.91666667  0.83333333  0.24101607  1.0
  Ni  Ni126  1  0.12494833  0.24989667  0.25876250  1.0
  Ni  Ni127  1  0.12494833  0.58323000  0.25876250  1.0
  Ni  Ni128  1  0.12494833  0.91656333  0.25876250  1.0
  Ni  Ni129  1  0.45828167  0.24989667  0.25876250  1.0
  Ni  Ni130  1  0.45828167  0.58323000  0.25876250  1.0
  Ni  Ni131  1  0.45828167  0.91656333  0.25876250  1.0
  Ni  Ni132  1  0.79161500  0.24989667  0.25876250  1.0
  Ni  Ni133  1  0.79161500  0.58323000  0.25876250  1.0
  Ni  Ni134  1  0.79161500  0.91656333  0.25876250  1.0
  Ni  Ni135  1  0.29161500  0.24989667  0.18733393  1.0
  Ni  Ni136  1  0.29161500  0.58323000  0.18733393  1.0
  Ni  Ni137  1  0.29161500  0.91656333  0.18733393  1.0
  Ni  Ni138  1  0.62494833  0.24989667  0.18733393  1.0
  Ni  Ni139  1  0.62494833  0.58323000  0.18733393  1.0
  Ni  Ni140  1  0.62494833  0.91656333  0.18733393  1.0
  Ni  Ni141  1  0.95828167  0.24989667  0.18733393  1.0
  Ni  Ni142  1  0.95828167  0.58323000  0.18733393  1.0
  Ni  Ni143  1  0.95828167  0.91656333  0.18733393  1.0
  Fe  Fe144  1  0.00000000  0.00000000  0.41958750  1.0
  Fe  Fe145  1  0.00000000  0.33333333  0.41958750  1.0
  Fe  Fe146  1  0.00000000  0.66666667  0.41958750  1.0
  Fe  Fe147  1  0.33333333  0.00000000  0.41958750  1.0
  Fe  Fe148  1  0.33333333  0.33333333  0.41958750  1.0
  Fe  Fe149  1  0.33333333  0.66666667  0.41958750  1.0
  Fe  Fe150  1  0.66666667  0.00000000  0.41958750  1.0
  Fe  Fe151  1  0.66666667  0.33333333  0.41958750  1.0
  Fe  Fe152  1  0.66666667  0.66666667  0.41958750  1.0
  Fe  Fe153  1  0.16666667  0.00000000  0.34815893  1.0
  Fe  Fe154  1  0.16666667  0.33333333  0.34815893  1.0
  Fe  Fe155  1  0.16666667  0.66666667  0.34815893  1.0
  Fe  Fe156  1  0.50000000  0.00000000  0.34815893  1.0
  Fe  Fe157  1  0.50000000  0.33333333  0.34815893  1.0
  Fe  Fe158  1  0.50000000  0.66666667  0.34815893  1.0
  Fe  Fe159  1  0.83333333  0.00000000  0.34815893  1.0
  Fe  Fe160  1  0.83333333  0.33333333  0.34815893  1.0
  Fe  Fe161  1  0.83333333  0.66666667  0.34815893  1.0
  Ni  Ni162  1  0.04171833  0.08343667  0.36612679  1.0
  Ni  Ni163  1  0.04171833  0.41677000  0.36612679  1.0
  Ni  Ni164  1  0.04171833  0.75010333  0.36612679  1.0
  Ni  Ni165  1  0.37505167  0.08343667  0.36612679  1.0
  Ni  Ni166  1  0.37505167  0.41677000  0.36612679  1.0
  Ni  Ni167  1  0.37505167  0.75010333  0.36612679  1.0
  Ni  Ni168  1  0.70838500  0.08343667  0.36612679  1.0
  Ni  Ni169  1  0.70838500  0.41677000  0.36612679  1.0
  Ni  Ni170  1  0.70838500  0.75010333  0.36612679  1.0
  Ni  Ni171  1  0.20838500  0.08343667  0.29469821  1.0
  Ni  Ni172  1  0.20838500  0.41677000  0.29469821  1.0
  Ni  Ni173  1  0.20838500  0.75010333  0.29469821  1.0
  Ni  Ni174  1  0.54171833  0.08343667  0.29469821  1.0
  Ni  Ni175  1  0.54171833  0.41677000  0.29469821  1.0
  Ni  Ni176  1  0.54171833  0.75010333  0.29469821  1.0
  Ni  Ni177  1  0.87505167  0.08343667  0.29469821  1.0
  Ni  Ni178  1  0.87505167  0.41677000  0.29469821  1.0
  Ni  Ni179  1  0.87505167  0.75010333  0.29469821  1.0
  Ni  Ni180  1  0.08333333  0.16666667  0.31244464  1.0
  Ni  Ni181  1  0.08333333  0.50000000  0.31244464  1.0
  Ni  Ni182  1  0.08333333  0.83333333  0.31244464  1.0
  Ni  Ni183  1  0.41666667  0.16666667  0.31244464  1.0
  Ni  Ni184  1  0.41666667  0.50000000  0.31244464  1.0
  Ni  Ni185  1  0.41666667  0.83333333  0.31244464  1.0
  Ni  Ni186  1  0.75000000  0.16666667  0.31244464  1.0
  Ni  Ni187  1  0.75000000  0.50000000  0.31244464  1.0
  Ni  Ni188  1  0.75000000  0.83333333  0.31244464  1.0
  Ni  Ni189  1  0.25000000  0.16666667  0.38387321  1.0
  Ni  Ni190  1  0.25000000  0.50000000  0.38387321  1.0
  Ni  Ni191  1  0.25000000  0.83333333  0.38387321  1.0
  Ni  Ni192  1  0.58333333  0.16666667  0.38387321  1.0
  Ni  Ni193  1  0.58333333  0.50000000  0.38387321  1.0
  Ni  Ni194  1  0.58333333  0.83333333  0.38387321  1.0
  Ni  Ni195  1  0.91666667  0.16666667  0.38387321  1.0
  Ni  Ni196  1  0.91666667  0.50000000  0.38387321  1.0
  Ni  Ni197  1  0.91666667  0.83333333  0.38387321  1.0
  Ni  Ni198  1  0.12494833  0.24989667  0.40161964  1.0
  Ni  Ni199  1  0.12494833  0.58323000  0.40161964  1.0
  Ni  Ni200  1  0.12494833  0.91656333  0.40161964  1.0
  Ni  Ni201  1  0.45828167  0.24989667  0.40161964  1.0
  Ni  Ni202  1  0.45828167  0.58323000  0.40161964  1.0
  Ni  Ni203  1  0.45828167  0.91656333  0.40161964  1.0
  Ni  Ni204  1  0.79161500  0.24989667  0.40161964  1.0
  Ni  Ni205  1  0.79161500  0.58323000  0.40161964  1.0
  Ni  Ni206  1  0.79161500  0.91656333  0.40161964  1.0
  Ni  Ni207  1  0.29161500  0.24989667  0.33019107  1.0
  Ni  Ni208  1  0.29161500  0.58323000  0.33019107  1.0
  Ni  Ni209  1  0.29161500  0.91656333  0.33019107  1.0
  Ni  Ni210  1  0.62494833  0.24989667  0.33019107  1.0
  Ni  Ni211  1  0.62494833  0.58323000  0.33019107  1.0
  Ni  Ni212  1  0.62494833  0.91656333  0.33019107  1.0
  Ni  Ni213  1  0.95828167  0.24989667  0.33019107  1.0
  Ni  Ni214  1  0.95828167  0.58323000  0.33019107  1.0
  Ni  Ni215  1  0.95828167  0.91656333  0.33019107  1.0
