# generated using pymatgen
data_FeNi3
_symmetry_space_group_name_H-M   'P 1'
_cell_length_a   17.86849560
_cell_length_b   32.39593172
_cell_length_c   40.55145000
_cell_angle_alpha   112.05667457
_cell_angle_beta   132.90865510
_cell_angle_gamma   75.18681353
_symmetry_Int_Tables_number   1
_chemical_formula_structural   FeNi3
_chemical_formula_sum   'Fe144 Ni432'
_cell_volume   15934.88713012
_cell_formula_units_Z   144
loop_
 _symmetry_equiv_pos_site_id
 _symmetry_equiv_pos_as_xyz
  1  'x, y, z'
loop_
 _atom_site_type_symbol
 _atom_site_label
 _atom_site_symmetry_multiplicity
 _atom_site_fract_x
 _atom_site_fract_y
 _atom_site_fract_z
 _atom_site_occupancy
  Fe  Fe0  1  0.11128133  0.08333333  0.00828185  1.0
  Fe  Fe1  1  0.11128133  0.41666667  0.00828185  1.0
  Fe  Fe2  1  0.11128133  0.75000000  0.00828185  1.0
  Fe  Fe3  1  0.44461467  0.08333333  0.00828185  1.0
  Fe  Fe4  1  0.44461467  0.41666667  0.00828185  1.0
  Fe  Fe5  1  0.44461467  0.75000000  0.00828185  1.0
  Fe  Fe6  1  0.77794800  0.08333333  0.00828185  1.0
  Fe  Fe7  1  0.77794800  0.41666667  0.00828185  1.0
  Fe  Fe8  1  0.77794800  0.75000000  0.00828185  1.0
  Fe  Fe9  1  0.11128133  0.25000000  0.05828185  1.0
  Fe  Fe10  1  0.11128133  0.58333333  0.05828185  1.0
  Fe  Fe11  1  0.11128133  0.91666667  0.05828185  1.0
  Fe  Fe12  1  0.44461467  0.25000000  0.05828185  1.0
  Fe  Fe13  1  0.44461467  0.58333333  0.05828185  1.0
  Fe  Fe14  1  0.44461467  0.91666667  0.05828185  1.0
  Fe  Fe15  1  0.77794800  0.25000000  0.05828185  1.0
  Fe  Fe16  1  0.77794800  0.58333333  0.05828185  1.0
  Fe  Fe17  1  0.77794800  0.91666667  0.05828185  1.0
  Fe  Fe18  1  0.22205200  0.00000000  0.06651305  1.0
  Fe  Fe19  1  0.22205200  0.33333333  0.06651305  1.0
  Fe  Fe20  1  0.22205200  0.66666667  0.06651305  1.0
  Fe  Fe21  1  0.55538533  0.00000000  0.06651305  1.0
  Fe  Fe22  1  0.55538533  0.33333333  0.06651305  1.0
  Fe  Fe23  1  0.55538533  0.66666667  0.06651305  1.0
  Fe  Fe24  1  0.88871867  0.00000000  0.06651305  1.0
  Fe  Fe25  1  0.88871867  0.33333333  0.06651305  1.0
  Fe  Fe26  1  0.88871867  0.66666667  0.06651305  1.0
  Fe  Fe27  1  0.22205200  0.16666667  0.01651305  1.0
  Fe  Fe28  1  0.22205200  0.50000000  0.01651305  1.0
  Fe  Fe29  1  0.22205200  0.83333333  0.01651305  1.0
  Fe  Fe30  1  0.55538533  0.16666667  0.01651305  1.0
  Fe  Fe31  1  0.55538533  0.50000000  0.01651305  1.0
  Fe  Fe32  1  0.55538533  0.83333333  0.01651305  1.0
  Fe  Fe33  1  0.88871867  0.16666667  0.01651305  1.0
  Fe  Fe34  1  0.88871867  0.50000000  0.01651305  1.0
  Fe  Fe35  1  0.88871867  0.83333333  0.01651305  1.0
  Ni  Ni36  1  0.22328867  0.08333333  0.09188405  1.0
  Ni  Ni37  1  0.22328867  0.41666667  0.09188405  1.0
  Ni  Ni38  1  0.22328867  0.75000000  0.09188405  1.0
  Ni  Ni39  1  0.55662200  0.08333333  0.09188405  1.0
  Ni  Ni40  1  0.55662200  0.41666667  0.09188405  1.0
  Ni  Ni41  1  0.55662200  0.75000000  0.09188405  1.0
  Ni  Ni42  1  0.88995533  0.08333333  0.09188405  1.0
  Ni  Ni43  1  0.88995533  0.41666667  0.09188405  1.0
  Ni  Ni44  1  0.88995533  0.75000000  0.09188405  1.0
  Ni  Ni45  1  0.22328867  0.25000000  0.04188405  1.0
  Ni  Ni46  1  0.22328867  0.58333333  0.04188405  1.0
  Ni  Ni47  1  0.22328867  0.91666667  0.04188405  1.0
  Ni  Ni48  1  0.55662200  0.25000000  0.04188405  1.0
  Ni  Ni49  1  0.55662200  0.58333333  0.04188405  1.0
  Ni  Ni50  1  0.55662200  0.91666667  0.04188405  1.0
  Ni  Ni51  1  0.88995533  0.25000000  0.04188405  1.0
  Ni  Ni52  1  0.88995533  0.58333333  0.04188405  1.0
  Ni  Ni53  1  0.88995533  0.91666667  0.04188405  1.0
  Ni  Ni54  1  0.11004467  0.00000000  0.08291085  1.0
  Ni  Ni55  1  0.11004467  0.33333333  0.08291085  1.0
  Ni  Ni56  1  0.11004467  0.66666667  0.08291085  1.0
  Ni  Ni57  1  0.44337800  0.00000000  0.08291085  1.0
  Ni  Ni58  1  0.44337800  0.33333333  0.08291085  1.0
  Ni  Ni59  1  0.44337800  0.66666667  0.08291085  1.0
  Ni  Ni60  1  0.77671133  0.00000000  0.08291085  1.0
  Ni  Ni61  1  0.77671133  0.33333333  0.08291085  1.0
  Ni  Ni62  1  0.77671133  0.66666667  0.08291085  1.0
  Ni  Ni63  1  0.11004467  0.16666667  0.03291085  1.0
  Ni  Ni64  1  0.11004467  0.50000000  0.03291085  1.0
  Ni  Ni65  1  0.11004467  0.83333333  0.03291085  1.0
  Ni  Ni66  1  0.44337800  0.16666667  0.03291085  1.0
  Ni  Ni67  1  0.44337800  0.50000000  0.03291085  1.0
  Ni  Ni68  1  0.44337800  0.83333333  0.03291085  1.0
  Ni  Ni69  1  0.77671133  0.16666667  0.03291085  1.0
  Ni  Ni70  1  0.77671133  0.50000000  0.03291085  1.0
  Ni  Ni71  1  0.77671133  0.83333333  0.03291085  1.0
  Ni  Ni72  1  0.27781533  0.12465817  0.07063950  1.0
  Ni  Ni73  1  0.27781533  0.45799150  0.07063950  1.0
  Ni  Ni74  1  0.27781533  0.79132483  0.07063950  1.0
  Ni  Ni75  1  0.61114867  0.12465817  0.07063950  1.0
  Ni  Ni76  1  0.61114867  0.45799150  0.07063950  1.0
  Ni  Ni77  1  0.61114867  0.79132483  0.07063950  1.0
  Ni  Ni78  1  0.94448200  0.12465817  0.07063950  1.0
  Ni  Ni79  1  0.94448200  0.45799150  0.07063950  1.0
  Ni  Ni80  1  0.94448200  0.79132483  0.07063950  1.0
  Ni  Ni81  1  0.27781533  0.29132483  0.02063950  1.0
  Ni  Ni82  1  0.27781533  0.62465817  0.02063950  1.0
  Ni  Ni83  1  0.27781533  0.95799150  0.02063950  1.0
  Ni  Ni84  1  0.61114867  0.29132483  0.02063950  1.0
  Ni  Ni85  1  0.61114867  0.62465817  0.02063950  1.0
  Ni  Ni86  1  0.61114867  0.95799150  0.02063950  1.0
  Ni  Ni87  1  0.94448200  0.29132483  0.02063950  1.0
  Ni  Ni88  1  0.94448200  0.62465817  0.02063950  1.0
  Ni  Ni89  1  0.94448200  0.95799150  0.02063950  1.0
  Ni  Ni90  1  0.05551800  0.04132483  0.02895030  1.0
  Ni  Ni91  1  0.05551800  0.37465817  0.02895030  1.0
  Ni  Ni92  1  0.05551800  0.70799150  0.02895030  1.0
  Ni  Ni93  1  0.38885133  0.04132483  0.02895030  1.0
  Ni  Ni94  1  0.38885133  0.37465817  0.02895030  1.0
  Ni  Ni95  1  0.38885133  0.70799150  0.02895030  1.0
  Ni  Ni96  1  0.72218467  0.04132483  0.02895030  1.0
  Ni  Ni97  1  0.72218467  0.37465817  0.02895030  1.0
  Ni  Ni98  1  0.72218467  0.70799150  0.02895030  1.0
  Ni  Ni99  1  0.05551800  0.20799150  0.07895030  1.0
  Ni  Ni100  1  0.05551800  0.54132483  0.07895030  1.0
  Ni  Ni101  1  0.05551800  0.87465817  0.07895030  1.0
  Ni  Ni102  1  0.38885133  0.20799150  0.07895030  1.0
  Ni  Ni103  1  0.38885133  0.54132483  0.07895030  1.0
  Ni  Ni104  1  0.38885133  0.87465817  0.07895030  1.0
  Ni  Ni105  1  0.72218467  0.20799150  0.07895030  1.0
  Ni  Ni106  1  0.72218467  0.54132483  0.07895030  1.0
  Ni  Ni107  1  0.72218467  0.87465817  0.07895030  1.0
  Ni  Ni108  1  0.05551800  0.12534183  0.05415540  1.0
  Ni  Ni109  1  0.05551800  0.45867517  0.05415540  1.0
  Ni  Ni110  1  0.05551800  0.79200850  0.05415540  1.0
  Ni  Ni111  1  0.38885133  0.12534183  0.05415540  1.0
  Ni  Ni112  1  0.38885133  0.45867517  0.05415540  1.0
  Ni  Ni113  1  0.38885133  0.79200850  0.05415540  1.0
  Ni  Ni114  1  0.72218467  0.12534183  0.05415540  1.0
  Ni  Ni115  1  0.72218467  0.45867517  0.05415540  1.0
  Ni  Ni116  1  0.72218467  0.79200850  0.05415540  1.0
  Ni  Ni117  1  0.05551800  0.29200850  0.00415540  1.0
  Ni  Ni118  1  0.05551800  0.62534183  0.00415540  1.0
  Ni  Ni119  1  0.05551800  0.95867517  0.00415540  1.0
  Ni  Ni120  1  0.38885133  0.29200850  0.00415540  1.0
  Ni  Ni121  1  0.38885133  0.62534183  0.00415540  1.0
  Ni  Ni122  1  0.38885133  0.95867517  0.00415540  1.0
  Ni  Ni123  1  0.72218467  0.29200850  0.00415540  1.0
  Ni  Ni124  1  0.72218467  0.62534183  0.00415540  1.0
  Ni  Ni125  1  0.72218467  0.95867517  0.00415540  1.0
  Ni  Ni126  1  0.27781533  0.04200850  0.04584460  1.0
  Ni  Ni127  1  0.27781533  0.37534183  0.04584460  1.0
  Ni  Ni128  1  0.27781533  0.70867517  0.04584460  1.0
  Ni  Ni129  1  0.61114867  0.04200850  0.04584460  1.0
  Ni  Ni130  1  0.61114867  0.37534183  0.04584460  1.0
  Ni  Ni131  1  0.61114867  0.70867517  0.04584460  1.0
  Ni  Ni132  1  0.94448200  0.04200850  0.04584460  1.0
  Ni  Ni133  1  0.94448200  0.37534183  0.04584460  1.0
  Ni  Ni134  1  0.94448200  0.70867517  0.04584460  1.0
  Ni  Ni135  1  0.27781533  0.20867517  0.09584460  1.0
  Ni  Ni136  1  0.27781533  0.54200850  0.09584460  1.0
  Ni  Ni137  1  0.27781533  0.87534183  0.09584460  1.0
  Ni  Ni138  1  0.61114867  0.20867517  0.09584460  1.0
  Ni  Ni139  1  0.61114867  0.54200850  0.09584460  1.0
  Ni  Ni140  1  0.61114867  0.87534183  0.09584460  1.0
  Ni  Ni141  1  0.94448200  0.20867517  0.09584460  1.0
  Ni  Ni142  1  0.94448200  0.54200850  0.09584460  1.0
  Ni  Ni143  1  0.94448200  0.87534183  0.09584460  1.0
  Fe  Fe144  1  0.11128133  0.08333333  0.10828185  1.0
  Fe  Fe145  1  0.11128133  0.41666667  0.10828185  1.0
  Fe  Fe146  1  0.11128133  0.75000000  0.10828185  1.0
  Fe  Fe147  1  0.44461467  0.08333333  0.10828185  1.0
  Fe  Fe148  1  0.44461467  0.41666667  0.10828185  1.0
  Fe  Fe149  1  0.44461467  0.75000000  0.10828185  1.0
  Fe  Fe150  1  0.77794800  0.08333333  0.10828185  1.0
  Fe  Fe151  1  0.77794800  0.41666667  0.10828185  1.0
  Fe  Fe152  1  0.77794800  0.75000000  0.10828185  1.0
  Fe  Fe153  1  0.11128133  0.25000000  0.15828185  1.0
  Fe  Fe154  1  0.11128133  0.58333333  0.15828185  1.0
  Fe  Fe155  1  0.11128133  0.91666667  0.15828185  1.0
  Fe  Fe156  1  0.44461467  0.25000000  0.15828185  1.0
  Fe  Fe157  1  0.44461467  0.58333333  0.15828185  1.0
  Fe  Fe158  1  0.44461467  0.91666667  0.15828185  1.0
  Fe  Fe159  1  0.77794800  0.25000000  0.15828185  1.0
  Fe  Fe160  1  0.77794800  0.58333333  0.15828185  1.0
  Fe  Fe161  1  0.77794800  0.91666667  0.15828185  1.0
  Fe  Fe162  1  0.22205200  0.00000000  0.16651305  1.0
  Fe  Fe163  1  0.22205200  0.33333333  0.16651305  1.0
  Fe  Fe164  1  0.22205200  0.66666667  0.16651305  1.0
  Fe  Fe165  1  0.55538533  0.00000000  0.16651305  1.0
  Fe  Fe166  1  0.55538533  0.33333333  0.16651305  1.0
  Fe  Fe167  1  0.55538533  0.66666667  0.16651305  1.0
  Fe  Fe168  1  0.88871867  0.00000000  0.16651305  1.0
  Fe  Fe169  1  0.88871867  0.33333333  0.16651305  1.0
  Fe  Fe170  1  0.88871867  0.66666667  0.16651305  1.0
  Fe  Fe171  1  0.22205200  0.16666667  0.11651305  1.0
  Fe  Fe172  1  0.22205200  0.50000000  0.11651305  1.0
  Fe  Fe173  1  0.22205200  0.83333333  0.11651305  1.0
  Fe  Fe174  1  0.55538533  0.16666667  0.11651305  1.0
  Fe  Fe175  1  0.55538533  0.50000000  0.11651305  1.0
  Fe  Fe176  1  0.55538533  0.83333333  0.11651305  1.0
  Fe  Fe177  1  0.88871867  0.16666667  0.11651305  1.0
  Fe  Fe178  1  0.88871867  0.50000000  0.11651305  1.0
  Fe  Fe179  1  0.88871867  0.83333333  0.11651305  1.0
  Ni  Ni180  1  0.22328867  0.08333333  0.19188405  1.0
  Ni  Ni181  1  0.22328867  0.41666667  0.19188405  1.0
  Ni  Ni182  1  0.22328867  0.75000000  0.19188405  1.0
  Ni  Ni183  1  0.55662200  0.08333333  0.19188405  1.0
  Ni  Ni184  1  0.55662200  0.41666667  0.19188405  1.0
  Ni  Ni185  1  0.55662200  0.75000000  0.19188405  1.0
  Ni  Ni186  1  0.88995533  0.08333333  0.19188405  1.0
  Ni  Ni187  1  0.88995533  0.41666667  0.19188405  1.0
  Ni  Ni188  1  0.88995533  0.75000000  0.19188405  1.0
  Ni  Ni189  1  0.22328867  0.25000000  0.14188405  1.0
  Ni  Ni190  1  0.22328867  0.58333333  0.14188405  1.0
  Ni  Ni191  1  0.22328867  0.91666667  0.14188405  1.0
  Ni  Ni192  1  0.55662200  0.25000000  0.14188405  1.0
  Ni  Ni193  1  0.55662200  0.58333333  0.14188405  1.0
  Ni  Ni194  1  0.55662200  0.91666667  0.14188405  1.0
  Ni  Ni195  1  0.88995533  0.25000000  0.14188405  1.0
  Ni  Ni196  1  0.88995533  0.58333333  0.14188405  1.0
  Ni  Ni197  1  0.88995533  0.91666667  0.14188405  1.0
  Ni  Ni198  1  0.11004467  0.00000000  0.18291085  1.0
  Ni  Ni199  1  0.11004467  0.33333333  0.18291085  1.0
  Ni  Ni200  1  0.11004467  0.66666667  0.18291085  1.0
  Ni  Ni201  1  0.44337800  0.00000000  0.18291085  1.0
  Ni  Ni202  1  0.44337800  0.33333333  0.18291085  1.0
  Ni  Ni203  1  0.44337800  0.66666667  0.18291085  1.0
  Ni  Ni204  1  0.77671133  0.00000000  0.18291085  1.0
  Ni  Ni205  1  0.77671133  0.33333333  0.18291085  1.0
  Ni  Ni206  1  0.77671133  0.66666667  0.18291085  1.0
  Ni  Ni207  1  0.11004467  0.16666667  0.13291085  1.0
  Ni  Ni208  1  0.11004467  0.50000000  0.13291085  1.0
  Ni  Ni209  1  0.11004467  0.83333333  0.13291085  1.0
  Ni  Ni210  1  0.44337800  0.16666667  0.13291085  1.0
  Ni  Ni211  1  0.44337800  0.50000000  0.13291085  1.0
  Ni  Ni212  1  0.44337800  0.83333333  0.13291085  1.0
  Ni  Ni213  1  0.77671133  0.16666667  0.13291085  1.0
  Ni  Ni214  1  0.77671133  0.50000000  0.13291085  1.0
  Ni  Ni215  1  0.77671133  0.83333333  0.13291085  1.0
  Ni  Ni216  1  0.27781533  0.12465817  0.17063950  1.0
  Ni  Ni217  1  0.27781533  0.45799150  0.17063950  1.0
  Ni  Ni218  1  0.27781533  0.79132483  0.17063950  1.0
  Ni  Ni219  1  0.61114867  0.12465817  0.17063950  1.0
  Ni  Ni220  1  0.61114867  0.45799150  0.17063950  1.0
  Ni  Ni221  1  0.61114867  0.79132483  0.17063950  1.0
  Ni  Ni222  1  0.94448200  0.12465817  0.17063950  1.0
  Ni  Ni223  1  0.94448200  0.45799150  0.17063950  1.0
  Ni  Ni224  1  0.94448200  0.79132483  0.17063950  1.0
  Ni  Ni225  1  0.27781533  0.29132483  0.12063950  1.0
  Ni  Ni226  1  0.27781533  0.62465817  0.12063950  1.0
  Ni  Ni227  1  0.27781533  0.95799150  0.12063950  1.0
  Ni  Ni228  1  0.61114867  0.29132483  0.12063950  1.0
  Ni  Ni229  1  0.61114867  0.62465817  0.12063950  1.0
  Ni  Ni230  1  0.61114867  0.95799150  0.12063950  1.0
  Ni  Ni231  1  0.94448200  0.29132483  0.12063950  1.0
  Ni  Ni232  1  0.94448200  0.62465817  0.12063950  1.0
  Ni  Ni233  1  0.94448200  0.95799150  0.12063950  1.0
  Ni  Ni234  1  0.05551800  0.04132483  0.12895030  1.0
  Ni  Ni235  1  0.05551800  0.37465817  0.12895030  1.0
  Ni  Ni236  1  0.05551800  0.70799150  0.12895030  1.0
  Ni  Ni237  1  0.38885133  0.04132483  0.12895030  1.0
  Ni  Ni238  1  0.38885133  0.37465817  0.12895030  1.0
  Ni  Ni239  1  0.38885133  0.70799150  0.12895030  1.0
  Ni  Ni240  1  0.72218467  0.04132483  0.12895030  1.0
  Ni  Ni241  1  0.72218467  0.37465817  0.12895030  1.0
  Ni  Ni242  1  0.72218467  0.70799150  0.12895030  1.0
  Ni  Ni243  1  0.05551800  0.20799150  0.17895030  1.0
  Ni  Ni244  1  0.05551800  0.54132483  0.17895030  1.0
  Ni  Ni245  1  0.05551800  0.87465817  0.17895030  1.0
  Ni  Ni246  1  0.38885133  0.20799150  0.17895030  1.0
  Ni  Ni247  1  0.38885133  0.54132483  0.17895030  1.0
  Ni  Ni248  1  0.38885133  0.87465817  0.17895030  1.0
  Ni  Ni249  1  0.72218467  0.20799150  0.17895030  1.0
  Ni  Ni250  1  0.72218467  0.54132483  0.17895030  1.0
  Ni  Ni251  1  0.72218467  0.87465817  0.17895030  1.0
  Ni  Ni252  1  0.05551800  0.12534183  0.15415540  1.0
  Ni  Ni253  1  0.05551800  0.45867517  0.15415540  1.0
  Ni  Ni254  1  0.05551800  0.79200850  0.15415540  1.0
  Ni  Ni255  1  0.38885133  0.12534183  0.15415540  1.0
  Ni  Ni256  1  0.38885133  0.45867517  0.15415540  1.0
  Ni  Ni257  1  0.38885133  0.79200850  0.15415540  1.0
  Ni  Ni258  1  0.72218467  0.12534183  0.15415540  1.0
  Ni  Ni259  1  0.72218467  0.45867517  0.15415540  1.0
  Ni  Ni260  1  0.72218467  0.79200850  0.15415540  1.0
  Ni  Ni261  1  0.05551800  0.29200850  0.10415540  1.0
  Ni  Ni262  1  0.05551800  0.62534183  0.10415540  1.0
  Ni  Ni263  1  0.05551800  0.95867517  0.10415540  1.0
  Ni  Ni264  1  0.38885133  0.29200850  0.10415540  1.0
  Ni  Ni265  1  0.38885133  0.62534183  0.10415540  1.0
  Ni  Ni266  1  0.38885133  0.95867517  0.10415540  1.0
  Ni  Ni267  1  0.72218467  0.29200850  0.10415540  1.0
  Ni  Ni268  1  0.72218467  0.62534183  0.10415540  1.0
  Ni  Ni269  1  0.72218467  0.95867517  0.10415540  1.0
  Ni  Ni270  1  0.27781533  0.04200850  0.14584460  1.0
  Ni  Ni271  1  0.27781533  0.37534183  0.14584460  1.0
  Ni  Ni272  1  0.27781533  0.70867517  0.14584460  1.0
  Ni  Ni273  1  0.61114867  0.04200850  0.14584460  1.0
  Ni  Ni274  1  0.61114867  0.37534183  0.14584460  1.0
  Ni  Ni275  1  0.61114867  0.70867517  0.14584460  1.0
  Ni  Ni276  1  0.94448200  0.04200850  0.14584460  1.0
  Ni  Ni277  1  0.94448200  0.37534183  0.14584460  1.0
  Ni  Ni278  1  0.94448200  0.70867517  0.14584460  1.0
  Ni  Ni279  1  0.27781533  0.20867517  0.19584460  1.0
  Ni  Ni280  1  0.27781533  0.54200850  0.19584460  1.0
  Ni  Ni281  1  0.27781533  0.87534183  0.19584460  1.0
  Ni  Ni282  1  0.61114867  0.20867517  0.19584460  1.0
  Ni  Ni283  1  0.61114867  0.54200850  0.19584460  1.0
  Ni  Ni284  1  0.61114867  0.87534183  0.19584460  1.0
  Ni  Ni285  1  0.94448200  0.20867517  0.19584460  1.0
  Ni  Ni286  1  0.94448200  0.54200850  0.19584460  1.0
  Ni  Ni287  1  0.94448200  0.87534183  0.19584460  1.0
  Fe  Fe288  1  0.11128133  0.08333333  0.20828185  1.0
  Fe  Fe289  1  0.11128133  0.41666667  0.20828185  1.0
  Fe  Fe290  1  0.11128133  0.75000000  0.20828185  1.0
  Fe  Fe291  1  0.44461467  0.08333333  0.20828185  1.0
  Fe  Fe292  1  0.44461467  0.41666667  0.20828185  1.0
  Fe  Fe293  1  0.44461467  0.75000000  0.20828185  1.0
  Fe  Fe294  1  0.77794800  0.08333333  0.20828185  1.0
  Fe  Fe295  1  0.77794800  0.41666667  0.20828185  1.0
  Fe  Fe296  1  0.77794800  0.75000000  0.20828185  1.0
  Fe  Fe297  1  0.11128133  0.25000000  0.25828185  1.0
  Fe  Fe298  1  0.11128133  0.58333333  0.25828185  1.0
  Fe  Fe299  1  0.11128133  0.91666667  0.25828185  1.0
  Fe  Fe300  1  0.44461467  0.25000000  0.25828185  1.0
  Fe  Fe301  1  0.44461467  0.58333333  0.25828185  1.0
  Fe  Fe302  1  0.44461467  0.91666667  0.25828185  1.0
  Fe  Fe303  1  0.77794800  0.25000000  0.25828185  1.0
  Fe  Fe304  1  0.77794800  0.58333333  0.25828185  1.0
  Fe  Fe305  1  0.77794800  0.91666667  0.25828185  1.0
  Fe  Fe306  1  0.22205200  0.00000000  0.26651305  1.0
  Fe  Fe307  1  0.22205200  0.33333333  0.26651305  1.0
  Fe  Fe308  1  0.22205200  0.66666667  0.26651305  1.0
  Fe  Fe309  1  0.55538533  0.00000000  0.26651305  1.0
  Fe  Fe310  1  0.55538533  0.33333333  0.26651305  1.0
  Fe  Fe311  1  0.55538533  0.66666667  0.26651305  1.0
  Fe  Fe312  1  0.88871867  0.00000000  0.26651305  1.0
  Fe  Fe313  1  0.88871867  0.33333333  0.26651305  1.0
  Fe  Fe314  1  0.88871867  0.66666667  0.26651305  1.0
  Fe  Fe315  1  0.22205200  0.16666667  0.21651305  1.0
  Fe  Fe316  1  0.22205200  0.50000000  0.21651305  1.0
  Fe  Fe317  1  0.22205200  0.83333333  0.21651305  1.0
  Fe  Fe318  1  0.55538533  0.16666667  0.21651305  1.0
  Fe  Fe319  1  0.55538533  0.50000000  0.21651305  1.0
  Fe  Fe320  1  0.55538533  0.83333333  0.21651305  1.0
  Fe  Fe321  1  0.88871867  0.16666667  0.21651305  1.0
  Fe  Fe322  1  0.88871867  0.50000000  0.21651305  1.0
  Fe  Fe323  1  0.88871867  0.83333333  0.21651305  1.0
  Ni  Ni324  1  0.22328867  0.08333333  0.29188405  1.0
  Ni  Ni325  1  0.22328867  0.41666667  0.29188405  1.0
  Ni  Ni326  1  0.22328867  0.75000000  0.29188405  1.0
  Ni  Ni327  1  0.55662200  0.08333333  0.29188405  1.0
  Ni  Ni328  1  0.55662200  0.41666667  0.29188405  1.0
  Ni  Ni329  1  0.55662200  0.75000000  0.29188405  1.0
  Ni  Ni330  1  0.88995533  0.08333333  0.29188405  1.0
  Ni  Ni331  1  0.88995533  0.41666667  0.29188405  1.0
  Ni  Ni332  1  0.88995533  0.75000000  0.29188405  1.0
  Ni  Ni333  1  0.22328867  0.25000000  0.24188405  1.0
  Ni  Ni334  1  0.22328867  0.58333333  0.24188405  1.0
  Ni  Ni335  1  0.22328867  0.91666667  0.24188405  1.0
  Ni  Ni336  1  0.55662200  0.25000000  0.24188405  1.0
  Ni  Ni337  1  0.55662200  0.58333333  0.24188405  1.0
  Ni  Ni338  1  0.55662200  0.91666667  0.24188405  1.0
  Ni  Ni339  1  0.88995533  0.25000000  0.24188405  1.0
  Ni  Ni340  1  0.88995533  0.58333333  0.24188405  1.0
  Ni  Ni341  1  0.88995533  0.91666667  0.24188405  1.0
  Ni  Ni342  1  0.11004467  0.00000000  0.28291085  1.0
  Ni  Ni343  1  0.11004467  0.33333333  0.28291085  1.0
  Ni  Ni344  1  0.11004467  0.66666667  0.28291085  1.0
  Ni  Ni345  1  0.44337800  0.00000000  0.28291085  1.0
  Ni  Ni346  1  0.44337800  0.33333333  0.28291085  1.0
  Ni  Ni347  1  0.44337800  0.66666667  0.28291085  1.0
  Ni  Ni348  1  0.77671133  0.00000000  0.28291085  1.0
  Ni  Ni349  1  0.77671133  0.33333333  0.28291085  1.0
  Ni  Ni350  1  0.77671133  0.66666667  0.28291085  1.0
  Ni  Ni351  1  0.11004467  0.16666667  0.23291085  1.0
  Ni  Ni352  1  0.11004467  0.50000000  0.23291085  1.0
  Ni  Ni353  1  0.11004467  0.83333333  0.23291085  1.0
  Ni  Ni354  1  0.44337800  0.16666667  0.23291085  1.0
  Ni  Ni355  1  0.44337800  0.50000000  0.23291085  1.0
  Ni  Ni356  1  0.44337800  0.83333333  0.23291085  1.0
  Ni  Ni357  1  0.77671133  0.16666667  0.23291085  1.0
  Ni  Ni358  1  0.77671133  0.50000000  0.23291085  1.0
  Ni  Ni359  1  0.77671133  0.83333333  0.23291085  1.0
  Ni  Ni360  1  0.27781533  0.12465817  0.27063950  1.0
  Ni  Ni361  1  0.27781533  0.45799150  0.27063950  1.0
  Ni  Ni362  1  0.27781533  0.79132483  0.27063950  1.0
  Ni  Ni363  1  0.61114867  0.12465817  0.27063950  1.0
  Ni  Ni364  1  0.61114867  0.45799150  0.27063950  1.0
  Ni  Ni365  1  0.61114867  0.79132483  0.27063950  1.0
  Ni  Ni366  1  0.94448200  0.12465817  0.27063950  1.0
  Ni  Ni367  1  0.94448200  0.45799150  0.27063950  1.0
  Ni  Ni368  1  0.94448200  0.79132483  0.27063950  1.0
  Ni  Ni369  1  0.27781533  0.29132483  0.22063950  1.0
  Ni  Ni370  1  0.27781533  0.62465817  0.22063950  1.0
  Ni  Ni371  1  0.27781533  0.95799150  0.22063950  1.0
  Ni  Ni372  1  0.61114867  0.29132483  0.22063950  1.0
  Ni  Ni373  1  0.61114867  0.62465817  0.22063950  1.0
  Ni  Ni374  1  0.61114867  0.95799150  0.22063950  1.0
  Ni  Ni375  1  0.94448200  0.29132483  0.22063950  1.0
  Ni  Ni376  1  0.94448200  0.62465817  0.22063950  1.0
  Ni  Ni377  1  0.94448200  0.95799150  0.22063950  1.0
  Ni  Ni378  1  0.05551800  0.04132483  0.22895030  1.0
  Ni  Ni379  1  0.05551800  0.37465817  0.22895030  1.0
  Ni  Ni380  1  0.05551800  0.70799150  0.22895030  1.0
  Ni  Ni381  1  0.38885133  0.04132483  0.22895030  1.0
  Ni  Ni382  1  0.38885133  0.37465817  0.22895030  1.0
  Ni  Ni383  1  0.38885133  0.70799150  0.22895030  1.0
  Ni  Ni384  1  0.72218467  0.04132483  0.22895030  1.0
  Ni  Ni385  1  0.72218467  0.37465817  0.22895030  1.0
  Ni  Ni386  1  0.72218467  0.70799150  0.22895030  1.0
  Ni  Ni387  1  0.05551800  0.20799150  0.27895030  1.0
  Ni  Ni388  1  0.05551800  0.54132483  0.27895030  1.0
  Ni  Ni389  1  0.05551800  0.87465817  0.27895030  1.0
  Ni  Ni390  1  0.38885133  0.20799150  0.27895030  1.0
  Ni  Ni391  1  0.38885133  0.54132483  0.27895030  1.0
  Ni  Ni392  1  0.38885133  0.87465817  0.27895030  1.0
  Ni  Ni393  1  0.72218467  0.20799150  0.27895030  1.0
  Ni  Ni394  1  0.72218467  0.54132483  0.27895030  1.0
  Ni  Ni395  1  0.72218467  0.87465817  0.27895030  1.0
  Ni  Ni396  1  0.05551800  0.12534183  0.25415540  1.0
  Ni  Ni397  1  0.05551800  0.45867517  0.25415540  1.0
  Ni  Ni398  1  0.05551800  0.79200850  0.25415540  1.0
  Ni  Ni399  1  0.38885133  0.12534183  0.25415540  1.0
  Ni  Ni400  1  0.38885133  0.45867517  0.25415540  1.0
  Ni  Ni401  1  0.38885133  0.79200850  0.25415540  1.0
  Ni  Ni402  1  0.72218467  0.12534183  0.25415540  1.0
  Ni  Ni403  1  0.72218467  0.45867517  0.25415540  1.0
  Ni  Ni404  1  0.72218467  0.79200850  0.25415540  1.0
  Ni  Ni405  1  0.05551800  0.29200850  0.20415540  1.0
  Ni  Ni406  1  0.05551800  0.62534183  0.20415540  1.0
  Ni  Ni407  1  0.05551800  0.95867517  0.20415540  1.0
  Ni  Ni408  1  0.38885133  0.29200850  0.20415540  1.0
  Ni  Ni409  1  0.38885133  0.62534183  0.20415540  1.0
  Ni  Ni410  1  0.38885133  0.95867517  0.20415540  1.0
  Ni  Ni411  1  0.72218467  0.29200850  0.20415540  1.0
  Ni  Ni412  1  0.72218467  0.62534183  0.20415540  1.0
  Ni  Ni413  1  0.72218467  0.95867517  0.20415540  1.0
  Ni  Ni414  1  0.27781533  0.04200850  0.24584460  1.0
  Ni  Ni415  1  0.27781533  0.37534183  0.24584460  1.0
  Ni  Ni416  1  0.27781533  0.70867517  0.24584460  1.0
  Ni  Ni417  1  0.61114867  0.04200850  0.24584460  1.0
  Ni  Ni418  1  0.61114867  0.37534183  0.24584460  1.0
  Ni  Ni419  1  0.61114867  0.70867517  0.24584460  1.0
  Ni  Ni420  1  0.94448200  0.04200850  0.24584460  1.0
  Ni  Ni421  1  0.94448200  0.37534183  0.24584460  1.0
  Ni  Ni422  1  0.94448200  0.70867517  0.24584460  1.0
  Ni  Ni423  1  0.27781533  0.20867517  0.29584460  1.0
  Ni  Ni424  1  0.27781533  0.54200850  0.29584460  1.0
  Ni  Ni425  1  0.27781533  0.87534183  0.29584460  1.0
  Ni  Ni426  1  0.61114867  0.20867517  0.29584460  1.0
  Ni  Ni427  1  0.61114867  0.54200850  0.29584460  1.0
  Ni  Ni428  1  0.61114867  0.87534183  0.29584460  1.0
  Ni  Ni429  1  0.94448200  0.20867517  0.29584460  1.0
  Ni  Ni430  1  0.94448200  0.54200850  0.29584460  1.0
  Ni  Ni431  1  0.94448200  0.87534183  0.29584460  1.0
  Fe  Fe432  1  0.11128133  0.08333333  0.30828185  1.0
  Fe  Fe433  1  0.11128133  0.41666667  0.30828185  1.0
  Fe  Fe434  1  0.11128133  0.75000000  0.30828185  1.0
  Fe  Fe435  1  0.44461467  0.08333333  0.30828185  1.0
  Fe  Fe436  1  0.44461467  0.41666667  0.30828185  1.0
  Fe  Fe437  1  0.44461467  0.75000000  0.30828185  1.0
  Fe  Fe438  1  0.77794800  0.08333333  0.30828185  1.0
  Fe  Fe439  1  0.77794800  0.41666667  0.30828185  1.0
  Fe  Fe440  1  0.77794800  0.75000000  0.30828185  1.0
  Fe  Fe441  1  0.11128133  0.25000000  0.35828185  1.0
  Fe  Fe442  1  0.11128133  0.58333333  0.35828185  1.0
  Fe  Fe443  1  0.11128133  0.91666667  0.35828185  1.0
  Fe  Fe444  1  0.44461467  0.25000000  0.35828185  1.0
  Fe  Fe445  1  0.44461467  0.58333333  0.35828185  1.0
  Fe  Fe446  1  0.44461467  0.91666667  0.35828185  1.0
  Fe  Fe447  1  0.77794800  0.25000000  0.35828185  1.0
  Fe  Fe448  1  0.77794800  0.58333333  0.35828185  1.0
  Fe  Fe449  1  0.77794800  0.91666667  0.35828185  1.0
  Fe  Fe450  1  0.22205200  0.00000000  0.36651305  1.0
  Fe  Fe451  1  0.22205200  0.33333333  0.36651305  1.0
  Fe  Fe452  1  0.22205200  0.66666667  0.36651305  1.0
  Fe  Fe453  1  0.55538533  0.00000000  0.36651305  1.0
  Fe  Fe454  1  0.55538533  0.33333333  0.36651305  1.0
  Fe  Fe455  1  0.55538533  0.66666667  0.36651305  1.0
  Fe  Fe456  1  0.88871867  0.00000000  0.36651305  1.0
  Fe  Fe457  1  0.88871867  0.33333333  0.36651305  1.0
  Fe  Fe458  1  0.88871867  0.66666667  0.36651305  1.0
  Fe  Fe459  1  0.22205200  0.16666667  0.31651305  1.0
  Fe  Fe460  1  0.22205200  0.50000000  0.31651305  1.0
  Fe  Fe461  1  0.22205200  0.83333333  0.31651305  1.0
  Fe  Fe462  1  0.55538533  0.16666667  0.31651305  1.0
  Fe  Fe463  1  0.55538533  0.50000000  0.31651305  1.0
  Fe  Fe464  1  0.55538533  0.83333333  0.31651305  1.0
  Fe  Fe465  1  0.88871867  0.16666667  0.31651305  1.0
  Fe  Fe466  1  0.88871867  0.50000000  0.31651305  1.0
  Fe  Fe467  1  0.88871867  0.83333333  0.31651305  1.0
  Ni  Ni468  1  0.22328867  0.08333333  0.39188405  1.0
  Ni  Ni469  1  0.22328867  0.41666667  0.39188405  1.0
  Ni  Ni470  1  0.22328867  0.75000000  0.39188405  1.0
  Ni  Ni471  1  0.55662200  0.08333333  0.39188405  1.0
  Ni  Ni472  1  0.55662200  0.41666667  0.39188405  1.0
  Ni  Ni473  1  0.55662200  0.75000000  0.39188405  1.0
  Ni  Ni474  1  0.88995533  0.08333333  0.39188405  1.0
  Ni  Ni475  1  0.88995533  0.41666667  0.39188405  1.0
  Ni  Ni476  1  0.88995533  0.75000000  0.39188405  1.0
  Ni  Ni477  1  0.22328867  0.25000000  0.34188405  1.0
  Ni  Ni478  1  0.22328867  0.58333333  0.34188405  1.0
  Ni  Ni479  1  0.22328867  0.91666667  0.34188405  1.0
  Ni  Ni480  1  0.55662200  0.25000000  0.34188405  1.0
  Ni  Ni481  1  0.55662200  0.58333333  0.34188405  1.0
  Ni  Ni482  1  0.55662200  0.91666667  0.34188405  1.0
  Ni  Ni483  1  0.88995533  0.25000000  0.34188405  1.0
  Ni  Ni484  1  0.88995533  0.58333333  0.34188405  1.0
  Ni  Ni485  1  0.88995533  0.91666667  0.34188405  1.0
  Ni  Ni486  1  0.11004467  0.00000000  0.38291085  1.0
  Ni  Ni487  1  0.11004467  0.33333333  0.38291085  1.0
  Ni  Ni488  1  0.11004467  0.66666667  0.38291085  1.0
  Ni  Ni489  1  0.44337800  0.00000000  0.38291085  1.0
  Ni  Ni490  1  0.44337800  0.33333333  0.38291085  1.0
  Ni  Ni491  1  0.44337800  0.66666667  0.38291085  1.0
  Ni  Ni492  1  0.77671133  0.00000000  0.38291085  1.0
  Ni  Ni493  1  0.77671133  0.33333333  0.38291085  1.0
  Ni  Ni494  1  0.77671133  0.66666667  0.38291085  1.0
  Ni  Ni495  1  0.11004467  0.16666667  0.33291085  1.0
  Ni  Ni496  1  0.11004467  0.50000000  0.33291085  1.0
  Ni  Ni497  1  0.11004467  0.83333333  0.33291085  1.0
  Ni  Ni498  1  0.44337800  0.16666667  0.33291085  1.0
  Ni  Ni499  1  0.44337800  0.50000000  0.33291085  1.0
  Ni  Ni500  1  0.44337800  0.83333333  0.33291085  1.0
  Ni  Ni501  1  0.77671133  0.16666667  0.33291085  1.0
  Ni  Ni502  1  0.77671133  0.50000000  0.33291085  1.0
  Ni  Ni503  1  0.77671133  0.83333333  0.33291085  1.0
  Ni  Ni504  1  0.27781533  0.12465817  0.37063950  1.0
  Ni  Ni505  1  0.27781533  0.45799150  0.37063950  1.0
  Ni  Ni506  1  0.27781533  0.79132483  0.37063950  1.0
  Ni  Ni507  1  0.61114867  0.12465817  0.37063950  1.0
  Ni  Ni508  1  0.61114867  0.45799150  0.37063950  1.0
  Ni  Ni509  1  0.61114867  0.79132483  0.37063950  1.0
  Ni  Ni510  1  0.94448200  0.12465817  0.37063950  1.0
  Ni  Ni511  1  0.94448200  0.45799150  0.37063950  1.0
  Ni  Ni512  1  0.94448200  0.79132483  0.37063950  1.0
  Ni  Ni513  1  0.27781533  0.29132483  0.32063950  1.0
  Ni  Ni514  1  0.27781533  0.62465817  0.32063950  1.0
  Ni  Ni515  1  0.27781533  0.95799150  0.32063950  1.0
  Ni  Ni516  1  0.61114867  0.29132483  0.32063950  1.0
  Ni  Ni517  1  0.61114867  0.62465817  0.32063950  1.0
  Ni  Ni518  1  0.61114867  0.95799150  0.32063950  1.0
  Ni  Ni519  1  0.94448200  0.29132483  0.32063950  1.0
  Ni  Ni520  1  0.94448200  0.62465817  0.32063950  1.0
  Ni  Ni521  1  0.94448200  0.95799150  0.32063950  1.0
  Ni  Ni522  1  0.05551800  0.04132483  0.32895030  1.0
  Ni  Ni523  1  0.05551800  0.37465817  0.32895030  1.0
  Ni  Ni524  1  0.05551800  0.70799150  0.32895030  1.0
  Ni  Ni525  1  0.38885133  0.04132483  0.32895030  1.0
  Ni  Ni526  1  0.38885133  0.37465817  0.32895030  1.0
  Ni  Ni527  1  0.38885133  0.70799150  0.32895030  1.0
  Ni  Ni528  1  0.72218467  0.04132483  0.32895030  1.0
  Ni  Ni529  1  0.72218467  0.37465817  0.32895030  1.0
  Ni  Ni530  1  0.72218467  0.70799150  0.32895030  1.0
  Ni  Ni531  1  0.05551800  0.20799150  0.37895030  1.0
  Ni  Ni532  1  0.05551800  0.54132483  0.37895030  1.0
  Ni  Ni533  1  0.05551800  0.87465817  0.37895030  1.0
  Ni  Ni534  1  0.38885133  0.20799150  0.37895030  1.0
  Ni  Ni535  1  0.38885133  0.54132483  0.37895030  1.0
  Ni  Ni536  1  0.38885133  0.87465817  0.37895030  1.0
  Ni  Ni537  1  0.72218467  0.20799150  0.37895030  1.0
  Ni  Ni538  1  0.72218467  0.54132483  0.37895030  1.0
  Ni  Ni539  1  0.72218467  0.87465817  0.37895030  1.0
  Ni  Ni540  1  0.05551800  0.12534183  0.35415540  1.0
  Ni  Ni541  1  0.05551800  0.45867517  0.35415540  1.0
  Ni  Ni542  1  0.05551800  0.79200850  0.35415540  1.0
  Ni  Ni543  1  0.38885133  0.12534183  0.35415540  1.0
  Ni  Ni544  1  0.38885133  0.45867517  0.35415540  1.0
  Ni  Ni545  1  0.38885133  0.79200850  0.35415540  1.0
  Ni  Ni546  1  0.72218467  0.12534183  0.35415540  1.0
  Ni  Ni547  1  0.72218467  0.45867517  0.35415540  1.0
  Ni  Ni548  1  0.72218467  0.79200850  0.35415540  1.0
  Ni  Ni549  1  0.05551800  0.29200850  0.30415540  1.0
  Ni  Ni550  1  0.05551800  0.62534183  0.30415540  1.0
  Ni  Ni551  1  0.05551800  0.95867517  0.30415540  1.0
  Ni  Ni552  1  0.38885133  0.29200850  0.30415540  1.0
  Ni  Ni553  1  0.38885133  0.62534183  0.30415540  1.0
  Ni  Ni554  1  0.38885133  0.95867517  0.30415540  1.0
  Ni  Ni555  1  0.72218467  0.29200850  0.30415540  1.0
  Ni  Ni556  1  0.72218467  0.62534183  0.30415540  1.0
  Ni  Ni557  1  0.72218467  0.95867517  0.30415540  1.0
  Ni  Ni558  1  0.27781533  0.04200850  0.34584460  1.0
  Ni  Ni559  1  0.27781533  0.37534183  0.34584460  1.0
  Ni  Ni560  1  0.27781533  0.70867517  0.34584460  1.0
  Ni  Ni561  1  0.61114867  0.04200850  0.34584460  1.0
  Ni  Ni562  1  0.61114867  0.37534183  0.34584460  1.0
  Ni  Ni563  1  0.61114867  0.70867517  0.34584460  1.0
  Ni  Ni564  1  0.94448200  0.04200850  0.34584460  1.0
  Ni  Ni565  1  0.94448200  0.37534183  0.34584460  1.0
  Ni  Ni566  1  0.94448200  0.70867517  0.34584460  1.0
  Ni  Ni567  1  0.27781533  0.20867517  0.39584460  1.0
  Ni  Ni568  1  0.27781533  0.54200850  0.39584460  1.0
  Ni  Ni569  1  0.27781533  0.87534183  0.39584460  1.0
  Ni  Ni570  1  0.61114867  0.20867517  0.39584460  1.0
  Ni  Ni571  1  0.61114867  0.54200850  0.39584460  1.0
  Ni  Ni572  1  0.61114867  0.87534183  0.39584460  1.0
  Ni  Ni573  1  0.94448200  0.20867517  0.39584460  1.0
  Ni  Ni574  1  0.94448200  0.54200850  0.39584460  1.0
  Ni  Ni575  1  0.94448200  0.87534183  0.39584460  1.0
