# generated using pymatgen
data_FeNi
_symmetry_space_group_name_H-M   'P 1'
_cell_length_a   7.34271816
_cell_length_b   18.86886115
_cell_length_c   35.54359200
_cell_angle_alpha   51.10422840
_cell_angle_beta   90.00000000
_cell_angle_gamma   76.01171629
_symmetry_Int_Tables_number   1
_chemical_formula_structural   FeNi
_chemical_formula_sum   'Fe72 Ni72'
_cell_volume   3643.16036900
_cell_formula_units_Z   72
loop_
 _symmetry_equiv_pos_site_id
 _symmetry_equiv_pos_as_xyz
  1  'x, y, z'
loop_
 _atom_site_type_symbol
 _atom_site_label
 _atom_site_symmetry_multiplicity
 _atom_site_fract_x
 _atom_site_fract_y
 _atom_site_fract_z
 _atom_site_occupancy
  Fe  Fe0  1  0.00000000  0.16666667  0.04166667  1.0
  Fe  Fe1  1  0.00000000  0.50000000  0.04166667  1.0
  Fe  Fe2  1  0.00000000  0.83333333  0.04166667  1.0
  Fe  Fe3  1  0.33333333  0.16666667  0.04166667  1.0
  Fe  Fe4  1  0.33333333  0.50000000  0.04166667  1.0
  Fe  Fe5  1  0.33333333  0.83333333  0.04166667  1.0
  Fe  Fe6  1  0.66666667  0.16666667  0.04166667  1.0
  Fe  Fe7  1  0.66666667  0.50000000  0.04166667  1.0
  Fe  Fe8  1  0.66666667  0.83333333  0.04166667  1.0
  Fe  Fe9  1  0.00000000  0.00000000  0.09722222  1.0
  Fe  Fe10  1  0.00000000  0.33333333  0.09722222  1.0
  Fe  Fe11  1  0.00000000  0.66666667  0.09722222  1.0
  Fe  Fe12  1  0.33333333  0.00000000  0.09722222  1.0
  Fe  Fe13  1  0.33333333  0.33333333  0.09722222  1.0
  Fe  Fe14  1  0.33333333  0.66666667  0.09722222  1.0
  Fe  Fe15  1  0.66666667  0.00000000  0.09722222  1.0
  Fe  Fe16  1  0.66666667  0.33333333  0.09722222  1.0
  Fe  Fe17  1  0.66666667  0.66666667  0.09722222  1.0
  Ni  Ni18  1  0.16666667  0.08333333  0.01388889  1.0
  Ni  Ni19  1  0.16666667  0.41666667  0.01388889  1.0
  Ni  Ni20  1  0.16666667  0.75000000  0.01388889  1.0
  Ni  Ni21  1  0.50000000  0.08333333  0.01388889  1.0
  Ni  Ni22  1  0.50000000  0.41666667  0.01388889  1.0
  Ni  Ni23  1  0.50000000  0.75000000  0.01388889  1.0
  Ni  Ni24  1  0.83333333  0.08333333  0.01388889  1.0
  Ni  Ni25  1  0.83333333  0.41666667  0.01388889  1.0
  Ni  Ni26  1  0.83333333  0.75000000  0.01388889  1.0
  Ni  Ni27  1  0.16666667  0.25000000  0.06944444  1.0
  Ni  Ni28  1  0.16666667  0.58333333  0.06944444  1.0
  Ni  Ni29  1  0.16666667  0.91666667  0.06944444  1.0
  Ni  Ni30  1  0.50000000  0.25000000  0.06944444  1.0
  Ni  Ni31  1  0.50000000  0.58333333  0.06944444  1.0
  Ni  Ni32  1  0.50000000  0.91666667  0.06944444  1.0
  Ni  Ni33  1  0.83333333  0.25000000  0.06944444  1.0
  Ni  Ni34  1  0.83333333  0.58333333  0.06944444  1.0
  Ni  Ni35  1  0.83333333  0.91666667  0.06944444  1.0
  Fe  Fe36  1  0.00000000  0.16666667  0.15277778  1.0
  Fe  Fe37  1  0.00000000  0.50000000  0.15277778  1.0
  Fe  Fe38  1  0.00000000  0.83333333  0.15277778  1.0
  Fe  Fe39  1  0.33333333  0.16666667  0.15277778  1.0
  Fe  Fe40  1  0.33333333  0.50000000  0.15277778  1.0
  Fe  Fe41  1  0.33333333  0.83333333  0.15277778  1.0
  Fe  Fe42  1  0.66666667  0.16666667  0.15277778  1.0
  Fe  Fe43  1  0.66666667  0.50000000  0.15277778  1.0
  Fe  Fe44  1  0.66666667  0.83333333  0.15277778  1.0
  Fe  Fe45  1  0.00000000  0.00000000  0.20833333  1.0
  Fe  Fe46  1  0.00000000  0.33333333  0.20833333  1.0
  Fe  Fe47  1  0.00000000  0.66666667  0.20833333  1.0
  Fe  Fe48  1  0.33333333  0.00000000  0.20833333  1.0
  Fe  Fe49  1  0.33333333  0.33333333  0.20833333  1.0
  Fe  Fe50  1  0.33333333  0.66666667  0.20833333  1.0
  Fe  Fe51  1  0.66666667  0.00000000  0.20833333  1.0
  Fe  Fe52  1  0.66666667  0.33333333  0.20833333  1.0
  Fe  Fe53  1  0.66666667  0.66666667  0.20833333  1.0
  Ni  Ni54  1  0.16666667  0.08333333  0.12500000  1.0
  Ni  Ni55  1  0.16666667  0.41666667  0.12500000  1.0
  Ni  Ni56  1  0.16666667  0.75000000  0.12500000  1.0
  Ni  Ni57  1  0.50000000  0.08333333  0.12500000  1.0
  Ni  Ni58  1  0.50000000  0.41666667  0.12500000  1.0
  Ni  Ni59  1  0.50000000  0.75000000  0.12500000  1.0
  Ni  Ni60  1  0.83333333  0.08333333  0.12500000  1.0
  Ni  Ni61  1  0.83333333  0.41666667  0.12500000  1.0
  Ni  Ni62  1  0.83333333  0.75000000  0.12500000  1.0
  Ni  Ni63  1  0.16666667  0.25000000  0.18055556  1.0
  Ni  Ni64  1  0.16666667  0.58333333  0.18055556  1.0
  Ni  Ni65  1  0.16666667  0.91666667  0.18055556  1.0
  Ni  Ni66  1  0.50000000  0.25000000  0.18055556  1.0
  Ni  Ni67  1  0.50000000  0.58333333  0.18055556  1.0
  Ni  Ni68  1  0.50000000  0.91666667  0.18055556  1.0
  Ni  Ni69  1  0.83333333  0.25000000  0.18055556  1.0
  Ni  Ni70  1  0.83333333  0.58333333  0.18055556  1.0
  Ni  Ni71  1  0.83333333  0.91666667  0.18055556  1.0
  Fe  Fe72  1  0.00000000  0.16666667  0.26388889  1.0
  Fe  Fe73  1  0.00000000  0.50000000  0.26388889  1.0
  Fe  Fe74  1  0.00000000  0.83333333  0.26388889  1.0
  Fe  Fe75  1  0.33333333  0.16666667  0.26388889  1.0
  Fe  Fe76  1  0.33333333  0.50000000  0.26388889  1.0
  Fe  Fe77  1  0.33333333  0.83333333  0.26388889  1.0
  Fe  Fe78  1  0.66666667  0.16666667  0.26388889  1.0
  Fe  Fe79  1  0.66666667  0.50000000  0.26388889  1.0
  Fe  Fe80  1  0.66666667  0.83333333  0.26388889  1.0
  Fe  Fe81  1  0.00000000  0.00000000  0.31944444  1.0
  Fe  Fe82  1  0.00000000  0.33333333  0.31944444  1.0
  Fe  Fe83  1  0.00000000  0.66666667  0.31944444  1.0
  Fe  Fe84  1  0.33333333  0.00000000  0.31944444  1.0
  Fe  Fe85  1  0.33333333  0.33333333  0.31944444  1.0
  Fe  Fe86  1  0.33333333  0.66666667  0.31944444  1.0
  Fe  Fe87  1  0.66666667  0.00000000  0.31944444  1.0
  Fe  Fe88  1  0.66666667  0.33333333  0.31944444  1.0
  Fe  Fe89  1  0.66666667  0.66666667  0.31944444  1.0
  Ni  Ni90  1  0.16666667  0.08333333  0.23611111  1.0
  Ni  Ni91  1  0.16666667  0.41666667  0.23611111  1.0
  Ni  Ni92  1  0.16666667  0.75000000  0.23611111  1.0
  Ni  Ni93  1  0.50000000  0.08333333  0.23611111  1.0
  Ni  Ni94  1  0.50000000  0.41666667  0.23611111  1.0
  Ni  Ni95  1  0.50000000  0.75000000  0.23611111  1.0
  Ni  Ni96  1  0.83333333  0.08333333  0.23611111  1.0
  Ni  Ni97  1  0.83333333  0.41666667  0.23611111  1.0
  Ni  Ni98  1  0.83333333  0.75000000  0.23611111  1.0
  Ni  Ni99  1  0.16666667  0.25000000  0.29166667  1.0
  Ni  Ni100  1  0.16666667  0.58333333  0.29166667  1.0
  Ni  Ni101  1  0.16666667  0.91666667  0.29166667  1.0
  Ni  Ni102  1  0.50000000  0.25000000  0.29166667  1.0
  Ni  Ni103  1  0.50000000  0.58333333  0.29166667  1.0
  Ni  Ni104  1  0.50000000  0.91666667  0.29166667  1.0
  Ni  Ni105  1  0.83333333  0.25000000  0.29166667  1.0
  Ni  Ni106  1  0.83333333  0.58333333  0.29166667  1.0
  Ni  Ni107  1  0.83333333  0.91666667  0.29166667  1.0
  Fe  Fe108  1  0.00000000  0.16666667  0.37500000  1.0
  Fe  Fe109  1  0.00000000  0.50000000  0.37500000  1.0
  Fe  Fe110  1  0.00000000  0.83333333  0.37500000  1.0
  Fe  Fe111  1  0.33333333  0.16666667  0.37500000  1.0
  Fe  Fe112  1  0.33333333  0.50000000  0.37500000  1.0
  Fe  Fe113  1  0.33333333  0.83333333  0.37500000  1.0
  Fe  Fe114  1  0.66666667  0.16666667  0.37500000  1.0
  Fe  Fe115  1  0.66666667  0.50000000  0.37500000  1.0
  Fe  Fe116  1  0.66666667  0.83333333  0.37500000  1.0
  Fe  Fe117  1  0.00000000  0.00000000  0.43055556  1.0
  Fe  Fe118  1  0.00000000  0.33333333  0.43055556  1.0
  Fe  Fe119  1  0.00000000  0.66666667  0.43055556  1.0
  Fe  Fe120  1  0.33333333  0.00000000  0.43055556  1.0
  Fe  Fe121  1  0.33333333  0.33333333  0.43055556  1.0
  Fe  Fe122  1  0.33333333  0.66666667  0.43055556  1.0
  Fe  Fe123  1  0.66666667  0.00000000  0.43055556  1.0
  Fe  Fe124  1  0.66666667  0.33333333  0.43055556  1.0
  Fe  Fe125  1  0.66666667  0.66666667  0.43055556  1.0
  Ni  Ni126  1  0.16666667  0.08333333  0.34722222  1.0
  Ni  Ni127  1  0.16666667  0.41666667  0.34722222  1.0
  Ni  Ni128  1  0.16666667  0.75000000  0.34722222  1.0
  Ni  Ni129  1  0.50000000  0.08333333  0.34722222  1.0
  Ni  Ni130  1  0.50000000  0.41666667  0.34722222  1.0
  Ni  Ni131  1  0.50000000  0.75000000  0.34722222  1.0
  Ni  Ni132  1  0.83333333  0.08333333  0.34722222  1.0
  Ni  Ni133  1  0.83333333  0.41666667  0.34722222  1.0
  Ni  Ni134  1  0.83333333  0.75000000  0.34722222  1.0
  Ni  Ni135  1  0.16666667  0.25000000  0.40277778  1.0
  Ni  Ni136  1  0.16666667  0.58333333  0.40277778  1.0
  Ni  Ni137  1  0.16666667  0.91666667  0.40277778  1.0
  Ni  Ni138  1  0.50000000  0.25000000  0.40277778  1.0
  Ni  Ni139  1  0.50000000  0.58333333  0.40277778  1.0
  Ni  Ni140  1  0.50000000  0.91666667  0.40277778  1.0
  Ni  Ni141  1  0.83333333  0.25000000  0.40277778  1.0
  Ni  Ni142  1  0.83333333  0.58333333  0.40277778  1.0
  Ni  Ni143  1  0.83333333  0.91666667  0.40277778  1.0
