# generated using pymatgen
data_FeNi3
_symmetry_space_group_name_H-M   'P 1'
_cell_length_a   19.83314930
_cell_length_b   25.99941996
_cell_length_c   27.82481266
_cell_angle_alpha   92.96834981
_cell_angle_beta   91.94511908
_cell_angle_gamma   109.08238307
_symmetry_Int_Tables_number   1
_chemical_formula_structural   FeNi3
_chemical_formula_sum   'Fe126 Ni378'
_cell_volume   13521.57308957
_cell_formula_units_Z   126
loop_
 _symmetry_equiv_pos_site_id
 _symmetry_equiv_pos_as_xyz
  1  'x, y, z'
loop_
 _atom_site_type_symbol
 _atom_site_label
 _atom_site_symmetry_multiplicity
 _atom_site_fract_x
 _atom_site_fract_y
 _atom_site_fract_z
 _atom_site_occupancy
  Fe  Fe0  1  0.12991716  0.04171833  0.97795029  1.0
  Fe  Fe1  1  0.12991716  0.37505167  0.97795029  1.0
  Fe  Fe2  1  0.12991716  0.70838500  0.97795029  1.0
  Fe  Fe3  1  0.46325049  0.04171833  0.97795029  1.0
  Fe  Fe4  1  0.46325049  0.37505167  0.97795029  1.0
  Fe  Fe5  1  0.46325049  0.70838500  0.97795029  1.0
  Fe  Fe6  1  0.79658382  0.04171833  0.97795029  1.0
  Fe  Fe7  1  0.79658382  0.37505167  0.97795029  1.0
  Fe  Fe8  1  0.79658382  0.70838500  0.97795029  1.0
  Fe  Fe9  1  0.24756422  0.04171833  0.94853853  1.0
  Fe  Fe10  1  0.24756422  0.37505167  0.94853853  1.0
  Fe  Fe11  1  0.24756422  0.70838500  0.94853853  1.0
  Fe  Fe12  1  0.58089755  0.04171833  0.94853853  1.0
  Fe  Fe13  1  0.58089755  0.37505167  0.94853853  1.0
  Fe  Fe14  1  0.58089755  0.70838500  0.94853853  1.0
  Fe  Fe15  1  0.91423088  0.04171833  0.94853853  1.0
  Fe  Fe16  1  0.91423088  0.37505167  0.94853853  1.0
  Fe  Fe17  1  0.91423088  0.70838500  0.94853853  1.0
  Fe  Fe18  1  0.03187794  0.04171833  0.91912676  1.0
  Fe  Fe19  1  0.03187794  0.37505167  0.91912676  1.0
  Fe  Fe20  1  0.03187794  0.70838500  0.91912676  1.0
  Fe  Fe21  1  0.36521127  0.04171833  0.91912676  1.0
  Fe  Fe22  1  0.36521127  0.37505167  0.91912676  1.0
  Fe  Fe23  1  0.36521127  0.70838500  0.91912676  1.0
  Fe  Fe24  1  0.69854461  0.04171833  0.91912676  1.0
  Fe  Fe25  1  0.69854461  0.37505167  0.91912676  1.0
  Fe  Fe26  1  0.69854461  0.70838500  0.91912676  1.0
  Fe  Fe27  1  0.14952500  0.04171833  0.88971500  1.0
  Fe  Fe28  1  0.14952500  0.37505167  0.88971500  1.0
  Fe  Fe29  1  0.14952500  0.70838500  0.88971500  1.0
  Fe  Fe30  1  0.48285833  0.04171833  0.88971500  1.0
  Fe  Fe31  1  0.48285833  0.37505167  0.88971500  1.0
  Fe  Fe32  1  0.48285833  0.70838500  0.88971500  1.0
  Fe  Fe33  1  0.81619167  0.04171833  0.88971500  1.0
  Fe  Fe34  1  0.81619167  0.37505167  0.88971500  1.0
  Fe  Fe35  1  0.81619167  0.70838500  0.88971500  1.0
  Fe  Fe36  1  0.26717206  0.04171833  0.86030324  1.0
  Fe  Fe37  1  0.26717206  0.37505167  0.86030324  1.0
  Fe  Fe38  1  0.26717206  0.70838500  0.86030324  1.0
  Fe  Fe39  1  0.60050539  0.04171833  0.86030324  1.0
  Fe  Fe40  1  0.60050539  0.37505167  0.86030324  1.0
  Fe  Fe41  1  0.60050539  0.70838500  0.86030324  1.0
  Fe  Fe42  1  0.93383873  0.04171833  0.86030324  1.0
  Fe  Fe43  1  0.93383873  0.37505167  0.86030324  1.0
  Fe  Fe44  1  0.93383873  0.70838500  0.86030324  1.0
  Fe  Fe45  1  0.05148578  0.04171833  0.83089147  1.0
  Fe  Fe46  1  0.05148578  0.37505167  0.83089147  1.0
  Fe  Fe47  1  0.05148578  0.70838500  0.83089147  1.0
  Fe  Fe48  1  0.38481912  0.04171833  0.83089147  1.0
  Fe  Fe49  1  0.38481912  0.37505167  0.83089147  1.0
  Fe  Fe50  1  0.38481912  0.70838500  0.83089147  1.0
  Fe  Fe51  1  0.71815245  0.04171833  0.83089147  1.0
  Fe  Fe52  1  0.71815245  0.37505167  0.83089147  1.0
  Fe  Fe53  1  0.71815245  0.70838500  0.83089147  1.0
  Fe  Fe54  1  0.16913284  0.04171833  0.80147971  1.0
  Fe  Fe55  1  0.16913284  0.37505167  0.80147971  1.0
  Fe  Fe56  1  0.16913284  0.70838500  0.80147971  1.0
  Fe  Fe57  1  0.50246618  0.04171833  0.80147971  1.0
  Fe  Fe58  1  0.50246618  0.37505167  0.80147971  1.0
  Fe  Fe59  1  0.50246618  0.70838500  0.80147971  1.0
  Fe  Fe60  1  0.83579951  0.04171833  0.80147971  1.0
  Fe  Fe61  1  0.83579951  0.37505167  0.80147971  1.0
  Fe  Fe62  1  0.83579951  0.70838500  0.80147971  1.0
  Fe  Fe63  1  0.28677990  0.04171833  0.77206794  1.0
  Fe  Fe64  1  0.28677990  0.37505167  0.77206794  1.0
  Fe  Fe65  1  0.28677990  0.70838500  0.77206794  1.0
  Fe  Fe66  1  0.62011324  0.04171833  0.77206794  1.0
  Fe  Fe67  1  0.62011324  0.37505167  0.77206794  1.0
  Fe  Fe68  1  0.62011324  0.70838500  0.77206794  1.0
  Fe  Fe69  1  0.95344657  0.04171833  0.77206794  1.0
  Fe  Fe70  1  0.95344657  0.37505167  0.77206794  1.0
  Fe  Fe71  1  0.95344657  0.70838500  0.77206794  1.0
  Fe  Fe72  1  0.07109363  0.04171833  0.74265618  1.0
  Fe  Fe73  1  0.07109363  0.37505167  0.74265618  1.0
  Fe  Fe74  1  0.07109363  0.70838500  0.74265618  1.0
  Fe  Fe75  1  0.40442696  0.04171833  0.74265618  1.0
  Fe  Fe76  1  0.40442696  0.37505167  0.74265618  1.0
  Fe  Fe77  1  0.40442696  0.70838500  0.74265618  1.0
  Fe  Fe78  1  0.73776029  0.04171833  0.74265618  1.0
  Fe  Fe79  1  0.73776029  0.37505167  0.74265618  1.0
  Fe  Fe80  1  0.73776029  0.70838500  0.74265618  1.0
  Fe  Fe81  1  0.18874069  0.04171833  0.71324441  1.0
  Fe  Fe82  1  0.18874069  0.37505167  0.71324441  1.0
  Fe  Fe83  1  0.18874069  0.70838500  0.71324441  1.0
  Fe  Fe84  1  0.52207402  0.04171833  0.71324441  1.0
  Fe  Fe85  1  0.52207402  0.37505167  0.71324441  1.0
  Fe  Fe86  1  0.52207402  0.70838500  0.71324441  1.0
  Fe  Fe87  1  0.85540735  0.04171833  0.71324441  1.0
  Fe  Fe88  1  0.85540735  0.37505167  0.71324441  1.0
  Fe  Fe89  1  0.85540735  0.70838500  0.71324441  1.0
  Fe  Fe90  1  0.30638775  0.04171833  0.68383265  1.0
  Fe  Fe91  1  0.30638775  0.37505167  0.68383265  1.0
  Fe  Fe92  1  0.30638775  0.70838500  0.68383265  1.0
  Fe  Fe93  1  0.63972108  0.04171833  0.68383265  1.0
  Fe  Fe94  1  0.63972108  0.37505167  0.68383265  1.0
  Fe  Fe95  1  0.63972108  0.70838500  0.68383265  1.0
  Fe  Fe96  1  0.97305441  0.04171833  0.68383265  1.0
  Fe  Fe97  1  0.97305441  0.37505167  0.68383265  1.0
  Fe  Fe98  1  0.97305441  0.70838500  0.68383265  1.0
  Fe  Fe99  1  0.09070147  0.04171833  0.65442088  1.0
  Fe  Fe100  1  0.09070147  0.37505167  0.65442088  1.0
  Fe  Fe101  1  0.09070147  0.70838500  0.65442088  1.0
  Fe  Fe102  1  0.42403480  0.04171833  0.65442088  1.0
  Fe  Fe103  1  0.42403480  0.37505167  0.65442088  1.0
  Fe  Fe104  1  0.42403480  0.70838500  0.65442088  1.0
  Fe  Fe105  1  0.75736814  0.04171833  0.65442088  1.0
  Fe  Fe106  1  0.75736814  0.37505167  0.65442088  1.0
  Fe  Fe107  1  0.75736814  0.70838500  0.65442088  1.0
  Fe  Fe108  1  0.20834853  0.04171833  0.62500912  1.0
  Fe  Fe109  1  0.20834853  0.37505167  0.62500912  1.0
  Fe  Fe110  1  0.20834853  0.70838500  0.62500912  1.0
  Fe  Fe111  1  0.54168186  0.04171833  0.62500912  1.0
  Fe  Fe112  1  0.54168186  0.37505167  0.62500912  1.0
  Fe  Fe113  1  0.54168186  0.70838500  0.62500912  1.0
  Fe  Fe114  1  0.87501520  0.04171833  0.62500912  1.0
  Fe  Fe115  1  0.87501520  0.37505167  0.62500912  1.0
  Fe  Fe116  1  0.87501520  0.70838500  0.62500912  1.0
  Fe  Fe117  1  0.32599559  0.04171833  0.59559735  1.0
  Fe  Fe118  1  0.32599559  0.37505167  0.59559735  1.0
  Fe  Fe119  1  0.32599559  0.70838500  0.59559735  1.0
  Fe  Fe120  1  0.65932892  0.04171833  0.59559735  1.0
  Fe  Fe121  1  0.65932892  0.37505167  0.59559735  1.0
  Fe  Fe122  1  0.65932892  0.70838500  0.59559735  1.0
  Fe  Fe123  1  0.99266225  0.04171833  0.59559735  1.0
  Fe  Fe124  1  0.99266225  0.37505167  0.59559735  1.0
  Fe  Fe125  1  0.99266225  0.70838500  0.59559735  1.0
  Ni  Ni126  1  0.23789402  0.29202833  0.99267441  1.0
  Ni  Ni127  1  0.23789402  0.62536167  0.99267441  1.0
  Ni  Ni128  1  0.23789402  0.95869500  0.99267441  1.0
  Ni  Ni129  1  0.57122735  0.29202833  0.99267441  1.0
  Ni  Ni130  1  0.57122735  0.62536167  0.99267441  1.0
  Ni  Ni131  1  0.57122735  0.95869500  0.99267441  1.0
  Ni  Ni132  1  0.90456069  0.29202833  0.99267441  1.0
  Ni  Ni133  1  0.90456069  0.62536167  0.99267441  1.0
  Ni  Ni134  1  0.90456069  0.95869500  0.99267441  1.0
  Ni  Ni135  1  0.02220775  0.29202833  0.96326265  1.0
  Ni  Ni136  1  0.02220775  0.62536167  0.96326265  1.0
  Ni  Ni137  1  0.02220775  0.95869500  0.96326265  1.0
  Ni  Ni138  1  0.35554108  0.29202833  0.96326265  1.0
  Ni  Ni139  1  0.35554108  0.62536167  0.96326265  1.0
  Ni  Ni140  1  0.35554108  0.95869500  0.96326265  1.0
  Ni  Ni141  1  0.68887441  0.29202833  0.96326265  1.0
  Ni  Ni142  1  0.68887441  0.62536167  0.96326265  1.0
  Ni  Ni143  1  0.68887441  0.95869500  0.96326265  1.0
  Ni  Ni144  1  0.24756422  0.20838500  0.94853853  1.0
  Ni  Ni145  1  0.24756422  0.54171833  0.94853853  1.0
  Ni  Ni146  1  0.24756422  0.87505167  0.94853853  1.0
  Ni  Ni147  1  0.58089755  0.20838500  0.94853853  1.0
  Ni  Ni148  1  0.58089755  0.54171833  0.94853853  1.0
  Ni  Ni149  1  0.58089755  0.87505167  0.94853853  1.0
  Ni  Ni150  1  0.91423088  0.20838500  0.94853853  1.0
  Ni  Ni151  1  0.91423088  0.54171833  0.94853853  1.0
  Ni  Ni152  1  0.91423088  0.87505167  0.94853853  1.0
  Ni  Ni153  1  0.12991716  0.20838500  0.97795029  1.0
  Ni  Ni154  1  0.12991716  0.54171833  0.97795029  1.0
  Ni  Ni155  1  0.12991716  0.87505167  0.97795029  1.0
  Ni  Ni156  1  0.46325049  0.20838500  0.97795029  1.0
  Ni  Ni157  1  0.46325049  0.54171833  0.97795029  1.0
  Ni  Ni158  1  0.46325049  0.87505167  0.97795029  1.0
  Ni  Ni159  1  0.79658382  0.20838500  0.97795029  1.0
  Ni  Ni160  1  0.79658382  0.54171833  0.97795029  1.0
  Ni  Ni161  1  0.79658382  0.87505167  0.97795029  1.0
  Ni  Ni162  1  0.02194029  0.12474167  0.96322618  1.0
  Ni  Ni163  1  0.02194029  0.45807500  0.96322618  1.0
  Ni  Ni164  1  0.02194029  0.79140833  0.96322618  1.0
  Ni  Ni165  1  0.35527363  0.12474167  0.96322618  1.0
  Ni  Ni166  1  0.35527363  0.45807500  0.96322618  1.0
  Ni  Ni167  1  0.35527363  0.79140833  0.96322618  1.0
  Ni  Ni168  1  0.68860696  0.12474167  0.96322618  1.0
  Ni  Ni169  1  0.68860696  0.45807500  0.96322618  1.0
  Ni  Ni170  1  0.68860696  0.79140833  0.96322618  1.0
  Ni  Ni171  1  0.23762657  0.12474167  0.99263794  1.0
  Ni  Ni172  1  0.23762657  0.45807500  0.99263794  1.0
  Ni  Ni173  1  0.23762657  0.79140833  0.99263794  1.0
  Ni  Ni174  1  0.57095990  0.12474167  0.99263794  1.0
  Ni  Ni175  1  0.57095990  0.45807500  0.99263794  1.0
  Ni  Ni176  1  0.57095990  0.79140833  0.99263794  1.0
  Ni  Ni177  1  0.90429324  0.12474167  0.99263794  1.0
  Ni  Ni178  1  0.90429324  0.45807500  0.99263794  1.0
  Ni  Ni179  1  0.90429324  0.79140833  0.99263794  1.0
  Ni  Ni180  1  0.13985480  0.29202833  0.93385088  1.0
  Ni  Ni181  1  0.13985480  0.62536167  0.93385088  1.0
  Ni  Ni182  1  0.13985480  0.95869500  0.93385088  1.0
  Ni  Ni183  1  0.47318814  0.29202833  0.93385088  1.0
  Ni  Ni184  1  0.47318814  0.62536167  0.93385088  1.0
  Ni  Ni185  1  0.47318814  0.95869500  0.93385088  1.0
  Ni  Ni186  1  0.80652147  0.29202833  0.93385088  1.0
  Ni  Ni187  1  0.80652147  0.62536167  0.93385088  1.0
  Ni  Ni188  1  0.80652147  0.95869500  0.93385088  1.0
  Ni  Ni189  1  0.25750186  0.29202833  0.90443912  1.0
  Ni  Ni190  1  0.25750186  0.62536167  0.90443912  1.0
  Ni  Ni191  1  0.25750186  0.95869500  0.90443912  1.0
  Ni  Ni192  1  0.59083520  0.29202833  0.90443912  1.0
  Ni  Ni193  1  0.59083520  0.62536167  0.90443912  1.0
  Ni  Ni194  1  0.59083520  0.95869500  0.90443912  1.0
  Ni  Ni195  1  0.92416853  0.29202833  0.90443912  1.0
  Ni  Ni196  1  0.92416853  0.62536167  0.90443912  1.0
  Ni  Ni197  1  0.92416853  0.95869500  0.90443912  1.0
  Ni  Ni198  1  0.14952500  0.20838500  0.88971500  1.0
  Ni  Ni199  1  0.14952500  0.54171833  0.88971500  1.0
  Ni  Ni200  1  0.14952500  0.87505167  0.88971500  1.0
  Ni  Ni201  1  0.48285833  0.20838500  0.88971500  1.0
  Ni  Ni202  1  0.48285833  0.54171833  0.88971500  1.0
  Ni  Ni203  1  0.48285833  0.87505167  0.88971500  1.0
  Ni  Ni204  1  0.81619167  0.20838500  0.88971500  1.0
  Ni  Ni205  1  0.81619167  0.54171833  0.88971500  1.0
  Ni  Ni206  1  0.81619167  0.87505167  0.88971500  1.0
  Ni  Ni207  1  0.03187794  0.20838500  0.91912676  1.0
  Ni  Ni208  1  0.03187794  0.54171833  0.91912676  1.0
  Ni  Ni209  1  0.03187794  0.87505167  0.91912676  1.0
  Ni  Ni210  1  0.36521127  0.20838500  0.91912676  1.0
  Ni  Ni211  1  0.36521127  0.54171833  0.91912676  1.0
  Ni  Ni212  1  0.36521127  0.87505167  0.91912676  1.0
  Ni  Ni213  1  0.69854461  0.20838500  0.91912676  1.0
  Ni  Ni214  1  0.69854461  0.54171833  0.91912676  1.0
  Ni  Ni215  1  0.69854461  0.87505167  0.91912676  1.0
  Ni  Ni216  1  0.25723441  0.12474167  0.90440265  1.0
  Ni  Ni217  1  0.25723441  0.45807500  0.90440265  1.0
  Ni  Ni218  1  0.25723441  0.79140833  0.90440265  1.0
  Ni  Ni219  1  0.59056775  0.12474167  0.90440265  1.0
  Ni  Ni220  1  0.59056775  0.45807500  0.90440265  1.0
  Ni  Ni221  1  0.59056775  0.79140833  0.90440265  1.0
  Ni  Ni222  1  0.92390108  0.12474167  0.90440265  1.0
  Ni  Ni223  1  0.92390108  0.45807500  0.90440265  1.0
  Ni  Ni224  1  0.92390108  0.79140833  0.90440265  1.0
  Ni  Ni225  1  0.13958735  0.12474167  0.93381441  1.0
  Ni  Ni226  1  0.13958735  0.45807500  0.93381441  1.0
  Ni  Ni227  1  0.13958735  0.79140833  0.93381441  1.0
  Ni  Ni228  1  0.47292069  0.12474167  0.93381441  1.0
  Ni  Ni229  1  0.47292069  0.45807500  0.93381441  1.0
  Ni  Ni230  1  0.47292069  0.79140833  0.93381441  1.0
  Ni  Ni231  1  0.80625402  0.12474167  0.93381441  1.0
  Ni  Ni232  1  0.80625402  0.45807500  0.93381441  1.0
  Ni  Ni233  1  0.80625402  0.79140833  0.93381441  1.0
  Ni  Ni234  1  0.04181559  0.29202833  0.87502735  1.0
  Ni  Ni235  1  0.04181559  0.62536167  0.87502735  1.0
  Ni  Ni236  1  0.04181559  0.95869500  0.87502735  1.0
  Ni  Ni237  1  0.37514892  0.29202833  0.87502735  1.0
  Ni  Ni238  1  0.37514892  0.62536167  0.87502735  1.0
  Ni  Ni239  1  0.37514892  0.95869500  0.87502735  1.0
  Ni  Ni240  1  0.70848225  0.29202833  0.87502735  1.0
  Ni  Ni241  1  0.70848225  0.62536167  0.87502735  1.0
  Ni  Ni242  1  0.70848225  0.95869500  0.87502735  1.0
  Ni  Ni243  1  0.15946265  0.29202833  0.84561559  1.0
  Ni  Ni244  1  0.15946265  0.62536167  0.84561559  1.0
  Ni  Ni245  1  0.15946265  0.95869500  0.84561559  1.0
  Ni  Ni246  1  0.49279598  0.29202833  0.84561559  1.0
  Ni  Ni247  1  0.49279598  0.62536167  0.84561559  1.0
  Ni  Ni248  1  0.49279598  0.95869500  0.84561559  1.0
  Ni  Ni249  1  0.82612931  0.29202833  0.84561559  1.0
  Ni  Ni250  1  0.82612931  0.62536167  0.84561559  1.0
  Ni  Ni251  1  0.82612931  0.95869500  0.84561559  1.0
  Ni  Ni252  1  0.05148578  0.20838500  0.83089147  1.0
  Ni  Ni253  1  0.05148578  0.54171833  0.83089147  1.0
  Ni  Ni254  1  0.05148578  0.87505167  0.83089147  1.0
  Ni  Ni255  1  0.38481912  0.20838500  0.83089147  1.0
  Ni  Ni256  1  0.38481912  0.54171833  0.83089147  1.0
  Ni  Ni257  1  0.38481912  0.87505167  0.83089147  1.0
  Ni  Ni258  1  0.71815245  0.20838500  0.83089147  1.0
  Ni  Ni259  1  0.71815245  0.54171833  0.83089147  1.0
  Ni  Ni260  1  0.71815245  0.87505167  0.83089147  1.0
  Ni  Ni261  1  0.26717206  0.20838500  0.86030324  1.0
  Ni  Ni262  1  0.26717206  0.54171833  0.86030324  1.0
  Ni  Ni263  1  0.26717206  0.87505167  0.86030324  1.0
  Ni  Ni264  1  0.60050539  0.20838500  0.86030324  1.0
  Ni  Ni265  1  0.60050539  0.54171833  0.86030324  1.0
  Ni  Ni266  1  0.60050539  0.87505167  0.86030324  1.0
  Ni  Ni267  1  0.93383873  0.20838500  0.86030324  1.0
  Ni  Ni268  1  0.93383873  0.54171833  0.86030324  1.0
  Ni  Ni269  1  0.93383873  0.87505167  0.86030324  1.0
  Ni  Ni270  1  0.15919520  0.12474167  0.84557912  1.0
  Ni  Ni271  1  0.15919520  0.45807500  0.84557912  1.0
  Ni  Ni272  1  0.15919520  0.79140833  0.84557912  1.0
  Ni  Ni273  1  0.49252853  0.12474167  0.84557912  1.0
  Ni  Ni274  1  0.49252853  0.45807500  0.84557912  1.0
  Ni  Ni275  1  0.49252853  0.79140833  0.84557912  1.0
  Ni  Ni276  1  0.82586186  0.12474167  0.84557912  1.0
  Ni  Ni277  1  0.82586186  0.45807500  0.84557912  1.0
  Ni  Ni278  1  0.82586186  0.79140833  0.84557912  1.0
  Ni  Ni279  1  0.04154814  0.12474167  0.87499088  1.0
  Ni  Ni280  1  0.04154814  0.45807500  0.87499088  1.0
  Ni  Ni281  1  0.04154814  0.79140833  0.87499088  1.0
  Ni  Ni282  1  0.37488147  0.12474167  0.87499088  1.0
  Ni  Ni283  1  0.37488147  0.45807500  0.87499088  1.0
  Ni  Ni284  1  0.37488147  0.79140833  0.87499088  1.0
  Ni  Ni285  1  0.70821480  0.12474167  0.87499088  1.0
  Ni  Ni286  1  0.70821480  0.45807500  0.87499088  1.0
  Ni  Ni287  1  0.70821480  0.79140833  0.87499088  1.0
  Ni  Ni288  1  0.27710971  0.29202833  0.81620382  1.0
  Ni  Ni289  1  0.27710971  0.62536167  0.81620382  1.0
  Ni  Ni290  1  0.27710971  0.95869500  0.81620382  1.0
  Ni  Ni291  1  0.61044304  0.29202833  0.81620382  1.0
  Ni  Ni292  1  0.61044304  0.62536167  0.81620382  1.0
  Ni  Ni293  1  0.61044304  0.95869500  0.81620382  1.0
  Ni  Ni294  1  0.94377637  0.29202833  0.81620382  1.0
  Ni  Ni295  1  0.94377637  0.62536167  0.81620382  1.0
  Ni  Ni296  1  0.94377637  0.95869500  0.81620382  1.0
  Ni  Ni297  1  0.06142343  0.29202833  0.78679206  1.0
  Ni  Ni298  1  0.06142343  0.62536167  0.78679206  1.0
  Ni  Ni299  1  0.06142343  0.95869500  0.78679206  1.0
  Ni  Ni300  1  0.39475676  0.29202833  0.78679206  1.0
  Ni  Ni301  1  0.39475676  0.62536167  0.78679206  1.0
  Ni  Ni302  1  0.39475676  0.95869500  0.78679206  1.0
  Ni  Ni303  1  0.72809010  0.29202833  0.78679206  1.0
  Ni  Ni304  1  0.72809010  0.62536167  0.78679206  1.0
  Ni  Ni305  1  0.72809010  0.95869500  0.78679206  1.0
  Ni  Ni306  1  0.28677990  0.20838500  0.77206794  1.0
  Ni  Ni307  1  0.28677990  0.54171833  0.77206794  1.0
  Ni  Ni308  1  0.28677990  0.87505167  0.77206794  1.0
  Ni  Ni309  1  0.62011324  0.20838500  0.77206794  1.0
  Ni  Ni310  1  0.62011324  0.54171833  0.77206794  1.0
  Ni  Ni311  1  0.62011324  0.87505167  0.77206794  1.0
  Ni  Ni312  1  0.95344657  0.20838500  0.77206794  1.0
  Ni  Ni313  1  0.95344657  0.54171833  0.77206794  1.0
  Ni  Ni314  1  0.95344657  0.87505167  0.77206794  1.0
  Ni  Ni315  1  0.16913284  0.20838500  0.80147971  1.0
  Ni  Ni316  1  0.16913284  0.54171833  0.80147971  1.0
  Ni  Ni317  1  0.16913284  0.87505167  0.80147971  1.0
  Ni  Ni318  1  0.50246618  0.20838500  0.80147971  1.0
  Ni  Ni319  1  0.50246618  0.54171833  0.80147971  1.0
  Ni  Ni320  1  0.50246618  0.87505167  0.80147971  1.0
  Ni  Ni321  1  0.83579951  0.20838500  0.80147971  1.0
  Ni  Ni322  1  0.83579951  0.54171833  0.80147971  1.0
  Ni  Ni323  1  0.83579951  0.87505167  0.80147971  1.0
  Ni  Ni324  1  0.06115598  0.12474167  0.78675559  1.0
  Ni  Ni325  1  0.06115598  0.45807500  0.78675559  1.0
  Ni  Ni326  1  0.06115598  0.79140833  0.78675559  1.0
  Ni  Ni327  1  0.39448931  0.12474167  0.78675559  1.0
  Ni  Ni328  1  0.39448931  0.45807500  0.78675559  1.0
  Ni  Ni329  1  0.39448931  0.79140833  0.78675559  1.0
  Ni  Ni330  1  0.72782265  0.12474167  0.78675559  1.0
  Ni  Ni331  1  0.72782265  0.45807500  0.78675559  1.0
  Ni  Ni332  1  0.72782265  0.79140833  0.78675559  1.0
  Ni  Ni333  1  0.27684225  0.12474167  0.81616735  1.0
  Ni  Ni334  1  0.27684225  0.45807500  0.81616735  1.0
  Ni  Ni335  1  0.27684225  0.79140833  0.81616735  1.0
  Ni  Ni336  1  0.61017559  0.12474167  0.81616735  1.0
  Ni  Ni337  1  0.61017559  0.45807500  0.81616735  1.0
  Ni  Ni338  1  0.61017559  0.79140833  0.81616735  1.0
  Ni  Ni339  1  0.94350892  0.12474167  0.81616735  1.0
  Ni  Ni340  1  0.94350892  0.45807500  0.81616735  1.0
  Ni  Ni341  1  0.94350892  0.79140833  0.81616735  1.0
  Ni  Ni342  1  0.17907049  0.29202833  0.75738029  1.0
  Ni  Ni343  1  0.17907049  0.62536167  0.75738029  1.0
  Ni  Ni344  1  0.17907049  0.95869500  0.75738029  1.0
  Ni  Ni345  1  0.51240382  0.29202833  0.75738029  1.0
  Ni  Ni346  1  0.51240382  0.62536167  0.75738029  1.0
  Ni  Ni347  1  0.51240382  0.95869500  0.75738029  1.0
  Ni  Ni348  1  0.84573716  0.29202833  0.75738029  1.0
  Ni  Ni349  1  0.84573716  0.62536167  0.75738029  1.0
  Ni  Ni350  1  0.84573716  0.95869500  0.75738029  1.0
  Ni  Ni351  1  0.29671755  0.29202833  0.72796853  1.0
  Ni  Ni352  1  0.29671755  0.62536167  0.72796853  1.0
  Ni  Ni353  1  0.29671755  0.95869500  0.72796853  1.0
  Ni  Ni354  1  0.63005088  0.29202833  0.72796853  1.0
  Ni  Ni355  1  0.63005088  0.62536167  0.72796853  1.0
  Ni  Ni356  1  0.63005088  0.95869500  0.72796853  1.0
  Ni  Ni357  1  0.96338422  0.29202833  0.72796853  1.0
  Ni  Ni358  1  0.96338422  0.62536167  0.72796853  1.0
  Ni  Ni359  1  0.96338422  0.95869500  0.72796853  1.0
  Ni  Ni360  1  0.18874069  0.20838500  0.71324441  1.0
  Ni  Ni361  1  0.18874069  0.54171833  0.71324441  1.0
  Ni  Ni362  1  0.18874069  0.87505167  0.71324441  1.0
  Ni  Ni363  1  0.52207402  0.20838500  0.71324441  1.0
  Ni  Ni364  1  0.52207402  0.54171833  0.71324441  1.0
  Ni  Ni365  1  0.52207402  0.87505167  0.71324441  1.0
  Ni  Ni366  1  0.85540735  0.20838500  0.71324441  1.0
  Ni  Ni367  1  0.85540735  0.54171833  0.71324441  1.0
  Ni  Ni368  1  0.85540735  0.87505167  0.71324441  1.0
  Ni  Ni369  1  0.07109363  0.20838500  0.74265618  1.0
  Ni  Ni370  1  0.07109363  0.54171833  0.74265618  1.0
  Ni  Ni371  1  0.07109363  0.87505167  0.74265618  1.0
  Ni  Ni372  1  0.40442696  0.20838500  0.74265618  1.0
  Ni  Ni373  1  0.40442696  0.54171833  0.74265618  1.0
  Ni  Ni374  1  0.40442696  0.87505167  0.74265618  1.0
  Ni  Ni375  1  0.73776029  0.20838500  0.74265618  1.0
  Ni  Ni376  1  0.73776029  0.54171833  0.74265618  1.0
  Ni  Ni377  1  0.73776029  0.87505167  0.74265618  1.0
  Ni  Ni378  1  0.29645010  0.12474167  0.72793206  1.0
  Ni  Ni379  1  0.29645010  0.45807500  0.72793206  1.0
  Ni  Ni380  1  0.29645010  0.79140833  0.72793206  1.0
  Ni  Ni381  1  0.62978343  0.12474167  0.72793206  1.0
  Ni  Ni382  1  0.62978343  0.45807500  0.72793206  1.0
  Ni  Ni383  1  0.62978343  0.79140833  0.72793206  1.0
  Ni  Ni384  1  0.96311676  0.12474167  0.72793206  1.0
  Ni  Ni385  1  0.96311676  0.45807500  0.72793206  1.0
  Ni  Ni386  1  0.96311676  0.79140833  0.72793206  1.0
  Ni  Ni387  1  0.17880304  0.12474167  0.75734382  1.0
  Ni  Ni388  1  0.17880304  0.45807500  0.75734382  1.0
  Ni  Ni389  1  0.17880304  0.79140833  0.75734382  1.0
  Ni  Ni390  1  0.51213637  0.12474167  0.75734382  1.0
  Ni  Ni391  1  0.51213637  0.45807500  0.75734382  1.0
  Ni  Ni392  1  0.51213637  0.79140833  0.75734382  1.0
  Ni  Ni393  1  0.84546971  0.12474167  0.75734382  1.0
  Ni  Ni394  1  0.84546971  0.45807500  0.75734382  1.0
  Ni  Ni395  1  0.84546971  0.79140833  0.75734382  1.0
  Ni  Ni396  1  0.08103127  0.29202833  0.69855676  1.0
  Ni  Ni397  1  0.08103127  0.62536167  0.69855676  1.0
  Ni  Ni398  1  0.08103127  0.95869500  0.69855676  1.0
  Ni  Ni399  1  0.41436461  0.29202833  0.69855676  1.0
  Ni  Ni400  1  0.41436461  0.62536167  0.69855676  1.0
  Ni  Ni401  1  0.41436461  0.95869500  0.69855676  1.0
  Ni  Ni402  1  0.74769794  0.29202833  0.69855676  1.0
  Ni  Ni403  1  0.74769794  0.62536167  0.69855676  1.0
  Ni  Ni404  1  0.74769794  0.95869500  0.69855676  1.0
  Ni  Ni405  1  0.19867833  0.29202833  0.66914500  1.0
  Ni  Ni406  1  0.19867833  0.62536167  0.66914500  1.0
  Ni  Ni407  1  0.19867833  0.95869500  0.66914500  1.0
  Ni  Ni408  1  0.53201167  0.29202833  0.66914500  1.0
  Ni  Ni409  1  0.53201167  0.62536167  0.66914500  1.0
  Ni  Ni410  1  0.53201167  0.95869500  0.66914500  1.0
  Ni  Ni411  1  0.86534500  0.29202833  0.66914500  1.0
  Ni  Ni412  1  0.86534500  0.62536167  0.66914500  1.0
  Ni  Ni413  1  0.86534500  0.95869500  0.66914500  1.0
  Ni  Ni414  1  0.09070147  0.20838500  0.65442088  1.0
  Ni  Ni415  1  0.09070147  0.54171833  0.65442088  1.0
  Ni  Ni416  1  0.09070147  0.87505167  0.65442088  1.0
  Ni  Ni417  1  0.42403480  0.20838500  0.65442088  1.0
  Ni  Ni418  1  0.42403480  0.54171833  0.65442088  1.0
  Ni  Ni419  1  0.42403480  0.87505167  0.65442088  1.0
  Ni  Ni420  1  0.75736814  0.20838500  0.65442088  1.0
  Ni  Ni421  1  0.75736814  0.54171833  0.65442088  1.0
  Ni  Ni422  1  0.75736814  0.87505167  0.65442088  1.0
  Ni  Ni423  1  0.30638775  0.20838500  0.68383265  1.0
  Ni  Ni424  1  0.30638775  0.54171833  0.68383265  1.0
  Ni  Ni425  1  0.30638775  0.87505167  0.68383265  1.0
  Ni  Ni426  1  0.63972108  0.20838500  0.68383265  1.0
  Ni  Ni427  1  0.63972108  0.54171833  0.68383265  1.0
  Ni  Ni428  1  0.63972108  0.87505167  0.68383265  1.0
  Ni  Ni429  1  0.97305441  0.20838500  0.68383265  1.0
  Ni  Ni430  1  0.97305441  0.54171833  0.68383265  1.0
  Ni  Ni431  1  0.97305441  0.87505167  0.68383265  1.0
  Ni  Ni432  1  0.19841088  0.12474167  0.66910853  1.0
  Ni  Ni433  1  0.19841088  0.45807500  0.66910853  1.0
  Ni  Ni434  1  0.19841088  0.79140833  0.66910853  1.0
  Ni  Ni435  1  0.53174422  0.12474167  0.66910853  1.0
  Ni  Ni436  1  0.53174422  0.45807500  0.66910853  1.0
  Ni  Ni437  1  0.53174422  0.79140833  0.66910853  1.0
  Ni  Ni438  1  0.86507755  0.12474167  0.66910853  1.0
  Ni  Ni439  1  0.86507755  0.45807500  0.66910853  1.0
  Ni  Ni440  1  0.86507755  0.79140833  0.66910853  1.0
  Ni  Ni441  1  0.08076382  0.12474167  0.69852029  1.0
  Ni  Ni442  1  0.08076382  0.45807500  0.69852029  1.0
  Ni  Ni443  1  0.08076382  0.79140833  0.69852029  1.0
  Ni  Ni444  1  0.41409716  0.12474167  0.69852029  1.0
  Ni  Ni445  1  0.41409716  0.45807500  0.69852029  1.0
  Ni  Ni446  1  0.41409716  0.79140833  0.69852029  1.0
  Ni  Ni447  1  0.74743049  0.12474167  0.69852029  1.0
  Ni  Ni448  1  0.74743049  0.45807500  0.69852029  1.0
  Ni  Ni449  1  0.74743049  0.79140833  0.69852029  1.0
  Ni  Ni450  1  0.31632539  0.29202833  0.63973324  1.0
  Ni  Ni451  1  0.31632539  0.62536167  0.63973324  1.0
  Ni  Ni452  1  0.31632539  0.95869500  0.63973324  1.0
  Ni  Ni453  1  0.64965873  0.29202833  0.63973324  1.0
  Ni  Ni454  1  0.64965873  0.62536167  0.63973324  1.0
  Ni  Ni455  1  0.64965873  0.95869500  0.63973324  1.0
  Ni  Ni456  1  0.98299206  0.29202833  0.63973324  1.0
  Ni  Ni457  1  0.98299206  0.62536167  0.63973324  1.0
  Ni  Ni458  1  0.98299206  0.95869500  0.63973324  1.0
  Ni  Ni459  1  0.10063912  0.29202833  0.61032147  1.0
  Ni  Ni460  1  0.10063912  0.62536167  0.61032147  1.0
  Ni  Ni461  1  0.10063912  0.95869500  0.61032147  1.0
  Ni  Ni462  1  0.43397245  0.29202833  0.61032147  1.0
  Ni  Ni463  1  0.43397245  0.62536167  0.61032147  1.0
  Ni  Ni464  1  0.43397245  0.95869500  0.61032147  1.0
  Ni  Ni465  1  0.76730578  0.29202833  0.61032147  1.0
  Ni  Ni466  1  0.76730578  0.62536167  0.61032147  1.0
  Ni  Ni467  1  0.76730578  0.95869500  0.61032147  1.0
  Ni  Ni468  1  0.32599559  0.20838500  0.59559735  1.0
  Ni  Ni469  1  0.32599559  0.54171833  0.59559735  1.0
  Ni  Ni470  1  0.32599559  0.87505167  0.59559735  1.0
  Ni  Ni471  1  0.65932892  0.20838500  0.59559735  1.0
  Ni  Ni472  1  0.65932892  0.54171833  0.59559735  1.0
  Ni  Ni473  1  0.65932892  0.87505167  0.59559735  1.0
  Ni  Ni474  1  0.99266225  0.20838500  0.59559735  1.0
  Ni  Ni475  1  0.99266225  0.54171833  0.59559735  1.0
  Ni  Ni476  1  0.99266225  0.87505167  0.59559735  1.0
  Ni  Ni477  1  0.20834853  0.20838500  0.62500912  1.0
  Ni  Ni478  1  0.20834853  0.54171833  0.62500912  1.0
  Ni  Ni479  1  0.20834853  0.87505167  0.62500912  1.0
  Ni  Ni480  1  0.54168186  0.20838500  0.62500912  1.0
  Ni  Ni481  1  0.54168186  0.54171833  0.62500912  1.0
  Ni  Ni482  1  0.54168186  0.87505167  0.62500912  1.0
  Ni  Ni483  1  0.87501520  0.20838500  0.62500912  1.0
  Ni  Ni484  1  0.87501520  0.54171833  0.62500912  1.0
  Ni  Ni485  1  0.87501520  0.87505167  0.62500912  1.0
  Ni  Ni486  1  0.10037167  0.12474167  0.61028500  1.0
  Ni  Ni487  1  0.10037167  0.45807500  0.61028500  1.0
  Ni  Ni488  1  0.10037167  0.79140833  0.61028500  1.0
  Ni  Ni489  1  0.43370500  0.12474167  0.61028500  1.0
  Ni  Ni490  1  0.43370500  0.45807500  0.61028500  1.0
  Ni  Ni491  1  0.43370500  0.79140833  0.61028500  1.0
  Ni  Ni492  1  0.76703833  0.12474167  0.61028500  1.0
  Ni  Ni493  1  0.76703833  0.45807500  0.61028500  1.0
  Ni  Ni494  1  0.76703833  0.79140833  0.61028500  1.0
  Ni  Ni495  1  0.31605794  0.12474167  0.63969676  1.0
  Ni  Ni496  1  0.31605794  0.45807500  0.63969676  1.0
  Ni  Ni497  1  0.31605794  0.79140833  0.63969676  1.0
  Ni  Ni498  1  0.64939127  0.12474167  0.63969676  1.0
  Ni  Ni499  1  0.64939127  0.45807500  0.63969676  1.0
  Ni  Ni500  1  0.64939127  0.79140833  0.63969676  1.0
  Ni  Ni501  1  0.98272461  0.12474167  0.63969676  1.0
  Ni  Ni502  1  0.98272461  0.45807500  0.63969676  1.0
  Ni  Ni503  1  0.98272461  0.79140833  0.63969676  1.0
