# generated using pymatgen
data_FeNi2
_symmetry_space_group_name_H-M   'P 1'
_cell_length_a   19.65047400
_cell_length_b   24.06681725
_cell_length_c   29.29319710
_cell_angle_alpha   90.00000000
_cell_angle_beta   90.00000000
_cell_angle_gamma   114.09484255
_symmetry_Int_Tables_number   1
_chemical_formula_structural   FeNi2
_chemical_formula_sum   'Fe144 Ni288'
_cell_volume   12646.42701032
_cell_formula_units_Z   144
loop_
 _symmetry_equiv_pos_site_id
 _symmetry_equiv_pos_as_xyz
  1  'x, y, z'
loop_
 _atom_site_type_symbol
 _atom_site_label
 _atom_site_symmetry_multiplicity
 _atom_site_fract_x
 _atom_site_fract_y
 _atom_site_fract_z
 _atom_site_occupancy
  Fe  Fe0  1  0.22083333  0.29583333  0.06875000  1.0
  Fe  Fe1  1  0.22083333  0.62916667  0.06875000  1.0
  Fe  Fe2  1  0.22083333  0.96250000  0.06875000  1.0
  Fe  Fe3  1  0.55416667  0.29583333  0.06875000  1.0
  Fe  Fe4  1  0.55416667  0.62916667  0.06875000  1.0
  Fe  Fe5  1  0.55416667  0.96250000  0.06875000  1.0
  Fe  Fe6  1  0.88750000  0.29583333  0.06875000  1.0
  Fe  Fe7  1  0.88750000  0.62916667  0.06875000  1.0
  Fe  Fe8  1  0.88750000  0.96250000  0.06875000  1.0
  Fe  Fe9  1  0.12083333  0.09583333  0.01875000  1.0
  Fe  Fe10  1  0.12083333  0.42916667  0.01875000  1.0
  Fe  Fe11  1  0.12083333  0.76250000  0.01875000  1.0
  Fe  Fe12  1  0.45416667  0.09583333  0.01875000  1.0
  Fe  Fe13  1  0.45416667  0.42916667  0.01875000  1.0
  Fe  Fe14  1  0.45416667  0.76250000  0.01875000  1.0
  Fe  Fe15  1  0.78750000  0.09583333  0.01875000  1.0
  Fe  Fe16  1  0.78750000  0.42916667  0.01875000  1.0
  Fe  Fe17  1  0.78750000  0.76250000  0.01875000  1.0
  Fe  Fe18  1  0.02083333  0.06250000  0.09375000  1.0
  Fe  Fe19  1  0.02083333  0.39583333  0.09375000  1.0
  Fe  Fe20  1  0.02083333  0.72916667  0.09375000  1.0
  Fe  Fe21  1  0.35416667  0.06250000  0.09375000  1.0
  Fe  Fe22  1  0.35416667  0.39583333  0.09375000  1.0
  Fe  Fe23  1  0.35416667  0.72916667  0.09375000  1.0
  Fe  Fe24  1  0.68750000  0.06250000  0.09375000  1.0
  Fe  Fe25  1  0.68750000  0.39583333  0.09375000  1.0
  Fe  Fe26  1  0.68750000  0.72916667  0.09375000  1.0
  Fe  Fe27  1  0.25416667  0.19583333  0.04375000  1.0
  Fe  Fe28  1  0.25416667  0.52916667  0.04375000  1.0
  Fe  Fe29  1  0.25416667  0.86250000  0.04375000  1.0
  Fe  Fe30  1  0.58750000  0.19583333  0.04375000  1.0
  Fe  Fe31  1  0.58750000  0.52916667  0.04375000  1.0
  Fe  Fe32  1  0.58750000  0.86250000  0.04375000  1.0
  Fe  Fe33  1  0.92083333  0.19583333  0.04375000  1.0
  Fe  Fe34  1  0.92083333  0.52916667  0.04375000  1.0
  Fe  Fe35  1  0.92083333  0.86250000  0.04375000  1.0
  Fe  Fe36  1  0.08750000  0.02916667  0.16875000  1.0
  Fe  Fe37  1  0.08750000  0.36250000  0.16875000  1.0
  Fe  Fe38  1  0.08750000  0.69583333  0.16875000  1.0
  Fe  Fe39  1  0.42083333  0.02916667  0.16875000  1.0
  Fe  Fe40  1  0.42083333  0.36250000  0.16875000  1.0
  Fe  Fe41  1  0.42083333  0.69583333  0.16875000  1.0
  Fe  Fe42  1  0.75416667  0.02916667  0.16875000  1.0
  Fe  Fe43  1  0.75416667  0.36250000  0.16875000  1.0
  Fe  Fe44  1  0.75416667  0.69583333  0.16875000  1.0
  Fe  Fe45  1  0.32083333  0.16250000  0.11875000  1.0
  Fe  Fe46  1  0.32083333  0.49583333  0.11875000  1.0
  Fe  Fe47  1  0.32083333  0.82916667  0.11875000  1.0
  Fe  Fe48  1  0.65416667  0.16250000  0.11875000  1.0
  Fe  Fe49  1  0.65416667  0.49583333  0.11875000  1.0
  Fe  Fe50  1  0.65416667  0.82916667  0.11875000  1.0
  Fe  Fe51  1  0.98750000  0.16250000  0.11875000  1.0
  Fe  Fe52  1  0.98750000  0.49583333  0.11875000  1.0
  Fe  Fe53  1  0.98750000  0.82916667  0.11875000  1.0
  Fe  Fe54  1  0.22083333  0.12916667  0.19375000  1.0
  Fe  Fe55  1  0.22083333  0.46250000  0.19375000  1.0
  Fe  Fe56  1  0.22083333  0.79583333  0.19375000  1.0
  Fe  Fe57  1  0.55416667  0.12916667  0.19375000  1.0
  Fe  Fe58  1  0.55416667  0.46250000  0.19375000  1.0
  Fe  Fe59  1  0.55416667  0.79583333  0.19375000  1.0
  Fe  Fe60  1  0.88750000  0.12916667  0.19375000  1.0
  Fe  Fe61  1  0.88750000  0.46250000  0.19375000  1.0
  Fe  Fe62  1  0.88750000  0.79583333  0.19375000  1.0
  Fe  Fe63  1  0.12083333  0.26250000  0.14375000  1.0
  Fe  Fe64  1  0.12083333  0.59583333  0.14375000  1.0
  Fe  Fe65  1  0.12083333  0.92916667  0.14375000  1.0
  Fe  Fe66  1  0.45416667  0.26250000  0.14375000  1.0
  Fe  Fe67  1  0.45416667  0.59583333  0.14375000  1.0
  Fe  Fe68  1  0.45416667  0.92916667  0.14375000  1.0
  Fe  Fe69  1  0.78750000  0.26250000  0.14375000  1.0
  Fe  Fe70  1  0.78750000  0.59583333  0.14375000  1.0
  Fe  Fe71  1  0.78750000  0.92916667  0.14375000  1.0
  Fe  Fe72  1  0.28750000  0.09583333  0.26875000  1.0
  Fe  Fe73  1  0.28750000  0.42916667  0.26875000  1.0
  Fe  Fe74  1  0.28750000  0.76250000  0.26875000  1.0
  Fe  Fe75  1  0.62083333  0.09583333  0.26875000  1.0
  Fe  Fe76  1  0.62083333  0.42916667  0.26875000  1.0
  Fe  Fe77  1  0.62083333  0.76250000  0.26875000  1.0
  Fe  Fe78  1  0.95416667  0.09583333  0.26875000  1.0
  Fe  Fe79  1  0.95416667  0.42916667  0.26875000  1.0
  Fe  Fe80  1  0.95416667  0.76250000  0.26875000  1.0
  Fe  Fe81  1  0.18750000  0.22916667  0.21875000  1.0
  Fe  Fe82  1  0.18750000  0.56250000  0.21875000  1.0
  Fe  Fe83  1  0.18750000  0.89583333  0.21875000  1.0
  Fe  Fe84  1  0.52083333  0.22916667  0.21875000  1.0
  Fe  Fe85  1  0.52083333  0.56250000  0.21875000  1.0
  Fe  Fe86  1  0.52083333  0.89583333  0.21875000  1.0
  Fe  Fe87  1  0.85416667  0.22916667  0.21875000  1.0
  Fe  Fe88  1  0.85416667  0.56250000  0.21875000  1.0
  Fe  Fe89  1  0.85416667  0.89583333  0.21875000  1.0
  Fe  Fe90  1  0.08750000  0.19583333  0.29375000  1.0
  Fe  Fe91  1  0.08750000  0.52916667  0.29375000  1.0
  Fe  Fe92  1  0.08750000  0.86250000  0.29375000  1.0
  Fe  Fe93  1  0.42083333  0.19583333  0.29375000  1.0
  Fe  Fe94  1  0.42083333  0.52916667  0.29375000  1.0
  Fe  Fe95  1  0.42083333  0.86250000  0.29375000  1.0
  Fe  Fe96  1  0.75416667  0.19583333  0.29375000  1.0
  Fe  Fe97  1  0.75416667  0.52916667  0.29375000  1.0
  Fe  Fe98  1  0.75416667  0.86250000  0.29375000  1.0
  Fe  Fe99  1  0.32083333  0.32916667  0.24375000  1.0
  Fe  Fe100  1  0.32083333  0.66250000  0.24375000  1.0
  Fe  Fe101  1  0.32083333  0.99583333  0.24375000  1.0
  Fe  Fe102  1  0.65416667  0.32916667  0.24375000  1.0
  Fe  Fe103  1  0.65416667  0.66250000  0.24375000  1.0
  Fe  Fe104  1  0.65416667  0.99583333  0.24375000  1.0
  Fe  Fe105  1  0.98750000  0.32916667  0.24375000  1.0
  Fe  Fe106  1  0.98750000  0.66250000  0.24375000  1.0
  Fe  Fe107  1  0.98750000  0.99583333  0.24375000  1.0
  Fe  Fe108  1  0.15416667  0.16250000  0.36875000  1.0
  Fe  Fe109  1  0.15416667  0.49583333  0.36875000  1.0
  Fe  Fe110  1  0.15416667  0.82916667  0.36875000  1.0
  Fe  Fe111  1  0.48750000  0.16250000  0.36875000  1.0
  Fe  Fe112  1  0.48750000  0.49583333  0.36875000  1.0
  Fe  Fe113  1  0.48750000  0.82916667  0.36875000  1.0
  Fe  Fe114  1  0.82083333  0.16250000  0.36875000  1.0
  Fe  Fe115  1  0.82083333  0.49583333  0.36875000  1.0
  Fe  Fe116  1  0.82083333  0.82916667  0.36875000  1.0
  Fe  Fe117  1  0.05416667  0.29583333  0.31875000  1.0
  Fe  Fe118  1  0.05416667  0.62916667  0.31875000  1.0
  Fe  Fe119  1  0.05416667  0.96250000  0.31875000  1.0
  Fe  Fe120  1  0.38750000  0.29583333  0.31875000  1.0
  Fe  Fe121  1  0.38750000  0.62916667  0.31875000  1.0
  Fe  Fe122  1  0.38750000  0.96250000  0.31875000  1.0
  Fe  Fe123  1  0.72083333  0.29583333  0.31875000  1.0
  Fe  Fe124  1  0.72083333  0.62916667  0.31875000  1.0
  Fe  Fe125  1  0.72083333  0.96250000  0.31875000  1.0
  Fe  Fe126  1  0.28750000  0.26250000  0.39375000  1.0
  Fe  Fe127  1  0.28750000  0.59583333  0.39375000  1.0
  Fe  Fe128  1  0.28750000  0.92916667  0.39375000  1.0
  Fe  Fe129  1  0.62083333  0.26250000  0.39375000  1.0
  Fe  Fe130  1  0.62083333  0.59583333  0.39375000  1.0
  Fe  Fe131  1  0.62083333  0.92916667  0.39375000  1.0
  Fe  Fe132  1  0.95416667  0.26250000  0.39375000  1.0
  Fe  Fe133  1  0.95416667  0.59583333  0.39375000  1.0
  Fe  Fe134  1  0.95416667  0.92916667  0.39375000  1.0
  Fe  Fe135  1  0.18750000  0.06250000  0.34375000  1.0
  Fe  Fe136  1  0.18750000  0.39583333  0.34375000  1.0
  Fe  Fe137  1  0.18750000  0.72916667  0.34375000  1.0
  Fe  Fe138  1  0.52083333  0.06250000  0.34375000  1.0
  Fe  Fe139  1  0.52083333  0.39583333  0.34375000  1.0
  Fe  Fe140  1  0.52083333  0.72916667  0.34375000  1.0
  Fe  Fe141  1  0.85416667  0.06250000  0.34375000  1.0
  Fe  Fe142  1  0.85416667  0.39583333  0.34375000  1.0
  Fe  Fe143  1  0.85416667  0.72916667  0.34375000  1.0
  Ni  Ni144  1  0.23750000  0.07916667  0.05625000  1.0
  Ni  Ni145  1  0.23750000  0.41250000  0.05625000  1.0
  Ni  Ni146  1  0.23750000  0.74583333  0.05625000  1.0
  Ni  Ni147  1  0.57083333  0.07916667  0.05625000  1.0
  Ni  Ni148  1  0.57083333  0.41250000  0.05625000  1.0
  Ni  Ni149  1  0.57083333  0.74583333  0.05625000  1.0
  Ni  Ni150  1  0.90416667  0.07916667  0.05625000  1.0
  Ni  Ni151  1  0.90416667  0.41250000  0.05625000  1.0
  Ni  Ni152  1  0.90416667  0.74583333  0.05625000  1.0
  Ni  Ni153  1  0.13750000  0.21250000  0.00625000  1.0
  Ni  Ni154  1  0.13750000  0.54583333  0.00625000  1.0
  Ni  Ni155  1  0.13750000  0.87916667  0.00625000  1.0
  Ni  Ni156  1  0.47083333  0.21250000  0.00625000  1.0
  Ni  Ni157  1  0.47083333  0.54583333  0.00625000  1.0
  Ni  Ni158  1  0.47083333  0.87916667  0.00625000  1.0
  Ni  Ni159  1  0.80416667  0.21250000  0.00625000  1.0
  Ni  Ni160  1  0.80416667  0.54583333  0.00625000  1.0
  Ni  Ni161  1  0.80416667  0.87916667  0.00625000  1.0
  Ni  Ni162  1  0.30416667  0.04583333  0.00625000  1.0
  Ni  Ni163  1  0.30416667  0.37916667  0.00625000  1.0
  Ni  Ni164  1  0.30416667  0.71250000  0.00625000  1.0
  Ni  Ni165  1  0.63750000  0.04583333  0.00625000  1.0
  Ni  Ni166  1  0.63750000  0.37916667  0.00625000  1.0
  Ni  Ni167  1  0.63750000  0.71250000  0.00625000  1.0
  Ni  Ni168  1  0.97083333  0.04583333  0.00625000  1.0
  Ni  Ni169  1  0.97083333  0.37916667  0.00625000  1.0
  Ni  Ni170  1  0.97083333  0.71250000  0.00625000  1.0
  Ni  Ni171  1  0.07083333  0.24583333  0.05625000  1.0
  Ni  Ni172  1  0.07083333  0.57916667  0.05625000  1.0
  Ni  Ni173  1  0.07083333  0.91250000  0.05625000  1.0
  Ni  Ni174  1  0.40416667  0.24583333  0.05625000  1.0
  Ni  Ni175  1  0.40416667  0.57916667  0.05625000  1.0
  Ni  Ni176  1  0.40416667  0.91250000  0.05625000  1.0
  Ni  Ni177  1  0.73750000  0.24583333  0.05625000  1.0
  Ni  Ni178  1  0.73750000  0.57916667  0.05625000  1.0
  Ni  Ni179  1  0.73750000  0.91250000  0.05625000  1.0
  Ni  Ni180  1  0.12083333  0.17916667  0.08125000  1.0
  Ni  Ni181  1  0.12083333  0.51250000  0.08125000  1.0
  Ni  Ni182  1  0.12083333  0.84583333  0.08125000  1.0
  Ni  Ni183  1  0.45416667  0.17916667  0.08125000  1.0
  Ni  Ni184  1  0.45416667  0.51250000  0.08125000  1.0
  Ni  Ni185  1  0.45416667  0.84583333  0.08125000  1.0
  Ni  Ni186  1  0.78750000  0.17916667  0.08125000  1.0
  Ni  Ni187  1  0.78750000  0.51250000  0.08125000  1.0
  Ni  Ni188  1  0.78750000  0.84583333  0.08125000  1.0
  Ni  Ni189  1  0.02083333  0.31250000  0.03125000  1.0
  Ni  Ni190  1  0.02083333  0.64583333  0.03125000  1.0
  Ni  Ni191  1  0.02083333  0.97916667  0.03125000  1.0
  Ni  Ni192  1  0.35416667  0.31250000  0.03125000  1.0
  Ni  Ni193  1  0.35416667  0.64583333  0.03125000  1.0
  Ni  Ni194  1  0.35416667  0.97916667  0.03125000  1.0
  Ni  Ni195  1  0.68750000  0.31250000  0.03125000  1.0
  Ni  Ni196  1  0.68750000  0.64583333  0.03125000  1.0
  Ni  Ni197  1  0.68750000  0.97916667  0.03125000  1.0
  Ni  Ni198  1  0.02083333  0.14583333  0.03125000  1.0
  Ni  Ni199  1  0.02083333  0.47916667  0.03125000  1.0
  Ni  Ni200  1  0.02083333  0.81250000  0.03125000  1.0
  Ni  Ni201  1  0.35416667  0.14583333  0.03125000  1.0
  Ni  Ni202  1  0.35416667  0.47916667  0.03125000  1.0
  Ni  Ni203  1  0.35416667  0.81250000  0.03125000  1.0
  Ni  Ni204  1  0.68750000  0.14583333  0.03125000  1.0
  Ni  Ni205  1  0.68750000  0.47916667  0.03125000  1.0
  Ni  Ni206  1  0.68750000  0.81250000  0.03125000  1.0
  Ni  Ni207  1  0.12083333  0.01250000  0.08125000  1.0
  Ni  Ni208  1  0.12083333  0.34583333  0.08125000  1.0
  Ni  Ni209  1  0.12083333  0.67916667  0.08125000  1.0
  Ni  Ni210  1  0.45416667  0.01250000  0.08125000  1.0
  Ni  Ni211  1  0.45416667  0.34583333  0.08125000  1.0
  Ni  Ni212  1  0.45416667  0.67916667  0.08125000  1.0
  Ni  Ni213  1  0.78750000  0.01250000  0.08125000  1.0
  Ni  Ni214  1  0.78750000  0.34583333  0.08125000  1.0
  Ni  Ni215  1  0.78750000  0.67916667  0.08125000  1.0
  Ni  Ni216  1  0.10416667  0.14583333  0.15625000  1.0
  Ni  Ni217  1  0.10416667  0.47916667  0.15625000  1.0
  Ni  Ni218  1  0.10416667  0.81250000  0.15625000  1.0
  Ni  Ni219  1  0.43750000  0.14583333  0.15625000  1.0
  Ni  Ni220  1  0.43750000  0.47916667  0.15625000  1.0
  Ni  Ni221  1  0.43750000  0.81250000  0.15625000  1.0
  Ni  Ni222  1  0.77083333  0.14583333  0.15625000  1.0
  Ni  Ni223  1  0.77083333  0.47916667  0.15625000  1.0
  Ni  Ni224  1  0.77083333  0.81250000  0.15625000  1.0
  Ni  Ni225  1  0.00416667  0.27916667  0.10625000  1.0
  Ni  Ni226  1  0.00416667  0.61250000  0.10625000  1.0
  Ni  Ni227  1  0.00416667  0.94583333  0.10625000  1.0
  Ni  Ni228  1  0.33750000  0.27916667  0.10625000  1.0
  Ni  Ni229  1  0.33750000  0.61250000  0.10625000  1.0
  Ni  Ni230  1  0.33750000  0.94583333  0.10625000  1.0
  Ni  Ni231  1  0.67083333  0.27916667  0.10625000  1.0
  Ni  Ni232  1  0.67083333  0.61250000  0.10625000  1.0
  Ni  Ni233  1  0.67083333  0.94583333  0.10625000  1.0
  Ni  Ni234  1  0.17083333  0.11250000  0.10625000  1.0
  Ni  Ni235  1  0.17083333  0.44583333  0.10625000  1.0
  Ni  Ni236  1  0.17083333  0.77916667  0.10625000  1.0
  Ni  Ni237  1  0.50416667  0.11250000  0.10625000  1.0
  Ni  Ni238  1  0.50416667  0.44583333  0.10625000  1.0
  Ni  Ni239  1  0.50416667  0.77916667  0.10625000  1.0
  Ni  Ni240  1  0.83750000  0.11250000  0.10625000  1.0
  Ni  Ni241  1  0.83750000  0.44583333  0.10625000  1.0
  Ni  Ni242  1  0.83750000  0.77916667  0.10625000  1.0
  Ni  Ni243  1  0.27083333  0.31250000  0.15625000  1.0
  Ni  Ni244  1  0.27083333  0.64583333  0.15625000  1.0
  Ni  Ni245  1  0.27083333  0.97916667  0.15625000  1.0
  Ni  Ni246  1  0.60416667  0.31250000  0.15625000  1.0
  Ni  Ni247  1  0.60416667  0.64583333  0.15625000  1.0
  Ni  Ni248  1  0.60416667  0.97916667  0.15625000  1.0
  Ni  Ni249  1  0.93750000  0.31250000  0.15625000  1.0
  Ni  Ni250  1  0.93750000  0.64583333  0.15625000  1.0
  Ni  Ni251  1  0.93750000  0.97916667  0.15625000  1.0
  Ni  Ni252  1  0.32083333  0.24583333  0.18125000  1.0
  Ni  Ni253  1  0.32083333  0.57916667  0.18125000  1.0
  Ni  Ni254  1  0.32083333  0.91250000  0.18125000  1.0
  Ni  Ni255  1  0.65416667  0.24583333  0.18125000  1.0
  Ni  Ni256  1  0.65416667  0.57916667  0.18125000  1.0
  Ni  Ni257  1  0.65416667  0.91250000  0.18125000  1.0
  Ni  Ni258  1  0.98750000  0.24583333  0.18125000  1.0
  Ni  Ni259  1  0.98750000  0.57916667  0.18125000  1.0
  Ni  Ni260  1  0.98750000  0.91250000  0.18125000  1.0
  Ni  Ni261  1  0.22083333  0.04583333  0.13125000  1.0
  Ni  Ni262  1  0.22083333  0.37916667  0.13125000  1.0
  Ni  Ni263  1  0.22083333  0.71250000  0.13125000  1.0
  Ni  Ni264  1  0.55416667  0.04583333  0.13125000  1.0
  Ni  Ni265  1  0.55416667  0.37916667  0.13125000  1.0
  Ni  Ni266  1  0.55416667  0.71250000  0.13125000  1.0
  Ni  Ni267  1  0.88750000  0.04583333  0.13125000  1.0
  Ni  Ni268  1  0.88750000  0.37916667  0.13125000  1.0
  Ni  Ni269  1  0.88750000  0.71250000  0.13125000  1.0
  Ni  Ni270  1  0.22083333  0.21250000  0.13125000  1.0
  Ni  Ni271  1  0.22083333  0.54583333  0.13125000  1.0
  Ni  Ni272  1  0.22083333  0.87916667  0.13125000  1.0
  Ni  Ni273  1  0.55416667  0.21250000  0.13125000  1.0
  Ni  Ni274  1  0.55416667  0.54583333  0.13125000  1.0
  Ni  Ni275  1  0.55416667  0.87916667  0.13125000  1.0
  Ni  Ni276  1  0.88750000  0.21250000  0.13125000  1.0
  Ni  Ni277  1  0.88750000  0.54583333  0.13125000  1.0
  Ni  Ni278  1  0.88750000  0.87916667  0.13125000  1.0
  Ni  Ni279  1  0.32083333  0.07916667  0.18125000  1.0
  Ni  Ni280  1  0.32083333  0.41250000  0.18125000  1.0
  Ni  Ni281  1  0.32083333  0.74583333  0.18125000  1.0
  Ni  Ni282  1  0.65416667  0.07916667  0.18125000  1.0
  Ni  Ni283  1  0.65416667  0.41250000  0.18125000  1.0
  Ni  Ni284  1  0.65416667  0.74583333  0.18125000  1.0
  Ni  Ni285  1  0.98750000  0.07916667  0.18125000  1.0
  Ni  Ni286  1  0.98750000  0.41250000  0.18125000  1.0
  Ni  Ni287  1  0.98750000  0.74583333  0.18125000  1.0
  Ni  Ni288  1  0.30416667  0.21250000  0.25625000  1.0
  Ni  Ni289  1  0.30416667  0.54583333  0.25625000  1.0
  Ni  Ni290  1  0.30416667  0.87916667  0.25625000  1.0
  Ni  Ni291  1  0.63750000  0.21250000  0.25625000  1.0
  Ni  Ni292  1  0.63750000  0.54583333  0.25625000  1.0
  Ni  Ni293  1  0.63750000  0.87916667  0.25625000  1.0
  Ni  Ni294  1  0.97083333  0.21250000  0.25625000  1.0
  Ni  Ni295  1  0.97083333  0.54583333  0.25625000  1.0
  Ni  Ni296  1  0.97083333  0.87916667  0.25625000  1.0
  Ni  Ni297  1  0.20416667  0.01250000  0.20625000  1.0
  Ni  Ni298  1  0.20416667  0.34583333  0.20625000  1.0
  Ni  Ni299  1  0.20416667  0.67916667  0.20625000  1.0
  Ni  Ni300  1  0.53750000  0.01250000  0.20625000  1.0
  Ni  Ni301  1  0.53750000  0.34583333  0.20625000  1.0
  Ni  Ni302  1  0.53750000  0.67916667  0.20625000  1.0
  Ni  Ni303  1  0.87083333  0.01250000  0.20625000  1.0
  Ni  Ni304  1  0.87083333  0.34583333  0.20625000  1.0
  Ni  Ni305  1  0.87083333  0.67916667  0.20625000  1.0
  Ni  Ni306  1  0.03750000  0.17916667  0.20625000  1.0
  Ni  Ni307  1  0.03750000  0.51250000  0.20625000  1.0
  Ni  Ni308  1  0.03750000  0.84583333  0.20625000  1.0
  Ni  Ni309  1  0.37083333  0.17916667  0.20625000  1.0
  Ni  Ni310  1  0.37083333  0.51250000  0.20625000  1.0
  Ni  Ni311  1  0.37083333  0.84583333  0.20625000  1.0
  Ni  Ni312  1  0.70416667  0.17916667  0.20625000  1.0
  Ni  Ni313  1  0.70416667  0.51250000  0.20625000  1.0
  Ni  Ni314  1  0.70416667  0.84583333  0.20625000  1.0
  Ni  Ni315  1  0.13750000  0.04583333  0.25625000  1.0
  Ni  Ni316  1  0.13750000  0.37916667  0.25625000  1.0
  Ni  Ni317  1  0.13750000  0.71250000  0.25625000  1.0
  Ni  Ni318  1  0.47083333  0.04583333  0.25625000  1.0
  Ni  Ni319  1  0.47083333  0.37916667  0.25625000  1.0
  Ni  Ni320  1  0.47083333  0.71250000  0.25625000  1.0
  Ni  Ni321  1  0.80416667  0.04583333  0.25625000  1.0
  Ni  Ni322  1  0.80416667  0.37916667  0.25625000  1.0
  Ni  Ni323  1  0.80416667  0.71250000  0.25625000  1.0
  Ni  Ni324  1  0.18750000  0.31250000  0.28125000  1.0
  Ni  Ni325  1  0.18750000  0.64583333  0.28125000  1.0
  Ni  Ni326  1  0.18750000  0.97916667  0.28125000  1.0
  Ni  Ni327  1  0.52083333  0.31250000  0.28125000  1.0
  Ni  Ni328  1  0.52083333  0.64583333  0.28125000  1.0
  Ni  Ni329  1  0.52083333  0.97916667  0.28125000  1.0
  Ni  Ni330  1  0.85416667  0.31250000  0.28125000  1.0
  Ni  Ni331  1  0.85416667  0.64583333  0.28125000  1.0
  Ni  Ni332  1  0.85416667  0.97916667  0.28125000  1.0
  Ni  Ni333  1  0.08750000  0.11250000  0.23125000  1.0
  Ni  Ni334  1  0.08750000  0.44583333  0.23125000  1.0
  Ni  Ni335  1  0.08750000  0.77916667  0.23125000  1.0
  Ni  Ni336  1  0.42083333  0.11250000  0.23125000  1.0
  Ni  Ni337  1  0.42083333  0.44583333  0.23125000  1.0
  Ni  Ni338  1  0.42083333  0.77916667  0.23125000  1.0
  Ni  Ni339  1  0.75416667  0.11250000  0.23125000  1.0
  Ni  Ni340  1  0.75416667  0.44583333  0.23125000  1.0
  Ni  Ni341  1  0.75416667  0.77916667  0.23125000  1.0
  Ni  Ni342  1  0.08750000  0.27916667  0.23125000  1.0
  Ni  Ni343  1  0.08750000  0.61250000  0.23125000  1.0
  Ni  Ni344  1  0.08750000  0.94583333  0.23125000  1.0
  Ni  Ni345  1  0.42083333  0.27916667  0.23125000  1.0
  Ni  Ni346  1  0.42083333  0.61250000  0.23125000  1.0
  Ni  Ni347  1  0.42083333  0.94583333  0.23125000  1.0
  Ni  Ni348  1  0.75416667  0.27916667  0.23125000  1.0
  Ni  Ni349  1  0.75416667  0.61250000  0.23125000  1.0
  Ni  Ni350  1  0.75416667  0.94583333  0.23125000  1.0
  Ni  Ni351  1  0.18750000  0.14583333  0.28125000  1.0
  Ni  Ni352  1  0.18750000  0.47916667  0.28125000  1.0
  Ni  Ni353  1  0.18750000  0.81250000  0.28125000  1.0
  Ni  Ni354  1  0.52083333  0.14583333  0.28125000  1.0
  Ni  Ni355  1  0.52083333  0.47916667  0.28125000  1.0
  Ni  Ni356  1  0.52083333  0.81250000  0.28125000  1.0
  Ni  Ni357  1  0.85416667  0.14583333  0.28125000  1.0
  Ni  Ni358  1  0.85416667  0.47916667  0.28125000  1.0
  Ni  Ni359  1  0.85416667  0.81250000  0.28125000  1.0
  Ni  Ni360  1  0.17083333  0.27916667  0.35625000  1.0
  Ni  Ni361  1  0.17083333  0.61250000  0.35625000  1.0
  Ni  Ni362  1  0.17083333  0.94583333  0.35625000  1.0
  Ni  Ni363  1  0.50416667  0.27916667  0.35625000  1.0
  Ni  Ni364  1  0.50416667  0.61250000  0.35625000  1.0
  Ni  Ni365  1  0.50416667  0.94583333  0.35625000  1.0
  Ni  Ni366  1  0.83750000  0.27916667  0.35625000  1.0
  Ni  Ni367  1  0.83750000  0.61250000  0.35625000  1.0
  Ni  Ni368  1  0.83750000  0.94583333  0.35625000  1.0
  Ni  Ni369  1  0.07083333  0.07916667  0.30625000  1.0
  Ni  Ni370  1  0.07083333  0.41250000  0.30625000  1.0
  Ni  Ni371  1  0.07083333  0.74583333  0.30625000  1.0
  Ni  Ni372  1  0.40416667  0.07916667  0.30625000  1.0
  Ni  Ni373  1  0.40416667  0.41250000  0.30625000  1.0
  Ni  Ni374  1  0.40416667  0.74583333  0.30625000  1.0
  Ni  Ni375  1  0.73750000  0.07916667  0.30625000  1.0
  Ni  Ni376  1  0.73750000  0.41250000  0.30625000  1.0
  Ni  Ni377  1  0.73750000  0.74583333  0.30625000  1.0
  Ni  Ni378  1  0.23750000  0.24583333  0.30625000  1.0
  Ni  Ni379  1  0.23750000  0.57916667  0.30625000  1.0
  Ni  Ni380  1  0.23750000  0.91250000  0.30625000  1.0
  Ni  Ni381  1  0.57083333  0.24583333  0.30625000  1.0
  Ni  Ni382  1  0.57083333  0.57916667  0.30625000  1.0
  Ni  Ni383  1  0.57083333  0.91250000  0.30625000  1.0
  Ni  Ni384  1  0.90416667  0.24583333  0.30625000  1.0
  Ni  Ni385  1  0.90416667  0.57916667  0.30625000  1.0
  Ni  Ni386  1  0.90416667  0.91250000  0.30625000  1.0
  Ni  Ni387  1  0.00416667  0.11250000  0.35625000  1.0
  Ni  Ni388  1  0.00416667  0.44583333  0.35625000  1.0
  Ni  Ni389  1  0.00416667  0.77916667  0.35625000  1.0
  Ni  Ni390  1  0.33750000  0.11250000  0.35625000  1.0
  Ni  Ni391  1  0.33750000  0.44583333  0.35625000  1.0
  Ni  Ni392  1  0.33750000  0.77916667  0.35625000  1.0
  Ni  Ni393  1  0.67083333  0.11250000  0.35625000  1.0
  Ni  Ni394  1  0.67083333  0.44583333  0.35625000  1.0
  Ni  Ni395  1  0.67083333  0.77916667  0.35625000  1.0
  Ni  Ni396  1  0.05416667  0.04583333  0.38125000  1.0
  Ni  Ni397  1  0.05416667  0.37916667  0.38125000  1.0
  Ni  Ni398  1  0.05416667  0.71250000  0.38125000  1.0
  Ni  Ni399  1  0.38750000  0.04583333  0.38125000  1.0
  Ni  Ni400  1  0.38750000  0.37916667  0.38125000  1.0
  Ni  Ni401  1  0.38750000  0.71250000  0.38125000  1.0
  Ni  Ni402  1  0.72083333  0.04583333  0.38125000  1.0
  Ni  Ni403  1  0.72083333  0.37916667  0.38125000  1.0
  Ni  Ni404  1  0.72083333  0.71250000  0.38125000  1.0
  Ni  Ni405  1  0.28750000  0.17916667  0.33125000  1.0
  Ni  Ni406  1  0.28750000  0.51250000  0.33125000  1.0
  Ni  Ni407  1  0.28750000  0.84583333  0.33125000  1.0
  Ni  Ni408  1  0.62083333  0.17916667  0.33125000  1.0
  Ni  Ni409  1  0.62083333  0.51250000  0.33125000  1.0
  Ni  Ni410  1  0.62083333  0.84583333  0.33125000  1.0
  Ni  Ni411  1  0.95416667  0.17916667  0.33125000  1.0
  Ni  Ni412  1  0.95416667  0.51250000  0.33125000  1.0
  Ni  Ni413  1  0.95416667  0.84583333  0.33125000  1.0
  Ni  Ni414  1  0.28750000  0.01250000  0.33125000  1.0
  Ni  Ni415  1  0.28750000  0.34583333  0.33125000  1.0
  Ni  Ni416  1  0.28750000  0.67916667  0.33125000  1.0
  Ni  Ni417  1  0.62083333  0.01250000  0.33125000  1.0
  Ni  Ni418  1  0.62083333  0.34583333  0.33125000  1.0
  Ni  Ni419  1  0.62083333  0.67916667  0.33125000  1.0
  Ni  Ni420  1  0.95416667  0.01250000  0.33125000  1.0
  Ni  Ni421  1  0.95416667  0.34583333  0.33125000  1.0
  Ni  Ni422  1  0.95416667  0.67916667  0.33125000  1.0
  Ni  Ni423  1  0.05416667  0.21250000  0.38125000  1.0
  Ni  Ni424  1  0.05416667  0.54583333  0.38125000  1.0
  Ni  Ni425  1  0.05416667  0.87916667  0.38125000  1.0
  Ni  Ni426  1  0.38750000  0.21250000  0.38125000  1.0
  Ni  Ni427  1  0.38750000  0.54583333  0.38125000  1.0
  Ni  Ni428  1  0.38750000  0.87916667  0.38125000  1.0
  Ni  Ni429  1  0.72083333  0.21250000  0.38125000  1.0
  Ni  Ni430  1  0.72083333  0.54583333  0.38125000  1.0
  Ni  Ni431  1  0.72083333  0.87916667  0.38125000  1.0
