# generated using pymatgen
data_FeNi3
_symmetry_space_group_name_H-M   'P 1'
_cell_length_a   7.49622582
_cell_length_b   25.99941996
_cell_length_c   28.60261182
_cell_angle_alpha   92.84515777
_cell_angle_beta   90.00000000
_cell_angle_gamma   90.00000000
_symmetry_Int_Tables_number   1
_chemical_formula_structural   FeNi3
_chemical_formula_sum   'Fe54 Ni162'
_cell_volume   5567.70656629
_cell_formula_units_Z   54
loop_
 _symmetry_equiv_pos_site_id
 _symmetry_equiv_pos_as_xyz
  1  'x, y, z'
loop_
 _atom_site_type_symbol
 _atom_site_label
 _atom_site_symmetry_multiplicity
 _atom_site_fract_x
 _atom_site_fract_y
 _atom_site_fract_z
 _atom_site_occupancy
  Fe  Fe0  1  0.00000000  0.11887048  0.89276857  1.0
  Fe  Fe1  1  0.00000000  0.45220381  0.89276857  1.0
  Fe  Fe2  1  0.00000000  0.78553714  0.89276857  1.0
  Fe  Fe3  1  0.33333333  0.11887048  0.89276857  1.0
  Fe  Fe4  1  0.33333333  0.45220381  0.89276857  1.0
  Fe  Fe5  1  0.33333333  0.78553714  0.89276857  1.0
  Fe  Fe6  1  0.66666667  0.11887048  0.89276857  1.0
  Fe  Fe7  1  0.66666667  0.45220381  0.89276857  1.0
  Fe  Fe8  1  0.66666667  0.78553714  0.89276857  1.0
  Fe  Fe9  1  0.16666667  0.09506095  0.96419714  1.0
  Fe  Fe10  1  0.16666667  0.42839429  0.96419714  1.0
  Fe  Fe11  1  0.16666667  0.76172762  0.96419714  1.0
  Fe  Fe12  1  0.50000000  0.09506095  0.96419714  1.0
  Fe  Fe13  1  0.50000000  0.42839429  0.96419714  1.0
  Fe  Fe14  1  0.50000000  0.76172762  0.96419714  1.0
  Fe  Fe15  1  0.83333333  0.09506095  0.96419714  1.0
  Fe  Fe16  1  0.83333333  0.42839429  0.96419714  1.0
  Fe  Fe17  1  0.83333333  0.76172762  0.96419714  1.0
  Fe  Fe18  1  0.00000000  0.16648952  0.74991143  1.0
  Fe  Fe19  1  0.00000000  0.49982286  0.74991143  1.0
  Fe  Fe20  1  0.00000000  0.83315619  0.74991143  1.0
  Fe  Fe21  1  0.33333333  0.16648952  0.74991143  1.0
  Fe  Fe22  1  0.33333333  0.49982286  0.74991143  1.0
  Fe  Fe23  1  0.33333333  0.83315619  0.74991143  1.0
  Fe  Fe24  1  0.66666667  0.16648952  0.74991143  1.0
  Fe  Fe25  1  0.66666667  0.49982286  0.74991143  1.0
  Fe  Fe26  1  0.66666667  0.83315619  0.74991143  1.0
  Fe  Fe27  1  0.16666667  0.14268000  0.82134000  1.0
  Fe  Fe28  1  0.16666667  0.47601333  0.82134000  1.0
  Fe  Fe29  1  0.16666667  0.80934667  0.82134000  1.0
  Fe  Fe30  1  0.50000000  0.14268000  0.82134000  1.0
  Fe  Fe31  1  0.50000000  0.47601333  0.82134000  1.0
  Fe  Fe32  1  0.50000000  0.80934667  0.82134000  1.0
  Fe  Fe33  1  0.83333333  0.14268000  0.82134000  1.0
  Fe  Fe34  1  0.83333333  0.47601333  0.82134000  1.0
  Fe  Fe35  1  0.83333333  0.80934667  0.82134000  1.0
  Fe  Fe36  1  0.00000000  0.21410857  0.60705429  1.0
  Fe  Fe37  1  0.00000000  0.54744190  0.60705429  1.0
  Fe  Fe38  1  0.00000000  0.88077524  0.60705429  1.0
  Fe  Fe39  1  0.33333333  0.21410857  0.60705429  1.0
  Fe  Fe40  1  0.33333333  0.54744190  0.60705429  1.0
  Fe  Fe41  1  0.33333333  0.88077524  0.60705429  1.0
  Fe  Fe42  1  0.66666667  0.21410857  0.60705429  1.0
  Fe  Fe43  1  0.66666667  0.54744190  0.60705429  1.0
  Fe  Fe44  1  0.66666667  0.88077524  0.60705429  1.0
  Fe  Fe45  1  0.16666667  0.19029905  0.67848286  1.0
  Fe  Fe46  1  0.16666667  0.52363238  0.67848286  1.0
  Fe  Fe47  1  0.16666667  0.85696571  0.67848286  1.0
  Fe  Fe48  1  0.50000000  0.19029905  0.67848286  1.0
  Fe  Fe49  1  0.50000000  0.52363238  0.67848286  1.0
  Fe  Fe50  1  0.50000000  0.85696571  0.67848286  1.0
  Fe  Fe51  1  0.83333333  0.19029905  0.67848286  1.0
  Fe  Fe52  1  0.83333333  0.52363238  0.67848286  1.0
  Fe  Fe53  1  0.83333333  0.85696571  0.67848286  1.0
  Ni  Ni54  1  0.33333333  0.17811381  0.96410857  1.0
  Ni  Ni55  1  0.33333333  0.51144714  0.96410857  1.0
  Ni  Ni56  1  0.33333333  0.84478048  0.96410857  1.0
  Ni  Ni57  1  0.66666667  0.17811381  0.96410857  1.0
  Ni  Ni58  1  0.66666667  0.51144714  0.96410857  1.0
  Ni  Ni59  1  0.66666667  0.84478048  0.96410857  1.0
  Ni  Ni60  1  1.00000000  0.17811381  0.96410857  1.0
  Ni  Ni61  1  1.00000000  0.51144714  0.96410857  1.0
  Ni  Ni62  1  0.00000000  0.84478048  0.96410857  1.0
  Ni  Ni63  1  0.16666667  0.20192333  0.89268000  1.0
  Ni  Ni64  1  0.16666667  0.53525667  0.89268000  1.0
  Ni  Ni65  1  0.16666667  0.86859000  0.89268000  1.0
  Ni  Ni66  1  0.50000000  0.20192333  0.89268000  1.0
  Ni  Ni67  1  0.50000000  0.53525667  0.89268000  1.0
  Ni  Ni68  1  0.50000000  0.86859000  0.89268000  1.0
  Ni  Ni69  1  0.83333333  0.20192333  0.89268000  1.0
  Ni  Ni70  1  0.83333333  0.53525667  0.89268000  1.0
  Ni  Ni71  1  0.83333333  0.86859000  0.89268000  1.0
  Ni  Ni72  1  0.00000000  0.28553714  0.89276857  1.0
  Ni  Ni73  1  0.00000000  0.61887048  0.89276857  1.0
  Ni  Ni74  1  0.00000000  0.95220381  0.89276857  1.0
  Ni  Ni75  1  0.33333333  0.28553714  0.89276857  1.0
  Ni  Ni76  1  0.33333333  0.61887048  0.89276857  1.0
  Ni  Ni77  1  0.33333333  0.95220381  0.89276857  1.0
  Ni  Ni78  1  0.66666667  0.28553714  0.89276857  1.0
  Ni  Ni79  1  0.66666667  0.61887048  0.89276857  1.0
  Ni  Ni80  1  0.66666667  0.95220381  0.89276857  1.0
  Ni  Ni81  1  0.16666667  0.26172762  0.96419714  1.0
  Ni  Ni82  1  0.16666667  0.59506095  0.96419714  1.0
  Ni  Ni83  1  0.16666667  0.92839429  0.96419714  1.0
  Ni  Ni84  1  0.50000000  0.26172762  0.96419714  1.0
  Ni  Ni85  1  0.50000000  0.59506095  0.96419714  1.0
  Ni  Ni86  1  0.50000000  0.92839429  0.96419714  1.0
  Ni  Ni87  1  0.83333333  0.26172762  0.96419714  1.0
  Ni  Ni88  1  0.83333333  0.59506095  0.96419714  1.0
  Ni  Ni89  1  0.83333333  0.92839429  0.96419714  1.0
  Ni  Ni90  1  0.33333333  0.01200810  0.96428571  1.0
  Ni  Ni91  1  0.33333333  0.34534143  0.96428571  1.0
  Ni  Ni92  1  0.33333333  0.67867476  0.96428571  1.0
  Ni  Ni93  1  0.66666667  0.01200810  0.96428571  1.0
  Ni  Ni94  1  0.66666667  0.34534143  0.96428571  1.0
  Ni  Ni95  1  0.66666667  0.67867476  0.96428571  1.0
  Ni  Ni96  1  0.00000000  0.01200810  0.96428571  1.0
  Ni  Ni97  1  0.00000000  0.34534143  0.96428571  1.0
  Ni  Ni98  1  1.00000000  0.67867476  0.96428571  1.0
  Ni  Ni99  1  0.16666667  0.03581762  0.89285714  1.0
  Ni  Ni100  1  0.16666667  0.36915095  0.89285714  1.0
  Ni  Ni101  1  0.16666667  0.70248429  0.89285714  1.0
  Ni  Ni102  1  0.50000000  0.03581762  0.89285714  1.0
  Ni  Ni103  1  0.50000000  0.36915095  0.89285714  1.0
  Ni  Ni104  1  0.50000000  0.70248429  0.89285714  1.0
  Ni  Ni105  1  0.83333333  0.03581762  0.89285714  1.0
  Ni  Ni106  1  0.83333333  0.36915095  0.89285714  1.0
  Ni  Ni107  1  0.83333333  0.70248429  0.89285714  1.0
  Ni  Ni108  1  0.00000000  0.22573286  0.82125143  1.0
  Ni  Ni109  1  0.00000000  0.55906619  0.82125143  1.0
  Ni  Ni110  1  0.00000000  0.89239952  0.82125143  1.0
  Ni  Ni111  1  0.33333333  0.22573286  0.82125143  1.0
  Ni  Ni112  1  0.33333333  0.55906619  0.82125143  1.0
  Ni  Ni113  1  0.33333333  0.89239952  0.82125143  1.0
  Ni  Ni114  1  0.66666667  0.22573286  0.82125143  1.0
  Ni  Ni115  1  0.66666667  0.55906619  0.82125143  1.0
  Ni  Ni116  1  0.66666667  0.89239952  0.82125143  1.0
  Ni  Ni117  1  0.16666667  0.24954238  0.74982286  1.0
  Ni  Ni118  1  0.16666667  0.58287571  0.74982286  1.0
  Ni  Ni119  1  0.16666667  0.91620905  0.74982286  1.0
  Ni  Ni120  1  0.50000000  0.24954238  0.74982286  1.0
  Ni  Ni121  1  0.50000000  0.58287571  0.74982286  1.0
  Ni  Ni122  1  0.50000000  0.91620905  0.74982286  1.0
  Ni  Ni123  1  0.83333333  0.24954238  0.74982286  1.0
  Ni  Ni124  1  0.83333333  0.58287571  0.74982286  1.0
  Ni  Ni125  1  0.83333333  0.91620905  0.74982286  1.0
  Ni  Ni126  1  0.00000000  0.33315619  0.74991143  1.0
  Ni  Ni127  1  0.00000000  0.66648952  0.74991143  1.0
  Ni  Ni128  1  0.00000000  0.99982286  0.74991143  1.0
  Ni  Ni129  1  0.33333333  0.33315619  0.74991143  1.0
  Ni  Ni130  1  0.33333333  0.66648952  0.74991143  1.0
  Ni  Ni131  1  0.33333333  0.99982286  0.74991143  1.0
  Ni  Ni132  1  0.66666667  0.33315619  0.74991143  1.0
  Ni  Ni133  1  0.66666667  0.66648952  0.74991143  1.0
  Ni  Ni134  1  0.66666667  0.99982286  0.74991143  1.0
  Ni  Ni135  1  0.16666667  0.30934667  0.82134000  1.0
  Ni  Ni136  1  0.16666667  0.64268000  0.82134000  1.0
  Ni  Ni137  1  0.16666667  0.97601333  0.82134000  1.0
  Ni  Ni138  1  0.50000000  0.30934667  0.82134000  1.0
  Ni  Ni139  1  0.50000000  0.64268000  0.82134000  1.0
  Ni  Ni140  1  0.50000000  0.97601333  0.82134000  1.0
  Ni  Ni141  1  0.83333333  0.30934667  0.82134000  1.0
  Ni  Ni142  1  0.83333333  0.64268000  0.82134000  1.0
  Ni  Ni143  1  0.83333333  0.97601333  0.82134000  1.0
  Ni  Ni144  1  0.00000000  0.05962714  0.82142857  1.0
  Ni  Ni145  1  0.00000000  0.39296048  0.82142857  1.0
  Ni  Ni146  1  0.00000000  0.72629381  0.82142857  1.0
  Ni  Ni147  1  0.33333333  0.05962714  0.82142857  1.0
  Ni  Ni148  1  0.33333333  0.39296048  0.82142857  1.0
  Ni  Ni149  1  0.33333333  0.72629381  0.82142857  1.0
  Ni  Ni150  1  0.66666667  0.05962714  0.82142857  1.0
  Ni  Ni151  1  0.66666667  0.39296048  0.82142857  1.0
  Ni  Ni152  1  0.66666667  0.72629381  0.82142857  1.0
  Ni  Ni153  1  0.16666667  0.08343667  0.75000000  1.0
  Ni  Ni154  1  0.16666667  0.41677000  0.75000000  1.0
  Ni  Ni155  1  0.16666667  0.75010333  0.75000000  1.0
  Ni  Ni156  1  0.50000000  0.08343667  0.75000000  1.0
  Ni  Ni157  1  0.50000000  0.41677000  0.75000000  1.0
  Ni  Ni158  1  0.50000000  0.75010333  0.75000000  1.0
  Ni  Ni159  1  0.83333333  0.08343667  0.75000000  1.0
  Ni  Ni160  1  0.83333333  0.41677000  0.75000000  1.0
  Ni  Ni161  1  0.83333333  0.75010333  0.75000000  1.0
  Ni  Ni162  1  0.00000000  0.27335190  0.67839429  1.0
  Ni  Ni163  1  0.00000000  0.60668524  0.67839429  1.0
  Ni  Ni164  1  0.00000000  0.94001857  0.67839429  1.0
  Ni  Ni165  1  0.33333333  0.27335190  0.67839429  1.0
  Ni  Ni166  1  0.33333333  0.60668524  0.67839429  1.0
  Ni  Ni167  1  0.33333333  0.94001857  0.67839429  1.0
  Ni  Ni168  1  0.66666667  0.27335190  0.67839429  1.0
  Ni  Ni169  1  0.66666667  0.60668524  0.67839429  1.0
  Ni  Ni170  1  0.66666667  0.94001857  0.67839429  1.0
  Ni  Ni171  1  0.16666667  0.29716143  0.60696571  1.0
  Ni  Ni172  1  0.16666667  0.63049476  0.60696571  1.0
  Ni  Ni173  1  0.16666667  0.96382810  0.60696571  1.0
  Ni  Ni174  1  0.50000000  0.29716143  0.60696571  1.0
  Ni  Ni175  1  0.50000000  0.63049476  0.60696571  1.0
  Ni  Ni176  1  0.50000000  0.96382810  0.60696571  1.0
  Ni  Ni177  1  0.83333333  0.29716143  0.60696571  1.0
  Ni  Ni178  1  0.83333333  0.63049476  0.60696571  1.0
  Ni  Ni179  1  0.83333333  0.96382810  0.60696571  1.0
  Ni  Ni180  1  0.00000000  0.04744190  0.60705429  1.0
  Ni  Ni181  1  0.00000000  0.38077524  0.60705429  1.0
  Ni  Ni182  1  0.00000000  0.71410857  0.60705429  1.0
  Ni  Ni183  1  0.33333333  0.04744190  0.60705429  1.0
  Ni  Ni184  1  0.33333333  0.38077524  0.60705429  1.0
  Ni  Ni185  1  0.33333333  0.71410857  0.60705429  1.0
  Ni  Ni186  1  0.66666667  0.04744190  0.60705429  1.0
  Ni  Ni187  1  0.66666667  0.38077524  0.60705429  1.0
  Ni  Ni188  1  0.66666667  0.71410857  0.60705429  1.0
  Ni  Ni189  1  0.16666667  0.02363238  0.67848286  1.0
  Ni  Ni190  1  0.16666667  0.35696571  0.67848286  1.0
  Ni  Ni191  1  0.16666667  0.69029905  0.67848286  1.0
  Ni  Ni192  1  0.50000000  0.02363238  0.67848286  1.0
  Ni  Ni193  1  0.50000000  0.35696571  0.67848286  1.0
  Ni  Ni194  1  0.50000000  0.69029905  0.67848286  1.0
  Ni  Ni195  1  0.83333333  0.02363238  0.67848286  1.0
  Ni  Ni196  1  0.83333333  0.35696571  0.67848286  1.0
  Ni  Ni197  1  0.83333333  0.69029905  0.67848286  1.0
  Ni  Ni198  1  0.33333333  0.10724619  0.67857143  1.0
  Ni  Ni199  1  0.33333333  0.44057952  0.67857143  1.0
  Ni  Ni200  1  0.33333333  0.77391286  0.67857143  1.0
  Ni  Ni201  1  0.66666667  0.10724619  0.67857143  1.0
  Ni  Ni202  1  0.66666667  0.44057952  0.67857143  1.0
  Ni  Ni203  1  0.66666667  0.77391286  0.67857143  1.0
  Ni  Ni204  1  1.00000000  0.10724619  0.67857143  1.0
  Ni  Ni205  1  0.00000000  0.44057952  0.67857143  1.0
  Ni  Ni206  1  1.00000000  0.77391286  0.67857143  1.0
  Ni  Ni207  1  0.16666667  0.13105571  0.60714286  1.0
  Ni  Ni208  1  0.16666667  0.46438905  0.60714286  1.0
  Ni  Ni209  1  0.16666667  0.79772238  0.60714286  1.0
  Ni  Ni210  1  0.50000000  0.13105571  0.60714286  1.0
  Ni  Ni211  1  0.50000000  0.46438905  0.60714286  1.0
  Ni  Ni212  1  0.50000000  0.79772238  0.60714286  1.0
  Ni  Ni213  1  0.83333333  0.13105571  0.60714286  1.0
  Ni  Ni214  1  0.83333333  0.46438905  0.60714286  1.0
  Ni  Ni215  1  0.83333333  0.79772238  0.60714286  1.0
