# generated using pymatgen
data_FeNi3
_symmetry_space_group_name_H-M   'P 1'
_cell_length_a   12.16543500
_cell_length_b   13.08760200
_cell_length_c   25.02080500
_cell_angle_alpha   90.00000000
_cell_angle_beta   90.00000000
_cell_angle_gamma   90.00000000
_symmetry_Int_Tables_number   1
_chemical_formula_structural   FeNi3
_chemical_formula_sum   'Fe36 Ni108'
_cell_volume   3983.72178253
_cell_formula_units_Z   36
loop_
 _symmetry_equiv_pos_site_id
 _symmetry_equiv_pos_as_xyz
  1  'x, y, z'
loop_
 _atom_site_type_symbol
 _atom_site_label
 _atom_site_symmetry_multiplicity
 _atom_site_fract_x
 _atom_site_fract_y
 _atom_site_fract_z
 _atom_site_occupancy
  Fe  Fe0  1  0.16666667  0.11128133  0.07479490  1.0
  Fe  Fe1  1  0.16666667  0.44461467  0.07479490  1.0
  Fe  Fe2  1  0.16666667  0.77794800  0.07479490  1.0
  Fe  Fe3  1  0.50000000  0.11128133  0.07479490  1.0
  Fe  Fe4  1  0.50000000  0.44461467  0.07479490  1.0
  Fe  Fe5  1  0.50000000  0.77794800  0.07479490  1.0
  Fe  Fe6  1  0.83333333  0.11128133  0.07479490  1.0
  Fe  Fe7  1  0.83333333  0.44461467  0.07479490  1.0
  Fe  Fe8  1  0.83333333  0.77794800  0.07479490  1.0
  Fe  Fe9  1  0.00000000  0.22205200  0.17479490  1.0
  Fe  Fe10  1  0.00000000  0.55538533  0.17479490  1.0
  Fe  Fe11  1  0.00000000  0.88871867  0.17479490  1.0
  Fe  Fe12  1  0.33333333  0.22205200  0.17479490  1.0
  Fe  Fe13  1  0.33333333  0.55538533  0.17479490  1.0
  Fe  Fe14  1  0.33333333  0.88871867  0.17479490  1.0
  Fe  Fe15  1  0.66666667  0.22205200  0.17479490  1.0
  Fe  Fe16  1  0.66666667  0.55538533  0.17479490  1.0
  Fe  Fe17  1  0.66666667  0.88871867  0.17479490  1.0
  Ni  Ni18  1  0.00000000  0.22328867  0.07479490  1.0
  Ni  Ni19  1  0.00000000  0.55662200  0.07479490  1.0
  Ni  Ni20  1  0.00000000  0.88995533  0.07479490  1.0
  Ni  Ni21  1  0.33333333  0.22328867  0.07479490  1.0
  Ni  Ni22  1  0.33333333  0.55662200  0.07479490  1.0
  Ni  Ni23  1  0.33333333  0.88995533  0.07479490  1.0
  Ni  Ni24  1  0.66666667  0.22328867  0.07479490  1.0
  Ni  Ni25  1  0.66666667  0.55662200  0.07479490  1.0
  Ni  Ni26  1  0.66666667  0.88995533  0.07479490  1.0
  Ni  Ni27  1  0.16666667  0.11004467  0.17479490  1.0
  Ni  Ni28  1  0.16666667  0.44337800  0.17479490  1.0
  Ni  Ni29  1  0.16666667  0.77671133  0.17479490  1.0
  Ni  Ni30  1  0.50000000  0.11004467  0.17479490  1.0
  Ni  Ni31  1  0.50000000  0.44337800  0.17479490  1.0
  Ni  Ni32  1  0.50000000  0.77671133  0.17479490  1.0
  Ni  Ni33  1  0.83333333  0.11004467  0.17479490  1.0
  Ni  Ni34  1  0.83333333  0.44337800  0.17479490  1.0
  Ni  Ni35  1  0.83333333  0.77671133  0.17479490  1.0
  Ni  Ni36  1  0.16666667  0.27781533  0.12438470  1.0
  Ni  Ni37  1  0.16666667  0.61114867  0.12438470  1.0
  Ni  Ni38  1  0.16666667  0.94448200  0.12438470  1.0
  Ni  Ni39  1  0.50000000  0.27781533  0.12438470  1.0
  Ni  Ni40  1  0.50000000  0.61114867  0.12438470  1.0
  Ni  Ni41  1  0.50000000  0.94448200  0.12438470  1.0
  Ni  Ni42  1  0.83333333  0.27781533  0.12438470  1.0
  Ni  Ni43  1  0.83333333  0.61114867  0.12438470  1.0
  Ni  Ni44  1  0.83333333  0.94448200  0.12438470  1.0
  Ni  Ni45  1  0.00000000  0.05551800  0.02438470  1.0
  Ni  Ni46  1  0.00000000  0.38885133  0.02438470  1.0
  Ni  Ni47  1  0.00000000  0.72218467  0.02438470  1.0
  Ni  Ni48  1  0.33333333  0.05551800  0.02438470  1.0
  Ni  Ni49  1  0.33333333  0.38885133  0.02438470  1.0
  Ni  Ni50  1  0.33333333  0.72218467  0.02438470  1.0
  Ni  Ni51  1  0.66666667  0.05551800  0.02438470  1.0
  Ni  Ni52  1  0.66666667  0.38885133  0.02438470  1.0
  Ni  Ni53  1  0.66666667  0.72218467  0.02438470  1.0
  Ni  Ni54  1  0.00000000  0.05551800  0.12520510  1.0
  Ni  Ni55  1  0.00000000  0.38885133  0.12520510  1.0
  Ni  Ni56  1  0.00000000  0.72218467  0.12520510  1.0
  Ni  Ni57  1  0.33333333  0.05551800  0.12520510  1.0
  Ni  Ni58  1  0.33333333  0.38885133  0.12520510  1.0
  Ni  Ni59  1  0.33333333  0.72218467  0.12520510  1.0
  Ni  Ni60  1  0.66666667  0.05551800  0.12520510  1.0
  Ni  Ni61  1  0.66666667  0.38885133  0.12520510  1.0
  Ni  Ni62  1  0.66666667  0.72218467  0.12520510  1.0
  Ni  Ni63  1  0.16666667  0.27781533  0.02520510  1.0
  Ni  Ni64  1  0.16666667  0.61114867  0.02520510  1.0
  Ni  Ni65  1  0.16666667  0.94448200  0.02520510  1.0
  Ni  Ni66  1  0.50000000  0.27781533  0.02520510  1.0
  Ni  Ni67  1  0.50000000  0.61114867  0.02520510  1.0
  Ni  Ni68  1  0.50000000  0.94448200  0.02520510  1.0
  Ni  Ni69  1  0.83333333  0.27781533  0.02520510  1.0
  Ni  Ni70  1  0.83333333  0.61114867  0.02520510  1.0
  Ni  Ni71  1  0.83333333  0.94448200  0.02520510  1.0
  Fe  Fe72  1  0.16666667  0.11128133  0.27479490  1.0
  Fe  Fe73  1  0.16666667  0.44461467  0.27479490  1.0
  Fe  Fe74  1  0.16666667  0.77794800  0.27479490  1.0
  Fe  Fe75  1  0.50000000  0.11128133  0.27479490  1.0
  Fe  Fe76  1  0.50000000  0.44461467  0.27479490  1.0
  Fe  Fe77  1  0.50000000  0.77794800  0.27479490  1.0
  Fe  Fe78  1  0.83333333  0.11128133  0.27479490  1.0
  Fe  Fe79  1  0.83333333  0.44461467  0.27479490  1.0
  Fe  Fe80  1  0.83333333  0.77794800  0.27479490  1.0
  Fe  Fe81  1  0.00000000  0.22205200  0.37479490  1.0
  Fe  Fe82  1  0.00000000  0.55538533  0.37479490  1.0
  Fe  Fe83  1  0.00000000  0.88871867  0.37479490  1.0
  Fe  Fe84  1  0.33333333  0.22205200  0.37479490  1.0
  Fe  Fe85  1  0.33333333  0.55538533  0.37479490  1.0
  Fe  Fe86  1  0.33333333  0.88871867  0.37479490  1.0
  Fe  Fe87  1  0.66666667  0.22205200  0.37479490  1.0
  Fe  Fe88  1  0.66666667  0.55538533  0.37479490  1.0
  Fe  Fe89  1  0.66666667  0.88871867  0.37479490  1.0
  Ni  Ni90  1  0.00000000  0.22328867  0.27479490  1.0
  Ni  Ni91  1  0.00000000  0.55662200  0.27479490  1.0
  Ni  Ni92  1  0.00000000  0.88995533  0.27479490  1.0
  Ni  Ni93  1  0.33333333  0.22328867  0.27479490  1.0
  Ni  Ni94  1  0.33333333  0.55662200  0.27479490  1.0
  Ni  Ni95  1  0.33333333  0.88995533  0.27479490  1.0
  Ni  Ni96  1  0.66666667  0.22328867  0.27479490  1.0
  Ni  Ni97  1  0.66666667  0.55662200  0.27479490  1.0
  Ni  Ni98  1  0.66666667  0.88995533  0.27479490  1.0
  Ni  Ni99  1  0.16666667  0.11004467  0.37479490  1.0
  Ni  Ni100  1  0.16666667  0.44337800  0.37479490  1.0
  Ni  Ni101  1  0.16666667  0.77671133  0.37479490  1.0
  Ni  Ni102  1  0.50000000  0.11004467  0.37479490  1.0
  Ni  Ni103  1  0.50000000  0.44337800  0.37479490  1.0
  Ni  Ni104  1  0.50000000  0.77671133  0.37479490  1.0
  Ni  Ni105  1  0.83333333  0.11004467  0.37479490  1.0
  Ni  Ni106  1  0.83333333  0.44337800  0.37479490  1.0
  Ni  Ni107  1  0.83333333  0.77671133  0.37479490  1.0
  Ni  Ni108  1  0.16666667  0.27781533  0.32438470  1.0
  Ni  Ni109  1  0.16666667  0.61114867  0.32438470  1.0
  Ni  Ni110  1  0.16666667  0.94448200  0.32438470  1.0
  Ni  Ni111  1  0.50000000  0.27781533  0.32438470  1.0
  Ni  Ni112  1  0.50000000  0.61114867  0.32438470  1.0
  Ni  Ni113  1  0.50000000  0.94448200  0.32438470  1.0
  Ni  Ni114  1  0.83333333  0.27781533  0.32438470  1.0
  Ni  Ni115  1  0.83333333  0.61114867  0.32438470  1.0
  Ni  Ni116  1  0.83333333  0.94448200  0.32438470  1.0
  Ni  Ni117  1  0.00000000  0.05551800  0.22438470  1.0
  Ni  Ni118  1  0.00000000  0.38885133  0.22438470  1.0
  Ni  Ni119  1  0.00000000  0.72218467  0.22438470  1.0
  Ni  Ni120  1  0.33333333  0.05551800  0.22438470  1.0
  Ni  Ni121  1  0.33333333  0.38885133  0.22438470  1.0
  Ni  Ni122  1  0.33333333  0.72218467  0.22438470  1.0
  Ni  Ni123  1  0.66666667  0.05551800  0.22438470  1.0
  Ni  Ni124  1  0.66666667  0.38885133  0.22438470  1.0
  Ni  Ni125  1  0.66666667  0.72218467  0.22438470  1.0
  Ni  Ni126  1  0.00000000  0.05551800  0.32520510  1.0
  Ni  Ni127  1  0.00000000  0.38885133  0.32520510  1.0
  Ni  Ni128  1  0.00000000  0.72218467  0.32520510  1.0
  Ni  Ni129  1  0.33333333  0.05551800  0.32520510  1.0
  Ni  Ni130  1  0.33333333  0.38885133  0.32520510  1.0
  Ni  Ni131  1  0.33333333  0.72218467  0.32520510  1.0
  Ni  Ni132  1  0.66666667  0.05551800  0.32520510  1.0
  Ni  Ni133  1  0.66666667  0.38885133  0.32520510  1.0
  Ni  Ni134  1  0.66666667  0.72218467  0.32520510  1.0
  Ni  Ni135  1  0.16666667  0.27781533  0.22520510  1.0
  Ni  Ni136  1  0.16666667  0.61114867  0.22520510  1.0
  Ni  Ni137  1  0.16666667  0.94448200  0.22520510  1.0
  Ni  Ni138  1  0.50000000  0.27781533  0.22520510  1.0
  Ni  Ni139  1  0.50000000  0.61114867  0.22520510  1.0
  Ni  Ni140  1  0.50000000  0.94448200  0.22520510  1.0
  Ni  Ni141  1  0.83333333  0.27781533  0.22520510  1.0
  Ni  Ni142  1  0.83333333  0.61114867  0.22520510  1.0
  Ni  Ni143  1  0.83333333  0.94448200  0.22520510  1.0
