# generated using pymatgen
data_FeNi
_symmetry_space_group_name_H-M   'P 1'
_cell_length_a   37.94308819
_cell_length_b   7.54759343
_cell_length_c   78.83172648
_cell_angle_alpha   73.30785025
_cell_angle_beta   22.40019083
_cell_angle_gamma   84.29195892
_symmetry_Int_Tables_number   1
_chemical_formula_structural   FeNi
_chemical_formula_sum   'Fe126 Ni126'
_cell_volume   7337.92805695
_cell_formula_units_Z   126
loop_
 _symmetry_equiv_pos_site_id
 _symmetry_equiv_pos_as_xyz
  1  'x, y, z'
loop_
 _atom_site_type_symbol
 _atom_site_label
 _atom_site_symmetry_multiplicity
 _atom_site_fract_x
 _atom_site_fract_y
 _atom_site_fract_z
 _atom_site_occupancy
  Fe  Fe0  1  0.16666667  0.00000000  0.02083333  1.0
  Fe  Fe1  1  0.16666667  0.33333333  0.02083333  1.0
  Fe  Fe2  1  0.16666667  0.66666667  0.02083333  1.0
  Fe  Fe3  1  0.50000000  0.00000000  0.02083333  1.0
  Fe  Fe4  1  0.50000000  0.33333333  0.02083333  1.0
  Fe  Fe5  1  0.50000000  0.66666667  0.02083333  1.0
  Fe  Fe6  1  0.83333333  0.00000000  0.02083333  1.0
  Fe  Fe7  1  0.83333333  0.33333333  0.02083333  1.0
  Fe  Fe8  1  0.83333333  0.66666667  0.02083333  1.0
  Fe  Fe9  1  0.00000000  0.00000000  0.04861111  1.0
  Fe  Fe10  1  0.00000000  0.33333333  0.04861111  1.0
  Fe  Fe11  1  0.00000000  0.66666667  0.04861111  1.0
  Fe  Fe12  1  0.33333333  0.00000000  0.04861111  1.0
  Fe  Fe13  1  0.33333333  0.33333333  0.04861111  1.0
  Fe  Fe14  1  0.33333333  0.66666667  0.04861111  1.0
  Fe  Fe15  1  0.66666667  0.00000000  0.04861111  1.0
  Fe  Fe16  1  0.66666667  0.33333333  0.04861111  1.0
  Fe  Fe17  1  0.66666667  0.66666667  0.04861111  1.0
  Ni  Ni18  1  0.08333333  0.16666667  0.03472222  1.0
  Ni  Ni19  1  0.08333333  0.50000000  0.03472222  1.0
  Ni  Ni20  1  0.08333333  0.83333333  0.03472222  1.0
  Ni  Ni21  1  0.41666667  0.16666667  0.03472222  1.0
  Ni  Ni22  1  0.41666667  0.50000000  0.03472222  1.0
  Ni  Ni23  1  0.41666667  0.83333333  0.03472222  1.0
  Ni  Ni24  1  0.75000000  0.16666667  0.03472222  1.0
  Ni  Ni25  1  0.75000000  0.50000000  0.03472222  1.0
  Ni  Ni26  1  0.75000000  0.83333333  0.03472222  1.0
  Ni  Ni27  1  0.25000000  0.16666667  0.00694444  1.0
  Ni  Ni28  1  0.25000000  0.50000000  0.00694444  1.0
  Ni  Ni29  1  0.25000000  0.83333333  0.00694444  1.0
  Ni  Ni30  1  0.58333333  0.16666667  0.00694444  1.0
  Ni  Ni31  1  0.58333333  0.50000000  0.00694444  1.0
  Ni  Ni32  1  0.58333333  0.83333333  0.00694444  1.0
  Ni  Ni33  1  0.91666667  0.16666667  0.00694444  1.0
  Ni  Ni34  1  0.91666667  0.50000000  0.00694444  1.0
  Ni  Ni35  1  0.91666667  0.83333333  0.00694444  1.0
  Fe  Fe36  1  0.16666667  0.00000000  0.07638889  1.0
  Fe  Fe37  1  0.16666667  0.33333333  0.07638889  1.0
  Fe  Fe38  1  0.16666667  0.66666667  0.07638889  1.0
  Fe  Fe39  1  0.50000000  0.00000000  0.07638889  1.0
  Fe  Fe40  1  0.50000000  0.33333333  0.07638889  1.0
  Fe  Fe41  1  0.50000000  0.66666667  0.07638889  1.0
  Fe  Fe42  1  0.83333333  0.00000000  0.07638889  1.0
  Fe  Fe43  1  0.83333333  0.33333333  0.07638889  1.0
  Fe  Fe44  1  0.83333333  0.66666667  0.07638889  1.0
  Fe  Fe45  1  0.00000000  0.00000000  0.10416667  1.0
  Fe  Fe46  1  0.00000000  0.33333333  0.10416667  1.0
  Fe  Fe47  1  0.00000000  0.66666667  0.10416667  1.0
  Fe  Fe48  1  0.33333333  0.00000000  0.10416667  1.0
  Fe  Fe49  1  0.33333333  0.33333333  0.10416667  1.0
  Fe  Fe50  1  0.33333333  0.66666667  0.10416667  1.0
  Fe  Fe51  1  0.66666667  0.00000000  0.10416667  1.0
  Fe  Fe52  1  0.66666667  0.33333333  0.10416667  1.0
  Fe  Fe53  1  0.66666667  0.66666667  0.10416667  1.0
  Ni  Ni54  1  0.08333333  0.16666667  0.09027778  1.0
  Ni  Ni55  1  0.08333333  0.50000000  0.09027778  1.0
  Ni  Ni56  1  0.08333333  0.83333333  0.09027778  1.0
  Ni  Ni57  1  0.41666667  0.16666667  0.09027778  1.0
  Ni  Ni58  1  0.41666667  0.50000000  0.09027778  1.0
  Ni  Ni59  1  0.41666667  0.83333333  0.09027778  1.0
  Ni  Ni60  1  0.75000000  0.16666667  0.09027778  1.0
  Ni  Ni61  1  0.75000000  0.50000000  0.09027778  1.0
  Ni  Ni62  1  0.75000000  0.83333333  0.09027778  1.0
  Ni  Ni63  1  0.25000000  0.16666667  0.06250000  1.0
  Ni  Ni64  1  0.25000000  0.50000000  0.06250000  1.0
  Ni  Ni65  1  0.25000000  0.83333333  0.06250000  1.0
  Ni  Ni66  1  0.58333333  0.16666667  0.06250000  1.0
  Ni  Ni67  1  0.58333333  0.50000000  0.06250000  1.0
  Ni  Ni68  1  0.58333333  0.83333333  0.06250000  1.0
  Ni  Ni69  1  0.91666667  0.16666667  0.06250000  1.0
  Ni  Ni70  1  0.91666667  0.50000000  0.06250000  1.0
  Ni  Ni71  1  0.91666667  0.83333333  0.06250000  1.0
  Fe  Fe72  1  0.16666667  0.00000000  0.13194444  1.0
  Fe  Fe73  1  0.16666667  0.33333333  0.13194444  1.0
  Fe  Fe74  1  0.16666667  0.66666667  0.13194444  1.0
  Fe  Fe75  1  0.50000000  0.00000000  0.13194444  1.0
  Fe  Fe76  1  0.50000000  0.33333333  0.13194444  1.0
  Fe  Fe77  1  0.50000000  0.66666667  0.13194444  1.0
  Fe  Fe78  1  0.83333333  0.00000000  0.13194444  1.0
  Fe  Fe79  1  0.83333333  0.33333333  0.13194444  1.0
  Fe  Fe80  1  0.83333333  0.66666667  0.13194444  1.0
  Fe  Fe81  1  0.00000000  0.00000000  0.15972222  1.0
  Fe  Fe82  1  0.00000000  0.33333333  0.15972222  1.0
  Fe  Fe83  1  0.00000000  0.66666667  0.15972222  1.0
  Fe  Fe84  1  0.33333333  0.00000000  0.15972222  1.0
  Fe  Fe85  1  0.33333333  0.33333333  0.15972222  1.0
  Fe  Fe86  1  0.33333333  0.66666667  0.15972222  1.0
  Fe  Fe87  1  0.66666667  0.00000000  0.15972222  1.0
  Fe  Fe88  1  0.66666667  0.33333333  0.15972222  1.0
  Fe  Fe89  1  0.66666667  0.66666667  0.15972222  1.0
  Ni  Ni90  1  0.08333333  0.16666667  0.14583333  1.0
  Ni  Ni91  1  0.08333333  0.50000000  0.14583333  1.0
  Ni  Ni92  1  0.08333333  0.83333333  0.14583333  1.0
  Ni  Ni93  1  0.41666667  0.16666667  0.14583333  1.0
  Ni  Ni94  1  0.41666667  0.50000000  0.14583333  1.0
  Ni  Ni95  1  0.41666667  0.83333333  0.14583333  1.0
  Ni  Ni96  1  0.75000000  0.16666667  0.14583333  1.0
  Ni  Ni97  1  0.75000000  0.50000000  0.14583333  1.0
  Ni  Ni98  1  0.75000000  0.83333333  0.14583333  1.0
  Ni  Ni99  1  0.25000000  0.16666667  0.11805556  1.0
  Ni  Ni100  1  0.25000000  0.50000000  0.11805556  1.0
  Ni  Ni101  1  0.25000000  0.83333333  0.11805556  1.0
  Ni  Ni102  1  0.58333333  0.16666667  0.11805556  1.0
  Ni  Ni103  1  0.58333333  0.50000000  0.11805556  1.0
  Ni  Ni104  1  0.58333333  0.83333333  0.11805556  1.0
  Ni  Ni105  1  0.91666667  0.16666667  0.11805556  1.0
  Ni  Ni106  1  0.91666667  0.50000000  0.11805556  1.0
  Ni  Ni107  1  0.91666667  0.83333333  0.11805556  1.0
  Fe  Fe108  1  0.16666667  0.00000000  0.18750000  1.0
  Fe  Fe109  1  0.16666667  0.33333333  0.18750000  1.0
  Fe  Fe110  1  0.16666667  0.66666667  0.18750000  1.0
  Fe  Fe111  1  0.50000000  0.00000000  0.18750000  1.0
  Fe  Fe112  1  0.50000000  0.33333333  0.18750000  1.0
  Fe  Fe113  1  0.50000000  0.66666667  0.18750000  1.0
  Fe  Fe114  1  0.83333333  0.00000000  0.18750000  1.0
  Fe  Fe115  1  0.83333333  0.33333333  0.18750000  1.0
  Fe  Fe116  1  0.83333333  0.66666667  0.18750000  1.0
  Fe  Fe117  1  0.00000000  0.00000000  0.21527778  1.0
  Fe  Fe118  1  0.00000000  0.33333333  0.21527778  1.0
  Fe  Fe119  1  0.00000000  0.66666667  0.21527778  1.0
  Fe  Fe120  1  0.33333333  0.00000000  0.21527778  1.0
  Fe  Fe121  1  0.33333333  0.33333333  0.21527778  1.0
  Fe  Fe122  1  0.33333333  0.66666667  0.21527778  1.0
  Fe  Fe123  1  0.66666667  0.00000000  0.21527778  1.0
  Fe  Fe124  1  0.66666667  0.33333333  0.21527778  1.0
  Fe  Fe125  1  0.66666667  0.66666667  0.21527778  1.0
  Ni  Ni126  1  0.08333333  0.16666667  0.20138889  1.0
  Ni  Ni127  1  0.08333333  0.50000000  0.20138889  1.0
  Ni  Ni128  1  0.08333333  0.83333333  0.20138889  1.0
  Ni  Ni129  1  0.41666667  0.16666667  0.20138889  1.0
  Ni  Ni130  1  0.41666667  0.50000000  0.20138889  1.0
  Ni  Ni131  1  0.41666667  0.83333333  0.20138889  1.0
  Ni  Ni132  1  0.75000000  0.16666667  0.20138889  1.0
  Ni  Ni133  1  0.75000000  0.50000000  0.20138889  1.0
  Ni  Ni134  1  0.75000000  0.83333333  0.20138889  1.0
  Ni  Ni135  1  0.25000000  0.16666667  0.17361111  1.0
  Ni  Ni136  1  0.25000000  0.50000000  0.17361111  1.0
  Ni  Ni137  1  0.25000000  0.83333333  0.17361111  1.0
  Ni  Ni138  1  0.58333333  0.16666667  0.17361111  1.0
  Ni  Ni139  1  0.58333333  0.50000000  0.17361111  1.0
  Ni  Ni140  1  0.58333333  0.83333333  0.17361111  1.0
  Ni  Ni141  1  0.91666667  0.16666667  0.17361111  1.0
  Ni  Ni142  1  0.91666667  0.50000000  0.17361111  1.0
  Ni  Ni143  1  0.91666667  0.83333333  0.17361111  1.0
  Fe  Fe144  1  0.16666667  0.00000000  0.24305556  1.0
  Fe  Fe145  1  0.16666667  0.33333333  0.24305556  1.0
  Fe  Fe146  1  0.16666667  0.66666667  0.24305556  1.0
  Fe  Fe147  1  0.50000000  0.00000000  0.24305556  1.0
  Fe  Fe148  1  0.50000000  0.33333333  0.24305556  1.0
  Fe  Fe149  1  0.50000000  0.66666667  0.24305556  1.0
  Fe  Fe150  1  0.83333333  0.00000000  0.24305556  1.0
  Fe  Fe151  1  0.83333333  0.33333333  0.24305556  1.0
  Fe  Fe152  1  0.83333333  0.66666667  0.24305556  1.0
  Fe  Fe153  1  0.00000000  0.00000000  0.27083333  1.0
  Fe  Fe154  1  0.00000000  0.33333333  0.27083333  1.0
  Fe  Fe155  1  0.00000000  0.66666667  0.27083333  1.0
  Fe  Fe156  1  0.33333333  0.00000000  0.27083333  1.0
  Fe  Fe157  1  0.33333333  0.33333333  0.27083333  1.0
  Fe  Fe158  1  0.33333333  0.66666667  0.27083333  1.0
  Fe  Fe159  1  0.66666667  0.00000000  0.27083333  1.0
  Fe  Fe160  1  0.66666667  0.33333333  0.27083333  1.0
  Fe  Fe161  1  0.66666667  0.66666667  0.27083333  1.0
  Ni  Ni162  1  0.08333333  0.16666667  0.25694444  1.0
  Ni  Ni163  1  0.08333333  0.50000000  0.25694444  1.0
  Ni  Ni164  1  0.08333333  0.83333333  0.25694444  1.0
  Ni  Ni165  1  0.41666667  0.16666667  0.25694444  1.0
  Ni  Ni166  1  0.41666667  0.50000000  0.25694444  1.0
  Ni  Ni167  1  0.41666667  0.83333333  0.25694444  1.0
  Ni  Ni168  1  0.75000000  0.16666667  0.25694444  1.0
  Ni  Ni169  1  0.75000000  0.50000000  0.25694444  1.0
  Ni  Ni170  1  0.75000000  0.83333333  0.25694444  1.0
  Ni  Ni171  1  0.25000000  0.16666667  0.22916667  1.0
  Ni  Ni172  1  0.25000000  0.50000000  0.22916667  1.0
  Ni  Ni173  1  0.25000000  0.83333333  0.22916667  1.0
  Ni  Ni174  1  0.58333333  0.16666667  0.22916667  1.0
  Ni  Ni175  1  0.58333333  0.50000000  0.22916667  1.0
  Ni  Ni176  1  0.58333333  0.83333333  0.22916667  1.0
  Ni  Ni177  1  0.91666667  0.16666667  0.22916667  1.0
  Ni  Ni178  1  0.91666667  0.50000000  0.22916667  1.0
  Ni  Ni179  1  0.91666667  0.83333333  0.22916667  1.0
  Fe  Fe180  1  0.16666667  0.00000000  0.29861111  1.0
  Fe  Fe181  1  0.16666667  0.33333333  0.29861111  1.0
  Fe  Fe182  1  0.16666667  0.66666667  0.29861111  1.0
  Fe  Fe183  1  0.50000000  0.00000000  0.29861111  1.0
  Fe  Fe184  1  0.50000000  0.33333333  0.29861111  1.0
  Fe  Fe185  1  0.50000000  0.66666667  0.29861111  1.0
  Fe  Fe186  1  0.83333333  0.00000000  0.29861111  1.0
  Fe  Fe187  1  0.83333333  0.33333333  0.29861111  1.0
  Fe  Fe188  1  0.83333333  0.66666667  0.29861111  1.0
  Fe  Fe189  1  0.00000000  0.00000000  0.32638889  1.0
  Fe  Fe190  1  0.00000000  0.33333333  0.32638889  1.0
  Fe  Fe191  1  0.00000000  0.66666667  0.32638889  1.0
  Fe  Fe192  1  0.33333333  0.00000000  0.32638889  1.0
  Fe  Fe193  1  0.33333333  0.33333333  0.32638889  1.0
  Fe  Fe194  1  0.33333333  0.66666667  0.32638889  1.0
  Fe  Fe195  1  0.66666667  0.00000000  0.32638889  1.0
  Fe  Fe196  1  0.66666667  0.33333333  0.32638889  1.0
  Fe  Fe197  1  0.66666667  0.66666667  0.32638889  1.0
  Ni  Ni198  1  0.08333333  0.16666667  0.31250000  1.0
  Ni  Ni199  1  0.08333333  0.50000000  0.31250000  1.0
  Ni  Ni200  1  0.08333333  0.83333333  0.31250000  1.0
  Ni  Ni201  1  0.41666667  0.16666667  0.31250000  1.0
  Ni  Ni202  1  0.41666667  0.50000000  0.31250000  1.0
  Ni  Ni203  1  0.41666667  0.83333333  0.31250000  1.0
  Ni  Ni204  1  0.75000000  0.16666667  0.31250000  1.0
  Ni  Ni205  1  0.75000000  0.50000000  0.31250000  1.0
  Ni  Ni206  1  0.75000000  0.83333333  0.31250000  1.0
  Ni  Ni207  1  0.25000000  0.16666667  0.28472222  1.0
  Ni  Ni208  1  0.25000000  0.50000000  0.28472222  1.0
  Ni  Ni209  1  0.25000000  0.83333333  0.28472222  1.0
  Ni  Ni210  1  0.58333333  0.16666667  0.28472222  1.0
  Ni  Ni211  1  0.58333333  0.50000000  0.28472222  1.0
  Ni  Ni212  1  0.58333333  0.83333333  0.28472222  1.0
  Ni  Ni213  1  0.91666667  0.16666667  0.28472222  1.0
  Ni  Ni214  1  0.91666667  0.50000000  0.28472222  1.0
  Ni  Ni215  1  0.91666667  0.83333333  0.28472222  1.0
  Fe  Fe216  1  0.16666667  0.00000000  0.35416667  1.0
  Fe  Fe217  1  0.16666667  0.33333333  0.35416667  1.0
  Fe  Fe218  1  0.16666667  0.66666667  0.35416667  1.0
  Fe  Fe219  1  0.50000000  0.00000000  0.35416667  1.0
  Fe  Fe220  1  0.50000000  0.33333333  0.35416667  1.0
  Fe  Fe221  1  0.50000000  0.66666667  0.35416667  1.0
  Fe  Fe222  1  0.83333333  0.00000000  0.35416667  1.0
  Fe  Fe223  1  0.83333333  0.33333333  0.35416667  1.0
  Fe  Fe224  1  0.83333333  0.66666667  0.35416667  1.0
  Fe  Fe225  1  0.00000000  0.00000000  0.38194444  1.0
  Fe  Fe226  1  0.00000000  0.33333333  0.38194444  1.0
  Fe  Fe227  1  0.00000000  0.66666667  0.38194444  1.0
  Fe  Fe228  1  0.33333333  0.00000000  0.38194444  1.0
  Fe  Fe229  1  0.33333333  0.33333333  0.38194444  1.0
  Fe  Fe230  1  0.33333333  0.66666667  0.38194444  1.0
  Fe  Fe231  1  0.66666667  0.00000000  0.38194444  1.0
  Fe  Fe232  1  0.66666667  0.33333333  0.38194444  1.0
  Fe  Fe233  1  0.66666667  0.66666667  0.38194444  1.0
  Ni  Ni234  1  0.08333333  0.16666667  0.36805556  1.0
  Ni  Ni235  1  0.08333333  0.50000000  0.36805556  1.0
  Ni  Ni236  1  0.08333333  0.83333333  0.36805556  1.0
  Ni  Ni237  1  0.41666667  0.16666667  0.36805556  1.0
  Ni  Ni238  1  0.41666667  0.50000000  0.36805556  1.0
  Ni  Ni239  1  0.41666667  0.83333333  0.36805556  1.0
  Ni  Ni240  1  0.75000000  0.16666667  0.36805556  1.0
  Ni  Ni241  1  0.75000000  0.50000000  0.36805556  1.0
  Ni  Ni242  1  0.75000000  0.83333333  0.36805556  1.0
  Ni  Ni243  1  0.25000000  0.16666667  0.34027778  1.0
  Ni  Ni244  1  0.25000000  0.50000000  0.34027778  1.0
  Ni  Ni245  1  0.25000000  0.83333333  0.34027778  1.0
  Ni  Ni246  1  0.58333333  0.16666667  0.34027778  1.0
  Ni  Ni247  1  0.58333333  0.50000000  0.34027778  1.0
  Ni  Ni248  1  0.58333333  0.83333333  0.34027778  1.0
  Ni  Ni249  1  0.91666667  0.16666667  0.34027778  1.0
  Ni  Ni250  1  0.91666667  0.50000000  0.34027778  1.0
  Ni  Ni251  1  0.91666667  0.83333333  0.34027778  1.0
