# generated using pymatgen
data_FeNi3
_symmetry_space_group_name_H-M   'P 1'
_cell_length_a   13.08760200
_cell_length_b   28.58961141
_cell_length_c   35.02912700
_cell_angle_alpha   58.32484076
_cell_angle_beta   90.00000000
_cell_angle_gamma   90.00000000
_symmetry_Int_Tables_number   1
_chemical_formula_structural   FeNi3
_chemical_formula_sum   'Fe108 Ni324'
_cell_volume   11154.42099108
_cell_formula_units_Z   108
loop_
 _symmetry_equiv_pos_site_id
 _symmetry_equiv_pos_as_xyz
  1  'x, y, z'
loop_
 _atom_site_type_symbol
 _atom_site_label
 _atom_site_symmetry_multiplicity
 _atom_site_fract_x
 _atom_site_fract_y
 _atom_site_fract_z
 _atom_site_occupancy
  Fe  Fe0  1  0.11128133  0.08333333  0.01756414  1.0
  Fe  Fe1  1  0.11128133  0.41666667  0.01756414  1.0
  Fe  Fe2  1  0.11128133  0.75000000  0.01756414  1.0
  Fe  Fe3  1  0.44461467  0.08333333  0.01756414  1.0
  Fe  Fe4  1  0.44461467  0.41666667  0.01756414  1.0
  Fe  Fe5  1  0.44461467  0.75000000  0.01756414  1.0
  Fe  Fe6  1  0.77794800  0.08333333  0.01756414  1.0
  Fe  Fe7  1  0.77794800  0.41666667  0.01756414  1.0
  Fe  Fe8  1  0.77794800  0.75000000  0.01756414  1.0
  Fe  Fe9  1  0.11128133  0.25000000  0.08899271  1.0
  Fe  Fe10  1  0.11128133  0.58333333  0.08899271  1.0
  Fe  Fe11  1  0.11128133  0.91666667  0.08899271  1.0
  Fe  Fe12  1  0.44461467  0.25000000  0.08899271  1.0
  Fe  Fe13  1  0.44461467  0.58333333  0.08899271  1.0
  Fe  Fe14  1  0.44461467  0.91666667  0.08899271  1.0
  Fe  Fe15  1  0.77794800  0.25000000  0.08899271  1.0
  Fe  Fe16  1  0.77794800  0.58333333  0.08899271  1.0
  Fe  Fe17  1  0.77794800  0.91666667  0.08899271  1.0
  Fe  Fe18  1  0.22205200  0.16666667  0.05327843  1.0
  Fe  Fe19  1  0.22205200  0.50000000  0.05327843  1.0
  Fe  Fe20  1  0.22205200  0.83333333  0.05327843  1.0
  Fe  Fe21  1  0.55538533  0.16666667  0.05327843  1.0
  Fe  Fe22  1  0.55538533  0.50000000  0.05327843  1.0
  Fe  Fe23  1  0.55538533  0.83333333  0.05327843  1.0
  Fe  Fe24  1  0.88871867  0.16666667  0.05327843  1.0
  Fe  Fe25  1  0.88871867  0.50000000  0.05327843  1.0
  Fe  Fe26  1  0.88871867  0.83333333  0.05327843  1.0
  Fe  Fe27  1  0.22205200  0.00000000  0.12470700  1.0
  Fe  Fe28  1  0.22205200  0.33333333  0.12470700  1.0
  Fe  Fe29  1  0.22205200  0.66666667  0.12470700  1.0
  Fe  Fe30  1  0.55538533  0.00000000  0.12470700  1.0
  Fe  Fe31  1  0.55538533  0.33333333  0.12470700  1.0
  Fe  Fe32  1  0.55538533  0.66666667  0.12470700  1.0
  Fe  Fe33  1  0.88871867  0.00000000  0.12470700  1.0
  Fe  Fe34  1  0.88871867  0.33333333  0.12470700  1.0
  Fe  Fe35  1  0.88871867  0.66666667  0.12470700  1.0
  Ni  Ni36  1  0.22328867  0.16666667  0.12470700  1.0
  Ni  Ni37  1  0.22328867  0.50000000  0.12470700  1.0
  Ni  Ni38  1  0.22328867  0.83333333  0.12470700  1.0
  Ni  Ni39  1  0.55662200  0.16666667  0.12470700  1.0
  Ni  Ni40  1  0.55662200  0.50000000  0.12470700  1.0
  Ni  Ni41  1  0.55662200  0.83333333  0.12470700  1.0
  Ni  Ni42  1  0.88995533  0.16666667  0.12470700  1.0
  Ni  Ni43  1  0.88995533  0.50000000  0.12470700  1.0
  Ni  Ni44  1  0.88995533  0.83333333  0.12470700  1.0
  Ni  Ni45  1  0.22328867  0.00000000  0.05327843  1.0
  Ni  Ni46  1  0.22328867  0.33333333  0.05327843  1.0
  Ni  Ni47  1  0.22328867  0.66666667  0.05327843  1.0
  Ni  Ni48  1  0.55662200  0.00000000  0.05327843  1.0
  Ni  Ni49  1  0.55662200  0.33333333  0.05327843  1.0
  Ni  Ni50  1  0.55662200  0.66666667  0.05327843  1.0
  Ni  Ni51  1  0.88995533  0.00000000  0.05327843  1.0
  Ni  Ni52  1  0.88995533  0.33333333  0.05327843  1.0
  Ni  Ni53  1  0.88995533  0.66666667  0.05327843  1.0
  Ni  Ni54  1  0.11004467  0.08333333  0.08899271  1.0
  Ni  Ni55  1  0.11004467  0.41666667  0.08899271  1.0
  Ni  Ni56  1  0.11004467  0.75000000  0.08899271  1.0
  Ni  Ni57  1  0.44337800  0.08333333  0.08899271  1.0
  Ni  Ni58  1  0.44337800  0.41666667  0.08899271  1.0
  Ni  Ni59  1  0.44337800  0.75000000  0.08899271  1.0
  Ni  Ni60  1  0.77671133  0.08333333  0.08899271  1.0
  Ni  Ni61  1  0.77671133  0.41666667  0.08899271  1.0
  Ni  Ni62  1  0.77671133  0.75000000  0.08899271  1.0
  Ni  Ni63  1  0.11004467  0.25000000  0.01756414  1.0
  Ni  Ni64  1  0.11004467  0.58333333  0.01756414  1.0
  Ni  Ni65  1  0.11004467  0.91666667  0.01756414  1.0
  Ni  Ni66  1  0.44337800  0.25000000  0.01756414  1.0
  Ni  Ni67  1  0.44337800  0.58333333  0.01756414  1.0
  Ni  Ni68  1  0.44337800  0.91666667  0.01756414  1.0
  Ni  Ni69  1  0.77671133  0.25000000  0.01756414  1.0
  Ni  Ni70  1  0.77671133  0.58333333  0.01756414  1.0
  Ni  Ni71  1  0.77671133  0.91666667  0.01756414  1.0
  Ni  Ni72  1  0.27781533  0.08333333  0.05298543  1.0
  Ni  Ni73  1  0.27781533  0.41666667  0.05298543  1.0
  Ni  Ni74  1  0.27781533  0.75000000  0.05298543  1.0
  Ni  Ni75  1  0.61114867  0.08333333  0.05298543  1.0
  Ni  Ni76  1  0.61114867  0.41666667  0.05298543  1.0
  Ni  Ni77  1  0.61114867  0.75000000  0.05298543  1.0
  Ni  Ni78  1  0.94448200  0.08333333  0.05298543  1.0
  Ni  Ni79  1  0.94448200  0.41666667  0.05298543  1.0
  Ni  Ni80  1  0.94448200  0.75000000  0.05298543  1.0
  Ni  Ni81  1  0.27781533  0.25000000  0.12441400  1.0
  Ni  Ni82  1  0.27781533  0.58333333  0.12441400  1.0
  Ni  Ni83  1  0.27781533  0.91666667  0.12441400  1.0
  Ni  Ni84  1  0.61114867  0.25000000  0.12441400  1.0
  Ni  Ni85  1  0.61114867  0.58333333  0.12441400  1.0
  Ni  Ni86  1  0.61114867  0.91666667  0.12441400  1.0
  Ni  Ni87  1  0.94448200  0.25000000  0.12441400  1.0
  Ni  Ni88  1  0.94448200  0.58333333  0.12441400  1.0
  Ni  Ni89  1  0.94448200  0.91666667  0.12441400  1.0
  Ni  Ni90  1  0.05551800  0.16666667  0.08869971  1.0
  Ni  Ni91  1  0.05551800  0.50000000  0.08869971  1.0
  Ni  Ni92  1  0.05551800  0.83333333  0.08869971  1.0
  Ni  Ni93  1  0.38885133  0.16666667  0.08869971  1.0
  Ni  Ni94  1  0.38885133  0.50000000  0.08869971  1.0
  Ni  Ni95  1  0.38885133  0.83333333  0.08869971  1.0
  Ni  Ni96  1  0.72218467  0.16666667  0.08869971  1.0
  Ni  Ni97  1  0.72218467  0.50000000  0.08869971  1.0
  Ni  Ni98  1  0.72218467  0.83333333  0.08869971  1.0
  Ni  Ni99  1  0.05551800  0.00000000  0.01727114  1.0
  Ni  Ni100  1  0.05551800  0.33333333  0.01727114  1.0
  Ni  Ni101  1  0.05551800  0.66666667  0.01727114  1.0
  Ni  Ni102  1  0.38885133  0.00000000  0.01727114  1.0
  Ni  Ni103  1  0.38885133  0.33333333  0.01727114  1.0
  Ni  Ni104  1  0.38885133  0.66666667  0.01727114  1.0
  Ni  Ni105  1  0.72218467  0.00000000  0.01727114  1.0
  Ni  Ni106  1  0.72218467  0.33333333  0.01727114  1.0
  Ni  Ni107  1  0.72218467  0.66666667  0.01727114  1.0
  Ni  Ni108  1  0.05551800  0.16666667  0.01785714  1.0
  Ni  Ni109  1  0.05551800  0.50000000  0.01785714  1.0
  Ni  Ni110  1  0.05551800  0.83333333  0.01785714  1.0
  Ni  Ni111  1  0.38885133  0.16666667  0.01785714  1.0
  Ni  Ni112  1  0.38885133  0.50000000  0.01785714  1.0
  Ni  Ni113  1  0.38885133  0.83333333  0.01785714  1.0
  Ni  Ni114  1  0.72218467  0.16666667  0.01785714  1.0
  Ni  Ni115  1  0.72218467  0.50000000  0.01785714  1.0
  Ni  Ni116  1  0.72218467  0.83333333  0.01785714  1.0
  Ni  Ni117  1  0.05551800  0.00000000  0.08928571  1.0
  Ni  Ni118  1  0.05551800  0.33333333  0.08928571  1.0
  Ni  Ni119  1  0.05551800  0.66666667  0.08928571  1.0
  Ni  Ni120  1  0.38885133  0.00000000  0.08928571  1.0
  Ni  Ni121  1  0.38885133  0.33333333  0.08928571  1.0
  Ni  Ni122  1  0.38885133  0.66666667  0.08928571  1.0
  Ni  Ni123  1  0.72218467  0.00000000  0.08928571  1.0
  Ni  Ni124  1  0.72218467  0.33333333  0.08928571  1.0
  Ni  Ni125  1  0.72218467  0.66666667  0.08928571  1.0
  Ni  Ni126  1  0.27781533  0.08333333  0.12500000  1.0
  Ni  Ni127  1  0.27781533  0.41666667  0.12500000  1.0
  Ni  Ni128  1  0.27781533  0.75000000  0.12500000  1.0
  Ni  Ni129  1  0.61114867  0.08333333  0.12500000  1.0
  Ni  Ni130  1  0.61114867  0.41666667  0.12500000  1.0
  Ni  Ni131  1  0.61114867  0.75000000  0.12500000  1.0
  Ni  Ni132  1  0.94448200  0.08333333  0.12500000  1.0
  Ni  Ni133  1  0.94448200  0.41666667  0.12500000  1.0
  Ni  Ni134  1  0.94448200  0.75000000  0.12500000  1.0
  Ni  Ni135  1  0.27781533  0.25000000  0.05357143  1.0
  Ni  Ni136  1  0.27781533  0.58333333  0.05357143  1.0
  Ni  Ni137  1  0.27781533  0.91666667  0.05357143  1.0
  Ni  Ni138  1  0.61114867  0.25000000  0.05357143  1.0
  Ni  Ni139  1  0.61114867  0.58333333  0.05357143  1.0
  Ni  Ni140  1  0.61114867  0.91666667  0.05357143  1.0
  Ni  Ni141  1  0.94448200  0.25000000  0.05357143  1.0
  Ni  Ni142  1  0.94448200  0.58333333  0.05357143  1.0
  Ni  Ni143  1  0.94448200  0.91666667  0.05357143  1.0
  Fe  Fe144  1  0.11128133  0.08333333  0.16042129  1.0
  Fe  Fe145  1  0.11128133  0.41666667  0.16042129  1.0
  Fe  Fe146  1  0.11128133  0.75000000  0.16042129  1.0
  Fe  Fe147  1  0.44461467  0.08333333  0.16042129  1.0
  Fe  Fe148  1  0.44461467  0.41666667  0.16042129  1.0
  Fe  Fe149  1  0.44461467  0.75000000  0.16042129  1.0
  Fe  Fe150  1  0.77794800  0.08333333  0.16042129  1.0
  Fe  Fe151  1  0.77794800  0.41666667  0.16042129  1.0
  Fe  Fe152  1  0.77794800  0.75000000  0.16042129  1.0
  Fe  Fe153  1  0.11128133  0.25000000  0.23184986  1.0
  Fe  Fe154  1  0.11128133  0.58333333  0.23184986  1.0
  Fe  Fe155  1  0.11128133  0.91666667  0.23184986  1.0
  Fe  Fe156  1  0.44461467  0.25000000  0.23184986  1.0
  Fe  Fe157  1  0.44461467  0.58333333  0.23184986  1.0
  Fe  Fe158  1  0.44461467  0.91666667  0.23184986  1.0
  Fe  Fe159  1  0.77794800  0.25000000  0.23184986  1.0
  Fe  Fe160  1  0.77794800  0.58333333  0.23184986  1.0
  Fe  Fe161  1  0.77794800  0.91666667  0.23184986  1.0
  Fe  Fe162  1  0.22205200  0.16666667  0.19613557  1.0
  Fe  Fe163  1  0.22205200  0.50000000  0.19613557  1.0
  Fe  Fe164  1  0.22205200  0.83333333  0.19613557  1.0
  Fe  Fe165  1  0.55538533  0.16666667  0.19613557  1.0
  Fe  Fe166  1  0.55538533  0.50000000  0.19613557  1.0
  Fe  Fe167  1  0.55538533  0.83333333  0.19613557  1.0
  Fe  Fe168  1  0.88871867  0.16666667  0.19613557  1.0
  Fe  Fe169  1  0.88871867  0.50000000  0.19613557  1.0
  Fe  Fe170  1  0.88871867  0.83333333  0.19613557  1.0
  Fe  Fe171  1  0.22205200  0.00000000  0.26756414  1.0
  Fe  Fe172  1  0.22205200  0.33333333  0.26756414  1.0
  Fe  Fe173  1  0.22205200  0.66666667  0.26756414  1.0
  Fe  Fe174  1  0.55538533  0.00000000  0.26756414  1.0
  Fe  Fe175  1  0.55538533  0.33333333  0.26756414  1.0
  Fe  Fe176  1  0.55538533  0.66666667  0.26756414  1.0
  Fe  Fe177  1  0.88871867  0.00000000  0.26756414  1.0
  Fe  Fe178  1  0.88871867  0.33333333  0.26756414  1.0
  Fe  Fe179  1  0.88871867  0.66666667  0.26756414  1.0
  Ni  Ni180  1  0.22328867  0.16666667  0.26756414  1.0
  Ni  Ni181  1  0.22328867  0.50000000  0.26756414  1.0
  Ni  Ni182  1  0.22328867  0.83333333  0.26756414  1.0
  Ni  Ni183  1  0.55662200  0.16666667  0.26756414  1.0
  Ni  Ni184  1  0.55662200  0.50000000  0.26756414  1.0
  Ni  Ni185  1  0.55662200  0.83333333  0.26756414  1.0
  Ni  Ni186  1  0.88995533  0.16666667  0.26756414  1.0
  Ni  Ni187  1  0.88995533  0.50000000  0.26756414  1.0
  Ni  Ni188  1  0.88995533  0.83333333  0.26756414  1.0
  Ni  Ni189  1  0.22328867  0.00000000  0.19613557  1.0
  Ni  Ni190  1  0.22328867  0.33333333  0.19613557  1.0
  Ni  Ni191  1  0.22328867  0.66666667  0.19613557  1.0
  Ni  Ni192  1  0.55662200  0.00000000  0.19613557  1.0
  Ni  Ni193  1  0.55662200  0.33333333  0.19613557  1.0
  Ni  Ni194  1  0.55662200  0.66666667  0.19613557  1.0
  Ni  Ni195  1  0.88995533  0.00000000  0.19613557  1.0
  Ni  Ni196  1  0.88995533  0.33333333  0.19613557  1.0
  Ni  Ni197  1  0.88995533  0.66666667  0.19613557  1.0
  Ni  Ni198  1  0.11004467  0.08333333  0.23184986  1.0
  Ni  Ni199  1  0.11004467  0.41666667  0.23184986  1.0
  Ni  Ni200  1  0.11004467  0.75000000  0.23184986  1.0
  Ni  Ni201  1  0.44337800  0.08333333  0.23184986  1.0
  Ni  Ni202  1  0.44337800  0.41666667  0.23184986  1.0
  Ni  Ni203  1  0.44337800  0.75000000  0.23184986  1.0
  Ni  Ni204  1  0.77671133  0.08333333  0.23184986  1.0
  Ni  Ni205  1  0.77671133  0.41666667  0.23184986  1.0
  Ni  Ni206  1  0.77671133  0.75000000  0.23184986  1.0
  Ni  Ni207  1  0.11004467  0.25000000  0.16042129  1.0
  Ni  Ni208  1  0.11004467  0.58333333  0.16042129  1.0
  Ni  Ni209  1  0.11004467  0.91666667  0.16042129  1.0
  Ni  Ni210  1  0.44337800  0.25000000  0.16042129  1.0
  Ni  Ni211  1  0.44337800  0.58333333  0.16042129  1.0
  Ni  Ni212  1  0.44337800  0.91666667  0.16042129  1.0
  Ni  Ni213  1  0.77671133  0.25000000  0.16042129  1.0
  Ni  Ni214  1  0.77671133  0.58333333  0.16042129  1.0
  Ni  Ni215  1  0.77671133  0.91666667  0.16042129  1.0
  Ni  Ni216  1  0.27781533  0.08333333  0.19584257  1.0
  Ni  Ni217  1  0.27781533  0.41666667  0.19584257  1.0
  Ni  Ni218  1  0.27781533  0.75000000  0.19584257  1.0
  Ni  Ni219  1  0.61114867  0.08333333  0.19584257  1.0
  Ni  Ni220  1  0.61114867  0.41666667  0.19584257  1.0
  Ni  Ni221  1  0.61114867  0.75000000  0.19584257  1.0
  Ni  Ni222  1  0.94448200  0.08333333  0.19584257  1.0
  Ni  Ni223  1  0.94448200  0.41666667  0.19584257  1.0
  Ni  Ni224  1  0.94448200  0.75000000  0.19584257  1.0
  Ni  Ni225  1  0.27781533  0.25000000  0.26727114  1.0
  Ni  Ni226  1  0.27781533  0.58333333  0.26727114  1.0
  Ni  Ni227  1  0.27781533  0.91666667  0.26727114  1.0
  Ni  Ni228  1  0.61114867  0.25000000  0.26727114  1.0
  Ni  Ni229  1  0.61114867  0.58333333  0.26727114  1.0
  Ni  Ni230  1  0.61114867  0.91666667  0.26727114  1.0
  Ni  Ni231  1  0.94448200  0.25000000  0.26727114  1.0
  Ni  Ni232  1  0.94448200  0.58333333  0.26727114  1.0
  Ni  Ni233  1  0.94448200  0.91666667  0.26727114  1.0
  Ni  Ni234  1  0.05551800  0.16666667  0.23155686  1.0
  Ni  Ni235  1  0.05551800  0.50000000  0.23155686  1.0
  Ni  Ni236  1  0.05551800  0.83333333  0.23155686  1.0
  Ni  Ni237  1  0.38885133  0.16666667  0.23155686  1.0
  Ni  Ni238  1  0.38885133  0.50000000  0.23155686  1.0
  Ni  Ni239  1  0.38885133  0.83333333  0.23155686  1.0
  Ni  Ni240  1  0.72218467  0.16666667  0.23155686  1.0
  Ni  Ni241  1  0.72218467  0.50000000  0.23155686  1.0
  Ni  Ni242  1  0.72218467  0.83333333  0.23155686  1.0
  Ni  Ni243  1  0.05551800  0.00000000  0.16012829  1.0
  Ni  Ni244  1  0.05551800  0.33333333  0.16012829  1.0
  Ni  Ni245  1  0.05551800  0.66666667  0.16012829  1.0
  Ni  Ni246  1  0.38885133  0.00000000  0.16012829  1.0
  Ni  Ni247  1  0.38885133  0.33333333  0.16012829  1.0
  Ni  Ni248  1  0.38885133  0.66666667  0.16012829  1.0
  Ni  Ni249  1  0.72218467  0.00000000  0.16012829  1.0
  Ni  Ni250  1  0.72218467  0.33333333  0.16012829  1.0
  Ni  Ni251  1  0.72218467  0.66666667  0.16012829  1.0
  Ni  Ni252  1  0.05551800  0.16666667  0.16071429  1.0
  Ni  Ni253  1  0.05551800  0.50000000  0.16071429  1.0
  Ni  Ni254  1  0.05551800  0.83333333  0.16071429  1.0
  Ni  Ni255  1  0.38885133  0.16666667  0.16071429  1.0
  Ni  Ni256  1  0.38885133  0.50000000  0.16071429  1.0
  Ni  Ni257  1  0.38885133  0.83333333  0.16071429  1.0
  Ni  Ni258  1  0.72218467  0.16666667  0.16071429  1.0
  Ni  Ni259  1  0.72218467  0.50000000  0.16071429  1.0
  Ni  Ni260  1  0.72218467  0.83333333  0.16071429  1.0
  Ni  Ni261  1  0.05551800  0.00000000  0.23214286  1.0
  Ni  Ni262  1  0.05551800  0.33333333  0.23214286  1.0
  Ni  Ni263  1  0.05551800  0.66666667  0.23214286  1.0
  Ni  Ni264  1  0.38885133  0.00000000  0.23214286  1.0
  Ni  Ni265  1  0.38885133  0.33333333  0.23214286  1.0
  Ni  Ni266  1  0.38885133  0.66666667  0.23214286  1.0
  Ni  Ni267  1  0.72218467  0.00000000  0.23214286  1.0
  Ni  Ni268  1  0.72218467  0.33333333  0.23214286  1.0
  Ni  Ni269  1  0.72218467  0.66666667  0.23214286  1.0
  Ni  Ni270  1  0.27781533  0.08333333  0.26785714  1.0
  Ni  Ni271  1  0.27781533  0.41666667  0.26785714  1.0
  Ni  Ni272  1  0.27781533  0.75000000  0.26785714  1.0
  Ni  Ni273  1  0.61114867  0.08333333  0.26785714  1.0
  Ni  Ni274  1  0.61114867  0.41666667  0.26785714  1.0
  Ni  Ni275  1  0.61114867  0.75000000  0.26785714  1.0
  Ni  Ni276  1  0.94448200  0.08333333  0.26785714  1.0
  Ni  Ni277  1  0.94448200  0.41666667  0.26785714  1.0
  Ni  Ni278  1  0.94448200  0.75000000  0.26785714  1.0
  Ni  Ni279  1  0.27781533  0.25000000  0.19642857  1.0
  Ni  Ni280  1  0.27781533  0.58333333  0.19642857  1.0
  Ni  Ni281  1  0.27781533  0.91666667  0.19642857  1.0
  Ni  Ni282  1  0.61114867  0.25000000  0.19642857  1.0
  Ni  Ni283  1  0.61114867  0.58333333  0.19642857  1.0
  Ni  Ni284  1  0.61114867  0.91666667  0.19642857  1.0
  Ni  Ni285  1  0.94448200  0.25000000  0.19642857  1.0
  Ni  Ni286  1  0.94448200  0.58333333  0.19642857  1.0
  Ni  Ni287  1  0.94448200  0.91666667  0.19642857  1.0
  Fe  Fe288  1  0.11128133  0.08333333  0.30327843  1.0
  Fe  Fe289  1  0.11128133  0.41666667  0.30327843  1.0
  Fe  Fe290  1  0.11128133  0.75000000  0.30327843  1.0
  Fe  Fe291  1  0.44461467  0.08333333  0.30327843  1.0
  Fe  Fe292  1  0.44461467  0.41666667  0.30327843  1.0
  Fe  Fe293  1  0.44461467  0.75000000  0.30327843  1.0
  Fe  Fe294  1  0.77794800  0.08333333  0.30327843  1.0
  Fe  Fe295  1  0.77794800  0.41666667  0.30327843  1.0
  Fe  Fe296  1  0.77794800  0.75000000  0.30327843  1.0
  Fe  Fe297  1  0.11128133  0.25000000  0.37470700  1.0
  Fe  Fe298  1  0.11128133  0.58333333  0.37470700  1.0
  Fe  Fe299  1  0.11128133  0.91666667  0.37470700  1.0
  Fe  Fe300  1  0.44461467  0.25000000  0.37470700  1.0
  Fe  Fe301  1  0.44461467  0.58333333  0.37470700  1.0
  Fe  Fe302  1  0.44461467  0.91666667  0.37470700  1.0
  Fe  Fe303  1  0.77794800  0.25000000  0.37470700  1.0
  Fe  Fe304  1  0.77794800  0.58333333  0.37470700  1.0
  Fe  Fe305  1  0.77794800  0.91666667  0.37470700  1.0
  Fe  Fe306  1  0.22205200  0.16666667  0.33899271  1.0
  Fe  Fe307  1  0.22205200  0.50000000  0.33899271  1.0
  Fe  Fe308  1  0.22205200  0.83333333  0.33899271  1.0
  Fe  Fe309  1  0.55538533  0.16666667  0.33899271  1.0
  Fe  Fe310  1  0.55538533  0.50000000  0.33899271  1.0
  Fe  Fe311  1  0.55538533  0.83333333  0.33899271  1.0
  Fe  Fe312  1  0.88871867  0.16666667  0.33899271  1.0
  Fe  Fe313  1  0.88871867  0.50000000  0.33899271  1.0
  Fe  Fe314  1  0.88871867  0.83333333  0.33899271  1.0
  Fe  Fe315  1  0.22205200  0.00000000  0.41042129  1.0
  Fe  Fe316  1  0.22205200  0.33333333  0.41042129  1.0
  Fe  Fe317  1  0.22205200  0.66666667  0.41042129  1.0
  Fe  Fe318  1  0.55538533  0.00000000  0.41042129  1.0
  Fe  Fe319  1  0.55538533  0.33333333  0.41042129  1.0
  Fe  Fe320  1  0.55538533  0.66666667  0.41042129  1.0
  Fe  Fe321  1  0.88871867  0.00000000  0.41042129  1.0
  Fe  Fe322  1  0.88871867  0.33333333  0.41042129  1.0
  Fe  Fe323  1  0.88871867  0.66666667  0.41042129  1.0
  Ni  Ni324  1  0.22328867  0.16666667  0.41042129  1.0
  Ni  Ni325  1  0.22328867  0.50000000  0.41042129  1.0
  Ni  Ni326  1  0.22328867  0.83333333  0.41042129  1.0
  Ni  Ni327  1  0.55662200  0.16666667  0.41042129  1.0
  Ni  Ni328  1  0.55662200  0.50000000  0.41042129  1.0
  Ni  Ni329  1  0.55662200  0.83333333  0.41042129  1.0
  Ni  Ni330  1  0.88995533  0.16666667  0.41042129  1.0
  Ni  Ni331  1  0.88995533  0.50000000  0.41042129  1.0
  Ni  Ni332  1  0.88995533  0.83333333  0.41042129  1.0
  Ni  Ni333  1  0.22328867  0.00000000  0.33899271  1.0
  Ni  Ni334  1  0.22328867  0.33333333  0.33899271  1.0
  Ni  Ni335  1  0.22328867  0.66666667  0.33899271  1.0
  Ni  Ni336  1  0.55662200  0.00000000  0.33899271  1.0
  Ni  Ni337  1  0.55662200  0.33333333  0.33899271  1.0
  Ni  Ni338  1  0.55662200  0.66666667  0.33899271  1.0
  Ni  Ni339  1  0.88995533  0.00000000  0.33899271  1.0
  Ni  Ni340  1  0.88995533  0.33333333  0.33899271  1.0
  Ni  Ni341  1  0.88995533  0.66666667  0.33899271  1.0
  Ni  Ni342  1  0.11004467  0.08333333  0.37470700  1.0
  Ni  Ni343  1  0.11004467  0.41666667  0.37470700  1.0
  Ni  Ni344  1  0.11004467  0.75000000  0.37470700  1.0
  Ni  Ni345  1  0.44337800  0.08333333  0.37470700  1.0
  Ni  Ni346  1  0.44337800  0.41666667  0.37470700  1.0
  Ni  Ni347  1  0.44337800  0.75000000  0.37470700  1.0
  Ni  Ni348  1  0.77671133  0.08333333  0.37470700  1.0
  Ni  Ni349  1  0.77671133  0.41666667  0.37470700  1.0
  Ni  Ni350  1  0.77671133  0.75000000  0.37470700  1.0
  Ni  Ni351  1  0.11004467  0.25000000  0.30327843  1.0
  Ni  Ni352  1  0.11004467  0.58333333  0.30327843  1.0
  Ni  Ni353  1  0.11004467  0.91666667  0.30327843  1.0
  Ni  Ni354  1  0.44337800  0.25000000  0.30327843  1.0
  Ni  Ni355  1  0.44337800  0.58333333  0.30327843  1.0
  Ni  Ni356  1  0.44337800  0.91666667  0.30327843  1.0
  Ni  Ni357  1  0.77671133  0.25000000  0.30327843  1.0
  Ni  Ni358  1  0.77671133  0.58333333  0.30327843  1.0
  Ni  Ni359  1  0.77671133  0.91666667  0.30327843  1.0
  Ni  Ni360  1  0.27781533  0.08333333  0.33869971  1.0
  Ni  Ni361  1  0.27781533  0.41666667  0.33869971  1.0
  Ni  Ni362  1  0.27781533  0.75000000  0.33869971  1.0
  Ni  Ni363  1  0.61114867  0.08333333  0.33869971  1.0
  Ni  Ni364  1  0.61114867  0.41666667  0.33869971  1.0
  Ni  Ni365  1  0.61114867  0.75000000  0.33869971  1.0
  Ni  Ni366  1  0.94448200  0.08333333  0.33869971  1.0
  Ni  Ni367  1  0.94448200  0.41666667  0.33869971  1.0
  Ni  Ni368  1  0.94448200  0.75000000  0.33869971  1.0
  Ni  Ni369  1  0.27781533  0.25000000  0.41012829  1.0
  Ni  Ni370  1  0.27781533  0.58333333  0.41012829  1.0
  Ni  Ni371  1  0.27781533  0.91666667  0.41012829  1.0
  Ni  Ni372  1  0.61114867  0.25000000  0.41012829  1.0
  Ni  Ni373  1  0.61114867  0.58333333  0.41012829  1.0
  Ni  Ni374  1  0.61114867  0.91666667  0.41012829  1.0
  Ni  Ni375  1  0.94448200  0.25000000  0.41012829  1.0
  Ni  Ni376  1  0.94448200  0.58333333  0.41012829  1.0
  Ni  Ni377  1  0.94448200  0.91666667  0.41012829  1.0
  Ni  Ni378  1  0.05551800  0.16666667  0.37441400  1.0
  Ni  Ni379  1  0.05551800  0.50000000  0.37441400  1.0
  Ni  Ni380  1  0.05551800  0.83333333  0.37441400  1.0
  Ni  Ni381  1  0.38885133  0.16666667  0.37441400  1.0
  Ni  Ni382  1  0.38885133  0.50000000  0.37441400  1.0
  Ni  Ni383  1  0.38885133  0.83333333  0.37441400  1.0
  Ni  Ni384  1  0.72218467  0.16666667  0.37441400  1.0
  Ni  Ni385  1  0.72218467  0.50000000  0.37441400  1.0
  Ni  Ni386  1  0.72218467  0.83333333  0.37441400  1.0
  Ni  Ni387  1  0.05551800  0.00000000  0.30298543  1.0
  Ni  Ni388  1  0.05551800  0.33333333  0.30298543  1.0
  Ni  Ni389  1  0.05551800  0.66666667  0.30298543  1.0
  Ni  Ni390  1  0.38885133  0.00000000  0.30298543  1.0
  Ni  Ni391  1  0.38885133  0.33333333  0.30298543  1.0
  Ni  Ni392  1  0.38885133  0.66666667  0.30298543  1.0
  Ni  Ni393  1  0.72218467  0.00000000  0.30298543  1.0
  Ni  Ni394  1  0.72218467  0.33333333  0.30298543  1.0
  Ni  Ni395  1  0.72218467  0.66666667  0.30298543  1.0
  Ni  Ni396  1  0.05551800  0.16666667  0.30357143  1.0
  Ni  Ni397  1  0.05551800  0.50000000  0.30357143  1.0
  Ni  Ni398  1  0.05551800  0.83333333  0.30357143  1.0
  Ni  Ni399  1  0.38885133  0.16666667  0.30357143  1.0
  Ni  Ni400  1  0.38885133  0.50000000  0.30357143  1.0
  Ni  Ni401  1  0.38885133  0.83333333  0.30357143  1.0
  Ni  Ni402  1  0.72218467  0.16666667  0.30357143  1.0
  Ni  Ni403  1  0.72218467  0.50000000  0.30357143  1.0
  Ni  Ni404  1  0.72218467  0.83333333  0.30357143  1.0
  Ni  Ni405  1  0.05551800  0.00000000  0.37500000  1.0
  Ni  Ni406  1  0.05551800  0.33333333  0.37500000  1.0
  Ni  Ni407  1  0.05551800  0.66666667  0.37500000  1.0
  Ni  Ni408  1  0.38885133  0.00000000  0.37500000  1.0
  Ni  Ni409  1  0.38885133  0.33333333  0.37500000  1.0
  Ni  Ni410  1  0.38885133  0.66666667  0.37500000  1.0
  Ni  Ni411  1  0.72218467  0.00000000  0.37500000  1.0
  Ni  Ni412  1  0.72218467  0.33333333  0.37500000  1.0
  Ni  Ni413  1  0.72218467  0.66666667  0.37500000  1.0
  Ni  Ni414  1  0.27781533  0.08333333  0.41071429  1.0
  Ni  Ni415  1  0.27781533  0.41666667  0.41071429  1.0
  Ni  Ni416  1  0.27781533  0.75000000  0.41071429  1.0
  Ni  Ni417  1  0.61114867  0.08333333  0.41071429  1.0
  Ni  Ni418  1  0.61114867  0.41666667  0.41071429  1.0
  Ni  Ni419  1  0.61114867  0.75000000  0.41071429  1.0
  Ni  Ni420  1  0.94448200  0.08333333  0.41071429  1.0
  Ni  Ni421  1  0.94448200  0.41666667  0.41071429  1.0
  Ni  Ni422  1  0.94448200  0.75000000  0.41071429  1.0
  Ni  Ni423  1  0.27781533  0.25000000  0.33928571  1.0
  Ni  Ni424  1  0.27781533  0.58333333  0.33928571  1.0
  Ni  Ni425  1  0.27781533  0.91666667  0.33928571  1.0
  Ni  Ni426  1  0.61114867  0.25000000  0.33928571  1.0
  Ni  Ni427  1  0.61114867  0.58333333  0.33928571  1.0
  Ni  Ni428  1  0.61114867  0.91666667  0.33928571  1.0
  Ni  Ni429  1  0.94448200  0.25000000  0.33928571  1.0
  Ni  Ni430  1  0.94448200  0.58333333  0.33928571  1.0
  Ni  Ni431  1  0.94448200  0.91666667  0.33928571  1.0
