# generated using pymatgen
data_FeNi3
_symmetry_space_group_name_H-M   'P 1'
_cell_length_a   16.89134399
_cell_length_b   20.68758692
_cell_length_c   25.18012893
_cell_angle_alpha   90.00000000
_cell_angle_beta   90.00000000
_cell_angle_gamma   114.09484255
_symmetry_Int_Tables_number   1
_chemical_formula_structural   FeNi3
_chemical_formula_sum   'Fe72 Ni216'
_cell_volume   8032.32678445
_cell_formula_units_Z   72
loop_
 _symmetry_equiv_pos_site_id
 _symmetry_equiv_pos_as_xyz
  1  'x, y, z'
loop_
 _atom_site_type_symbol
 _atom_site_label
 _atom_site_symmetry_multiplicity
 _atom_site_fract_x
 _atom_site_fract_y
 _atom_site_fract_z
 _atom_site_occupancy
  Fe  Fe0  1  0.07500000  0.19166667  0.03750000  1.0
  Fe  Fe1  1  0.07500000  0.52500000  0.03750000  1.0
  Fe  Fe2  1  0.07500000  0.85833333  0.03750000  1.0
  Fe  Fe3  1  0.40833333  0.19166667  0.03750000  1.0
  Fe  Fe4  1  0.40833333  0.52500000  0.03750000  1.0
  Fe  Fe5  1  0.40833333  0.85833333  0.03750000  1.0
  Fe  Fe6  1  0.74166667  0.19166667  0.03750000  1.0
  Fe  Fe7  1  0.74166667  0.52500000  0.03750000  1.0
  Fe  Fe8  1  0.74166667  0.85833333  0.03750000  1.0
  Fe  Fe9  1  0.17500000  0.05833333  0.08750000  1.0
  Fe  Fe10  1  0.17500000  0.39166667  0.08750000  1.0
  Fe  Fe11  1  0.17500000  0.72500000  0.08750000  1.0
  Fe  Fe12  1  0.50833333  0.05833333  0.08750000  1.0
  Fe  Fe13  1  0.50833333  0.39166667  0.08750000  1.0
  Fe  Fe14  1  0.50833333  0.72500000  0.08750000  1.0
  Fe  Fe15  1  0.84166667  0.05833333  0.08750000  1.0
  Fe  Fe16  1  0.84166667  0.39166667  0.08750000  1.0
  Fe  Fe17  1  0.84166667  0.72500000  0.08750000  1.0
  Fe  Fe18  1  0.27500000  0.25833333  0.13750000  1.0
  Fe  Fe19  1  0.27500000  0.59166667  0.13750000  1.0
  Fe  Fe20  1  0.27500000  0.92500000  0.13750000  1.0
  Fe  Fe21  1  0.60833333  0.25833333  0.13750000  1.0
  Fe  Fe22  1  0.60833333  0.59166667  0.13750000  1.0
  Fe  Fe23  1  0.60833333  0.92500000  0.13750000  1.0
  Fe  Fe24  1  0.94166667  0.25833333  0.13750000  1.0
  Fe  Fe25  1  0.94166667  0.59166667  0.13750000  1.0
  Fe  Fe26  1  0.94166667  0.92500000  0.13750000  1.0
  Fe  Fe27  1  0.04166667  0.12500000  0.18750000  1.0
  Fe  Fe28  1  0.04166667  0.45833333  0.18750000  1.0
  Fe  Fe29  1  0.04166667  0.79166667  0.18750000  1.0
  Fe  Fe30  1  0.37500000  0.12500000  0.18750000  1.0
  Fe  Fe31  1  0.37500000  0.45833333  0.18750000  1.0
  Fe  Fe32  1  0.37500000  0.79166667  0.18750000  1.0
  Fe  Fe33  1  0.70833333  0.12500000  0.18750000  1.0
  Fe  Fe34  1  0.70833333  0.45833333  0.18750000  1.0
  Fe  Fe35  1  0.70833333  0.79166667  0.18750000  1.0
  Fe  Fe36  1  0.14166667  0.32500000  0.23750000  1.0
  Fe  Fe37  1  0.14166667  0.65833333  0.23750000  1.0
  Fe  Fe38  1  0.14166667  0.99166667  0.23750000  1.0
  Fe  Fe39  1  0.47500000  0.32500000  0.23750000  1.0
  Fe  Fe40  1  0.47500000  0.65833333  0.23750000  1.0
  Fe  Fe41  1  0.47500000  0.99166667  0.23750000  1.0
  Fe  Fe42  1  0.80833333  0.32500000  0.23750000  1.0
  Fe  Fe43  1  0.80833333  0.65833333  0.23750000  1.0
  Fe  Fe44  1  0.80833333  0.99166667  0.23750000  1.0
  Fe  Fe45  1  0.24166667  0.19166667  0.28750000  1.0
  Fe  Fe46  1  0.24166667  0.52500000  0.28750000  1.0
  Fe  Fe47  1  0.24166667  0.85833333  0.28750000  1.0
  Fe  Fe48  1  0.57500000  0.19166667  0.28750000  1.0
  Fe  Fe49  1  0.57500000  0.52500000  0.28750000  1.0
  Fe  Fe50  1  0.57500000  0.85833333  0.28750000  1.0
  Fe  Fe51  1  0.90833333  0.19166667  0.28750000  1.0
  Fe  Fe52  1  0.90833333  0.52500000  0.28750000  1.0
  Fe  Fe53  1  0.90833333  0.85833333  0.28750000  1.0
  Fe  Fe54  1  0.00833333  0.05833333  0.33750000  1.0
  Fe  Fe55  1  0.00833333  0.39166667  0.33750000  1.0
  Fe  Fe56  1  0.00833333  0.72500000  0.33750000  1.0
  Fe  Fe57  1  0.34166667  0.05833333  0.33750000  1.0
  Fe  Fe58  1  0.34166667  0.39166667  0.33750000  1.0
  Fe  Fe59  1  0.34166667  0.72500000  0.33750000  1.0
  Fe  Fe60  1  0.67500000  0.05833333  0.33750000  1.0
  Fe  Fe61  1  0.67500000  0.39166667  0.33750000  1.0
  Fe  Fe62  1  0.67500000  0.72500000  0.33750000  1.0
  Fe  Fe63  1  0.10833333  0.25833333  0.38750000  1.0
  Fe  Fe64  1  0.10833333  0.59166667  0.38750000  1.0
  Fe  Fe65  1  0.10833333  0.92500000  0.38750000  1.0
  Fe  Fe66  1  0.44166667  0.25833333  0.38750000  1.0
  Fe  Fe67  1  0.44166667  0.59166667  0.38750000  1.0
  Fe  Fe68  1  0.44166667  0.92500000  0.38750000  1.0
  Fe  Fe69  1  0.77500000  0.25833333  0.38750000  1.0
  Fe  Fe70  1  0.77500000  0.59166667  0.38750000  1.0
  Fe  Fe71  1  0.77500000  0.92500000  0.38750000  1.0
  Ni  Ni72  1  0.20833333  0.29166667  0.06250000  1.0
  Ni  Ni73  1  0.20833333  0.62500000  0.06250000  1.0
  Ni  Ni74  1  0.20833333  0.95833333  0.06250000  1.0
  Ni  Ni75  1  0.54166667  0.29166667  0.06250000  1.0
  Ni  Ni76  1  0.54166667  0.62500000  0.06250000  1.0
  Ni  Ni77  1  0.54166667  0.95833333  0.06250000  1.0
  Ni  Ni78  1  0.87500000  0.29166667  0.06250000  1.0
  Ni  Ni79  1  0.87500000  0.62500000  0.06250000  1.0
  Ni  Ni80  1  0.87500000  0.95833333  0.06250000  1.0
  Ni  Ni81  1  0.10833333  0.09166667  0.01250000  1.0
  Ni  Ni82  1  0.10833333  0.42500000  0.01250000  1.0
  Ni  Ni83  1  0.10833333  0.75833333  0.01250000  1.0
  Ni  Ni84  1  0.44166667  0.09166667  0.01250000  1.0
  Ni  Ni85  1  0.44166667  0.42500000  0.01250000  1.0
  Ni  Ni86  1  0.44166667  0.75833333  0.01250000  1.0
  Ni  Ni87  1  0.77500000  0.09166667  0.01250000  1.0
  Ni  Ni88  1  0.77500000  0.42500000  0.01250000  1.0
  Ni  Ni89  1  0.77500000  0.75833333  0.01250000  1.0
  Ni  Ni90  1  0.27500000  0.09166667  0.01250000  1.0
  Ni  Ni91  1  0.27500000  0.42500000  0.01250000  1.0
  Ni  Ni92  1  0.27500000  0.75833333  0.01250000  1.0
  Ni  Ni93  1  0.60833333  0.09166667  0.01250000  1.0
  Ni  Ni94  1  0.60833333  0.42500000  0.01250000  1.0
  Ni  Ni95  1  0.60833333  0.75833333  0.01250000  1.0
  Ni  Ni96  1  0.94166667  0.09166667  0.01250000  1.0
  Ni  Ni97  1  0.94166667  0.42500000  0.01250000  1.0
  Ni  Ni98  1  0.94166667  0.75833333  0.01250000  1.0
  Ni  Ni99  1  0.04166667  0.29166667  0.06250000  1.0
  Ni  Ni100  1  0.04166667  0.62500000  0.06250000  1.0
  Ni  Ni101  1  0.04166667  0.95833333  0.06250000  1.0
  Ni  Ni102  1  0.37500000  0.29166667  0.06250000  1.0
  Ni  Ni103  1  0.37500000  0.62500000  0.06250000  1.0
  Ni  Ni104  1  0.37500000  0.95833333  0.06250000  1.0
  Ni  Ni105  1  0.70833333  0.29166667  0.06250000  1.0
  Ni  Ni106  1  0.70833333  0.62500000  0.06250000  1.0
  Ni  Ni107  1  0.70833333  0.95833333  0.06250000  1.0
  Ni  Ni108  1  0.00833333  0.05833333  0.08750000  1.0
  Ni  Ni109  1  0.00833333  0.39166667  0.08750000  1.0
  Ni  Ni110  1  0.00833333  0.72500000  0.08750000  1.0
  Ni  Ni111  1  0.34166667  0.05833333  0.08750000  1.0
  Ni  Ni112  1  0.34166667  0.39166667  0.08750000  1.0
  Ni  Ni113  1  0.34166667  0.72500000  0.08750000  1.0
  Ni  Ni114  1  0.67500000  0.05833333  0.08750000  1.0
  Ni  Ni115  1  0.67500000  0.39166667  0.08750000  1.0
  Ni  Ni116  1  0.67500000  0.72500000  0.08750000  1.0
  Ni  Ni117  1  0.24166667  0.19166667  0.03750000  1.0
  Ni  Ni118  1  0.24166667  0.52500000  0.03750000  1.0
  Ni  Ni119  1  0.24166667  0.85833333  0.03750000  1.0
  Ni  Ni120  1  0.57500000  0.19166667  0.03750000  1.0
  Ni  Ni121  1  0.57500000  0.52500000  0.03750000  1.0
  Ni  Ni122  1  0.57500000  0.85833333  0.03750000  1.0
  Ni  Ni123  1  0.90833333  0.19166667  0.03750000  1.0
  Ni  Ni124  1  0.90833333  0.52500000  0.03750000  1.0
  Ni  Ni125  1  0.90833333  0.85833333  0.03750000  1.0
  Ni  Ni126  1  0.07500000  0.02500000  0.16250000  1.0
  Ni  Ni127  1  0.07500000  0.35833333  0.16250000  1.0
  Ni  Ni128  1  0.07500000  0.69166667  0.16250000  1.0
  Ni  Ni129  1  0.40833333  0.02500000  0.16250000  1.0
  Ni  Ni130  1  0.40833333  0.35833333  0.16250000  1.0
  Ni  Ni131  1  0.40833333  0.69166667  0.16250000  1.0
  Ni  Ni132  1  0.74166667  0.02500000  0.16250000  1.0
  Ni  Ni133  1  0.74166667  0.35833333  0.16250000  1.0
  Ni  Ni134  1  0.74166667  0.69166667  0.16250000  1.0
  Ni  Ni135  1  0.30833333  0.15833333  0.11250000  1.0
  Ni  Ni136  1  0.30833333  0.49166667  0.11250000  1.0
  Ni  Ni137  1  0.30833333  0.82500000  0.11250000  1.0
  Ni  Ni138  1  0.64166667  0.15833333  0.11250000  1.0
  Ni  Ni139  1  0.64166667  0.49166667  0.11250000  1.0
  Ni  Ni140  1  0.64166667  0.82500000  0.11250000  1.0
  Ni  Ni141  1  0.97500000  0.15833333  0.11250000  1.0
  Ni  Ni142  1  0.97500000  0.49166667  0.11250000  1.0
  Ni  Ni143  1  0.97500000  0.82500000  0.11250000  1.0
  Ni  Ni144  1  0.14166667  0.15833333  0.11250000  1.0
  Ni  Ni145  1  0.14166667  0.49166667  0.11250000  1.0
  Ni  Ni146  1  0.14166667  0.82500000  0.11250000  1.0
  Ni  Ni147  1  0.47500000  0.15833333  0.11250000  1.0
  Ni  Ni148  1  0.47500000  0.49166667  0.11250000  1.0
  Ni  Ni149  1  0.47500000  0.82500000  0.11250000  1.0
  Ni  Ni150  1  0.80833333  0.15833333  0.11250000  1.0
  Ni  Ni151  1  0.80833333  0.49166667  0.11250000  1.0
  Ni  Ni152  1  0.80833333  0.82500000  0.11250000  1.0
  Ni  Ni153  1  0.24166667  0.02500000  0.16250000  1.0
  Ni  Ni154  1  0.24166667  0.35833333  0.16250000  1.0
  Ni  Ni155  1  0.24166667  0.69166667  0.16250000  1.0
  Ni  Ni156  1  0.57500000  0.02500000  0.16250000  1.0
  Ni  Ni157  1  0.57500000  0.35833333  0.16250000  1.0
  Ni  Ni158  1  0.57500000  0.69166667  0.16250000  1.0
  Ni  Ni159  1  0.90833333  0.02500000  0.16250000  1.0
  Ni  Ni160  1  0.90833333  0.35833333  0.16250000  1.0
  Ni  Ni161  1  0.90833333  0.69166667  0.16250000  1.0
  Ni  Ni162  1  0.20833333  0.12500000  0.18750000  1.0
  Ni  Ni163  1  0.20833333  0.45833333  0.18750000  1.0
  Ni  Ni164  1  0.20833333  0.79166667  0.18750000  1.0
  Ni  Ni165  1  0.54166667  0.12500000  0.18750000  1.0
  Ni  Ni166  1  0.54166667  0.45833333  0.18750000  1.0
  Ni  Ni167  1  0.54166667  0.79166667  0.18750000  1.0
  Ni  Ni168  1  0.87500000  0.12500000  0.18750000  1.0
  Ni  Ni169  1  0.87500000  0.45833333  0.18750000  1.0
  Ni  Ni170  1  0.87500000  0.79166667  0.18750000  1.0
  Ni  Ni171  1  0.10833333  0.25833333  0.13750000  1.0
  Ni  Ni172  1  0.10833333  0.59166667  0.13750000  1.0
  Ni  Ni173  1  0.10833333  0.92500000  0.13750000  1.0
  Ni  Ni174  1  0.44166667  0.25833333  0.13750000  1.0
  Ni  Ni175  1  0.44166667  0.59166667  0.13750000  1.0
  Ni  Ni176  1  0.44166667  0.92500000  0.13750000  1.0
  Ni  Ni177  1  0.77500000  0.25833333  0.13750000  1.0
  Ni  Ni178  1  0.77500000  0.59166667  0.13750000  1.0
  Ni  Ni179  1  0.77500000  0.92500000  0.13750000  1.0
  Ni  Ni180  1  0.27500000  0.09166667  0.26250000  1.0
  Ni  Ni181  1  0.27500000  0.42500000  0.26250000  1.0
  Ni  Ni182  1  0.27500000  0.75833333  0.26250000  1.0
  Ni  Ni183  1  0.60833333  0.09166667  0.26250000  1.0
  Ni  Ni184  1  0.60833333  0.42500000  0.26250000  1.0
  Ni  Ni185  1  0.60833333  0.75833333  0.26250000  1.0
  Ni  Ni186  1  0.94166667  0.09166667  0.26250000  1.0
  Ni  Ni187  1  0.94166667  0.42500000  0.26250000  1.0
  Ni  Ni188  1  0.94166667  0.75833333  0.26250000  1.0
  Ni  Ni189  1  0.17500000  0.22500000  0.21250000  1.0
  Ni  Ni190  1  0.17500000  0.55833333  0.21250000  1.0
  Ni  Ni191  1  0.17500000  0.89166667  0.21250000  1.0
  Ni  Ni192  1  0.50833333  0.22500000  0.21250000  1.0
  Ni  Ni193  1  0.50833333  0.55833333  0.21250000  1.0
  Ni  Ni194  1  0.50833333  0.89166667  0.21250000  1.0
  Ni  Ni195  1  0.84166667  0.22500000  0.21250000  1.0
  Ni  Ni196  1  0.84166667  0.55833333  0.21250000  1.0
  Ni  Ni197  1  0.84166667  0.89166667  0.21250000  1.0
  Ni  Ni198  1  0.00833333  0.22500000  0.21250000  1.0
  Ni  Ni199  1  0.00833333  0.55833333  0.21250000  1.0
  Ni  Ni200  1  0.00833333  0.89166667  0.21250000  1.0
  Ni  Ni201  1  0.34166667  0.22500000  0.21250000  1.0
  Ni  Ni202  1  0.34166667  0.55833333  0.21250000  1.0
  Ni  Ni203  1  0.34166667  0.89166667  0.21250000  1.0
  Ni  Ni204  1  0.67500000  0.22500000  0.21250000  1.0
  Ni  Ni205  1  0.67500000  0.55833333  0.21250000  1.0
  Ni  Ni206  1  0.67500000  0.89166667  0.21250000  1.0
  Ni  Ni207  1  0.10833333  0.09166667  0.26250000  1.0
  Ni  Ni208  1  0.10833333  0.42500000  0.26250000  1.0
  Ni  Ni209  1  0.10833333  0.75833333  0.26250000  1.0
  Ni  Ni210  1  0.44166667  0.09166667  0.26250000  1.0
  Ni  Ni211  1  0.44166667  0.42500000  0.26250000  1.0
  Ni  Ni212  1  0.44166667  0.75833333  0.26250000  1.0
  Ni  Ni213  1  0.77500000  0.09166667  0.26250000  1.0
  Ni  Ni214  1  0.77500000  0.42500000  0.26250000  1.0
  Ni  Ni215  1  0.77500000  0.75833333  0.26250000  1.0
  Ni  Ni216  1  0.07500000  0.19166667  0.28750000  1.0
  Ni  Ni217  1  0.07500000  0.52500000  0.28750000  1.0
  Ni  Ni218  1  0.07500000  0.85833333  0.28750000  1.0
  Ni  Ni219  1  0.40833333  0.19166667  0.28750000  1.0
  Ni  Ni220  1  0.40833333  0.52500000  0.28750000  1.0
  Ni  Ni221  1  0.40833333  0.85833333  0.28750000  1.0
  Ni  Ni222  1  0.74166667  0.19166667  0.28750000  1.0
  Ni  Ni223  1  0.74166667  0.52500000  0.28750000  1.0
  Ni  Ni224  1  0.74166667  0.85833333  0.28750000  1.0
  Ni  Ni225  1  0.30833333  0.32500000  0.23750000  1.0
  Ni  Ni226  1  0.30833333  0.65833333  0.23750000  1.0
  Ni  Ni227  1  0.30833333  0.99166667  0.23750000  1.0
  Ni  Ni228  1  0.64166667  0.32500000  0.23750000  1.0
  Ni  Ni229  1  0.64166667  0.65833333  0.23750000  1.0
  Ni  Ni230  1  0.64166667  0.99166667  0.23750000  1.0
  Ni  Ni231  1  0.97500000  0.32500000  0.23750000  1.0
  Ni  Ni232  1  0.97500000  0.65833333  0.23750000  1.0
  Ni  Ni233  1  0.97500000  0.99166667  0.23750000  1.0
  Ni  Ni234  1  0.14166667  0.15833333  0.36250000  1.0
  Ni  Ni235  1  0.14166667  0.49166667  0.36250000  1.0
  Ni  Ni236  1  0.14166667  0.82500000  0.36250000  1.0
  Ni  Ni237  1  0.47500000  0.15833333  0.36250000  1.0
  Ni  Ni238  1  0.47500000  0.49166667  0.36250000  1.0
  Ni  Ni239  1  0.47500000  0.82500000  0.36250000  1.0
  Ni  Ni240  1  0.80833333  0.15833333  0.36250000  1.0
  Ni  Ni241  1  0.80833333  0.49166667  0.36250000  1.0
  Ni  Ni242  1  0.80833333  0.82500000  0.36250000  1.0
  Ni  Ni243  1  0.04166667  0.29166667  0.31250000  1.0
  Ni  Ni244  1  0.04166667  0.62500000  0.31250000  1.0
  Ni  Ni245  1  0.04166667  0.95833333  0.31250000  1.0
  Ni  Ni246  1  0.37500000  0.29166667  0.31250000  1.0
  Ni  Ni247  1  0.37500000  0.62500000  0.31250000  1.0
  Ni  Ni248  1  0.37500000  0.95833333  0.31250000  1.0
  Ni  Ni249  1  0.70833333  0.29166667  0.31250000  1.0
  Ni  Ni250  1  0.70833333  0.62500000  0.31250000  1.0
  Ni  Ni251  1  0.70833333  0.95833333  0.31250000  1.0
  Ni  Ni252  1  0.20833333  0.29166667  0.31250000  1.0
  Ni  Ni253  1  0.20833333  0.62500000  0.31250000  1.0
  Ni  Ni254  1  0.20833333  0.95833333  0.31250000  1.0
  Ni  Ni255  1  0.54166667  0.29166667  0.31250000  1.0
  Ni  Ni256  1  0.54166667  0.62500000  0.31250000  1.0
  Ni  Ni257  1  0.54166667  0.95833333  0.31250000  1.0
  Ni  Ni258  1  0.87500000  0.29166667  0.31250000  1.0
  Ni  Ni259  1  0.87500000  0.62500000  0.31250000  1.0
  Ni  Ni260  1  0.87500000  0.95833333  0.31250000  1.0
  Ni  Ni261  1  0.30833333  0.15833333  0.36250000  1.0
  Ni  Ni262  1  0.30833333  0.49166667  0.36250000  1.0
  Ni  Ni263  1  0.30833333  0.82500000  0.36250000  1.0
  Ni  Ni264  1  0.64166667  0.15833333  0.36250000  1.0
  Ni  Ni265  1  0.64166667  0.49166667  0.36250000  1.0
  Ni  Ni266  1  0.64166667  0.82500000  0.36250000  1.0
  Ni  Ni267  1  0.97500000  0.15833333  0.36250000  1.0
  Ni  Ni268  1  0.97500000  0.49166667  0.36250000  1.0
  Ni  Ni269  1  0.97500000  0.82500000  0.36250000  1.0
  Ni  Ni270  1  0.27500000  0.25833333  0.38750000  1.0
  Ni  Ni271  1  0.27500000  0.59166667  0.38750000  1.0
  Ni  Ni272  1  0.27500000  0.92500000  0.38750000  1.0
  Ni  Ni273  1  0.60833333  0.25833333  0.38750000  1.0
  Ni  Ni274  1  0.60833333  0.59166667  0.38750000  1.0
  Ni  Ni275  1  0.60833333  0.92500000  0.38750000  1.0
  Ni  Ni276  1  0.94166667  0.25833333  0.38750000  1.0
  Ni  Ni277  1  0.94166667  0.59166667  0.38750000  1.0
  Ni  Ni278  1  0.94166667  0.92500000  0.38750000  1.0
  Ni  Ni279  1  0.17500000  0.05833333  0.33750000  1.0
  Ni  Ni280  1  0.17500000  0.39166667  0.33750000  1.0
  Ni  Ni281  1  0.17500000  0.72500000  0.33750000  1.0
  Ni  Ni282  1  0.50833333  0.05833333  0.33750000  1.0
  Ni  Ni283  1  0.50833333  0.39166667  0.33750000  1.0
  Ni  Ni284  1  0.50833333  0.72500000  0.33750000  1.0
  Ni  Ni285  1  0.84166667  0.05833333  0.33750000  1.0
  Ni  Ni286  1  0.84166667  0.39166667  0.33750000  1.0
  Ni  Ni287  1  0.84166667  0.72500000  0.33750000  1.0
