# generated using pymatgen
data_FeNi
_symmetry_space_group_name_H-M   'P 1'
_cell_length_a   13.13862108
_cell_length_b   25.16996800
_cell_length_c   87.59080720
_cell_angle_alpha   16.69214975
_cell_angle_beta   33.38429950
_cell_angle_gamma   29.33948185
_symmetry_Int_Tables_number   1
_chemical_formula_structural   FeNi
_chemical_formula_sum   'Fe72 Ni72'
_cell_volume   4076.62669830
_cell_formula_units_Z   72
loop_
 _symmetry_equiv_pos_site_id
 _symmetry_equiv_pos_as_xyz
  1  'x, y, z'
loop_
 _atom_site_type_symbol
 _atom_site_label
 _atom_site_symmetry_multiplicity
 _atom_site_fract_x
 _atom_site_fract_y
 _atom_site_fract_z
 _atom_site_occupancy
  Fe  Fe0  1  0.00000000  0.00000000  0.02500000  1.0
  Fe  Fe1  1  0.00000000  0.33333333  0.02500000  1.0
  Fe  Fe2  1  0.00000000  0.66666667  0.02500000  1.0
  Fe  Fe3  1  0.33333333  0.00000000  0.02500000  1.0
  Fe  Fe4  1  0.33333333  0.33333333  0.02500000  1.0
  Fe  Fe5  1  0.33333333  0.66666667  0.02500000  1.0
  Fe  Fe6  1  0.66666667  0.00000000  0.02500000  1.0
  Fe  Fe7  1  0.66666667  0.33333333  0.02500000  1.0
  Fe  Fe8  1  0.66666667  0.66666667  0.02500000  1.0
  Ni  Ni9  1  0.16666667  0.16666667  0.02500000  1.0
  Ni  Ni10  1  0.16666667  0.50000000  0.02500000  1.0
  Ni  Ni11  1  0.16666667  0.83333333  0.02500000  1.0
  Ni  Ni12  1  0.50000000  0.16666667  0.02500000  1.0
  Ni  Ni13  1  0.50000000  0.50000000  0.02500000  1.0
  Ni  Ni14  1  0.50000000  0.83333333  0.02500000  1.0
  Ni  Ni15  1  0.83333333  0.16666667  0.02500000  1.0
  Ni  Ni16  1  0.83333333  0.50000000  0.02500000  1.0
  Ni  Ni17  1  0.83333333  0.83333333  0.02500000  1.0
  Fe  Fe18  1  0.00000000  0.00000000  0.07500000  1.0
  Fe  Fe19  1  0.00000000  0.33333333  0.07500000  1.0
  Fe  Fe20  1  0.00000000  0.66666667  0.07500000  1.0
  Fe  Fe21  1  0.33333333  0.00000000  0.07500000  1.0
  Fe  Fe22  1  0.33333333  0.33333333  0.07500000  1.0
  Fe  Fe23  1  0.33333333  0.66666667  0.07500000  1.0
  Fe  Fe24  1  0.66666667  0.00000000  0.07500000  1.0
  Fe  Fe25  1  0.66666667  0.33333333  0.07500000  1.0
  Fe  Fe26  1  0.66666667  0.66666667  0.07500000  1.0
  Ni  Ni27  1  0.16666667  0.16666667  0.07500000  1.0
  Ni  Ni28  1  0.16666667  0.50000000  0.07500000  1.0
  Ni  Ni29  1  0.16666667  0.83333333  0.07500000  1.0
  Ni  Ni30  1  0.50000000  0.16666667  0.07500000  1.0
  Ni  Ni31  1  0.50000000  0.50000000  0.07500000  1.0
  Ni  Ni32  1  0.50000000  0.83333333  0.07500000  1.0
  Ni  Ni33  1  0.83333333  0.16666667  0.07500000  1.0
  Ni  Ni34  1  0.83333333  0.50000000  0.07500000  1.0
  Ni  Ni35  1  0.83333333  0.83333333  0.07500000  1.0
  Fe  Fe36  1  0.00000000  0.00000000  0.12500000  1.0
  Fe  Fe37  1  0.00000000  0.33333333  0.12500000  1.0
  Fe  Fe38  1  0.00000000  0.66666667  0.12500000  1.0
  Fe  Fe39  1  0.33333333  0.00000000  0.12500000  1.0
  Fe  Fe40  1  0.33333333  0.33333333  0.12500000  1.0
  Fe  Fe41  1  0.33333333  0.66666667  0.12500000  1.0
  Fe  Fe42  1  0.66666667  0.00000000  0.12500000  1.0
  Fe  Fe43  1  0.66666667  0.33333333  0.12500000  1.0
  Fe  Fe44  1  0.66666667  0.66666667  0.12500000  1.0
  Ni  Ni45  1  0.16666667  0.16666667  0.12500000  1.0
  Ni  Ni46  1  0.16666667  0.50000000  0.12500000  1.0
  Ni  Ni47  1  0.16666667  0.83333333  0.12500000  1.0
  Ni  Ni48  1  0.50000000  0.16666667  0.12500000  1.0
  Ni  Ni49  1  0.50000000  0.50000000  0.12500000  1.0
  Ni  Ni50  1  0.50000000  0.83333333  0.12500000  1.0
  Ni  Ni51  1  0.83333333  0.16666667  0.12500000  1.0
  Ni  Ni52  1  0.83333333  0.50000000  0.12500000  1.0
  Ni  Ni53  1  0.83333333  0.83333333  0.12500000  1.0
  Fe  Fe54  1  0.00000000  0.00000000  0.17500000  1.0
  Fe  Fe55  1  0.00000000  0.33333333  0.17500000  1.0
  Fe  Fe56  1  0.00000000  0.66666667  0.17500000  1.0
  Fe  Fe57  1  0.33333333  0.00000000  0.17500000  1.0
  Fe  Fe58  1  0.33333333  0.33333333  0.17500000  1.0
  Fe  Fe59  1  0.33333333  0.66666667  0.17500000  1.0
  Fe  Fe60  1  0.66666667  0.00000000  0.17500000  1.0
  Fe  Fe61  1  0.66666667  0.33333333  0.17500000  1.0
  Fe  Fe62  1  0.66666667  0.66666667  0.17500000  1.0
  Ni  Ni63  1  0.16666667  0.16666667  0.17500000  1.0
  Ni  Ni64  1  0.16666667  0.50000000  0.17500000  1.0
  Ni  Ni65  1  0.16666667  0.83333333  0.17500000  1.0
  Ni  Ni66  1  0.50000000  0.16666667  0.17500000  1.0
  Ni  Ni67  1  0.50000000  0.50000000  0.17500000  1.0
  Ni  Ni68  1  0.50000000  0.83333333  0.17500000  1.0
  Ni  Ni69  1  0.83333333  0.16666667  0.17500000  1.0
  Ni  Ni70  1  0.83333333  0.50000000  0.17500000  1.0
  Ni  Ni71  1  0.83333333  0.83333333  0.17500000  1.0
  Fe  Fe72  1  0.00000000  0.00000000  0.22500000  1.0
  Fe  Fe73  1  0.00000000  0.33333333  0.22500000  1.0
  Fe  Fe74  1  0.00000000  0.66666667  0.22500000  1.0
  Fe  Fe75  1  0.33333333  0.00000000  0.22500000  1.0
  Fe  Fe76  1  0.33333333  0.33333333  0.22500000  1.0
  Fe  Fe77  1  0.33333333  0.66666667  0.22500000  1.0
  Fe  Fe78  1  0.66666667  0.00000000  0.22500000  1.0
  Fe  Fe79  1  0.66666667  0.33333333  0.22500000  1.0
  Fe  Fe80  1  0.66666667  0.66666667  0.22500000  1.0
  Ni  Ni81  1  0.16666667  0.16666667  0.22500000  1.0
  Ni  Ni82  1  0.16666667  0.50000000  0.22500000  1.0
  Ni  Ni83  1  0.16666667  0.83333333  0.22500000  1.0
  Ni  Ni84  1  0.50000000  0.16666667  0.22500000  1.0
  Ni  Ni85  1  0.50000000  0.50000000  0.22500000  1.0
  Ni  Ni86  1  0.50000000  0.83333333  0.22500000  1.0
  Ni  Ni87  1  0.83333333  0.16666667  0.22500000  1.0
  Ni  Ni88  1  0.83333333  0.50000000  0.22500000  1.0
  Ni  Ni89  1  0.83333333  0.83333333  0.22500000  1.0
  Fe  Fe90  1  0.00000000  0.00000000  0.27500000  1.0
  Fe  Fe91  1  0.00000000  0.33333333  0.27500000  1.0
  Fe  Fe92  1  0.00000000  0.66666667  0.27500000  1.0
  Fe  Fe93  1  0.33333333  0.00000000  0.27500000  1.0
  Fe  Fe94  1  0.33333333  0.33333333  0.27500000  1.0
  Fe  Fe95  1  0.33333333  0.66666667  0.27500000  1.0
  Fe  Fe96  1  0.66666667  0.00000000  0.27500000  1.0
  Fe  Fe97  1  0.66666667  0.33333333  0.27500000  1.0
  Fe  Fe98  1  0.66666667  0.66666667  0.27500000  1.0
  Ni  Ni99  1  0.16666667  0.16666667  0.27500000  1.0
  Ni  Ni100  1  0.16666667  0.50000000  0.27500000  1.0
  Ni  Ni101  1  0.16666667  0.83333333  0.27500000  1.0
  Ni  Ni102  1  0.50000000  0.16666667  0.27500000  1.0
  Ni  Ni103  1  0.50000000  0.50000000  0.27500000  1.0
  Ni  Ni104  1  0.50000000  0.83333333  0.27500000  1.0
  Ni  Ni105  1  0.83333333  0.16666667  0.27500000  1.0
  Ni  Ni106  1  0.83333333  0.50000000  0.27500000  1.0
  Ni  Ni107  1  0.83333333  0.83333333  0.27500000  1.0
  Fe  Fe108  1  0.00000000  0.00000000  0.32500000  1.0
  Fe  Fe109  1  0.00000000  0.33333333  0.32500000  1.0
  Fe  Fe110  1  0.00000000  0.66666667  0.32500000  1.0
  Fe  Fe111  1  0.33333333  0.00000000  0.32500000  1.0
  Fe  Fe112  1  0.33333333  0.33333333  0.32500000  1.0
  Fe  Fe113  1  0.33333333  0.66666667  0.32500000  1.0
  Fe  Fe114  1  0.66666667  0.00000000  0.32500000  1.0
  Fe  Fe115  1  0.66666667  0.33333333  0.32500000  1.0
  Fe  Fe116  1  0.66666667  0.66666667  0.32500000  1.0
  Ni  Ni117  1  0.16666667  0.16666667  0.32500000  1.0
  Ni  Ni118  1  0.16666667  0.50000000  0.32500000  1.0
  Ni  Ni119  1  0.16666667  0.83333333  0.32500000  1.0
  Ni  Ni120  1  0.50000000  0.16666667  0.32500000  1.0
  Ni  Ni121  1  0.50000000  0.50000000  0.32500000  1.0
  Ni  Ni122  1  0.50000000  0.83333333  0.32500000  1.0
  Ni  Ni123  1  0.83333333  0.16666667  0.32500000  1.0
  Ni  Ni124  1  0.83333333  0.50000000  0.32500000  1.0
  Ni  Ni125  1  0.83333333  0.83333333  0.32500000  1.0
  Fe  Fe126  1  0.00000000  0.00000000  0.37500000  1.0
  Fe  Fe127  1  0.00000000  0.33333333  0.37500000  1.0
  Fe  Fe128  1  0.00000000  0.66666667  0.37500000  1.0
  Fe  Fe129  1  0.33333333  0.00000000  0.37500000  1.0
  Fe  Fe130  1  0.33333333  0.33333333  0.37500000  1.0
  Fe  Fe131  1  0.33333333  0.66666667  0.37500000  1.0
  Fe  Fe132  1  0.66666667  0.00000000  0.37500000  1.0
  Fe  Fe133  1  0.66666667  0.33333333  0.37500000  1.0
  Fe  Fe134  1  0.66666667  0.66666667  0.37500000  1.0
  Ni  Ni135  1  0.16666667  0.16666667  0.37500000  1.0
  Ni  Ni136  1  0.16666667  0.50000000  0.37500000  1.0
  Ni  Ni137  1  0.16666667  0.83333333  0.37500000  1.0
  Ni  Ni138  1  0.50000000  0.16666667  0.37500000  1.0
  Ni  Ni139  1  0.50000000  0.50000000  0.37500000  1.0
  Ni  Ni140  1  0.50000000  0.83333333  0.37500000  1.0
  Ni  Ni141  1  0.83333333  0.16666667  0.37500000  1.0
  Ni  Ni142  1  0.83333333  0.50000000  0.37500000  1.0
  Ni  Ni143  1  0.83333333  0.83333333  0.37500000  1.0
