# generated using pymatgen
data_FeNi
_symmetry_space_group_name_H-M   'P 1'
_cell_length_a   13.93870121
_cell_length_b   16.78372372
_cell_length_c   27.33413152
_cell_angle_alpha   84.18585974
_cell_angle_beta   89.15421819
_cell_angle_gamma   72.66350193
_symmetry_Int_Tables_number   1
_chemical_formula_structural   FeNi
_chemical_formula_sum   'Fe108 Ni108'
_cell_volume   6071.93394833
_cell_formula_units_Z   108
loop_
 _symmetry_equiv_pos_site_id
 _symmetry_equiv_pos_as_xyz
  1  'x, y, z'
loop_
 _atom_site_type_symbol
 _atom_site_label
 _atom_site_symmetry_multiplicity
 _atom_site_fract_x
 _atom_site_fract_y
 _atom_site_fract_z
 _atom_site_occupancy
  Fe  Fe0  1  0.28333333  0.08333333  0.95000000  1.0
  Fe  Fe1  1  0.28333333  0.41666667  0.95000000  1.0
  Fe  Fe2  1  0.28333333  0.75000000  0.95000000  1.0
  Fe  Fe3  1  0.61666667  0.08333333  0.95000000  1.0
  Fe  Fe4  1  0.61666667  0.41666667  0.95000000  1.0
  Fe  Fe5  1  0.61666667  0.75000000  0.95000000  1.0
  Fe  Fe6  1  0.95000000  0.08333333  0.95000000  1.0
  Fe  Fe7  1  0.95000000  0.41666667  0.95000000  1.0
  Fe  Fe8  1  0.95000000  0.75000000  0.95000000  1.0
  Fe  Fe9  1  0.15000000  0.19444444  0.98333333  1.0
  Fe  Fe10  1  0.15000000  0.52777778  0.98333333  1.0
  Fe  Fe11  1  0.15000000  0.86111111  0.98333333  1.0
  Fe  Fe12  1  0.48333333  0.19444444  0.98333333  1.0
  Fe  Fe13  1  0.48333333  0.52777778  0.98333333  1.0
  Fe  Fe14  1  0.48333333  0.86111111  0.98333333  1.0
  Fe  Fe15  1  0.81666667  0.19444444  0.98333333  1.0
  Fe  Fe16  1  0.81666667  0.52777778  0.98333333  1.0
  Fe  Fe17  1  0.81666667  0.86111111  0.98333333  1.0
  Fe  Fe18  1  0.21666667  0.19444444  0.88333333  1.0
  Fe  Fe19  1  0.21666667  0.52777778  0.88333333  1.0
  Fe  Fe20  1  0.21666667  0.86111111  0.88333333  1.0
  Fe  Fe21  1  0.55000000  0.19444444  0.88333333  1.0
  Fe  Fe22  1  0.55000000  0.52777778  0.88333333  1.0
  Fe  Fe23  1  0.55000000  0.86111111  0.88333333  1.0
  Fe  Fe24  1  0.88333333  0.19444444  0.88333333  1.0
  Fe  Fe25  1  0.88333333  0.52777778  0.88333333  1.0
  Fe  Fe26  1  0.88333333  0.86111111  0.88333333  1.0
  Fe  Fe27  1  0.08333333  0.30555556  0.91666667  1.0
  Fe  Fe28  1  0.08333333  0.63888889  0.91666667  1.0
  Fe  Fe29  1  0.08333333  0.97222222  0.91666667  1.0
  Fe  Fe30  1  0.41666667  0.30555556  0.91666667  1.0
  Fe  Fe31  1  0.41666667  0.63888889  0.91666667  1.0
  Fe  Fe32  1  0.41666667  0.97222222  0.91666667  1.0
  Fe  Fe33  1  0.75000000  0.30555556  0.91666667  1.0
  Fe  Fe34  1  0.75000000  0.63888889  0.91666667  1.0
  Fe  Fe35  1  0.75000000  0.97222222  0.91666667  1.0
  Fe  Fe36  1  0.15000000  0.30555556  0.81666667  1.0
  Fe  Fe37  1  0.15000000  0.63888889  0.81666667  1.0
  Fe  Fe38  1  0.15000000  0.97222222  0.81666667  1.0
  Fe  Fe39  1  0.48333333  0.30555556  0.81666667  1.0
  Fe  Fe40  1  0.48333333  0.63888889  0.81666667  1.0
  Fe  Fe41  1  0.48333333  0.97222222  0.81666667  1.0
  Fe  Fe42  1  0.81666667  0.30555556  0.81666667  1.0
  Fe  Fe43  1  0.81666667  0.63888889  0.81666667  1.0
  Fe  Fe44  1  0.81666667  0.97222222  0.81666667  1.0
  Fe  Fe45  1  0.01666667  0.08333333  0.85000000  1.0
  Fe  Fe46  1  0.01666667  0.41666667  0.85000000  1.0
  Fe  Fe47  1  0.01666667  0.75000000  0.85000000  1.0
  Fe  Fe48  1  0.35000000  0.08333333  0.85000000  1.0
  Fe  Fe49  1  0.35000000  0.41666667  0.85000000  1.0
  Fe  Fe50  1  0.35000000  0.75000000  0.85000000  1.0
  Fe  Fe51  1  0.68333333  0.08333333  0.85000000  1.0
  Fe  Fe52  1  0.68333333  0.41666667  0.85000000  1.0
  Fe  Fe53  1  0.68333333  0.75000000  0.85000000  1.0
  Fe  Fe54  1  0.08333333  0.08333333  0.75000000  1.0
  Fe  Fe55  1  0.08333333  0.41666667  0.75000000  1.0
  Fe  Fe56  1  0.08333333  0.75000000  0.75000000  1.0
  Fe  Fe57  1  0.41666667  0.08333333  0.75000000  1.0
  Fe  Fe58  1  0.41666667  0.41666667  0.75000000  1.0
  Fe  Fe59  1  0.41666667  0.75000000  0.75000000  1.0
  Fe  Fe60  1  0.75000000  0.08333333  0.75000000  1.0
  Fe  Fe61  1  0.75000000  0.41666667  0.75000000  1.0
  Fe  Fe62  1  0.75000000  0.75000000  0.75000000  1.0
  Fe  Fe63  1  0.28333333  0.19444444  0.78333333  1.0
  Fe  Fe64  1  0.28333333  0.52777778  0.78333333  1.0
  Fe  Fe65  1  0.28333333  0.86111111  0.78333333  1.0
  Fe  Fe66  1  0.61666667  0.19444444  0.78333333  1.0
  Fe  Fe67  1  0.61666667  0.52777778  0.78333333  1.0
  Fe  Fe68  1  0.61666667  0.86111111  0.78333333  1.0
  Fe  Fe69  1  0.95000000  0.19444444  0.78333333  1.0
  Fe  Fe70  1  0.95000000  0.52777778  0.78333333  1.0
  Fe  Fe71  1  0.95000000  0.86111111  0.78333333  1.0
  Fe  Fe72  1  0.01666667  0.19444444  0.68333333  1.0
  Fe  Fe73  1  0.01666667  0.52777778  0.68333333  1.0
  Fe  Fe74  1  0.01666667  0.86111111  0.68333333  1.0
  Fe  Fe75  1  0.35000000  0.19444444  0.68333333  1.0
  Fe  Fe76  1  0.35000000  0.52777778  0.68333333  1.0
  Fe  Fe77  1  0.35000000  0.86111111  0.68333333  1.0
  Fe  Fe78  1  0.68333333  0.19444444  0.68333333  1.0
  Fe  Fe79  1  0.68333333  0.52777778  0.68333333  1.0
  Fe  Fe80  1  0.68333333  0.86111111  0.68333333  1.0
  Fe  Fe81  1  0.21666667  0.30555556  0.71666667  1.0
  Fe  Fe82  1  0.21666667  0.63888889  0.71666667  1.0
  Fe  Fe83  1  0.21666667  0.97222222  0.71666667  1.0
  Fe  Fe84  1  0.55000000  0.30555556  0.71666667  1.0
  Fe  Fe85  1  0.55000000  0.63888889  0.71666667  1.0
  Fe  Fe86  1  0.55000000  0.97222222  0.71666667  1.0
  Fe  Fe87  1  0.88333333  0.30555556  0.71666667  1.0
  Fe  Fe88  1  0.88333333  0.63888889  0.71666667  1.0
  Fe  Fe89  1  0.88333333  0.97222222  0.71666667  1.0
  Fe  Fe90  1  0.28333333  0.30555556  0.61666667  1.0
  Fe  Fe91  1  0.28333333  0.63888889  0.61666667  1.0
  Fe  Fe92  1  0.28333333  0.97222222  0.61666667  1.0
  Fe  Fe93  1  0.61666667  0.30555556  0.61666667  1.0
  Fe  Fe94  1  0.61666667  0.63888889  0.61666667  1.0
  Fe  Fe95  1  0.61666667  0.97222222  0.61666667  1.0
  Fe  Fe96  1  0.95000000  0.30555556  0.61666667  1.0
  Fe  Fe97  1  0.95000000  0.63888889  0.61666667  1.0
  Fe  Fe98  1  0.95000000  0.97222222  0.61666667  1.0
  Fe  Fe99  1  0.15000000  0.08333333  0.65000000  1.0
  Fe  Fe100  1  0.15000000  0.41666667  0.65000000  1.0
  Fe  Fe101  1  0.15000000  0.75000000  0.65000000  1.0
  Fe  Fe102  1  0.48333333  0.08333333  0.65000000  1.0
  Fe  Fe103  1  0.48333333  0.41666667  0.65000000  1.0
  Fe  Fe104  1  0.48333333  0.75000000  0.65000000  1.0
  Fe  Fe105  1  0.81666667  0.08333333  0.65000000  1.0
  Fe  Fe106  1  0.81666667  0.41666667  0.65000000  1.0
  Fe  Fe107  1  0.81666667  0.75000000  0.65000000  1.0
  Ni  Ni108  1  0.28333333  0.25000000  0.95000000  1.0
  Ni  Ni109  1  0.28333333  0.58333333  0.95000000  1.0
  Ni  Ni110  1  0.28333333  0.91666667  0.95000000  1.0
  Ni  Ni111  1  0.61666667  0.25000000  0.95000000  1.0
  Ni  Ni112  1  0.61666667  0.58333333  0.95000000  1.0
  Ni  Ni113  1  0.61666667  0.91666667  0.95000000  1.0
  Ni  Ni114  1  0.95000000  0.25000000  0.95000000  1.0
  Ni  Ni115  1  0.95000000  0.58333333  0.95000000  1.0
  Ni  Ni116  1  0.95000000  0.91666667  0.95000000  1.0
  Ni  Ni117  1  0.15000000  0.02777778  0.98333333  1.0
  Ni  Ni118  1  0.15000000  0.36111111  0.98333333  1.0
  Ni  Ni119  1  0.15000000  0.69444444  0.98333333  1.0
  Ni  Ni120  1  0.48333333  0.02777778  0.98333333  1.0
  Ni  Ni121  1  0.48333333  0.36111111  0.98333333  1.0
  Ni  Ni122  1  0.48333333  0.69444444  0.98333333  1.0
  Ni  Ni123  1  0.81666667  0.02777778  0.98333333  1.0
  Ni  Ni124  1  0.81666667  0.36111111  0.98333333  1.0
  Ni  Ni125  1  0.81666667  0.69444444  0.98333333  1.0
  Ni  Ni126  1  0.21666667  0.02777778  0.88333333  1.0
  Ni  Ni127  1  0.21666667  0.36111111  0.88333333  1.0
  Ni  Ni128  1  0.21666667  0.69444444  0.88333333  1.0
  Ni  Ni129  1  0.55000000  0.02777778  0.88333333  1.0
  Ni  Ni130  1  0.55000000  0.36111111  0.88333333  1.0
  Ni  Ni131  1  0.55000000  0.69444444  0.88333333  1.0
  Ni  Ni132  1  0.88333333  0.02777778  0.88333333  1.0
  Ni  Ni133  1  0.88333333  0.36111111  0.88333333  1.0
  Ni  Ni134  1  0.88333333  0.69444444  0.88333333  1.0
  Ni  Ni135  1  0.08333333  0.13888889  0.91666667  1.0
  Ni  Ni136  1  0.08333333  0.47222222  0.91666667  1.0
  Ni  Ni137  1  0.08333333  0.80555556  0.91666667  1.0
  Ni  Ni138  1  0.41666667  0.13888889  0.91666667  1.0
  Ni  Ni139  1  0.41666667  0.47222222  0.91666667  1.0
  Ni  Ni140  1  0.41666667  0.80555556  0.91666667  1.0
  Ni  Ni141  1  0.75000000  0.13888889  0.91666667  1.0
  Ni  Ni142  1  0.75000000  0.47222222  0.91666667  1.0
  Ni  Ni143  1  0.75000000  0.80555556  0.91666667  1.0
  Ni  Ni144  1  0.15000000  0.13888889  0.81666667  1.0
  Ni  Ni145  1  0.15000000  0.47222222  0.81666667  1.0
  Ni  Ni146  1  0.15000000  0.80555556  0.81666667  1.0
  Ni  Ni147  1  0.48333333  0.13888889  0.81666667  1.0
  Ni  Ni148  1  0.48333333  0.47222222  0.81666667  1.0
  Ni  Ni149  1  0.48333333  0.80555556  0.81666667  1.0
  Ni  Ni150  1  0.81666667  0.13888889  0.81666667  1.0
  Ni  Ni151  1  0.81666667  0.47222222  0.81666667  1.0
  Ni  Ni152  1  0.81666667  0.80555556  0.81666667  1.0
  Ni  Ni153  1  0.01666667  0.25000000  0.85000000  1.0
  Ni  Ni154  1  0.01666667  0.58333333  0.85000000  1.0
  Ni  Ni155  1  0.01666667  0.91666667  0.85000000  1.0
  Ni  Ni156  1  0.35000000  0.25000000  0.85000000  1.0
  Ni  Ni157  1  0.35000000  0.58333333  0.85000000  1.0
  Ni  Ni158  1  0.35000000  0.91666667  0.85000000  1.0
  Ni  Ni159  1  0.68333333  0.25000000  0.85000000  1.0
  Ni  Ni160  1  0.68333333  0.58333333  0.85000000  1.0
  Ni  Ni161  1  0.68333333  0.91666667  0.85000000  1.0
  Ni  Ni162  1  0.08333333  0.25000000  0.75000000  1.0
  Ni  Ni163  1  0.08333333  0.58333333  0.75000000  1.0
  Ni  Ni164  1  0.08333333  0.91666667  0.75000000  1.0
  Ni  Ni165  1  0.41666667  0.25000000  0.75000000  1.0
  Ni  Ni166  1  0.41666667  0.58333333  0.75000000  1.0
  Ni  Ni167  1  0.41666667  0.91666667  0.75000000  1.0
  Ni  Ni168  1  0.75000000  0.25000000  0.75000000  1.0
  Ni  Ni169  1  0.75000000  0.58333333  0.75000000  1.0
  Ni  Ni170  1  0.75000000  0.91666667  0.75000000  1.0
  Ni  Ni171  1  0.28333333  0.02777778  0.78333333  1.0
  Ni  Ni172  1  0.28333333  0.36111111  0.78333333  1.0
  Ni  Ni173  1  0.28333333  0.69444444  0.78333333  1.0
  Ni  Ni174  1  0.61666667  0.02777778  0.78333333  1.0
  Ni  Ni175  1  0.61666667  0.36111111  0.78333333  1.0
  Ni  Ni176  1  0.61666667  0.69444444  0.78333333  1.0
  Ni  Ni177  1  0.95000000  0.02777778  0.78333333  1.0
  Ni  Ni178  1  0.95000000  0.36111111  0.78333333  1.0
  Ni  Ni179  1  0.95000000  0.69444444  0.78333333  1.0
  Ni  Ni180  1  0.01666667  0.02777778  0.68333333  1.0
  Ni  Ni181  1  0.01666667  0.36111111  0.68333333  1.0
  Ni  Ni182  1  0.01666667  0.69444444  0.68333333  1.0
  Ni  Ni183  1  0.35000000  0.02777778  0.68333333  1.0
  Ni  Ni184  1  0.35000000  0.36111111  0.68333333  1.0
  Ni  Ni185  1  0.35000000  0.69444444  0.68333333  1.0
  Ni  Ni186  1  0.68333333  0.02777778  0.68333333  1.0
  Ni  Ni187  1  0.68333333  0.36111111  0.68333333  1.0
  Ni  Ni188  1  0.68333333  0.69444444  0.68333333  1.0
  Ni  Ni189  1  0.21666667  0.13888889  0.71666667  1.0
  Ni  Ni190  1  0.21666667  0.47222222  0.71666667  1.0
  Ni  Ni191  1  0.21666667  0.80555556  0.71666667  1.0
  Ni  Ni192  1  0.55000000  0.13888889  0.71666667  1.0
  Ni  Ni193  1  0.55000000  0.47222222  0.71666667  1.0
  Ni  Ni194  1  0.55000000  0.80555556  0.71666667  1.0
  Ni  Ni195  1  0.88333333  0.13888889  0.71666667  1.0
  Ni  Ni196  1  0.88333333  0.47222222  0.71666667  1.0
  Ni  Ni197  1  0.88333333  0.80555556  0.71666667  1.0
  Ni  Ni198  1  0.28333333  0.13888889  0.61666667  1.0
  Ni  Ni199  1  0.28333333  0.47222222  0.61666667  1.0
  Ni  Ni200  1  0.28333333  0.80555556  0.61666667  1.0
  Ni  Ni201  1  0.61666667  0.13888889  0.61666667  1.0
  Ni  Ni202  1  0.61666667  0.47222222  0.61666667  1.0
  Ni  Ni203  1  0.61666667  0.80555556  0.61666667  1.0
  Ni  Ni204  1  0.95000000  0.13888889  0.61666667  1.0
  Ni  Ni205  1  0.95000000  0.47222222  0.61666667  1.0
  Ni  Ni206  1  0.95000000  0.80555556  0.61666667  1.0
  Ni  Ni207  1  0.15000000  0.25000000  0.65000000  1.0
  Ni  Ni208  1  0.15000000  0.58333333  0.65000000  1.0
  Ni  Ni209  1  0.15000000  0.91666667  0.65000000  1.0
  Ni  Ni210  1  0.48333333  0.25000000  0.65000000  1.0
  Ni  Ni211  1  0.48333333  0.58333333  0.65000000  1.0
  Ni  Ni212  1  0.48333333  0.91666667  0.65000000  1.0
  Ni  Ni213  1  0.81666667  0.25000000  0.65000000  1.0
  Ni  Ni214  1  0.81666667  0.58333333  0.65000000  1.0
  Ni  Ni215  1  0.81666667  0.91666667  0.65000000  1.0
