# generated using pymatgen
data_FeNi
_symmetry_space_group_name_H-M   'P 1'
_cell_length_a   7.54759343
_cell_length_b   15.15221207
_cell_length_c   28.51757188
_cell_angle_alpha   90.30495074
_cell_angle_beta   90.00000000
_cell_angle_gamma   90.00000000
_symmetry_Int_Tables_number   1
_chemical_formula_structural   FeNi
_chemical_formula_sum   'Fe54 Ni54'
_cell_volume   3261.30135864
_cell_formula_units_Z   54
loop_
 _symmetry_equiv_pos_site_id
 _symmetry_equiv_pos_as_xyz
  1  'x, y, z'
loop_
 _atom_site_type_symbol
 _atom_site_label
 _atom_site_symmetry_multiplicity
 _atom_site_fract_x
 _atom_site_fract_y
 _atom_site_fract_z
 _atom_site_occupancy
  Fe  Fe0  1  0.33333333  0.12500000  0.90625000  1.0
  Fe  Fe1  1  0.33333333  0.45833333  0.90625000  1.0
  Fe  Fe2  1  0.33333333  0.79166667  0.90625000  1.0
  Fe  Fe3  1  0.66666667  0.12500000  0.90625000  1.0
  Fe  Fe4  1  0.66666667  0.45833333  0.90625000  1.0
  Fe  Fe5  1  0.66666667  0.79166667  0.90625000  1.0
  Fe  Fe6  1  1.00000000  0.12500000  0.90625000  1.0
  Fe  Fe7  1  1.00000000  0.45833333  0.90625000  1.0
  Fe  Fe8  1  1.00000000  0.79166667  0.90625000  1.0
  Fe  Fe9  1  0.16666667  0.20833333  0.96875000  1.0
  Fe  Fe10  1  0.16666667  0.54166667  0.96875000  1.0
  Fe  Fe11  1  0.16666667  0.87500000  0.96875000  1.0
  Fe  Fe12  1  0.50000000  0.20833333  0.96875000  1.0
  Fe  Fe13  1  0.50000000  0.54166667  0.96875000  1.0
  Fe  Fe14  1  0.50000000  0.87500000  0.96875000  1.0
  Fe  Fe15  1  0.83333333  0.20833333  0.96875000  1.0
  Fe  Fe16  1  0.83333333  0.54166667  0.96875000  1.0
  Fe  Fe17  1  0.83333333  0.87500000  0.96875000  1.0
  Fe  Fe18  1  0.33333333  0.29166667  0.78125000  1.0
  Fe  Fe19  1  0.33333333  0.62500000  0.78125000  1.0
  Fe  Fe20  1  0.33333333  0.95833333  0.78125000  1.0
  Fe  Fe21  1  0.66666667  0.29166667  0.78125000  1.0
  Fe  Fe22  1  0.66666667  0.62500000  0.78125000  1.0
  Fe  Fe23  1  0.66666667  0.95833333  0.78125000  1.0
  Fe  Fe24  1  0.00000000  0.29166667  0.78125000  1.0
  Fe  Fe25  1  0.00000000  0.62500000  0.78125000  1.0
  Fe  Fe26  1  1.00000000  0.95833333  0.78125000  1.0
  Fe  Fe27  1  0.16666667  0.04166667  0.84375000  1.0
  Fe  Fe28  1  0.16666667  0.37500000  0.84375000  1.0
  Fe  Fe29  1  0.16666667  0.70833333  0.84375000  1.0
  Fe  Fe30  1  0.50000000  0.04166667  0.84375000  1.0
  Fe  Fe31  1  0.50000000  0.37500000  0.84375000  1.0
  Fe  Fe32  1  0.50000000  0.70833333  0.84375000  1.0
  Fe  Fe33  1  0.83333333  0.04166667  0.84375000  1.0
  Fe  Fe34  1  0.83333333  0.37500000  0.84375000  1.0
  Fe  Fe35  1  0.83333333  0.70833333  0.84375000  1.0
  Fe  Fe36  1  0.00000000  0.12500000  0.65625000  1.0
  Fe  Fe37  1  0.00000000  0.45833333  0.65625000  1.0
  Fe  Fe38  1  0.00000000  0.79166667  0.65625000  1.0
  Fe  Fe39  1  0.33333333  0.12500000  0.65625000  1.0
  Fe  Fe40  1  0.33333333  0.45833333  0.65625000  1.0
  Fe  Fe41  1  0.33333333  0.79166667  0.65625000  1.0
  Fe  Fe42  1  0.66666667  0.12500000  0.65625000  1.0
  Fe  Fe43  1  0.66666667  0.45833333  0.65625000  1.0
  Fe  Fe44  1  0.66666667  0.79166667  0.65625000  1.0
  Fe  Fe45  1  0.16666667  0.20833333  0.71875000  1.0
  Fe  Fe46  1  0.16666667  0.54166667  0.71875000  1.0
  Fe  Fe47  1  0.16666667  0.87500000  0.71875000  1.0
  Fe  Fe48  1  0.50000000  0.20833333  0.71875000  1.0
  Fe  Fe49  1  0.50000000  0.54166667  0.71875000  1.0
  Fe  Fe50  1  0.50000000  0.87500000  0.71875000  1.0
  Fe  Fe51  1  0.83333333  0.20833333  0.71875000  1.0
  Fe  Fe52  1  0.83333333  0.54166667  0.71875000  1.0
  Fe  Fe53  1  0.83333333  0.87500000  0.71875000  1.0
  Ni  Ni54  1  0.00000000  0.29166667  0.90625000  1.0
  Ni  Ni55  1  0.00000000  0.62500000  0.90625000  1.0
  Ni  Ni56  1  0.00000000  0.95833333  0.90625000  1.0
  Ni  Ni57  1  0.33333333  0.29166667  0.90625000  1.0
  Ni  Ni58  1  0.33333333  0.62500000  0.90625000  1.0
  Ni  Ni59  1  0.33333333  0.95833333  0.90625000  1.0
  Ni  Ni60  1  0.66666667  0.29166667  0.90625000  1.0
  Ni  Ni61  1  0.66666667  0.62500000  0.90625000  1.0
  Ni  Ni62  1  0.66666667  0.95833333  0.90625000  1.0
  Ni  Ni63  1  0.16666667  0.04166667  0.96875000  1.0
  Ni  Ni64  1  0.16666667  0.37500000  0.96875000  1.0
  Ni  Ni65  1  0.16666667  0.70833333  0.96875000  1.0
  Ni  Ni66  1  0.50000000  0.04166667  0.96875000  1.0
  Ni  Ni67  1  0.50000000  0.37500000  0.96875000  1.0
  Ni  Ni68  1  0.50000000  0.70833333  0.96875000  1.0
  Ni  Ni69  1  0.83333333  0.04166667  0.96875000  1.0
  Ni  Ni70  1  0.83333333  0.37500000  0.96875000  1.0
  Ni  Ni71  1  0.83333333  0.70833333  0.96875000  1.0
  Ni  Ni72  1  0.00000000  0.12500000  0.78125000  1.0
  Ni  Ni73  1  0.00000000  0.45833333  0.78125000  1.0
  Ni  Ni74  1  0.00000000  0.79166667  0.78125000  1.0
  Ni  Ni75  1  0.33333333  0.12500000  0.78125000  1.0
  Ni  Ni76  1  0.33333333  0.45833333  0.78125000  1.0
  Ni  Ni77  1  0.33333333  0.79166667  0.78125000  1.0
  Ni  Ni78  1  0.66666667  0.12500000  0.78125000  1.0
  Ni  Ni79  1  0.66666667  0.45833333  0.78125000  1.0
  Ni  Ni80  1  0.66666667  0.79166667  0.78125000  1.0
  Ni  Ni81  1  0.16666667  0.20833333  0.84375000  1.0
  Ni  Ni82  1  0.16666667  0.54166667  0.84375000  1.0
  Ni  Ni83  1  0.16666667  0.87500000  0.84375000  1.0
  Ni  Ni84  1  0.50000000  0.20833333  0.84375000  1.0
  Ni  Ni85  1  0.50000000  0.54166667  0.84375000  1.0
  Ni  Ni86  1  0.50000000  0.87500000  0.84375000  1.0
  Ni  Ni87  1  0.83333333  0.20833333  0.84375000  1.0
  Ni  Ni88  1  0.83333333  0.54166667  0.84375000  1.0
  Ni  Ni89  1  0.83333333  0.87500000  0.84375000  1.0
  Ni  Ni90  1  0.00000000  0.29166667  0.65625000  1.0
  Ni  Ni91  1  0.00000000  0.62500000  0.65625000  1.0
  Ni  Ni92  1  0.00000000  0.95833333  0.65625000  1.0
  Ni  Ni93  1  0.33333333  0.29166667  0.65625000  1.0
  Ni  Ni94  1  0.33333333  0.62500000  0.65625000  1.0
  Ni  Ni95  1  0.33333333  0.95833333  0.65625000  1.0
  Ni  Ni96  1  0.66666667  0.29166667  0.65625000  1.0
  Ni  Ni97  1  0.66666667  0.62500000  0.65625000  1.0
  Ni  Ni98  1  0.66666667  0.95833333  0.65625000  1.0
  Ni  Ni99  1  0.16666667  0.04166667  0.71875000  1.0
  Ni  Ni100  1  0.16666667  0.37500000  0.71875000  1.0
  Ni  Ni101  1  0.16666667  0.70833333  0.71875000  1.0
  Ni  Ni102  1  0.50000000  0.04166667  0.71875000  1.0
  Ni  Ni103  1  0.50000000  0.37500000  0.71875000  1.0
  Ni  Ni104  1  0.50000000  0.70833333  0.71875000  1.0
  Ni  Ni105  1  0.83333333  0.04166667  0.71875000  1.0
  Ni  Ni106  1  0.83333333  0.37500000  0.71875000  1.0
  Ni  Ni107  1  0.83333333  0.70833333  0.71875000  1.0
