# generated using pymatgen
data_FeNi
_symmetry_space_group_name_H-M   'P 1'
_cell_length_a   13.11412624
_cell_length_b   15.11714905
_cell_length_c   27.93103555
_cell_angle_alpha   94.91015901
_cell_angle_beta   90.24366797
_cell_angle_gamma   107.27896218
_symmetry_Int_Tables_number   1
_chemical_formula_structural   FeNi
_chemical_formula_sum   'Fe90 Ni90'
_cell_volume   5265.41228997
_cell_formula_units_Z   90
loop_
 _symmetry_equiv_pos_site_id
 _symmetry_equiv_pos_as_xyz
  1  'x, y, z'
loop_
 _atom_site_type_symbol
 _atom_site_label
 _atom_site_symmetry_multiplicity
 _atom_site_fract_x
 _atom_site_fract_y
 _atom_site_fract_z
 _atom_site_occupancy
  Fe  Fe0  1  0.31410256  0.27564103  0.05769231  1.0
  Fe  Fe1  1  0.31410256  0.60897436  0.05769231  1.0
  Fe  Fe2  1  0.31410256  0.94230769  0.05769231  1.0
  Fe  Fe3  1  0.64743590  0.27564103  0.05769231  1.0
  Fe  Fe4  1  0.64743590  0.60897436  0.05769231  1.0
  Fe  Fe5  1  0.64743590  0.94230769  0.05769231  1.0
  Fe  Fe6  1  0.98076923  0.27564103  0.05769231  1.0
  Fe  Fe7  1  0.98076923  0.60897436  0.05769231  1.0
  Fe  Fe8  1  0.98076923  0.94230769  0.05769231  1.0
  Fe  Fe9  1  0.16025641  0.14743590  0.01923077  1.0
  Fe  Fe10  1  0.16025641  0.48076923  0.01923077  1.0
  Fe  Fe11  1  0.16025641  0.81410256  0.01923077  1.0
  Fe  Fe12  1  0.49358974  0.14743590  0.01923077  1.0
  Fe  Fe13  1  0.49358974  0.48076923  0.01923077  1.0
  Fe  Fe14  1  0.49358974  0.81410256  0.01923077  1.0
  Fe  Fe15  1  0.82692308  0.14743590  0.01923077  1.0
  Fe  Fe16  1  0.82692308  0.48076923  0.01923077  1.0
  Fe  Fe17  1  0.82692308  0.81410256  0.01923077  1.0
  Fe  Fe18  1  0.28846154  0.19871795  0.13461538  1.0
  Fe  Fe19  1  0.28846154  0.53205128  0.13461538  1.0
  Fe  Fe20  1  0.28846154  0.86538462  0.13461538  1.0
  Fe  Fe21  1  0.62179487  0.19871795  0.13461538  1.0
  Fe  Fe22  1  0.62179487  0.53205128  0.13461538  1.0
  Fe  Fe23  1  0.62179487  0.86538462  0.13461538  1.0
  Fe  Fe24  1  0.95512821  0.19871795  0.13461538  1.0
  Fe  Fe25  1  0.95512821  0.53205128  0.13461538  1.0
  Fe  Fe26  1  0.95512821  0.86538462  0.13461538  1.0
  Fe  Fe27  1  0.13461538  0.07051282  0.09615385  1.0
  Fe  Fe28  1  0.13461538  0.40384615  0.09615385  1.0
  Fe  Fe29  1  0.13461538  0.73717949  0.09615385  1.0
  Fe  Fe30  1  0.46794872  0.07051282  0.09615385  1.0
  Fe  Fe31  1  0.46794872  0.40384615  0.09615385  1.0
  Fe  Fe32  1  0.46794872  0.73717949  0.09615385  1.0
  Fe  Fe33  1  0.80128205  0.07051282  0.09615385  1.0
  Fe  Fe34  1  0.80128205  0.40384615  0.09615385  1.0
  Fe  Fe35  1  0.80128205  0.73717949  0.09615385  1.0
  Fe  Fe36  1  0.26282051  0.12179487  0.21153846  1.0
  Fe  Fe37  1  0.26282051  0.45512821  0.21153846  1.0
  Fe  Fe38  1  0.26282051  0.78846154  0.21153846  1.0
  Fe  Fe39  1  0.59615385  0.12179487  0.21153846  1.0
  Fe  Fe40  1  0.59615385  0.45512821  0.21153846  1.0
  Fe  Fe41  1  0.59615385  0.78846154  0.21153846  1.0
  Fe  Fe42  1  0.92948718  0.12179487  0.21153846  1.0
  Fe  Fe43  1  0.92948718  0.45512821  0.21153846  1.0
  Fe  Fe44  1  0.92948718  0.78846154  0.21153846  1.0
  Fe  Fe45  1  0.10897436  0.32692308  0.17307692  1.0
  Fe  Fe46  1  0.10897436  0.66025641  0.17307692  1.0
  Fe  Fe47  1  0.10897436  0.99358974  0.17307692  1.0
  Fe  Fe48  1  0.44230769  0.32692308  0.17307692  1.0
  Fe  Fe49  1  0.44230769  0.66025641  0.17307692  1.0
  Fe  Fe50  1  0.44230769  0.99358974  0.17307692  1.0
  Fe  Fe51  1  0.77564103  0.32692308  0.17307692  1.0
  Fe  Fe52  1  0.77564103  0.66025641  0.17307692  1.0
  Fe  Fe53  1  0.77564103  0.99358974  0.17307692  1.0
  Fe  Fe54  1  0.23717949  0.04487179  0.28846154  1.0
  Fe  Fe55  1  0.23717949  0.37820513  0.28846154  1.0
  Fe  Fe56  1  0.23717949  0.71153846  0.28846154  1.0
  Fe  Fe57  1  0.57051282  0.04487179  0.28846154  1.0
  Fe  Fe58  1  0.57051282  0.37820513  0.28846154  1.0
  Fe  Fe59  1  0.57051282  0.71153846  0.28846154  1.0
  Fe  Fe60  1  0.90384615  0.04487179  0.28846154  1.0
  Fe  Fe61  1  0.90384615  0.37820513  0.28846154  1.0
  Fe  Fe62  1  0.90384615  0.71153846  0.28846154  1.0
  Fe  Fe63  1  0.08333333  0.25000000  0.25000000  1.0
  Fe  Fe64  1  0.08333333  0.58333333  0.25000000  1.0
  Fe  Fe65  1  0.08333333  0.91666667  0.25000000  1.0
  Fe  Fe66  1  0.41666667  0.25000000  0.25000000  1.0
  Fe  Fe67  1  0.41666667  0.58333333  0.25000000  1.0
  Fe  Fe68  1  0.41666667  0.91666667  0.25000000  1.0
  Fe  Fe69  1  0.75000000  0.25000000  0.25000000  1.0
  Fe  Fe70  1  0.75000000  0.58333333  0.25000000  1.0
  Fe  Fe71  1  0.75000000  0.91666667  0.25000000  1.0
  Fe  Fe72  1  0.21153846  0.30128205  0.36538462  1.0
  Fe  Fe73  1  0.21153846  0.63461538  0.36538462  1.0
  Fe  Fe74  1  0.21153846  0.96794872  0.36538462  1.0
  Fe  Fe75  1  0.54487179  0.30128205  0.36538462  1.0
  Fe  Fe76  1  0.54487179  0.63461538  0.36538462  1.0
  Fe  Fe77  1  0.54487179  0.96794872  0.36538462  1.0
  Fe  Fe78  1  0.87820513  0.30128205  0.36538462  1.0
  Fe  Fe79  1  0.87820513  0.63461538  0.36538462  1.0
  Fe  Fe80  1  0.87820513  0.96794872  0.36538462  1.0
  Fe  Fe81  1  0.05769231  0.17307692  0.32692308  1.0
  Fe  Fe82  1  0.05769231  0.50641026  0.32692308  1.0
  Fe  Fe83  1  0.05769231  0.83974359  0.32692308  1.0
  Fe  Fe84  1  0.39102564  0.17307692  0.32692308  1.0
  Fe  Fe85  1  0.39102564  0.50641026  0.32692308  1.0
  Fe  Fe86  1  0.39102564  0.83974359  0.32692308  1.0
  Fe  Fe87  1  0.72435897  0.17307692  0.32692308  1.0
  Fe  Fe88  1  0.72435897  0.50641026  0.32692308  1.0
  Fe  Fe89  1  0.72435897  0.83974359  0.32692308  1.0
  Ni  Ni90  1  0.31410256  0.10897436  0.05769231  1.0
  Ni  Ni91  1  0.31410256  0.44230769  0.05769231  1.0
  Ni  Ni92  1  0.31410256  0.77564103  0.05769231  1.0
  Ni  Ni93  1  0.64743590  0.10897436  0.05769231  1.0
  Ni  Ni94  1  0.64743590  0.44230769  0.05769231  1.0
  Ni  Ni95  1  0.64743590  0.77564103  0.05769231  1.0
  Ni  Ni96  1  0.98076923  0.10897436  0.05769231  1.0
  Ni  Ni97  1  0.98076923  0.44230769  0.05769231  1.0
  Ni  Ni98  1  0.98076923  0.77564103  0.05769231  1.0
  Ni  Ni99  1  0.16025641  0.31410256  0.01923077  1.0
  Ni  Ni100  1  0.16025641  0.64743590  0.01923077  1.0
  Ni  Ni101  1  0.16025641  0.98076923  0.01923077  1.0
  Ni  Ni102  1  0.49358974  0.31410256  0.01923077  1.0
  Ni  Ni103  1  0.49358974  0.64743590  0.01923077  1.0
  Ni  Ni104  1  0.49358974  0.98076923  0.01923077  1.0
  Ni  Ni105  1  0.82692308  0.31410256  0.01923077  1.0
  Ni  Ni106  1  0.82692308  0.64743590  0.01923077  1.0
  Ni  Ni107  1  0.82692308  0.98076923  0.01923077  1.0
  Ni  Ni108  1  0.28846154  0.03205128  0.13461538  1.0
  Ni  Ni109  1  0.28846154  0.36538462  0.13461538  1.0
  Ni  Ni110  1  0.28846154  0.69871795  0.13461538  1.0
  Ni  Ni111  1  0.62179487  0.03205128  0.13461538  1.0
  Ni  Ni112  1  0.62179487  0.36538462  0.13461538  1.0
  Ni  Ni113  1  0.62179487  0.69871795  0.13461538  1.0
  Ni  Ni114  1  0.95512821  0.03205128  0.13461538  1.0
  Ni  Ni115  1  0.95512821  0.36538462  0.13461538  1.0
  Ni  Ni116  1  0.95512821  0.69871795  0.13461538  1.0
  Ni  Ni117  1  0.13461538  0.23717949  0.09615385  1.0
  Ni  Ni118  1  0.13461538  0.57051282  0.09615385  1.0
  Ni  Ni119  1  0.13461538  0.90384615  0.09615385  1.0
  Ni  Ni120  1  0.46794872  0.23717949  0.09615385  1.0
  Ni  Ni121  1  0.46794872  0.57051282  0.09615385  1.0
  Ni  Ni122  1  0.46794872  0.90384615  0.09615385  1.0
  Ni  Ni123  1  0.80128205  0.23717949  0.09615385  1.0
  Ni  Ni124  1  0.80128205  0.57051282  0.09615385  1.0
  Ni  Ni125  1  0.80128205  0.90384615  0.09615385  1.0
  Ni  Ni126  1  0.26282051  0.28846154  0.21153846  1.0
  Ni  Ni127  1  0.26282051  0.62179487  0.21153846  1.0
  Ni  Ni128  1  0.26282051  0.95512821  0.21153846  1.0
  Ni  Ni129  1  0.59615385  0.28846154  0.21153846  1.0
  Ni  Ni130  1  0.59615385  0.62179487  0.21153846  1.0
  Ni  Ni131  1  0.59615385  0.95512821  0.21153846  1.0
  Ni  Ni132  1  0.92948718  0.28846154  0.21153846  1.0
  Ni  Ni133  1  0.92948718  0.62179487  0.21153846  1.0
  Ni  Ni134  1  0.92948718  0.95512821  0.21153846  1.0
  Ni  Ni135  1  0.10897436  0.16025641  0.17307692  1.0
  Ni  Ni136  1  0.10897436  0.49358974  0.17307692  1.0
  Ni  Ni137  1  0.10897436  0.82692308  0.17307692  1.0
  Ni  Ni138  1  0.44230769  0.16025641  0.17307692  1.0
  Ni  Ni139  1  0.44230769  0.49358974  0.17307692  1.0
  Ni  Ni140  1  0.44230769  0.82692308  0.17307692  1.0
  Ni  Ni141  1  0.77564103  0.16025641  0.17307692  1.0
  Ni  Ni142  1  0.77564103  0.49358974  0.17307692  1.0
  Ni  Ni143  1  0.77564103  0.82692308  0.17307692  1.0
  Ni  Ni144  1  0.23717949  0.21153846  0.28846154  1.0
  Ni  Ni145  1  0.23717949  0.54487179  0.28846154  1.0
  Ni  Ni146  1  0.23717949  0.87820513  0.28846154  1.0
  Ni  Ni147  1  0.57051282  0.21153846  0.28846154  1.0
  Ni  Ni148  1  0.57051282  0.54487179  0.28846154  1.0
  Ni  Ni149  1  0.57051282  0.87820513  0.28846154  1.0
  Ni  Ni150  1  0.90384615  0.21153846  0.28846154  1.0
  Ni  Ni151  1  0.90384615  0.54487179  0.28846154  1.0
  Ni  Ni152  1  0.90384615  0.87820513  0.28846154  1.0
  Ni  Ni153  1  0.08333333  0.08333333  0.25000000  1.0
  Ni  Ni154  1  0.08333333  0.41666667  0.25000000  1.0
  Ni  Ni155  1  0.08333333  0.75000000  0.25000000  1.0
  Ni  Ni156  1  0.41666667  0.08333333  0.25000000  1.0
  Ni  Ni157  1  0.41666667  0.41666667  0.25000000  1.0
  Ni  Ni158  1  0.41666667  0.75000000  0.25000000  1.0
  Ni  Ni159  1  0.75000000  0.08333333  0.25000000  1.0
  Ni  Ni160  1  0.75000000  0.41666667  0.25000000  1.0
  Ni  Ni161  1  0.75000000  0.75000000  0.25000000  1.0
  Ni  Ni162  1  0.21153846  0.13461538  0.36538462  1.0
  Ni  Ni163  1  0.21153846  0.46794872  0.36538462  1.0
  Ni  Ni164  1  0.21153846  0.80128205  0.36538462  1.0
  Ni  Ni165  1  0.54487179  0.13461538  0.36538462  1.0
  Ni  Ni166  1  0.54487179  0.46794872  0.36538462  1.0
  Ni  Ni167  1  0.54487179  0.80128205  0.36538462  1.0
  Ni  Ni168  1  0.87820513  0.13461538  0.36538462  1.0
  Ni  Ni169  1  0.87820513  0.46794872  0.36538462  1.0
  Ni  Ni170  1  0.87820513  0.80128205  0.36538462  1.0
  Ni  Ni171  1  0.05769231  0.00641026  0.32692308  1.0
  Ni  Ni172  1  0.05769231  0.33974359  0.32692308  1.0
  Ni  Ni173  1  0.05769231  0.67307692  0.32692308  1.0
  Ni  Ni174  1  0.39102564  0.00641026  0.32692308  1.0
  Ni  Ni175  1  0.39102564  0.33974359  0.32692308  1.0
  Ni  Ni176  1  0.39102564  0.67307692  0.32692308  1.0
  Ni  Ni177  1  0.72435897  0.00641026  0.32692308  1.0
  Ni  Ni178  1  0.72435897  0.33974359  0.32692308  1.0
  Ni  Ni179  1  0.72435897  0.67307692  0.32692308  1.0
