# generated using pymatgen
data_FeNi3
_symmetry_space_group_name_H-M   'P 1'
_cell_length_a   27.05851511
_cell_length_b   49.22308752
_cell_length_c   182.56560322
_cell_angle_alpha   8.65909001
_cell_angle_beta   146.78655037
_cell_angle_gamma   150.15526090
_symmetry_Int_Tables_number   1
_chemical_formula_structural   FeNi3
_chemical_formula_sum   'Fe162 Ni486'
_cell_volume   17498.50635121
_cell_formula_units_Z   162
loop_
 _symmetry_equiv_pos_site_id
 _symmetry_equiv_pos_as_xyz
  1  'x, y, z'
loop_
 _atom_site_type_symbol
 _atom_site_label
 _atom_site_symmetry_multiplicity
 _atom_site_fract_x
 _atom_site_fract_y
 _atom_site_fract_z
 _atom_site_occupancy
  Fe  Fe0  1  0.16666667  0.33333333  0.01988284  1.0
  Fe  Fe1  1  0.16666667  0.66666667  0.01988284  1.0
  Fe  Fe2  1  0.16666667  1.00000000  0.01988284  1.0
  Fe  Fe3  1  0.50000000  0.33333333  0.01988284  1.0
  Fe  Fe4  1  0.50000000  0.66666667  0.01988284  1.0
  Fe  Fe5  1  0.50000000  1.00000000  0.01988284  1.0
  Fe  Fe6  1  0.83333333  0.33333333  0.01988284  1.0
  Fe  Fe7  1  0.83333333  0.66666667  0.01988284  1.0
  Fe  Fe8  1  0.83333333  1.00000000  0.01988284  1.0
  Fe  Fe9  1  0.00000000  0.00000000  0.04261011  1.0
  Fe  Fe10  1  0.00000000  0.33333333  0.04261011  1.0
  Fe  Fe11  1  0.00000000  0.66666667  0.04261011  1.0
  Fe  Fe12  1  0.33333333  0.00000000  0.04261011  1.0
  Fe  Fe13  1  0.33333333  0.33333333  0.04261011  1.0
  Fe  Fe14  1  0.33333333  0.66666667  0.04261011  1.0
  Fe  Fe15  1  0.66666667  0.00000000  0.04261011  1.0
  Fe  Fe16  1  0.66666667  0.33333333  0.04261011  1.0
  Fe  Fe17  1  0.66666667  0.66666667  0.04261011  1.0
  Ni  Ni18  1  0.20838500  0.24989667  0.01419398  1.0
  Ni  Ni19  1  0.20838500  0.58323000  0.01419398  1.0
  Ni  Ni20  1  0.20838500  0.91656333  0.01419398  1.0
  Ni  Ni21  1  0.54171833  0.24989667  0.01419398  1.0
  Ni  Ni22  1  0.54171833  0.58323000  0.01419398  1.0
  Ni  Ni23  1  0.54171833  0.91656333  0.01419398  1.0
  Ni  Ni24  1  0.87505167  0.24989667  0.01419398  1.0
  Ni  Ni25  1  0.87505167  0.58323000  0.01419398  1.0
  Ni  Ni26  1  0.87505167  0.91656333  0.01419398  1.0
  Ni  Ni27  1  0.04171833  0.24989667  0.03692125  1.0
  Ni  Ni28  1  0.04171833  0.58323000  0.03692125  1.0
  Ni  Ni29  1  0.04171833  0.91656333  0.03692125  1.0
  Ni  Ni30  1  0.37505167  0.24989667  0.03692125  1.0
  Ni  Ni31  1  0.37505167  0.58323000  0.03692125  1.0
  Ni  Ni32  1  0.37505167  0.91656333  0.03692125  1.0
  Ni  Ni33  1  0.70838500  0.24989667  0.03692125  1.0
  Ni  Ni34  1  0.70838500  0.58323000  0.03692125  1.0
  Ni  Ni35  1  0.70838500  0.91656333  0.03692125  1.0
  Ni  Ni36  1  0.25000000  0.16666667  0.00851920  1.0
  Ni  Ni37  1  0.25000000  0.50000000  0.00851920  1.0
  Ni  Ni38  1  0.25000000  0.83333333  0.00851920  1.0
  Ni  Ni39  1  0.58333333  0.16666667  0.00851920  1.0
  Ni  Ni40  1  0.58333333  0.50000000  0.00851920  1.0
  Ni  Ni41  1  0.58333333  0.83333333  0.00851920  1.0
  Ni  Ni42  1  0.91666667  0.16666667  0.00851920  1.0
  Ni  Ni43  1  0.91666667  0.50000000  0.00851920  1.0
  Ni  Ni44  1  0.91666667  0.83333333  0.00851920  1.0
  Ni  Ni45  1  0.08333333  0.16666667  0.03124648  1.0
  Ni  Ni46  1  0.08333333  0.50000000  0.03124648  1.0
  Ni  Ni47  1  0.08333333  0.83333333  0.03124648  1.0
  Ni  Ni48  1  0.41666667  0.16666667  0.03124648  1.0
  Ni  Ni49  1  0.41666667  0.50000000  0.03124648  1.0
  Ni  Ni50  1  0.41666667  0.83333333  0.03124648  1.0
  Ni  Ni51  1  0.75000000  0.16666667  0.03124648  1.0
  Ni  Ni52  1  0.75000000  0.50000000  0.03124648  1.0
  Ni  Ni53  1  0.75000000  0.83333333  0.03124648  1.0
  Ni  Ni54  1  0.29161500  0.08343667  0.00284443  1.0
  Ni  Ni55  1  0.29161500  0.41677000  0.00284443  1.0
  Ni  Ni56  1  0.29161500  0.75010333  0.00284443  1.0
  Ni  Ni57  1  0.62494833  0.08343667  0.00284443  1.0
  Ni  Ni58  1  0.62494833  0.41677000  0.00284443  1.0
  Ni  Ni59  1  0.62494833  0.75010333  0.00284443  1.0
  Ni  Ni60  1  0.95828167  0.08343667  0.00284443  1.0
  Ni  Ni61  1  0.95828167  0.41677000  0.00284443  1.0
  Ni  Ni62  1  0.95828167  0.75010333  0.00284443  1.0
  Ni  Ni63  1  0.12494833  0.08343667  0.02557170  1.0
  Ni  Ni64  1  0.12494833  0.41677000  0.02557170  1.0
  Ni  Ni65  1  0.12494833  0.75010333  0.02557170  1.0
  Ni  Ni66  1  0.45828167  0.08343667  0.02557170  1.0
  Ni  Ni67  1  0.45828167  0.41677000  0.02557170  1.0
  Ni  Ni68  1  0.45828167  0.75010333  0.02557170  1.0
  Ni  Ni69  1  0.79161500  0.08343667  0.02557170  1.0
  Ni  Ni70  1  0.79161500  0.41677000  0.02557170  1.0
  Ni  Ni71  1  0.79161500  0.75010333  0.02557170  1.0
  Fe  Fe72  1  0.16666667  0.33333333  0.06533739  1.0
  Fe  Fe73  1  0.16666667  0.66666667  0.06533739  1.0
  Fe  Fe74  1  0.16666667  1.00000000  0.06533739  1.0
  Fe  Fe75  1  0.50000000  0.33333333  0.06533739  1.0
  Fe  Fe76  1  0.50000000  0.66666667  0.06533739  1.0
  Fe  Fe77  1  0.50000000  1.00000000  0.06533739  1.0
  Fe  Fe78  1  0.83333333  0.33333333  0.06533739  1.0
  Fe  Fe79  1  0.83333333  0.66666667  0.06533739  1.0
  Fe  Fe80  1  0.83333333  1.00000000  0.06533739  1.0
  Fe  Fe81  1  0.00000000  0.00000000  0.08806466  1.0
  Fe  Fe82  1  0.00000000  0.33333333  0.08806466  1.0
  Fe  Fe83  1  0.00000000  0.66666667  0.08806466  1.0
  Fe  Fe84  1  0.33333333  0.00000000  0.08806466  1.0
  Fe  Fe85  1  0.33333333  0.33333333  0.08806466  1.0
  Fe  Fe86  1  0.33333333  0.66666667  0.08806466  1.0
  Fe  Fe87  1  0.66666667  0.00000000  0.08806466  1.0
  Fe  Fe88  1  0.66666667  0.33333333  0.08806466  1.0
  Fe  Fe89  1  0.66666667  0.66666667  0.08806466  1.0
  Ni  Ni90  1  0.20838500  0.24989667  0.05964852  1.0
  Ni  Ni91  1  0.20838500  0.58323000  0.05964852  1.0
  Ni  Ni92  1  0.20838500  0.91656333  0.05964852  1.0
  Ni  Ni93  1  0.54171833  0.24989667  0.05964852  1.0
  Ni  Ni94  1  0.54171833  0.58323000  0.05964852  1.0
  Ni  Ni95  1  0.54171833  0.91656333  0.05964852  1.0
  Ni  Ni96  1  0.87505167  0.24989667  0.05964852  1.0
  Ni  Ni97  1  0.87505167  0.58323000  0.05964852  1.0
  Ni  Ni98  1  0.87505167  0.91656333  0.05964852  1.0
  Ni  Ni99  1  0.04171833  0.24989667  0.08237580  1.0
  Ni  Ni100  1  0.04171833  0.58323000  0.08237580  1.0
  Ni  Ni101  1  0.04171833  0.91656333  0.08237580  1.0
  Ni  Ni102  1  0.37505167  0.24989667  0.08237580  1.0
  Ni  Ni103  1  0.37505167  0.58323000  0.08237580  1.0
  Ni  Ni104  1  0.37505167  0.91656333  0.08237580  1.0
  Ni  Ni105  1  0.70838500  0.24989667  0.08237580  1.0
  Ni  Ni106  1  0.70838500  0.58323000  0.08237580  1.0
  Ni  Ni107  1  0.70838500  0.91656333  0.08237580  1.0
  Ni  Ni108  1  0.25000000  0.16666667  0.05397375  1.0
  Ni  Ni109  1  0.25000000  0.50000000  0.05397375  1.0
  Ni  Ni110  1  0.25000000  0.83333333  0.05397375  1.0
  Ni  Ni111  1  0.58333333  0.16666667  0.05397375  1.0
  Ni  Ni112  1  0.58333333  0.50000000  0.05397375  1.0
  Ni  Ni113  1  0.58333333  0.83333333  0.05397375  1.0
  Ni  Ni114  1  0.91666667  0.16666667  0.05397375  1.0
  Ni  Ni115  1  0.91666667  0.50000000  0.05397375  1.0
  Ni  Ni116  1  0.91666667  0.83333333  0.05397375  1.0
  Ni  Ni117  1  0.08333333  0.16666667  0.07670102  1.0
  Ni  Ni118  1  0.08333333  0.50000000  0.07670102  1.0
  Ni  Ni119  1  0.08333333  0.83333333  0.07670102  1.0
  Ni  Ni120  1  0.41666667  0.16666667  0.07670102  1.0
  Ni  Ni121  1  0.41666667  0.50000000  0.07670102  1.0
  Ni  Ni122  1  0.41666667  0.83333333  0.07670102  1.0
  Ni  Ni123  1  0.75000000  0.16666667  0.07670102  1.0
  Ni  Ni124  1  0.75000000  0.50000000  0.07670102  1.0
  Ni  Ni125  1  0.75000000  0.83333333  0.07670102  1.0
  Ni  Ni126  1  0.29161500  0.08343667  0.04829898  1.0
  Ni  Ni127  1  0.29161500  0.41677000  0.04829898  1.0
  Ni  Ni128  1  0.29161500  0.75010333  0.04829898  1.0
  Ni  Ni129  1  0.62494833  0.08343667  0.04829898  1.0
  Ni  Ni130  1  0.62494833  0.41677000  0.04829898  1.0
  Ni  Ni131  1  0.62494833  0.75010333  0.04829898  1.0
  Ni  Ni132  1  0.95828167  0.08343667  0.04829898  1.0
  Ni  Ni133  1  0.95828167  0.41677000  0.04829898  1.0
  Ni  Ni134  1  0.95828167  0.75010333  0.04829898  1.0
  Ni  Ni135  1  0.12494833  0.08343667  0.07102625  1.0
  Ni  Ni136  1  0.12494833  0.41677000  0.07102625  1.0
  Ni  Ni137  1  0.12494833  0.75010333  0.07102625  1.0
  Ni  Ni138  1  0.45828167  0.08343667  0.07102625  1.0
  Ni  Ni139  1  0.45828167  0.41677000  0.07102625  1.0
  Ni  Ni140  1  0.45828167  0.75010333  0.07102625  1.0
  Ni  Ni141  1  0.79161500  0.08343667  0.07102625  1.0
  Ni  Ni142  1  0.79161500  0.41677000  0.07102625  1.0
  Ni  Ni143  1  0.79161500  0.75010333  0.07102625  1.0
  Fe  Fe144  1  0.16666667  0.33333333  0.11079193  1.0
  Fe  Fe145  1  0.16666667  0.66666667  0.11079193  1.0
  Fe  Fe146  1  0.16666667  1.00000000  0.11079193  1.0
  Fe  Fe147  1  0.50000000  0.33333333  0.11079193  1.0
  Fe  Fe148  1  0.50000000  0.66666667  0.11079193  1.0
  Fe  Fe149  1  0.50000000  1.00000000  0.11079193  1.0
  Fe  Fe150  1  0.83333333  0.33333333  0.11079193  1.0
  Fe  Fe151  1  0.83333333  0.66666667  0.11079193  1.0
  Fe  Fe152  1  0.83333333  1.00000000  0.11079193  1.0
  Fe  Fe153  1  0.00000000  0.00000000  0.13351920  1.0
  Fe  Fe154  1  0.00000000  0.33333333  0.13351920  1.0
  Fe  Fe155  1  0.00000000  0.66666667  0.13351920  1.0
  Fe  Fe156  1  0.33333333  0.00000000  0.13351920  1.0
  Fe  Fe157  1  0.33333333  0.33333333  0.13351920  1.0
  Fe  Fe158  1  0.33333333  0.66666667  0.13351920  1.0
  Fe  Fe159  1  0.66666667  0.00000000  0.13351920  1.0
  Fe  Fe160  1  0.66666667  0.33333333  0.13351920  1.0
  Fe  Fe161  1  0.66666667  0.66666667  0.13351920  1.0
  Ni  Ni162  1  0.20838500  0.24989667  0.10510307  1.0
  Ni  Ni163  1  0.20838500  0.58323000  0.10510307  1.0
  Ni  Ni164  1  0.20838500  0.91656333  0.10510307  1.0
  Ni  Ni165  1  0.54171833  0.24989667  0.10510307  1.0
  Ni  Ni166  1  0.54171833  0.58323000  0.10510307  1.0
  Ni  Ni167  1  0.54171833  0.91656333  0.10510307  1.0
  Ni  Ni168  1  0.87505167  0.24989667  0.10510307  1.0
  Ni  Ni169  1  0.87505167  0.58323000  0.10510307  1.0
  Ni  Ni170  1  0.87505167  0.91656333  0.10510307  1.0
  Ni  Ni171  1  0.04171833  0.24989667  0.12783034  1.0
  Ni  Ni172  1  0.04171833  0.58323000  0.12783034  1.0
  Ni  Ni173  1  0.04171833  0.91656333  0.12783034  1.0
  Ni  Ni174  1  0.37505167  0.24989667  0.12783034  1.0
  Ni  Ni175  1  0.37505167  0.58323000  0.12783034  1.0
  Ni  Ni176  1  0.37505167  0.91656333  0.12783034  1.0
  Ni  Ni177  1  0.70838500  0.24989667  0.12783034  1.0
  Ni  Ni178  1  0.70838500  0.58323000  0.12783034  1.0
  Ni  Ni179  1  0.70838500  0.91656333  0.12783034  1.0
  Ni  Ni180  1  0.25000000  0.16666667  0.09942830  1.0
  Ni  Ni181  1  0.25000000  0.50000000  0.09942830  1.0
  Ni  Ni182  1  0.25000000  0.83333333  0.09942830  1.0
  Ni  Ni183  1  0.58333333  0.16666667  0.09942830  1.0
  Ni  Ni184  1  0.58333333  0.50000000  0.09942830  1.0
  Ni  Ni185  1  0.58333333  0.83333333  0.09942830  1.0
  Ni  Ni186  1  0.91666667  0.16666667  0.09942830  1.0
  Ni  Ni187  1  0.91666667  0.50000000  0.09942830  1.0
  Ni  Ni188  1  0.91666667  0.83333333  0.09942830  1.0
  Ni  Ni189  1  0.08333333  0.16666667  0.12215557  1.0
  Ni  Ni190  1  0.08333333  0.50000000  0.12215557  1.0
  Ni  Ni191  1  0.08333333  0.83333333  0.12215557  1.0
  Ni  Ni192  1  0.41666667  0.16666667  0.12215557  1.0
  Ni  Ni193  1  0.41666667  0.50000000  0.12215557  1.0
  Ni  Ni194  1  0.41666667  0.83333333  0.12215557  1.0
  Ni  Ni195  1  0.75000000  0.16666667  0.12215557  1.0
  Ni  Ni196  1  0.75000000  0.50000000  0.12215557  1.0
  Ni  Ni197  1  0.75000000  0.83333333  0.12215557  1.0
  Ni  Ni198  1  0.29161500  0.08343667  0.09375352  1.0
  Ni  Ni199  1  0.29161500  0.41677000  0.09375352  1.0
  Ni  Ni200  1  0.29161500  0.75010333  0.09375352  1.0
  Ni  Ni201  1  0.62494833  0.08343667  0.09375352  1.0
  Ni  Ni202  1  0.62494833  0.41677000  0.09375352  1.0
  Ni  Ni203  1  0.62494833  0.75010333  0.09375352  1.0
  Ni  Ni204  1  0.95828167  0.08343667  0.09375352  1.0
  Ni  Ni205  1  0.95828167  0.41677000  0.09375352  1.0
  Ni  Ni206  1  0.95828167  0.75010333  0.09375352  1.0
  Ni  Ni207  1  0.12494833  0.08343667  0.11648080  1.0
  Ni  Ni208  1  0.12494833  0.41677000  0.11648080  1.0
  Ni  Ni209  1  0.12494833  0.75010333  0.11648080  1.0
  Ni  Ni210  1  0.45828167  0.08343667  0.11648080  1.0
  Ni  Ni211  1  0.45828167  0.41677000  0.11648080  1.0
  Ni  Ni212  1  0.45828167  0.75010333  0.11648080  1.0
  Ni  Ni213  1  0.79161500  0.08343667  0.11648080  1.0
  Ni  Ni214  1  0.79161500  0.41677000  0.11648080  1.0
  Ni  Ni215  1  0.79161500  0.75010333  0.11648080  1.0
  Fe  Fe216  1  0.16666667  0.33333333  0.15624648  1.0
  Fe  Fe217  1  0.16666667  0.66666667  0.15624648  1.0
  Fe  Fe218  1  0.16666667  1.00000000  0.15624648  1.0
  Fe  Fe219  1  0.50000000  0.33333333  0.15624648  1.0
  Fe  Fe220  1  0.50000000  0.66666667  0.15624648  1.0
  Fe  Fe221  1  0.50000000  1.00000000  0.15624648  1.0
  Fe  Fe222  1  0.83333333  0.33333333  0.15624648  1.0
  Fe  Fe223  1  0.83333333  0.66666667  0.15624648  1.0
  Fe  Fe224  1  0.83333333  1.00000000  0.15624648  1.0
  Fe  Fe225  1  0.00000000  0.00000000  0.17897375  1.0
  Fe  Fe226  1  0.00000000  0.33333333  0.17897375  1.0
  Fe  Fe227  1  0.00000000  0.66666667  0.17897375  1.0
  Fe  Fe228  1  0.33333333  0.00000000  0.17897375  1.0
  Fe  Fe229  1  0.33333333  0.33333333  0.17897375  1.0
  Fe  Fe230  1  0.33333333  0.66666667  0.17897375  1.0
  Fe  Fe231  1  0.66666667  0.00000000  0.17897375  1.0
  Fe  Fe232  1  0.66666667  0.33333333  0.17897375  1.0
  Fe  Fe233  1  0.66666667  0.66666667  0.17897375  1.0
  Ni  Ni234  1  0.20838500  0.24989667  0.15055761  1.0
  Ni  Ni235  1  0.20838500  0.58323000  0.15055761  1.0
  Ni  Ni236  1  0.20838500  0.91656333  0.15055761  1.0
  Ni  Ni237  1  0.54171833  0.24989667  0.15055761  1.0
  Ni  Ni238  1  0.54171833  0.58323000  0.15055761  1.0
  Ni  Ni239  1  0.54171833  0.91656333  0.15055761  1.0
  Ni  Ni240  1  0.87505167  0.24989667  0.15055761  1.0
  Ni  Ni241  1  0.87505167  0.58323000  0.15055761  1.0
  Ni  Ni242  1  0.87505167  0.91656333  0.15055761  1.0
  Ni  Ni243  1  0.04171833  0.24989667  0.17328489  1.0
  Ni  Ni244  1  0.04171833  0.58323000  0.17328489  1.0
  Ni  Ni245  1  0.04171833  0.91656333  0.17328489  1.0
  Ni  Ni246  1  0.37505167  0.24989667  0.17328489  1.0
  Ni  Ni247  1  0.37505167  0.58323000  0.17328489  1.0
  Ni  Ni248  1  0.37505167  0.91656333  0.17328489  1.0
  Ni  Ni249  1  0.70838500  0.24989667  0.17328489  1.0
  Ni  Ni250  1  0.70838500  0.58323000  0.17328489  1.0
  Ni  Ni251  1  0.70838500  0.91656333  0.17328489  1.0
  Ni  Ni252  1  0.25000000  0.16666667  0.14488284  1.0
  Ni  Ni253  1  0.25000000  0.50000000  0.14488284  1.0
  Ni  Ni254  1  0.25000000  0.83333333  0.14488284  1.0
  Ni  Ni255  1  0.58333333  0.16666667  0.14488284  1.0
  Ni  Ni256  1  0.58333333  0.50000000  0.14488284  1.0
  Ni  Ni257  1  0.58333333  0.83333333  0.14488284  1.0
  Ni  Ni258  1  0.91666667  0.16666667  0.14488284  1.0
  Ni  Ni259  1  0.91666667  0.50000000  0.14488284  1.0
  Ni  Ni260  1  0.91666667  0.83333333  0.14488284  1.0
  Ni  Ni261  1  0.08333333  0.16666667  0.16761011  1.0
  Ni  Ni262  1  0.08333333  0.50000000  0.16761011  1.0
  Ni  Ni263  1  0.08333333  0.83333333  0.16761011  1.0
  Ni  Ni264  1  0.41666667  0.16666667  0.16761011  1.0
  Ni  Ni265  1  0.41666667  0.50000000  0.16761011  1.0
  Ni  Ni266  1  0.41666667  0.83333333  0.16761011  1.0
  Ni  Ni267  1  0.75000000  0.16666667  0.16761011  1.0
  Ni  Ni268  1  0.75000000  0.50000000  0.16761011  1.0
  Ni  Ni269  1  0.75000000  0.83333333  0.16761011  1.0
  Ni  Ni270  1  0.29161500  0.08343667  0.13920807  1.0
  Ni  Ni271  1  0.29161500  0.41677000  0.13920807  1.0
  Ni  Ni272  1  0.29161500  0.75010333  0.13920807  1.0
  Ni  Ni273  1  0.62494833  0.08343667  0.13920807  1.0
  Ni  Ni274  1  0.62494833  0.41677000  0.13920807  1.0
  Ni  Ni275  1  0.62494833  0.75010333  0.13920807  1.0
  Ni  Ni276  1  0.95828167  0.08343667  0.13920807  1.0
  Ni  Ni277  1  0.95828167  0.41677000  0.13920807  1.0
  Ni  Ni278  1  0.95828167  0.75010333  0.13920807  1.0
  Ni  Ni279  1  0.12494833  0.08343667  0.16193534  1.0
  Ni  Ni280  1  0.12494833  0.41677000  0.16193534  1.0
  Ni  Ni281  1  0.12494833  0.75010333  0.16193534  1.0
  Ni  Ni282  1  0.45828167  0.08343667  0.16193534  1.0
  Ni  Ni283  1  0.45828167  0.41677000  0.16193534  1.0
  Ni  Ni284  1  0.45828167  0.75010333  0.16193534  1.0
  Ni  Ni285  1  0.79161500  0.08343667  0.16193534  1.0
  Ni  Ni286  1  0.79161500  0.41677000  0.16193534  1.0
  Ni  Ni287  1  0.79161500  0.75010333  0.16193534  1.0
  Fe  Fe288  1  0.16666667  0.33333333  0.20170102  1.0
  Fe  Fe289  1  0.16666667  0.66666667  0.20170102  1.0
  Fe  Fe290  1  0.16666667  1.00000000  0.20170102  1.0
  Fe  Fe291  1  0.50000000  0.33333333  0.20170102  1.0
  Fe  Fe292  1  0.50000000  0.66666667  0.20170102  1.0
  Fe  Fe293  1  0.50000000  1.00000000  0.20170102  1.0
  Fe  Fe294  1  0.83333333  0.33333333  0.20170102  1.0
  Fe  Fe295  1  0.83333333  0.66666667  0.20170102  1.0
  Fe  Fe296  1  0.83333333  1.00000000  0.20170102  1.0
  Fe  Fe297  1  0.00000000  0.00000000  0.22442830  1.0
  Fe  Fe298  1  0.00000000  0.33333333  0.22442830  1.0
  Fe  Fe299  1  0.00000000  0.66666667  0.22442830  1.0
  Fe  Fe300  1  0.33333333  0.00000000  0.22442830  1.0
  Fe  Fe301  1  0.33333333  0.33333333  0.22442830  1.0
  Fe  Fe302  1  0.33333333  0.66666667  0.22442830  1.0
  Fe  Fe303  1  0.66666667  0.00000000  0.22442830  1.0
  Fe  Fe304  1  0.66666667  0.33333333  0.22442830  1.0
  Fe  Fe305  1  0.66666667  0.66666667  0.22442830  1.0
  Ni  Ni306  1  0.20838500  0.24989667  0.19601216  1.0
  Ni  Ni307  1  0.20838500  0.58323000  0.19601216  1.0
  Ni  Ni308  1  0.20838500  0.91656333  0.19601216  1.0
  Ni  Ni309  1  0.54171833  0.24989667  0.19601216  1.0
  Ni  Ni310  1  0.54171833  0.58323000  0.19601216  1.0
  Ni  Ni311  1  0.54171833  0.91656333  0.19601216  1.0
  Ni  Ni312  1  0.87505167  0.24989667  0.19601216  1.0
  Ni  Ni313  1  0.87505167  0.58323000  0.19601216  1.0
  Ni  Ni314  1  0.87505167  0.91656333  0.19601216  1.0
  Ni  Ni315  1  0.04171833  0.24989667  0.21873943  1.0
  Ni  Ni316  1  0.04171833  0.58323000  0.21873943  1.0
  Ni  Ni317  1  0.04171833  0.91656333  0.21873943  1.0
  Ni  Ni318  1  0.37505167  0.24989667  0.21873943  1.0
  Ni  Ni319  1  0.37505167  0.58323000  0.21873943  1.0
  Ni  Ni320  1  0.37505167  0.91656333  0.21873943  1.0
  Ni  Ni321  1  0.70838500  0.24989667  0.21873943  1.0
  Ni  Ni322  1  0.70838500  0.58323000  0.21873943  1.0
  Ni  Ni323  1  0.70838500  0.91656333  0.21873943  1.0
  Ni  Ni324  1  0.25000000  0.16666667  0.19033739  1.0
  Ni  Ni325  1  0.25000000  0.50000000  0.19033739  1.0
  Ni  Ni326  1  0.25000000  0.83333333  0.19033739  1.0
  Ni  Ni327  1  0.58333333  0.16666667  0.19033739  1.0
  Ni  Ni328  1  0.58333333  0.50000000  0.19033739  1.0
  Ni  Ni329  1  0.58333333  0.83333333  0.19033739  1.0
  Ni  Ni330  1  0.91666667  0.16666667  0.19033739  1.0
  Ni  Ni331  1  0.91666667  0.50000000  0.19033739  1.0
  Ni  Ni332  1  0.91666667  0.83333333  0.19033739  1.0
  Ni  Ni333  1  0.08333333  0.16666667  0.21306466  1.0
  Ni  Ni334  1  0.08333333  0.50000000  0.21306466  1.0
  Ni  Ni335  1  0.08333333  0.83333333  0.21306466  1.0
  Ni  Ni336  1  0.41666667  0.16666667  0.21306466  1.0
  Ni  Ni337  1  0.41666667  0.50000000  0.21306466  1.0
  Ni  Ni338  1  0.41666667  0.83333333  0.21306466  1.0
  Ni  Ni339  1  0.75000000  0.16666667  0.21306466  1.0
  Ni  Ni340  1  0.75000000  0.50000000  0.21306466  1.0
  Ni  Ni341  1  0.75000000  0.83333333  0.21306466  1.0
  Ni  Ni342  1  0.29161500  0.08343667  0.18466261  1.0
  Ni  Ni343  1  0.29161500  0.41677000  0.18466261  1.0
  Ni  Ni344  1  0.29161500  0.75010333  0.18466261  1.0
  Ni  Ni345  1  0.62494833  0.08343667  0.18466261  1.0
  Ni  Ni346  1  0.62494833  0.41677000  0.18466261  1.0
  Ni  Ni347  1  0.62494833  0.75010333  0.18466261  1.0
  Ni  Ni348  1  0.95828167  0.08343667  0.18466261  1.0
  Ni  Ni349  1  0.95828167  0.41677000  0.18466261  1.0
  Ni  Ni350  1  0.95828167  0.75010333  0.18466261  1.0
  Ni  Ni351  1  0.12494833  0.08343667  0.20738989  1.0
  Ni  Ni352  1  0.12494833  0.41677000  0.20738989  1.0
  Ni  Ni353  1  0.12494833  0.75010333  0.20738989  1.0
  Ni  Ni354  1  0.45828167  0.08343667  0.20738989  1.0
  Ni  Ni355  1  0.45828167  0.41677000  0.20738989  1.0
  Ni  Ni356  1  0.45828167  0.75010333  0.20738989  1.0
  Ni  Ni357  1  0.79161500  0.08343667  0.20738989  1.0
  Ni  Ni358  1  0.79161500  0.41677000  0.20738989  1.0
  Ni  Ni359  1  0.79161500  0.75010333  0.20738989  1.0
  Fe  Fe360  1  0.16666667  0.33333333  0.24715557  1.0
  Fe  Fe361  1  0.16666667  0.66666667  0.24715557  1.0
  Fe  Fe362  1  0.16666667  1.00000000  0.24715557  1.0
  Fe  Fe363  1  0.50000000  0.33333333  0.24715557  1.0
  Fe  Fe364  1  0.50000000  0.66666667  0.24715557  1.0
  Fe  Fe365  1  0.50000000  1.00000000  0.24715557  1.0
  Fe  Fe366  1  0.83333333  0.33333333  0.24715557  1.0
  Fe  Fe367  1  0.83333333  0.66666667  0.24715557  1.0
  Fe  Fe368  1  0.83333333  1.00000000  0.24715557  1.0
  Fe  Fe369  1  0.00000000  0.00000000  0.26988284  1.0
  Fe  Fe370  1  0.00000000  0.33333333  0.26988284  1.0
  Fe  Fe371  1  0.00000000  0.66666667  0.26988284  1.0
  Fe  Fe372  1  0.33333333  0.00000000  0.26988284  1.0
  Fe  Fe373  1  0.33333333  0.33333333  0.26988284  1.0
  Fe  Fe374  1  0.33333333  0.66666667  0.26988284  1.0
  Fe  Fe375  1  0.66666667  0.00000000  0.26988284  1.0
  Fe  Fe376  1  0.66666667  0.33333333  0.26988284  1.0
  Fe  Fe377  1  0.66666667  0.66666667  0.26988284  1.0
  Ni  Ni378  1  0.20838500  0.24989667  0.24146670  1.0
  Ni  Ni379  1  0.20838500  0.58323000  0.24146670  1.0
  Ni  Ni380  1  0.20838500  0.91656333  0.24146670  1.0
  Ni  Ni381  1  0.54171833  0.24989667  0.24146670  1.0
  Ni  Ni382  1  0.54171833  0.58323000  0.24146670  1.0
  Ni  Ni383  1  0.54171833  0.91656333  0.24146670  1.0
  Ni  Ni384  1  0.87505167  0.24989667  0.24146670  1.0
  Ni  Ni385  1  0.87505167  0.58323000  0.24146670  1.0
  Ni  Ni386  1  0.87505167  0.91656333  0.24146670  1.0
  Ni  Ni387  1  0.04171833  0.24989667  0.26419398  1.0
  Ni  Ni388  1  0.04171833  0.58323000  0.26419398  1.0
  Ni  Ni389  1  0.04171833  0.91656333  0.26419398  1.0
  Ni  Ni390  1  0.37505167  0.24989667  0.26419398  1.0
  Ni  Ni391  1  0.37505167  0.58323000  0.26419398  1.0
  Ni  Ni392  1  0.37505167  0.91656333  0.26419398  1.0
  Ni  Ni393  1  0.70838500  0.24989667  0.26419398  1.0
  Ni  Ni394  1  0.70838500  0.58323000  0.26419398  1.0
  Ni  Ni395  1  0.70838500  0.91656333  0.26419398  1.0
  Ni  Ni396  1  0.25000000  0.16666667  0.23579193  1.0
  Ni  Ni397  1  0.25000000  0.50000000  0.23579193  1.0
  Ni  Ni398  1  0.25000000  0.83333333  0.23579193  1.0
  Ni  Ni399  1  0.58333333  0.16666667  0.23579193  1.0
  Ni  Ni400  1  0.58333333  0.50000000  0.23579193  1.0
  Ni  Ni401  1  0.58333333  0.83333333  0.23579193  1.0
  Ni  Ni402  1  0.91666667  0.16666667  0.23579193  1.0
  Ni  Ni403  1  0.91666667  0.50000000  0.23579193  1.0
  Ni  Ni404  1  0.91666667  0.83333333  0.23579193  1.0
  Ni  Ni405  1  0.08333333  0.16666667  0.25851920  1.0
  Ni  Ni406  1  0.08333333  0.50000000  0.25851920  1.0
  Ni  Ni407  1  0.08333333  0.83333333  0.25851920  1.0
  Ni  Ni408  1  0.41666667  0.16666667  0.25851920  1.0
  Ni  Ni409  1  0.41666667  0.50000000  0.25851920  1.0
  Ni  Ni410  1  0.41666667  0.83333333  0.25851920  1.0
  Ni  Ni411  1  0.75000000  0.16666667  0.25851920  1.0
  Ni  Ni412  1  0.75000000  0.50000000  0.25851920  1.0
  Ni  Ni413  1  0.75000000  0.83333333  0.25851920  1.0
  Ni  Ni414  1  0.29161500  0.08343667  0.23011716  1.0
  Ni  Ni415  1  0.29161500  0.41677000  0.23011716  1.0
  Ni  Ni416  1  0.29161500  0.75010333  0.23011716  1.0
  Ni  Ni417  1  0.62494833  0.08343667  0.23011716  1.0
  Ni  Ni418  1  0.62494833  0.41677000  0.23011716  1.0
  Ni  Ni419  1  0.62494833  0.75010333  0.23011716  1.0
  Ni  Ni420  1  0.95828167  0.08343667  0.23011716  1.0
  Ni  Ni421  1  0.95828167  0.41677000  0.23011716  1.0
  Ni  Ni422  1  0.95828167  0.75010333  0.23011716  1.0
  Ni  Ni423  1  0.12494833  0.08343667  0.25284443  1.0
  Ni  Ni424  1  0.12494833  0.41677000  0.25284443  1.0
  Ni  Ni425  1  0.12494833  0.75010333  0.25284443  1.0
  Ni  Ni426  1  0.45828167  0.08343667  0.25284443  1.0
  Ni  Ni427  1  0.45828167  0.41677000  0.25284443  1.0
  Ni  Ni428  1  0.45828167  0.75010333  0.25284443  1.0
  Ni  Ni429  1  0.79161500  0.08343667  0.25284443  1.0
  Ni  Ni430  1  0.79161500  0.41677000  0.25284443  1.0
  Ni  Ni431  1  0.79161500  0.75010333  0.25284443  1.0
  Fe  Fe432  1  0.16666667  0.33333333  0.29261011  1.0
  Fe  Fe433  1  0.16666667  0.66666667  0.29261011  1.0
  Fe  Fe434  1  0.16666667  1.00000000  0.29261011  1.0
  Fe  Fe435  1  0.50000000  0.33333333  0.29261011  1.0
  Fe  Fe436  1  0.50000000  0.66666667  0.29261011  1.0
  Fe  Fe437  1  0.50000000  1.00000000  0.29261011  1.0
  Fe  Fe438  1  0.83333333  0.33333333  0.29261011  1.0
  Fe  Fe439  1  0.83333333  0.66666667  0.29261011  1.0
  Fe  Fe440  1  0.83333333  1.00000000  0.29261011  1.0
  Fe  Fe441  1  0.00000000  0.00000000  0.31533739  1.0
  Fe  Fe442  1  0.00000000  0.33333333  0.31533739  1.0
  Fe  Fe443  1  0.00000000  0.66666667  0.31533739  1.0
  Fe  Fe444  1  0.33333333  0.00000000  0.31533739  1.0
  Fe  Fe445  1  0.33333333  0.33333333  0.31533739  1.0
  Fe  Fe446  1  0.33333333  0.66666667  0.31533739  1.0
  Fe  Fe447  1  0.66666667  0.00000000  0.31533739  1.0
  Fe  Fe448  1  0.66666667  0.33333333  0.31533739  1.0
  Fe  Fe449  1  0.66666667  0.66666667  0.31533739  1.0
  Ni  Ni450  1  0.20838500  0.24989667  0.28692125  1.0
  Ni  Ni451  1  0.20838500  0.58323000  0.28692125  1.0
  Ni  Ni452  1  0.20838500  0.91656333  0.28692125  1.0
  Ni  Ni453  1  0.54171833  0.24989667  0.28692125  1.0
  Ni  Ni454  1  0.54171833  0.58323000  0.28692125  1.0
  Ni  Ni455  1  0.54171833  0.91656333  0.28692125  1.0
  Ni  Ni456  1  0.87505167  0.24989667  0.28692125  1.0
  Ni  Ni457  1  0.87505167  0.58323000  0.28692125  1.0
  Ni  Ni458  1  0.87505167  0.91656333  0.28692125  1.0
  Ni  Ni459  1  0.04171833  0.24989667  0.30964852  1.0
  Ni  Ni460  1  0.04171833  0.58323000  0.30964852  1.0
  Ni  Ni461  1  0.04171833  0.91656333  0.30964852  1.0
  Ni  Ni462  1  0.37505167  0.24989667  0.30964852  1.0
  Ni  Ni463  1  0.37505167  0.58323000  0.30964852  1.0
  Ni  Ni464  1  0.37505167  0.91656333  0.30964852  1.0
  Ni  Ni465  1  0.70838500  0.24989667  0.30964852  1.0
  Ni  Ni466  1  0.70838500  0.58323000  0.30964852  1.0
  Ni  Ni467  1  0.70838500  0.91656333  0.30964852  1.0
  Ni  Ni468  1  0.25000000  0.16666667  0.28124648  1.0
  Ni  Ni469  1  0.25000000  0.50000000  0.28124648  1.0
  Ni  Ni470  1  0.25000000  0.83333333  0.28124648  1.0
  Ni  Ni471  1  0.58333333  0.16666667  0.28124648  1.0
  Ni  Ni472  1  0.58333333  0.50000000  0.28124648  1.0
  Ni  Ni473  1  0.58333333  0.83333333  0.28124648  1.0
  Ni  Ni474  1  0.91666667  0.16666667  0.28124648  1.0
  Ni  Ni475  1  0.91666667  0.50000000  0.28124648  1.0
  Ni  Ni476  1  0.91666667  0.83333333  0.28124648  1.0
  Ni  Ni477  1  0.08333333  0.16666667  0.30397375  1.0
  Ni  Ni478  1  0.08333333  0.50000000  0.30397375  1.0
  Ni  Ni479  1  0.08333333  0.83333333  0.30397375  1.0
  Ni  Ni480  1  0.41666667  0.16666667  0.30397375  1.0
  Ni  Ni481  1  0.41666667  0.50000000  0.30397375  1.0
  Ni  Ni482  1  0.41666667  0.83333333  0.30397375  1.0
  Ni  Ni483  1  0.75000000  0.16666667  0.30397375  1.0
  Ni  Ni484  1  0.75000000  0.50000000  0.30397375  1.0
  Ni  Ni485  1  0.75000000  0.83333333  0.30397375  1.0
  Ni  Ni486  1  0.29161500  0.08343667  0.27557170  1.0
  Ni  Ni487  1  0.29161500  0.41677000  0.27557170  1.0
  Ni  Ni488  1  0.29161500  0.75010333  0.27557170  1.0
  Ni  Ni489  1  0.62494833  0.08343667  0.27557170  1.0
  Ni  Ni490  1  0.62494833  0.41677000  0.27557170  1.0
  Ni  Ni491  1  0.62494833  0.75010333  0.27557170  1.0
  Ni  Ni492  1  0.95828167  0.08343667  0.27557170  1.0
  Ni  Ni493  1  0.95828167  0.41677000  0.27557170  1.0
  Ni  Ni494  1  0.95828167  0.75010333  0.27557170  1.0
  Ni  Ni495  1  0.12494833  0.08343667  0.29829898  1.0
  Ni  Ni496  1  0.12494833  0.41677000  0.29829898  1.0
  Ni  Ni497  1  0.12494833  0.75010333  0.29829898  1.0
  Ni  Ni498  1  0.45828167  0.08343667  0.29829898  1.0
  Ni  Ni499  1  0.45828167  0.41677000  0.29829898  1.0
  Ni  Ni500  1  0.45828167  0.75010333  0.29829898  1.0
  Ni  Ni501  1  0.79161500  0.08343667  0.29829898  1.0
  Ni  Ni502  1  0.79161500  0.41677000  0.29829898  1.0
  Ni  Ni503  1  0.79161500  0.75010333  0.29829898  1.0
  Fe  Fe504  1  0.16666667  0.33333333  0.33806466  1.0
  Fe  Fe505  1  0.16666667  0.66666667  0.33806466  1.0
  Fe  Fe506  1  0.16666667  1.00000000  0.33806466  1.0
  Fe  Fe507  1  0.50000000  0.33333333  0.33806466  1.0
  Fe  Fe508  1  0.50000000  0.66666667  0.33806466  1.0
  Fe  Fe509  1  0.50000000  1.00000000  0.33806466  1.0
  Fe  Fe510  1  0.83333333  0.33333333  0.33806466  1.0
  Fe  Fe511  1  0.83333333  0.66666667  0.33806466  1.0
  Fe  Fe512  1  0.83333333  1.00000000  0.33806466  1.0
  Fe  Fe513  1  0.00000000  0.00000000  0.36079193  1.0
  Fe  Fe514  1  0.00000000  0.33333333  0.36079193  1.0
  Fe  Fe515  1  0.00000000  0.66666667  0.36079193  1.0
  Fe  Fe516  1  0.33333333  0.00000000  0.36079193  1.0
  Fe  Fe517  1  0.33333333  0.33333333  0.36079193  1.0
  Fe  Fe518  1  0.33333333  0.66666667  0.36079193  1.0
  Fe  Fe519  1  0.66666667  0.00000000  0.36079193  1.0
  Fe  Fe520  1  0.66666667  0.33333333  0.36079193  1.0
  Fe  Fe521  1  0.66666667  0.66666667  0.36079193  1.0
  Ni  Ni522  1  0.20838500  0.24989667  0.33237580  1.0
  Ni  Ni523  1  0.20838500  0.58323000  0.33237580  1.0
  Ni  Ni524  1  0.20838500  0.91656333  0.33237580  1.0
  Ni  Ni525  1  0.54171833  0.24989667  0.33237580  1.0
  Ni  Ni526  1  0.54171833  0.58323000  0.33237580  1.0
  Ni  Ni527  1  0.54171833  0.91656333  0.33237580  1.0
  Ni  Ni528  1  0.87505167  0.24989667  0.33237580  1.0
  Ni  Ni529  1  0.87505167  0.58323000  0.33237580  1.0
  Ni  Ni530  1  0.87505167  0.91656333  0.33237580  1.0
  Ni  Ni531  1  0.04171833  0.24989667  0.35510307  1.0
  Ni  Ni532  1  0.04171833  0.58323000  0.35510307  1.0
  Ni  Ni533  1  0.04171833  0.91656333  0.35510307  1.0
  Ni  Ni534  1  0.37505167  0.24989667  0.35510307  1.0
  Ni  Ni535  1  0.37505167  0.58323000  0.35510307  1.0
  Ni  Ni536  1  0.37505167  0.91656333  0.35510307  1.0
  Ni  Ni537  1  0.70838500  0.24989667  0.35510307  1.0
  Ni  Ni538  1  0.70838500  0.58323000  0.35510307  1.0
  Ni  Ni539  1  0.70838500  0.91656333  0.35510307  1.0
  Ni  Ni540  1  0.25000000  0.16666667  0.32670102  1.0
  Ni  Ni541  1  0.25000000  0.50000000  0.32670102  1.0
  Ni  Ni542  1  0.25000000  0.83333333  0.32670102  1.0
  Ni  Ni543  1  0.58333333  0.16666667  0.32670102  1.0
  Ni  Ni544  1  0.58333333  0.50000000  0.32670102  1.0
  Ni  Ni545  1  0.58333333  0.83333333  0.32670102  1.0
  Ni  Ni546  1  0.91666667  0.16666667  0.32670102  1.0
  Ni  Ni547  1  0.91666667  0.50000000  0.32670102  1.0
  Ni  Ni548  1  0.91666667  0.83333333  0.32670102  1.0
  Ni  Ni549  1  0.08333333  0.16666667  0.34942830  1.0
  Ni  Ni550  1  0.08333333  0.50000000  0.34942830  1.0
  Ni  Ni551  1  0.08333333  0.83333333  0.34942830  1.0
  Ni  Ni552  1  0.41666667  0.16666667  0.34942830  1.0
  Ni  Ni553  1  0.41666667  0.50000000  0.34942830  1.0
  Ni  Ni554  1  0.41666667  0.83333333  0.34942830  1.0
  Ni  Ni555  1  0.75000000  0.16666667  0.34942830  1.0
  Ni  Ni556  1  0.75000000  0.50000000  0.34942830  1.0
  Ni  Ni557  1  0.75000000  0.83333333  0.34942830  1.0
  Ni  Ni558  1  0.29161500  0.08343667  0.32102625  1.0
  Ni  Ni559  1  0.29161500  0.41677000  0.32102625  1.0
  Ni  Ni560  1  0.29161500  0.75010333  0.32102625  1.0
  Ni  Ni561  1  0.62494833  0.08343667  0.32102625  1.0
  Ni  Ni562  1  0.62494833  0.41677000  0.32102625  1.0
  Ni  Ni563  1  0.62494833  0.75010333  0.32102625  1.0
  Ni  Ni564  1  0.95828167  0.08343667  0.32102625  1.0
  Ni  Ni565  1  0.95828167  0.41677000  0.32102625  1.0
  Ni  Ni566  1  0.95828167  0.75010333  0.32102625  1.0
  Ni  Ni567  1  0.12494833  0.08343667  0.34375352  1.0
  Ni  Ni568  1  0.12494833  0.41677000  0.34375352  1.0
  Ni  Ni569  1  0.12494833  0.75010333  0.34375352  1.0
  Ni  Ni570  1  0.45828167  0.08343667  0.34375352  1.0
  Ni  Ni571  1  0.45828167  0.41677000  0.34375352  1.0
  Ni  Ni572  1  0.45828167  0.75010333  0.34375352  1.0
  Ni  Ni573  1  0.79161500  0.08343667  0.34375352  1.0
  Ni  Ni574  1  0.79161500  0.41677000  0.34375352  1.0
  Ni  Ni575  1  0.79161500  0.75010333  0.34375352  1.0
  Fe  Fe576  1  0.16666667  0.33333333  0.38351920  1.0
  Fe  Fe577  1  0.16666667  0.66666667  0.38351920  1.0
  Fe  Fe578  1  0.16666667  1.00000000  0.38351920  1.0
  Fe  Fe579  1  0.50000000  0.33333333  0.38351920  1.0
  Fe  Fe580  1  0.50000000  0.66666667  0.38351920  1.0
  Fe  Fe581  1  0.50000000  1.00000000  0.38351920  1.0
  Fe  Fe582  1  0.83333333  0.33333333  0.38351920  1.0
  Fe  Fe583  1  0.83333333  0.66666667  0.38351920  1.0
  Fe  Fe584  1  0.83333333  1.00000000  0.38351920  1.0
  Fe  Fe585  1  0.00000000  0.00000000  0.40624648  1.0
  Fe  Fe586  1  0.00000000  0.33333333  0.40624648  1.0
  Fe  Fe587  1  0.00000000  0.66666667  0.40624648  1.0
  Fe  Fe588  1  0.33333333  0.00000000  0.40624648  1.0
  Fe  Fe589  1  0.33333333  0.33333333  0.40624648  1.0
  Fe  Fe590  1  0.33333333  0.66666667  0.40624648  1.0
  Fe  Fe591  1  0.66666667  0.00000000  0.40624648  1.0
  Fe  Fe592  1  0.66666667  0.33333333  0.40624648  1.0
  Fe  Fe593  1  0.66666667  0.66666667  0.40624648  1.0
  Ni  Ni594  1  0.20838500  0.24989667  0.37783034  1.0
  Ni  Ni595  1  0.20838500  0.58323000  0.37783034  1.0
  Ni  Ni596  1  0.20838500  0.91656333  0.37783034  1.0
  Ni  Ni597  1  0.54171833  0.24989667  0.37783034  1.0
  Ni  Ni598  1  0.54171833  0.58323000  0.37783034  1.0
  Ni  Ni599  1  0.54171833  0.91656333  0.37783034  1.0
  Ni  Ni600  1  0.87505167  0.24989667  0.37783034  1.0
  Ni  Ni601  1  0.87505167  0.58323000  0.37783034  1.0
  Ni  Ni602  1  0.87505167  0.91656333  0.37783034  1.0
  Ni  Ni603  1  0.04171833  0.24989667  0.40055761  1.0
  Ni  Ni604  1  0.04171833  0.58323000  0.40055761  1.0
  Ni  Ni605  1  0.04171833  0.91656333  0.40055761  1.0
  Ni  Ni606  1  0.37505167  0.24989667  0.40055761  1.0
  Ni  Ni607  1  0.37505167  0.58323000  0.40055761  1.0
  Ni  Ni608  1  0.37505167  0.91656333  0.40055761  1.0
  Ni  Ni609  1  0.70838500  0.24989667  0.40055761  1.0
  Ni  Ni610  1  0.70838500  0.58323000  0.40055761  1.0
  Ni  Ni611  1  0.70838500  0.91656333  0.40055761  1.0
  Ni  Ni612  1  0.25000000  0.16666667  0.37215557  1.0
  Ni  Ni613  1  0.25000000  0.50000000  0.37215557  1.0
  Ni  Ni614  1  0.25000000  0.83333333  0.37215557  1.0
  Ni  Ni615  1  0.58333333  0.16666667  0.37215557  1.0
  Ni  Ni616  1  0.58333333  0.50000000  0.37215557  1.0
  Ni  Ni617  1  0.58333333  0.83333333  0.37215557  1.0
  Ni  Ni618  1  0.91666667  0.16666667  0.37215557  1.0
  Ni  Ni619  1  0.91666667  0.50000000  0.37215557  1.0
  Ni  Ni620  1  0.91666667  0.83333333  0.37215557  1.0
  Ni  Ni621  1  0.08333333  0.16666667  0.39488284  1.0
  Ni  Ni622  1  0.08333333  0.50000000  0.39488284  1.0
  Ni  Ni623  1  0.08333333  0.83333333  0.39488284  1.0
  Ni  Ni624  1  0.41666667  0.16666667  0.39488284  1.0
  Ni  Ni625  1  0.41666667  0.50000000  0.39488284  1.0
  Ni  Ni626  1  0.41666667  0.83333333  0.39488284  1.0
  Ni  Ni627  1  0.75000000  0.16666667  0.39488284  1.0
  Ni  Ni628  1  0.75000000  0.50000000  0.39488284  1.0
  Ni  Ni629  1  0.75000000  0.83333333  0.39488284  1.0
  Ni  Ni630  1  0.29161500  0.08343667  0.36648080  1.0
  Ni  Ni631  1  0.29161500  0.41677000  0.36648080  1.0
  Ni  Ni632  1  0.29161500  0.75010333  0.36648080  1.0
  Ni  Ni633  1  0.62494833  0.08343667  0.36648080  1.0
  Ni  Ni634  1  0.62494833  0.41677000  0.36648080  1.0
  Ni  Ni635  1  0.62494833  0.75010333  0.36648080  1.0
  Ni  Ni636  1  0.95828167  0.08343667  0.36648080  1.0
  Ni  Ni637  1  0.95828167  0.41677000  0.36648080  1.0
  Ni  Ni638  1  0.95828167  0.75010333  0.36648080  1.0
  Ni  Ni639  1  0.12494833  0.08343667  0.38920807  1.0
  Ni  Ni640  1  0.12494833  0.41677000  0.38920807  1.0
  Ni  Ni641  1  0.12494833  0.75010333  0.38920807  1.0
  Ni  Ni642  1  0.45828167  0.08343667  0.38920807  1.0
  Ni  Ni643  1  0.45828167  0.41677000  0.38920807  1.0
  Ni  Ni644  1  0.45828167  0.75010333  0.38920807  1.0
  Ni  Ni645  1  0.79161500  0.08343667  0.38920807  1.0
  Ni  Ni646  1  0.79161500  0.41677000  0.38920807  1.0
  Ni  Ni647  1  0.79161500  0.75010333  0.38920807  1.0
