# generated using pymatgen
data_FeNi
_symmetry_space_group_name_H-M   'P 1'
_cell_length_a   13.93870121
_cell_length_b   14.23364285
_cell_length_c   27.56509503
_cell_angle_alpha   88.92520542
_cell_angle_beta   89.72858061
_cell_angle_gamma   62.67061755
_symmetry_Int_Tables_number   1
_chemical_formula_structural   FeNi
_chemical_formula_sum   'Fe90 Ni90'
_cell_volume   4857.54715866
_cell_formula_units_Z   90
loop_
 _symmetry_equiv_pos_site_id
 _symmetry_equiv_pos_as_xyz
  1  'x, y, z'
loop_
 _atom_site_type_symbol
 _atom_site_label
 _atom_site_symmetry_multiplicity
 _atom_site_fract_x
 _atom_site_fract_y
 _atom_site_fract_z
 _atom_site_occupancy
  Fe  Fe0  1  0.31944444  0.18055556  0.02083333  1.0
  Fe  Fe1  1  0.31944444  0.51388889  0.02083333  1.0
  Fe  Fe2  1  0.31944444  0.84722222  0.02083333  1.0
  Fe  Fe3  1  0.65277778  0.18055556  0.02083333  1.0
  Fe  Fe4  1  0.65277778  0.51388889  0.02083333  1.0
  Fe  Fe5  1  0.65277778  0.84722222  0.02083333  1.0
  Fe  Fe6  1  0.98611111  0.18055556  0.02083333  1.0
  Fe  Fe7  1  0.98611111  0.51388889  0.02083333  1.0
  Fe  Fe8  1  0.98611111  0.84722222  0.02083333  1.0
  Fe  Fe9  1  0.29166667  0.04166667  0.06250000  1.0
  Fe  Fe10  1  0.29166667  0.37500000  0.06250000  1.0
  Fe  Fe11  1  0.29166667  0.70833333  0.06250000  1.0
  Fe  Fe12  1  0.62500000  0.04166667  0.06250000  1.0
  Fe  Fe13  1  0.62500000  0.37500000  0.06250000  1.0
  Fe  Fe14  1  0.62500000  0.70833333  0.06250000  1.0
  Fe  Fe15  1  0.95833333  0.04166667  0.06250000  1.0
  Fe  Fe16  1  0.95833333  0.37500000  0.06250000  1.0
  Fe  Fe17  1  0.95833333  0.70833333  0.06250000  1.0
  Fe  Fe18  1  0.26388889  0.23611111  0.10416667  1.0
  Fe  Fe19  1  0.26388889  0.56944444  0.10416667  1.0
  Fe  Fe20  1  0.26388889  0.90277778  0.10416667  1.0
  Fe  Fe21  1  0.59722222  0.23611111  0.10416667  1.0
  Fe  Fe22  1  0.59722222  0.56944444  0.10416667  1.0
  Fe  Fe23  1  0.59722222  0.90277778  0.10416667  1.0
  Fe  Fe24  1  0.93055556  0.23611111  0.10416667  1.0
  Fe  Fe25  1  0.93055556  0.56944444  0.10416667  1.0
  Fe  Fe26  1  0.93055556  0.90277778  0.10416667  1.0
  Fe  Fe27  1  0.23611111  0.09722222  0.14583333  1.0
  Fe  Fe28  1  0.23611111  0.43055556  0.14583333  1.0
  Fe  Fe29  1  0.23611111  0.76388889  0.14583333  1.0
  Fe  Fe30  1  0.56944444  0.09722222  0.14583333  1.0
  Fe  Fe31  1  0.56944444  0.43055556  0.14583333  1.0
  Fe  Fe32  1  0.56944444  0.76388889  0.14583333  1.0
  Fe  Fe33  1  0.90277778  0.09722222  0.14583333  1.0
  Fe  Fe34  1  0.90277778  0.43055556  0.14583333  1.0
  Fe  Fe35  1  0.90277778  0.76388889  0.14583333  1.0
  Fe  Fe36  1  0.20833333  0.29166667  0.18750000  1.0
  Fe  Fe37  1  0.20833333  0.62500000  0.18750000  1.0
  Fe  Fe38  1  0.20833333  0.95833333  0.18750000  1.0
  Fe  Fe39  1  0.54166667  0.29166667  0.18750000  1.0
  Fe  Fe40  1  0.54166667  0.62500000  0.18750000  1.0
  Fe  Fe41  1  0.54166667  0.95833333  0.18750000  1.0
  Fe  Fe42  1  0.87500000  0.29166667  0.18750000  1.0
  Fe  Fe43  1  0.87500000  0.62500000  0.18750000  1.0
  Fe  Fe44  1  0.87500000  0.95833333  0.18750000  1.0
  Fe  Fe45  1  0.18055556  0.15277778  0.22916667  1.0
  Fe  Fe46  1  0.18055556  0.48611111  0.22916667  1.0
  Fe  Fe47  1  0.18055556  0.81944444  0.22916667  1.0
  Fe  Fe48  1  0.51388889  0.15277778  0.22916667  1.0
  Fe  Fe49  1  0.51388889  0.48611111  0.22916667  1.0
  Fe  Fe50  1  0.51388889  0.81944444  0.22916667  1.0
  Fe  Fe51  1  0.84722222  0.15277778  0.22916667  1.0
  Fe  Fe52  1  0.84722222  0.48611111  0.22916667  1.0
  Fe  Fe53  1  0.84722222  0.81944444  0.22916667  1.0
  Fe  Fe54  1  0.15277778  0.01388889  0.27083333  1.0
  Fe  Fe55  1  0.15277778  0.34722222  0.27083333  1.0
  Fe  Fe56  1  0.15277778  0.68055556  0.27083333  1.0
  Fe  Fe57  1  0.48611111  0.01388889  0.27083333  1.0
  Fe  Fe58  1  0.48611111  0.34722222  0.27083333  1.0
  Fe  Fe59  1  0.48611111  0.68055556  0.27083333  1.0
  Fe  Fe60  1  0.81944444  0.01388889  0.27083333  1.0
  Fe  Fe61  1  0.81944444  0.34722222  0.27083333  1.0
  Fe  Fe62  1  0.81944444  0.68055556  0.27083333  1.0
  Fe  Fe63  1  0.12500000  0.20833333  0.31250000  1.0
  Fe  Fe64  1  0.12500000  0.54166667  0.31250000  1.0
  Fe  Fe65  1  0.12500000  0.87500000  0.31250000  1.0
  Fe  Fe66  1  0.45833333  0.20833333  0.31250000  1.0
  Fe  Fe67  1  0.45833333  0.54166667  0.31250000  1.0
  Fe  Fe68  1  0.45833333  0.87500000  0.31250000  1.0
  Fe  Fe69  1  0.79166667  0.20833333  0.31250000  1.0
  Fe  Fe70  1  0.79166667  0.54166667  0.31250000  1.0
  Fe  Fe71  1  0.79166667  0.87500000  0.31250000  1.0
  Fe  Fe72  1  0.09722222  0.06944444  0.35416667  1.0
  Fe  Fe73  1  0.09722222  0.40277778  0.35416667  1.0
  Fe  Fe74  1  0.09722222  0.73611111  0.35416667  1.0
  Fe  Fe75  1  0.43055556  0.06944444  0.35416667  1.0
  Fe  Fe76  1  0.43055556  0.40277778  0.35416667  1.0
  Fe  Fe77  1  0.43055556  0.73611111  0.35416667  1.0
  Fe  Fe78  1  0.76388889  0.06944444  0.35416667  1.0
  Fe  Fe79  1  0.76388889  0.40277778  0.35416667  1.0
  Fe  Fe80  1  0.76388889  0.73611111  0.35416667  1.0
  Fe  Fe81  1  0.06944444  0.26388889  0.39583333  1.0
  Fe  Fe82  1  0.06944444  0.59722222  0.39583333  1.0
  Fe  Fe83  1  0.06944444  0.93055556  0.39583333  1.0
  Fe  Fe84  1  0.40277778  0.26388889  0.39583333  1.0
  Fe  Fe85  1  0.40277778  0.59722222  0.39583333  1.0
  Fe  Fe86  1  0.40277778  0.93055556  0.39583333  1.0
  Fe  Fe87  1  0.73611111  0.26388889  0.39583333  1.0
  Fe  Fe88  1  0.73611111  0.59722222  0.39583333  1.0
  Fe  Fe89  1  0.73611111  0.93055556  0.39583333  1.0
  Ni  Ni90  1  0.12500000  0.20833333  0.06250000  1.0
  Ni  Ni91  1  0.12500000  0.54166667  0.06250000  1.0
  Ni  Ni92  1  0.12500000  0.87500000  0.06250000  1.0
  Ni  Ni93  1  0.45833333  0.20833333  0.06250000  1.0
  Ni  Ni94  1  0.45833333  0.54166667  0.06250000  1.0
  Ni  Ni95  1  0.45833333  0.87500000  0.06250000  1.0
  Ni  Ni96  1  0.79166667  0.20833333  0.06250000  1.0
  Ni  Ni97  1  0.79166667  0.54166667  0.06250000  1.0
  Ni  Ni98  1  0.79166667  0.87500000  0.06250000  1.0
  Ni  Ni99  1  0.15277778  0.01388889  0.02083333  1.0
  Ni  Ni100  1  0.15277778  0.34722222  0.02083333  1.0
  Ni  Ni101  1  0.15277778  0.68055556  0.02083333  1.0
  Ni  Ni102  1  0.48611111  0.01388889  0.02083333  1.0
  Ni  Ni103  1  0.48611111  0.34722222  0.02083333  1.0
  Ni  Ni104  1  0.48611111  0.68055556  0.02083333  1.0
  Ni  Ni105  1  0.81944444  0.01388889  0.02083333  1.0
  Ni  Ni106  1  0.81944444  0.34722222  0.02083333  1.0
  Ni  Ni107  1  0.81944444  0.68055556  0.02083333  1.0
  Ni  Ni108  1  0.06944444  0.26388889  0.14583333  1.0
  Ni  Ni109  1  0.06944444  0.59722222  0.14583333  1.0
  Ni  Ni110  1  0.06944444  0.93055556  0.14583333  1.0
  Ni  Ni111  1  0.40277778  0.26388889  0.14583333  1.0
  Ni  Ni112  1  0.40277778  0.59722222  0.14583333  1.0
  Ni  Ni113  1  0.40277778  0.93055556  0.14583333  1.0
  Ni  Ni114  1  0.73611111  0.26388889  0.14583333  1.0
  Ni  Ni115  1  0.73611111  0.59722222  0.14583333  1.0
  Ni  Ni116  1  0.73611111  0.93055556  0.14583333  1.0
  Ni  Ni117  1  0.09722222  0.06944444  0.10416667  1.0
  Ni  Ni118  1  0.09722222  0.40277778  0.10416667  1.0
  Ni  Ni119  1  0.09722222  0.73611111  0.10416667  1.0
  Ni  Ni120  1  0.43055556  0.06944444  0.10416667  1.0
  Ni  Ni121  1  0.43055556  0.40277778  0.10416667  1.0
  Ni  Ni122  1  0.43055556  0.73611111  0.10416667  1.0
  Ni  Ni123  1  0.76388889  0.06944444  0.10416667  1.0
  Ni  Ni124  1  0.76388889  0.40277778  0.10416667  1.0
  Ni  Ni125  1  0.76388889  0.73611111  0.10416667  1.0
  Ni  Ni126  1  0.01388889  0.31944444  0.22916667  1.0
  Ni  Ni127  1  0.01388889  0.65277778  0.22916667  1.0
  Ni  Ni128  1  0.01388889  0.98611111  0.22916667  1.0
  Ni  Ni129  1  0.34722222  0.31944444  0.22916667  1.0
  Ni  Ni130  1  0.34722222  0.65277778  0.22916667  1.0
  Ni  Ni131  1  0.34722222  0.98611111  0.22916667  1.0
  Ni  Ni132  1  0.68055556  0.31944444  0.22916667  1.0
  Ni  Ni133  1  0.68055556  0.65277778  0.22916667  1.0
  Ni  Ni134  1  0.68055556  0.98611111  0.22916667  1.0
  Ni  Ni135  1  0.04166667  0.12500000  0.18750000  1.0
  Ni  Ni136  1  0.04166667  0.45833333  0.18750000  1.0
  Ni  Ni137  1  0.04166667  0.79166667  0.18750000  1.0
  Ni  Ni138  1  0.37500000  0.12500000  0.18750000  1.0
  Ni  Ni139  1  0.37500000  0.45833333  0.18750000  1.0
  Ni  Ni140  1  0.37500000  0.79166667  0.18750000  1.0
  Ni  Ni141  1  0.70833333  0.12500000  0.18750000  1.0
  Ni  Ni142  1  0.70833333  0.45833333  0.18750000  1.0
  Ni  Ni143  1  0.70833333  0.79166667  0.18750000  1.0
  Ni  Ni144  1  0.29166667  0.04166667  0.31250000  1.0
  Ni  Ni145  1  0.29166667  0.37500000  0.31250000  1.0
  Ni  Ni146  1  0.29166667  0.70833333  0.31250000  1.0
  Ni  Ni147  1  0.62500000  0.04166667  0.31250000  1.0
  Ni  Ni148  1  0.62500000  0.37500000  0.31250000  1.0
  Ni  Ni149  1  0.62500000  0.70833333  0.31250000  1.0
  Ni  Ni150  1  0.95833333  0.04166667  0.31250000  1.0
  Ni  Ni151  1  0.95833333  0.37500000  0.31250000  1.0
  Ni  Ni152  1  0.95833333  0.70833333  0.31250000  1.0
  Ni  Ni153  1  0.31944444  0.18055556  0.27083333  1.0
  Ni  Ni154  1  0.31944444  0.51388889  0.27083333  1.0
  Ni  Ni155  1  0.31944444  0.84722222  0.27083333  1.0
  Ni  Ni156  1  0.65277778  0.18055556  0.27083333  1.0
  Ni  Ni157  1  0.65277778  0.51388889  0.27083333  1.0
  Ni  Ni158  1  0.65277778  0.84722222  0.27083333  1.0
  Ni  Ni159  1  0.98611111  0.18055556  0.27083333  1.0
  Ni  Ni160  1  0.98611111  0.51388889  0.27083333  1.0
  Ni  Ni161  1  0.98611111  0.84722222  0.27083333  1.0
  Ni  Ni162  1  0.23611111  0.09722222  0.39583333  1.0
  Ni  Ni163  1  0.23611111  0.43055556  0.39583333  1.0
  Ni  Ni164  1  0.23611111  0.76388889  0.39583333  1.0
  Ni  Ni165  1  0.56944444  0.09722222  0.39583333  1.0
  Ni  Ni166  1  0.56944444  0.43055556  0.39583333  1.0
  Ni  Ni167  1  0.56944444  0.76388889  0.39583333  1.0
  Ni  Ni168  1  0.90277778  0.09722222  0.39583333  1.0
  Ni  Ni169  1  0.90277778  0.43055556  0.39583333  1.0
  Ni  Ni170  1  0.90277778  0.76388889  0.39583333  1.0
  Ni  Ni171  1  0.26388889  0.23611111  0.35416667  1.0
  Ni  Ni172  1  0.26388889  0.56944444  0.35416667  1.0
  Ni  Ni173  1  0.26388889  0.90277778  0.35416667  1.0
  Ni  Ni174  1  0.59722222  0.23611111  0.35416667  1.0
  Ni  Ni175  1  0.59722222  0.56944444  0.35416667  1.0
  Ni  Ni176  1  0.59722222  0.90277778  0.35416667  1.0
  Ni  Ni177  1  0.93055556  0.23611111  0.35416667  1.0
  Ni  Ni178  1  0.93055556  0.56944444  0.35416667  1.0
  Ni  Ni179  1  0.93055556  0.90277778  0.35416667  1.0
