# generated using pymatgen
data_FeNi
_symmetry_space_group_name_H-M   'P 1'
_cell_length_a   7.34271816
_cell_length_b   7.34271816
_cell_length_c   27.64501600
_cell_angle_alpha   90.00000000
_cell_angle_beta   90.00000000
_cell_angle_gamma   108.09436768
_symmetry_Int_Tables_number   1
_chemical_formula_structural   FeNi
_chemical_formula_sum   'Fe27 Ni27'
_cell_volume   1416.78458794
_cell_formula_units_Z   27
loop_
 _symmetry_equiv_pos_site_id
 _symmetry_equiv_pos_as_xyz
  1  'x, y, z'
loop_
 _atom_site_type_symbol
 _atom_site_label
 _atom_site_symmetry_multiplicity
 _atom_site_fract_x
 _atom_site_fract_y
 _atom_site_fract_z
 _atom_site_occupancy
  Fe  Fe0  1  0.00000000  0.00000000  0.10714286  1.0
  Fe  Fe1  1  0.00000000  0.33333333  0.10714286  1.0
  Fe  Fe2  1  0.00000000  0.66666667  0.10714286  1.0
  Fe  Fe3  1  0.33333333  0.00000000  0.10714286  1.0
  Fe  Fe4  1  0.33333333  0.33333333  0.10714286  1.0
  Fe  Fe5  1  0.33333333  0.66666667  0.10714286  1.0
  Fe  Fe6  1  0.66666667  0.00000000  0.10714286  1.0
  Fe  Fe7  1  0.66666667  0.33333333  0.10714286  1.0
  Fe  Fe8  1  0.66666667  0.66666667  0.10714286  1.0
  Ni  Ni9  1  0.16666667  0.16666667  0.03571429  1.0
  Ni  Ni10  1  0.16666667  0.50000000  0.03571429  1.0
  Ni  Ni11  1  0.16666667  0.83333333  0.03571429  1.0
  Ni  Ni12  1  0.50000000  0.16666667  0.03571429  1.0
  Ni  Ni13  1  0.50000000  0.50000000  0.03571429  1.0
  Ni  Ni14  1  0.50000000  0.83333333  0.03571429  1.0
  Ni  Ni15  1  0.83333333  0.16666667  0.03571429  1.0
  Ni  Ni16  1  0.83333333  0.50000000  0.03571429  1.0
  Ni  Ni17  1  0.83333333  0.83333333  0.03571429  1.0
  Fe  Fe18  1  0.00000000  0.00000000  0.25000000  1.0
  Fe  Fe19  1  0.00000000  0.33333333  0.25000000  1.0
  Fe  Fe20  1  0.00000000  0.66666667  0.25000000  1.0
  Fe  Fe21  1  0.33333333  0.00000000  0.25000000  1.0
  Fe  Fe22  1  0.33333333  0.33333333  0.25000000  1.0
  Fe  Fe23  1  0.33333333  0.66666667  0.25000000  1.0
  Fe  Fe24  1  0.66666667  0.00000000  0.25000000  1.0
  Fe  Fe25  1  0.66666667  0.33333333  0.25000000  1.0
  Fe  Fe26  1  0.66666667  0.66666667  0.25000000  1.0
  Ni  Ni27  1  0.16666667  0.16666667  0.17857143  1.0
  Ni  Ni28  1  0.16666667  0.50000000  0.17857143  1.0
  Ni  Ni29  1  0.16666667  0.83333333  0.17857143  1.0
  Ni  Ni30  1  0.50000000  0.16666667  0.17857143  1.0
  Ni  Ni31  1  0.50000000  0.50000000  0.17857143  1.0
  Ni  Ni32  1  0.50000000  0.83333333  0.17857143  1.0
  Ni  Ni33  1  0.83333333  0.16666667  0.17857143  1.0
  Ni  Ni34  1  0.83333333  0.50000000  0.17857143  1.0
  Ni  Ni35  1  0.83333333  0.83333333  0.17857143  1.0
  Fe  Fe36  1  0.00000000  0.00000000  0.39285714  1.0
  Fe  Fe37  1  0.00000000  0.33333333  0.39285714  1.0
  Fe  Fe38  1  0.00000000  0.66666667  0.39285714  1.0
  Fe  Fe39  1  0.33333333  0.00000000  0.39285714  1.0
  Fe  Fe40  1  0.33333333  0.33333333  0.39285714  1.0
  Fe  Fe41  1  0.33333333  0.66666667  0.39285714  1.0
  Fe  Fe42  1  0.66666667  0.00000000  0.39285714  1.0
  Fe  Fe43  1  0.66666667  0.33333333  0.39285714  1.0
  Fe  Fe44  1  0.66666667  0.66666667  0.39285714  1.0
  Ni  Ni45  1  0.16666667  0.16666667  0.32142857  1.0
  Ni  Ni46  1  0.16666667  0.50000000  0.32142857  1.0
  Ni  Ni47  1  0.16666667  0.83333333  0.32142857  1.0
  Ni  Ni48  1  0.50000000  0.16666667  0.32142857  1.0
  Ni  Ni49  1  0.50000000  0.50000000  0.32142857  1.0
  Ni  Ni50  1  0.50000000  0.83333333  0.32142857  1.0
  Ni  Ni51  1  0.83333333  0.16666667  0.32142857  1.0
  Ni  Ni52  1  0.83333333  0.50000000  0.32142857  1.0
  Ni  Ni53  1  0.83333333  0.83333333  0.32142857  1.0
