# generated using pymatgen
data_Ga21Ni5
_symmetry_space_group_name_H-M   'P 1'
_cell_length_a   24.54381524
_cell_length_b   24.65872721
_cell_length_c   40.90635875
_cell_angle_alpha   74.16841074
_cell_angle_beta   116.86077193
_cell_angle_gamma   74.16841072
_symmetry_Int_Tables_number   1
_chemical_formula_structural   Ga21Ni5
_chemical_formula_sum   'Ga378 Ni90'
_cell_volume   18850.53050582
_cell_formula_units_Z   18
loop_
 _symmetry_equiv_pos_site_id
 _symmetry_equiv_pos_as_xyz
  1  'x, y, z'
loop_
 _atom_site_type_symbol
 _atom_site_label
 _atom_site_symmetry_multiplicity
 _atom_site_fract_x
 _atom_site_fract_y
 _atom_site_fract_z
 _atom_site_occupancy
  Ga  Ga0  1  0.00219233  0.22661000  0.12600090  1.0
  Ga  Ga1  1  0.00219233  0.55994333  0.12600090  1.0
  Ga  Ga2  1  0.00219233  0.89327667  0.12600090  1.0
  Ga  Ga3  1  0.33552567  0.22661000  0.12600090  1.0
  Ga  Ga4  1  0.33552567  0.55994333  0.12600090  1.0
  Ga  Ga5  1  0.33552567  0.89327667  0.12600090  1.0
  Ga  Ga6  1  0.66885900  0.22661000  0.12600090  1.0
  Ga  Ga7  1  0.66885900  0.55994333  0.12600090  1.0
  Ga  Ga8  1  0.66885900  0.89327667  0.12600090  1.0
  Ga  Ga9  1  0.10197933  0.00000000  0.12693870  1.0
  Ga  Ga10  1  0.10197933  0.33333333  0.12693870  1.0
  Ga  Ga11  1  0.10197933  0.66666667  0.12693870  1.0
  Ga  Ga12  1  0.43531267  0.00000000  0.12693870  1.0
  Ga  Ga13  1  0.43531267  0.33333333  0.12693870  1.0
  Ga  Ga14  1  0.43531267  0.66666667  0.12693870  1.0
  Ga  Ga15  1  0.76864600  0.00000000  0.12693870  1.0
  Ga  Ga16  1  0.76864600  0.33333333  0.12693870  1.0
  Ga  Ga17  1  0.76864600  0.66666667  0.12693870  1.0
  Ga  Ga18  1  0.22880233  0.10672333  0.06196690  1.0
  Ga  Ga19  1  0.22880233  0.44005667  0.06196690  1.0
  Ga  Ga20  1  0.22880233  0.77339000  0.06196690  1.0
  Ga  Ga21  1  0.56213567  0.10672333  0.06196690  1.0
  Ga  Ga22  1  0.56213567  0.44005667  0.06196690  1.0
  Ga  Ga23  1  0.56213567  0.77339000  0.06196690  1.0
  Ga  Ga24  1  0.89546900  0.10672333  0.06196690  1.0
  Ga  Ga25  1  0.89546900  0.44005667  0.06196690  1.0
  Ga  Ga26  1  0.89546900  0.77339000  0.06196690  1.0
  Ga  Ga27  1  0.33260800  0.12127667  0.06154690  1.0
  Ga  Ga28  1  0.33260800  0.45461000  0.06154690  1.0
  Ga  Ga29  1  0.33260800  0.78794333  0.06154690  1.0
  Ga  Ga30  1  0.66594133  0.12127667  0.06154690  1.0
  Ga  Ga31  1  0.66594133  0.45461000  0.06154690  1.0
  Ga  Ga32  1  0.66594133  0.78794333  0.06154690  1.0
  Ga  Ga33  1  0.99927467  0.12127667  0.06154690  1.0
  Ga  Ga34  1  0.99927467  0.45461000  0.06154690  1.0
  Ga  Ga35  1  0.99927467  0.78794333  0.06154690  1.0
  Ga  Ga36  1  0.23547500  0.21127667  0.13939430  1.0
  Ga  Ga37  1  0.23547500  0.54461000  0.13939430  1.0
  Ga  Ga38  1  0.23547500  0.87794333  0.13939430  1.0
  Ga  Ga39  1  0.56880833  0.21127667  0.13939430  1.0
  Ga  Ga40  1  0.56880833  0.54461000  0.13939430  1.0
  Ga  Ga41  1  0.56880833  0.87794333  0.13939430  1.0
  Ga  Ga42  1  0.90214167  0.21127667  0.13939430  1.0
  Ga  Ga43  1  0.90214167  0.54461000  0.13939430  1.0
  Ga  Ga44  1  0.90214167  0.87794333  0.13939430  1.0
  Ga  Ga45  1  0.10572933  0.12127667  0.19767410  1.0
  Ga  Ga46  1  0.10572933  0.45461000  0.19767410  1.0
  Ga  Ga47  1  0.10572933  0.78794333  0.19767410  1.0
  Ga  Ga48  1  0.43906267  0.12127667  0.19767410  1.0
  Ga  Ga49  1  0.43906267  0.45461000  0.19767410  1.0
  Ga  Ga50  1  0.43906267  0.78794333  0.19767410  1.0
  Ga  Ga51  1  0.77239600  0.12127667  0.19767410  1.0
  Ga  Ga52  1  0.77239600  0.45461000  0.19767410  1.0
  Ga  Ga53  1  0.77239600  0.78794333  0.19767410  1.0
  Ga  Ga54  1  0.22700600  0.21205667  0.07044010  1.0
  Ga  Ga55  1  0.22700600  0.54539000  0.07044010  1.0
  Ga  Ga56  1  0.22700600  0.87872333  0.07044010  1.0
  Ga  Ga57  1  0.56033933  0.21205667  0.07044010  1.0
  Ga  Ga58  1  0.56033933  0.54539000  0.07044010  1.0
  Ga  Ga59  1  0.56033933  0.87872333  0.07044010  1.0
  Ga  Ga60  1  0.89367267  0.21205667  0.07044010  1.0
  Ga  Ga61  1  0.89367267  0.54539000  0.07044010  1.0
  Ga  Ga62  1  0.89367267  0.87872333  0.07044010  1.0
  Ga  Ga63  1  0.11341833  0.12205667  0.06616030  1.0
  Ga  Ga64  1  0.11341833  0.45539000  0.06616030  1.0
  Ga  Ga65  1  0.11341833  0.78872333  0.06616030  1.0
  Ga  Ga66  1  0.44675167  0.12205667  0.06616030  1.0
  Ga  Ga67  1  0.44675167  0.45539000  0.06616030  1.0
  Ga  Ga68  1  0.44675167  0.78872333  0.06616030  1.0
  Ga  Ga69  1  0.78008500  0.12205667  0.06616030  1.0
  Ga  Ga70  1  0.78008500  0.45539000  0.06616030  1.0
  Ga  Ga71  1  0.78008500  0.78872333  0.06616030  1.0
  Ga  Ga72  1  0.12055133  0.21205667  0.13431290  1.0
  Ga  Ga73  1  0.12055133  0.54539000  0.13431290  1.0
  Ga  Ga74  1  0.12055133  0.87872333  0.13431290  1.0
  Ga  Ga75  1  0.45388467  0.21205667  0.13431290  1.0
  Ga  Ga76  1  0.45388467  0.54539000  0.13431290  1.0
  Ga  Ga77  1  0.45388467  0.87872333  0.13431290  1.0
  Ga  Ga78  1  0.78721800  0.21205667  0.13431290  1.0
  Ga  Ga79  1  0.78721800  0.54539000  0.13431290  1.0
  Ga  Ga80  1  0.78721800  0.87872333  0.13431290  1.0
  Ga  Ga81  1  0.10642933  0.10672333  0.13539070  1.0
  Ga  Ga82  1  0.10642933  0.44005667  0.13539070  1.0
  Ga  Ga83  1  0.10642933  0.77339000  0.13539070  1.0
  Ga  Ga84  1  0.43976267  0.10672333  0.13539070  1.0
  Ga  Ga85  1  0.43976267  0.44005667  0.13539070  1.0
  Ga  Ga86  1  0.43976267  0.77339000  0.13539070  1.0
  Ga  Ga87  1  0.77309600  0.10672333  0.13539070  1.0
  Ga  Ga88  1  0.77309600  0.44005667  0.13539070  1.0
  Ga  Ga89  1  0.77309600  0.77339000  0.13539070  1.0
  Ga  Ga90  1  0.21471567  0.00000000  0.05929690  1.0
  Ga  Ga91  1  0.21471567  0.33333333  0.05929690  1.0
  Ga  Ga92  1  0.21471567  0.66666667  0.05929690  1.0
  Ga  Ga93  1  0.54804900  0.00000000  0.05929690  1.0
  Ga  Ga94  1  0.54804900  0.33333333  0.05929690  1.0
  Ga  Ga95  1  0.54804900  0.66666667  0.05929690  1.0
  Ga  Ga96  1  0.88138233  0.00000000  0.05929690  1.0
  Ga  Ga97  1  0.88138233  0.33333333  0.05929690  1.0
  Ga  Ga98  1  0.88138233  0.66666667  0.05929690  1.0
  Ga  Ga99  1  0.21315267  0.22661000  0.19942470  1.0
  Ga  Ga100  1  0.21315267  0.55994333  0.19942470  1.0
  Ga  Ga101  1  0.21315267  0.89327667  0.19942470  1.0
  Ga  Ga102  1  0.54648600  0.22661000  0.19942470  1.0
  Ga  Ga103  1  0.54648600  0.55994333  0.19942470  1.0
  Ga  Ga104  1  0.54648600  0.89327667  0.19942470  1.0
  Ga  Ga105  1  0.87981933  0.22661000  0.19942470  1.0
  Ga  Ga106  1  0.87981933  0.55994333  0.19942470  1.0
  Ga  Ga107  1  0.87981933  0.89327667  0.19942470  1.0
  Ga  Ga108  1  0.33099600  0.00000000  0.14111290  1.0
  Ga  Ga109  1  0.33099600  0.33333333  0.14111290  1.0
  Ga  Ga110  1  0.33099600  0.66666667  0.14111290  1.0
  Ga  Ga111  1  0.66432933  0.00000000  0.14111290  1.0
  Ga  Ga112  1  0.66432933  0.33333333  0.14111290  1.0
  Ga  Ga113  1  0.66432933  0.66666667  0.14111290  1.0
  Ga  Ga114  1  0.99766267  0.00000000  0.14111290  1.0
  Ga  Ga115  1  0.99766267  0.33333333  0.14111290  1.0
  Ga  Ga116  1  0.99766267  0.66666667  0.14111290  1.0
  Ga  Ga117  1  0.00776367  0.08430233  0.00276750  1.0
  Ga  Ga118  1  0.00776367  0.41763567  0.00276750  1.0
  Ga  Ga119  1  0.00776367  0.75096900  0.00276750  1.0
  Ga  Ga120  1  0.34109700  0.08430233  0.00276750  1.0
  Ga  Ga121  1  0.34109700  0.41763567  0.00276750  1.0
  Ga  Ga122  1  0.34109700  0.75096900  0.00276750  1.0
  Ga  Ga123  1  0.67443033  0.08430233  0.00276750  1.0
  Ga  Ga124  1  0.67443033  0.41763567  0.00276750  1.0
  Ga  Ga125  1  0.67443033  0.75096900  0.00276750  1.0
  Ga  Ga126  1  0.09206600  0.24903100  0.05334890  1.0
  Ga  Ga127  1  0.09206600  0.58236433  0.05334890  1.0
  Ga  Ga128  1  0.09206600  0.91569767  0.05334890  1.0
  Ga  Ga129  1  0.42539933  0.24903100  0.05334890  1.0
  Ga  Ga130  1  0.42539933  0.58236433  0.05334890  1.0
  Ga  Ga131  1  0.42539933  0.91569767  0.05334890  1.0
  Ga  Ga132  1  0.75873267  0.24903100  0.05334890  1.0
  Ga  Ga133  1  0.75873267  0.58236433  0.05334890  1.0
  Ga  Ga134  1  0.75873267  0.91569767  0.05334890  1.0
  Ga  Ga135  1  0.23833933  0.00000000  0.19670690  1.0
  Ga  Ga136  1  0.23833933  0.33333333  0.19670690  1.0
  Ga  Ga137  1  0.23833933  0.66666667  0.19670690  1.0
  Ga  Ga138  1  0.57167267  0.00000000  0.19670690  1.0
  Ga  Ga139  1  0.57167267  0.33333333  0.19670690  1.0
  Ga  Ga140  1  0.57167267  0.66666667  0.19670690  1.0
  Ga  Ga141  1  0.90500600  0.00000000  0.19670690  1.0
  Ga  Ga142  1  0.90500600  0.33333333  0.19670690  1.0
  Ga  Ga143  1  0.90500600  0.66666667  0.19670690  1.0
  Ga  Ga144  1  0.00092700  0.00000000  0.06279050  1.0
  Ga  Ga145  1  0.00092700  0.33333333  0.06279050  1.0
  Ga  Ga146  1  0.00092700  0.66666667  0.06279050  1.0
  Ga  Ga147  1  0.33426033  0.00000000  0.06279050  1.0
  Ga  Ga148  1  0.33426033  0.33333333  0.06279050  1.0
  Ga  Ga149  1  0.33426033  0.66666667  0.06279050  1.0
  Ga  Ga150  1  0.66759367  0.00000000  0.06279050  1.0
  Ga  Ga151  1  0.66759367  0.33333333  0.06279050  1.0
  Ga  Ga152  1  0.66759367  0.66666667  0.06279050  1.0
  Ga  Ga153  1  0.33282767  0.22789100  0.19780590  1.0
  Ga  Ga154  1  0.33282767  0.56122433  0.19780590  1.0
  Ga  Ga155  1  0.33282767  0.89455767  0.19780590  1.0
  Ga  Ga156  1  0.66616100  0.22789100  0.19780590  1.0
  Ga  Ga157  1  0.66616100  0.56122433  0.19780590  1.0
  Ga  Ga158  1  0.66616100  0.89455767  0.19780590  1.0
  Ga  Ga159  1  0.99949433  0.22789100  0.19780590  1.0
  Ga  Ga160  1  0.99949433  0.56122433  0.19780590  1.0
  Ga  Ga161  1  0.99949433  0.89455767  0.19780590  1.0
  Ga  Ga162  1  0.22738533  0.10544233  0.13454050  1.0
  Ga  Ga163  1  0.22738533  0.43877567  0.13454050  1.0
  Ga  Ga164  1  0.22738533  0.77210900  0.13454050  1.0
  Ga  Ga165  1  0.56071867  0.10544233  0.13454050  1.0
  Ga  Ga166  1  0.56071867  0.43877567  0.13454050  1.0
  Ga  Ga167  1  0.56071867  0.77210900  0.13454050  1.0
  Ga  Ga168  1  0.89405200  0.10544233  0.13454050  1.0
  Ga  Ga169  1  0.89405200  0.43877567  0.13454050  1.0
  Ga  Ga170  1  0.89405200  0.77210900  0.13454050  1.0
  Ga  Ga171  1  0.10780200  0.00000000  0.19866550  1.0
  Ga  Ga172  1  0.10780200  0.33333333  0.19866550  1.0
  Ga  Ga173  1  0.10780200  0.66666667  0.19866550  1.0
  Ga  Ga174  1  0.44113533  0.00000000  0.19866550  1.0
  Ga  Ga175  1  0.44113533  0.33333333  0.19866550  1.0
  Ga  Ga176  1  0.44113533  0.66666667  0.19866550  1.0
  Ga  Ga177  1  0.77446867  0.00000000  0.19866550  1.0
  Ga  Ga178  1  0.77446867  0.33333333  0.19866550  1.0
  Ga  Ga179  1  0.77446867  0.66666667  0.19866550  1.0
  Ga  Ga180  1  0.21238567  0.00000000  0.12554070  1.0
  Ga  Ga181  1  0.21238567  0.33333333  0.12554070  1.0
  Ga  Ga182  1  0.21238567  0.66666667  0.12554070  1.0
  Ga  Ga183  1  0.54571900  0.00000000  0.12554070  1.0
  Ga  Ga184  1  0.54571900  0.33333333  0.12554070  1.0
  Ga  Ga185  1  0.54571900  0.66666667  0.12554070  1.0
  Ga  Ga186  1  0.87905233  0.00000000  0.12554070  1.0
  Ga  Ga187  1  0.87905233  0.33333333  0.12554070  1.0
  Ga  Ga188  1  0.87905233  0.66666667  0.12554070  1.0
  Ni  Ni189  1  0.10856533  0.22330667  0.19890910  1.0
  Ni  Ni190  1  0.10856533  0.55664000  0.19890910  1.0
  Ni  Ni191  1  0.10856533  0.88997333  0.19890910  1.0
  Ni  Ni192  1  0.44189867  0.22330667  0.19890910  1.0
  Ni  Ni193  1  0.44189867  0.55664000  0.19890910  1.0
  Ni  Ni194  1  0.44189867  0.88997333  0.19890910  1.0
  Ni  Ni195  1  0.77523200  0.22330667  0.19890910  1.0
  Ni  Ni196  1  0.77523200  0.55664000  0.19890910  1.0
  Ni  Ni197  1  0.77523200  0.88997333  0.19890910  1.0
  Ni  Ni198  1  0.33187200  0.11002667  0.13289310  1.0
  Ni  Ni199  1  0.33187200  0.44336000  0.13289310  1.0
  Ni  Ni200  1  0.33187200  0.77669333  0.13289310  1.0
  Ni  Ni201  1  0.66520533  0.11002667  0.13289310  1.0
  Ni  Ni202  1  0.66520533  0.44336000  0.13289310  1.0
  Ni  Ni203  1  0.66520533  0.77669333  0.13289310  1.0
  Ni  Ni204  1  0.99853867  0.11002667  0.13289310  1.0
  Ni  Ni205  1  0.99853867  0.44336000  0.13289310  1.0
  Ni  Ni206  1  0.99853867  0.77669333  0.13289310  1.0
  Ni  Ni207  1  0.11437100  0.00000000  0.06673190  1.0
  Ni  Ni208  1  0.11437100  0.33333333  0.06673190  1.0
  Ni  Ni209  1  0.11437100  0.66666667  0.06673190  1.0
  Ni  Ni210  1  0.44770433  0.00000000  0.06673190  1.0
  Ni  Ni211  1  0.44770433  0.33333333  0.06673190  1.0
  Ni  Ni212  1  0.44770433  0.66666667  0.06673190  1.0
  Ni  Ni213  1  0.78103767  0.00000000  0.06673190  1.0
  Ni  Ni214  1  0.78103767  0.33333333  0.06673190  1.0
  Ni  Ni215  1  0.78103767  0.66666667  0.06673190  1.0
  Ni  Ni216  1  0.22463967  0.11002667  0.19723250  1.0
  Ni  Ni217  1  0.22463967  0.44336000  0.19723250  1.0
  Ni  Ni218  1  0.22463967  0.77669333  0.19723250  1.0
  Ni  Ni219  1  0.55797300  0.11002667  0.19723250  1.0
  Ni  Ni220  1  0.55797300  0.44336000  0.19723250  1.0
  Ni  Ni221  1  0.55797300  0.77669333  0.19723250  1.0
  Ni  Ni222  1  0.89130633  0.11002667  0.19723250  1.0
  Ni  Ni223  1  0.89130633  0.44336000  0.19723250  1.0
  Ni  Ni224  1  0.89130633  0.77669333  0.19723250  1.0
  Ni  Ni225  1  0.00133300  0.22330667  0.06324850  1.0
  Ni  Ni226  1  0.00133300  0.55664000  0.06324850  1.0
  Ni  Ni227  1  0.00133300  0.88997333  0.06324850  1.0
  Ni  Ni228  1  0.33466633  0.22330667  0.06324850  1.0
  Ni  Ni229  1  0.33466633  0.55664000  0.06324850  1.0
  Ni  Ni230  1  0.33466633  0.88997333  0.06324850  1.0
  Ni  Ni231  1  0.66799967  0.22330667  0.06324850  1.0
  Ni  Ni232  1  0.66799967  0.55664000  0.06324850  1.0
  Ni  Ni233  1  0.66799967  0.88997333  0.06324850  1.0
  Ga  Ga234  1  0.00219233  0.22661000  0.32600090  1.0
  Ga  Ga235  1  0.00219233  0.55994333  0.32600090  1.0
  Ga  Ga236  1  0.00219233  0.89327667  0.32600090  1.0
  Ga  Ga237  1  0.33552567  0.22661000  0.32600090  1.0
  Ga  Ga238  1  0.33552567  0.55994333  0.32600090  1.0
  Ga  Ga239  1  0.33552567  0.89327667  0.32600090  1.0
  Ga  Ga240  1  0.66885900  0.22661000  0.32600090  1.0
  Ga  Ga241  1  0.66885900  0.55994333  0.32600090  1.0
  Ga  Ga242  1  0.66885900  0.89327667  0.32600090  1.0
  Ga  Ga243  1  0.10197933  0.00000000  0.32693870  1.0
  Ga  Ga244  1  0.10197933  0.33333333  0.32693870  1.0
  Ga  Ga245  1  0.10197933  0.66666667  0.32693870  1.0
  Ga  Ga246  1  0.43531267  0.00000000  0.32693870  1.0
  Ga  Ga247  1  0.43531267  0.33333333  0.32693870  1.0
  Ga  Ga248  1  0.43531267  0.66666667  0.32693870  1.0
  Ga  Ga249  1  0.76864600  0.00000000  0.32693870  1.0
  Ga  Ga250  1  0.76864600  0.33333333  0.32693870  1.0
  Ga  Ga251  1  0.76864600  0.66666667  0.32693870  1.0
  Ga  Ga252  1  0.22880233  0.10672333  0.26196690  1.0
  Ga  Ga253  1  0.22880233  0.44005667  0.26196690  1.0
  Ga  Ga254  1  0.22880233  0.77339000  0.26196690  1.0
  Ga  Ga255  1  0.56213567  0.10672333  0.26196690  1.0
  Ga  Ga256  1  0.56213567  0.44005667  0.26196690  1.0
  Ga  Ga257  1  0.56213567  0.77339000  0.26196690  1.0
  Ga  Ga258  1  0.89546900  0.10672333  0.26196690  1.0
  Ga  Ga259  1  0.89546900  0.44005667  0.26196690  1.0
  Ga  Ga260  1  0.89546900  0.77339000  0.26196690  1.0
  Ga  Ga261  1  0.33260800  0.12127667  0.26154690  1.0
  Ga  Ga262  1  0.33260800  0.45461000  0.26154690  1.0
  Ga  Ga263  1  0.33260800  0.78794333  0.26154690  1.0
  Ga  Ga264  1  0.66594133  0.12127667  0.26154690  1.0
  Ga  Ga265  1  0.66594133  0.45461000  0.26154690  1.0
  Ga  Ga266  1  0.66594133  0.78794333  0.26154690  1.0
  Ga  Ga267  1  0.99927467  0.12127667  0.26154690  1.0
  Ga  Ga268  1  0.99927467  0.45461000  0.26154690  1.0
  Ga  Ga269  1  0.99927467  0.78794333  0.26154690  1.0
  Ga  Ga270  1  0.23547500  0.21127667  0.33939430  1.0
  Ga  Ga271  1  0.23547500  0.54461000  0.33939430  1.0
  Ga  Ga272  1  0.23547500  0.87794333  0.33939430  1.0
  Ga  Ga273  1  0.56880833  0.21127667  0.33939430  1.0
  Ga  Ga274  1  0.56880833  0.54461000  0.33939430  1.0
  Ga  Ga275  1  0.56880833  0.87794333  0.33939430  1.0
  Ga  Ga276  1  0.90214167  0.21127667  0.33939430  1.0
  Ga  Ga277  1  0.90214167  0.54461000  0.33939430  1.0
  Ga  Ga278  1  0.90214167  0.87794333  0.33939430  1.0
  Ga  Ga279  1  0.10572933  0.12127667  0.39767410  1.0
  Ga  Ga280  1  0.10572933  0.45461000  0.39767410  1.0
  Ga  Ga281  1  0.10572933  0.78794333  0.39767410  1.0
  Ga  Ga282  1  0.43906267  0.12127667  0.39767410  1.0
  Ga  Ga283  1  0.43906267  0.45461000  0.39767410  1.0
  Ga  Ga284  1  0.43906267  0.78794333  0.39767410  1.0
  Ga  Ga285  1  0.77239600  0.12127667  0.39767410  1.0
  Ga  Ga286  1  0.77239600  0.45461000  0.39767410  1.0
  Ga  Ga287  1  0.77239600  0.78794333  0.39767410  1.0
  Ga  Ga288  1  0.22700600  0.21205667  0.27044010  1.0
  Ga  Ga289  1  0.22700600  0.54539000  0.27044010  1.0
  Ga  Ga290  1  0.22700600  0.87872333  0.27044010  1.0
  Ga  Ga291  1  0.56033933  0.21205667  0.27044010  1.0
  Ga  Ga292  1  0.56033933  0.54539000  0.27044010  1.0
  Ga  Ga293  1  0.56033933  0.87872333  0.27044010  1.0
  Ga  Ga294  1  0.89367267  0.21205667  0.27044010  1.0
  Ga  Ga295  1  0.89367267  0.54539000  0.27044010  1.0
  Ga  Ga296  1  0.89367267  0.87872333  0.27044010  1.0
  Ga  Ga297  1  0.11341833  0.12205667  0.26616030  1.0
  Ga  Ga298  1  0.11341833  0.45539000  0.26616030  1.0
  Ga  Ga299  1  0.11341833  0.78872333  0.26616030  1.0
  Ga  Ga300  1  0.44675167  0.12205667  0.26616030  1.0
  Ga  Ga301  1  0.44675167  0.45539000  0.26616030  1.0
  Ga  Ga302  1  0.44675167  0.78872333  0.26616030  1.0
  Ga  Ga303  1  0.78008500  0.12205667  0.26616030  1.0
  Ga  Ga304  1  0.78008500  0.45539000  0.26616030  1.0
  Ga  Ga305  1  0.78008500  0.78872333  0.26616030  1.0
  Ga  Ga306  1  0.12055133  0.21205667  0.33431290  1.0
  Ga  Ga307  1  0.12055133  0.54539000  0.33431290  1.0
  Ga  Ga308  1  0.12055133  0.87872333  0.33431290  1.0
  Ga  Ga309  1  0.45388467  0.21205667  0.33431290  1.0
  Ga  Ga310  1  0.45388467  0.54539000  0.33431290  1.0
  Ga  Ga311  1  0.45388467  0.87872333  0.33431290  1.0
  Ga  Ga312  1  0.78721800  0.21205667  0.33431290  1.0
  Ga  Ga313  1  0.78721800  0.54539000  0.33431290  1.0
  Ga  Ga314  1  0.78721800  0.87872333  0.33431290  1.0
  Ga  Ga315  1  0.10642933  0.10672333  0.33539070  1.0
  Ga  Ga316  1  0.10642933  0.44005667  0.33539070  1.0
  Ga  Ga317  1  0.10642933  0.77339000  0.33539070  1.0
  Ga  Ga318  1  0.43976267  0.10672333  0.33539070  1.0
  Ga  Ga319  1  0.43976267  0.44005667  0.33539070  1.0
  Ga  Ga320  1  0.43976267  0.77339000  0.33539070  1.0
  Ga  Ga321  1  0.77309600  0.10672333  0.33539070  1.0
  Ga  Ga322  1  0.77309600  0.44005667  0.33539070  1.0
  Ga  Ga323  1  0.77309600  0.77339000  0.33539070  1.0
  Ga  Ga324  1  0.21471567  0.00000000  0.25929690  1.0
  Ga  Ga325  1  0.21471567  0.33333333  0.25929690  1.0
  Ga  Ga326  1  0.21471567  0.66666667  0.25929690  1.0
  Ga  Ga327  1  0.54804900  0.00000000  0.25929690  1.0
  Ga  Ga328  1  0.54804900  0.33333333  0.25929690  1.0
  Ga  Ga329  1  0.54804900  0.66666667  0.25929690  1.0
  Ga  Ga330  1  0.88138233  0.00000000  0.25929690  1.0
  Ga  Ga331  1  0.88138233  0.33333333  0.25929690  1.0
  Ga  Ga332  1  0.88138233  0.66666667  0.25929690  1.0
  Ga  Ga333  1  0.21315267  0.22661000  0.39942470  1.0
  Ga  Ga334  1  0.21315267  0.55994333  0.39942470  1.0
  Ga  Ga335  1  0.21315267  0.89327667  0.39942470  1.0
  Ga  Ga336  1  0.54648600  0.22661000  0.39942470  1.0
  Ga  Ga337  1  0.54648600  0.55994333  0.39942470  1.0
  Ga  Ga338  1  0.54648600  0.89327667  0.39942470  1.0
  Ga  Ga339  1  0.87981933  0.22661000  0.39942470  1.0
  Ga  Ga340  1  0.87981933  0.55994333  0.39942470  1.0
  Ga  Ga341  1  0.87981933  0.89327667  0.39942470  1.0
  Ga  Ga342  1  0.33099600  0.00000000  0.34111290  1.0
  Ga  Ga343  1  0.33099600  0.33333333  0.34111290  1.0
  Ga  Ga344  1  0.33099600  0.66666667  0.34111290  1.0
  Ga  Ga345  1  0.66432933  0.00000000  0.34111290  1.0
  Ga  Ga346  1  0.66432933  0.33333333  0.34111290  1.0
  Ga  Ga347  1  0.66432933  0.66666667  0.34111290  1.0
  Ga  Ga348  1  0.99766267  0.00000000  0.34111290  1.0
  Ga  Ga349  1  0.99766267  0.33333333  0.34111290  1.0
  Ga  Ga350  1  0.99766267  0.66666667  0.34111290  1.0
  Ga  Ga351  1  0.00776367  0.08430233  0.20276750  1.0
  Ga  Ga352  1  0.00776367  0.41763567  0.20276750  1.0
  Ga  Ga353  1  0.00776367  0.75096900  0.20276750  1.0
  Ga  Ga354  1  0.34109700  0.08430233  0.20276750  1.0
  Ga  Ga355  1  0.34109700  0.41763567  0.20276750  1.0
  Ga  Ga356  1  0.34109700  0.75096900  0.20276750  1.0
  Ga  Ga357  1  0.67443033  0.08430233  0.20276750  1.0
  Ga  Ga358  1  0.67443033  0.41763567  0.20276750  1.0
  Ga  Ga359  1  0.67443033  0.75096900  0.20276750  1.0
  Ga  Ga360  1  0.09206600  0.24903100  0.25334890  1.0
  Ga  Ga361  1  0.09206600  0.58236433  0.25334890  1.0
  Ga  Ga362  1  0.09206600  0.91569767  0.25334890  1.0
  Ga  Ga363  1  0.42539933  0.24903100  0.25334890  1.0
  Ga  Ga364  1  0.42539933  0.58236433  0.25334890  1.0
  Ga  Ga365  1  0.42539933  0.91569767  0.25334890  1.0
  Ga  Ga366  1  0.75873267  0.24903100  0.25334890  1.0
  Ga  Ga367  1  0.75873267  0.58236433  0.25334890  1.0
  Ga  Ga368  1  0.75873267  0.91569767  0.25334890  1.0
  Ga  Ga369  1  0.23833933  0.00000000  0.39670690  1.0
  Ga  Ga370  1  0.23833933  0.33333333  0.39670690  1.0
  Ga  Ga371  1  0.23833933  0.66666667  0.39670690  1.0
  Ga  Ga372  1  0.57167267  0.00000000  0.39670690  1.0
  Ga  Ga373  1  0.57167267  0.33333333  0.39670690  1.0
  Ga  Ga374  1  0.57167267  0.66666667  0.39670690  1.0
  Ga  Ga375  1  0.90500600  0.00000000  0.39670690  1.0
  Ga  Ga376  1  0.90500600  0.33333333  0.39670690  1.0
  Ga  Ga377  1  0.90500600  0.66666667  0.39670690  1.0
  Ga  Ga378  1  0.00092700  0.00000000  0.26279050  1.0
  Ga  Ga379  1  0.00092700  0.33333333  0.26279050  1.0
  Ga  Ga380  1  0.00092700  0.66666667  0.26279050  1.0
  Ga  Ga381  1  0.33426033  0.00000000  0.26279050  1.0
  Ga  Ga382  1  0.33426033  0.33333333  0.26279050  1.0
  Ga  Ga383  1  0.33426033  0.66666667  0.26279050  1.0
  Ga  Ga384  1  0.66759367  0.00000000  0.26279050  1.0
  Ga  Ga385  1  0.66759367  0.33333333  0.26279050  1.0
  Ga  Ga386  1  0.66759367  0.66666667  0.26279050  1.0
  Ga  Ga387  1  0.33282767  0.22789100  0.39780590  1.0
  Ga  Ga388  1  0.33282767  0.56122433  0.39780590  1.0
  Ga  Ga389  1  0.33282767  0.89455767  0.39780590  1.0
  Ga  Ga390  1  0.66616100  0.22789100  0.39780590  1.0
  Ga  Ga391  1  0.66616100  0.56122433  0.39780590  1.0
  Ga  Ga392  1  0.66616100  0.89455767  0.39780590  1.0
  Ga  Ga393  1  0.99949433  0.22789100  0.39780590  1.0
  Ga  Ga394  1  0.99949433  0.56122433  0.39780590  1.0
  Ga  Ga395  1  0.99949433  0.89455767  0.39780590  1.0
  Ga  Ga396  1  0.22738533  0.10544233  0.33454050  1.0
  Ga  Ga397  1  0.22738533  0.43877567  0.33454050  1.0
  Ga  Ga398  1  0.22738533  0.77210900  0.33454050  1.0
  Ga  Ga399  1  0.56071867  0.10544233  0.33454050  1.0
  Ga  Ga400  1  0.56071867  0.43877567  0.33454050  1.0
  Ga  Ga401  1  0.56071867  0.77210900  0.33454050  1.0
  Ga  Ga402  1  0.89405200  0.10544233  0.33454050  1.0
  Ga  Ga403  1  0.89405200  0.43877567  0.33454050  1.0
  Ga  Ga404  1  0.89405200  0.77210900  0.33454050  1.0
  Ga  Ga405  1  0.10780200  0.00000000  0.39866550  1.0
  Ga  Ga406  1  0.10780200  0.33333333  0.39866550  1.0
  Ga  Ga407  1  0.10780200  0.66666667  0.39866550  1.0
  Ga  Ga408  1  0.44113533  0.00000000  0.39866550  1.0
  Ga  Ga409  1  0.44113533  0.33333333  0.39866550  1.0
  Ga  Ga410  1  0.44113533  0.66666667  0.39866550  1.0
  Ga  Ga411  1  0.77446867  0.00000000  0.39866550  1.0
  Ga  Ga412  1  0.77446867  0.33333333  0.39866550  1.0
  Ga  Ga413  1  0.77446867  0.66666667  0.39866550  1.0
  Ga  Ga414  1  0.21238567  0.00000000  0.32554070  1.0
  Ga  Ga415  1  0.21238567  0.33333333  0.32554070  1.0
  Ga  Ga416  1  0.21238567  0.66666667  0.32554070  1.0
  Ga  Ga417  1  0.54571900  0.00000000  0.32554070  1.0
  Ga  Ga418  1  0.54571900  0.33333333  0.32554070  1.0
  Ga  Ga419  1  0.54571900  0.66666667  0.32554070  1.0
  Ga  Ga420  1  0.87905233  0.00000000  0.32554070  1.0
  Ga  Ga421  1  0.87905233  0.33333333  0.32554070  1.0
  Ga  Ga422  1  0.87905233  0.66666667  0.32554070  1.0
  Ni  Ni423  1  0.10856533  0.22330667  0.39890910  1.0
  Ni  Ni424  1  0.10856533  0.55664000  0.39890910  1.0
  Ni  Ni425  1  0.10856533  0.88997333  0.39890910  1.0
  Ni  Ni426  1  0.44189867  0.22330667  0.39890910  1.0
  Ni  Ni427  1  0.44189867  0.55664000  0.39890910  1.0
  Ni  Ni428  1  0.44189867  0.88997333  0.39890910  1.0
  Ni  Ni429  1  0.77523200  0.22330667  0.39890910  1.0
  Ni  Ni430  1  0.77523200  0.55664000  0.39890910  1.0
  Ni  Ni431  1  0.77523200  0.88997333  0.39890910  1.0
  Ni  Ni432  1  0.33187200  0.11002667  0.33289310  1.0
  Ni  Ni433  1  0.33187200  0.44336000  0.33289310  1.0
  Ni  Ni434  1  0.33187200  0.77669333  0.33289310  1.0
  Ni  Ni435  1  0.66520533  0.11002667  0.33289310  1.0
  Ni  Ni436  1  0.66520533  0.44336000  0.33289310  1.0
  Ni  Ni437  1  0.66520533  0.77669333  0.33289310  1.0
  Ni  Ni438  1  0.99853867  0.11002667  0.33289310  1.0
  Ni  Ni439  1  0.99853867  0.44336000  0.33289310  1.0
  Ni  Ni440  1  0.99853867  0.77669333  0.33289310  1.0
  Ni  Ni441  1  0.11437100  0.00000000  0.26673190  1.0
  Ni  Ni442  1  0.11437100  0.33333333  0.26673190  1.0
  Ni  Ni443  1  0.11437100  0.66666667  0.26673190  1.0
  Ni  Ni444  1  0.44770433  0.00000000  0.26673190  1.0
  Ni  Ni445  1  0.44770433  0.33333333  0.26673190  1.0
  Ni  Ni446  1  0.44770433  0.66666667  0.26673190  1.0
  Ni  Ni447  1  0.78103767  0.00000000  0.26673190  1.0
  Ni  Ni448  1  0.78103767  0.33333333  0.26673190  1.0
  Ni  Ni449  1  0.78103767  0.66666667  0.26673190  1.0
  Ni  Ni450  1  0.22463967  0.11002667  0.39723250  1.0
  Ni  Ni451  1  0.22463967  0.44336000  0.39723250  1.0
  Ni  Ni452  1  0.22463967  0.77669333  0.39723250  1.0
  Ni  Ni453  1  0.55797300  0.11002667  0.39723250  1.0
  Ni  Ni454  1  0.55797300  0.44336000  0.39723250  1.0
  Ni  Ni455  1  0.55797300  0.77669333  0.39723250  1.0
  Ni  Ni456  1  0.89130633  0.11002667  0.39723250  1.0
  Ni  Ni457  1  0.89130633  0.44336000  0.39723250  1.0
  Ni  Ni458  1  0.89130633  0.77669333  0.39723250  1.0
  Ni  Ni459  1  0.00133300  0.22330667  0.26324850  1.0
  Ni  Ni460  1  0.00133300  0.55664000  0.26324850  1.0
  Ni  Ni461  1  0.00133300  0.88997333  0.26324850  1.0
  Ni  Ni462  1  0.33466633  0.22330667  0.26324850  1.0
  Ni  Ni463  1  0.33466633  0.55664000  0.26324850  1.0
  Ni  Ni464  1  0.33466633  0.88997333  0.26324850  1.0
  Ni  Ni465  1  0.66799967  0.22330667  0.26324850  1.0
  Ni  Ni466  1  0.66799967  0.55664000  0.26324850  1.0
  Ni  Ni467  1  0.66799967  0.88997333  0.26324850  1.0
