# generated using pymatgen
data_Ga21Ni5
_symmetry_space_group_name_H-M   'P 1'
_cell_length_a   24.54381525
_cell_length_b   24.54381524
_cell_length_c   41.09787865
_cell_angle_alpha   74.16841079
_cell_angle_beta   74.16841074
_cell_angle_gamma   116.86077193
_symmetry_Int_Tables_number   1
_chemical_formula_structural   Ga21Ni5
_chemical_formula_sum   'Ga378 Ni90'
_cell_volume   18850.53050582
_cell_formula_units_Z   18
loop_
 _symmetry_equiv_pos_site_id
 _symmetry_equiv_pos_as_xyz
  1  'x, y, z'
loop_
 _atom_site_type_symbol
 _atom_site_label
 _atom_site_symmetry_multiplicity
 _atom_site_fract_x
 _atom_site_fract_y
 _atom_site_fract_z
 _atom_site_occupancy
  Ga  Ga0  1  0.22690400  0.10453100  0.11067530  1.0
  Ga  Ga1  1  0.22690400  0.43786433  0.11067530  1.0
  Ga  Ga2  1  0.22690400  0.77119767  0.11067530  1.0
  Ga  Ga3  1  0.56023733  0.10453100  0.11067530  1.0
  Ga  Ga4  1  0.56023733  0.43786433  0.11067530  1.0
  Ga  Ga5  1  0.56023733  0.77119767  0.11067530  1.0
  Ga  Ga6  1  0.89357067  0.10453100  0.11067530  1.0
  Ga  Ga7  1  0.89357067  0.43786433  0.11067530  1.0
  Ga  Ga8  1  0.89357067  0.77119767  0.11067530  1.0
  Ga  Ga9  1  0.11861767  0.23135400  0.17470930  1.0
  Ga  Ga10  1  0.11861767  0.56468733  0.17470930  1.0
  Ga  Ga11  1  0.11861767  0.89802067  0.17470930  1.0
  Ga  Ga12  1  0.45195100  0.23135400  0.17470930  1.0
  Ga  Ga13  1  0.45195100  0.56468733  0.17470930  1.0
  Ga  Ga14  1  0.45195100  0.89802067  0.17470930  1.0
  Ga  Ga15  1  0.78528433  0.23135400  0.17470930  1.0
  Ga  Ga16  1  0.78528433  0.56468733  0.17470930  1.0
  Ga  Ga17  1  0.78528433  0.89802067  0.17470930  1.0
  Ga  Ga18  1  0.12018067  0.33114100  0.03874330  1.0
  Ga  Ga19  1  0.12018067  0.66447433  0.03874330  1.0
  Ga  Ga20  1  0.12018067  0.99780767  0.03874330  1.0
  Ga  Ga21  1  0.45351400  0.33114100  0.03874330  1.0
  Ga  Ga22  1  0.45351400  0.66447433  0.03874330  1.0
  Ga  Ga23  1  0.45351400  0.99780767  0.03874330  1.0
  Ga  Ga24  1  0.78684733  0.33114100  0.03874330  1.0
  Ga  Ga25  1  0.78684733  0.66447433  0.03874330  1.0
  Ga  Ga26  1  0.78684733  0.99780767  0.03874330  1.0
  Ga  Ga27  1  0.10632733  0.21278200  0.04747530  1.0
  Ga  Ga28  1  0.10632733  0.54611533  0.04747530  1.0
  Ga  Ga29  1  0.10632733  0.87944867  0.04747530  1.0
  Ga  Ga30  1  0.43966067  0.21278200  0.04747530  1.0
  Ga  Ga31  1  0.43966067  0.54611533  0.04747530  1.0
  Ga  Ga32  1  0.43966067  0.87944867  0.04747530  1.0
  Ga  Ga33  1  0.77299400  0.21278200  0.04747530  1.0
  Ga  Ga34  1  0.77299400  0.54611533  0.04747530  1.0
  Ga  Ga35  1  0.77299400  0.87944867  0.04747530  1.0
  Ga  Ga36  1  0.21991500  0.21991500  0.10147530  1.0
  Ga  Ga37  1  0.21991500  0.55324833  0.10147530  1.0
  Ga  Ga38  1  0.21991500  0.88658167  0.10147530  1.0
  Ga  Ga39  1  0.55324833  0.21991500  0.10147530  1.0
  Ga  Ga40  1  0.55324833  0.55324833  0.10147530  1.0
  Ga  Ga41  1  0.55324833  0.88658167  0.10147530  1.0
  Ga  Ga42  1  0.88658167  0.21991500  0.10147530  1.0
  Ga  Ga43  1  0.88658167  0.55324833  0.10147530  1.0
  Ga  Ga44  1  0.88658167  0.88658167  0.10147530  1.0
  Ga  Ga45  1  0.21278200  0.10632733  0.04747530  1.0
  Ga  Ga46  1  0.21278200  0.43966067  0.04747530  1.0
  Ga  Ga47  1  0.21278200  0.77299400  0.04747530  1.0
  Ga  Ga48  1  0.54611533  0.10632733  0.04747530  1.0
  Ga  Ga49  1  0.54611533  0.43966067  0.04747530  1.0
  Ga  Ga50  1  0.54611533  0.77299400  0.04747530  1.0
  Ga  Ga51  1  0.87944867  0.10632733  0.04747530  1.0
  Ga  Ga52  1  0.87944867  0.43966067  0.04747530  1.0
  Ga  Ga53  1  0.87944867  0.77299400  0.04747530  1.0
  Ga  Ga54  1  0.00072533  0.22760400  0.10194330  1.0
  Ga  Ga55  1  0.00072533  0.56093733  0.10194330  1.0
  Ga  Ga56  1  0.00072533  0.89427067  0.10194330  1.0
  Ga  Ga57  1  0.33405867  0.22760400  0.10194330  1.0
  Ga  Ga58  1  0.33405867  0.56093733  0.10194330  1.0
  Ga  Ga59  1  0.33405867  0.89427067  0.10194330  1.0
  Ga  Ga60  1  0.66739200  0.22760400  0.10194330  1.0
  Ga  Ga61  1  0.66739200  0.56093733  0.10194330  1.0
  Ga  Ga62  1  0.66739200  0.89427067  0.10194330  1.0
  Ga  Ga63  1  0.09785833  0.09785833  0.04794330  1.0
  Ga  Ga64  1  0.09785833  0.43119167  0.04794330  1.0
  Ga  Ga65  1  0.09785833  0.76452500  0.04794330  1.0
  Ga  Ga66  1  0.43119167  0.09785833  0.04794330  1.0
  Ga  Ga67  1  0.43119167  0.43119167  0.04794330  1.0
  Ga  Ga68  1  0.43119167  0.76452500  0.04794330  1.0
  Ga  Ga69  1  0.76452500  0.09785833  0.04794330  1.0
  Ga  Ga70  1  0.76452500  0.43119167  0.04794330  1.0
  Ga  Ga71  1  0.76452500  0.76452500  0.04794330  1.0
  Ga  Ga72  1  0.22760400  0.00072533  0.10194330  1.0
  Ga  Ga73  1  0.22760400  0.33405867  0.10194330  1.0
  Ga  Ga74  1  0.22760400  0.66739200  0.10194330  1.0
  Ga  Ga75  1  0.56093733  0.00072533  0.10194330  1.0
  Ga  Ga76  1  0.56093733  0.33405867  0.10194330  1.0
  Ga  Ga77  1  0.56093733  0.66739200  0.10194330  1.0
  Ga  Ga78  1  0.89427067  0.00072533  0.10194330  1.0
  Ga  Ga79  1  0.89427067  0.33405867  0.10194330  1.0
  Ga  Ga80  1  0.89427067  0.66739200  0.10194330  1.0
  Ga  Ga81  1  0.33114100  0.12018067  0.03874330  1.0
  Ga  Ga82  1  0.33114100  0.45351400  0.03874330  1.0
  Ga  Ga83  1  0.33114100  0.78684733  0.03874330  1.0
  Ga  Ga84  1  0.66447433  0.12018067  0.03874330  1.0
  Ga  Ga85  1  0.66447433  0.45351400  0.03874330  1.0
  Ga  Ga86  1  0.66447433  0.78684733  0.03874330  1.0
  Ga  Ga87  1  0.99780767  0.12018067  0.03874330  1.0
  Ga  Ga88  1  0.99780767  0.45351400  0.03874330  1.0
  Ga  Ga89  1  0.99780767  0.78684733  0.03874330  1.0
  Ga  Ga90  1  0.23135400  0.11861767  0.17470930  1.0
  Ga  Ga91  1  0.23135400  0.45195100  0.17470930  1.0
  Ga  Ga92  1  0.23135400  0.78528433  0.17470930  1.0
  Ga  Ga93  1  0.56468733  0.11861767  0.17470930  1.0
  Ga  Ga94  1  0.56468733  0.45195100  0.17470930  1.0
  Ga  Ga95  1  0.56468733  0.78528433  0.17470930  1.0
  Ga  Ga96  1  0.89802067  0.11861767  0.17470930  1.0
  Ga  Ga97  1  0.89802067  0.45195100  0.17470930  1.0
  Ga  Ga98  1  0.89802067  0.78528433  0.17470930  1.0
  Ga  Ga99  1  0.10453100  0.22690400  0.11067530  1.0
  Ga  Ga100  1  0.10453100  0.56023733  0.11067530  1.0
  Ga  Ga101  1  0.10453100  0.89357067  0.11067530  1.0
  Ga  Ga102  1  0.43786433  0.22690400  0.11067530  1.0
  Ga  Ga103  1  0.43786433  0.56023733  0.11067530  1.0
  Ga  Ga104  1  0.43786433  0.89357067  0.11067530  1.0
  Ga  Ga105  1  0.77119767  0.22690400  0.11067530  1.0
  Ga  Ga106  1  0.77119767  0.56023733  0.11067530  1.0
  Ga  Ga107  1  0.77119767  0.89357067  0.11067530  1.0
  Ga  Ga108  1  0.09499400  0.00233733  0.17470930  1.0
  Ga  Ga109  1  0.09499400  0.33567067  0.17470930  1.0
  Ga  Ga110  1  0.09499400  0.66900400  0.17470930  1.0
  Ga  Ga111  1  0.42832733  0.00233733  0.17470930  1.0
  Ga  Ga112  1  0.42832733  0.33567067  0.17470930  1.0
  Ga  Ga113  1  0.42832733  0.66900400  0.17470930  1.0
  Ga  Ga114  1  0.76166067  0.00233733  0.17470930  1.0
  Ga  Ga115  1  0.76166067  0.33567067  0.17470930  1.0
  Ga  Ga116  1  0.76166067  0.66900400  0.17470930  1.0
  Ga  Ga117  1  0.24126733  0.24126733  0.02529070  1.0
  Ga  Ga118  1  0.24126733  0.57460067  0.02529070  1.0
  Ga  Ga119  1  0.24126733  0.90793400  0.02529070  1.0
  Ga  Ga120  1  0.57460067  0.24126733  0.02529070  1.0
  Ga  Ga121  1  0.57460067  0.57460067  0.02529070  1.0
  Ga  Ga122  1  0.57460067  0.90793400  0.02529070  1.0
  Ga  Ga123  1  0.90793400  0.24126733  0.02529070  1.0
  Ga  Ga124  1  0.90793400  0.57460067  0.02529070  1.0
  Ga  Ga125  1  0.90793400  0.90793400  0.02529070  1.0
  Ga  Ga126  1  0.32556967  0.32556967  0.12412790  1.0
  Ga  Ga127  1  0.32556967  0.65890300  0.12412790  1.0
  Ga  Ga128  1  0.32556967  0.99223633  0.12412790  1.0
  Ga  Ga129  1  0.65890300  0.32556967  0.12412790  1.0
  Ga  Ga130  1  0.65890300  0.65890300  0.12412790  1.0
  Ga  Ga131  1  0.65890300  0.99223633  0.12412790  1.0
  Ga  Ga132  1  0.99223633  0.32556967  0.12412790  1.0
  Ga  Ga133  1  0.99223633  0.65890300  0.12412790  1.0
  Ga  Ga134  1  0.99223633  0.99223633  0.12412790  1.0
  Ga  Ga135  1  0.00233733  0.09499400  0.17470930  1.0
  Ga  Ga136  1  0.00233733  0.42832733  0.17470930  1.0
  Ga  Ga137  1  0.00233733  0.76166067  0.17470930  1.0
  Ga  Ga138  1  0.33567067  0.09499400  0.17470930  1.0
  Ga  Ga139  1  0.33567067  0.42832733  0.17470930  1.0
  Ga  Ga140  1  0.33567067  0.76166067  0.17470930  1.0
  Ga  Ga141  1  0.66900400  0.09499400  0.17470930  1.0
  Ga  Ga142  1  0.66900400  0.42832733  0.17470930  1.0
  Ga  Ga143  1  0.66900400  0.76166067  0.17470930  1.0
  Ga  Ga144  1  0.22553133  0.33240633  0.17470930  1.0
  Ga  Ga145  1  0.22553133  0.66573967  0.17470930  1.0
  Ga  Ga146  1  0.22553133  0.99907300  0.17470930  1.0
  Ga  Ga147  1  0.55886467  0.33240633  0.17470930  1.0
  Ga  Ga148  1  0.55886467  0.66573967  0.17470930  1.0
  Ga  Ga149  1  0.55886467  0.99907300  0.17470930  1.0
  Ga  Ga150  1  0.89219800  0.33240633  0.17470930  1.0
  Ga  Ga151  1  0.89219800  0.66573967  0.17470930  1.0
  Ga  Ga152  1  0.89219800  0.99907300  0.17470930  1.0
  Ga  Ga153  1  0.10594800  0.10594800  0.11144390  1.0
  Ga  Ga154  1  0.10594800  0.43928133  0.11144390  1.0
  Ga  Ga155  1  0.10594800  0.77261467  0.11144390  1.0
  Ga  Ga156  1  0.43928133  0.10594800  0.11144390  1.0
  Ga  Ga157  1  0.43928133  0.43928133  0.11144390  1.0
  Ga  Ga158  1  0.43928133  0.77261467  0.11144390  1.0
  Ga  Ga159  1  0.77261467  0.10594800  0.11144390  1.0
  Ga  Ga160  1  0.77261467  0.43928133  0.11144390  1.0
  Ga  Ga161  1  0.77261467  0.77261467  0.11144390  1.0
  Ga  Ga162  1  0.00050567  0.00050567  0.03797470  1.0
  Ga  Ga163  1  0.00050567  0.33383900  0.03797470  1.0
  Ga  Ga164  1  0.00050567  0.66717233  0.03797470  1.0
  Ga  Ga165  1  0.33383900  0.00050567  0.03797470  1.0
  Ga  Ga166  1  0.33383900  0.33383900  0.03797470  1.0
  Ga  Ga167  1  0.33383900  0.66717233  0.03797470  1.0
  Ga  Ga168  1  0.66717233  0.00050567  0.03797470  1.0
  Ga  Ga169  1  0.66717233  0.33383900  0.03797470  1.0
  Ga  Ga170  1  0.66717233  0.66717233  0.03797470  1.0
  Ga  Ga171  1  0.33240633  0.22553133  0.17470930  1.0
  Ga  Ga172  1  0.33240633  0.55886467  0.17470930  1.0
  Ga  Ga173  1  0.33240633  0.89219800  0.17470930  1.0
  Ga  Ga174  1  0.66573967  0.22553133  0.17470930  1.0
  Ga  Ga175  1  0.66573967  0.55886467  0.17470930  1.0
  Ga  Ga176  1  0.66573967  0.89219800  0.17470930  1.0
  Ga  Ga177  1  0.99907300  0.22553133  0.17470930  1.0
  Ga  Ga178  1  0.99907300  0.55886467  0.17470930  1.0
  Ga  Ga179  1  0.99907300  0.89219800  0.17470930  1.0
  Ga  Ga180  1  0.12094767  0.12094767  0.17470930  1.0
  Ga  Ga181  1  0.12094767  0.45428100  0.17470930  1.0
  Ga  Ga182  1  0.12094767  0.78761433  0.17470930  1.0
  Ga  Ga183  1  0.45428100  0.12094767  0.17470930  1.0
  Ga  Ga184  1  0.45428100  0.45428100  0.17470930  1.0
  Ga  Ga185  1  0.45428100  0.78761433  0.17470930  1.0
  Ga  Ga186  1  0.78761433  0.12094767  0.17470930  1.0
  Ga  Ga187  1  0.78761433  0.45428100  0.17470930  1.0
  Ga  Ga188  1  0.78761433  0.78761433  0.17470930  1.0
  Ni  Ni189  1  0.10869367  0.00146133  0.10869330  1.0
  Ni  Ni190  1  0.10869367  0.33479467  0.10869330  1.0
  Ni  Ni191  1  0.10869367  0.66812800  0.10869330  1.0
  Ni  Ni192  1  0.44202700  0.00146133  0.10869330  1.0
  Ni  Ni193  1  0.44202700  0.33479467  0.10869330  1.0
  Ni  Ni194  1  0.44202700  0.66812800  0.10869330  1.0
  Ni  Ni195  1  0.77536033  0.00146133  0.10869330  1.0
  Ni  Ni196  1  0.77536033  0.33479467  0.10869330  1.0
  Ni  Ni197  1  0.77536033  0.66812800  0.10869330  1.0
  Ni  Ni198  1  0.33200033  0.22476800  0.04072530  1.0
  Ni  Ni199  1  0.33200033  0.55810133  0.04072530  1.0
  Ni  Ni200  1  0.33200033  0.89143467  0.04072530  1.0
  Ni  Ni201  1  0.66533367  0.22476800  0.04072530  1.0
  Ni  Ni202  1  0.66533367  0.55810133  0.04072530  1.0
  Ni  Ni203  1  0.66533367  0.89143467  0.04072530  1.0
  Ni  Ni204  1  0.99866700  0.22476800  0.04072530  1.0
  Ni  Ni205  1  0.99866700  0.55810133  0.04072530  1.0
  Ni  Ni206  1  0.99866700  0.89143467  0.04072530  1.0
  Ni  Ni207  1  0.21896233  0.21896233  0.17470930  1.0
  Ni  Ni208  1  0.21896233  0.55229567  0.17470930  1.0
  Ni  Ni209  1  0.21896233  0.88562900  0.17470930  1.0
  Ni  Ni210  1  0.55229567  0.21896233  0.17470930  1.0
  Ni  Ni211  1  0.55229567  0.55229567  0.17470930  1.0
  Ni  Ni212  1  0.55229567  0.88562900  0.17470930  1.0
  Ni  Ni213  1  0.88562900  0.21896233  0.17470930  1.0
  Ni  Ni214  1  0.88562900  0.55229567  0.17470930  1.0
  Ni  Ni215  1  0.88562900  0.88562900  0.17470930  1.0
  Ni  Ni216  1  0.22476800  0.33200033  0.04072530  1.0
  Ni  Ni217  1  0.22476800  0.66533367  0.04072530  1.0
  Ni  Ni218  1  0.22476800  0.99866700  0.04072530  1.0
  Ni  Ni219  1  0.55810133  0.33200033  0.04072530  1.0
  Ni  Ni220  1  0.55810133  0.66533367  0.04072530  1.0
  Ni  Ni221  1  0.55810133  0.99866700  0.04072530  1.0
  Ni  Ni222  1  0.89143467  0.33200033  0.04072530  1.0
  Ni  Ni223  1  0.89143467  0.66533367  0.04072530  1.0
  Ni  Ni224  1  0.89143467  0.99866700  0.04072530  1.0
  Ni  Ni225  1  0.00146133  0.10869367  0.10869330  1.0
  Ni  Ni226  1  0.00146133  0.44202700  0.10869330  1.0
  Ni  Ni227  1  0.00146133  0.77536033  0.10869330  1.0
  Ni  Ni228  1  0.33479467  0.10869367  0.10869330  1.0
  Ni  Ni229  1  0.33479467  0.44202700  0.10869330  1.0
  Ni  Ni230  1  0.33479467  0.77536033  0.10869330  1.0
  Ni  Ni231  1  0.66812800  0.10869367  0.10869330  1.0
  Ni  Ni232  1  0.66812800  0.44202700  0.10869330  1.0
  Ni  Ni233  1  0.66812800  0.77536033  0.10869330  1.0
  Ga  Ga234  1  0.22690400  0.10453100  0.31067530  1.0
  Ga  Ga235  1  0.22690400  0.43786433  0.31067530  1.0
  Ga  Ga236  1  0.22690400  0.77119767  0.31067530  1.0
  Ga  Ga237  1  0.56023733  0.10453100  0.31067530  1.0
  Ga  Ga238  1  0.56023733  0.43786433  0.31067530  1.0
  Ga  Ga239  1  0.56023733  0.77119767  0.31067530  1.0
  Ga  Ga240  1  0.89357067  0.10453100  0.31067530  1.0
  Ga  Ga241  1  0.89357067  0.43786433  0.31067530  1.0
  Ga  Ga242  1  0.89357067  0.77119767  0.31067530  1.0
  Ga  Ga243  1  0.11861767  0.23135400  0.37470930  1.0
  Ga  Ga244  1  0.11861767  0.56468733  0.37470930  1.0
  Ga  Ga245  1  0.11861767  0.89802067  0.37470930  1.0
  Ga  Ga246  1  0.45195100  0.23135400  0.37470930  1.0
  Ga  Ga247  1  0.45195100  0.56468733  0.37470930  1.0
  Ga  Ga248  1  0.45195100  0.89802067  0.37470930  1.0
  Ga  Ga249  1  0.78528433  0.23135400  0.37470930  1.0
  Ga  Ga250  1  0.78528433  0.56468733  0.37470930  1.0
  Ga  Ga251  1  0.78528433  0.89802067  0.37470930  1.0
  Ga  Ga252  1  0.12018067  0.33114100  0.23874330  1.0
  Ga  Ga253  1  0.12018067  0.66447433  0.23874330  1.0
  Ga  Ga254  1  0.12018067  0.99780767  0.23874330  1.0
  Ga  Ga255  1  0.45351400  0.33114100  0.23874330  1.0
  Ga  Ga256  1  0.45351400  0.66447433  0.23874330  1.0
  Ga  Ga257  1  0.45351400  0.99780767  0.23874330  1.0
  Ga  Ga258  1  0.78684733  0.33114100  0.23874330  1.0
  Ga  Ga259  1  0.78684733  0.66447433  0.23874330  1.0
  Ga  Ga260  1  0.78684733  0.99780767  0.23874330  1.0
  Ga  Ga261  1  0.10632733  0.21278200  0.24747530  1.0
  Ga  Ga262  1  0.10632733  0.54611533  0.24747530  1.0
  Ga  Ga263  1  0.10632733  0.87944867  0.24747530  1.0
  Ga  Ga264  1  0.43966067  0.21278200  0.24747530  1.0
  Ga  Ga265  1  0.43966067  0.54611533  0.24747530  1.0
  Ga  Ga266  1  0.43966067  0.87944867  0.24747530  1.0
  Ga  Ga267  1  0.77299400  0.21278200  0.24747530  1.0
  Ga  Ga268  1  0.77299400  0.54611533  0.24747530  1.0
  Ga  Ga269  1  0.77299400  0.87944867  0.24747530  1.0
  Ga  Ga270  1  0.21991500  0.21991500  0.30147530  1.0
  Ga  Ga271  1  0.21991500  0.55324833  0.30147530  1.0
  Ga  Ga272  1  0.21991500  0.88658167  0.30147530  1.0
  Ga  Ga273  1  0.55324833  0.21991500  0.30147530  1.0
  Ga  Ga274  1  0.55324833  0.55324833  0.30147530  1.0
  Ga  Ga275  1  0.55324833  0.88658167  0.30147530  1.0
  Ga  Ga276  1  0.88658167  0.21991500  0.30147530  1.0
  Ga  Ga277  1  0.88658167  0.55324833  0.30147530  1.0
  Ga  Ga278  1  0.88658167  0.88658167  0.30147530  1.0
  Ga  Ga279  1  0.21278200  0.10632733  0.24747530  1.0
  Ga  Ga280  1  0.21278200  0.43966067  0.24747530  1.0
  Ga  Ga281  1  0.21278200  0.77299400  0.24747530  1.0
  Ga  Ga282  1  0.54611533  0.10632733  0.24747530  1.0
  Ga  Ga283  1  0.54611533  0.43966067  0.24747530  1.0
  Ga  Ga284  1  0.54611533  0.77299400  0.24747530  1.0
  Ga  Ga285  1  0.87944867  0.10632733  0.24747530  1.0
  Ga  Ga286  1  0.87944867  0.43966067  0.24747530  1.0
  Ga  Ga287  1  0.87944867  0.77299400  0.24747530  1.0
  Ga  Ga288  1  0.00072533  0.22760400  0.30194330  1.0
  Ga  Ga289  1  0.00072533  0.56093733  0.30194330  1.0
  Ga  Ga290  1  0.00072533  0.89427067  0.30194330  1.0
  Ga  Ga291  1  0.33405867  0.22760400  0.30194330  1.0
  Ga  Ga292  1  0.33405867  0.56093733  0.30194330  1.0
  Ga  Ga293  1  0.33405867  0.89427067  0.30194330  1.0
  Ga  Ga294  1  0.66739200  0.22760400  0.30194330  1.0
  Ga  Ga295  1  0.66739200  0.56093733  0.30194330  1.0
  Ga  Ga296  1  0.66739200  0.89427067  0.30194330  1.0
  Ga  Ga297  1  0.09785833  0.09785833  0.24794330  1.0
  Ga  Ga298  1  0.09785833  0.43119167  0.24794330  1.0
  Ga  Ga299  1  0.09785833  0.76452500  0.24794330  1.0
  Ga  Ga300  1  0.43119167  0.09785833  0.24794330  1.0
  Ga  Ga301  1  0.43119167  0.43119167  0.24794330  1.0
  Ga  Ga302  1  0.43119167  0.76452500  0.24794330  1.0
  Ga  Ga303  1  0.76452500  0.09785833  0.24794330  1.0
  Ga  Ga304  1  0.76452500  0.43119167  0.24794330  1.0
  Ga  Ga305  1  0.76452500  0.76452500  0.24794330  1.0
  Ga  Ga306  1  0.22760400  0.00072533  0.30194330  1.0
  Ga  Ga307  1  0.22760400  0.33405867  0.30194330  1.0
  Ga  Ga308  1  0.22760400  0.66739200  0.30194330  1.0
  Ga  Ga309  1  0.56093733  0.00072533  0.30194330  1.0
  Ga  Ga310  1  0.56093733  0.33405867  0.30194330  1.0
  Ga  Ga311  1  0.56093733  0.66739200  0.30194330  1.0
  Ga  Ga312  1  0.89427067  0.00072533  0.30194330  1.0
  Ga  Ga313  1  0.89427067  0.33405867  0.30194330  1.0
  Ga  Ga314  1  0.89427067  0.66739200  0.30194330  1.0
  Ga  Ga315  1  0.33114100  0.12018067  0.23874330  1.0
  Ga  Ga316  1  0.33114100  0.45351400  0.23874330  1.0
  Ga  Ga317  1  0.33114100  0.78684733  0.23874330  1.0
  Ga  Ga318  1  0.66447433  0.12018067  0.23874330  1.0
  Ga  Ga319  1  0.66447433  0.45351400  0.23874330  1.0
  Ga  Ga320  1  0.66447433  0.78684733  0.23874330  1.0
  Ga  Ga321  1  0.99780767  0.12018067  0.23874330  1.0
  Ga  Ga322  1  0.99780767  0.45351400  0.23874330  1.0
  Ga  Ga323  1  0.99780767  0.78684733  0.23874330  1.0
  Ga  Ga324  1  0.23135400  0.11861767  0.37470930  1.0
  Ga  Ga325  1  0.23135400  0.45195100  0.37470930  1.0
  Ga  Ga326  1  0.23135400  0.78528433  0.37470930  1.0
  Ga  Ga327  1  0.56468733  0.11861767  0.37470930  1.0
  Ga  Ga328  1  0.56468733  0.45195100  0.37470930  1.0
  Ga  Ga329  1  0.56468733  0.78528433  0.37470930  1.0
  Ga  Ga330  1  0.89802067  0.11861767  0.37470930  1.0
  Ga  Ga331  1  0.89802067  0.45195100  0.37470930  1.0
  Ga  Ga332  1  0.89802067  0.78528433  0.37470930  1.0
  Ga  Ga333  1  0.10453100  0.22690400  0.31067530  1.0
  Ga  Ga334  1  0.10453100  0.56023733  0.31067530  1.0
  Ga  Ga335  1  0.10453100  0.89357067  0.31067530  1.0
  Ga  Ga336  1  0.43786433  0.22690400  0.31067530  1.0
  Ga  Ga337  1  0.43786433  0.56023733  0.31067530  1.0
  Ga  Ga338  1  0.43786433  0.89357067  0.31067530  1.0
  Ga  Ga339  1  0.77119767  0.22690400  0.31067530  1.0
  Ga  Ga340  1  0.77119767  0.56023733  0.31067530  1.0
  Ga  Ga341  1  0.77119767  0.89357067  0.31067530  1.0
  Ga  Ga342  1  0.09499400  0.00233733  0.37470930  1.0
  Ga  Ga343  1  0.09499400  0.33567067  0.37470930  1.0
  Ga  Ga344  1  0.09499400  0.66900400  0.37470930  1.0
  Ga  Ga345  1  0.42832733  0.00233733  0.37470930  1.0
  Ga  Ga346  1  0.42832733  0.33567067  0.37470930  1.0
  Ga  Ga347  1  0.42832733  0.66900400  0.37470930  1.0
  Ga  Ga348  1  0.76166067  0.00233733  0.37470930  1.0
  Ga  Ga349  1  0.76166067  0.33567067  0.37470930  1.0
  Ga  Ga350  1  0.76166067  0.66900400  0.37470930  1.0
  Ga  Ga351  1  0.24126733  0.24126733  0.22529070  1.0
  Ga  Ga352  1  0.24126733  0.57460067  0.22529070  1.0
  Ga  Ga353  1  0.24126733  0.90793400  0.22529070  1.0
  Ga  Ga354  1  0.57460067  0.24126733  0.22529070  1.0
  Ga  Ga355  1  0.57460067  0.57460067  0.22529070  1.0
  Ga  Ga356  1  0.57460067  0.90793400  0.22529070  1.0
  Ga  Ga357  1  0.90793400  0.24126733  0.22529070  1.0
  Ga  Ga358  1  0.90793400  0.57460067  0.22529070  1.0
  Ga  Ga359  1  0.90793400  0.90793400  0.22529070  1.0
  Ga  Ga360  1  0.32556967  0.32556967  0.32412790  1.0
  Ga  Ga361  1  0.32556967  0.65890300  0.32412790  1.0
  Ga  Ga362  1  0.32556967  0.99223633  0.32412790  1.0
  Ga  Ga363  1  0.65890300  0.32556967  0.32412790  1.0
  Ga  Ga364  1  0.65890300  0.65890300  0.32412790  1.0
  Ga  Ga365  1  0.65890300  0.99223633  0.32412790  1.0
  Ga  Ga366  1  0.99223633  0.32556967  0.32412790  1.0
  Ga  Ga367  1  0.99223633  0.65890300  0.32412790  1.0
  Ga  Ga368  1  0.99223633  0.99223633  0.32412790  1.0
  Ga  Ga369  1  0.00233733  0.09499400  0.37470930  1.0
  Ga  Ga370  1  0.00233733  0.42832733  0.37470930  1.0
  Ga  Ga371  1  0.00233733  0.76166067  0.37470930  1.0
  Ga  Ga372  1  0.33567067  0.09499400  0.37470930  1.0
  Ga  Ga373  1  0.33567067  0.42832733  0.37470930  1.0
  Ga  Ga374  1  0.33567067  0.76166067  0.37470930  1.0
  Ga  Ga375  1  0.66900400  0.09499400  0.37470930  1.0
  Ga  Ga376  1  0.66900400  0.42832733  0.37470930  1.0
  Ga  Ga377  1  0.66900400  0.76166067  0.37470930  1.0
  Ga  Ga378  1  0.22553133  0.33240633  0.37470930  1.0
  Ga  Ga379  1  0.22553133  0.66573967  0.37470930  1.0
  Ga  Ga380  1  0.22553133  0.99907300  0.37470930  1.0
  Ga  Ga381  1  0.55886467  0.33240633  0.37470930  1.0
  Ga  Ga382  1  0.55886467  0.66573967  0.37470930  1.0
  Ga  Ga383  1  0.55886467  0.99907300  0.37470930  1.0
  Ga  Ga384  1  0.89219800  0.33240633  0.37470930  1.0
  Ga  Ga385  1  0.89219800  0.66573967  0.37470930  1.0
  Ga  Ga386  1  0.89219800  0.99907300  0.37470930  1.0
  Ga  Ga387  1  0.10594800  0.10594800  0.31144390  1.0
  Ga  Ga388  1  0.10594800  0.43928133  0.31144390  1.0
  Ga  Ga389  1  0.10594800  0.77261467  0.31144390  1.0
  Ga  Ga390  1  0.43928133  0.10594800  0.31144390  1.0
  Ga  Ga391  1  0.43928133  0.43928133  0.31144390  1.0
  Ga  Ga392  1  0.43928133  0.77261467  0.31144390  1.0
  Ga  Ga393  1  0.77261467  0.10594800  0.31144390  1.0
  Ga  Ga394  1  0.77261467  0.43928133  0.31144390  1.0
  Ga  Ga395  1  0.77261467  0.77261467  0.31144390  1.0
  Ga  Ga396  1  0.00050567  0.00050567  0.23797470  1.0
  Ga  Ga397  1  0.00050567  0.33383900  0.23797470  1.0
  Ga  Ga398  1  0.00050567  0.66717233  0.23797470  1.0
  Ga  Ga399  1  0.33383900  0.00050567  0.23797470  1.0
  Ga  Ga400  1  0.33383900  0.33383900  0.23797470  1.0
  Ga  Ga401  1  0.33383900  0.66717233  0.23797470  1.0
  Ga  Ga402  1  0.66717233  0.00050567  0.23797470  1.0
  Ga  Ga403  1  0.66717233  0.33383900  0.23797470  1.0
  Ga  Ga404  1  0.66717233  0.66717233  0.23797470  1.0
  Ga  Ga405  1  0.33240633  0.22553133  0.37470930  1.0
  Ga  Ga406  1  0.33240633  0.55886467  0.37470930  1.0
  Ga  Ga407  1  0.33240633  0.89219800  0.37470930  1.0
  Ga  Ga408  1  0.66573967  0.22553133  0.37470930  1.0
  Ga  Ga409  1  0.66573967  0.55886467  0.37470930  1.0
  Ga  Ga410  1  0.66573967  0.89219800  0.37470930  1.0
  Ga  Ga411  1  0.99907300  0.22553133  0.37470930  1.0
  Ga  Ga412  1  0.99907300  0.55886467  0.37470930  1.0
  Ga  Ga413  1  0.99907300  0.89219800  0.37470930  1.0
  Ga  Ga414  1  0.12094767  0.12094767  0.37470930  1.0
  Ga  Ga415  1  0.12094767  0.45428100  0.37470930  1.0
  Ga  Ga416  1  0.12094767  0.78761433  0.37470930  1.0
  Ga  Ga417  1  0.45428100  0.12094767  0.37470930  1.0
  Ga  Ga418  1  0.45428100  0.45428100  0.37470930  1.0
  Ga  Ga419  1  0.45428100  0.78761433  0.37470930  1.0
  Ga  Ga420  1  0.78761433  0.12094767  0.37470930  1.0
  Ga  Ga421  1  0.78761433  0.45428100  0.37470930  1.0
  Ga  Ga422  1  0.78761433  0.78761433  0.37470930  1.0
  Ni  Ni423  1  0.10869367  0.00146133  0.30869330  1.0
  Ni  Ni424  1  0.10869367  0.33479467  0.30869330  1.0
  Ni  Ni425  1  0.10869367  0.66812800  0.30869330  1.0
  Ni  Ni426  1  0.44202700  0.00146133  0.30869330  1.0
  Ni  Ni427  1  0.44202700  0.33479467  0.30869330  1.0
  Ni  Ni428  1  0.44202700  0.66812800  0.30869330  1.0
  Ni  Ni429  1  0.77536033  0.00146133  0.30869330  1.0
  Ni  Ni430  1  0.77536033  0.33479467  0.30869330  1.0
  Ni  Ni431  1  0.77536033  0.66812800  0.30869330  1.0
  Ni  Ni432  1  0.33200033  0.22476800  0.24072530  1.0
  Ni  Ni433  1  0.33200033  0.55810133  0.24072530  1.0
  Ni  Ni434  1  0.33200033  0.89143467  0.24072530  1.0
  Ni  Ni435  1  0.66533367  0.22476800  0.24072530  1.0
  Ni  Ni436  1  0.66533367  0.55810133  0.24072530  1.0
  Ni  Ni437  1  0.66533367  0.89143467  0.24072530  1.0
  Ni  Ni438  1  0.99866700  0.22476800  0.24072530  1.0
  Ni  Ni439  1  0.99866700  0.55810133  0.24072530  1.0
  Ni  Ni440  1  0.99866700  0.89143467  0.24072530  1.0
  Ni  Ni441  1  0.21896233  0.21896233  0.37470930  1.0
  Ni  Ni442  1  0.21896233  0.55229567  0.37470930  1.0
  Ni  Ni443  1  0.21896233  0.88562900  0.37470930  1.0
  Ni  Ni444  1  0.55229567  0.21896233  0.37470930  1.0
  Ni  Ni445  1  0.55229567  0.55229567  0.37470930  1.0
  Ni  Ni446  1  0.55229567  0.88562900  0.37470930  1.0
  Ni  Ni447  1  0.88562900  0.21896233  0.37470930  1.0
  Ni  Ni448  1  0.88562900  0.55229567  0.37470930  1.0
  Ni  Ni449  1  0.88562900  0.88562900  0.37470930  1.0
  Ni  Ni450  1  0.22476800  0.33200033  0.24072530  1.0
  Ni  Ni451  1  0.22476800  0.66533367  0.24072530  1.0
  Ni  Ni452  1  0.22476800  0.99866700  0.24072530  1.0
  Ni  Ni453  1  0.55810133  0.33200033  0.24072530  1.0
  Ni  Ni454  1  0.55810133  0.66533367  0.24072530  1.0
  Ni  Ni455  1  0.55810133  0.99866700  0.24072530  1.0
  Ni  Ni456  1  0.89143467  0.33200033  0.24072530  1.0
  Ni  Ni457  1  0.89143467  0.66533367  0.24072530  1.0
  Ni  Ni458  1  0.89143467  0.99866700  0.24072530  1.0
  Ni  Ni459  1  0.00146133  0.10869367  0.30869330  1.0
  Ni  Ni460  1  0.00146133  0.44202700  0.30869330  1.0
  Ni  Ni461  1  0.00146133  0.77536033  0.30869330  1.0
  Ni  Ni462  1  0.33479467  0.10869367  0.30869330  1.0
  Ni  Ni463  1  0.33479467  0.44202700  0.30869330  1.0
  Ni  Ni464  1  0.33479467  0.77536033  0.30869330  1.0
  Ni  Ni465  1  0.66812800  0.10869367  0.30869330  1.0
  Ni  Ni466  1  0.66812800  0.44202700  0.30869330  1.0
  Ni  Ni467  1  0.66812800  0.77536033  0.30869330  1.0
