# generated using pymatgen
data_Ga3Ni2
_symmetry_space_group_name_H-M   'P 1'
_cell_length_a   12.26703531
_cell_length_b   14.62379100
_cell_length_c   32.71209416
_cell_angle_alpha   90.00000000
_cell_angle_beta   120.00000000
_cell_angle_gamma   90.00000000
_symmetry_Int_Tables_number   1
_chemical_formula_structural   Ga3Ni2
_chemical_formula_sum   'Ga81 Ni54'
_cell_volume   5082.04570233
_cell_formula_units_Z   27
loop_
 _symmetry_equiv_pos_site_id
 _symmetry_equiv_pos_as_xyz
  1  'x, y, z'
loop_
 _atom_site_type_symbol
 _atom_site_label
 _atom_site_symmetry_multiplicity
 _atom_site_fract_x
 _atom_site_fract_y
 _atom_site_fract_z
 _atom_site_occupancy
  Ga  Ga0  1  0.00000000  0.00000000  0.10416667  1.0
  Ga  Ga1  1  0.00000000  0.33333333  0.10416667  1.0
  Ga  Ga2  1  0.00000000  0.66666667  0.10416667  1.0
  Ga  Ga3  1  0.33333333  0.00000000  0.10416667  1.0
  Ga  Ga4  1  0.33333333  0.33333333  0.10416667  1.0
  Ga  Ga5  1  0.33333333  0.66666667  0.10416667  1.0
  Ga  Ga6  1  0.66666667  0.00000000  0.10416667  1.0
  Ga  Ga7  1  0.66666667  0.33333333  0.10416667  1.0
  Ga  Ga8  1  0.66666667  0.66666667  0.10416667  1.0
  Ga  Ga9  1  0.11111111  0.12058133  0.06250000  1.0
  Ga  Ga10  1  0.11111111  0.45391467  0.06250000  1.0
  Ga  Ga11  1  0.11111111  0.78724800  0.06250000  1.0
  Ga  Ga12  1  0.44444444  0.12058133  0.06250000  1.0
  Ga  Ga13  1  0.44444444  0.45391467  0.06250000  1.0
  Ga  Ga14  1  0.44444444  0.78724800  0.06250000  1.0
  Ga  Ga15  1  0.77777778  0.12058133  0.06250000  1.0
  Ga  Ga16  1  0.77777778  0.45391467  0.06250000  1.0
  Ga  Ga17  1  0.77777778  0.78724800  0.06250000  1.0
  Ga  Ga18  1  0.22222222  0.21275200  0.02083333  1.0
  Ga  Ga19  1  0.22222222  0.54608533  0.02083333  1.0
  Ga  Ga20  1  0.22222222  0.87941867  0.02083333  1.0
  Ga  Ga21  1  0.55555556  0.21275200  0.02083333  1.0
  Ga  Ga22  1  0.55555556  0.54608533  0.02083333  1.0
  Ga  Ga23  1  0.55555556  0.87941867  0.02083333  1.0
  Ga  Ga24  1  0.88888889  0.21275200  0.02083333  1.0
  Ga  Ga25  1  0.88888889  0.54608533  0.02083333  1.0
  Ga  Ga26  1  0.88888889  0.87941867  0.02083333  1.0
  Ni  Ni27  1  0.11111111  0.28787700  0.06250000  1.0
  Ni  Ni28  1  0.11111111  0.62121033  0.06250000  1.0
  Ni  Ni29  1  0.11111111  0.95454367  0.06250000  1.0
  Ni  Ni30  1  0.44444444  0.28787700  0.06250000  1.0
  Ni  Ni31  1  0.44444444  0.62121033  0.06250000  1.0
  Ni  Ni32  1  0.44444444  0.95454367  0.06250000  1.0
  Ni  Ni33  1  0.77777778  0.28787700  0.06250000  1.0
  Ni  Ni34  1  0.77777778  0.62121033  0.06250000  1.0
  Ni  Ni35  1  0.77777778  0.95454367  0.06250000  1.0
  Ni  Ni36  1  0.22222222  0.04545633  0.02083333  1.0
  Ni  Ni37  1  0.22222222  0.37878967  0.02083333  1.0
  Ni  Ni38  1  0.22222222  0.71212300  0.02083333  1.0
  Ni  Ni39  1  0.55555556  0.04545633  0.02083333  1.0
  Ni  Ni40  1  0.55555556  0.37878967  0.02083333  1.0
  Ni  Ni41  1  0.55555556  0.71212300  0.02083333  1.0
  Ni  Ni42  1  0.88888889  0.04545633  0.02083333  1.0
  Ni  Ni43  1  0.88888889  0.37878967  0.02083333  1.0
  Ni  Ni44  1  0.88888889  0.71212300  0.02083333  1.0
  Ga  Ga45  1  0.00000000  0.00000000  0.22916667  1.0
  Ga  Ga46  1  0.00000000  0.33333333  0.22916667  1.0
  Ga  Ga47  1  0.00000000  0.66666667  0.22916667  1.0
  Ga  Ga48  1  0.33333333  0.00000000  0.22916667  1.0
  Ga  Ga49  1  0.33333333  0.33333333  0.22916667  1.0
  Ga  Ga50  1  0.33333333  0.66666667  0.22916667  1.0
  Ga  Ga51  1  0.66666667  0.00000000  0.22916667  1.0
  Ga  Ga52  1  0.66666667  0.33333333  0.22916667  1.0
  Ga  Ga53  1  0.66666667  0.66666667  0.22916667  1.0
  Ga  Ga54  1  0.11111111  0.12058133  0.18750000  1.0
  Ga  Ga55  1  0.11111111  0.45391467  0.18750000  1.0
  Ga  Ga56  1  0.11111111  0.78724800  0.18750000  1.0
  Ga  Ga57  1  0.44444444  0.12058133  0.18750000  1.0
  Ga  Ga58  1  0.44444444  0.45391467  0.18750000  1.0
  Ga  Ga59  1  0.44444444  0.78724800  0.18750000  1.0
  Ga  Ga60  1  0.77777778  0.12058133  0.18750000  1.0
  Ga  Ga61  1  0.77777778  0.45391467  0.18750000  1.0
  Ga  Ga62  1  0.77777778  0.78724800  0.18750000  1.0
  Ga  Ga63  1  0.22222222  0.21275200  0.14583333  1.0
  Ga  Ga64  1  0.22222222  0.54608533  0.14583333  1.0
  Ga  Ga65  1  0.22222222  0.87941867  0.14583333  1.0
  Ga  Ga66  1  0.55555556  0.21275200  0.14583333  1.0
  Ga  Ga67  1  0.55555556  0.54608533  0.14583333  1.0
  Ga  Ga68  1  0.55555556  0.87941867  0.14583333  1.0
  Ga  Ga69  1  0.88888889  0.21275200  0.14583333  1.0
  Ga  Ga70  1  0.88888889  0.54608533  0.14583333  1.0
  Ga  Ga71  1  0.88888889  0.87941867  0.14583333  1.0
  Ni  Ni72  1  0.11111111  0.28787700  0.18750000  1.0
  Ni  Ni73  1  0.11111111  0.62121033  0.18750000  1.0
  Ni  Ni74  1  0.11111111  0.95454367  0.18750000  1.0
  Ni  Ni75  1  0.44444444  0.28787700  0.18750000  1.0
  Ni  Ni76  1  0.44444444  0.62121033  0.18750000  1.0
  Ni  Ni77  1  0.44444444  0.95454367  0.18750000  1.0
  Ni  Ni78  1  0.77777778  0.28787700  0.18750000  1.0
  Ni  Ni79  1  0.77777778  0.62121033  0.18750000  1.0
  Ni  Ni80  1  0.77777778  0.95454367  0.18750000  1.0
  Ni  Ni81  1  0.22222222  0.04545633  0.14583333  1.0
  Ni  Ni82  1  0.22222222  0.37878967  0.14583333  1.0
  Ni  Ni83  1  0.22222222  0.71212300  0.14583333  1.0
  Ni  Ni84  1  0.55555556  0.04545633  0.14583333  1.0
  Ni  Ni85  1  0.55555556  0.37878967  0.14583333  1.0
  Ni  Ni86  1  0.55555556  0.71212300  0.14583333  1.0
  Ni  Ni87  1  0.88888889  0.04545633  0.14583333  1.0
  Ni  Ni88  1  0.88888889  0.37878967  0.14583333  1.0
  Ni  Ni89  1  0.88888889  0.71212300  0.14583333  1.0
  Ga  Ga90  1  0.00000000  0.00000000  0.35416667  1.0
  Ga  Ga91  1  0.00000000  0.33333333  0.35416667  1.0
  Ga  Ga92  1  0.00000000  0.66666667  0.35416667  1.0
  Ga  Ga93  1  0.33333333  0.00000000  0.35416667  1.0
  Ga  Ga94  1  0.33333333  0.33333333  0.35416667  1.0
  Ga  Ga95  1  0.33333333  0.66666667  0.35416667  1.0
  Ga  Ga96  1  0.66666667  0.00000000  0.35416667  1.0
  Ga  Ga97  1  0.66666667  0.33333333  0.35416667  1.0
  Ga  Ga98  1  0.66666667  0.66666667  0.35416667  1.0
  Ga  Ga99  1  0.11111111  0.12058133  0.31250000  1.0
  Ga  Ga100  1  0.11111111  0.45391467  0.31250000  1.0
  Ga  Ga101  1  0.11111111  0.78724800  0.31250000  1.0
  Ga  Ga102  1  0.44444444  0.12058133  0.31250000  1.0
  Ga  Ga103  1  0.44444444  0.45391467  0.31250000  1.0
  Ga  Ga104  1  0.44444444  0.78724800  0.31250000  1.0
  Ga  Ga105  1  0.77777778  0.12058133  0.31250000  1.0
  Ga  Ga106  1  0.77777778  0.45391467  0.31250000  1.0
  Ga  Ga107  1  0.77777778  0.78724800  0.31250000  1.0
  Ga  Ga108  1  0.22222222  0.21275200  0.27083333  1.0
  Ga  Ga109  1  0.22222222  0.54608533  0.27083333  1.0
  Ga  Ga110  1  0.22222222  0.87941867  0.27083333  1.0
  Ga  Ga111  1  0.55555556  0.21275200  0.27083333  1.0
  Ga  Ga112  1  0.55555556  0.54608533  0.27083333  1.0
  Ga  Ga113  1  0.55555556  0.87941867  0.27083333  1.0
  Ga  Ga114  1  0.88888889  0.21275200  0.27083333  1.0
  Ga  Ga115  1  0.88888889  0.54608533  0.27083333  1.0
  Ga  Ga116  1  0.88888889  0.87941867  0.27083333  1.0
  Ni  Ni117  1  0.11111111  0.28787700  0.31250000  1.0
  Ni  Ni118  1  0.11111111  0.62121033  0.31250000  1.0
  Ni  Ni119  1  0.11111111  0.95454367  0.31250000  1.0
  Ni  Ni120  1  0.44444444  0.28787700  0.31250000  1.0
  Ni  Ni121  1  0.44444444  0.62121033  0.31250000  1.0
  Ni  Ni122  1  0.44444444  0.95454367  0.31250000  1.0
  Ni  Ni123  1  0.77777778  0.28787700  0.31250000  1.0
  Ni  Ni124  1  0.77777778  0.62121033  0.31250000  1.0
  Ni  Ni125  1  0.77777778  0.95454367  0.31250000  1.0
  Ni  Ni126  1  0.22222222  0.04545633  0.27083333  1.0
  Ni  Ni127  1  0.22222222  0.37878967  0.27083333  1.0
  Ni  Ni128  1  0.22222222  0.71212300  0.27083333  1.0
  Ni  Ni129  1  0.55555556  0.04545633  0.27083333  1.0
  Ni  Ni130  1  0.55555556  0.37878967  0.27083333  1.0
  Ni  Ni131  1  0.55555556  0.71212300  0.27083333  1.0
  Ni  Ni132  1  0.88888889  0.04545633  0.27083333  1.0
  Ni  Ni133  1  0.88888889  0.37878967  0.27083333  1.0
  Ni  Ni134  1  0.88888889  0.71212300  0.27083333  1.0
