# generated using pymatgen
data_Ga3Ni5
_symmetry_space_group_name_H-M   'P 1'
_cell_length_a   35.26912807
_cell_length_b   18.84204386
_cell_length_c   37.15908000
_cell_angle_alpha   53.72646109
_cell_angle_beta   90.00000000
_cell_angle_gamma   65.47648752
_symmetry_Int_Tables_number   1
_chemical_formula_structural   Ga3Ni5
_chemical_formula_sum   'Ga216 Ni360'
_cell_volume   17066.97473142
_cell_formula_units_Z   72
loop_
 _symmetry_equiv_pos_site_id
 _symmetry_equiv_pos_as_xyz
  1  'x, y, z'
loop_
 _atom_site_type_symbol
 _atom_site_label
 _atom_site_symmetry_multiplicity
 _atom_site_fract_x
 _atom_site_fract_y
 _atom_site_fract_z
 _atom_site_occupancy
  Ga  Ga0  1  0.16666667  0.16666667  0.04207330  1.0
  Ga  Ga1  1  0.16666667  0.50000000  0.04207330  1.0
  Ga  Ga2  1  0.16666667  0.83333333  0.04207330  1.0
  Ga  Ga3  1  0.50000000  0.16666667  0.04207330  1.0
  Ga  Ga4  1  0.50000000  0.50000000  0.04207330  1.0
  Ga  Ga5  1  0.50000000  0.83333333  0.04207330  1.0
  Ga  Ga6  1  0.83333333  0.16666667  0.04207330  1.0
  Ga  Ga7  1  0.83333333  0.50000000  0.04207330  1.0
  Ga  Ga8  1  0.83333333  0.83333333  0.04207330  1.0
  Ga  Ga9  1  0.00000000  0.00000000  0.09207330  1.0
  Ga  Ga10  1  0.00000000  0.33333333  0.09207330  1.0
  Ga  Ga11  1  0.00000000  0.66666667  0.09207330  1.0
  Ga  Ga12  1  0.33333333  0.00000000  0.09207330  1.0
  Ga  Ga13  1  0.33333333  0.33333333  0.09207330  1.0
  Ga  Ga14  1  0.33333333  0.66666667  0.09207330  1.0
  Ga  Ga15  1  0.66666667  0.00000000  0.09207330  1.0
  Ga  Ga16  1  0.66666667  0.33333333  0.09207330  1.0
  Ga  Ga17  1  0.66666667  0.66666667  0.09207330  1.0
  Ga  Ga18  1  0.21336317  0.21336317  0.07806435  1.0
  Ga  Ga19  1  0.21336317  0.54669650  0.07806435  1.0
  Ga  Ga20  1  0.21336317  0.88002983  0.07806435  1.0
  Ga  Ga21  1  0.54669650  0.21336317  0.07806435  1.0
  Ga  Ga22  1  0.54669650  0.54669650  0.07806435  1.0
  Ga  Ga23  1  0.54669650  0.88002983  0.07806435  1.0
  Ga  Ga24  1  0.88002983  0.21336317  0.07806435  1.0
  Ga  Ga25  1  0.88002983  0.54669650  0.07806435  1.0
  Ga  Ga26  1  0.88002983  0.88002983  0.07806435  1.0
  Ga  Ga27  1  0.04669650  0.04669650  0.02806435  1.0
  Ga  Ga28  1  0.04669650  0.38002983  0.02806435  1.0
  Ga  Ga29  1  0.04669650  0.71336317  0.02806435  1.0
  Ga  Ga30  1  0.38002983  0.04669650  0.02806435  1.0
  Ga  Ga31  1  0.38002983  0.38002983  0.02806435  1.0
  Ga  Ga32  1  0.38002983  0.71336317  0.02806435  1.0
  Ga  Ga33  1  0.71336317  0.04669650  0.02806435  1.0
  Ga  Ga34  1  0.71336317  0.38002983  0.02806435  1.0
  Ga  Ga35  1  0.71336317  0.71336317  0.02806435  1.0
  Ga  Ga36  1  0.28663683  0.28663683  0.05608225  1.0
  Ga  Ga37  1  0.28663683  0.61997017  0.05608225  1.0
  Ga  Ga38  1  0.28663683  0.95330350  0.05608225  1.0
  Ga  Ga39  1  0.61997017  0.28663683  0.05608225  1.0
  Ga  Ga40  1  0.61997017  0.61997017  0.05608225  1.0
  Ga  Ga41  1  0.61997017  0.95330350  0.05608225  1.0
  Ga  Ga42  1  0.95330350  0.28663683  0.05608225  1.0
  Ga  Ga43  1  0.95330350  0.61997017  0.05608225  1.0
  Ga  Ga44  1  0.95330350  0.95330350  0.05608225  1.0
  Ga  Ga45  1  0.11997017  0.11997017  0.00608225  1.0
  Ga  Ga46  1  0.11997017  0.45330350  0.00608225  1.0
  Ga  Ga47  1  0.11997017  0.78663683  0.00608225  1.0
  Ga  Ga48  1  0.45330350  0.11997017  0.00608225  1.0
  Ga  Ga49  1  0.45330350  0.45330350  0.00608225  1.0
  Ga  Ga50  1  0.45330350  0.78663683  0.00608225  1.0
  Ga  Ga51  1  0.78663683  0.11997017  0.00608225  1.0
  Ga  Ga52  1  0.78663683  0.45330350  0.00608225  1.0
  Ga  Ga53  1  0.78663683  0.78663683  0.00608225  1.0
  Ni  Ni54  1  0.25000000  0.25000000  0.01707330  1.0
  Ni  Ni55  1  0.25000000  0.58333333  0.01707330  1.0
  Ni  Ni56  1  0.25000000  0.91666667  0.01707330  1.0
  Ni  Ni57  1  0.58333333  0.25000000  0.01707330  1.0
  Ni  Ni58  1  0.58333333  0.58333333  0.01707330  1.0
  Ni  Ni59  1  0.58333333  0.91666667  0.01707330  1.0
  Ni  Ni60  1  0.91666667  0.25000000  0.01707330  1.0
  Ni  Ni61  1  0.91666667  0.58333333  0.01707330  1.0
  Ni  Ni62  1  0.91666667  0.91666667  0.01707330  1.0
  Ni  Ni63  1  0.08333333  0.08333333  0.06707330  1.0
  Ni  Ni64  1  0.08333333  0.41666667  0.06707330  1.0
  Ni  Ni65  1  0.08333333  0.75000000  0.06707330  1.0
  Ni  Ni66  1  0.41666667  0.08333333  0.06707330  1.0
  Ni  Ni67  1  0.41666667  0.41666667  0.06707330  1.0
  Ni  Ni68  1  0.41666667  0.75000000  0.06707330  1.0
  Ni  Ni69  1  0.75000000  0.08333333  0.06707330  1.0
  Ni  Ni70  1  0.75000000  0.41666667  0.06707330  1.0
  Ni  Ni71  1  0.75000000  0.75000000  0.06707330  1.0
  Ni  Ni72  1  0.16666667  0.00000000  0.09207330  1.0
  Ni  Ni73  1  0.16666667  0.33333333  0.09207330  1.0
  Ni  Ni74  1  0.16666667  0.66666667  0.09207330  1.0
  Ni  Ni75  1  0.50000000  0.00000000  0.09207330  1.0
  Ni  Ni76  1  0.50000000  0.33333333  0.09207330  1.0
  Ni  Ni77  1  0.50000000  0.66666667  0.09207330  1.0
  Ni  Ni78  1  0.83333333  0.00000000  0.09207330  1.0
  Ni  Ni79  1  0.83333333  0.33333333  0.09207330  1.0
  Ni  Ni80  1  0.83333333  0.66666667  0.09207330  1.0
  Ni  Ni81  1  0.00000000  0.16666667  0.04207330  1.0
  Ni  Ni82  1  0.00000000  0.50000000  0.04207330  1.0
  Ni  Ni83  1  0.00000000  0.83333333  0.04207330  1.0
  Ni  Ni84  1  0.33333333  0.16666667  0.04207330  1.0
  Ni  Ni85  1  0.33333333  0.50000000  0.04207330  1.0
  Ni  Ni86  1  0.33333333  0.83333333  0.04207330  1.0
  Ni  Ni87  1  0.66666667  0.16666667  0.04207330  1.0
  Ni  Ni88  1  0.66666667  0.50000000  0.04207330  1.0
  Ni  Ni89  1  0.66666667  0.83333333  0.04207330  1.0
  Ni  Ni90  1  0.25000000  0.08333333  0.06707330  1.0
  Ni  Ni91  1  0.25000000  0.41666667  0.06707330  1.0
  Ni  Ni92  1  0.25000000  0.75000000  0.06707330  1.0
  Ni  Ni93  1  0.58333333  0.08333333  0.06707330  1.0
  Ni  Ni94  1  0.58333333  0.41666667  0.06707330  1.0
  Ni  Ni95  1  0.58333333  0.75000000  0.06707330  1.0
  Ni  Ni96  1  0.91666667  0.08333333  0.06707330  1.0
  Ni  Ni97  1  0.91666667  0.41666667  0.06707330  1.0
  Ni  Ni98  1  0.91666667  0.75000000  0.06707330  1.0
  Ni  Ni99  1  0.08333333  0.25000000  0.01707330  1.0
  Ni  Ni100  1  0.08333333  0.58333333  0.01707330  1.0
  Ni  Ni101  1  0.08333333  0.91666667  0.01707330  1.0
  Ni  Ni102  1  0.41666667  0.25000000  0.01707330  1.0
  Ni  Ni103  1  0.41666667  0.58333333  0.01707330  1.0
  Ni  Ni104  1  0.41666667  0.91666667  0.01707330  1.0
  Ni  Ni105  1  0.75000000  0.25000000  0.01707330  1.0
  Ni  Ni106  1  0.75000000  0.58333333  0.01707330  1.0
  Ni  Ni107  1  0.75000000  0.91666667  0.01707330  1.0
  Ni  Ni108  1  0.29539267  0.11382200  0.00792670  1.0
  Ni  Ni109  1  0.29539267  0.44715533  0.00792670  1.0
  Ni  Ni110  1  0.29539267  0.78048867  0.00792670  1.0
  Ni  Ni111  1  0.62872600  0.11382200  0.00792670  1.0
  Ni  Ni112  1  0.62872600  0.44715533  0.00792670  1.0
  Ni  Ni113  1  0.62872600  0.78048867  0.00792670  1.0
  Ni  Ni114  1  0.96205933  0.11382200  0.00792670  1.0
  Ni  Ni115  1  0.96205933  0.44715533  0.00792670  1.0
  Ni  Ni116  1  0.96205933  0.78048867  0.00792670  1.0
  Ni  Ni117  1  0.12872600  0.28048867  0.05792670  1.0
  Ni  Ni118  1  0.12872600  0.61382200  0.05792670  1.0
  Ni  Ni119  1  0.12872600  0.94715533  0.05792670  1.0
  Ni  Ni120  1  0.46205933  0.28048867  0.05792670  1.0
  Ni  Ni121  1  0.46205933  0.61382200  0.05792670  1.0
  Ni  Ni122  1  0.46205933  0.94715533  0.05792670  1.0
  Ni  Ni123  1  0.79539267  0.28048867  0.05792670  1.0
  Ni  Ni124  1  0.79539267  0.61382200  0.05792670  1.0
  Ni  Ni125  1  0.79539267  0.94715533  0.05792670  1.0
  Ni  Ni126  1  0.20460733  0.05284467  0.02621990  1.0
  Ni  Ni127  1  0.20460733  0.38617800  0.02621990  1.0
  Ni  Ni128  1  0.20460733  0.71951133  0.02621990  1.0
  Ni  Ni129  1  0.53794067  0.05284467  0.02621990  1.0
  Ni  Ni130  1  0.53794067  0.38617800  0.02621990  1.0
  Ni  Ni131  1  0.53794067  0.71951133  0.02621990  1.0
  Ni  Ni132  1  0.87127400  0.05284467  0.02621990  1.0
  Ni  Ni133  1  0.87127400  0.38617800  0.02621990  1.0
  Ni  Ni134  1  0.87127400  0.71951133  0.02621990  1.0
  Ni  Ni135  1  0.03794067  0.21951133  0.07621990  1.0
  Ni  Ni136  1  0.03794067  0.55284467  0.07621990  1.0
  Ni  Ni137  1  0.03794067  0.88617800  0.07621990  1.0
  Ni  Ni138  1  0.37127400  0.21951133  0.07621990  1.0
  Ni  Ni139  1  0.37127400  0.55284467  0.07621990  1.0
  Ni  Ni140  1  0.37127400  0.88617800  0.07621990  1.0
  Ni  Ni141  1  0.70460733  0.21951133  0.07621990  1.0
  Ni  Ni142  1  0.70460733  0.55284467  0.07621990  1.0
  Ni  Ni143  1  0.70460733  0.88617800  0.07621990  1.0
  Ga  Ga144  1  0.16666667  0.16666667  0.14207330  1.0
  Ga  Ga145  1  0.16666667  0.50000000  0.14207330  1.0
  Ga  Ga146  1  0.16666667  0.83333333  0.14207330  1.0
  Ga  Ga147  1  0.50000000  0.16666667  0.14207330  1.0
  Ga  Ga148  1  0.50000000  0.50000000  0.14207330  1.0
  Ga  Ga149  1  0.50000000  0.83333333  0.14207330  1.0
  Ga  Ga150  1  0.83333333  0.16666667  0.14207330  1.0
  Ga  Ga151  1  0.83333333  0.50000000  0.14207330  1.0
  Ga  Ga152  1  0.83333333  0.83333333  0.14207330  1.0
  Ga  Ga153  1  0.00000000  0.00000000  0.19207330  1.0
  Ga  Ga154  1  0.00000000  0.33333333  0.19207330  1.0
  Ga  Ga155  1  0.00000000  0.66666667  0.19207330  1.0
  Ga  Ga156  1  0.33333333  0.00000000  0.19207330  1.0
  Ga  Ga157  1  0.33333333  0.33333333  0.19207330  1.0
  Ga  Ga158  1  0.33333333  0.66666667  0.19207330  1.0
  Ga  Ga159  1  0.66666667  0.00000000  0.19207330  1.0
  Ga  Ga160  1  0.66666667  0.33333333  0.19207330  1.0
  Ga  Ga161  1  0.66666667  0.66666667  0.19207330  1.0
  Ga  Ga162  1  0.21336317  0.21336317  0.17806435  1.0
  Ga  Ga163  1  0.21336317  0.54669650  0.17806435  1.0
  Ga  Ga164  1  0.21336317  0.88002983  0.17806435  1.0
  Ga  Ga165  1  0.54669650  0.21336317  0.17806435  1.0
  Ga  Ga166  1  0.54669650  0.54669650  0.17806435  1.0
  Ga  Ga167  1  0.54669650  0.88002983  0.17806435  1.0
  Ga  Ga168  1  0.88002983  0.21336317  0.17806435  1.0
  Ga  Ga169  1  0.88002983  0.54669650  0.17806435  1.0
  Ga  Ga170  1  0.88002983  0.88002983  0.17806435  1.0
  Ga  Ga171  1  0.04669650  0.04669650  0.12806435  1.0
  Ga  Ga172  1  0.04669650  0.38002983  0.12806435  1.0
  Ga  Ga173  1  0.04669650  0.71336317  0.12806435  1.0
  Ga  Ga174  1  0.38002983  0.04669650  0.12806435  1.0
  Ga  Ga175  1  0.38002983  0.38002983  0.12806435  1.0
  Ga  Ga176  1  0.38002983  0.71336317  0.12806435  1.0
  Ga  Ga177  1  0.71336317  0.04669650  0.12806435  1.0
  Ga  Ga178  1  0.71336317  0.38002983  0.12806435  1.0
  Ga  Ga179  1  0.71336317  0.71336317  0.12806435  1.0
  Ga  Ga180  1  0.28663683  0.28663683  0.15608225  1.0
  Ga  Ga181  1  0.28663683  0.61997017  0.15608225  1.0
  Ga  Ga182  1  0.28663683  0.95330350  0.15608225  1.0
  Ga  Ga183  1  0.61997017  0.28663683  0.15608225  1.0
  Ga  Ga184  1  0.61997017  0.61997017  0.15608225  1.0
  Ga  Ga185  1  0.61997017  0.95330350  0.15608225  1.0
  Ga  Ga186  1  0.95330350  0.28663683  0.15608225  1.0
  Ga  Ga187  1  0.95330350  0.61997017  0.15608225  1.0
  Ga  Ga188  1  0.95330350  0.95330350  0.15608225  1.0
  Ga  Ga189  1  0.11997017  0.11997017  0.10608225  1.0
  Ga  Ga190  1  0.11997017  0.45330350  0.10608225  1.0
  Ga  Ga191  1  0.11997017  0.78663683  0.10608225  1.0
  Ga  Ga192  1  0.45330350  0.11997017  0.10608225  1.0
  Ga  Ga193  1  0.45330350  0.45330350  0.10608225  1.0
  Ga  Ga194  1  0.45330350  0.78663683  0.10608225  1.0
  Ga  Ga195  1  0.78663683  0.11997017  0.10608225  1.0
  Ga  Ga196  1  0.78663683  0.45330350  0.10608225  1.0
  Ga  Ga197  1  0.78663683  0.78663683  0.10608225  1.0
  Ni  Ni198  1  0.25000000  0.25000000  0.11707330  1.0
  Ni  Ni199  1  0.25000000  0.58333333  0.11707330  1.0
  Ni  Ni200  1  0.25000000  0.91666667  0.11707330  1.0
  Ni  Ni201  1  0.58333333  0.25000000  0.11707330  1.0
  Ni  Ni202  1  0.58333333  0.58333333  0.11707330  1.0
  Ni  Ni203  1  0.58333333  0.91666667  0.11707330  1.0
  Ni  Ni204  1  0.91666667  0.25000000  0.11707330  1.0
  Ni  Ni205  1  0.91666667  0.58333333  0.11707330  1.0
  Ni  Ni206  1  0.91666667  0.91666667  0.11707330  1.0
  Ni  Ni207  1  0.08333333  0.08333333  0.16707330  1.0
  Ni  Ni208  1  0.08333333  0.41666667  0.16707330  1.0
  Ni  Ni209  1  0.08333333  0.75000000  0.16707330  1.0
  Ni  Ni210  1  0.41666667  0.08333333  0.16707330  1.0
  Ni  Ni211  1  0.41666667  0.41666667  0.16707330  1.0
  Ni  Ni212  1  0.41666667  0.75000000  0.16707330  1.0
  Ni  Ni213  1  0.75000000  0.08333333  0.16707330  1.0
  Ni  Ni214  1  0.75000000  0.41666667  0.16707330  1.0
  Ni  Ni215  1  0.75000000  0.75000000  0.16707330  1.0
  Ni  Ni216  1  0.16666667  0.00000000  0.19207330  1.0
  Ni  Ni217  1  0.16666667  0.33333333  0.19207330  1.0
  Ni  Ni218  1  0.16666667  0.66666667  0.19207330  1.0
  Ni  Ni219  1  0.50000000  0.00000000  0.19207330  1.0
  Ni  Ni220  1  0.50000000  0.33333333  0.19207330  1.0
  Ni  Ni221  1  0.50000000  0.66666667  0.19207330  1.0
  Ni  Ni222  1  0.83333333  0.00000000  0.19207330  1.0
  Ni  Ni223  1  0.83333333  0.33333333  0.19207330  1.0
  Ni  Ni224  1  0.83333333  0.66666667  0.19207330  1.0
  Ni  Ni225  1  0.00000000  0.16666667  0.14207330  1.0
  Ni  Ni226  1  0.00000000  0.50000000  0.14207330  1.0
  Ni  Ni227  1  0.00000000  0.83333333  0.14207330  1.0
  Ni  Ni228  1  0.33333333  0.16666667  0.14207330  1.0
  Ni  Ni229  1  0.33333333  0.50000000  0.14207330  1.0
  Ni  Ni230  1  0.33333333  0.83333333  0.14207330  1.0
  Ni  Ni231  1  0.66666667  0.16666667  0.14207330  1.0
  Ni  Ni232  1  0.66666667  0.50000000  0.14207330  1.0
  Ni  Ni233  1  0.66666667  0.83333333  0.14207330  1.0
  Ni  Ni234  1  0.25000000  0.08333333  0.16707330  1.0
  Ni  Ni235  1  0.25000000  0.41666667  0.16707330  1.0
  Ni  Ni236  1  0.25000000  0.75000000  0.16707330  1.0
  Ni  Ni237  1  0.58333333  0.08333333  0.16707330  1.0
  Ni  Ni238  1  0.58333333  0.41666667  0.16707330  1.0
  Ni  Ni239  1  0.58333333  0.75000000  0.16707330  1.0
  Ni  Ni240  1  0.91666667  0.08333333  0.16707330  1.0
  Ni  Ni241  1  0.91666667  0.41666667  0.16707330  1.0
  Ni  Ni242  1  0.91666667  0.75000000  0.16707330  1.0
  Ni  Ni243  1  0.08333333  0.25000000  0.11707330  1.0
  Ni  Ni244  1  0.08333333  0.58333333  0.11707330  1.0
  Ni  Ni245  1  0.08333333  0.91666667  0.11707330  1.0
  Ni  Ni246  1  0.41666667  0.25000000  0.11707330  1.0
  Ni  Ni247  1  0.41666667  0.58333333  0.11707330  1.0
  Ni  Ni248  1  0.41666667  0.91666667  0.11707330  1.0
  Ni  Ni249  1  0.75000000  0.25000000  0.11707330  1.0
  Ni  Ni250  1  0.75000000  0.58333333  0.11707330  1.0
  Ni  Ni251  1  0.75000000  0.91666667  0.11707330  1.0
  Ni  Ni252  1  0.29539267  0.11382200  0.10792670  1.0
  Ni  Ni253  1  0.29539267  0.44715533  0.10792670  1.0
  Ni  Ni254  1  0.29539267  0.78048867  0.10792670  1.0
  Ni  Ni255  1  0.62872600  0.11382200  0.10792670  1.0
  Ni  Ni256  1  0.62872600  0.44715533  0.10792670  1.0
  Ni  Ni257  1  0.62872600  0.78048867  0.10792670  1.0
  Ni  Ni258  1  0.96205933  0.11382200  0.10792670  1.0
  Ni  Ni259  1  0.96205933  0.44715533  0.10792670  1.0
  Ni  Ni260  1  0.96205933  0.78048867  0.10792670  1.0
  Ni  Ni261  1  0.12872600  0.28048867  0.15792670  1.0
  Ni  Ni262  1  0.12872600  0.61382200  0.15792670  1.0
  Ni  Ni263  1  0.12872600  0.94715533  0.15792670  1.0
  Ni  Ni264  1  0.46205933  0.28048867  0.15792670  1.0
  Ni  Ni265  1  0.46205933  0.61382200  0.15792670  1.0
  Ni  Ni266  1  0.46205933  0.94715533  0.15792670  1.0
  Ni  Ni267  1  0.79539267  0.28048867  0.15792670  1.0
  Ni  Ni268  1  0.79539267  0.61382200  0.15792670  1.0
  Ni  Ni269  1  0.79539267  0.94715533  0.15792670  1.0
  Ni  Ni270  1  0.20460733  0.05284467  0.12621990  1.0
  Ni  Ni271  1  0.20460733  0.38617800  0.12621990  1.0
  Ni  Ni272  1  0.20460733  0.71951133  0.12621990  1.0
  Ni  Ni273  1  0.53794067  0.05284467  0.12621990  1.0
  Ni  Ni274  1  0.53794067  0.38617800  0.12621990  1.0
  Ni  Ni275  1  0.53794067  0.71951133  0.12621990  1.0
  Ni  Ni276  1  0.87127400  0.05284467  0.12621990  1.0
  Ni  Ni277  1  0.87127400  0.38617800  0.12621990  1.0
  Ni  Ni278  1  0.87127400  0.71951133  0.12621990  1.0
  Ni  Ni279  1  0.03794067  0.21951133  0.17621990  1.0
  Ni  Ni280  1  0.03794067  0.55284467  0.17621990  1.0
  Ni  Ni281  1  0.03794067  0.88617800  0.17621990  1.0
  Ni  Ni282  1  0.37127400  0.21951133  0.17621990  1.0
  Ni  Ni283  1  0.37127400  0.55284467  0.17621990  1.0
  Ni  Ni284  1  0.37127400  0.88617800  0.17621990  1.0
  Ni  Ni285  1  0.70460733  0.21951133  0.17621990  1.0
  Ni  Ni286  1  0.70460733  0.55284467  0.17621990  1.0
  Ni  Ni287  1  0.70460733  0.88617800  0.17621990  1.0
  Ga  Ga288  1  0.16666667  0.16666667  0.24207330  1.0
  Ga  Ga289  1  0.16666667  0.50000000  0.24207330  1.0
  Ga  Ga290  1  0.16666667  0.83333333  0.24207330  1.0
  Ga  Ga291  1  0.50000000  0.16666667  0.24207330  1.0
  Ga  Ga292  1  0.50000000  0.50000000  0.24207330  1.0
  Ga  Ga293  1  0.50000000  0.83333333  0.24207330  1.0
  Ga  Ga294  1  0.83333333  0.16666667  0.24207330  1.0
  Ga  Ga295  1  0.83333333  0.50000000  0.24207330  1.0
  Ga  Ga296  1  0.83333333  0.83333333  0.24207330  1.0
  Ga  Ga297  1  0.00000000  0.00000000  0.29207330  1.0
  Ga  Ga298  1  0.00000000  0.33333333  0.29207330  1.0
  Ga  Ga299  1  0.00000000  0.66666667  0.29207330  1.0
  Ga  Ga300  1  0.33333333  0.00000000  0.29207330  1.0
  Ga  Ga301  1  0.33333333  0.33333333  0.29207330  1.0
  Ga  Ga302  1  0.33333333  0.66666667  0.29207330  1.0
  Ga  Ga303  1  0.66666667  0.00000000  0.29207330  1.0
  Ga  Ga304  1  0.66666667  0.33333333  0.29207330  1.0
  Ga  Ga305  1  0.66666667  0.66666667  0.29207330  1.0
  Ga  Ga306  1  0.21336317  0.21336317  0.27806435  1.0
  Ga  Ga307  1  0.21336317  0.54669650  0.27806435  1.0
  Ga  Ga308  1  0.21336317  0.88002983  0.27806435  1.0
  Ga  Ga309  1  0.54669650  0.21336317  0.27806435  1.0
  Ga  Ga310  1  0.54669650  0.54669650  0.27806435  1.0
  Ga  Ga311  1  0.54669650  0.88002983  0.27806435  1.0
  Ga  Ga312  1  0.88002983  0.21336317  0.27806435  1.0
  Ga  Ga313  1  0.88002983  0.54669650  0.27806435  1.0
  Ga  Ga314  1  0.88002983  0.88002983  0.27806435  1.0
  Ga  Ga315  1  0.04669650  0.04669650  0.22806435  1.0
  Ga  Ga316  1  0.04669650  0.38002983  0.22806435  1.0
  Ga  Ga317  1  0.04669650  0.71336317  0.22806435  1.0
  Ga  Ga318  1  0.38002983  0.04669650  0.22806435  1.0
  Ga  Ga319  1  0.38002983  0.38002983  0.22806435  1.0
  Ga  Ga320  1  0.38002983  0.71336317  0.22806435  1.0
  Ga  Ga321  1  0.71336317  0.04669650  0.22806435  1.0
  Ga  Ga322  1  0.71336317  0.38002983  0.22806435  1.0
  Ga  Ga323  1  0.71336317  0.71336317  0.22806435  1.0
  Ga  Ga324  1  0.28663683  0.28663683  0.25608225  1.0
  Ga  Ga325  1  0.28663683  0.61997017  0.25608225  1.0
  Ga  Ga326  1  0.28663683  0.95330350  0.25608225  1.0
  Ga  Ga327  1  0.61997017  0.28663683  0.25608225  1.0
  Ga  Ga328  1  0.61997017  0.61997017  0.25608225  1.0
  Ga  Ga329  1  0.61997017  0.95330350  0.25608225  1.0
  Ga  Ga330  1  0.95330350  0.28663683  0.25608225  1.0
  Ga  Ga331  1  0.95330350  0.61997017  0.25608225  1.0
  Ga  Ga332  1  0.95330350  0.95330350  0.25608225  1.0
  Ga  Ga333  1  0.11997017  0.11997017  0.20608225  1.0
  Ga  Ga334  1  0.11997017  0.45330350  0.20608225  1.0
  Ga  Ga335  1  0.11997017  0.78663683  0.20608225  1.0
  Ga  Ga336  1  0.45330350  0.11997017  0.20608225  1.0
  Ga  Ga337  1  0.45330350  0.45330350  0.20608225  1.0
  Ga  Ga338  1  0.45330350  0.78663683  0.20608225  1.0
  Ga  Ga339  1  0.78663683  0.11997017  0.20608225  1.0
  Ga  Ga340  1  0.78663683  0.45330350  0.20608225  1.0
  Ga  Ga341  1  0.78663683  0.78663683  0.20608225  1.0
  Ni  Ni342  1  0.25000000  0.25000000  0.21707330  1.0
  Ni  Ni343  1  0.25000000  0.58333333  0.21707330  1.0
  Ni  Ni344  1  0.25000000  0.91666667  0.21707330  1.0
  Ni  Ni345  1  0.58333333  0.25000000  0.21707330  1.0
  Ni  Ni346  1  0.58333333  0.58333333  0.21707330  1.0
  Ni  Ni347  1  0.58333333  0.91666667  0.21707330  1.0
  Ni  Ni348  1  0.91666667  0.25000000  0.21707330  1.0
  Ni  Ni349  1  0.91666667  0.58333333  0.21707330  1.0
  Ni  Ni350  1  0.91666667  0.91666667  0.21707330  1.0
  Ni  Ni351  1  0.08333333  0.08333333  0.26707330  1.0
  Ni  Ni352  1  0.08333333  0.41666667  0.26707330  1.0
  Ni  Ni353  1  0.08333333  0.75000000  0.26707330  1.0
  Ni  Ni354  1  0.41666667  0.08333333  0.26707330  1.0
  Ni  Ni355  1  0.41666667  0.41666667  0.26707330  1.0
  Ni  Ni356  1  0.41666667  0.75000000  0.26707330  1.0
  Ni  Ni357  1  0.75000000  0.08333333  0.26707330  1.0
  Ni  Ni358  1  0.75000000  0.41666667  0.26707330  1.0
  Ni  Ni359  1  0.75000000  0.75000000  0.26707330  1.0
  Ni  Ni360  1  0.16666667  0.00000000  0.29207330  1.0
  Ni  Ni361  1  0.16666667  0.33333333  0.29207330  1.0
  Ni  Ni362  1  0.16666667  0.66666667  0.29207330  1.0
  Ni  Ni363  1  0.50000000  0.00000000  0.29207330  1.0
  Ni  Ni364  1  0.50000000  0.33333333  0.29207330  1.0
  Ni  Ni365  1  0.50000000  0.66666667  0.29207330  1.0
  Ni  Ni366  1  0.83333333  0.00000000  0.29207330  1.0
  Ni  Ni367  1  0.83333333  0.33333333  0.29207330  1.0
  Ni  Ni368  1  0.83333333  0.66666667  0.29207330  1.0
  Ni  Ni369  1  0.00000000  0.16666667  0.24207330  1.0
  Ni  Ni370  1  0.00000000  0.50000000  0.24207330  1.0
  Ni  Ni371  1  0.00000000  0.83333333  0.24207330  1.0
  Ni  Ni372  1  0.33333333  0.16666667  0.24207330  1.0
  Ni  Ni373  1  0.33333333  0.50000000  0.24207330  1.0
  Ni  Ni374  1  0.33333333  0.83333333  0.24207330  1.0
  Ni  Ni375  1  0.66666667  0.16666667  0.24207330  1.0
  Ni  Ni376  1  0.66666667  0.50000000  0.24207330  1.0
  Ni  Ni377  1  0.66666667  0.83333333  0.24207330  1.0
  Ni  Ni378  1  0.25000000  0.08333333  0.26707330  1.0
  Ni  Ni379  1  0.25000000  0.41666667  0.26707330  1.0
  Ni  Ni380  1  0.25000000  0.75000000  0.26707330  1.0
  Ni  Ni381  1  0.58333333  0.08333333  0.26707330  1.0
  Ni  Ni382  1  0.58333333  0.41666667  0.26707330  1.0
  Ni  Ni383  1  0.58333333  0.75000000  0.26707330  1.0
  Ni  Ni384  1  0.91666667  0.08333333  0.26707330  1.0
  Ni  Ni385  1  0.91666667  0.41666667  0.26707330  1.0
  Ni  Ni386  1  0.91666667  0.75000000  0.26707330  1.0
  Ni  Ni387  1  0.08333333  0.25000000  0.21707330  1.0
  Ni  Ni388  1  0.08333333  0.58333333  0.21707330  1.0
  Ni  Ni389  1  0.08333333  0.91666667  0.21707330  1.0
  Ni  Ni390  1  0.41666667  0.25000000  0.21707330  1.0
  Ni  Ni391  1  0.41666667  0.58333333  0.21707330  1.0
  Ni  Ni392  1  0.41666667  0.91666667  0.21707330  1.0
  Ni  Ni393  1  0.75000000  0.25000000  0.21707330  1.0
  Ni  Ni394  1  0.75000000  0.58333333  0.21707330  1.0
  Ni  Ni395  1  0.75000000  0.91666667  0.21707330  1.0
  Ni  Ni396  1  0.29539267  0.11382200  0.20792670  1.0
  Ni  Ni397  1  0.29539267  0.44715533  0.20792670  1.0
  Ni  Ni398  1  0.29539267  0.78048867  0.20792670  1.0
  Ni  Ni399  1  0.62872600  0.11382200  0.20792670  1.0
  Ni  Ni400  1  0.62872600  0.44715533  0.20792670  1.0
  Ni  Ni401  1  0.62872600  0.78048867  0.20792670  1.0
  Ni  Ni402  1  0.96205933  0.11382200  0.20792670  1.0
  Ni  Ni403  1  0.96205933  0.44715533  0.20792670  1.0
  Ni  Ni404  1  0.96205933  0.78048867  0.20792670  1.0
  Ni  Ni405  1  0.12872600  0.28048867  0.25792670  1.0
  Ni  Ni406  1  0.12872600  0.61382200  0.25792670  1.0
  Ni  Ni407  1  0.12872600  0.94715533  0.25792670  1.0
  Ni  Ni408  1  0.46205933  0.28048867  0.25792670  1.0
  Ni  Ni409  1  0.46205933  0.61382200  0.25792670  1.0
  Ni  Ni410  1  0.46205933  0.94715533  0.25792670  1.0
  Ni  Ni411  1  0.79539267  0.28048867  0.25792670  1.0
  Ni  Ni412  1  0.79539267  0.61382200  0.25792670  1.0
  Ni  Ni413  1  0.79539267  0.94715533  0.25792670  1.0
  Ni  Ni414  1  0.20460733  0.05284467  0.22621990  1.0
  Ni  Ni415  1  0.20460733  0.38617800  0.22621990  1.0
  Ni  Ni416  1  0.20460733  0.71951133  0.22621990  1.0
  Ni  Ni417  1  0.53794067  0.05284467  0.22621990  1.0
  Ni  Ni418  1  0.53794067  0.38617800  0.22621990  1.0
  Ni  Ni419  1  0.53794067  0.71951133  0.22621990  1.0
  Ni  Ni420  1  0.87127400  0.05284467  0.22621990  1.0
  Ni  Ni421  1  0.87127400  0.38617800  0.22621990  1.0
  Ni  Ni422  1  0.87127400  0.71951133  0.22621990  1.0
  Ni  Ni423  1  0.03794067  0.21951133  0.27621990  1.0
  Ni  Ni424  1  0.03794067  0.55284467  0.27621990  1.0
  Ni  Ni425  1  0.03794067  0.88617800  0.27621990  1.0
  Ni  Ni426  1  0.37127400  0.21951133  0.27621990  1.0
  Ni  Ni427  1  0.37127400  0.55284467  0.27621990  1.0
  Ni  Ni428  1  0.37127400  0.88617800  0.27621990  1.0
  Ni  Ni429  1  0.70460733  0.21951133  0.27621990  1.0
  Ni  Ni430  1  0.70460733  0.55284467  0.27621990  1.0
  Ni  Ni431  1  0.70460733  0.88617800  0.27621990  1.0
  Ga  Ga432  1  0.16666667  0.16666667  0.34207330  1.0
  Ga  Ga433  1  0.16666667  0.50000000  0.34207330  1.0
  Ga  Ga434  1  0.16666667  0.83333333  0.34207330  1.0
  Ga  Ga435  1  0.50000000  0.16666667  0.34207330  1.0
  Ga  Ga436  1  0.50000000  0.50000000  0.34207330  1.0
  Ga  Ga437  1  0.50000000  0.83333333  0.34207330  1.0
  Ga  Ga438  1  0.83333333  0.16666667  0.34207330  1.0
  Ga  Ga439  1  0.83333333  0.50000000  0.34207330  1.0
  Ga  Ga440  1  0.83333333  0.83333333  0.34207330  1.0
  Ga  Ga441  1  0.00000000  0.00000000  0.39207330  1.0
  Ga  Ga442  1  0.00000000  0.33333333  0.39207330  1.0
  Ga  Ga443  1  0.00000000  0.66666667  0.39207330  1.0
  Ga  Ga444  1  0.33333333  0.00000000  0.39207330  1.0
  Ga  Ga445  1  0.33333333  0.33333333  0.39207330  1.0
  Ga  Ga446  1  0.33333333  0.66666667  0.39207330  1.0
  Ga  Ga447  1  0.66666667  0.00000000  0.39207330  1.0
  Ga  Ga448  1  0.66666667  0.33333333  0.39207330  1.0
  Ga  Ga449  1  0.66666667  0.66666667  0.39207330  1.0
  Ga  Ga450  1  0.21336317  0.21336317  0.37806435  1.0
  Ga  Ga451  1  0.21336317  0.54669650  0.37806435  1.0
  Ga  Ga452  1  0.21336317  0.88002983  0.37806435  1.0
  Ga  Ga453  1  0.54669650  0.21336317  0.37806435  1.0
  Ga  Ga454  1  0.54669650  0.54669650  0.37806435  1.0
  Ga  Ga455  1  0.54669650  0.88002983  0.37806435  1.0
  Ga  Ga456  1  0.88002983  0.21336317  0.37806435  1.0
  Ga  Ga457  1  0.88002983  0.54669650  0.37806435  1.0
  Ga  Ga458  1  0.88002983  0.88002983  0.37806435  1.0
  Ga  Ga459  1  0.04669650  0.04669650  0.32806435  1.0
  Ga  Ga460  1  0.04669650  0.38002983  0.32806435  1.0
  Ga  Ga461  1  0.04669650  0.71336317  0.32806435  1.0
  Ga  Ga462  1  0.38002983  0.04669650  0.32806435  1.0
  Ga  Ga463  1  0.38002983  0.38002983  0.32806435  1.0
  Ga  Ga464  1  0.38002983  0.71336317  0.32806435  1.0
  Ga  Ga465  1  0.71336317  0.04669650  0.32806435  1.0
  Ga  Ga466  1  0.71336317  0.38002983  0.32806435  1.0
  Ga  Ga467  1  0.71336317  0.71336317  0.32806435  1.0
  Ga  Ga468  1  0.28663683  0.28663683  0.35608225  1.0
  Ga  Ga469  1  0.28663683  0.61997017  0.35608225  1.0
  Ga  Ga470  1  0.28663683  0.95330350  0.35608225  1.0
  Ga  Ga471  1  0.61997017  0.28663683  0.35608225  1.0
  Ga  Ga472  1  0.61997017  0.61997017  0.35608225  1.0
  Ga  Ga473  1  0.61997017  0.95330350  0.35608225  1.0
  Ga  Ga474  1  0.95330350  0.28663683  0.35608225  1.0
  Ga  Ga475  1  0.95330350  0.61997017  0.35608225  1.0
  Ga  Ga476  1  0.95330350  0.95330350  0.35608225  1.0
  Ga  Ga477  1  0.11997017  0.11997017  0.30608225  1.0
  Ga  Ga478  1  0.11997017  0.45330350  0.30608225  1.0
  Ga  Ga479  1  0.11997017  0.78663683  0.30608225  1.0
  Ga  Ga480  1  0.45330350  0.11997017  0.30608225  1.0
  Ga  Ga481  1  0.45330350  0.45330350  0.30608225  1.0
  Ga  Ga482  1  0.45330350  0.78663683  0.30608225  1.0
  Ga  Ga483  1  0.78663683  0.11997017  0.30608225  1.0
  Ga  Ga484  1  0.78663683  0.45330350  0.30608225  1.0
  Ga  Ga485  1  0.78663683  0.78663683  0.30608225  1.0
  Ni  Ni486  1  0.25000000  0.25000000  0.31707330  1.0
  Ni  Ni487  1  0.25000000  0.58333333  0.31707330  1.0
  Ni  Ni488  1  0.25000000  0.91666667  0.31707330  1.0
  Ni  Ni489  1  0.58333333  0.25000000  0.31707330  1.0
  Ni  Ni490  1  0.58333333  0.58333333  0.31707330  1.0
  Ni  Ni491  1  0.58333333  0.91666667  0.31707330  1.0
  Ni  Ni492  1  0.91666667  0.25000000  0.31707330  1.0
  Ni  Ni493  1  0.91666667  0.58333333  0.31707330  1.0
  Ni  Ni494  1  0.91666667  0.91666667  0.31707330  1.0
  Ni  Ni495  1  0.08333333  0.08333333  0.36707330  1.0
  Ni  Ni496  1  0.08333333  0.41666667  0.36707330  1.0
  Ni  Ni497  1  0.08333333  0.75000000  0.36707330  1.0
  Ni  Ni498  1  0.41666667  0.08333333  0.36707330  1.0
  Ni  Ni499  1  0.41666667  0.41666667  0.36707330  1.0
  Ni  Ni500  1  0.41666667  0.75000000  0.36707330  1.0
  Ni  Ni501  1  0.75000000  0.08333333  0.36707330  1.0
  Ni  Ni502  1  0.75000000  0.41666667  0.36707330  1.0
  Ni  Ni503  1  0.75000000  0.75000000  0.36707330  1.0
  Ni  Ni504  1  0.16666667  0.00000000  0.39207330  1.0
  Ni  Ni505  1  0.16666667  0.33333333  0.39207330  1.0
  Ni  Ni506  1  0.16666667  0.66666667  0.39207330  1.0
  Ni  Ni507  1  0.50000000  0.00000000  0.39207330  1.0
  Ni  Ni508  1  0.50000000  0.33333333  0.39207330  1.0
  Ni  Ni509  1  0.50000000  0.66666667  0.39207330  1.0
  Ni  Ni510  1  0.83333333  0.00000000  0.39207330  1.0
  Ni  Ni511  1  0.83333333  0.33333333  0.39207330  1.0
  Ni  Ni512  1  0.83333333  0.66666667  0.39207330  1.0
  Ni  Ni513  1  0.00000000  0.16666667  0.34207330  1.0
  Ni  Ni514  1  0.00000000  0.50000000  0.34207330  1.0
  Ni  Ni515  1  0.00000000  0.83333333  0.34207330  1.0
  Ni  Ni516  1  0.33333333  0.16666667  0.34207330  1.0
  Ni  Ni517  1  0.33333333  0.50000000  0.34207330  1.0
  Ni  Ni518  1  0.33333333  0.83333333  0.34207330  1.0
  Ni  Ni519  1  0.66666667  0.16666667  0.34207330  1.0
  Ni  Ni520  1  0.66666667  0.50000000  0.34207330  1.0
  Ni  Ni521  1  0.66666667  0.83333333  0.34207330  1.0
  Ni  Ni522  1  0.25000000  0.08333333  0.36707330  1.0
  Ni  Ni523  1  0.25000000  0.41666667  0.36707330  1.0
  Ni  Ni524  1  0.25000000  0.75000000  0.36707330  1.0
  Ni  Ni525  1  0.58333333  0.08333333  0.36707330  1.0
  Ni  Ni526  1  0.58333333  0.41666667  0.36707330  1.0
  Ni  Ni527  1  0.58333333  0.75000000  0.36707330  1.0
  Ni  Ni528  1  0.91666667  0.08333333  0.36707330  1.0
  Ni  Ni529  1  0.91666667  0.41666667  0.36707330  1.0
  Ni  Ni530  1  0.91666667  0.75000000  0.36707330  1.0
  Ni  Ni531  1  0.08333333  0.25000000  0.31707330  1.0
  Ni  Ni532  1  0.08333333  0.58333333  0.31707330  1.0
  Ni  Ni533  1  0.08333333  0.91666667  0.31707330  1.0
  Ni  Ni534  1  0.41666667  0.25000000  0.31707330  1.0
  Ni  Ni535  1  0.41666667  0.58333333  0.31707330  1.0
  Ni  Ni536  1  0.41666667  0.91666667  0.31707330  1.0
  Ni  Ni537  1  0.75000000  0.25000000  0.31707330  1.0
  Ni  Ni538  1  0.75000000  0.58333333  0.31707330  1.0
  Ni  Ni539  1  0.75000000  0.91666667  0.31707330  1.0
  Ni  Ni540  1  0.29539267  0.11382200  0.30792670  1.0
  Ni  Ni541  1  0.29539267  0.44715533  0.30792670  1.0
  Ni  Ni542  1  0.29539267  0.78048867  0.30792670  1.0
  Ni  Ni543  1  0.62872600  0.11382200  0.30792670  1.0
  Ni  Ni544  1  0.62872600  0.44715533  0.30792670  1.0
  Ni  Ni545  1  0.62872600  0.78048867  0.30792670  1.0
  Ni  Ni546  1  0.96205933  0.11382200  0.30792670  1.0
  Ni  Ni547  1  0.96205933  0.44715533  0.30792670  1.0
  Ni  Ni548  1  0.96205933  0.78048867  0.30792670  1.0
  Ni  Ni549  1  0.12872600  0.28048867  0.35792670  1.0
  Ni  Ni550  1  0.12872600  0.61382200  0.35792670  1.0
  Ni  Ni551  1  0.12872600  0.94715533  0.35792670  1.0
  Ni  Ni552  1  0.46205933  0.28048867  0.35792670  1.0
  Ni  Ni553  1  0.46205933  0.61382200  0.35792670  1.0
  Ni  Ni554  1  0.46205933  0.94715533  0.35792670  1.0
  Ni  Ni555  1  0.79539267  0.28048867  0.35792670  1.0
  Ni  Ni556  1  0.79539267  0.61382200  0.35792670  1.0
  Ni  Ni557  1  0.79539267  0.94715533  0.35792670  1.0
  Ni  Ni558  1  0.20460733  0.05284467  0.32621990  1.0
  Ni  Ni559  1  0.20460733  0.38617800  0.32621990  1.0
  Ni  Ni560  1  0.20460733  0.71951133  0.32621990  1.0
  Ni  Ni561  1  0.53794067  0.05284467  0.32621990  1.0
  Ni  Ni562  1  0.53794067  0.38617800  0.32621990  1.0
  Ni  Ni563  1  0.53794067  0.71951133  0.32621990  1.0
  Ni  Ni564  1  0.87127400  0.05284467  0.32621990  1.0
  Ni  Ni565  1  0.87127400  0.38617800  0.32621990  1.0
  Ni  Ni566  1  0.87127400  0.71951133  0.32621990  1.0
  Ni  Ni567  1  0.03794067  0.21951133  0.37621990  1.0
  Ni  Ni568  1  0.03794067  0.55284467  0.37621990  1.0
  Ni  Ni569  1  0.03794067  0.88617800  0.37621990  1.0
  Ni  Ni570  1  0.37127400  0.21951133  0.37621990  1.0
  Ni  Ni571  1  0.37127400  0.55284467  0.37621990  1.0
  Ni  Ni572  1  0.37127400  0.88617800  0.37621990  1.0
  Ni  Ni573  1  0.70460733  0.21951133  0.37621990  1.0
  Ni  Ni574  1  0.70460733  0.55284467  0.37621990  1.0
  Ni  Ni575  1  0.70460733  0.88617800  0.37621990  1.0
