# generated using pymatgen
data_Ga3Ni5
_symmetry_space_group_name_H-M   'P 1'
_cell_length_a   18.84204386
_cell_length_b   23.25284826
_cell_length_c   27.81684858
_cell_angle_alpha   87.61756464
_cell_angle_beta   88.01106360
_cell_angle_gamma   78.95463765
_symmetry_Int_Tables_number   1
_chemical_formula_structural   Ga3Ni5
_chemical_formula_sum   'Ga162 Ni270'
_cell_volume   11946.88231200
_cell_formula_units_Z   54
loop_
 _symmetry_equiv_pos_site_id
 _symmetry_equiv_pos_as_xyz
  1  'x, y, z'
loop_
 _atom_site_type_symbol
 _atom_site_label
 _atom_site_symmetry_multiplicity
 _atom_site_fract_x
 _atom_site_fract_y
 _atom_site_fract_z
 _atom_site_occupancy
  Ga  Ga0  1  0.18723386  0.10496510  0.06170157  1.0
  Ga  Ga1  1  0.18723386  0.43829843  0.06170157  1.0
  Ga  Ga2  1  0.18723386  0.77163176  0.06170157  1.0
  Ga  Ga3  1  0.52056719  0.10496510  0.06170157  1.0
  Ga  Ga4  1  0.52056719  0.43829843  0.06170157  1.0
  Ga  Ga5  1  0.52056719  0.77163176  0.06170157  1.0
  Ga  Ga6  1  0.85390052  0.10496510  0.06170157  1.0
  Ga  Ga7  1  0.85390052  0.43829843  0.06170157  1.0
  Ga  Ga8  1  0.85390052  0.77163176  0.06170157  1.0
  Ga  Ga9  1  0.04437671  0.20020319  0.13313014  1.0
  Ga  Ga10  1  0.04437671  0.53353652  0.13313014  1.0
  Ga  Ga11  1  0.04437671  0.86686986  0.13313014  1.0
  Ga  Ga12  1  0.37771005  0.20020319  0.13313014  1.0
  Ga  Ga13  1  0.37771005  0.53353652  0.13313014  1.0
  Ga  Ga14  1  0.37771005  0.86686986  0.13313014  1.0
  Ga  Ga15  1  0.71104338  0.20020319  0.13313014  1.0
  Ga  Ga16  1  0.71104338  0.53353652  0.13313014  1.0
  Ga  Ga17  1  0.71104338  0.86686986  0.13313014  1.0
  Ga  Ga18  1  0.32537171  0.04400419  0.08602564  1.0
  Ga  Ga19  1  0.32537171  0.37733752  0.08602564  1.0
  Ga  Ga20  1  0.32537171  0.71067086  0.08602564  1.0
  Ga  Ga21  1  0.65870505  0.04400419  0.08602564  1.0
  Ga  Ga22  1  0.65870505  0.37733752  0.08602564  1.0
  Ga  Ga23  1  0.65870505  0.71067086  0.08602564  1.0
  Ga  Ga24  1  0.99203838  0.04400419  0.08602564  1.0
  Ga  Ga25  1  0.99203838  0.37733752  0.08602564  1.0
  Ga  Ga26  1  0.99203838  0.71067086  0.08602564  1.0
  Ga  Ga27  1  0.13489552  0.28209943  0.01459707  1.0
  Ga  Ga28  1  0.13489552  0.61543276  0.01459707  1.0
  Ga  Ga29  1  0.13489552  0.94876610  0.01459707  1.0
  Ga  Ga30  1  0.46822886  0.28209943  0.01459707  1.0
  Ga  Ga31  1  0.46822886  0.61543276  0.01459707  1.0
  Ga  Ga32  1  0.46822886  0.94876610  0.01459707  1.0
  Ga  Ga33  1  0.80156219  0.28209943  0.01459707  1.0
  Ga  Ga34  1  0.80156219  0.61543276  0.01459707  1.0
  Ga  Ga35  1  0.80156219  0.94876610  0.01459707  1.0
  Ga  Ga36  1  0.04909600  0.16592600  0.03737750  1.0
  Ga  Ga37  1  0.04909600  0.49925933  0.03737750  1.0
  Ga  Ga38  1  0.04909600  0.83259267  0.03737750  1.0
  Ga  Ga39  1  0.38242933  0.16592600  0.03737750  1.0
  Ga  Ga40  1  0.38242933  0.49925933  0.03737750  1.0
  Ga  Ga41  1  0.38242933  0.83259267  0.03737750  1.0
  Ga  Ga42  1  0.71576267  0.16592600  0.03737750  1.0
  Ga  Ga43  1  0.71576267  0.49925933  0.03737750  1.0
  Ga  Ga44  1  0.71576267  0.83259267  0.03737750  1.0
  Ga  Ga45  1  0.23957219  0.26116410  0.10880607  1.0
  Ga  Ga46  1  0.23957219  0.59449743  0.10880607  1.0
  Ga  Ga47  1  0.23957219  0.92783076  0.10880607  1.0
  Ga  Ga48  1  0.57290552  0.26116410  0.10880607  1.0
  Ga  Ga49  1  0.57290552  0.59449743  0.10880607  1.0
  Ga  Ga50  1  0.57290552  0.92783076  0.10880607  1.0
  Ga  Ga51  1  0.90623886  0.26116410  0.10880607  1.0
  Ga  Ga52  1  0.90623886  0.59449743  0.10880607  1.0
  Ga  Ga53  1  0.90623886  0.92783076  0.10880607  1.0
  Ga  Ga54  1  0.23485290  0.29544129  0.20455871  1.0
  Ga  Ga55  1  0.23485290  0.62877462  0.20455871  1.0
  Ga  Ga56  1  0.23485290  0.96210795  0.20455871  1.0
  Ga  Ga57  1  0.56818624  0.29544129  0.20455871  1.0
  Ga  Ga58  1  0.56818624  0.62877462  0.20455871  1.0
  Ga  Ga59  1  0.56818624  0.96210795  0.20455871  1.0
  Ga  Ga60  1  0.90151957  0.29544129  0.20455871  1.0
  Ga  Ga61  1  0.90151957  0.62877462  0.20455871  1.0
  Ga  Ga62  1  0.90151957  0.96210795  0.20455871  1.0
  Ga  Ga63  1  0.09199576  0.05734605  0.27598729  1.0
  Ga  Ga64  1  0.09199576  0.39067938  0.27598729  1.0
  Ga  Ga65  1  0.09199576  0.72401271  0.27598729  1.0
  Ga  Ga66  1  0.42532910  0.05734605  0.27598729  1.0
  Ga  Ga67  1  0.42532910  0.39067938  0.27598729  1.0
  Ga  Ga68  1  0.42532910  0.72401271  0.27598729  1.0
  Ga  Ga69  1  0.75866243  0.05734605  0.27598729  1.0
  Ga  Ga70  1  0.75866243  0.39067938  0.27598729  1.0
  Ga  Ga71  1  0.75866243  0.72401271  0.27598729  1.0
  Ga  Ga72  1  0.03965743  0.23448038  0.22888279  1.0
  Ga  Ga73  1  0.03965743  0.56781371  0.22888279  1.0
  Ga  Ga74  1  0.03965743  0.90114705  0.22888279  1.0
  Ga  Ga75  1  0.37299076  0.23448038  0.22888279  1.0
  Ga  Ga76  1  0.37299076  0.56781371  0.22888279  1.0
  Ga  Ga77  1  0.37299076  0.90114705  0.22888279  1.0
  Ga  Ga78  1  0.70632410  0.23448038  0.22888279  1.0
  Ga  Ga79  1  0.70632410  0.56781371  0.22888279  1.0
  Ga  Ga80  1  0.70632410  0.90114705  0.22888279  1.0
  Ga  Ga81  1  0.18251457  0.13924229  0.15745421  1.0
  Ga  Ga82  1  0.18251457  0.47257562  0.15745421  1.0
  Ga  Ga83  1  0.18251457  0.80590895  0.15745421  1.0
  Ga  Ga84  1  0.51584790  0.13924229  0.15745421  1.0
  Ga  Ga85  1  0.51584790  0.47257562  0.15745421  1.0
  Ga  Ga86  1  0.51584790  0.80590895  0.15745421  1.0
  Ga  Ga87  1  0.84918124  0.13924229  0.15745421  1.0
  Ga  Ga88  1  0.84918124  0.47257562  0.15745421  1.0
  Ga  Ga89  1  0.84918124  0.80590895  0.15745421  1.0
  Ga  Ga90  1  0.09671505  0.02306886  0.18023464  1.0
  Ga  Ga91  1  0.09671505  0.35640219  0.18023464  1.0
  Ga  Ga92  1  0.09671505  0.68973552  0.18023464  1.0
  Ga  Ga93  1  0.43004838  0.02306886  0.18023464  1.0
  Ga  Ga94  1  0.43004838  0.35640219  0.18023464  1.0
  Ga  Ga95  1  0.43004838  0.68973552  0.18023464  1.0
  Ga  Ga96  1  0.76338171  0.02306886  0.18023464  1.0
  Ga  Ga97  1  0.76338171  0.35640219  0.18023464  1.0
  Ga  Ga98  1  0.76338171  0.68973552  0.18023464  1.0
  Ga  Ga99  1  0.28719124  0.11830695  0.25166321  1.0
  Ga  Ga100  1  0.28719124  0.45164029  0.25166321  1.0
  Ga  Ga101  1  0.28719124  0.78497362  0.25166321  1.0
  Ga  Ga102  1  0.62052457  0.11830695  0.25166321  1.0
  Ga  Ga103  1  0.62052457  0.45164029  0.25166321  1.0
  Ga  Ga104  1  0.62052457  0.78497362  0.25166321  1.0
  Ga  Ga105  1  0.95385790  0.11830695  0.25166321  1.0
  Ga  Ga106  1  0.95385790  0.45164029  0.25166321  1.0
  Ga  Ga107  1  0.95385790  0.78497362  0.25166321  1.0
  Ga  Ga108  1  0.28247195  0.15258414  0.34741586  1.0
  Ga  Ga109  1  0.28247195  0.48591748  0.34741586  1.0
  Ga  Ga110  1  0.28247195  0.81925081  0.34741586  1.0
  Ga  Ga111  1  0.61580529  0.15258414  0.34741586  1.0
  Ga  Ga112  1  0.61580529  0.48591748  0.34741586  1.0
  Ga  Ga113  1  0.61580529  0.81925081  0.34741586  1.0
  Ga  Ga114  1  0.94913862  0.15258414  0.34741586  1.0
  Ga  Ga115  1  0.94913862  0.48591748  0.34741586  1.0
  Ga  Ga116  1  0.94913862  0.81925081  0.34741586  1.0
  Ga  Ga117  1  0.13961481  0.24782224  0.41884443  1.0
  Ga  Ga118  1  0.13961481  0.58115557  0.41884443  1.0
  Ga  Ga119  1  0.13961481  0.91448890  0.41884443  1.0
  Ga  Ga120  1  0.47294814  0.24782224  0.41884443  1.0
  Ga  Ga121  1  0.47294814  0.58115557  0.41884443  1.0
  Ga  Ga122  1  0.47294814  0.91448890  0.41884443  1.0
  Ga  Ga123  1  0.80628148  0.24782224  0.41884443  1.0
  Ga  Ga124  1  0.80628148  0.58115557  0.41884443  1.0
  Ga  Ga125  1  0.80628148  0.91448890  0.41884443  1.0
  Ga  Ga126  1  0.08727648  0.09162324  0.37173993  1.0
  Ga  Ga127  1  0.08727648  0.42495657  0.37173993  1.0
  Ga  Ga128  1  0.08727648  0.75828990  0.37173993  1.0
  Ga  Ga129  1  0.42060981  0.09162324  0.37173993  1.0
  Ga  Ga130  1  0.42060981  0.42495657  0.37173993  1.0
  Ga  Ga131  1  0.42060981  0.75828990  0.37173993  1.0
  Ga  Ga132  1  0.75394314  0.09162324  0.37173993  1.0
  Ga  Ga133  1  0.75394314  0.42495657  0.37173993  1.0
  Ga  Ga134  1  0.75394314  0.75828990  0.37173993  1.0
  Ga  Ga135  1  0.23013362  0.32971848  0.30031136  1.0
  Ga  Ga136  1  0.23013362  0.66305181  0.30031136  1.0
  Ga  Ga137  1  0.23013362  0.99638514  0.30031136  1.0
  Ga  Ga138  1  0.56346695  0.32971848  0.30031136  1.0
  Ga  Ga139  1  0.56346695  0.66305181  0.30031136  1.0
  Ga  Ga140  1  0.56346695  0.99638514  0.30031136  1.0
  Ga  Ga141  1  0.89680029  0.32971848  0.30031136  1.0
  Ga  Ga142  1  0.89680029  0.66305181  0.30031136  1.0
  Ga  Ga143  1  0.89680029  0.99638514  0.30031136  1.0
  Ga  Ga144  1  0.14433410  0.21354505  0.32309179  1.0
  Ga  Ga145  1  0.14433410  0.54687838  0.32309179  1.0
  Ga  Ga146  1  0.14433410  0.88021171  0.32309179  1.0
  Ga  Ga147  1  0.47766743  0.21354505  0.32309179  1.0
  Ga  Ga148  1  0.47766743  0.54687838  0.32309179  1.0
  Ga  Ga149  1  0.47766743  0.88021171  0.32309179  1.0
  Ga  Ga150  1  0.81100076  0.21354505  0.32309179  1.0
  Ga  Ga151  1  0.81100076  0.54687838  0.32309179  1.0
  Ga  Ga152  1  0.81100076  0.88021171  0.32309179  1.0
  Ga  Ga153  1  0.00147695  0.30878314  0.39452036  1.0
  Ga  Ga154  1  0.00147695  0.64211648  0.39452036  1.0
  Ga  Ga155  1  0.00147695  0.97544981  0.39452036  1.0
  Ga  Ga156  1  0.33481029  0.30878314  0.39452036  1.0
  Ga  Ga157  1  0.33481029  0.64211648  0.39452036  1.0
  Ga  Ga158  1  0.33481029  0.97544981  0.39452036  1.0
  Ga  Ga159  1  0.66814362  0.30878314  0.39452036  1.0
  Ga  Ga160  1  0.66814362  0.64211648  0.39452036  1.0
  Ga  Ga161  1  0.66814362  0.97544981  0.39452036  1.0
  Ni  Ni162  1  0.25866243  0.22401271  0.02598729  1.0
  Ni  Ni163  1  0.25866243  0.55734605  0.02598729  1.0
  Ni  Ni164  1  0.25866243  0.89067938  0.02598729  1.0
  Ni  Ni165  1  0.59199576  0.22401271  0.02598729  1.0
  Ni  Ni166  1  0.59199576  0.55734605  0.02598729  1.0
  Ni  Ni167  1  0.59199576  0.89067938  0.02598729  1.0
  Ni  Ni168  1  0.92532910  0.22401271  0.02598729  1.0
  Ni  Ni169  1  0.92532910  0.55734605  0.02598729  1.0
  Ni  Ni170  1  0.92532910  0.89067938  0.02598729  1.0
  Ni  Ni171  1  0.11580529  0.31925081  0.09741586  1.0
  Ni  Ni172  1  0.11580529  0.65258414  0.09741586  1.0
  Ni  Ni173  1  0.11580529  0.98591748  0.09741586  1.0
  Ni  Ni174  1  0.44913862  0.31925081  0.09741586  1.0
  Ni  Ni175  1  0.44913862  0.65258414  0.09741586  1.0
  Ni  Ni176  1  0.44913862  0.98591748  0.09741586  1.0
  Ni  Ni177  1  0.78247195  0.31925081  0.09741586  1.0
  Ni  Ni178  1  0.78247195  0.65258414  0.09741586  1.0
  Ni  Ni179  1  0.78247195  0.98591748  0.09741586  1.0
  Ni  Ni180  1  0.21104338  0.03353652  0.13313014  1.0
  Ni  Ni181  1  0.21104338  0.36686986  0.13313014  1.0
  Ni  Ni182  1  0.21104338  0.70020319  0.13313014  1.0
  Ni  Ni183  1  0.54437671  0.03353652  0.13313014  1.0
  Ni  Ni184  1  0.54437671  0.36686986  0.13313014  1.0
  Ni  Ni185  1  0.54437671  0.70020319  0.13313014  1.0
  Ni  Ni186  1  0.87771005  0.03353652  0.13313014  1.0
  Ni  Ni187  1  0.87771005  0.36686986  0.13313014  1.0
  Ni  Ni188  1  0.87771005  0.70020319  0.13313014  1.0
  Ni  Ni189  1  0.02056719  0.27163176  0.06170157  1.0
  Ni  Ni190  1  0.02056719  0.60496510  0.06170157  1.0
  Ni  Ni191  1  0.02056719  0.93829843  0.06170157  1.0
  Ni  Ni192  1  0.35390052  0.27163176  0.06170157  1.0
  Ni  Ni193  1  0.35390052  0.60496510  0.06170157  1.0
  Ni  Ni194  1  0.35390052  0.93829843  0.06170157  1.0
  Ni  Ni195  1  0.68723386  0.27163176  0.06170157  1.0
  Ni  Ni196  1  0.68723386  0.60496510  0.06170157  1.0
  Ni  Ni197  1  0.68723386  0.93829843  0.06170157  1.0
  Ni  Ni198  1  0.28247195  0.15258414  0.09741586  1.0
  Ni  Ni199  1  0.28247195  0.48591748  0.09741586  1.0
  Ni  Ni200  1  0.28247195  0.81925081  0.09741586  1.0
  Ni  Ni201  1  0.61580529  0.15258414  0.09741586  1.0
  Ni  Ni202  1  0.61580529  0.48591748  0.09741586  1.0
  Ni  Ni203  1  0.61580529  0.81925081  0.09741586  1.0
  Ni  Ni204  1  0.94913862  0.15258414  0.09741586  1.0
  Ni  Ni205  1  0.94913862  0.48591748  0.09741586  1.0
  Ni  Ni206  1  0.94913862  0.81925081  0.09741586  1.0
  Ni  Ni207  1  0.09199576  0.05734605  0.02598729  1.0
  Ni  Ni208  1  0.09199576  0.39067938  0.02598729  1.0
  Ni  Ni209  1  0.09199576  0.72401271  0.02598729  1.0
  Ni  Ni210  1  0.42532910  0.05734605  0.02598729  1.0
  Ni  Ni211  1  0.42532910  0.39067938  0.02598729  1.0
  Ni  Ni212  1  0.42532910  0.72401271  0.02598729  1.0
  Ni  Ni213  1  0.75866243  0.05734605  0.02598729  1.0
  Ni  Ni214  1  0.75866243  0.39067938  0.02598729  1.0
  Ni  Ni215  1  0.75866243  0.72401271  0.02598729  1.0
  Ni  Ni216  1  0.08328471  0.09838319  0.11367614  1.0
  Ni  Ni217  1  0.08328471  0.43171652  0.11367614  1.0
  Ni  Ni218  1  0.08328471  0.76504986  0.11367614  1.0
  Ni  Ni219  1  0.41661805  0.09838319  0.11367614  1.0
  Ni  Ni220  1  0.41661805  0.43171652  0.11367614  1.0
  Ni  Ni221  1  0.41661805  0.76504986  0.11367614  1.0
  Ni  Ni222  1  0.74995138  0.09838319  0.11367614  1.0
  Ni  Ni223  1  0.74995138  0.43171652  0.11367614  1.0
  Ni  Ni224  1  0.74995138  0.76504986  0.11367614  1.0
  Ni  Ni225  1  0.22614186  0.00314510  0.04224757  1.0
  Ni  Ni226  1  0.22614186  0.33647843  0.04224757  1.0
  Ni  Ni227  1  0.22614186  0.66981176  0.04224757  1.0
  Ni  Ni228  1  0.55947519  0.00314510  0.04224757  1.0
  Ni  Ni229  1  0.55947519  0.33647843  0.04224757  1.0
  Ni  Ni230  1  0.55947519  0.66981176  0.04224757  1.0
  Ni  Ni231  1  0.89280852  0.00314510  0.04224757  1.0
  Ni  Ni232  1  0.89280852  0.33647843  0.04224757  1.0
  Ni  Ni233  1  0.89280852  0.66981176  0.04224757  1.0
  Ni  Ni234  1  0.29118300  0.11154700  0.00972700  1.0
  Ni  Ni235  1  0.29118300  0.44488033  0.00972700  1.0
  Ni  Ni236  1  0.29118300  0.77821367  0.00972700  1.0
  Ni  Ni237  1  0.62451633  0.11154700  0.00972700  1.0
  Ni  Ni238  1  0.62451633  0.44488033  0.00972700  1.0
  Ni  Ni239  1  0.62451633  0.77821367  0.00972700  1.0
  Ni  Ni240  1  0.95784967  0.11154700  0.00972700  1.0
  Ni  Ni241  1  0.95784967  0.44488033  0.00972700  1.0
  Ni  Ni242  1  0.95784967  0.77821367  0.00972700  1.0
  Ni  Ni243  1  0.14832586  0.20678510  0.08115557  1.0
  Ni  Ni244  1  0.14832586  0.54011843  0.08115557  1.0
  Ni  Ni245  1  0.14832586  0.87345176  0.08115557  1.0
  Ni  Ni246  1  0.48165919  0.20678510  0.08115557  1.0
  Ni  Ni247  1  0.48165919  0.54011843  0.08115557  1.0
  Ni  Ni248  1  0.48165919  0.87345176  0.08115557  1.0
  Ni  Ni249  1  0.81499252  0.20678510  0.08115557  1.0
  Ni  Ni250  1  0.81499252  0.54011843  0.08115557  1.0
  Ni  Ni251  1  0.81499252  0.87345176  0.08115557  1.0
  Ni  Ni252  1  0.30628148  0.08115557  0.16884443  1.0
  Ni  Ni253  1  0.30628148  0.41448890  0.16884443  1.0
  Ni  Ni254  1  0.30628148  0.74782224  0.16884443  1.0
  Ni  Ni255  1  0.63961481  0.08115557  0.16884443  1.0
  Ni  Ni256  1  0.63961481  0.41448890  0.16884443  1.0
  Ni  Ni257  1  0.63961481  0.74782224  0.16884443  1.0
  Ni  Ni258  1  0.97294814  0.08115557  0.16884443  1.0
  Ni  Ni259  1  0.97294814  0.41448890  0.16884443  1.0
  Ni  Ni260  1  0.97294814  0.74782224  0.16884443  1.0
  Ni  Ni261  1  0.16342433  0.17639367  0.24027300  1.0
  Ni  Ni262  1  0.16342433  0.50972700  0.24027300  1.0
  Ni  Ni263  1  0.16342433  0.84306033  0.24027300  1.0
  Ni  Ni264  1  0.49675767  0.17639367  0.24027300  1.0
  Ni  Ni265  1  0.49675767  0.50972700  0.24027300  1.0
  Ni  Ni266  1  0.49675767  0.84306033  0.24027300  1.0
  Ni  Ni267  1  0.83009100  0.17639367  0.24027300  1.0
  Ni  Ni268  1  0.83009100  0.50972700  0.24027300  1.0
  Ni  Ni269  1  0.83009100  0.84306033  0.24027300  1.0
  Ni  Ni270  1  0.25866243  0.22401271  0.27598729  1.0
  Ni  Ni271  1  0.25866243  0.55734605  0.27598729  1.0
  Ni  Ni272  1  0.25866243  0.89067938  0.27598729  1.0
  Ni  Ni273  1  0.59199576  0.22401271  0.27598729  1.0
  Ni  Ni274  1  0.59199576  0.55734605  0.27598729  1.0
  Ni  Ni275  1  0.59199576  0.89067938  0.27598729  1.0
  Ni  Ni276  1  0.92532910  0.22401271  0.27598729  1.0
  Ni  Ni277  1  0.92532910  0.55734605  0.27598729  1.0
  Ni  Ni278  1  0.92532910  0.89067938  0.27598729  1.0
  Ni  Ni279  1  0.06818624  0.12877462  0.20455871  1.0
  Ni  Ni280  1  0.06818624  0.46210795  0.20455871  1.0
  Ni  Ni281  1  0.06818624  0.79544129  0.20455871  1.0
  Ni  Ni282  1  0.40151957  0.12877462  0.20455871  1.0
  Ni  Ni283  1  0.40151957  0.46210795  0.20455871  1.0
  Ni  Ni284  1  0.40151957  0.79544129  0.20455871  1.0
  Ni  Ni285  1  0.73485290  0.12877462  0.20455871  1.0
  Ni  Ni286  1  0.73485290  0.46210795  0.20455871  1.0
  Ni  Ni287  1  0.73485290  0.79544129  0.20455871  1.0
  Ni  Ni288  1  0.33009100  0.00972700  0.24027300  1.0
  Ni  Ni289  1  0.33009100  0.34306033  0.24027300  1.0
  Ni  Ni290  1  0.33009100  0.67639367  0.24027300  1.0
  Ni  Ni291  1  0.66342433  0.00972700  0.24027300  1.0
  Ni  Ni292  1  0.66342433  0.34306033  0.24027300  1.0
  Ni  Ni293  1  0.66342433  0.67639367  0.24027300  1.0
  Ni  Ni294  1  0.99675767  0.00972700  0.24027300  1.0
  Ni  Ni295  1  0.99675767  0.34306033  0.24027300  1.0
  Ni  Ni296  1  0.99675767  0.67639367  0.24027300  1.0
  Ni  Ni297  1  0.13961481  0.24782224  0.16884443  1.0
  Ni  Ni298  1  0.13961481  0.58115557  0.16884443  1.0
  Ni  Ni299  1  0.13961481  0.91448890  0.16884443  1.0
  Ni  Ni300  1  0.47294814  0.24782224  0.16884443  1.0
  Ni  Ni301  1  0.47294814  0.58115557  0.16884443  1.0
  Ni  Ni302  1  0.47294814  0.91448890  0.16884443  1.0
  Ni  Ni303  1  0.80628148  0.24782224  0.16884443  1.0
  Ni  Ni304  1  0.80628148  0.58115557  0.16884443  1.0
  Ni  Ni305  1  0.80628148  0.91448890  0.16884443  1.0
  Ni  Ni306  1  0.13090376  0.28885938  0.25653329  1.0
  Ni  Ni307  1  0.13090376  0.62219271  0.25653329  1.0
  Ni  Ni308  1  0.13090376  0.95552605  0.25653329  1.0
  Ni  Ni309  1  0.46423710  0.28885938  0.25653329  1.0
  Ni  Ni310  1  0.46423710  0.62219271  0.25653329  1.0
  Ni  Ni311  1  0.46423710  0.95552605  0.25653329  1.0
  Ni  Ni312  1  0.79757043  0.28885938  0.25653329  1.0
  Ni  Ni313  1  0.79757043  0.62219271  0.25653329  1.0
  Ni  Ni314  1  0.79757043  0.95552605  0.25653329  1.0
  Ni  Ni315  1  0.27376090  0.19362129  0.18510471  1.0
  Ni  Ni316  1  0.27376090  0.52695462  0.18510471  1.0
  Ni  Ni317  1  0.27376090  0.86028795  0.18510471  1.0
  Ni  Ni318  1  0.60709424  0.19362129  0.18510471  1.0
  Ni  Ni319  1  0.60709424  0.52695462  0.18510471  1.0
  Ni  Ni320  1  0.60709424  0.86028795  0.18510471  1.0
  Ni  Ni321  1  0.94042757  0.19362129  0.18510471  1.0
  Ni  Ni322  1  0.94042757  0.52695462  0.18510471  1.0
  Ni  Ni323  1  0.94042757  0.86028795  0.18510471  1.0
  Ni  Ni324  1  0.00546871  0.30202319  0.15258414  1.0
  Ni  Ni325  1  0.00546871  0.63535652  0.15258414  1.0
  Ni  Ni326  1  0.00546871  0.96868986  0.15258414  1.0
  Ni  Ni327  1  0.33880205  0.30202319  0.15258414  1.0
  Ni  Ni328  1  0.33880205  0.63535652  0.15258414  1.0
  Ni  Ni329  1  0.33880205  0.96868986  0.15258414  1.0
  Ni  Ni330  1  0.67213538  0.30202319  0.15258414  1.0
  Ni  Ni331  1  0.67213538  0.63535652  0.15258414  1.0
  Ni  Ni332  1  0.67213538  0.96868986  0.15258414  1.0
  Ni  Ni333  1  0.19594490  0.06392795  0.22401271  1.0
  Ni  Ni334  1  0.19594490  0.39726129  0.22401271  1.0
  Ni  Ni335  1  0.19594490  0.73059462  0.22401271  1.0
  Ni  Ni336  1  0.52927824  0.06392795  0.22401271  1.0
  Ni  Ni337  1  0.52927824  0.39726129  0.22401271  1.0
  Ni  Ni338  1  0.52927824  0.73059462  0.22401271  1.0
  Ni  Ni339  1  0.86261157  0.06392795  0.22401271  1.0
  Ni  Ni340  1  0.86261157  0.39726129  0.22401271  1.0
  Ni  Ni341  1  0.86261157  0.73059462  0.22401271  1.0
  Ni  Ni342  1  0.02056719  0.27163176  0.31170157  1.0
  Ni  Ni343  1  0.02056719  0.60496510  0.31170157  1.0
  Ni  Ni344  1  0.02056719  0.93829843  0.31170157  1.0
  Ni  Ni345  1  0.35390052  0.27163176  0.31170157  1.0
  Ni  Ni346  1  0.35390052  0.60496510  0.31170157  1.0
  Ni  Ni347  1  0.35390052  0.93829843  0.31170157  1.0
  Ni  Ni348  1  0.68723386  0.27163176  0.31170157  1.0
  Ni  Ni349  1  0.68723386  0.60496510  0.31170157  1.0
  Ni  Ni350  1  0.68723386  0.93829843  0.31170157  1.0
  Ni  Ni351  1  0.21104338  0.03353652  0.38313014  1.0
  Ni  Ni352  1  0.21104338  0.36686986  0.38313014  1.0
  Ni  Ni353  1  0.21104338  0.70020319  0.38313014  1.0
  Ni  Ni354  1  0.54437671  0.03353652  0.38313014  1.0
  Ni  Ni355  1  0.54437671  0.36686986  0.38313014  1.0
  Ni  Ni356  1  0.54437671  0.70020319  0.38313014  1.0
  Ni  Ni357  1  0.87771005  0.03353652  0.38313014  1.0
  Ni  Ni358  1  0.87771005  0.36686986  0.38313014  1.0
  Ni  Ni359  1  0.87771005  0.70020319  0.38313014  1.0
  Ni  Ni360  1  0.30628148  0.08115557  0.41884443  1.0
  Ni  Ni361  1  0.30628148  0.41448890  0.41884443  1.0
  Ni  Ni362  1  0.30628148  0.74782224  0.41884443  1.0
  Ni  Ni363  1  0.63961481  0.08115557  0.41884443  1.0
  Ni  Ni364  1  0.63961481  0.41448890  0.41884443  1.0
  Ni  Ni365  1  0.63961481  0.74782224  0.41884443  1.0
  Ni  Ni366  1  0.97294814  0.08115557  0.41884443  1.0
  Ni  Ni367  1  0.97294814  0.41448890  0.41884443  1.0
  Ni  Ni368  1  0.97294814  0.74782224  0.41884443  1.0
  Ni  Ni369  1  0.11580529  0.31925081  0.34741586  1.0
  Ni  Ni370  1  0.11580529  0.65258414  0.34741586  1.0
  Ni  Ni371  1  0.11580529  0.98591748  0.34741586  1.0
  Ni  Ni372  1  0.44913862  0.31925081  0.34741586  1.0
  Ni  Ni373  1  0.44913862  0.65258414  0.34741586  1.0
  Ni  Ni374  1  0.44913862  0.98591748  0.34741586  1.0
  Ni  Ni375  1  0.78247195  0.31925081  0.34741586  1.0
  Ni  Ni376  1  0.78247195  0.65258414  0.34741586  1.0
  Ni  Ni377  1  0.78247195  0.98591748  0.34741586  1.0
  Ni  Ni378  1  0.04437671  0.20020319  0.38313014  1.0
  Ni  Ni379  1  0.04437671  0.53353652  0.38313014  1.0
  Ni  Ni380  1  0.04437671  0.86686986  0.38313014  1.0
  Ni  Ni381  1  0.37771005  0.20020319  0.38313014  1.0
  Ni  Ni382  1  0.37771005  0.53353652  0.38313014  1.0
  Ni  Ni383  1  0.37771005  0.86686986  0.38313014  1.0
  Ni  Ni384  1  0.71104338  0.20020319  0.38313014  1.0
  Ni  Ni385  1  0.71104338  0.53353652  0.38313014  1.0
  Ni  Ni386  1  0.71104338  0.86686986  0.38313014  1.0
  Ni  Ni387  1  0.18723386  0.10496510  0.31170157  1.0
  Ni  Ni388  1  0.18723386  0.43829843  0.31170157  1.0
  Ni  Ni389  1  0.18723386  0.77163176  0.31170157  1.0
  Ni  Ni390  1  0.52056719  0.10496510  0.31170157  1.0
  Ni  Ni391  1  0.52056719  0.43829843  0.31170157  1.0
  Ni  Ni392  1  0.52056719  0.77163176  0.31170157  1.0
  Ni  Ni393  1  0.85390052  0.10496510  0.31170157  1.0
  Ni  Ni394  1  0.85390052  0.43829843  0.31170157  1.0
  Ni  Ni395  1  0.85390052  0.77163176  0.31170157  1.0
  Ni  Ni396  1  0.17852281  0.14600224  0.39939043  1.0
  Ni  Ni397  1  0.17852281  0.47933557  0.39939043  1.0
  Ni  Ni398  1  0.17852281  0.81266890  0.39939043  1.0
  Ni  Ni399  1  0.51185614  0.14600224  0.39939043  1.0
  Ni  Ni400  1  0.51185614  0.47933557  0.39939043  1.0
  Ni  Ni401  1  0.51185614  0.81266890  0.39939043  1.0
  Ni  Ni402  1  0.84518948  0.14600224  0.39939043  1.0
  Ni  Ni403  1  0.84518948  0.47933557  0.39939043  1.0
  Ni  Ni404  1  0.84518948  0.81266890  0.39939043  1.0
  Ni  Ni405  1  0.32137995  0.05076414  0.32796186  1.0
  Ni  Ni406  1  0.32137995  0.38409748  0.32796186  1.0
  Ni  Ni407  1  0.32137995  0.71743081  0.32796186  1.0
  Ni  Ni408  1  0.65471329  0.05076414  0.32796186  1.0
  Ni  Ni409  1  0.65471329  0.38409748  0.32796186  1.0
  Ni  Ni410  1  0.65471329  0.71743081  0.32796186  1.0
  Ni  Ni411  1  0.98804662  0.05076414  0.32796186  1.0
  Ni  Ni412  1  0.98804662  0.38409748  0.32796186  1.0
  Ni  Ni413  1  0.98804662  0.71743081  0.32796186  1.0
  Ni  Ni414  1  0.05308776  0.15916605  0.29544129  1.0
  Ni  Ni415  1  0.05308776  0.49249938  0.29544129  1.0
  Ni  Ni416  1  0.05308776  0.82583271  0.29544129  1.0
  Ni  Ni417  1  0.38642110  0.15916605  0.29544129  1.0
  Ni  Ni418  1  0.38642110  0.49249938  0.29544129  1.0
  Ni  Ni419  1  0.38642110  0.82583271  0.29544129  1.0
  Ni  Ni420  1  0.71975443  0.15916605  0.29544129  1.0
  Ni  Ni421  1  0.71975443  0.49249938  0.29544129  1.0
  Ni  Ni422  1  0.71975443  0.82583271  0.29544129  1.0
  Ni  Ni423  1  0.24356395  0.25440414  0.36686986  1.0
  Ni  Ni424  1  0.24356395  0.58773748  0.36686986  1.0
  Ni  Ni425  1  0.24356395  0.92107081  0.36686986  1.0
  Ni  Ni426  1  0.57689729  0.25440414  0.36686986  1.0
  Ni  Ni427  1  0.57689729  0.58773748  0.36686986  1.0
  Ni  Ni428  1  0.57689729  0.92107081  0.36686986  1.0
  Ni  Ni429  1  0.91023062  0.25440414  0.36686986  1.0
  Ni  Ni430  1  0.91023062  0.58773748  0.36686986  1.0
  Ni  Ni431  1  0.91023062  0.92107081  0.36686986  1.0
