# generated using pymatgen
data_Ga3Ni2
_symmetry_space_group_name_H-M   'P 1'
_cell_length_a   19.08757236
_cell_length_b   25.79332722
_cell_length_c   25.99696846
_cell_angle_alpha   96.78274580
_cell_angle_beta   90.45666656
_cell_angle_gamma   91.38093504
_symmetry_Int_Tables_number   1
_chemical_formula_structural   Ga3Ni2
_chemical_formula_sum   'Ga216 Ni144'
_cell_volume   12705.11425584
_cell_formula_units_Z   72
loop_
 _symmetry_equiv_pos_site_id
 _symmetry_equiv_pos_as_xyz
  1  'x, y, z'
loop_
 _atom_site_type_symbol
 _atom_site_label
 _atom_site_symmetry_multiplicity
 _atom_site_fract_x
 _atom_site_fract_y
 _atom_site_fract_z
 _atom_site_occupancy
  Ga  Ga0  1  0.27402153  0.08896771  0.91103229  1.0
  Ga  Ga1  1  0.27402153  0.42230104  0.91103229  1.0
  Ga  Ga2  1  0.27402153  0.75563437  0.91103229  1.0
  Ga  Ga3  1  0.60735486  0.08896771  0.91103229  1.0
  Ga  Ga4  1  0.60735486  0.42230104  0.91103229  1.0
  Ga  Ga5  1  0.60735486  0.75563437  0.91103229  1.0
  Ga  Ga6  1  0.94068819  0.08896771  0.91103229  1.0
  Ga  Ga7  1  0.94068819  0.42230104  0.91103229  1.0
  Ga  Ga8  1  0.94068819  0.75563437  0.91103229  1.0
  Ga  Ga9  1  0.14068819  0.20563437  0.96103229  1.0
  Ga  Ga10  1  0.14068819  0.53896771  0.96103229  1.0
  Ga  Ga11  1  0.14068819  0.87230104  0.96103229  1.0
  Ga  Ga12  1  0.47402153  0.20563437  0.96103229  1.0
  Ga  Ga13  1  0.47402153  0.53896771  0.96103229  1.0
  Ga  Ga14  1  0.47402153  0.87230104  0.96103229  1.0
  Ga  Ga15  1  0.80735486  0.20563437  0.96103229  1.0
  Ga  Ga16  1  0.80735486  0.53896771  0.96103229  1.0
  Ga  Ga17  1  0.80735486  0.87230104  0.96103229  1.0
  Ga  Ga18  1  0.26833939  0.30787535  0.90961176  1.0
  Ga  Ga19  1  0.26833939  0.64120869  0.90961176  1.0
  Ga  Ga20  1  0.26833939  0.97454202  0.90961176  1.0
  Ga  Ga21  1  0.60167273  0.30787535  0.90961176  1.0
  Ga  Ga22  1  0.60167273  0.64120869  0.90961176  1.0
  Ga  Ga23  1  0.60167273  0.97454202  0.90961176  1.0
  Ga  Ga24  1  0.93500606  0.30787535  0.90961176  1.0
  Ga  Ga25  1  0.93500606  0.64120869  0.90961176  1.0
  Ga  Ga26  1  0.93500606  0.97454202  0.90961176  1.0
  Ga  Ga27  1  0.13500606  0.09120869  0.95961176  1.0
  Ga  Ga28  1  0.13500606  0.42454202  0.95961176  1.0
  Ga  Ga29  1  0.13500606  0.75787535  0.95961176  1.0
  Ga  Ga30  1  0.46833939  0.09120869  0.95961176  1.0
  Ga  Ga31  1  0.46833939  0.42454202  0.95961176  1.0
  Ga  Ga32  1  0.46833939  0.75787535  0.95961176  1.0
  Ga  Ga33  1  0.80167273  0.09120869  0.95961176  1.0
  Ga  Ga34  1  0.80167273  0.42454202  0.95961176  1.0
  Ga  Ga35  1  0.80167273  0.75787535  0.95961176  1.0
  Ga  Ga36  1  0.27970366  0.20339340  0.91245283  1.0
  Ga  Ga37  1  0.27970366  0.53672673  0.91245283  1.0
  Ga  Ga38  1  0.27970366  0.87006006  0.91245282  1.0
  Ga  Ga39  1  0.61303699  0.20339340  0.91245283  1.0
  Ga  Ga40  1  0.61303699  0.53672673  0.91245283  1.0
  Ga  Ga41  1  0.61303699  0.87006006  0.91245282  1.0
  Ga  Ga42  1  0.94637033  0.20339340  0.91245283  1.0
  Ga  Ga43  1  0.94637033  0.53672673  0.91245283  1.0
  Ga  Ga44  1  0.94637033  0.87006006  0.91245283  1.0
  Ga  Ga45  1  0.14637033  0.32006006  0.96245283  1.0
  Ga  Ga46  1  0.14637033  0.65339340  0.96245283  1.0
  Ga  Ga47  1  0.14637033  0.98672673  0.96245282  1.0
  Ga  Ga48  1  0.47970366  0.32006006  0.96245283  1.0
  Ga  Ga49  1  0.47970366  0.65339340  0.96245283  1.0
  Ga  Ga50  1  0.47970366  0.98672673  0.96245282  1.0
  Ga  Ga51  1  0.81303699  0.32006006  0.96245283  1.0
  Ga  Ga52  1  0.81303699  0.65339340  0.96245282  1.0
  Ga  Ga53  1  0.81303699  0.98672673  0.96245283  1.0
  Ga  Ga54  1  0.20735486  0.18896771  0.81103229  1.0
  Ga  Ga55  1  0.20735486  0.52230104  0.81103229  1.0
  Ga  Ga56  1  0.20735486  0.85563437  0.81103229  1.0
  Ga  Ga57  1  0.54068819  0.18896771  0.81103229  1.0
  Ga  Ga58  1  0.54068819  0.52230104  0.81103229  1.0
  Ga  Ga59  1  0.54068819  0.85563437  0.81103229  1.0
  Ga  Ga60  1  0.87402153  0.18896771  0.81103229  1.0
  Ga  Ga61  1  0.87402153  0.52230104  0.81103229  1.0
  Ga  Ga62  1  0.87402153  0.85563437  0.81103229  1.0
  Ga  Ga63  1  0.07402153  0.30563437  0.86103229  1.0
  Ga  Ga64  1  0.07402153  0.63896771  0.86103229  1.0
  Ga  Ga65  1  0.07402153  0.97230104  0.86103229  1.0
  Ga  Ga66  1  0.40735486  0.30563437  0.86103229  1.0
  Ga  Ga67  1  0.40735486  0.63896771  0.86103229  1.0
  Ga  Ga68  1  0.40735486  0.97230104  0.86103229  1.0
  Ga  Ga69  1  0.74068819  0.30563437  0.86103229  1.0
  Ga  Ga70  1  0.74068819  0.63896771  0.86103229  1.0
  Ga  Ga71  1  0.74068819  0.97230104  0.86103229  1.0
  Ga  Ga72  1  0.20167273  0.07454202  0.80961176  1.0
  Ga  Ga73  1  0.20167273  0.40787535  0.80961176  1.0
  Ga  Ga74  1  0.20167273  0.74120869  0.80961176  1.0
  Ga  Ga75  1  0.53500606  0.07454202  0.80961176  1.0
  Ga  Ga76  1  0.53500606  0.40787535  0.80961176  1.0
  Ga  Ga77  1  0.53500606  0.74120869  0.80961176  1.0
  Ga  Ga78  1  0.86833939  0.07454202  0.80961176  1.0
  Ga  Ga79  1  0.86833939  0.40787535  0.80961176  1.0
  Ga  Ga80  1  0.86833939  0.74120869  0.80961176  1.0
  Ga  Ga81  1  0.06833939  0.19120869  0.85961176  1.0
  Ga  Ga82  1  0.06833939  0.52454202  0.85961176  1.0
  Ga  Ga83  1  0.06833939  0.85787535  0.85961176  1.0
  Ga  Ga84  1  0.40167273  0.19120869  0.85961176  1.0
  Ga  Ga85  1  0.40167273  0.52454202  0.85961176  1.0
  Ga  Ga86  1  0.40167273  0.85787535  0.85961176  1.0
  Ga  Ga87  1  0.73500606  0.19120869  0.85961176  1.0
  Ga  Ga88  1  0.73500606  0.52454202  0.85961176  1.0
  Ga  Ga89  1  0.73500606  0.85787535  0.85961176  1.0
  Ga  Ga90  1  0.21303699  0.30339340  0.81245282  1.0
  Ga  Ga91  1  0.21303699  0.63672673  0.81245282  1.0
  Ga  Ga92  1  0.21303699  0.97006006  0.81245282  1.0
  Ga  Ga93  1  0.54637033  0.30339340  0.81245282  1.0
  Ga  Ga94  1  0.54637033  0.63672673  0.81245282  1.0
  Ga  Ga95  1  0.54637033  0.97006006  0.81245282  1.0
  Ga  Ga96  1  0.87970366  0.30339340  0.81245282  1.0
  Ga  Ga97  1  0.87970366  0.63672673  0.81245282  1.0
  Ga  Ga98  1  0.87970366  0.97006006  0.81245282  1.0
  Ga  Ga99  1  0.07970366  0.08672673  0.86245282  1.0
  Ga  Ga100  1  0.07970366  0.42006006  0.86245282  1.0
  Ga  Ga101  1  0.07970366  0.75339340  0.86245282  1.0
  Ga  Ga102  1  0.41303699  0.08672673  0.86245282  1.0
  Ga  Ga103  1  0.41303699  0.42006006  0.86245282  1.0
  Ga  Ga104  1  0.41303699  0.75339340  0.86245282  1.0
  Ga  Ga105  1  0.74637033  0.08672673  0.86245282  1.0
  Ga  Ga106  1  0.74637033  0.42006006  0.86245282  1.0
  Ga  Ga107  1  0.74637033  0.75339340  0.86245282  1.0
  Ga  Ga108  1  0.14068819  0.28896771  0.71103229  1.0
  Ga  Ga109  1  0.14068819  0.62230104  0.71103229  1.0
  Ga  Ga110  1  0.14068819  0.95563437  0.71103229  1.0
  Ga  Ga111  1  0.47402153  0.28896771  0.71103229  1.0
  Ga  Ga112  1  0.47402153  0.62230104  0.71103229  1.0
  Ga  Ga113  1  0.47402153  0.95563437  0.71103229  1.0
  Ga  Ga114  1  0.80735486  0.28896771  0.71103229  1.0
  Ga  Ga115  1  0.80735486  0.62230104  0.71103229  1.0
  Ga  Ga116  1  0.80735486  0.95563437  0.71103229  1.0
  Ga  Ga117  1  0.00735486  0.07230104  0.76103229  1.0
  Ga  Ga118  1  0.00735486  0.40563437  0.76103229  1.0
  Ga  Ga119  1  0.00735486  0.73896771  0.76103229  1.0
  Ga  Ga120  1  0.34068819  0.07230104  0.76103229  1.0
  Ga  Ga121  1  0.34068819  0.40563437  0.76103229  1.0
  Ga  Ga122  1  0.34068819  0.73896771  0.76103229  1.0
  Ga  Ga123  1  0.67402153  0.07230104  0.76103229  1.0
  Ga  Ga124  1  0.67402153  0.40563437  0.76103229  1.0
  Ga  Ga125  1  0.67402153  0.73896771  0.76103229  1.0
  Ga  Ga126  1  0.13500606  0.17454202  0.70961176  1.0
  Ga  Ga127  1  0.13500606  0.50787535  0.70961176  1.0
  Ga  Ga128  1  0.13500606  0.84120869  0.70961176  1.0
  Ga  Ga129  1  0.46833939  0.17454202  0.70961176  1.0
  Ga  Ga130  1  0.46833939  0.50787535  0.70961176  1.0
  Ga  Ga131  1  0.46833939  0.84120869  0.70961176  1.0
  Ga  Ga132  1  0.80167273  0.17454202  0.70961176  1.0
  Ga  Ga133  1  0.80167273  0.50787535  0.70961176  1.0
  Ga  Ga134  1  0.80167273  0.84120869  0.70961176  1.0
  Ga  Ga135  1  0.00167273  0.29120869  0.75961176  1.0
  Ga  Ga136  1  0.00167273  0.62454202  0.75961176  1.0
  Ga  Ga137  1  0.00167273  0.95787535  0.75961176  1.0
  Ga  Ga138  1  0.33500606  0.29120869  0.75961176  1.0
  Ga  Ga139  1  0.33500606  0.62454202  0.75961176  1.0
  Ga  Ga140  1  0.33500606  0.95787535  0.75961176  1.0
  Ga  Ga141  1  0.66833939  0.29120869  0.75961176  1.0
  Ga  Ga142  1  0.66833939  0.62454202  0.75961176  1.0
  Ga  Ga143  1  0.66833939  0.95787535  0.75961176  1.0
  Ga  Ga144  1  0.14637033  0.07006006  0.71245282  1.0
  Ga  Ga145  1  0.14637033  0.40339340  0.71245282  1.0
  Ga  Ga146  1  0.14637033  0.73672673  0.71245282  1.0
  Ga  Ga147  1  0.47970366  0.07006006  0.71245282  1.0
  Ga  Ga148  1  0.47970366  0.40339340  0.71245282  1.0
  Ga  Ga149  1  0.47970366  0.73672673  0.71245282  1.0
  Ga  Ga150  1  0.81303699  0.07006006  0.71245282  1.0
  Ga  Ga151  1  0.81303699  0.40339340  0.71245282  1.0
  Ga  Ga152  1  0.81303699  0.73672673  0.71245282  1.0
  Ga  Ga153  1  0.01303699  0.18672673  0.76245283  1.0
  Ga  Ga154  1  0.01303699  0.52006006  0.76245283  1.0
  Ga  Ga155  1  0.01303699  0.85339340  0.76245282  1.0
  Ga  Ga156  1  0.34637033  0.18672673  0.76245283  1.0
  Ga  Ga157  1  0.34637033  0.52006006  0.76245283  1.0
  Ga  Ga158  1  0.34637033  0.85339340  0.76245283  1.0
  Ga  Ga159  1  0.67970366  0.18672673  0.76245283  1.0
  Ga  Ga160  1  0.67970366  0.52006006  0.76245283  1.0
  Ga  Ga161  1  0.67970366  0.85339340  0.76245283  1.0
  Ga  Ga162  1  0.07402153  0.05563437  0.61103229  1.0
  Ga  Ga163  1  0.07402153  0.38896771  0.61103229  1.0
  Ga  Ga164  1  0.07402153  0.72230104  0.61103229  1.0
  Ga  Ga165  1  0.40735486  0.05563437  0.61103229  1.0
  Ga  Ga166  1  0.40735486  0.38896771  0.61103229  1.0
  Ga  Ga167  1  0.40735486  0.72230104  0.61103229  1.0
  Ga  Ga168  1  0.74068819  0.05563437  0.61103229  1.0
  Ga  Ga169  1  0.74068819  0.38896771  0.61103229  1.0
  Ga  Ga170  1  0.74068819  0.72230104  0.61103229  1.0
  Ga  Ga171  1  0.27402153  0.17230104  0.66103229  1.0
  Ga  Ga172  1  0.27402153  0.50563437  0.66103229  1.0
  Ga  Ga173  1  0.27402153  0.83896771  0.66103229  1.0
  Ga  Ga174  1  0.60735486  0.17230104  0.66103229  1.0
  Ga  Ga175  1  0.60735486  0.50563437  0.66103229  1.0
  Ga  Ga176  1  0.60735486  0.83896771  0.66103229  1.0
  Ga  Ga177  1  0.94068819  0.17230104  0.66103229  1.0
  Ga  Ga178  1  0.94068819  0.50563437  0.66103229  1.0
  Ga  Ga179  1  0.94068819  0.83896771  0.66103229  1.0
  Ga  Ga180  1  0.06833939  0.27454202  0.60961176  1.0
  Ga  Ga181  1  0.06833939  0.60787535  0.60961176  1.0
  Ga  Ga182  1  0.06833939  0.94120869  0.60961176  1.0
  Ga  Ga183  1  0.40167273  0.27454202  0.60961176  1.0
  Ga  Ga184  1  0.40167273  0.60787535  0.60961176  1.0
  Ga  Ga185  1  0.40167273  0.94120869  0.60961176  1.0
  Ga  Ga186  1  0.73500606  0.27454202  0.60961176  1.0
  Ga  Ga187  1  0.73500606  0.60787535  0.60961176  1.0
  Ga  Ga188  1  0.73500606  0.94120869  0.60961176  1.0
  Ga  Ga189  1  0.26833939  0.05787535  0.65961176  1.0
  Ga  Ga190  1  0.26833939  0.39120869  0.65961176  1.0
  Ga  Ga191  1  0.26833939  0.72454202  0.65961176  1.0
  Ga  Ga192  1  0.60167273  0.05787535  0.65961176  1.0
  Ga  Ga193  1  0.60167273  0.39120869  0.65961176  1.0
  Ga  Ga194  1  0.60167273  0.72454202  0.65961176  1.0
  Ga  Ga195  1  0.93500606  0.05787535  0.65961176  1.0
  Ga  Ga196  1  0.93500606  0.39120869  0.65961176  1.0
  Ga  Ga197  1  0.93500606  0.72454202  0.65961176  1.0
  Ga  Ga198  1  0.07970366  0.17006006  0.61245282  1.0
  Ga  Ga199  1  0.07970366  0.50339340  0.61245282  1.0
  Ga  Ga200  1  0.07970366  0.83672673  0.61245282  1.0
  Ga  Ga201  1  0.41303699  0.17006006  0.61245282  1.0
  Ga  Ga202  1  0.41303699  0.50339340  0.61245282  1.0
  Ga  Ga203  1  0.41303699  0.83672673  0.61245282  1.0
  Ga  Ga204  1  0.74637033  0.17006006  0.61245282  1.0
  Ga  Ga205  1  0.74637033  0.50339340  0.61245282  1.0
  Ga  Ga206  1  0.74637033  0.83672673  0.61245282  1.0
  Ga  Ga207  1  0.27970366  0.28672673  0.66245282  1.0
  Ga  Ga208  1  0.27970366  0.62006006  0.66245282  1.0
  Ga  Ga209  1  0.27970366  0.95339340  0.66245282  1.0
  Ga  Ga210  1  0.61303699  0.28672673  0.66245282  1.0
  Ga  Ga211  1  0.61303699  0.62006006  0.66245282  1.0
  Ga  Ga212  1  0.61303699  0.95339340  0.66245282  1.0
  Ga  Ga213  1  0.94637033  0.28672673  0.66245282  1.0
  Ga  Ga214  1  0.94637033  0.62006006  0.66245282  1.0
  Ga  Ga215  1  0.94637033  0.95339340  0.66245282  1.0
  Ni  Ni216  1  0.23462866  0.14932187  0.98451741  1.0
  Ni  Ni217  1  0.23462866  0.48265520  0.98451741  1.0
  Ni  Ni218  1  0.23462866  0.81598854  0.98451741  1.0
  Ni  Ni219  1  0.56796199  0.14932187  0.98451741  1.0
  Ni  Ni220  1  0.56796199  0.48265520  0.98451741  1.0
  Ni  Ni221  1  0.56796199  0.81598854  0.98451741  1.0
  Ni  Ni222  1  0.90129533  0.14932187  0.98451741  1.0
  Ni  Ni223  1  0.90129533  0.48265520  0.98451741  1.0
  Ni  Ni224  1  0.90129533  0.81598854  0.98451741  1.0
  Ni  Ni225  1  0.03462866  0.03265520  0.93451741  1.0
  Ni  Ni226  1  0.03462866  0.36598854  0.93451741  1.0
  Ni  Ni227  1  0.03462866  0.69932187  0.93451741  1.0
  Ni  Ni228  1  0.36796199  0.03265520  0.93451741  1.0
  Ni  Ni229  1  0.36796199  0.36598854  0.93451741  1.0
  Ni  Ni230  1  0.36796199  0.69932187  0.93451741  1.0
  Ni  Ni231  1  0.70129533  0.03265520  0.93451741  1.0
  Ni  Ni232  1  0.70129533  0.36598854  0.93451741  1.0
  Ni  Ni233  1  0.70129533  0.69932187  0.93451741  1.0
  Ni  Ni234  1  0.04674773  0.26194688  0.93754718  1.0
  Ni  Ni235  1  0.04674773  0.59528021  0.93754718  1.0
  Ni  Ni236  1  0.04674773  0.92861355  0.93754718  1.0
  Ni  Ni237  1  0.38008106  0.26194688  0.93754718  1.0
  Ni  Ni238  1  0.38008106  0.59528021  0.93754718  1.0
  Ni  Ni239  1  0.38008106  0.92861355  0.93754718  1.0
  Ni  Ni240  1  0.71341439  0.26194688  0.93754718  1.0
  Ni  Ni241  1  0.71341439  0.59528021  0.93754718  1.0
  Ni  Ni242  1  0.71341439  0.92861355  0.93754718  1.0
  Ni  Ni243  1  0.24674773  0.04528021  0.98754717  1.0
  Ni  Ni244  1  0.24674773  0.37861355  0.98754717  1.0
  Ni  Ni245  1  0.24674773  0.71194688  0.98754717  1.0
  Ni  Ni246  1  0.58008106  0.04528021  0.98754717  1.0
  Ni  Ni247  1  0.58008106  0.37861355  0.98754717  1.0
  Ni  Ni248  1  0.58008106  0.71194688  0.98754717  1.0
  Ni  Ni249  1  0.91341439  0.04528021  0.98754717  1.0
  Ni  Ni250  1  0.91341439  0.37861355  0.98754717  1.0
  Ni  Ni251  1  0.91341439  0.71194688  0.98754717  1.0
  Ni  Ni252  1  0.16796199  0.24932187  0.88451741  1.0
  Ni  Ni253  1  0.16796199  0.58265520  0.88451741  1.0
  Ni  Ni254  1  0.16796199  0.91598854  0.88451741  1.0
  Ni  Ni255  1  0.50129533  0.24932187  0.88451741  1.0
  Ni  Ni256  1  0.50129533  0.58265520  0.88451741  1.0
  Ni  Ni257  1  0.50129533  0.91598854  0.88451741  1.0
  Ni  Ni258  1  0.83462866  0.24932187  0.88451741  1.0
  Ni  Ni259  1  0.83462866  0.58265520  0.88451741  1.0
  Ni  Ni260  1  0.83462866  0.91598854  0.88451741  1.0
  Ni  Ni261  1  0.30129533  0.13265520  0.83451741  1.0
  Ni  Ni262  1  0.30129533  0.46598854  0.83451741  1.0
  Ni  Ni263  1  0.30129533  0.79932187  0.83451741  1.0
  Ni  Ni264  1  0.63462866  0.13265520  0.83451741  1.0
  Ni  Ni265  1  0.63462866  0.46598854  0.83451741  1.0
  Ni  Ni266  1  0.63462866  0.79932187  0.83451741  1.0
  Ni  Ni267  1  0.96796199  0.13265520  0.83451741  1.0
  Ni  Ni268  1  0.96796199  0.46598854  0.83451741  1.0
  Ni  Ni269  1  0.96796199  0.79932187  0.83451741  1.0
  Ni  Ni270  1  0.31341439  0.02861355  0.83754717  1.0
  Ni  Ni271  1  0.31341439  0.36194688  0.83754717  1.0
  Ni  Ni272  1  0.31341439  0.69528021  0.83754717  1.0
  Ni  Ni273  1  0.64674773  0.02861355  0.83754718  1.0
  Ni  Ni274  1  0.64674773  0.36194688  0.83754717  1.0
  Ni  Ni275  1  0.64674773  0.69528021  0.83754717  1.0
  Ni  Ni276  1  0.98008106  0.02861355  0.83754718  1.0
  Ni  Ni277  1  0.98008106  0.36194688  0.83754717  1.0
  Ni  Ni278  1  0.98008106  0.69528021  0.83754717  1.0
  Ni  Ni279  1  0.18008106  0.14528021  0.88754718  1.0
  Ni  Ni280  1  0.18008106  0.47861355  0.88754718  1.0
  Ni  Ni281  1  0.18008106  0.81194688  0.88754718  1.0
  Ni  Ni282  1  0.51341439  0.14528021  0.88754718  1.0
  Ni  Ni283  1  0.51341439  0.47861355  0.88754718  1.0
  Ni  Ni284  1  0.51341439  0.81194688  0.88754718  1.0
  Ni  Ni285  1  0.84674773  0.14528021  0.88754718  1.0
  Ni  Ni286  1  0.84674773  0.47861355  0.88754718  1.0
  Ni  Ni287  1  0.84674773  0.81194688  0.88754718  1.0
  Ni  Ni288  1  0.10129533  0.01598854  0.78451741  1.0
  Ni  Ni289  1  0.10129533  0.34932187  0.78451741  1.0
  Ni  Ni290  1  0.10129533  0.68265520  0.78451741  1.0
  Ni  Ni291  1  0.43462866  0.01598854  0.78451741  1.0
  Ni  Ni292  1  0.43462866  0.34932187  0.78451741  1.0
  Ni  Ni293  1  0.43462866  0.68265520  0.78451741  1.0
  Ni  Ni294  1  0.76796199  0.01598854  0.78451741  1.0
  Ni  Ni295  1  0.76796199  0.34932187  0.78451741  1.0
  Ni  Ni296  1  0.76796199  0.68265520  0.78451741  1.0
  Ni  Ni297  1  0.23462866  0.23265520  0.73451741  1.0
  Ni  Ni298  1  0.23462866  0.56598854  0.73451741  1.0
  Ni  Ni299  1  0.23462866  0.89932187  0.73451741  1.0
  Ni  Ni300  1  0.56796199  0.23265520  0.73451741  1.0
  Ni  Ni301  1  0.56796199  0.56598854  0.73451741  1.0
  Ni  Ni302  1  0.56796199  0.89932187  0.73451741  1.0
  Ni  Ni303  1  0.90129533  0.23265520  0.73451741  1.0
  Ni  Ni304  1  0.90129533  0.56598854  0.73451741  1.0
  Ni  Ni305  1  0.90129533  0.89932187  0.73451741  1.0
  Ni  Ni306  1  0.24674773  0.12861355  0.73754717  1.0
  Ni  Ni307  1  0.24674773  0.46194688  0.73754717  1.0
  Ni  Ni308  1  0.24674773  0.79528021  0.73754717  1.0
  Ni  Ni309  1  0.58008106  0.12861355  0.73754717  1.0
  Ni  Ni310  1  0.58008106  0.46194688  0.73754717  1.0
  Ni  Ni311  1  0.58008106  0.79528021  0.73754717  1.0
  Ni  Ni312  1  0.91341439  0.12861355  0.73754717  1.0
  Ni  Ni313  1  0.91341439  0.46194688  0.73754717  1.0
  Ni  Ni314  1  0.91341439  0.79528021  0.73754717  1.0
  Ni  Ni315  1  0.11341439  0.24528021  0.78754717  1.0
  Ni  Ni316  1  0.11341439  0.57861355  0.78754717  1.0
  Ni  Ni317  1  0.11341439  0.91194688  0.78754717  1.0
  Ni  Ni318  1  0.44674773  0.24528021  0.78754717  1.0
  Ni  Ni319  1  0.44674773  0.57861355  0.78754717  1.0
  Ni  Ni320  1  0.44674773  0.91194688  0.78754717  1.0
  Ni  Ni321  1  0.78008106  0.24528021  0.78754717  1.0
  Ni  Ni322  1  0.78008106  0.57861355  0.78754717  1.0
  Ni  Ni323  1  0.78008106  0.91194688  0.78754717  1.0
  Ni  Ni324  1  0.03462866  0.11598854  0.68451741  1.0
  Ni  Ni325  1  0.03462866  0.44932187  0.68451741  1.0
  Ni  Ni326  1  0.03462866  0.78265520  0.68451741  1.0
  Ni  Ni327  1  0.36796199  0.11598854  0.68451741  1.0
  Ni  Ni328  1  0.36796199  0.44932187  0.68451741  1.0
  Ni  Ni329  1  0.36796199  0.78265520  0.68451741  1.0
  Ni  Ni330  1  0.70129533  0.11598854  0.68451741  1.0
  Ni  Ni331  1  0.70129533  0.44932187  0.68451741  1.0
  Ni  Ni332  1  0.70129533  0.78265520  0.68451741  1.0
  Ni  Ni333  1  0.16796199  0.33265520  0.63451741  1.0
  Ni  Ni334  1  0.16796199  0.66598854  0.63451741  1.0
  Ni  Ni335  1  0.16796199  0.99932187  0.63451741  1.0
  Ni  Ni336  1  0.50129533  0.33265520  0.63451741  1.0
  Ni  Ni337  1  0.50129533  0.66598854  0.63451741  1.0
  Ni  Ni338  1  0.50129533  0.99932187  0.63451741  1.0
  Ni  Ni339  1  0.83462866  0.33265520  0.63451741  1.0
  Ni  Ni340  1  0.83462866  0.66598854  0.63451741  1.0
  Ni  Ni341  1  0.83462866  0.99932187  0.63451741  1.0
  Ni  Ni342  1  0.18008106  0.22861355  0.63754717  1.0
  Ni  Ni343  1  0.18008106  0.56194688  0.63754717  1.0
  Ni  Ni344  1  0.18008106  0.89528021  0.63754717  1.0
  Ni  Ni345  1  0.51341439  0.22861355  0.63754717  1.0
  Ni  Ni346  1  0.51341439  0.56194688  0.63754717  1.0
  Ni  Ni347  1  0.51341439  0.89528021  0.63754717  1.0
  Ni  Ni348  1  0.84674773  0.22861355  0.63754717  1.0
  Ni  Ni349  1  0.84674773  0.56194688  0.63754717  1.0
  Ni  Ni350  1  0.84674773  0.89528021  0.63754717  1.0
  Ni  Ni351  1  0.04674773  0.01194688  0.68754717  1.0
  Ni  Ni352  1  0.04674773  0.34528021  0.68754717  1.0
  Ni  Ni353  1  0.04674773  0.67861355  0.68754717  1.0
  Ni  Ni354  1  0.38008106  0.01194688  0.68754717  1.0
  Ni  Ni355  1  0.38008106  0.34528021  0.68754717  1.0
  Ni  Ni356  1  0.38008106  0.67861355  0.68754717  1.0
  Ni  Ni357  1  0.71341439  0.01194688  0.68754717  1.0
  Ni  Ni358  1  0.71341439  0.34528021  0.68754717  1.0
  Ni  Ni359  1  0.71341439  0.67861355  0.68754717  1.0
