# generated using pymatgen
data_Ga3Ni5
_symmetry_space_group_name_H-M   'P 1'
_cell_length_a   18.84204386
_cell_length_b   25.11676759
_cell_length_c   30.23856592
_cell_angle_alpha   83.37719619
_cell_angle_beta   85.02325171
_cell_angle_gamma   74.17968901
_symmetry_Int_Tables_number   1
_chemical_formula_structural   Ga3Ni5
_chemical_formula_sum   'Ga162 Ni270'
_cell_volume   13653.57978514
_cell_formula_units_Z   54
loop_
 _symmetry_equiv_pos_site_id
 _symmetry_equiv_pos_as_xyz
  1  'x, y, z'
loop_
 _atom_site_type_symbol
 _atom_site_label
 _atom_site_symmetry_multiplicity
 _atom_site_fract_x
 _atom_site_fract_y
 _atom_site_fract_z
 _atom_site_occupancy
  Ga  Ga0  1  0.29357221  0.11928338  0.11928337  1.0
  Ga  Ga1  1  0.29357221  0.45261671  0.11928338  1.0
  Ga  Ga2  1  0.29357221  0.78595004  0.11928337  1.0
  Ga  Ga3  1  0.62690554  0.11928338  0.11928337  1.0
  Ga  Ga4  1  0.62690554  0.45261671  0.11928337  1.0
  Ga  Ga5  1  0.62690554  0.78595004  0.11928337  1.0
  Ga  Ga6  1  0.96023888  0.11928338  0.11928338  1.0
  Ga  Ga7  1  0.96023888  0.45261671  0.11928337  1.0
  Ga  Ga8  1  0.96023887  0.78595004  0.11928338  1.0
  Ga  Ga9  1  0.14773887  0.22345004  0.05678337  1.0
  Ga  Ga10  1  0.14773887  0.55678338  0.05678337  1.0
  Ga  Ga11  1  0.14773887  0.89011671  0.05678337  1.0
  Ga  Ga12  1  0.48107221  0.22345004  0.05678337  1.0
  Ga  Ga13  1  0.48107221  0.55678338  0.05678337  1.0
  Ga  Ga14  1  0.48107221  0.89011671  0.05678337  1.0
  Ga  Ga15  1  0.81440554  0.22345004  0.05678337  1.0
  Ga  Ga16  1  0.81440554  0.55678338  0.05678337  1.0
  Ga  Ga17  1  0.81440554  0.89011671  0.05678337  1.0
  Ga  Ga18  1  0.03396277  0.21132569  0.00802219  1.0
  Ga  Ga19  1  0.03396277  0.54465902  0.00802219  1.0
  Ga  Ga20  1  0.03396277  0.87799235  0.00802219  1.0
  Ga  Ga21  1  0.36729610  0.21132569  0.00802219  1.0
  Ga  Ga22  1  0.36729610  0.54465902  0.00802219  1.0
  Ga  Ga23  1  0.36729610  0.87799235  0.00802219  1.0
  Ga  Ga24  1  0.70062944  0.21132569  0.00802219  1.0
  Ga  Ga25  1  0.70062944  0.54465902  0.00802219  1.0
  Ga  Ga26  1  0.70062944  0.87799235  0.00802219  1.0
  Ga  Ga27  1  0.17979610  0.10715902  0.07052219  1.0
  Ga  Ga28  1  0.17979610  0.44049235  0.07052219  1.0
  Ga  Ga29  1  0.17979610  0.77382569  0.07052219  1.0
  Ga  Ga30  1  0.51312944  0.10715902  0.07052219  1.0
  Ga  Ga31  1  0.51312944  0.44049235  0.07052219  1.0
  Ga  Ga32  1  0.51312944  0.77382569  0.07052219  1.0
  Ga  Ga33  1  0.84646277  0.10715902  0.07052219  1.0
  Ga  Ga34  1  0.84646277  0.44049235  0.07052219  1.0
  Ga  Ga35  1  0.84646277  0.77382569  0.07052219  1.0
  Ga  Ga36  1  0.26151498  0.23557440  0.10554456  1.0
  Ga  Ga37  1  0.26151498  0.56890773  0.10554456  1.0
  Ga  Ga38  1  0.26151498  0.90224106  0.10554456  1.0
  Ga  Ga39  1  0.59484831  0.23557440  0.10554456  1.0
  Ga  Ga40  1  0.59484831  0.56890773  0.10554456  1.0
  Ga  Ga41  1  0.59484831  0.90224106  0.10554456  1.0
  Ga  Ga42  1  0.92818165  0.23557440  0.10554456  1.0
  Ga  Ga43  1  0.92818165  0.56890773  0.10554456  1.0
  Ga  Ga44  1  0.92818165  0.90224106  0.10554456  1.0
  Ga  Ga45  1  0.11568165  0.00640773  0.04304456  1.0
  Ga  Ga46  1  0.11568165  0.33974106  0.04304456  1.0
  Ga  Ga47  1  0.11568165  0.67307440  0.04304456  1.0
  Ga  Ga48  1  0.44901498  0.00640773  0.04304456  1.0
  Ga  Ga49  1  0.44901498  0.33974106  0.04304456  1.0
  Ga  Ga50  1  0.44901498  0.67307440  0.04304456  1.0
  Ga  Ga51  1  0.78234831  0.00640773  0.04304456  1.0
  Ga  Ga52  1  0.78234831  0.33974106  0.04304456  1.0
  Ga  Ga53  1  0.78234831  0.67307440  0.04304456  1.0
  Ga  Ga54  1  0.25190554  0.24428338  0.24428338  1.0
  Ga  Ga55  1  0.25190554  0.57761671  0.24428337  1.0
  Ga  Ga56  1  0.25190554  0.91095004  0.24428338  1.0
  Ga  Ga57  1  0.58523887  0.24428338  0.24428337  1.0
  Ga  Ga58  1  0.58523887  0.57761671  0.24428337  1.0
  Ga  Ga59  1  0.58523887  0.91095004  0.24428338  1.0
  Ga  Ga60  1  0.91857221  0.24428338  0.24428337  1.0
  Ga  Ga61  1  0.91857221  0.57761671  0.24428338  1.0
  Ga  Ga62  1  0.91857221  0.91095004  0.24428337  1.0
  Ga  Ga63  1  0.10607221  0.01511671  0.18178337  1.0
  Ga  Ga64  1  0.10607221  0.34845004  0.18178337  1.0
  Ga  Ga65  1  0.10607221  0.68178337  0.18178337  1.0
  Ga  Ga66  1  0.43940554  0.01511671  0.18178337  1.0
  Ga  Ga67  1  0.43940554  0.34845004  0.18178338  1.0
  Ga  Ga68  1  0.43940554  0.68178337  0.18178337  1.0
  Ga  Ga69  1  0.77273887  0.01511671  0.18178337  1.0
  Ga  Ga70  1  0.77273888  0.34845004  0.18178337  1.0
  Ga  Ga71  1  0.77273888  0.68178337  0.18178337  1.0
  Ga  Ga72  1  0.32562944  0.00299235  0.13302219  1.0
  Ga  Ga73  1  0.32562944  0.33632569  0.13302219  1.0
  Ga  Ga74  1  0.32562944  0.66965902  0.13302219  1.0
  Ga  Ga75  1  0.65896277  0.00299235  0.13302219  1.0
  Ga  Ga76  1  0.65896277  0.33632569  0.13302219  1.0
  Ga  Ga77  1  0.65896277  0.66965902  0.13302219  1.0
  Ga  Ga78  1  0.99229610  0.00299235  0.13302219  1.0
  Ga  Ga79  1  0.99229610  0.33632569  0.13302219  1.0
  Ga  Ga80  1  0.99229610  0.66965902  0.13302219  1.0
  Ga  Ga81  1  0.13812944  0.23215902  0.19552219  1.0
  Ga  Ga82  1  0.13812944  0.56549235  0.19552219  1.0
  Ga  Ga83  1  0.13812944  0.89882569  0.19552219  1.0
  Ga  Ga84  1  0.47146277  0.23215902  0.19552219  1.0
  Ga  Ga85  1  0.47146277  0.56549235  0.19552219  1.0
  Ga  Ga86  1  0.47146277  0.89882569  0.19552219  1.0
  Ga  Ga87  1  0.80479610  0.23215902  0.19552219  1.0
  Ga  Ga88  1  0.80479610  0.56549235  0.19552219  1.0
  Ga  Ga89  1  0.80479610  0.89882569  0.19552219  1.0
  Ga  Ga90  1  0.21984831  0.02724106  0.23054456  1.0
  Ga  Ga91  1  0.21984831  0.36057440  0.23054456  1.0
  Ga  Ga92  1  0.21984831  0.69390773  0.23054456  1.0
  Ga  Ga93  1  0.55318165  0.02724106  0.23054456  1.0
  Ga  Ga94  1  0.55318165  0.36057440  0.23054456  1.0
  Ga  Ga95  1  0.55318165  0.69390773  0.23054456  1.0
  Ga  Ga96  1  0.88651498  0.02724106  0.23054456  1.0
  Ga  Ga97  1  0.88651498  0.36057440  0.23054456  1.0
  Ga  Ga98  1  0.88651498  0.69390773  0.23054456  1.0
  Ga  Ga99  1  0.07401498  0.13140773  0.16804456  1.0
  Ga  Ga100  1  0.07401498  0.46474106  0.16804456  1.0
  Ga  Ga101  1  0.07401498  0.79807440  0.16804456  1.0
  Ga  Ga102  1  0.40734831  0.13140773  0.16804456  1.0
  Ga  Ga103  1  0.40734831  0.46474106  0.16804456  1.0
  Ga  Ga104  1  0.40734831  0.79807440  0.16804456  1.0
  Ga  Ga105  1  0.74068165  0.13140773  0.16804456  1.0
  Ga  Ga106  1  0.74068165  0.46474106  0.16804456  1.0
  Ga  Ga107  1  0.74068165  0.79807440  0.16804456  1.0
  Ga  Ga108  1  0.21023888  0.03595004  0.36928338  1.0
  Ga  Ga109  1  0.21023888  0.36928337  0.36928337  1.0
  Ga  Ga110  1  0.21023888  0.70261671  0.36928338  1.0
  Ga  Ga111  1  0.54357221  0.03595004  0.36928337  1.0
  Ga  Ga112  1  0.54357221  0.36928337  0.36928337  1.0
  Ga  Ga113  1  0.54357221  0.70261671  0.36928338  1.0
  Ga  Ga114  1  0.87690554  0.03595004  0.36928338  1.0
  Ga  Ga115  1  0.87690554  0.36928337  0.36928337  1.0
  Ga  Ga116  1  0.87690554  0.70261671  0.36928338  1.0
  Ga  Ga117  1  0.06440554  0.14011671  0.30678337  1.0
  Ga  Ga118  1  0.06440554  0.47345004  0.30678337  1.0
  Ga  Ga119  1  0.06440554  0.80678337  0.30678337  1.0
  Ga  Ga120  1  0.39773887  0.14011671  0.30678337  1.0
  Ga  Ga121  1  0.39773888  0.47345004  0.30678337  1.0
  Ga  Ga122  1  0.39773887  0.80678337  0.30678337  1.0
  Ga  Ga123  1  0.73107221  0.14011671  0.30678337  1.0
  Ga  Ga124  1  0.73107221  0.47345004  0.30678337  1.0
  Ga  Ga125  1  0.73107221  0.80678337  0.30678337  1.0
  Ga  Ga126  1  0.28396277  0.12799235  0.25802219  1.0
  Ga  Ga127  1  0.28396277  0.46132569  0.25802219  1.0
  Ga  Ga128  1  0.28396277  0.79465902  0.25802219  1.0
  Ga  Ga129  1  0.61729610  0.12799235  0.25802219  1.0
  Ga  Ga130  1  0.61729610  0.46132569  0.25802219  1.0
  Ga  Ga131  1  0.61729610  0.79465902  0.25802219  1.0
  Ga  Ga132  1  0.95062944  0.12799235  0.25802219  1.0
  Ga  Ga133  1  0.95062944  0.46132569  0.25802219  1.0
  Ga  Ga134  1  0.95062944  0.79465902  0.25802219  1.0
  Ga  Ga135  1  0.09646277  0.02382569  0.32052219  1.0
  Ga  Ga136  1  0.09646277  0.35715902  0.32052219  1.0
  Ga  Ga137  1  0.09646277  0.69049235  0.32052219  1.0
  Ga  Ga138  1  0.42979610  0.02382569  0.32052219  1.0
  Ga  Ga139  1  0.42979610  0.35715902  0.32052219  1.0
  Ga  Ga140  1  0.42979610  0.69049235  0.32052219  1.0
  Ga  Ga141  1  0.76312944  0.02382569  0.32052219  1.0
  Ga  Ga142  1  0.76312944  0.35715902  0.32052219  1.0
  Ga  Ga143  1  0.76312944  0.69049235  0.32052219  1.0
  Ga  Ga144  1  0.17818165  0.15224106  0.35554456  1.0
  Ga  Ga145  1  0.17818165  0.48557440  0.35554456  1.0
  Ga  Ga146  1  0.17818165  0.81890773  0.35554456  1.0
  Ga  Ga147  1  0.51151498  0.15224106  0.35554456  1.0
  Ga  Ga148  1  0.51151498  0.48557440  0.35554456  1.0
  Ga  Ga149  1  0.51151498  0.81890773  0.35554456  1.0
  Ga  Ga150  1  0.84484831  0.15224106  0.35554456  1.0
  Ga  Ga151  1  0.84484831  0.48557440  0.35554456  1.0
  Ga  Ga152  1  0.84484831  0.81890773  0.35554456  1.0
  Ga  Ga153  1  0.03234831  0.25640773  0.29304456  1.0
  Ga  Ga154  1  0.03234831  0.58974106  0.29304456  1.0
  Ga  Ga155  1  0.03234831  0.92307440  0.29304456  1.0
  Ga  Ga156  1  0.36568165  0.25640773  0.29304456  1.0
  Ga  Ga157  1  0.36568165  0.58974106  0.29304456  1.0
  Ga  Ga158  1  0.36568165  0.92307440  0.29304456  1.0
  Ga  Ga159  1  0.69901498  0.25640773  0.29304456  1.0
  Ga  Ga160  1  0.69901498  0.58974106  0.29304456  1.0
  Ga  Ga161  1  0.69901498  0.92307440  0.29304456  1.0
  Ni  Ni162  1  0.22065554  0.00470004  0.08803337  1.0
  Ni  Ni163  1  0.22065554  0.33803337  0.08803337  1.0
  Ni  Ni164  1  0.22065554  0.67136671  0.08803337  1.0
  Ni  Ni165  1  0.55398888  0.00470004  0.08803337  1.0
  Ni  Ni166  1  0.55398888  0.33803337  0.08803337  1.0
  Ni  Ni167  1  0.55398888  0.67136671  0.08803337  1.0
  Ni  Ni168  1  0.88732221  0.00470004  0.08803337  1.0
  Ni  Ni169  1  0.88732221  0.33803337  0.08803337  1.0
  Ni  Ni170  1  0.88732221  0.67136671  0.08803337  1.0
  Ni  Ni171  1  0.07482221  0.10886671  0.02553337  1.0
  Ni  Ni172  1  0.07482221  0.44220004  0.02553337  1.0
  Ni  Ni173  1  0.07482221  0.77553337  0.02553337  1.0
  Ni  Ni174  1  0.40815554  0.10886671  0.02553337  1.0
  Ni  Ni175  1  0.40815554  0.44220004  0.02553337  1.0
  Ni  Ni176  1  0.40815554  0.77553337  0.02553337  1.0
  Ni  Ni177  1  0.74148887  0.10886671  0.02553337  1.0
  Ni  Ni178  1  0.74148887  0.44220004  0.02553337  1.0
  Ni  Ni179  1  0.74148887  0.77553337  0.02553337  1.0
  Ni  Ni180  1  0.31440554  0.05678338  0.05678337  1.0
  Ni  Ni181  1  0.31440554  0.39011671  0.05678337  1.0
  Ni  Ni182  1  0.31440554  0.72345004  0.05678337  1.0
  Ni  Ni183  1  0.64773887  0.05678338  0.05678337  1.0
  Ni  Ni184  1  0.64773888  0.39011671  0.05678337  1.0
  Ni  Ni185  1  0.64773887  0.72345004  0.05678337  1.0
  Ni  Ni186  1  0.98107221  0.05678338  0.05678337  1.0
  Ni  Ni187  1  0.98107221  0.39011671  0.05678337  1.0
  Ni  Ni188  1  0.98107221  0.72345004  0.05678337  1.0
  Ni  Ni189  1  0.12690554  0.28595004  0.11928337  1.0
  Ni  Ni190  1  0.12690554  0.61928338  0.11928337  1.0
  Ni  Ni191  1  0.12690554  0.95261671  0.11928337  1.0
  Ni  Ni192  1  0.46023887  0.28595004  0.11928337  1.0
  Ni  Ni193  1  0.46023887  0.61928338  0.11928337  1.0
  Ni  Ni194  1  0.46023887  0.95261671  0.11928337  1.0
  Ni  Ni195  1  0.79357221  0.28595004  0.11928337  1.0
  Ni  Ni196  1  0.79357221  0.61928338  0.11928337  1.0
  Ni  Ni197  1  0.79357221  0.95261671  0.11928337  1.0
  Ni  Ni198  1  0.24148887  0.27553338  0.02553338  1.0
  Ni  Ni199  1  0.24148888  0.60886671  0.02553338  1.0
  Ni  Ni200  1  0.24148888  0.94220004  0.02553338  1.0
  Ni  Ni201  1  0.57482221  0.27553338  0.02553337  1.0
  Ni  Ni202  1  0.57482221  0.60886671  0.02553337  1.0
  Ni  Ni203  1  0.57482221  0.94220004  0.02553338  1.0
  Ni  Ni204  1  0.90815554  0.27553338  0.02553337  1.0
  Ni  Ni205  1  0.90815554  0.60886671  0.02553337  1.0
  Ni  Ni206  1  0.90815554  0.94220004  0.02553337  1.0
  Ni  Ni207  1  0.05398887  0.17136671  0.08803337  1.0
  Ni  Ni208  1  0.05398887  0.50470004  0.08803337  1.0
  Ni  Ni209  1  0.05398887  0.83803338  0.08803337  1.0
  Ni  Ni210  1  0.38732221  0.17136671  0.08803337  1.0
  Ni  Ni211  1  0.38732221  0.50470004  0.08803337  1.0
  Ni  Ni212  1  0.38732221  0.83803338  0.08803337  1.0
  Ni  Ni213  1  0.72065554  0.17136671  0.08803337  1.0
  Ni  Ni214  1  0.72065554  0.50470004  0.08803337  1.0
  Ni  Ni215  1  0.72065554  0.83803338  0.08803338  1.0
  Ni  Ni216  1  0.27282396  0.16662412  0.04535013  1.0
  Ni  Ni217  1  0.27282396  0.49995746  0.04535013  1.0
  Ni  Ni218  1  0.27282396  0.83329079  0.04535012  1.0
  Ni  Ni219  1  0.60615729  0.16662412  0.04535013  1.0
  Ni  Ni220  1  0.60615729  0.49995746  0.04535013  1.0
  Ni  Ni221  1  0.60615729  0.83329079  0.04535013  1.0
  Ni  Ni222  1  0.93949062  0.16662412  0.04535013  1.0
  Ni  Ni223  1  0.93949062  0.49995746  0.04535013  1.0
  Ni  Ni224  1  0.93949063  0.83329079  0.04535013  1.0
  Ni  Ni225  1  0.08532396  0.06245746  0.10785012  1.0
  Ni  Ni226  1  0.08532396  0.39579079  0.10785012  1.0
  Ni  Ni227  1  0.08532396  0.72912412  0.10785013  1.0
  Ni  Ni228  1  0.41865729  0.06245746  0.10785012  1.0
  Ni  Ni229  1  0.41865729  0.39579079  0.10785012  1.0
  Ni  Ni230  1  0.41865729  0.72912412  0.10785013  1.0
  Ni  Ni231  1  0.75199062  0.06245746  0.10785012  1.0
  Ni  Ni232  1  0.75199063  0.39579079  0.10785013  1.0
  Ni  Ni233  1  0.75199063  0.72912412  0.10785013  1.0
  Ni  Ni234  1  0.02265379  0.28027596  0.06821663  1.0
  Ni  Ni235  1  0.02265379  0.61360929  0.06821663  1.0
  Ni  Ni236  1  0.02265379  0.94694263  0.06821663  1.0
  Ni  Ni237  1  0.35598712  0.28027596  0.06821663  1.0
  Ni  Ni238  1  0.35598713  0.61360929  0.06821663  1.0
  Ni  Ni239  1  0.35598712  0.94694263  0.06821663  1.0
  Ni  Ni240  1  0.68932046  0.28027596  0.06821663  1.0
  Ni  Ni241  1  0.68932046  0.61360929  0.06821663  1.0
  Ni  Ni242  1  0.68932046  0.94694263  0.06821663  1.0
  Ni  Ni243  1  0.21015379  0.05110929  0.00571662  1.0
  Ni  Ni244  1  0.21015379  0.38444263  0.00571662  1.0
  Ni  Ni245  1  0.21015379  0.71777596  0.00571662  1.0
  Ni  Ni246  1  0.54348712  0.05110929  0.00571662  1.0
  Ni  Ni247  1  0.54348712  0.38444263  0.00571662  1.0
  Ni  Ni248  1  0.54348712  0.71777596  0.00571663  1.0
  Ni  Ni249  1  0.87682046  0.05110929  0.00571662  1.0
  Ni  Ni250  1  0.87682046  0.38444263  0.00571662  1.0
  Ni  Ni251  1  0.87682046  0.71777596  0.00571663  1.0
  Ni  Ni252  1  0.17898888  0.12970004  0.21303337  1.0
  Ni  Ni253  1  0.17898888  0.46303337  0.21303337  1.0
  Ni  Ni254  1  0.17898887  0.79636671  0.21303337  1.0
  Ni  Ni255  1  0.51232221  0.12970004  0.21303337  1.0
  Ni  Ni256  1  0.51232221  0.46303337  0.21303338  1.0
  Ni  Ni257  1  0.51232221  0.79636671  0.21303337  1.0
  Ni  Ni258  1  0.84565554  0.12970004  0.21303337  1.0
  Ni  Ni259  1  0.84565554  0.46303337  0.21303337  1.0
  Ni  Ni260  1  0.84565554  0.79636671  0.21303337  1.0
  Ni  Ni261  1  0.03315554  0.23386671  0.15053337  1.0
  Ni  Ni262  1  0.03315554  0.56720004  0.15053337  1.0
  Ni  Ni263  1  0.03315554  0.90053338  0.15053337  1.0
  Ni  Ni264  1  0.36648887  0.23386671  0.15053337  1.0
  Ni  Ni265  1  0.36648887  0.56720004  0.15053337  1.0
  Ni  Ni266  1  0.36648887  0.90053338  0.15053337  1.0
  Ni  Ni267  1  0.69982221  0.23386671  0.15053337  1.0
  Ni  Ni268  1  0.69982221  0.56720004  0.15053337  1.0
  Ni  Ni269  1  0.69982221  0.90053338  0.15053337  1.0
  Ni  Ni270  1  0.27273887  0.18178338  0.18178337  1.0
  Ni  Ni271  1  0.27273887  0.51511671  0.18178337  1.0
  Ni  Ni272  1  0.27273887  0.84845004  0.18178337  1.0
  Ni  Ni273  1  0.60607221  0.18178338  0.18178337  1.0
  Ni  Ni274  1  0.60607221  0.51511671  0.18178337  1.0
  Ni  Ni275  1  0.60607221  0.84845004  0.18178337  1.0
  Ni  Ni276  1  0.93940554  0.18178338  0.18178337  1.0
  Ni  Ni277  1  0.93940554  0.51511671  0.18178337  1.0
  Ni  Ni278  1  0.93940554  0.84845004  0.18178337  1.0
  Ni  Ni279  1  0.08523887  0.07761671  0.24428337  1.0
  Ni  Ni280  1  0.08523887  0.41095004  0.24428337  1.0
  Ni  Ni281  1  0.08523887  0.74428337  0.24428337  1.0
  Ni  Ni282  1  0.41857221  0.07761671  0.24428337  1.0
  Ni  Ni283  1  0.41857221  0.41095004  0.24428337  1.0
  Ni  Ni284  1  0.41857221  0.74428337  0.24428337  1.0
  Ni  Ni285  1  0.75190554  0.07761671  0.24428337  1.0
  Ni  Ni286  1  0.75190554  0.41095004  0.24428337  1.0
  Ni  Ni287  1  0.75190554  0.74428337  0.24428337  1.0
  Ni  Ni288  1  0.19982221  0.06720004  0.15053337  1.0
  Ni  Ni289  1  0.19982221  0.40053337  0.15053338  1.0
  Ni  Ni290  1  0.19982221  0.73386671  0.15053337  1.0
  Ni  Ni291  1  0.53315554  0.06720004  0.15053337  1.0
  Ni  Ni292  1  0.53315554  0.40053337  0.15053337  1.0
  Ni  Ni293  1  0.53315554  0.73386671  0.15053338  1.0
  Ni  Ni294  1  0.86648887  0.06720004  0.15053338  1.0
  Ni  Ni295  1  0.86648888  0.40053337  0.15053337  1.0
  Ni  Ni296  1  0.86648887  0.73386671  0.15053338  1.0
  Ni  Ni297  1  0.01232221  0.29636671  0.21303337  1.0
  Ni  Ni298  1  0.01232221  0.62970004  0.21303337  1.0
  Ni  Ni299  1  0.01232221  0.96303337  0.21303337  1.0
  Ni  Ni300  1  0.34565554  0.29636671  0.21303337  1.0
  Ni  Ni301  1  0.34565554  0.62970004  0.21303338  1.0
  Ni  Ni302  1  0.34565554  0.96303337  0.21303337  1.0
  Ni  Ni303  1  0.67898887  0.29636671  0.21303337  1.0
  Ni  Ni304  1  0.67898887  0.62970004  0.21303338  1.0
  Ni  Ni305  1  0.67898887  0.96303337  0.21303337  1.0
  Ni  Ni306  1  0.23115729  0.29162412  0.17035013  1.0
  Ni  Ni307  1  0.23115729  0.62495746  0.17035013  1.0
  Ni  Ni308  1  0.23115729  0.95829079  0.17035013  1.0
  Ni  Ni309  1  0.56449063  0.29162412  0.17035013  1.0
  Ni  Ni310  1  0.56449063  0.62495746  0.17035013  1.0
  Ni  Ni311  1  0.56449063  0.95829079  0.17035013  1.0
  Ni  Ni312  1  0.89782396  0.29162412  0.17035013  1.0
  Ni  Ni313  1  0.89782396  0.62495746  0.17035012  1.0
  Ni  Ni314  1  0.89782396  0.95829079  0.17035013  1.0
  Ni  Ni315  1  0.04365729  0.18745746  0.23285012  1.0
  Ni  Ni316  1  0.04365729  0.52079079  0.23285013  1.0
  Ni  Ni317  1  0.04365729  0.85412412  0.23285013  1.0
  Ni  Ni318  1  0.37699063  0.18745746  0.23285013  1.0
  Ni  Ni319  1  0.37699063  0.52079079  0.23285013  1.0
  Ni  Ni320  1  0.37699063  0.85412412  0.23285013  1.0
  Ni  Ni321  1  0.71032396  0.18745746  0.23285013  1.0
  Ni  Ni322  1  0.71032396  0.52079079  0.23285013  1.0
  Ni  Ni323  1  0.71032396  0.85412412  0.23285013  1.0
  Ni  Ni324  1  0.31432046  0.07194262  0.19321662  1.0
  Ni  Ni325  1  0.31432046  0.40527596  0.19321662  1.0
  Ni  Ni326  1  0.31432046  0.73860929  0.19321663  1.0
  Ni  Ni327  1  0.64765379  0.07194262  0.19321662  1.0
  Ni  Ni328  1  0.64765379  0.40527596  0.19321662  1.0
  Ni  Ni329  1  0.64765379  0.73860929  0.19321663  1.0
  Ni  Ni330  1  0.98098712  0.07194262  0.19321662  1.0
  Ni  Ni331  1  0.98098712  0.40527596  0.19321662  1.0
  Ni  Ni332  1  0.98098713  0.73860929  0.19321663  1.0
  Ni  Ni333  1  0.16848712  0.17610929  0.13071662  1.0
  Ni  Ni334  1  0.16848712  0.50944263  0.13071662  1.0
  Ni  Ni335  1  0.16848712  0.84277596  0.13071662  1.0
  Ni  Ni336  1  0.50182046  0.17610929  0.13071662  1.0
  Ni  Ni337  1  0.50182046  0.50944263  0.13071662  1.0
  Ni  Ni338  1  0.50182046  0.84277596  0.13071662  1.0
  Ni  Ni339  1  0.83515379  0.17610929  0.13071662  1.0
  Ni  Ni340  1  0.83515379  0.50944263  0.13071662  1.0
  Ni  Ni341  1  0.83515379  0.84277596  0.13071662  1.0
  Ni  Ni342  1  0.13732221  0.25470004  0.33803337  1.0
  Ni  Ni343  1  0.13732221  0.58803337  0.33803337  1.0
  Ni  Ni344  1  0.13732221  0.92136671  0.33803337  1.0
  Ni  Ni345  1  0.47065554  0.25470004  0.33803337  1.0
  Ni  Ni346  1  0.47065554  0.58803337  0.33803337  1.0
  Ni  Ni347  1  0.47065554  0.92136671  0.33803337  1.0
  Ni  Ni348  1  0.80398888  0.25470004  0.33803337  1.0
  Ni  Ni349  1  0.80398888  0.58803337  0.33803337  1.0
  Ni  Ni350  1  0.80398888  0.92136671  0.33803337  1.0
  Ni  Ni351  1  0.32482221  0.02553338  0.27553337  1.0
  Ni  Ni352  1  0.32482221  0.35886671  0.27553338  1.0
  Ni  Ni353  1  0.32482221  0.69220004  0.27553338  1.0
  Ni  Ni354  1  0.65815554  0.02553338  0.27553337  1.0
  Ni  Ni355  1  0.65815554  0.35886671  0.27553337  1.0
  Ni  Ni356  1  0.65815554  0.69220004  0.27553337  1.0
  Ni  Ni357  1  0.99148888  0.02553338  0.27553337  1.0
  Ni  Ni358  1  0.99148888  0.35886671  0.27553338  1.0
  Ni  Ni359  1  0.99148888  0.69220004  0.27553337  1.0
  Ni  Ni360  1  0.23107221  0.30678338  0.30678337  1.0
  Ni  Ni361  1  0.23107221  0.64011671  0.30678337  1.0
  Ni  Ni362  1  0.23107221  0.97345004  0.30678337  1.0
  Ni  Ni363  1  0.56440554  0.30678338  0.30678337  1.0
  Ni  Ni364  1  0.56440554  0.64011671  0.30678337  1.0
  Ni  Ni365  1  0.56440554  0.97345004  0.30678337  1.0
  Ni  Ni366  1  0.89773888  0.30678338  0.30678337  1.0
  Ni  Ni367  1  0.89773888  0.64011671  0.30678337  1.0
  Ni  Ni368  1  0.89773887  0.97345004  0.30678337  1.0
  Ni  Ni369  1  0.04357221  0.20261671  0.36928337  1.0
  Ni  Ni370  1  0.04357221  0.53595004  0.36928337  1.0
  Ni  Ni371  1  0.04357221  0.86928337  0.36928337  1.0
  Ni  Ni372  1  0.37690554  0.20261671  0.36928337  1.0
  Ni  Ni373  1  0.37690554  0.53595004  0.36928337  1.0
  Ni  Ni374  1  0.37690554  0.86928337  0.36928337  1.0
  Ni  Ni375  1  0.71023888  0.20261671  0.36928337  1.0
  Ni  Ni376  1  0.71023888  0.53595004  0.36928337  1.0
  Ni  Ni377  1  0.71023888  0.86928337  0.36928338  1.0
  Ni  Ni378  1  0.15815554  0.19220004  0.27553338  1.0
  Ni  Ni379  1  0.15815554  0.52553337  0.27553338  1.0
  Ni  Ni380  1  0.15815554  0.85886671  0.27553338  1.0
  Ni  Ni381  1  0.49148887  0.19220004  0.27553338  1.0
  Ni  Ni382  1  0.49148888  0.52553337  0.27553338  1.0
  Ni  Ni383  1  0.49148888  0.85886671  0.27553338  1.0
  Ni  Ni384  1  0.82482221  0.19220004  0.27553338  1.0
  Ni  Ni385  1  0.82482221  0.52553337  0.27553338  1.0
  Ni  Ni386  1  0.82482221  0.85886671  0.27553338  1.0
  Ni  Ni387  1  0.30398887  0.08803338  0.33803337  1.0
  Ni  Ni388  1  0.30398888  0.42136671  0.33803338  1.0
  Ni  Ni389  1  0.30398888  0.75470004  0.33803337  1.0
  Ni  Ni390  1  0.63732221  0.08803338  0.33803337  1.0
  Ni  Ni391  1  0.63732221  0.42136671  0.33803337  1.0
  Ni  Ni392  1  0.63732221  0.75470004  0.33803337  1.0
  Ni  Ni393  1  0.97065554  0.08803338  0.33803338  1.0
  Ni  Ni394  1  0.97065554  0.42136671  0.33803338  1.0
  Ni  Ni395  1  0.97065554  0.75470004  0.33803337  1.0
  Ni  Ni396  1  0.18949062  0.08329079  0.29535013  1.0
  Ni  Ni397  1  0.18949062  0.41662412  0.29535013  1.0
  Ni  Ni398  1  0.18949062  0.74995746  0.29535013  1.0
  Ni  Ni399  1  0.52282396  0.08329079  0.29535013  1.0
  Ni  Ni400  1  0.52282396  0.41662412  0.29535013  1.0
  Ni  Ni401  1  0.52282396  0.74995746  0.29535013  1.0
  Ni  Ni402  1  0.85615729  0.08329079  0.29535013  1.0
  Ni  Ni403  1  0.85615729  0.41662412  0.29535013  1.0
  Ni  Ni404  1  0.85615729  0.74995746  0.29535013  1.0
  Ni  Ni405  1  0.00199062  0.31245746  0.35785013  1.0
  Ni  Ni406  1  0.00199062  0.64579079  0.35785013  1.0
  Ni  Ni407  1  0.00199062  0.97912413  0.35785013  1.0
  Ni  Ni408  1  0.33532396  0.31245746  0.35785013  1.0
  Ni  Ni409  1  0.33532396  0.64579079  0.35785013  1.0
  Ni  Ni410  1  0.33532396  0.97912413  0.35785013  1.0
  Ni  Ni411  1  0.66865729  0.31245746  0.35785013  1.0
  Ni  Ni412  1  0.66865729  0.64579079  0.35785013  1.0
  Ni  Ni413  1  0.66865729  0.97912413  0.35785013  1.0
  Ni  Ni414  1  0.27265379  0.19694263  0.31821663  1.0
  Ni  Ni415  1  0.27265379  0.53027596  0.31821663  1.0
  Ni  Ni416  1  0.27265379  0.86360929  0.31821663  1.0
  Ni  Ni417  1  0.60598712  0.19694263  0.31821663  1.0
  Ni  Ni418  1  0.60598712  0.53027596  0.31821663  1.0
  Ni  Ni419  1  0.60598712  0.86360929  0.31821663  1.0
  Ni  Ni420  1  0.93932046  0.19694263  0.31821663  1.0
  Ni  Ni421  1  0.93932046  0.53027596  0.31821663  1.0
  Ni  Ni422  1  0.93932046  0.86360929  0.31821663  1.0
  Ni  Ni423  1  0.12682046  0.30110929  0.25571663  1.0
  Ni  Ni424  1  0.12682046  0.63444263  0.25571663  1.0
  Ni  Ni425  1  0.12682046  0.96777596  0.25571663  1.0
  Ni  Ni426  1  0.46015379  0.30110929  0.25571663  1.0
  Ni  Ni427  1  0.46015379  0.63444263  0.25571663  1.0
  Ni  Ni428  1  0.46015379  0.96777596  0.25571663  1.0
  Ni  Ni429  1  0.79348712  0.30110929  0.25571663  1.0
  Ni  Ni430  1  0.79348712  0.63444263  0.25571663  1.0
  Ni  Ni431  1  0.79348713  0.96777596  0.25571663  1.0
