# generated using pymatgen
data_Ga3Ni5
_symmetry_space_group_name_H-M   'P 1'
_cell_length_a   11.14772400
_cell_length_b   35.26912807
_cell_length_c   35.44446745
_cell_angle_alpha   120.98690960
_cell_angle_beta   90.00000000
_cell_angle_gamma   90.00000000
_symmetry_Int_Tables_number   1
_chemical_formula_structural   Ga3Ni5
_chemical_formula_sum   'Ga162 Ni270'
_cell_volume   11946.88231200
_cell_formula_units_Z   54
loop_
 _symmetry_equiv_pos_site_id
 _symmetry_equiv_pos_as_xyz
  1  'x, y, z'
loop_
 _atom_site_type_symbol
 _atom_site_label
 _atom_site_symmetry_multiplicity
 _atom_site_fract_x
 _atom_site_fract_y
 _atom_site_fract_z
 _atom_site_occupancy
  Ga  Ga0  1  0.00000000  0.16666667  0.06010471  1.0
  Ga  Ga1  1  0.00000000  0.50000000  0.06010471  1.0
  Ga  Ga2  1  0.00000000  0.83333333  0.06010471  1.0
  Ga  Ga3  1  0.33333333  0.16666667  0.06010471  1.0
  Ga  Ga4  1  0.33333333  0.50000000  0.06010471  1.0
  Ga  Ga5  1  0.33333333  0.83333333  0.06010471  1.0
  Ga  Ga6  1  0.66666667  0.16666667  0.06010471  1.0
  Ga  Ga7  1  0.66666667  0.50000000  0.06010471  1.0
  Ga  Ga8  1  0.66666667  0.83333333  0.06010471  1.0
  Ga  Ga9  1  0.00000000  0.00000000  0.13153329  1.0
  Ga  Ga10  1  0.00000000  0.33333333  0.13153329  1.0
  Ga  Ga11  1  0.00000000  0.66666667  0.13153329  1.0
  Ga  Ga12  1  0.33333333  0.00000000  0.13153329  1.0
  Ga  Ga13  1  0.33333333  0.33333333  0.13153329  1.0
  Ga  Ga14  1  0.33333333  0.66666667  0.13153329  1.0
  Ga  Ga15  1  0.66666667  0.00000000  0.13153329  1.0
  Ga  Ga16  1  0.66666667  0.33333333  0.13153329  1.0
  Ga  Ga17  1  0.66666667  0.66666667  0.13153329  1.0
  Ga  Ga18  1  0.16666667  0.11997017  0.08011750  1.0
  Ga  Ga19  1  0.16666667  0.45330350  0.08011750  1.0
  Ga  Ga20  1  0.16666667  0.78663683  0.08011750  1.0
  Ga  Ga21  1  0.50000000  0.11997017  0.08011750  1.0
  Ga  Ga22  1  0.50000000  0.45330350  0.08011750  1.0
  Ga  Ga23  1  0.50000000  0.78663683  0.08011750  1.0
  Ga  Ga24  1  0.83333333  0.11997017  0.08011750  1.0
  Ga  Ga25  1  0.83333333  0.45330350  0.08011750  1.0
  Ga  Ga26  1  0.83333333  0.78663683  0.08011750  1.0
  Ga  Ga27  1  0.16666667  0.28663683  0.00868893  1.0
  Ga  Ga28  1  0.16666667  0.61997017  0.00868893  1.0
  Ga  Ga29  1  0.16666667  0.95330350  0.00868893  1.0
  Ga  Ga30  1  0.50000000  0.28663683  0.00868893  1.0
  Ga  Ga31  1  0.50000000  0.61997017  0.00868893  1.0
  Ga  Ga32  1  0.50000000  0.95330350  0.00868893  1.0
  Ga  Ga33  1  0.83333333  0.28663683  0.00868893  1.0
  Ga  Ga34  1  0.83333333  0.61997017  0.00868893  1.0
  Ga  Ga35  1  0.83333333  0.95330350  0.00868893  1.0
  Ga  Ga36  1  0.16666667  0.04669650  0.11152050  1.0
  Ga  Ga37  1  0.16666667  0.38002983  0.11152050  1.0
  Ga  Ga38  1  0.16666667  0.71336317  0.11152050  1.0
  Ga  Ga39  1  0.50000000  0.04669650  0.11152050  1.0
  Ga  Ga40  1  0.50000000  0.38002983  0.11152050  1.0
  Ga  Ga41  1  0.50000000  0.71336317  0.11152050  1.0
  Ga  Ga42  1  0.83333333  0.04669650  0.11152050  1.0
  Ga  Ga43  1  0.83333333  0.38002983  0.11152050  1.0
  Ga  Ga44  1  0.83333333  0.71336317  0.11152050  1.0
  Ga  Ga45  1  0.16666667  0.21336317  0.04009193  1.0
  Ga  Ga46  1  0.16666667  0.54669650  0.04009193  1.0
  Ga  Ga47  1  0.16666667  0.88002983  0.04009193  1.0
  Ga  Ga48  1  0.50000000  0.21336317  0.04009193  1.0
  Ga  Ga49  1  0.50000000  0.54669650  0.04009193  1.0
  Ga  Ga50  1  0.50000000  0.88002983  0.04009193  1.0
  Ga  Ga51  1  0.83333333  0.21336317  0.04009193  1.0
  Ga  Ga52  1  0.83333333  0.54669650  0.04009193  1.0
  Ga  Ga53  1  0.83333333  0.88002983  0.04009193  1.0
  Ni  Ni54  1  0.00000000  0.08333333  0.09581900  1.0
  Ni  Ni55  1  0.00000000  0.41666667  0.09581900  1.0
  Ni  Ni56  1  0.00000000  0.75000000  0.09581900  1.0
  Ni  Ni57  1  0.33333333  0.08333333  0.09581900  1.0
  Ni  Ni58  1  0.33333333  0.41666667  0.09581900  1.0
  Ni  Ni59  1  0.33333333  0.75000000  0.09581900  1.0
  Ni  Ni60  1  0.66666667  0.08333333  0.09581900  1.0
  Ni  Ni61  1  0.66666667  0.41666667  0.09581900  1.0
  Ni  Ni62  1  0.66666667  0.75000000  0.09581900  1.0
  Ni  Ni63  1  0.00000000  0.25000000  0.02439043  1.0
  Ni  Ni64  1  0.00000000  0.58333333  0.02439043  1.0
  Ni  Ni65  1  0.00000000  0.91666667  0.02439043  1.0
  Ni  Ni66  1  0.33333333  0.25000000  0.02439043  1.0
  Ni  Ni67  1  0.33333333  0.58333333  0.02439043  1.0
  Ni  Ni68  1  0.33333333  0.91666667  0.02439043  1.0
  Ni  Ni69  1  0.66666667  0.25000000  0.02439043  1.0
  Ni  Ni70  1  0.66666667  0.58333333  0.02439043  1.0
  Ni  Ni71  1  0.66666667  0.91666667  0.02439043  1.0
  Ni  Ni72  1  0.00000000  0.16666667  0.13153329  1.0
  Ni  Ni73  1  0.00000000  0.50000000  0.13153329  1.0
  Ni  Ni74  1  0.00000000  0.83333333  0.13153329  1.0
  Ni  Ni75  1  0.33333333  0.16666667  0.13153329  1.0
  Ni  Ni76  1  0.33333333  0.50000000  0.13153329  1.0
  Ni  Ni77  1  0.33333333  0.83333333  0.13153329  1.0
  Ni  Ni78  1  0.66666667  0.16666667  0.13153329  1.0
  Ni  Ni79  1  0.66666667  0.50000000  0.13153329  1.0
  Ni  Ni80  1  0.66666667  0.83333333  0.13153329  1.0
  Ni  Ni81  1  0.00000000  0.00000000  0.06010471  1.0
  Ni  Ni82  1  0.00000000  0.33333333  0.06010471  1.0
  Ni  Ni83  1  0.00000000  0.66666667  0.06010471  1.0
  Ni  Ni84  1  0.33333333  0.00000000  0.06010471  1.0
  Ni  Ni85  1  0.33333333  0.33333333  0.06010471  1.0
  Ni  Ni86  1  0.33333333  0.66666667  0.06010471  1.0
  Ni  Ni87  1  0.66666667  0.00000000  0.06010471  1.0
  Ni  Ni88  1  0.66666667  0.33333333  0.06010471  1.0
  Ni  Ni89  1  0.66666667  0.66666667  0.06010471  1.0
  Ni  Ni90  1  0.00000000  0.08333333  0.02439043  1.0
  Ni  Ni91  1  0.00000000  0.41666667  0.02439043  1.0
  Ni  Ni92  1  0.00000000  0.75000000  0.02439043  1.0
  Ni  Ni93  1  0.33333333  0.08333333  0.02439043  1.0
  Ni  Ni94  1  0.33333333  0.41666667  0.02439043  1.0
  Ni  Ni95  1  0.33333333  0.75000000  0.02439043  1.0
  Ni  Ni96  1  0.66666667  0.08333333  0.02439043  1.0
  Ni  Ni97  1  0.66666667  0.41666667  0.02439043  1.0
  Ni  Ni98  1  0.66666667  0.75000000  0.02439043  1.0
  Ni  Ni99  1  0.00000000  0.25000000  0.09581900  1.0
  Ni  Ni100  1  0.00000000  0.58333333  0.09581900  1.0
  Ni  Ni101  1  0.00000000  0.91666667  0.09581900  1.0
  Ni  Ni102  1  0.33333333  0.25000000  0.09581900  1.0
  Ni  Ni103  1  0.33333333  0.58333333  0.09581900  1.0
  Ni  Ni104  1  0.33333333  0.91666667  0.09581900  1.0
  Ni  Ni105  1  0.66666667  0.25000000  0.09581900  1.0
  Ni  Ni106  1  0.66666667  0.58333333  0.09581900  1.0
  Ni  Ni107  1  0.66666667  0.91666667  0.09581900  1.0
  Ni  Ni108  1  0.16666667  0.03794067  0.03745700  1.0
  Ni  Ni109  1  0.16666667  0.37127400  0.03745700  1.0
  Ni  Ni110  1  0.16666667  0.70460733  0.03745700  1.0
  Ni  Ni111  1  0.50000000  0.03794067  0.03745700  1.0
  Ni  Ni112  1  0.50000000  0.37127400  0.03745700  1.0
  Ni  Ni113  1  0.50000000  0.70460733  0.03745700  1.0
  Ni  Ni114  1  0.83333333  0.03794067  0.03745700  1.0
  Ni  Ni115  1  0.83333333  0.37127400  0.03745700  1.0
  Ni  Ni116  1  0.83333333  0.70460733  0.03745700  1.0
  Ni  Ni117  1  0.16666667  0.20460733  0.10888557  1.0
  Ni  Ni118  1  0.16666667  0.53794067  0.10888557  1.0
  Ni  Ni119  1  0.16666667  0.87127400  0.10888557  1.0
  Ni  Ni120  1  0.50000000  0.20460733  0.10888557  1.0
  Ni  Ni121  1  0.50000000  0.53794067  0.10888557  1.0
  Ni  Ni122  1  0.50000000  0.87127400  0.10888557  1.0
  Ni  Ni123  1  0.83333333  0.20460733  0.10888557  1.0
  Ni  Ni124  1  0.83333333  0.53794067  0.10888557  1.0
  Ni  Ni125  1  0.83333333  0.87127400  0.10888557  1.0
  Ni  Ni126  1  0.16666667  0.12872600  0.01132386  1.0
  Ni  Ni127  1  0.16666667  0.46205933  0.01132386  1.0
  Ni  Ni128  1  0.16666667  0.79539267  0.01132386  1.0
  Ni  Ni129  1  0.50000000  0.12872600  0.01132386  1.0
  Ni  Ni130  1  0.50000000  0.46205933  0.01132386  1.0
  Ni  Ni131  1  0.50000000  0.79539267  0.01132386  1.0
  Ni  Ni132  1  0.83333333  0.12872600  0.01132386  1.0
  Ni  Ni133  1  0.83333333  0.46205933  0.01132386  1.0
  Ni  Ni134  1  0.83333333  0.79539267  0.01132386  1.0
  Ni  Ni135  1  0.16666667  0.29539267  0.08275243  1.0
  Ni  Ni136  1  0.16666667  0.62872600  0.08275243  1.0
  Ni  Ni137  1  0.16666667  0.96205933  0.08275243  1.0
  Ni  Ni138  1  0.50000000  0.29539267  0.08275243  1.0
  Ni  Ni139  1  0.50000000  0.62872600  0.08275243  1.0
  Ni  Ni140  1  0.50000000  0.96205933  0.08275243  1.0
  Ni  Ni141  1  0.83333333  0.29539267  0.08275243  1.0
  Ni  Ni142  1  0.83333333  0.62872600  0.08275243  1.0
  Ni  Ni143  1  0.83333333  0.96205933  0.08275243  1.0
  Ga  Ga144  1  0.00000000  0.16666667  0.20296186  1.0
  Ga  Ga145  1  0.00000000  0.50000000  0.20296186  1.0
  Ga  Ga146  1  0.00000000  0.83333333  0.20296186  1.0
  Ga  Ga147  1  0.33333333  0.16666667  0.20296186  1.0
  Ga  Ga148  1  0.33333333  0.50000000  0.20296186  1.0
  Ga  Ga149  1  0.33333333  0.83333333  0.20296186  1.0
  Ga  Ga150  1  0.66666667  0.16666667  0.20296186  1.0
  Ga  Ga151  1  0.66666667  0.50000000  0.20296186  1.0
  Ga  Ga152  1  0.66666667  0.83333333  0.20296186  1.0
  Ga  Ga153  1  0.00000000  0.00000000  0.27439043  1.0
  Ga  Ga154  1  0.00000000  0.33333333  0.27439043  1.0
  Ga  Ga155  1  0.00000000  0.66666667  0.27439043  1.0
  Ga  Ga156  1  0.33333333  0.00000000  0.27439043  1.0
  Ga  Ga157  1  0.33333333  0.33333333  0.27439043  1.0
  Ga  Ga158  1  0.33333333  0.66666667  0.27439043  1.0
  Ga  Ga159  1  0.66666667  0.00000000  0.27439043  1.0
  Ga  Ga160  1  0.66666667  0.33333333  0.27439043  1.0
  Ga  Ga161  1  0.66666667  0.66666667  0.27439043  1.0
  Ga  Ga162  1  0.16666667  0.11997017  0.22297464  1.0
  Ga  Ga163  1  0.16666667  0.45330350  0.22297464  1.0
  Ga  Ga164  1  0.16666667  0.78663683  0.22297464  1.0
  Ga  Ga165  1  0.50000000  0.11997017  0.22297464  1.0
  Ga  Ga166  1  0.50000000  0.45330350  0.22297464  1.0
  Ga  Ga167  1  0.50000000  0.78663683  0.22297464  1.0
  Ga  Ga168  1  0.83333333  0.11997017  0.22297464  1.0
  Ga  Ga169  1  0.83333333  0.45330350  0.22297464  1.0
  Ga  Ga170  1  0.83333333  0.78663683  0.22297464  1.0
  Ga  Ga171  1  0.16666667  0.28663683  0.15154607  1.0
  Ga  Ga172  1  0.16666667  0.61997017  0.15154607  1.0
  Ga  Ga173  1  0.16666667  0.95330350  0.15154607  1.0
  Ga  Ga174  1  0.50000000  0.28663683  0.15154607  1.0
  Ga  Ga175  1  0.50000000  0.61997017  0.15154607  1.0
  Ga  Ga176  1  0.50000000  0.95330350  0.15154607  1.0
  Ga  Ga177  1  0.83333333  0.28663683  0.15154607  1.0
  Ga  Ga178  1  0.83333333  0.61997017  0.15154607  1.0
  Ga  Ga179  1  0.83333333  0.95330350  0.15154607  1.0
  Ga  Ga180  1  0.16666667  0.04669650  0.25437764  1.0
  Ga  Ga181  1  0.16666667  0.38002983  0.25437764  1.0
  Ga  Ga182  1  0.16666667  0.71336317  0.25437764  1.0
  Ga  Ga183  1  0.50000000  0.04669650  0.25437764  1.0
  Ga  Ga184  1  0.50000000  0.38002983  0.25437764  1.0
  Ga  Ga185  1  0.50000000  0.71336317  0.25437764  1.0
  Ga  Ga186  1  0.83333333  0.04669650  0.25437764  1.0
  Ga  Ga187  1  0.83333333  0.38002983  0.25437764  1.0
  Ga  Ga188  1  0.83333333  0.71336317  0.25437764  1.0
  Ga  Ga189  1  0.16666667  0.21336317  0.18294907  1.0
  Ga  Ga190  1  0.16666667  0.54669650  0.18294907  1.0
  Ga  Ga191  1  0.16666667  0.88002983  0.18294907  1.0
  Ga  Ga192  1  0.50000000  0.21336317  0.18294907  1.0
  Ga  Ga193  1  0.50000000  0.54669650  0.18294907  1.0
  Ga  Ga194  1  0.50000000  0.88002983  0.18294907  1.0
  Ga  Ga195  1  0.83333333  0.21336317  0.18294907  1.0
  Ga  Ga196  1  0.83333333  0.54669650  0.18294907  1.0
  Ga  Ga197  1  0.83333333  0.88002983  0.18294907  1.0
  Ni  Ni198  1  0.00000000  0.08333333  0.23867614  1.0
  Ni  Ni199  1  0.00000000  0.41666667  0.23867614  1.0
  Ni  Ni200  1  0.00000000  0.75000000  0.23867614  1.0
  Ni  Ni201  1  0.33333333  0.08333333  0.23867614  1.0
  Ni  Ni202  1  0.33333333  0.41666667  0.23867614  1.0
  Ni  Ni203  1  0.33333333  0.75000000  0.23867614  1.0
  Ni  Ni204  1  0.66666667  0.08333333  0.23867614  1.0
  Ni  Ni205  1  0.66666667  0.41666667  0.23867614  1.0
  Ni  Ni206  1  0.66666667  0.75000000  0.23867614  1.0
  Ni  Ni207  1  0.00000000  0.25000000  0.16724757  1.0
  Ni  Ni208  1  0.00000000  0.58333333  0.16724757  1.0
  Ni  Ni209  1  0.00000000  0.91666667  0.16724757  1.0
  Ni  Ni210  1  0.33333333  0.25000000  0.16724757  1.0
  Ni  Ni211  1  0.33333333  0.58333333  0.16724757  1.0
  Ni  Ni212  1  0.33333333  0.91666667  0.16724757  1.0
  Ni  Ni213  1  0.66666667  0.25000000  0.16724757  1.0
  Ni  Ni214  1  0.66666667  0.58333333  0.16724757  1.0
  Ni  Ni215  1  0.66666667  0.91666667  0.16724757  1.0
  Ni  Ni216  1  0.00000000  0.16666667  0.27439043  1.0
  Ni  Ni217  1  0.00000000  0.50000000  0.27439043  1.0
  Ni  Ni218  1  0.00000000  0.83333333  0.27439043  1.0
  Ni  Ni219  1  0.33333333  0.16666667  0.27439043  1.0
  Ni  Ni220  1  0.33333333  0.50000000  0.27439043  1.0
  Ni  Ni221  1  0.33333333  0.83333333  0.27439043  1.0
  Ni  Ni222  1  0.66666667  0.16666667  0.27439043  1.0
  Ni  Ni223  1  0.66666667  0.50000000  0.27439043  1.0
  Ni  Ni224  1  0.66666667  0.83333333  0.27439043  1.0
  Ni  Ni225  1  0.00000000  0.00000000  0.20296186  1.0
  Ni  Ni226  1  0.00000000  0.33333333  0.20296186  1.0
  Ni  Ni227  1  0.00000000  0.66666667  0.20296186  1.0
  Ni  Ni228  1  0.33333333  0.00000000  0.20296186  1.0
  Ni  Ni229  1  0.33333333  0.33333333  0.20296186  1.0
  Ni  Ni230  1  0.33333333  0.66666667  0.20296186  1.0
  Ni  Ni231  1  0.66666667  0.00000000  0.20296186  1.0
  Ni  Ni232  1  0.66666667  0.33333333  0.20296186  1.0
  Ni  Ni233  1  0.66666667  0.66666667  0.20296186  1.0
  Ni  Ni234  1  0.00000000  0.08333333  0.16724757  1.0
  Ni  Ni235  1  0.00000000  0.41666667  0.16724757  1.0
  Ni  Ni236  1  0.00000000  0.75000000  0.16724757  1.0
  Ni  Ni237  1  0.33333333  0.08333333  0.16724757  1.0
  Ni  Ni238  1  0.33333333  0.41666667  0.16724757  1.0
  Ni  Ni239  1  0.33333333  0.75000000  0.16724757  1.0
  Ni  Ni240  1  0.66666667  0.08333333  0.16724757  1.0
  Ni  Ni241  1  0.66666667  0.41666667  0.16724757  1.0
  Ni  Ni242  1  0.66666667  0.75000000  0.16724757  1.0
  Ni  Ni243  1  0.00000000  0.25000000  0.23867614  1.0
  Ni  Ni244  1  0.00000000  0.58333333  0.23867614  1.0
  Ni  Ni245  1  0.00000000  0.91666667  0.23867614  1.0
  Ni  Ni246  1  0.33333333  0.25000000  0.23867614  1.0
  Ni  Ni247  1  0.33333333  0.58333333  0.23867614  1.0
  Ni  Ni248  1  0.33333333  0.91666667  0.23867614  1.0
  Ni  Ni249  1  0.66666667  0.25000000  0.23867614  1.0
  Ni  Ni250  1  0.66666667  0.58333333  0.23867614  1.0
  Ni  Ni251  1  0.66666667  0.91666667  0.23867614  1.0
  Ni  Ni252  1  0.16666667  0.03794067  0.18031414  1.0
  Ni  Ni253  1  0.16666667  0.37127400  0.18031414  1.0
  Ni  Ni254  1  0.16666667  0.70460733  0.18031414  1.0
  Ni  Ni255  1  0.50000000  0.03794067  0.18031414  1.0
  Ni  Ni256  1  0.50000000  0.37127400  0.18031414  1.0
  Ni  Ni257  1  0.50000000  0.70460733  0.18031414  1.0
  Ni  Ni258  1  0.83333333  0.03794067  0.18031414  1.0
  Ni  Ni259  1  0.83333333  0.37127400  0.18031414  1.0
  Ni  Ni260  1  0.83333333  0.70460733  0.18031414  1.0
  Ni  Ni261  1  0.16666667  0.20460733  0.25174271  1.0
  Ni  Ni262  1  0.16666667  0.53794067  0.25174271  1.0
  Ni  Ni263  1  0.16666667  0.87127400  0.25174271  1.0
  Ni  Ni264  1  0.50000000  0.20460733  0.25174271  1.0
  Ni  Ni265  1  0.50000000  0.53794067  0.25174271  1.0
  Ni  Ni266  1  0.50000000  0.87127400  0.25174271  1.0
  Ni  Ni267  1  0.83333333  0.20460733  0.25174271  1.0
  Ni  Ni268  1  0.83333333  0.53794067  0.25174271  1.0
  Ni  Ni269  1  0.83333333  0.87127400  0.25174271  1.0
  Ni  Ni270  1  0.16666667  0.12872600  0.15418100  1.0
  Ni  Ni271  1  0.16666667  0.46205933  0.15418100  1.0
  Ni  Ni272  1  0.16666667  0.79539267  0.15418100  1.0
  Ni  Ni273  1  0.50000000  0.12872600  0.15418100  1.0
  Ni  Ni274  1  0.50000000  0.46205933  0.15418100  1.0
  Ni  Ni275  1  0.50000000  0.79539267  0.15418100  1.0
  Ni  Ni276  1  0.83333333  0.12872600  0.15418100  1.0
  Ni  Ni277  1  0.83333333  0.46205933  0.15418100  1.0
  Ni  Ni278  1  0.83333333  0.79539267  0.15418100  1.0
  Ni  Ni279  1  0.16666667  0.29539267  0.22560957  1.0
  Ni  Ni280  1  0.16666667  0.62872600  0.22560957  1.0
  Ni  Ni281  1  0.16666667  0.96205933  0.22560957  1.0
  Ni  Ni282  1  0.50000000  0.29539267  0.22560957  1.0
  Ni  Ni283  1  0.50000000  0.62872600  0.22560957  1.0
  Ni  Ni284  1  0.50000000  0.96205933  0.22560957  1.0
  Ni  Ni285  1  0.83333333  0.29539267  0.22560957  1.0
  Ni  Ni286  1  0.83333333  0.62872600  0.22560957  1.0
  Ni  Ni287  1  0.83333333  0.96205933  0.22560957  1.0
  Ga  Ga288  1  0.00000000  0.16666667  0.34581900  1.0
  Ga  Ga289  1  0.00000000  0.50000000  0.34581900  1.0
  Ga  Ga290  1  0.00000000  0.83333333  0.34581900  1.0
  Ga  Ga291  1  0.33333333  0.16666667  0.34581900  1.0
  Ga  Ga292  1  0.33333333  0.50000000  0.34581900  1.0
  Ga  Ga293  1  0.33333333  0.83333333  0.34581900  1.0
  Ga  Ga294  1  0.66666667  0.16666667  0.34581900  1.0
  Ga  Ga295  1  0.66666667  0.50000000  0.34581900  1.0
  Ga  Ga296  1  0.66666667  0.83333333  0.34581900  1.0
  Ga  Ga297  1  0.00000000  0.00000000  0.41724757  1.0
  Ga  Ga298  1  0.00000000  0.33333333  0.41724757  1.0
  Ga  Ga299  1  0.00000000  0.66666667  0.41724757  1.0
  Ga  Ga300  1  0.33333333  0.00000000  0.41724757  1.0
  Ga  Ga301  1  0.33333333  0.33333333  0.41724757  1.0
  Ga  Ga302  1  0.33333333  0.66666667  0.41724757  1.0
  Ga  Ga303  1  0.66666667  0.00000000  0.41724757  1.0
  Ga  Ga304  1  0.66666667  0.33333333  0.41724757  1.0
  Ga  Ga305  1  0.66666667  0.66666667  0.41724757  1.0
  Ga  Ga306  1  0.16666667  0.11997017  0.36583179  1.0
  Ga  Ga307  1  0.16666667  0.45330350  0.36583179  1.0
  Ga  Ga308  1  0.16666667  0.78663683  0.36583179  1.0
  Ga  Ga309  1  0.50000000  0.11997017  0.36583179  1.0
  Ga  Ga310  1  0.50000000  0.45330350  0.36583179  1.0
  Ga  Ga311  1  0.50000000  0.78663683  0.36583179  1.0
  Ga  Ga312  1  0.83333333  0.11997017  0.36583179  1.0
  Ga  Ga313  1  0.83333333  0.45330350  0.36583179  1.0
  Ga  Ga314  1  0.83333333  0.78663683  0.36583179  1.0
  Ga  Ga315  1  0.16666667  0.28663683  0.29440321  1.0
  Ga  Ga316  1  0.16666667  0.61997017  0.29440321  1.0
  Ga  Ga317  1  0.16666667  0.95330350  0.29440321  1.0
  Ga  Ga318  1  0.50000000  0.28663683  0.29440321  1.0
  Ga  Ga319  1  0.50000000  0.61997017  0.29440321  1.0
  Ga  Ga320  1  0.50000000  0.95330350  0.29440321  1.0
  Ga  Ga321  1  0.83333333  0.28663683  0.29440321  1.0
  Ga  Ga322  1  0.83333333  0.61997017  0.29440321  1.0
  Ga  Ga323  1  0.83333333  0.95330350  0.29440321  1.0
  Ga  Ga324  1  0.16666667  0.04669650  0.39723479  1.0
  Ga  Ga325  1  0.16666667  0.38002983  0.39723479  1.0
  Ga  Ga326  1  0.16666667  0.71336317  0.39723479  1.0
  Ga  Ga327  1  0.50000000  0.04669650  0.39723479  1.0
  Ga  Ga328  1  0.50000000  0.38002983  0.39723479  1.0
  Ga  Ga329  1  0.50000000  0.71336317  0.39723479  1.0
  Ga  Ga330  1  0.83333333  0.04669650  0.39723479  1.0
  Ga  Ga331  1  0.83333333  0.38002983  0.39723479  1.0
  Ga  Ga332  1  0.83333333  0.71336317  0.39723479  1.0
  Ga  Ga333  1  0.16666667  0.21336317  0.32580621  1.0
  Ga  Ga334  1  0.16666667  0.54669650  0.32580621  1.0
  Ga  Ga335  1  0.16666667  0.88002983  0.32580621  1.0
  Ga  Ga336  1  0.50000000  0.21336317  0.32580621  1.0
  Ga  Ga337  1  0.50000000  0.54669650  0.32580621  1.0
  Ga  Ga338  1  0.50000000  0.88002983  0.32580621  1.0
  Ga  Ga339  1  0.83333333  0.21336317  0.32580621  1.0
  Ga  Ga340  1  0.83333333  0.54669650  0.32580621  1.0
  Ga  Ga341  1  0.83333333  0.88002983  0.32580621  1.0
  Ni  Ni342  1  0.00000000  0.08333333  0.38153329  1.0
  Ni  Ni343  1  0.00000000  0.41666667  0.38153329  1.0
  Ni  Ni344  1  0.00000000  0.75000000  0.38153329  1.0
  Ni  Ni345  1  0.33333333  0.08333333  0.38153329  1.0
  Ni  Ni346  1  0.33333333  0.41666667  0.38153329  1.0
  Ni  Ni347  1  0.33333333  0.75000000  0.38153329  1.0
  Ni  Ni348  1  0.66666667  0.08333333  0.38153329  1.0
  Ni  Ni349  1  0.66666667  0.41666667  0.38153329  1.0
  Ni  Ni350  1  0.66666667  0.75000000  0.38153329  1.0
  Ni  Ni351  1  0.00000000  0.25000000  0.31010471  1.0
  Ni  Ni352  1  0.00000000  0.58333333  0.31010471  1.0
  Ni  Ni353  1  0.00000000  0.91666667  0.31010471  1.0
  Ni  Ni354  1  0.33333333  0.25000000  0.31010471  1.0
  Ni  Ni355  1  0.33333333  0.58333333  0.31010471  1.0
  Ni  Ni356  1  0.33333333  0.91666667  0.31010471  1.0
  Ni  Ni357  1  0.66666667  0.25000000  0.31010471  1.0
  Ni  Ni358  1  0.66666667  0.58333333  0.31010471  1.0
  Ni  Ni359  1  0.66666667  0.91666667  0.31010471  1.0
  Ni  Ni360  1  0.00000000  0.16666667  0.41724757  1.0
  Ni  Ni361  1  0.00000000  0.50000000  0.41724757  1.0
  Ni  Ni362  1  0.00000000  0.83333333  0.41724757  1.0
  Ni  Ni363  1  0.33333333  0.16666667  0.41724757  1.0
  Ni  Ni364  1  0.33333333  0.50000000  0.41724757  1.0
  Ni  Ni365  1  0.33333333  0.83333333  0.41724757  1.0
  Ni  Ni366  1  0.66666667  0.16666667  0.41724757  1.0
  Ni  Ni367  1  0.66666667  0.50000000  0.41724757  1.0
  Ni  Ni368  1  0.66666667  0.83333333  0.41724757  1.0
  Ni  Ni369  1  0.00000000  0.00000000  0.34581900  1.0
  Ni  Ni370  1  0.00000000  0.33333333  0.34581900  1.0
  Ni  Ni371  1  0.00000000  0.66666667  0.34581900  1.0
  Ni  Ni372  1  0.33333333  0.00000000  0.34581900  1.0
  Ni  Ni373  1  0.33333333  0.33333333  0.34581900  1.0
  Ni  Ni374  1  0.33333333  0.66666667  0.34581900  1.0
  Ni  Ni375  1  0.66666667  0.00000000  0.34581900  1.0
  Ni  Ni376  1  0.66666667  0.33333333  0.34581900  1.0
  Ni  Ni377  1  0.66666667  0.66666667  0.34581900  1.0
  Ni  Ni378  1  0.00000000  0.08333333  0.31010471  1.0
  Ni  Ni379  1  0.00000000  0.41666667  0.31010471  1.0
  Ni  Ni380  1  0.00000000  0.75000000  0.31010471  1.0
  Ni  Ni381  1  0.33333333  0.08333333  0.31010471  1.0
  Ni  Ni382  1  0.33333333  0.41666667  0.31010471  1.0
  Ni  Ni383  1  0.33333333  0.75000000  0.31010471  1.0
  Ni  Ni384  1  0.66666667  0.08333333  0.31010471  1.0
  Ni  Ni385  1  0.66666667  0.41666667  0.31010471  1.0
  Ni  Ni386  1  0.66666667  0.75000000  0.31010471  1.0
  Ni  Ni387  1  0.00000000  0.25000000  0.38153329  1.0
  Ni  Ni388  1  0.00000000  0.58333333  0.38153329  1.0
  Ni  Ni389  1  0.00000000  0.91666667  0.38153329  1.0
  Ni  Ni390  1  0.33333333  0.25000000  0.38153329  1.0
  Ni  Ni391  1  0.33333333  0.58333333  0.38153329  1.0
  Ni  Ni392  1  0.33333333  0.91666667  0.38153329  1.0
  Ni  Ni393  1  0.66666667  0.25000000  0.38153329  1.0
  Ni  Ni394  1  0.66666667  0.58333333  0.38153329  1.0
  Ni  Ni395  1  0.66666667  0.91666667  0.38153329  1.0
  Ni  Ni396  1  0.16666667  0.03794067  0.32317129  1.0
  Ni  Ni397  1  0.16666667  0.37127400  0.32317129  1.0
  Ni  Ni398  1  0.16666667  0.70460733  0.32317129  1.0
  Ni  Ni399  1  0.50000000  0.03794067  0.32317129  1.0
  Ni  Ni400  1  0.50000000  0.37127400  0.32317129  1.0
  Ni  Ni401  1  0.50000000  0.70460733  0.32317129  1.0
  Ni  Ni402  1  0.83333333  0.03794067  0.32317129  1.0
  Ni  Ni403  1  0.83333333  0.37127400  0.32317129  1.0
  Ni  Ni404  1  0.83333333  0.70460733  0.32317129  1.0
  Ni  Ni405  1  0.16666667  0.20460733  0.39459986  1.0
  Ni  Ni406  1  0.16666667  0.53794067  0.39459986  1.0
  Ni  Ni407  1  0.16666667  0.87127400  0.39459986  1.0
  Ni  Ni408  1  0.50000000  0.20460733  0.39459986  1.0
  Ni  Ni409  1  0.50000000  0.53794067  0.39459986  1.0
  Ni  Ni410  1  0.50000000  0.87127400  0.39459986  1.0
  Ni  Ni411  1  0.83333333  0.20460733  0.39459986  1.0
  Ni  Ni412  1  0.83333333  0.53794067  0.39459986  1.0
  Ni  Ni413  1  0.83333333  0.87127400  0.39459986  1.0
  Ni  Ni414  1  0.16666667  0.12872600  0.29703814  1.0
  Ni  Ni415  1  0.16666667  0.46205933  0.29703814  1.0
  Ni  Ni416  1  0.16666667  0.79539267  0.29703814  1.0
  Ni  Ni417  1  0.50000000  0.12872600  0.29703814  1.0
  Ni  Ni418  1  0.50000000  0.46205933  0.29703814  1.0
  Ni  Ni419  1  0.50000000  0.79539267  0.29703814  1.0
  Ni  Ni420  1  0.83333333  0.12872600  0.29703814  1.0
  Ni  Ni421  1  0.83333333  0.46205933  0.29703814  1.0
  Ni  Ni422  1  0.83333333  0.79539267  0.29703814  1.0
  Ni  Ni423  1  0.16666667  0.29539267  0.36846671  1.0
  Ni  Ni424  1  0.16666667  0.62872600  0.36846671  1.0
  Ni  Ni425  1  0.16666667  0.96205933  0.36846671  1.0
  Ni  Ni426  1  0.50000000  0.29539267  0.36846671  1.0
  Ni  Ni427  1  0.50000000  0.62872600  0.36846671  1.0
  Ni  Ni428  1  0.50000000  0.96205933  0.36846671  1.0
  Ni  Ni429  1  0.83333333  0.29539267  0.36846671  1.0
  Ni  Ni430  1  0.83333333  0.62872600  0.36846671  1.0
  Ni  Ni431  1  0.83333333  0.96205933  0.36846671  1.0
