# generated using pymatgen
data_Ga3Ni5
_symmetry_space_group_name_H-M   'P 1'
_cell_length_a   15.19048605
_cell_length_b   15.19048605
_cell_length_c   29.72726400
_cell_angle_alpha   90.00000000
_cell_angle_beta   90.00000000
_cell_angle_gamma   95.60547062
_symmetry_Int_Tables_number   1
_chemical_formula_structural   Ga3Ni5
_chemical_formula_sum   'Ga81 Ni135'
_cell_volume   6826.78989257
_cell_formula_units_Z   27
loop_
 _symmetry_equiv_pos_site_id
 _symmetry_equiv_pos_as_xyz
  1  'x, y, z'
loop_
 _atom_site_type_symbol
 _atom_site_label
 _atom_site_symmetry_multiplicity
 _atom_site_fract_x
 _atom_site_fract_y
 _atom_site_fract_z
 _atom_site_occupancy
  Ga  Ga0  1  0.00000000  0.00000000  0.09375000  1.0
  Ga  Ga1  1  0.00000000  0.33333333  0.09375000  1.0
  Ga  Ga2  1  0.00000000  0.66666667  0.09375000  1.0
  Ga  Ga3  1  0.33333333  0.00000000  0.09375000  1.0
  Ga  Ga4  1  0.33333333  0.33333333  0.09375000  1.0
  Ga  Ga5  1  0.33333333  0.66666667  0.09375000  1.0
  Ga  Ga6  1  0.66666667  0.00000000  0.09375000  1.0
  Ga  Ga7  1  0.66666667  0.33333333  0.09375000  1.0
  Ga  Ga8  1  0.66666667  0.66666667  0.09375000  1.0
  Ga  Ga9  1  0.23994033  0.09339300  0.03125000  1.0
  Ga  Ga10  1  0.23994033  0.42672633  0.03125000  1.0
  Ga  Ga11  1  0.23994033  0.76005967  0.03125000  1.0
  Ga  Ga12  1  0.57327367  0.09339300  0.03125000  1.0
  Ga  Ga13  1  0.57327367  0.42672633  0.03125000  1.0
  Ga  Ga14  1  0.57327367  0.76005967  0.03125000  1.0
  Ga  Ga15  1  0.90660700  0.09339300  0.03125000  1.0
  Ga  Ga16  1  0.90660700  0.42672633  0.03125000  1.0
  Ga  Ga17  1  0.90660700  0.76005967  0.03125000  1.0
  Ga  Ga18  1  0.09339300  0.23994033  0.03125000  1.0
  Ga  Ga19  1  0.09339300  0.57327367  0.03125000  1.0
  Ga  Ga20  1  0.09339300  0.90660700  0.03125000  1.0
  Ga  Ga21  1  0.42672633  0.23994033  0.03125000  1.0
  Ga  Ga22  1  0.42672633  0.57327367  0.03125000  1.0
  Ga  Ga23  1  0.42672633  0.90660700  0.03125000  1.0
  Ga  Ga24  1  0.76005967  0.23994033  0.03125000  1.0
  Ga  Ga25  1  0.76005967  0.57327367  0.03125000  1.0
  Ga  Ga26  1  0.76005967  0.90660700  0.03125000  1.0
  Ni  Ni27  1  0.16666667  0.16666667  0.09375000  1.0
  Ni  Ni28  1  0.16666667  0.50000000  0.09375000  1.0
  Ni  Ni29  1  0.16666667  0.83333333  0.09375000  1.0
  Ni  Ni30  1  0.50000000  0.16666667  0.09375000  1.0
  Ni  Ni31  1  0.50000000  0.50000000  0.09375000  1.0
  Ni  Ni32  1  0.50000000  0.83333333  0.09375000  1.0
  Ni  Ni33  1  0.83333333  0.16666667  0.09375000  1.0
  Ni  Ni34  1  0.83333333  0.50000000  0.09375000  1.0
  Ni  Ni35  1  0.83333333  0.83333333  0.09375000  1.0
  Ni  Ni36  1  0.16666667  0.00000000  0.09375000  1.0
  Ni  Ni37  1  0.16666667  0.33333333  0.09375000  1.0
  Ni  Ni38  1  0.16666667  0.66666667  0.09375000  1.0
  Ni  Ni39  1  0.50000000  0.00000000  0.09375000  1.0
  Ni  Ni40  1  0.50000000  0.33333333  0.09375000  1.0
  Ni  Ni41  1  0.50000000  0.66666667  0.09375000  1.0
  Ni  Ni42  1  0.83333333  0.00000000  0.09375000  1.0
  Ni  Ni43  1  0.83333333  0.33333333  0.09375000  1.0
  Ni  Ni44  1  0.83333333  0.66666667  0.09375000  1.0
  Ni  Ni45  1  0.00000000  0.16666667  0.09375000  1.0
  Ni  Ni46  1  0.00000000  0.50000000  0.09375000  1.0
  Ni  Ni47  1  0.00000000  0.83333333  0.09375000  1.0
  Ni  Ni48  1  0.33333333  0.16666667  0.09375000  1.0
  Ni  Ni49  1  0.33333333  0.50000000  0.09375000  1.0
  Ni  Ni50  1  0.33333333  0.83333333  0.09375000  1.0
  Ni  Ni51  1  0.66666667  0.16666667  0.09375000  1.0
  Ni  Ni52  1  0.66666667  0.50000000  0.09375000  1.0
  Ni  Ni53  1  0.66666667  0.83333333  0.09375000  1.0
  Ni  Ni54  1  0.25745200  0.25745200  0.03125000  1.0
  Ni  Ni55  1  0.25745200  0.59078533  0.03125000  1.0
  Ni  Ni56  1  0.25745200  0.92411867  0.03125000  1.0
  Ni  Ni57  1  0.59078533  0.25745200  0.03125000  1.0
  Ni  Ni58  1  0.59078533  0.59078533  0.03125000  1.0
  Ni  Ni59  1  0.59078533  0.92411867  0.03125000  1.0
  Ni  Ni60  1  0.92411867  0.25745200  0.03125000  1.0
  Ni  Ni61  1  0.92411867  0.59078533  0.03125000  1.0
  Ni  Ni62  1  0.92411867  0.92411867  0.03125000  1.0
  Ni  Ni63  1  0.07588133  0.07588133  0.03125000  1.0
  Ni  Ni64  1  0.07588133  0.40921467  0.03125000  1.0
  Ni  Ni65  1  0.07588133  0.74254800  0.03125000  1.0
  Ni  Ni66  1  0.40921467  0.07588133  0.03125000  1.0
  Ni  Ni67  1  0.40921467  0.40921467  0.03125000  1.0
  Ni  Ni68  1  0.40921467  0.74254800  0.03125000  1.0
  Ni  Ni69  1  0.74254800  0.07588133  0.03125000  1.0
  Ni  Ni70  1  0.74254800  0.40921467  0.03125000  1.0
  Ni  Ni71  1  0.74254800  0.74254800  0.03125000  1.0
  Ga  Ga72  1  0.00000000  0.00000000  0.21875000  1.0
  Ga  Ga73  1  0.00000000  0.33333333  0.21875000  1.0
  Ga  Ga74  1  0.00000000  0.66666667  0.21875000  1.0
  Ga  Ga75  1  0.33333333  0.00000000  0.21875000  1.0
  Ga  Ga76  1  0.33333333  0.33333333  0.21875000  1.0
  Ga  Ga77  1  0.33333333  0.66666667  0.21875000  1.0
  Ga  Ga78  1  0.66666667  0.00000000  0.21875000  1.0
  Ga  Ga79  1  0.66666667  0.33333333  0.21875000  1.0
  Ga  Ga80  1  0.66666667  0.66666667  0.21875000  1.0
  Ga  Ga81  1  0.23994033  0.09339300  0.15625000  1.0
  Ga  Ga82  1  0.23994033  0.42672633  0.15625000  1.0
  Ga  Ga83  1  0.23994033  0.76005967  0.15625000  1.0
  Ga  Ga84  1  0.57327367  0.09339300  0.15625000  1.0
  Ga  Ga85  1  0.57327367  0.42672633  0.15625000  1.0
  Ga  Ga86  1  0.57327367  0.76005967  0.15625000  1.0
  Ga  Ga87  1  0.90660700  0.09339300  0.15625000  1.0
  Ga  Ga88  1  0.90660700  0.42672633  0.15625000  1.0
  Ga  Ga89  1  0.90660700  0.76005967  0.15625000  1.0
  Ga  Ga90  1  0.09339300  0.23994033  0.15625000  1.0
  Ga  Ga91  1  0.09339300  0.57327367  0.15625000  1.0
  Ga  Ga92  1  0.09339300  0.90660700  0.15625000  1.0
  Ga  Ga93  1  0.42672633  0.23994033  0.15625000  1.0
  Ga  Ga94  1  0.42672633  0.57327367  0.15625000  1.0
  Ga  Ga95  1  0.42672633  0.90660700  0.15625000  1.0
  Ga  Ga96  1  0.76005967  0.23994033  0.15625000  1.0
  Ga  Ga97  1  0.76005967  0.57327367  0.15625000  1.0
  Ga  Ga98  1  0.76005967  0.90660700  0.15625000  1.0
  Ni  Ni99  1  0.16666667  0.16666667  0.21875000  1.0
  Ni  Ni100  1  0.16666667  0.50000000  0.21875000  1.0
  Ni  Ni101  1  0.16666667  0.83333333  0.21875000  1.0
  Ni  Ni102  1  0.50000000  0.16666667  0.21875000  1.0
  Ni  Ni103  1  0.50000000  0.50000000  0.21875000  1.0
  Ni  Ni104  1  0.50000000  0.83333333  0.21875000  1.0
  Ni  Ni105  1  0.83333333  0.16666667  0.21875000  1.0
  Ni  Ni106  1  0.83333333  0.50000000  0.21875000  1.0
  Ni  Ni107  1  0.83333333  0.83333333  0.21875000  1.0
  Ni  Ni108  1  0.16666667  0.00000000  0.21875000  1.0
  Ni  Ni109  1  0.16666667  0.33333333  0.21875000  1.0
  Ni  Ni110  1  0.16666667  0.66666667  0.21875000  1.0
  Ni  Ni111  1  0.50000000  0.00000000  0.21875000  1.0
  Ni  Ni112  1  0.50000000  0.33333333  0.21875000  1.0
  Ni  Ni113  1  0.50000000  0.66666667  0.21875000  1.0
  Ni  Ni114  1  0.83333333  0.00000000  0.21875000  1.0
  Ni  Ni115  1  0.83333333  0.33333333  0.21875000  1.0
  Ni  Ni116  1  0.83333333  0.66666667  0.21875000  1.0
  Ni  Ni117  1  0.00000000  0.16666667  0.21875000  1.0
  Ni  Ni118  1  0.00000000  0.50000000  0.21875000  1.0
  Ni  Ni119  1  0.00000000  0.83333333  0.21875000  1.0
  Ni  Ni120  1  0.33333333  0.16666667  0.21875000  1.0
  Ni  Ni121  1  0.33333333  0.50000000  0.21875000  1.0
  Ni  Ni122  1  0.33333333  0.83333333  0.21875000  1.0
  Ni  Ni123  1  0.66666667  0.16666667  0.21875000  1.0
  Ni  Ni124  1  0.66666667  0.50000000  0.21875000  1.0
  Ni  Ni125  1  0.66666667  0.83333333  0.21875000  1.0
  Ni  Ni126  1  0.25745200  0.25745200  0.15625000  1.0
  Ni  Ni127  1  0.25745200  0.59078533  0.15625000  1.0
  Ni  Ni128  1  0.25745200  0.92411867  0.15625000  1.0
  Ni  Ni129  1  0.59078533  0.25745200  0.15625000  1.0
  Ni  Ni130  1  0.59078533  0.59078533  0.15625000  1.0
  Ni  Ni131  1  0.59078533  0.92411867  0.15625000  1.0
  Ni  Ni132  1  0.92411867  0.25745200  0.15625000  1.0
  Ni  Ni133  1  0.92411867  0.59078533  0.15625000  1.0
  Ni  Ni134  1  0.92411867  0.92411867  0.15625000  1.0
  Ni  Ni135  1  0.07588133  0.07588133  0.15625000  1.0
  Ni  Ni136  1  0.07588133  0.40921467  0.15625000  1.0
  Ni  Ni137  1  0.07588133  0.74254800  0.15625000  1.0
  Ni  Ni138  1  0.40921467  0.07588133  0.15625000  1.0
  Ni  Ni139  1  0.40921467  0.40921467  0.15625000  1.0
  Ni  Ni140  1  0.40921467  0.74254800  0.15625000  1.0
  Ni  Ni141  1  0.74254800  0.07588133  0.15625000  1.0
  Ni  Ni142  1  0.74254800  0.40921467  0.15625000  1.0
  Ni  Ni143  1  0.74254800  0.74254800  0.15625000  1.0
  Ga  Ga144  1  0.00000000  0.00000000  0.34375000  1.0
  Ga  Ga145  1  0.00000000  0.33333333  0.34375000  1.0
  Ga  Ga146  1  0.00000000  0.66666667  0.34375000  1.0
  Ga  Ga147  1  0.33333333  0.00000000  0.34375000  1.0
  Ga  Ga148  1  0.33333333  0.33333333  0.34375000  1.0
  Ga  Ga149  1  0.33333333  0.66666667  0.34375000  1.0
  Ga  Ga150  1  0.66666667  0.00000000  0.34375000  1.0
  Ga  Ga151  1  0.66666667  0.33333333  0.34375000  1.0
  Ga  Ga152  1  0.66666667  0.66666667  0.34375000  1.0
  Ga  Ga153  1  0.23994033  0.09339300  0.28125000  1.0
  Ga  Ga154  1  0.23994033  0.42672633  0.28125000  1.0
  Ga  Ga155  1  0.23994033  0.76005967  0.28125000  1.0
  Ga  Ga156  1  0.57327367  0.09339300  0.28125000  1.0
  Ga  Ga157  1  0.57327367  0.42672633  0.28125000  1.0
  Ga  Ga158  1  0.57327367  0.76005967  0.28125000  1.0
  Ga  Ga159  1  0.90660700  0.09339300  0.28125000  1.0
  Ga  Ga160  1  0.90660700  0.42672633  0.28125000  1.0
  Ga  Ga161  1  0.90660700  0.76005967  0.28125000  1.0
  Ga  Ga162  1  0.09339300  0.23994033  0.28125000  1.0
  Ga  Ga163  1  0.09339300  0.57327367  0.28125000  1.0
  Ga  Ga164  1  0.09339300  0.90660700  0.28125000  1.0
  Ga  Ga165  1  0.42672633  0.23994033  0.28125000  1.0
  Ga  Ga166  1  0.42672633  0.57327367  0.28125000  1.0
  Ga  Ga167  1  0.42672633  0.90660700  0.28125000  1.0
  Ga  Ga168  1  0.76005967  0.23994033  0.28125000  1.0
  Ga  Ga169  1  0.76005967  0.57327367  0.28125000  1.0
  Ga  Ga170  1  0.76005967  0.90660700  0.28125000  1.0
  Ni  Ni171  1  0.16666667  0.16666667  0.34375000  1.0
  Ni  Ni172  1  0.16666667  0.50000000  0.34375000  1.0
  Ni  Ni173  1  0.16666667  0.83333333  0.34375000  1.0
  Ni  Ni174  1  0.50000000  0.16666667  0.34375000  1.0
  Ni  Ni175  1  0.50000000  0.50000000  0.34375000  1.0
  Ni  Ni176  1  0.50000000  0.83333333  0.34375000  1.0
  Ni  Ni177  1  0.83333333  0.16666667  0.34375000  1.0
  Ni  Ni178  1  0.83333333  0.50000000  0.34375000  1.0
  Ni  Ni179  1  0.83333333  0.83333333  0.34375000  1.0
  Ni  Ni180  1  0.16666667  0.00000000  0.34375000  1.0
  Ni  Ni181  1  0.16666667  0.33333333  0.34375000  1.0
  Ni  Ni182  1  0.16666667  0.66666667  0.34375000  1.0
  Ni  Ni183  1  0.50000000  0.00000000  0.34375000  1.0
  Ni  Ni184  1  0.50000000  0.33333333  0.34375000  1.0
  Ni  Ni185  1  0.50000000  0.66666667  0.34375000  1.0
  Ni  Ni186  1  0.83333333  0.00000000  0.34375000  1.0
  Ni  Ni187  1  0.83333333  0.33333333  0.34375000  1.0
  Ni  Ni188  1  0.83333333  0.66666667  0.34375000  1.0
  Ni  Ni189  1  0.00000000  0.16666667  0.34375000  1.0
  Ni  Ni190  1  0.00000000  0.50000000  0.34375000  1.0
  Ni  Ni191  1  0.00000000  0.83333333  0.34375000  1.0
  Ni  Ni192  1  0.33333333  0.16666667  0.34375000  1.0
  Ni  Ni193  1  0.33333333  0.50000000  0.34375000  1.0
  Ni  Ni194  1  0.33333333  0.83333333  0.34375000  1.0
  Ni  Ni195  1  0.66666667  0.16666667  0.34375000  1.0
  Ni  Ni196  1  0.66666667  0.50000000  0.34375000  1.0
  Ni  Ni197  1  0.66666667  0.83333333  0.34375000  1.0
  Ni  Ni198  1  0.25745200  0.25745200  0.28125000  1.0
  Ni  Ni199  1  0.25745200  0.59078533  0.28125000  1.0
  Ni  Ni200  1  0.25745200  0.92411867  0.28125000  1.0
  Ni  Ni201  1  0.59078533  0.25745200  0.28125000  1.0
  Ni  Ni202  1  0.59078533  0.59078533  0.28125000  1.0
  Ni  Ni203  1  0.59078533  0.92411867  0.28125000  1.0
  Ni  Ni204  1  0.92411867  0.25745200  0.28125000  1.0
  Ni  Ni205  1  0.92411867  0.59078533  0.28125000  1.0
  Ni  Ni206  1  0.92411867  0.92411867  0.28125000  1.0
  Ni  Ni207  1  0.07588133  0.07588133  0.28125000  1.0
  Ni  Ni208  1  0.07588133  0.40921467  0.28125000  1.0
  Ni  Ni209  1  0.07588133  0.74254800  0.28125000  1.0
  Ni  Ni210  1  0.40921467  0.07588133  0.28125000  1.0
  Ni  Ni211  1  0.40921467  0.40921467  0.28125000  1.0
  Ni  Ni212  1  0.40921467  0.74254800  0.28125000  1.0
  Ni  Ni213  1  0.74254800  0.07588133  0.28125000  1.0
  Ni  Ni214  1  0.74254800  0.40921467  0.28125000  1.0
  Ni  Ni215  1  0.74254800  0.74254800  0.28125000  1.0
