# generated using pymatgen
data_Ga3Ni2
_symmetry_space_group_name_H-M   'P 1'
_cell_length_a   21.24712842
_cell_length_b   19.08757236
_cell_length_c   57.24616478
_cell_angle_alpha   129.99130270
_cell_angle_beta   150.00000000
_cell_angle_gamma   56.18110075
_symmetry_Int_Tables_number   1
_chemical_formula_structural   Ga3Ni2
_chemical_formula_sum   'Ga162 Ni108'
_cell_volume   8893.57997909
_cell_formula_units_Z   54
loop_
 _symmetry_equiv_pos_site_id
 _symmetry_equiv_pos_as_xyz
  1  'x, y, z'
loop_
 _atom_site_type_symbol
 _atom_site_label
 _atom_site_symmetry_multiplicity
 _atom_site_fract_x
 _atom_site_fract_y
 _atom_site_fract_z
 _atom_site_occupancy
  Ga  Ga0  1  0.00000000  0.00000000  0.06655825  1.0
  Ga  Ga1  1  0.00000000  0.33333333  0.06655825  1.0
  Ga  Ga2  1  0.00000000  0.66666667  0.06655825  1.0
  Ga  Ga3  1  0.33333333  0.00000000  0.06655825  1.0
  Ga  Ga4  1  0.33333333  0.33333333  0.06655825  1.0
  Ga  Ga5  1  0.33333333  0.66666667  0.06655825  1.0
  Ga  Ga6  1  0.66666667  0.00000000  0.06655825  1.0
  Ga  Ga7  1  0.66666667  0.33333333  0.06655825  1.0
  Ga  Ga8  1  0.66666667  0.66666667  0.06655825  1.0
  Ga  Ga9  1  0.11111111  0.12058133  0.02096854  1.0
  Ga  Ga10  1  0.11111111  0.45391467  0.02096854  1.0
  Ga  Ga11  1  0.11111111  0.78724800  0.02096854  1.0
  Ga  Ga12  1  0.44444444  0.12058133  0.02096854  1.0
  Ga  Ga13  1  0.44444444  0.45391467  0.02096854  1.0
  Ga  Ga14  1  0.44444444  0.78724800  0.02096854  1.0
  Ga  Ga15  1  0.77777778  0.12058133  0.02096854  1.0
  Ga  Ga16  1  0.77777778  0.45391467  0.02096854  1.0
  Ga  Ga17  1  0.77777778  0.78724800  0.02096854  1.0
  Ga  Ga18  1  0.22222222  0.21275200  0.04071939  1.0
  Ga  Ga19  1  0.22222222  0.54608533  0.04071939  1.0
  Ga  Ga20  1  0.22222222  0.87941867  0.04071939  1.0
  Ga  Ga21  1  0.55555556  0.21275200  0.04071939  1.0
  Ga  Ga22  1  0.55555556  0.54608533  0.04071939  1.0
  Ga  Ga23  1  0.55555556  0.87941867  0.04071939  1.0
  Ga  Ga24  1  0.88888889  0.21275200  0.04071939  1.0
  Ga  Ga25  1  0.88888889  0.54608533  0.04071939  1.0
  Ga  Ga26  1  0.88888889  0.87941867  0.04071939  1.0
  Ni  Ni27  1  0.11111111  0.28787700  0.05681761  1.0
  Ni  Ni28  1  0.11111111  0.62121033  0.05681761  1.0
  Ni  Ni29  1  0.11111111  0.95454367  0.05681761  1.0
  Ni  Ni30  1  0.44444444  0.28787700  0.05681761  1.0
  Ni  Ni31  1  0.44444444  0.62121033  0.05681761  1.0
  Ni  Ni32  1  0.44444444  0.95454367  0.05681761  1.0
  Ni  Ni33  1  0.77777778  0.28787700  0.05681761  1.0
  Ni  Ni34  1  0.77777778  0.62121033  0.05681761  1.0
  Ni  Ni35  1  0.77777778  0.95454367  0.05681761  1.0
  Ni  Ni36  1  0.22222222  0.04545633  0.00487032  1.0
  Ni  Ni37  1  0.22222222  0.37878967  0.00487032  1.0
  Ni  Ni38  1  0.22222222  0.71212300  0.00487032  1.0
  Ni  Ni39  1  0.55555556  0.04545633  0.00487032  1.0
  Ni  Ni40  1  0.55555556  0.37878967  0.00487032  1.0
  Ni  Ni41  1  0.55555556  0.71212300  0.00487032  1.0
  Ni  Ni42  1  0.88888889  0.04545633  0.00487032  1.0
  Ni  Ni43  1  0.88888889  0.37878967  0.00487032  1.0
  Ni  Ni44  1  0.88888889  0.71212300  0.00487032  1.0
  Ga  Ga45  1  0.00000000  0.00000000  0.13798682  1.0
  Ga  Ga46  1  0.00000000  0.33333333  0.13798682  1.0
  Ga  Ga47  1  0.00000000  0.66666667  0.13798682  1.0
  Ga  Ga48  1  0.33333333  0.00000000  0.13798682  1.0
  Ga  Ga49  1  0.33333333  0.33333333  0.13798682  1.0
  Ga  Ga50  1  0.33333333  0.66666667  0.13798682  1.0
  Ga  Ga51  1  0.66666667  0.00000000  0.13798682  1.0
  Ga  Ga52  1  0.66666667  0.33333333  0.13798682  1.0
  Ga  Ga53  1  0.66666667  0.66666667  0.13798682  1.0
  Ga  Ga54  1  0.11111111  0.12058133  0.09239711  1.0
  Ga  Ga55  1  0.11111111  0.45391467  0.09239711  1.0
  Ga  Ga56  1  0.11111111  0.78724800  0.09239711  1.0
  Ga  Ga57  1  0.44444444  0.12058133  0.09239711  1.0
  Ga  Ga58  1  0.44444444  0.45391467  0.09239711  1.0
  Ga  Ga59  1  0.44444444  0.78724800  0.09239711  1.0
  Ga  Ga60  1  0.77777778  0.12058133  0.09239711  1.0
  Ga  Ga61  1  0.77777778  0.45391467  0.09239711  1.0
  Ga  Ga62  1  0.77777778  0.78724800  0.09239711  1.0
  Ga  Ga63  1  0.22222222  0.21275200  0.11214796  1.0
  Ga  Ga64  1  0.22222222  0.54608533  0.11214796  1.0
  Ga  Ga65  1  0.22222222  0.87941867  0.11214796  1.0
  Ga  Ga66  1  0.55555556  0.21275200  0.11214796  1.0
  Ga  Ga67  1  0.55555556  0.54608533  0.11214796  1.0
  Ga  Ga68  1  0.55555556  0.87941867  0.11214796  1.0
  Ga  Ga69  1  0.88888889  0.21275200  0.11214796  1.0
  Ga  Ga70  1  0.88888889  0.54608533  0.11214796  1.0
  Ga  Ga71  1  0.88888889  0.87941867  0.11214796  1.0
  Ni  Ni72  1  0.11111111  0.28787700  0.12824618  1.0
  Ni  Ni73  1  0.11111111  0.62121033  0.12824618  1.0
  Ni  Ni74  1  0.11111111  0.95454367  0.12824618  1.0
  Ni  Ni75  1  0.44444444  0.28787700  0.12824618  1.0
  Ni  Ni76  1  0.44444444  0.62121033  0.12824618  1.0
  Ni  Ni77  1  0.44444444  0.95454367  0.12824618  1.0
  Ni  Ni78  1  0.77777778  0.28787700  0.12824618  1.0
  Ni  Ni79  1  0.77777778  0.62121033  0.12824618  1.0
  Ni  Ni80  1  0.77777778  0.95454367  0.12824618  1.0
  Ni  Ni81  1  0.22222222  0.04545633  0.07629889  1.0
  Ni  Ni82  1  0.22222222  0.37878967  0.07629889  1.0
  Ni  Ni83  1  0.22222222  0.71212300  0.07629889  1.0
  Ni  Ni84  1  0.55555556  0.04545633  0.07629889  1.0
  Ni  Ni85  1  0.55555556  0.37878967  0.07629889  1.0
  Ni  Ni86  1  0.55555556  0.71212300  0.07629889  1.0
  Ni  Ni87  1  0.88888889  0.04545633  0.07629889  1.0
  Ni  Ni88  1  0.88888889  0.37878967  0.07629889  1.0
  Ni  Ni89  1  0.88888889  0.71212300  0.07629889  1.0
  Ga  Ga90  1  0.00000000  0.00000000  0.20941539  1.0
  Ga  Ga91  1  0.00000000  0.33333333  0.20941539  1.0
  Ga  Ga92  1  0.00000000  0.66666667  0.20941539  1.0
  Ga  Ga93  1  0.33333333  0.00000000  0.20941539  1.0
  Ga  Ga94  1  0.33333333  0.33333333  0.20941539  1.0
  Ga  Ga95  1  0.33333333  0.66666667  0.20941539  1.0
  Ga  Ga96  1  0.66666667  0.00000000  0.20941539  1.0
  Ga  Ga97  1  0.66666667  0.33333333  0.20941539  1.0
  Ga  Ga98  1  0.66666667  0.66666667  0.20941539  1.0
  Ga  Ga99  1  0.11111111  0.12058133  0.16382568  1.0
  Ga  Ga100  1  0.11111111  0.45391467  0.16382568  1.0
  Ga  Ga101  1  0.11111111  0.78724800  0.16382568  1.0
  Ga  Ga102  1  0.44444444  0.12058133  0.16382568  1.0
  Ga  Ga103  1  0.44444444  0.45391467  0.16382568  1.0
  Ga  Ga104  1  0.44444444  0.78724800  0.16382568  1.0
  Ga  Ga105  1  0.77777778  0.12058133  0.16382568  1.0
  Ga  Ga106  1  0.77777778  0.45391467  0.16382568  1.0
  Ga  Ga107  1  0.77777778  0.78724800  0.16382568  1.0
  Ga  Ga108  1  0.22222222  0.21275200  0.18357654  1.0
  Ga  Ga109  1  0.22222222  0.54608533  0.18357654  1.0
  Ga  Ga110  1  0.22222222  0.87941867  0.18357654  1.0
  Ga  Ga111  1  0.55555556  0.21275200  0.18357654  1.0
  Ga  Ga112  1  0.55555556  0.54608533  0.18357654  1.0
  Ga  Ga113  1  0.55555556  0.87941867  0.18357654  1.0
  Ga  Ga114  1  0.88888889  0.21275200  0.18357654  1.0
  Ga  Ga115  1  0.88888889  0.54608533  0.18357654  1.0
  Ga  Ga116  1  0.88888889  0.87941867  0.18357654  1.0
  Ni  Ni117  1  0.11111111  0.28787700  0.19967475  1.0
  Ni  Ni118  1  0.11111111  0.62121033  0.19967475  1.0
  Ni  Ni119  1  0.11111111  0.95454367  0.19967475  1.0
  Ni  Ni120  1  0.44444444  0.28787700  0.19967475  1.0
  Ni  Ni121  1  0.44444444  0.62121033  0.19967475  1.0
  Ni  Ni122  1  0.44444444  0.95454367  0.19967475  1.0
  Ni  Ni123  1  0.77777778  0.28787700  0.19967475  1.0
  Ni  Ni124  1  0.77777778  0.62121033  0.19967475  1.0
  Ni  Ni125  1  0.77777778  0.95454367  0.19967475  1.0
  Ni  Ni126  1  0.22222222  0.04545633  0.14772746  1.0
  Ni  Ni127  1  0.22222222  0.37878967  0.14772746  1.0
  Ni  Ni128  1  0.22222222  0.71212300  0.14772746  1.0
  Ni  Ni129  1  0.55555556  0.04545633  0.14772746  1.0
  Ni  Ni130  1  0.55555556  0.37878967  0.14772746  1.0
  Ni  Ni131  1  0.55555556  0.71212300  0.14772746  1.0
  Ni  Ni132  1  0.88888889  0.04545633  0.14772746  1.0
  Ni  Ni133  1  0.88888889  0.37878967  0.14772746  1.0
  Ni  Ni134  1  0.88888889  0.71212300  0.14772746  1.0
  Ga  Ga135  1  0.00000000  0.00000000  0.28084396  1.0
  Ga  Ga136  1  0.00000000  0.33333333  0.28084396  1.0
  Ga  Ga137  1  0.00000000  0.66666667  0.28084396  1.0
  Ga  Ga138  1  0.33333333  0.00000000  0.28084396  1.0
  Ga  Ga139  1  0.33333333  0.33333333  0.28084396  1.0
  Ga  Ga140  1  0.33333333  0.66666667  0.28084396  1.0
  Ga  Ga141  1  0.66666667  0.00000000  0.28084396  1.0
  Ga  Ga142  1  0.66666667  0.33333333  0.28084396  1.0
  Ga  Ga143  1  0.66666667  0.66666667  0.28084396  1.0
  Ga  Ga144  1  0.11111111  0.12058133  0.23525425  1.0
  Ga  Ga145  1  0.11111111  0.45391467  0.23525425  1.0
  Ga  Ga146  1  0.11111111  0.78724800  0.23525425  1.0
  Ga  Ga147  1  0.44444444  0.12058133  0.23525425  1.0
  Ga  Ga148  1  0.44444444  0.45391467  0.23525425  1.0
  Ga  Ga149  1  0.44444444  0.78724800  0.23525425  1.0
  Ga  Ga150  1  0.77777778  0.12058133  0.23525425  1.0
  Ga  Ga151  1  0.77777778  0.45391467  0.23525425  1.0
  Ga  Ga152  1  0.77777778  0.78724800  0.23525425  1.0
  Ga  Ga153  1  0.22222222  0.21275200  0.25500511  1.0
  Ga  Ga154  1  0.22222222  0.54608533  0.25500511  1.0
  Ga  Ga155  1  0.22222222  0.87941867  0.25500511  1.0
  Ga  Ga156  1  0.55555556  0.21275200  0.25500511  1.0
  Ga  Ga157  1  0.55555556  0.54608533  0.25500511  1.0
  Ga  Ga158  1  0.55555556  0.87941867  0.25500511  1.0
  Ga  Ga159  1  0.88888889  0.21275200  0.25500511  1.0
  Ga  Ga160  1  0.88888889  0.54608533  0.25500511  1.0
  Ga  Ga161  1  0.88888889  0.87941867  0.25500511  1.0
  Ni  Ni162  1  0.11111111  0.28787700  0.27110332  1.0
  Ni  Ni163  1  0.11111111  0.62121033  0.27110332  1.0
  Ni  Ni164  1  0.11111111  0.95454367  0.27110332  1.0
  Ni  Ni165  1  0.44444444  0.28787700  0.27110332  1.0
  Ni  Ni166  1  0.44444444  0.62121033  0.27110332  1.0
  Ni  Ni167  1  0.44444444  0.95454367  0.27110332  1.0
  Ni  Ni168  1  0.77777778  0.28787700  0.27110332  1.0
  Ni  Ni169  1  0.77777778  0.62121033  0.27110332  1.0
  Ni  Ni170  1  0.77777778  0.95454367  0.27110332  1.0
  Ni  Ni171  1  0.22222222  0.04545633  0.21915604  1.0
  Ni  Ni172  1  0.22222222  0.37878967  0.21915604  1.0
  Ni  Ni173  1  0.22222222  0.71212300  0.21915604  1.0
  Ni  Ni174  1  0.55555556  0.04545633  0.21915604  1.0
  Ni  Ni175  1  0.55555556  0.37878967  0.21915604  1.0
  Ni  Ni176  1  0.55555556  0.71212300  0.21915604  1.0
  Ni  Ni177  1  0.88888889  0.04545633  0.21915604  1.0
  Ni  Ni178  1  0.88888889  0.37878967  0.21915604  1.0
  Ni  Ni179  1  0.88888889  0.71212300  0.21915604  1.0
  Ga  Ga180  1  0.00000000  0.00000000  0.35227254  1.0
  Ga  Ga181  1  0.00000000  0.33333333  0.35227254  1.0
  Ga  Ga182  1  0.00000000  0.66666667  0.35227254  1.0
  Ga  Ga183  1  0.33333333  0.00000000  0.35227254  1.0
  Ga  Ga184  1  0.33333333  0.33333333  0.35227254  1.0
  Ga  Ga185  1  0.33333333  0.66666667  0.35227254  1.0
  Ga  Ga186  1  0.66666667  0.00000000  0.35227254  1.0
  Ga  Ga187  1  0.66666667  0.33333333  0.35227254  1.0
  Ga  Ga188  1  0.66666667  0.66666667  0.35227254  1.0
  Ga  Ga189  1  0.11111111  0.12058133  0.30668282  1.0
  Ga  Ga190  1  0.11111111  0.45391467  0.30668282  1.0
  Ga  Ga191  1  0.11111111  0.78724800  0.30668282  1.0
  Ga  Ga192  1  0.44444444  0.12058133  0.30668282  1.0
  Ga  Ga193  1  0.44444444  0.45391467  0.30668282  1.0
  Ga  Ga194  1  0.44444444  0.78724800  0.30668282  1.0
  Ga  Ga195  1  0.77777778  0.12058133  0.30668282  1.0
  Ga  Ga196  1  0.77777778  0.45391467  0.30668282  1.0
  Ga  Ga197  1  0.77777778  0.78724800  0.30668282  1.0
  Ga  Ga198  1  0.22222222  0.21275200  0.32643368  1.0
  Ga  Ga199  1  0.22222222  0.54608533  0.32643368  1.0
  Ga  Ga200  1  0.22222222  0.87941867  0.32643368  1.0
  Ga  Ga201  1  0.55555556  0.21275200  0.32643368  1.0
  Ga  Ga202  1  0.55555556  0.54608533  0.32643368  1.0
  Ga  Ga203  1  0.55555556  0.87941867  0.32643368  1.0
  Ga  Ga204  1  0.88888889  0.21275200  0.32643368  1.0
  Ga  Ga205  1  0.88888889  0.54608533  0.32643368  1.0
  Ga  Ga206  1  0.88888889  0.87941867  0.32643368  1.0
  Ni  Ni207  1  0.11111111  0.28787700  0.34253189  1.0
  Ni  Ni208  1  0.11111111  0.62121033  0.34253189  1.0
  Ni  Ni209  1  0.11111111  0.95454367  0.34253189  1.0
  Ni  Ni210  1  0.44444444  0.28787700  0.34253189  1.0
  Ni  Ni211  1  0.44444444  0.62121033  0.34253189  1.0
  Ni  Ni212  1  0.44444444  0.95454367  0.34253189  1.0
  Ni  Ni213  1  0.77777778  0.28787700  0.34253189  1.0
  Ni  Ni214  1  0.77777778  0.62121033  0.34253189  1.0
  Ni  Ni215  1  0.77777778  0.95454367  0.34253189  1.0
  Ni  Ni216  1  0.22222222  0.04545633  0.29058461  1.0
  Ni  Ni217  1  0.22222222  0.37878967  0.29058461  1.0
  Ni  Ni218  1  0.22222222  0.71212300  0.29058461  1.0
  Ni  Ni219  1  0.55555556  0.04545633  0.29058461  1.0
  Ni  Ni220  1  0.55555556  0.37878967  0.29058461  1.0
  Ni  Ni221  1  0.55555556  0.71212300  0.29058461  1.0
  Ni  Ni222  1  0.88888889  0.04545633  0.29058461  1.0
  Ni  Ni223  1  0.88888889  0.37878967  0.29058461  1.0
  Ni  Ni224  1  0.88888889  0.71212300  0.29058461  1.0
  Ga  Ga225  1  0.00000000  0.00000000  0.42370111  1.0
  Ga  Ga226  1  0.00000000  0.33333333  0.42370111  1.0
  Ga  Ga227  1  0.00000000  0.66666667  0.42370111  1.0
  Ga  Ga228  1  0.33333333  0.00000000  0.42370111  1.0
  Ga  Ga229  1  0.33333333  0.33333333  0.42370111  1.0
  Ga  Ga230  1  0.33333333  0.66666667  0.42370111  1.0
  Ga  Ga231  1  0.66666667  0.00000000  0.42370111  1.0
  Ga  Ga232  1  0.66666667  0.33333333  0.42370111  1.0
  Ga  Ga233  1  0.66666667  0.66666667  0.42370111  1.0
  Ga  Ga234  1  0.11111111  0.12058133  0.37811139  1.0
  Ga  Ga235  1  0.11111111  0.45391467  0.37811139  1.0
  Ga  Ga236  1  0.11111111  0.78724800  0.37811139  1.0
  Ga  Ga237  1  0.44444444  0.12058133  0.37811139  1.0
  Ga  Ga238  1  0.44444444  0.45391467  0.37811139  1.0
  Ga  Ga239  1  0.44444444  0.78724800  0.37811139  1.0
  Ga  Ga240  1  0.77777778  0.12058133  0.37811139  1.0
  Ga  Ga241  1  0.77777778  0.45391467  0.37811139  1.0
  Ga  Ga242  1  0.77777778  0.78724800  0.37811139  1.0
  Ga  Ga243  1  0.22222222  0.21275200  0.39786225  1.0
  Ga  Ga244  1  0.22222222  0.54608533  0.39786225  1.0
  Ga  Ga245  1  0.22222222  0.87941867  0.39786225  1.0
  Ga  Ga246  1  0.55555556  0.21275200  0.39786225  1.0
  Ga  Ga247  1  0.55555556  0.54608533  0.39786225  1.0
  Ga  Ga248  1  0.55555556  0.87941867  0.39786225  1.0
  Ga  Ga249  1  0.88888889  0.21275200  0.39786225  1.0
  Ga  Ga250  1  0.88888889  0.54608533  0.39786225  1.0
  Ga  Ga251  1  0.88888889  0.87941867  0.39786225  1.0
  Ni  Ni252  1  0.11111111  0.28787700  0.41396046  1.0
  Ni  Ni253  1  0.11111111  0.62121033  0.41396046  1.0
  Ni  Ni254  1  0.11111111  0.95454367  0.41396046  1.0
  Ni  Ni255  1  0.44444444  0.28787700  0.41396046  1.0
  Ni  Ni256  1  0.44444444  0.62121033  0.41396046  1.0
  Ni  Ni257  1  0.44444444  0.95454367  0.41396046  1.0
  Ni  Ni258  1  0.77777778  0.28787700  0.41396046  1.0
  Ni  Ni259  1  0.77777778  0.62121033  0.41396046  1.0
  Ni  Ni260  1  0.77777778  0.95454367  0.41396046  1.0
  Ni  Ni261  1  0.22222222  0.04545633  0.36201318  1.0
  Ni  Ni262  1  0.22222222  0.37878967  0.36201318  1.0
  Ni  Ni263  1  0.22222222  0.71212300  0.36201318  1.0
  Ni  Ni264  1  0.55555556  0.04545633  0.36201318  1.0
  Ni  Ni265  1  0.55555556  0.37878967  0.36201318  1.0
  Ni  Ni266  1  0.55555556  0.71212300  0.36201318  1.0
  Ni  Ni267  1  0.88888889  0.04545633  0.36201318  1.0
  Ni  Ni268  1  0.88888889  0.37878967  0.36201318  1.0
  Ni  Ni269  1  0.88888889  0.71212300  0.36201318  1.0
