# generated using pymatgen
data_Ga3Ni2
_symmetry_space_group_name_H-M   'P 1'
_cell_length_a   12.26703531
_cell_length_b   31.71594564
_cell_length_c   36.80110593
_cell_angle_alpha   112.75417547
_cell_angle_beta   120.00000000
_cell_angle_gamma   78.84936633
_symmetry_Int_Tables_number   1
_chemical_formula_structural   Ga3Ni2
_chemical_formula_sum   'Ga216 Ni144'
_cell_volume   11434.60283025
_cell_formula_units_Z   72
loop_
 _symmetry_equiv_pos_site_id
 _symmetry_equiv_pos_as_xyz
  1  'x, y, z'
loop_
 _atom_site_type_symbol
 _atom_site_label
 _atom_site_symmetry_multiplicity
 _atom_site_fract_x
 _atom_site_fract_y
 _atom_site_fract_z
 _atom_site_occupancy
  Ga  Ga0  1  0.00000000  0.00000000  0.10563988  1.0
  Ga  Ga1  1  0.00000000  0.33333333  0.10563988  1.0
  Ga  Ga2  1  0.00000000  0.66666667  0.10563988  1.0
  Ga  Ga3  1  0.33333333  0.00000000  0.10563988  1.0
  Ga  Ga4  1  0.33333333  0.33333333  0.10563988  1.0
  Ga  Ga5  1  0.33333333  0.66666667  0.10563988  1.0
  Ga  Ga6  1  0.66666667  0.00000000  0.10563988  1.0
  Ga  Ga7  1  0.66666667  0.33333333  0.10563988  1.0
  Ga  Ga8  1  0.66666667  0.66666667  0.10563988  1.0
  Ga  Ga9  1  0.00000000  0.16666667  0.05008432  1.0
  Ga  Ga10  1  0.00000000  0.50000000  0.05008432  1.0
  Ga  Ga11  1  0.00000000  0.83333333  0.05008432  1.0
  Ga  Ga12  1  0.33333333  0.16666667  0.05008432  1.0
  Ga  Ga13  1  0.33333333  0.50000000  0.05008432  1.0
  Ga  Ga14  1  0.33333333  0.83333333  0.05008432  1.0
  Ga  Ga15  1  0.66666667  0.16666667  0.05008432  1.0
  Ga  Ga16  1  0.66666667  0.50000000  0.05008432  1.0
  Ga  Ga17  1  0.66666667  0.83333333  0.05008432  1.0
  Ga  Ga18  1  0.11111111  0.06029067  0.08869973  1.0
  Ga  Ga19  1  0.11111111  0.39362400  0.08869973  1.0
  Ga  Ga20  1  0.11111111  0.72695733  0.08869973  1.0
  Ga  Ga21  1  0.44444444  0.06029067  0.08869973  1.0
  Ga  Ga22  1  0.44444444  0.39362400  0.08869973  1.0
  Ga  Ga23  1  0.44444444  0.72695733  0.08869973  1.0
  Ga  Ga24  1  0.77777778  0.06029067  0.08869973  1.0
  Ga  Ga25  1  0.77777778  0.39362400  0.08869973  1.0
  Ga  Ga26  1  0.77777778  0.72695733  0.08869973  1.0
  Ga  Ga27  1  0.11111111  0.22695733  0.03314418  1.0
  Ga  Ga28  1  0.11111111  0.56029067  0.03314418  1.0
  Ga  Ga29  1  0.11111111  0.89362400  0.03314418  1.0
  Ga  Ga30  1  0.44444444  0.22695733  0.03314418  1.0
  Ga  Ga31  1  0.44444444  0.56029067  0.03314418  1.0
  Ga  Ga32  1  0.44444444  0.89362400  0.03314418  1.0
  Ga  Ga33  1  0.77777778  0.22695733  0.03314418  1.0
  Ga  Ga34  1  0.77777778  0.56029067  0.03314418  1.0
  Ga  Ga35  1  0.77777778  0.89362400  0.03314418  1.0
  Ga  Ga36  1  0.22222222  0.10637600  0.06702447  1.0
  Ga  Ga37  1  0.22222222  0.43970933  0.06702447  1.0
  Ga  Ga38  1  0.22222222  0.77304267  0.06702447  1.0
  Ga  Ga39  1  0.55555556  0.10637600  0.06702447  1.0
  Ga  Ga40  1  0.55555556  0.43970933  0.06702447  1.0
  Ga  Ga41  1  0.55555556  0.77304267  0.06702447  1.0
  Ga  Ga42  1  0.88888889  0.10637600  0.06702447  1.0
  Ga  Ga43  1  0.88888889  0.43970933  0.06702447  1.0
  Ga  Ga44  1  0.88888889  0.77304267  0.06702447  1.0
  Ga  Ga45  1  0.22222222  0.27304267  0.01146892  1.0
  Ga  Ga46  1  0.22222222  0.60637600  0.01146892  1.0
  Ga  Ga47  1  0.22222222  0.93970933  0.01146892  1.0
  Ga  Ga48  1  0.55555556  0.27304267  0.01146892  1.0
  Ga  Ga49  1  0.55555556  0.60637600  0.01146892  1.0
  Ga  Ga50  1  0.55555556  0.93970933  0.01146892  1.0
  Ga  Ga51  1  0.88888889  0.27304267  0.01146892  1.0
  Ga  Ga52  1  0.88888889  0.60637600  0.01146892  1.0
  Ga  Ga53  1  0.88888889  0.93970933  0.01146892  1.0
  Ni  Ni54  1  0.11111111  0.14393850  0.00547123  1.0
  Ni  Ni55  1  0.11111111  0.47727183  0.00547123  1.0
  Ni  Ni56  1  0.11111111  0.81060517  0.00547123  1.0
  Ni  Ni57  1  0.44444444  0.14393850  0.00547123  1.0
  Ni  Ni58  1  0.44444444  0.47727183  0.00547123  1.0
  Ni  Ni59  1  0.44444444  0.81060517  0.00547123  1.0
  Ni  Ni60  1  0.77777778  0.14393850  0.00547123  1.0
  Ni  Ni61  1  0.77777778  0.47727183  0.00547123  1.0
  Ni  Ni62  1  0.77777778  0.81060517  0.00547123  1.0
  Ni  Ni63  1  0.11111111  0.31060517  0.06102679  1.0
  Ni  Ni64  1  0.11111111  0.64393850  0.06102679  1.0
  Ni  Ni65  1  0.11111111  0.97727183  0.06102679  1.0
  Ni  Ni66  1  0.44444444  0.31060517  0.06102679  1.0
  Ni  Ni67  1  0.44444444  0.64393850  0.06102679  1.0
  Ni  Ni68  1  0.44444444  0.97727183  0.06102679  1.0
  Ni  Ni69  1  0.77777778  0.31060517  0.06102679  1.0
  Ni  Ni70  1  0.77777778  0.64393850  0.06102679  1.0
  Ni  Ni71  1  0.77777778  0.97727183  0.06102679  1.0
  Ni  Ni72  1  0.22222222  0.02272817  0.03914186  1.0
  Ni  Ni73  1  0.22222222  0.35606150  0.03914186  1.0
  Ni  Ni74  1  0.22222222  0.68939483  0.03914186  1.0
  Ni  Ni75  1  0.55555556  0.02272817  0.03914186  1.0
  Ni  Ni76  1  0.55555556  0.35606150  0.03914186  1.0
  Ni  Ni77  1  0.55555556  0.68939483  0.03914186  1.0
  Ni  Ni78  1  0.88888889  0.02272817  0.03914186  1.0
  Ni  Ni79  1  0.88888889  0.35606150  0.03914186  1.0
  Ni  Ni80  1  0.88888889  0.68939483  0.03914186  1.0
  Ni  Ni81  1  0.22222222  0.18939483  0.09469742  1.0
  Ni  Ni82  1  0.22222222  0.52272817  0.09469742  1.0
  Ni  Ni83  1  0.22222222  0.85606150  0.09469742  1.0
  Ni  Ni84  1  0.55555556  0.18939483  0.09469742  1.0
  Ni  Ni85  1  0.55555556  0.52272817  0.09469742  1.0
  Ni  Ni86  1  0.55555556  0.85606150  0.09469742  1.0
  Ni  Ni87  1  0.88888889  0.18939483  0.09469742  1.0
  Ni  Ni88  1  0.88888889  0.52272817  0.09469742  1.0
  Ni  Ni89  1  0.88888889  0.85606150  0.09469742  1.0
  Ga  Ga90  1  0.00000000  0.00000000  0.21675099  1.0
  Ga  Ga91  1  0.00000000  0.33333333  0.21675099  1.0
  Ga  Ga92  1  0.00000000  0.66666667  0.21675099  1.0
  Ga  Ga93  1  0.33333333  0.00000000  0.21675099  1.0
  Ga  Ga94  1  0.33333333  0.33333333  0.21675099  1.0
  Ga  Ga95  1  0.33333333  0.66666667  0.21675099  1.0
  Ga  Ga96  1  0.66666667  0.00000000  0.21675099  1.0
  Ga  Ga97  1  0.66666667  0.33333333  0.21675099  1.0
  Ga  Ga98  1  0.66666667  0.66666667  0.21675099  1.0
  Ga  Ga99  1  0.00000000  0.16666667  0.16119544  1.0
  Ga  Ga100  1  0.00000000  0.50000000  0.16119544  1.0
  Ga  Ga101  1  0.00000000  0.83333333  0.16119544  1.0
  Ga  Ga102  1  0.33333333  0.16666667  0.16119544  1.0
  Ga  Ga103  1  0.33333333  0.50000000  0.16119544  1.0
  Ga  Ga104  1  0.33333333  0.83333333  0.16119544  1.0
  Ga  Ga105  1  0.66666667  0.16666667  0.16119544  1.0
  Ga  Ga106  1  0.66666667  0.50000000  0.16119544  1.0
  Ga  Ga107  1  0.66666667  0.83333333  0.16119544  1.0
  Ga  Ga108  1  0.11111111  0.06029067  0.19981084  1.0
  Ga  Ga109  1  0.11111111  0.39362400  0.19981084  1.0
  Ga  Ga110  1  0.11111111  0.72695733  0.19981084  1.0
  Ga  Ga111  1  0.44444444  0.06029067  0.19981084  1.0
  Ga  Ga112  1  0.44444444  0.39362400  0.19981084  1.0
  Ga  Ga113  1  0.44444444  0.72695733  0.19981084  1.0
  Ga  Ga114  1  0.77777778  0.06029067  0.19981084  1.0
  Ga  Ga115  1  0.77777778  0.39362400  0.19981084  1.0
  Ga  Ga116  1  0.77777778  0.72695733  0.19981084  1.0
  Ga  Ga117  1  0.11111111  0.22695733  0.14425529  1.0
  Ga  Ga118  1  0.11111111  0.56029067  0.14425529  1.0
  Ga  Ga119  1  0.11111111  0.89362400  0.14425529  1.0
  Ga  Ga120  1  0.44444444  0.22695733  0.14425529  1.0
  Ga  Ga121  1  0.44444444  0.56029067  0.14425529  1.0
  Ga  Ga122  1  0.44444444  0.89362400  0.14425529  1.0
  Ga  Ga123  1  0.77777778  0.22695733  0.14425529  1.0
  Ga  Ga124  1  0.77777778  0.56029067  0.14425529  1.0
  Ga  Ga125  1  0.77777778  0.89362400  0.14425529  1.0
  Ga  Ga126  1  0.22222222  0.10637600  0.17813558  1.0
  Ga  Ga127  1  0.22222222  0.43970933  0.17813558  1.0
  Ga  Ga128  1  0.22222222  0.77304267  0.17813558  1.0
  Ga  Ga129  1  0.55555556  0.10637600  0.17813558  1.0
  Ga  Ga130  1  0.55555556  0.43970933  0.17813558  1.0
  Ga  Ga131  1  0.55555556  0.77304267  0.17813558  1.0
  Ga  Ga132  1  0.88888889  0.10637600  0.17813558  1.0
  Ga  Ga133  1  0.88888889  0.43970933  0.17813558  1.0
  Ga  Ga134  1  0.88888889  0.77304267  0.17813558  1.0
  Ga  Ga135  1  0.22222222  0.27304267  0.12258003  1.0
  Ga  Ga136  1  0.22222222  0.60637600  0.12258003  1.0
  Ga  Ga137  1  0.22222222  0.93970933  0.12258003  1.0
  Ga  Ga138  1  0.55555556  0.27304267  0.12258003  1.0
  Ga  Ga139  1  0.55555556  0.60637600  0.12258003  1.0
  Ga  Ga140  1  0.55555556  0.93970933  0.12258003  1.0
  Ga  Ga141  1  0.88888889  0.27304267  0.12258003  1.0
  Ga  Ga142  1  0.88888889  0.60637600  0.12258003  1.0
  Ga  Ga143  1  0.88888889  0.93970933  0.12258003  1.0
  Ni  Ni144  1  0.11111111  0.14393850  0.11658234  1.0
  Ni  Ni145  1  0.11111111  0.47727183  0.11658234  1.0
  Ni  Ni146  1  0.11111111  0.81060517  0.11658234  1.0
  Ni  Ni147  1  0.44444444  0.14393850  0.11658234  1.0
  Ni  Ni148  1  0.44444444  0.47727183  0.11658234  1.0
  Ni  Ni149  1  0.44444444  0.81060517  0.11658234  1.0
  Ni  Ni150  1  0.77777778  0.14393850  0.11658234  1.0
  Ni  Ni151  1  0.77777778  0.47727183  0.11658234  1.0
  Ni  Ni152  1  0.77777778  0.81060517  0.11658234  1.0
  Ni  Ni153  1  0.11111111  0.31060517  0.17213790  1.0
  Ni  Ni154  1  0.11111111  0.64393850  0.17213790  1.0
  Ni  Ni155  1  0.11111111  0.97727183  0.17213790  1.0
  Ni  Ni156  1  0.44444444  0.31060517  0.17213790  1.0
  Ni  Ni157  1  0.44444444  0.64393850  0.17213790  1.0
  Ni  Ni158  1  0.44444444  0.97727183  0.17213790  1.0
  Ni  Ni159  1  0.77777778  0.31060517  0.17213790  1.0
  Ni  Ni160  1  0.77777778  0.64393850  0.17213790  1.0
  Ni  Ni161  1  0.77777778  0.97727183  0.17213790  1.0
  Ni  Ni162  1  0.22222222  0.02272817  0.15025297  1.0
  Ni  Ni163  1  0.22222222  0.35606150  0.15025297  1.0
  Ni  Ni164  1  0.22222222  0.68939483  0.15025297  1.0
  Ni  Ni165  1  0.55555556  0.02272817  0.15025297  1.0
  Ni  Ni166  1  0.55555556  0.35606150  0.15025297  1.0
  Ni  Ni167  1  0.55555556  0.68939483  0.15025297  1.0
  Ni  Ni168  1  0.88888889  0.02272817  0.15025297  1.0
  Ni  Ni169  1  0.88888889  0.35606150  0.15025297  1.0
  Ni  Ni170  1  0.88888889  0.68939483  0.15025297  1.0
  Ni  Ni171  1  0.22222222  0.18939483  0.20580853  1.0
  Ni  Ni172  1  0.22222222  0.52272817  0.20580853  1.0
  Ni  Ni173  1  0.22222222  0.85606150  0.20580853  1.0
  Ni  Ni174  1  0.55555556  0.18939483  0.20580853  1.0
  Ni  Ni175  1  0.55555556  0.52272817  0.20580853  1.0
  Ni  Ni176  1  0.55555556  0.85606150  0.20580853  1.0
  Ni  Ni177  1  0.88888889  0.18939483  0.20580853  1.0
  Ni  Ni178  1  0.88888889  0.52272817  0.20580853  1.0
  Ni  Ni179  1  0.88888889  0.85606150  0.20580853  1.0
  Ga  Ga180  1  0.00000000  0.00000000  0.32786210  1.0
  Ga  Ga181  1  0.00000000  0.33333333  0.32786210  1.0
  Ga  Ga182  1  0.00000000  0.66666667  0.32786210  1.0
  Ga  Ga183  1  0.33333333  0.00000000  0.32786210  1.0
  Ga  Ga184  1  0.33333333  0.33333333  0.32786210  1.0
  Ga  Ga185  1  0.33333333  0.66666667  0.32786210  1.0
  Ga  Ga186  1  0.66666667  0.00000000  0.32786210  1.0
  Ga  Ga187  1  0.66666667  0.33333333  0.32786210  1.0
  Ga  Ga188  1  0.66666667  0.66666667  0.32786210  1.0
  Ga  Ga189  1  0.00000000  0.16666667  0.27230655  1.0
  Ga  Ga190  1  0.00000000  0.50000000  0.27230655  1.0
  Ga  Ga191  1  0.00000000  0.83333333  0.27230655  1.0
  Ga  Ga192  1  0.33333333  0.16666667  0.27230655  1.0
  Ga  Ga193  1  0.33333333  0.50000000  0.27230655  1.0
  Ga  Ga194  1  0.33333333  0.83333333  0.27230655  1.0
  Ga  Ga195  1  0.66666667  0.16666667  0.27230655  1.0
  Ga  Ga196  1  0.66666667  0.50000000  0.27230655  1.0
  Ga  Ga197  1  0.66666667  0.83333333  0.27230655  1.0
  Ga  Ga198  1  0.11111111  0.06029067  0.31092195  1.0
  Ga  Ga199  1  0.11111111  0.39362400  0.31092195  1.0
  Ga  Ga200  1  0.11111111  0.72695733  0.31092195  1.0
  Ga  Ga201  1  0.44444444  0.06029067  0.31092195  1.0
  Ga  Ga202  1  0.44444444  0.39362400  0.31092195  1.0
  Ga  Ga203  1  0.44444444  0.72695733  0.31092195  1.0
  Ga  Ga204  1  0.77777778  0.06029067  0.31092195  1.0
  Ga  Ga205  1  0.77777778  0.39362400  0.31092195  1.0
  Ga  Ga206  1  0.77777778  0.72695733  0.31092195  1.0
  Ga  Ga207  1  0.11111111  0.22695733  0.25536640  1.0
  Ga  Ga208  1  0.11111111  0.56029067  0.25536640  1.0
  Ga  Ga209  1  0.11111111  0.89362400  0.25536640  1.0
  Ga  Ga210  1  0.44444444  0.22695733  0.25536640  1.0
  Ga  Ga211  1  0.44444444  0.56029067  0.25536640  1.0
  Ga  Ga212  1  0.44444444  0.89362400  0.25536640  1.0
  Ga  Ga213  1  0.77777778  0.22695733  0.25536640  1.0
  Ga  Ga214  1  0.77777778  0.56029067  0.25536640  1.0
  Ga  Ga215  1  0.77777778  0.89362400  0.25536640  1.0
  Ga  Ga216  1  0.22222222  0.10637600  0.28924669  1.0
  Ga  Ga217  1  0.22222222  0.43970933  0.28924669  1.0
  Ga  Ga218  1  0.22222222  0.77304267  0.28924669  1.0
  Ga  Ga219  1  0.55555556  0.10637600  0.28924669  1.0
  Ga  Ga220  1  0.55555556  0.43970933  0.28924669  1.0
  Ga  Ga221  1  0.55555556  0.77304267  0.28924669  1.0
  Ga  Ga222  1  0.88888889  0.10637600  0.28924669  1.0
  Ga  Ga223  1  0.88888889  0.43970933  0.28924669  1.0
  Ga  Ga224  1  0.88888889  0.77304267  0.28924669  1.0
  Ga  Ga225  1  0.22222222  0.27304267  0.23369114  1.0
  Ga  Ga226  1  0.22222222  0.60637600  0.23369114  1.0
  Ga  Ga227  1  0.22222222  0.93970933  0.23369114  1.0
  Ga  Ga228  1  0.55555556  0.27304267  0.23369114  1.0
  Ga  Ga229  1  0.55555556  0.60637600  0.23369114  1.0
  Ga  Ga230  1  0.55555556  0.93970933  0.23369114  1.0
  Ga  Ga231  1  0.88888889  0.27304267  0.23369114  1.0
  Ga  Ga232  1  0.88888889  0.60637600  0.23369114  1.0
  Ga  Ga233  1  0.88888889  0.93970933  0.23369114  1.0
  Ni  Ni234  1  0.11111111  0.14393850  0.22769345  1.0
  Ni  Ni235  1  0.11111111  0.47727183  0.22769345  1.0
  Ni  Ni236  1  0.11111111  0.81060517  0.22769345  1.0
  Ni  Ni237  1  0.44444444  0.14393850  0.22769345  1.0
  Ni  Ni238  1  0.44444444  0.47727183  0.22769345  1.0
  Ni  Ni239  1  0.44444444  0.81060517  0.22769345  1.0
  Ni  Ni240  1  0.77777778  0.14393850  0.22769345  1.0
  Ni  Ni241  1  0.77777778  0.47727183  0.22769345  1.0
  Ni  Ni242  1  0.77777778  0.81060517  0.22769345  1.0
  Ni  Ni243  1  0.11111111  0.31060517  0.28324901  1.0
  Ni  Ni244  1  0.11111111  0.64393850  0.28324901  1.0
  Ni  Ni245  1  0.11111111  0.97727183  0.28324901  1.0
  Ni  Ni246  1  0.44444444  0.31060517  0.28324901  1.0
  Ni  Ni247  1  0.44444444  0.64393850  0.28324901  1.0
  Ni  Ni248  1  0.44444444  0.97727183  0.28324901  1.0
  Ni  Ni249  1  0.77777778  0.31060517  0.28324901  1.0
  Ni  Ni250  1  0.77777778  0.64393850  0.28324901  1.0
  Ni  Ni251  1  0.77777778  0.97727183  0.28324901  1.0
  Ni  Ni252  1  0.22222222  0.02272817  0.26136408  1.0
  Ni  Ni253  1  0.22222222  0.35606150  0.26136408  1.0
  Ni  Ni254  1  0.22222222  0.68939483  0.26136408  1.0
  Ni  Ni255  1  0.55555556  0.02272817  0.26136408  1.0
  Ni  Ni256  1  0.55555556  0.35606150  0.26136408  1.0
  Ni  Ni257  1  0.55555556  0.68939483  0.26136408  1.0
  Ni  Ni258  1  0.88888889  0.02272817  0.26136408  1.0
  Ni  Ni259  1  0.88888889  0.35606150  0.26136408  1.0
  Ni  Ni260  1  0.88888889  0.68939483  0.26136408  1.0
  Ni  Ni261  1  0.22222222  0.18939483  0.31691964  1.0
  Ni  Ni262  1  0.22222222  0.52272817  0.31691964  1.0
  Ni  Ni263  1  0.22222222  0.85606150  0.31691964  1.0
  Ni  Ni264  1  0.55555556  0.18939483  0.31691964  1.0
  Ni  Ni265  1  0.55555556  0.52272817  0.31691964  1.0
  Ni  Ni266  1  0.55555556  0.85606150  0.31691964  1.0
  Ni  Ni267  1  0.88888889  0.18939483  0.31691964  1.0
  Ni  Ni268  1  0.88888889  0.52272817  0.31691964  1.0
  Ni  Ni269  1  0.88888889  0.85606150  0.31691964  1.0
  Ga  Ga270  1  0.00000000  0.00000000  0.43897321  1.0
  Ga  Ga271  1  0.00000000  0.33333333  0.43897321  1.0
  Ga  Ga272  1  0.00000000  0.66666667  0.43897321  1.0
  Ga  Ga273  1  0.33333333  0.00000000  0.43897321  1.0
  Ga  Ga274  1  0.33333333  0.33333333  0.43897321  1.0
  Ga  Ga275  1  0.33333333  0.66666667  0.43897321  1.0
  Ga  Ga276  1  0.66666667  0.00000000  0.43897321  1.0
  Ga  Ga277  1  0.66666667  0.33333333  0.43897321  1.0
  Ga  Ga278  1  0.66666667  0.66666667  0.43897321  1.0
  Ga  Ga279  1  0.00000000  0.16666667  0.38341766  1.0
  Ga  Ga280  1  0.00000000  0.50000000  0.38341766  1.0
  Ga  Ga281  1  0.00000000  0.83333333  0.38341766  1.0
  Ga  Ga282  1  0.33333333  0.16666667  0.38341766  1.0
  Ga  Ga283  1  0.33333333  0.50000000  0.38341766  1.0
  Ga  Ga284  1  0.33333333  0.83333333  0.38341766  1.0
  Ga  Ga285  1  0.66666667  0.16666667  0.38341766  1.0
  Ga  Ga286  1  0.66666667  0.50000000  0.38341766  1.0
  Ga  Ga287  1  0.66666667  0.83333333  0.38341766  1.0
  Ga  Ga288  1  0.11111111  0.06029067  0.42203306  1.0
  Ga  Ga289  1  0.11111111  0.39362400  0.42203306  1.0
  Ga  Ga290  1  0.11111111  0.72695733  0.42203306  1.0
  Ga  Ga291  1  0.44444444  0.06029067  0.42203306  1.0
  Ga  Ga292  1  0.44444444  0.39362400  0.42203306  1.0
  Ga  Ga293  1  0.44444444  0.72695733  0.42203306  1.0
  Ga  Ga294  1  0.77777778  0.06029067  0.42203306  1.0
  Ga  Ga295  1  0.77777778  0.39362400  0.42203306  1.0
  Ga  Ga296  1  0.77777778  0.72695733  0.42203306  1.0
  Ga  Ga297  1  0.11111111  0.22695733  0.36647751  1.0
  Ga  Ga298  1  0.11111111  0.56029067  0.36647751  1.0
  Ga  Ga299  1  0.11111111  0.89362400  0.36647751  1.0
  Ga  Ga300  1  0.44444444  0.22695733  0.36647751  1.0
  Ga  Ga301  1  0.44444444  0.56029067  0.36647751  1.0
  Ga  Ga302  1  0.44444444  0.89362400  0.36647751  1.0
  Ga  Ga303  1  0.77777778  0.22695733  0.36647751  1.0
  Ga  Ga304  1  0.77777778  0.56029067  0.36647751  1.0
  Ga  Ga305  1  0.77777778  0.89362400  0.36647751  1.0
  Ga  Ga306  1  0.22222222  0.10637600  0.40035781  1.0
  Ga  Ga307  1  0.22222222  0.43970933  0.40035781  1.0
  Ga  Ga308  1  0.22222222  0.77304267  0.40035781  1.0
  Ga  Ga309  1  0.55555556  0.10637600  0.40035781  1.0
  Ga  Ga310  1  0.55555556  0.43970933  0.40035781  1.0
  Ga  Ga311  1  0.55555556  0.77304267  0.40035781  1.0
  Ga  Ga312  1  0.88888889  0.10637600  0.40035781  1.0
  Ga  Ga313  1  0.88888889  0.43970933  0.40035781  1.0
  Ga  Ga314  1  0.88888889  0.77304267  0.40035781  1.0
  Ga  Ga315  1  0.22222222  0.27304267  0.34480225  1.0
  Ga  Ga316  1  0.22222222  0.60637600  0.34480225  1.0
  Ga  Ga317  1  0.22222222  0.93970933  0.34480225  1.0
  Ga  Ga318  1  0.55555556  0.27304267  0.34480225  1.0
  Ga  Ga319  1  0.55555556  0.60637600  0.34480225  1.0
  Ga  Ga320  1  0.55555556  0.93970933  0.34480225  1.0
  Ga  Ga321  1  0.88888889  0.27304267  0.34480225  1.0
  Ga  Ga322  1  0.88888889  0.60637600  0.34480225  1.0
  Ga  Ga323  1  0.88888889  0.93970933  0.34480225  1.0
  Ni  Ni324  1  0.11111111  0.14393850  0.33880456  1.0
  Ni  Ni325  1  0.11111111  0.47727183  0.33880456  1.0
  Ni  Ni326  1  0.11111111  0.81060517  0.33880456  1.0
  Ni  Ni327  1  0.44444444  0.14393850  0.33880456  1.0
  Ni  Ni328  1  0.44444444  0.47727183  0.33880456  1.0
  Ni  Ni329  1  0.44444444  0.81060517  0.33880456  1.0
  Ni  Ni330  1  0.77777778  0.14393850  0.33880456  1.0
  Ni  Ni331  1  0.77777778  0.47727183  0.33880456  1.0
  Ni  Ni332  1  0.77777778  0.81060517  0.33880456  1.0
  Ni  Ni333  1  0.11111111  0.31060517  0.39436012  1.0
  Ni  Ni334  1  0.11111111  0.64393850  0.39436012  1.0
  Ni  Ni335  1  0.11111111  0.97727183  0.39436012  1.0
  Ni  Ni336  1  0.44444444  0.31060517  0.39436012  1.0
  Ni  Ni337  1  0.44444444  0.64393850  0.39436012  1.0
  Ni  Ni338  1  0.44444444  0.97727183  0.39436012  1.0
  Ni  Ni339  1  0.77777778  0.31060517  0.39436012  1.0
  Ni  Ni340  1  0.77777778  0.64393850  0.39436012  1.0
  Ni  Ni341  1  0.77777778  0.97727183  0.39436012  1.0
  Ni  Ni342  1  0.22222222  0.02272817  0.37247519  1.0
  Ni  Ni343  1  0.22222222  0.35606150  0.37247519  1.0
  Ni  Ni344  1  0.22222222  0.68939483  0.37247519  1.0
  Ni  Ni345  1  0.55555556  0.02272817  0.37247519  1.0
  Ni  Ni346  1  0.55555556  0.35606150  0.37247519  1.0
  Ni  Ni347  1  0.55555556  0.68939483  0.37247519  1.0
  Ni  Ni348  1  0.88888889  0.02272817  0.37247519  1.0
  Ni  Ni349  1  0.88888889  0.35606150  0.37247519  1.0
  Ni  Ni350  1  0.88888889  0.68939483  0.37247519  1.0
  Ni  Ni351  1  0.22222222  0.18939483  0.42803075  1.0
  Ni  Ni352  1  0.22222222  0.52272817  0.42803075  1.0
  Ni  Ni353  1  0.22222222  0.85606150  0.42803075  1.0
  Ni  Ni354  1  0.55555556  0.18939483  0.42803075  1.0
  Ni  Ni355  1  0.55555556  0.52272817  0.42803075  1.0
  Ni  Ni356  1  0.55555556  0.85606150  0.42803075  1.0
  Ni  Ni357  1  0.88888889  0.18939483  0.42803075  1.0
  Ni  Ni358  1  0.88888889  0.52272817  0.42803075  1.0
  Ni  Ni359  1  0.88888889  0.85606150  0.42803075  1.0
