# generated using pymatgen
data_Ga5Ni
_symmetry_space_group_name_H-M   'P 1'
_cell_length_a   26.98068313
_cell_length_b   19.07822400
_cell_length_c   46.82879089
_cell_angle_alpha   61.62083194
_cell_angle_beta   47.76431421
_cell_angle_gamma   45.00000000
_symmetry_Int_Tables_number   1
_chemical_formula_structural   Ga5Ni
_chemical_formula_sum   'Ga270 Ni54'
_cell_volume   12619.64325453
_cell_formula_units_Z   54
loop_
 _symmetry_equiv_pos_site_id
 _symmetry_equiv_pos_as_xyz
  1  'x, y, z'
loop_
 _atom_site_type_symbol
 _atom_site_label
 _atom_site_symmetry_multiplicity
 _atom_site_fract_x
 _atom_site_fract_y
 _atom_site_fract_z
 _atom_site_occupancy
  Ga  Ga0  1  0.00000000  0.00000000  0.12235843  1.0
  Ga  Ga1  1  0.00000000  0.33333333  0.12235843  1.0
  Ga  Ga2  1  0.00000000  0.66666667  0.12235843  1.0
  Ga  Ga3  1  0.33333333  0.00000000  0.12235843  1.0
  Ga  Ga4  1  0.33333333  0.33333333  0.12235843  1.0
  Ga  Ga5  1  0.33333333  0.66666667  0.12235843  1.0
  Ga  Ga6  1  0.66666667  0.00000000  0.12235843  1.0
  Ga  Ga7  1  0.66666667  0.33333333  0.12235843  1.0
  Ga  Ga8  1  0.66666667  0.66666667  0.12235843  1.0
  Ga  Ga9  1  0.16666667  0.00000000  0.12235843  1.0
  Ga  Ga10  1  0.16666667  0.33333333  0.12235843  1.0
  Ga  Ga11  1  0.16666667  0.66666667  0.12235843  1.0
  Ga  Ga12  1  0.50000000  0.00000000  0.12235843  1.0
  Ga  Ga13  1  0.50000000  0.33333333  0.12235843  1.0
  Ga  Ga14  1  0.50000000  0.66666667  0.12235843  1.0
  Ga  Ga15  1  0.83333333  0.00000000  0.12235843  1.0
  Ga  Ga16  1  0.83333333  0.33333333  0.12235843  1.0
  Ga  Ga17  1  0.83333333  0.66666667  0.12235843  1.0
  Ga  Ga18  1  0.16879733  0.06674467  0.02049871  1.0
  Ga  Ga19  1  0.16879733  0.40007800  0.02049871  1.0
  Ga  Ga20  1  0.16879733  0.73341133  0.02049871  1.0
  Ga  Ga21  1  0.50213067  0.06674467  0.02049871  1.0
  Ga  Ga22  1  0.50213067  0.40007800  0.02049871  1.0
  Ga  Ga23  1  0.50213067  0.73341133  0.02049871  1.0
  Ga  Ga24  1  0.83546400  0.06674467  0.02049871  1.0
  Ga  Ga25  1  0.83546400  0.40007800  0.02049871  1.0
  Ga  Ga26  1  0.83546400  0.73341133  0.02049871  1.0
  Ga  Ga27  1  0.06887533  0.26658867  0.02049871  1.0
  Ga  Ga28  1  0.06887533  0.59992200  0.02049871  1.0
  Ga  Ga29  1  0.06887533  0.93325533  0.02049871  1.0
  Ga  Ga30  1  0.40220867  0.26658867  0.02049871  1.0
  Ga  Ga31  1  0.40220867  0.59992200  0.02049871  1.0
  Ga  Ga32  1  0.40220867  0.93325533  0.02049871  1.0
  Ga  Ga33  1  0.73554200  0.26658867  0.02049871  1.0
  Ga  Ga34  1  0.73554200  0.59992200  0.02049871  1.0
  Ga  Ga35  1  0.73554200  0.93325533  0.02049871  1.0
  Ga  Ga36  1  0.23554200  0.16666667  0.02049871  1.0
  Ga  Ga37  1  0.23554200  0.50000000  0.02049871  1.0
  Ga  Ga38  1  0.23554200  0.83333333  0.02049871  1.0
  Ga  Ga39  1  0.56887533  0.16666667  0.02049871  1.0
  Ga  Ga40  1  0.56887533  0.50000000  0.02049871  1.0
  Ga  Ga41  1  0.56887533  0.83333333  0.02049871  1.0
  Ga  Ga42  1  0.90220867  0.16666667  0.02049871  1.0
  Ga  Ga43  1  0.90220867  0.50000000  0.02049871  1.0
  Ga  Ga44  1  0.90220867  0.83333333  0.02049871  1.0
  Ga  Ga45  1  0.00213067  0.16666667  0.02049871  1.0
  Ga  Ga46  1  0.00213067  0.50000000  0.02049871  1.0
  Ga  Ga47  1  0.00213067  0.83333333  0.02049871  1.0
  Ga  Ga48  1  0.33546400  0.16666667  0.02049871  1.0
  Ga  Ga49  1  0.33546400  0.50000000  0.02049871  1.0
  Ga  Ga50  1  0.33546400  0.83333333  0.02049871  1.0
  Ga  Ga51  1  0.66879733  0.16666667  0.02049871  1.0
  Ga  Ga52  1  0.66879733  0.50000000  0.02049871  1.0
  Ga  Ga53  1  0.66879733  0.83333333  0.02049871  1.0
  Ga  Ga54  1  0.16453600  0.26658867  0.08136100  1.0
  Ga  Ga55  1  0.16453600  0.59992200  0.08136100  1.0
  Ga  Ga56  1  0.16453600  0.93325533  0.08136100  1.0
  Ga  Ga57  1  0.49786933  0.26658867  0.08136100  1.0
  Ga  Ga58  1  0.49786933  0.59992200  0.08136100  1.0
  Ga  Ga59  1  0.49786933  0.93325533  0.08136100  1.0
  Ga  Ga60  1  0.83120267  0.26658867  0.08136100  1.0
  Ga  Ga61  1  0.83120267  0.59992200  0.08136100  1.0
  Ga  Ga62  1  0.83120267  0.93325533  0.08136100  1.0
  Ga  Ga63  1  0.26445800  0.06674467  0.08136100  1.0
  Ga  Ga64  1  0.26445800  0.40007800  0.08136100  1.0
  Ga  Ga65  1  0.26445800  0.73341133  0.08136100  1.0
  Ga  Ga66  1  0.59779133  0.06674467  0.08136100  1.0
  Ga  Ga67  1  0.59779133  0.40007800  0.08136100  1.0
  Ga  Ga68  1  0.59779133  0.73341133  0.08136100  1.0
  Ga  Ga69  1  0.93112467  0.06674467  0.08136100  1.0
  Ga  Ga70  1  0.93112467  0.40007800  0.08136100  1.0
  Ga  Ga71  1  0.93112467  0.73341133  0.08136100  1.0
  Ga  Ga72  1  0.09779133  0.16666667  0.08136100  1.0
  Ga  Ga73  1  0.09779133  0.50000000  0.08136100  1.0
  Ga  Ga74  1  0.09779133  0.83333333  0.08136100  1.0
  Ga  Ga75  1  0.43112467  0.16666667  0.08136100  1.0
  Ga  Ga76  1  0.43112467  0.50000000  0.08136100  1.0
  Ga  Ga77  1  0.43112467  0.83333333  0.08136100  1.0
  Ga  Ga78  1  0.76445800  0.16666667  0.08136100  1.0
  Ga  Ga79  1  0.76445800  0.50000000  0.08136100  1.0
  Ga  Ga80  1  0.76445800  0.83333333  0.08136100  1.0
  Ga  Ga81  1  0.33120267  0.16666667  0.08136100  1.0
  Ga  Ga82  1  0.33120267  0.50000000  0.08136100  1.0
  Ga  Ga83  1  0.33120267  0.83333333  0.08136100  1.0
  Ga  Ga84  1  0.66453600  0.16666667  0.08136100  1.0
  Ga  Ga85  1  0.66453600  0.50000000  0.08136100  1.0
  Ga  Ga86  1  0.66453600  0.83333333  0.08136100  1.0
  Ga  Ga87  1  0.99786933  0.16666667  0.08136100  1.0
  Ga  Ga88  1  0.99786933  0.50000000  0.08136100  1.0
  Ga  Ga89  1  0.99786933  0.83333333  0.08136100  1.0
  Ni  Ni90  1  0.25000000  0.00000000  0.05092986  1.0
  Ni  Ni91  1  0.25000000  0.33333333  0.05092986  1.0
  Ni  Ni92  1  0.25000000  0.66666667  0.05092986  1.0
  Ni  Ni93  1  0.58333333  0.00000000  0.05092986  1.0
  Ni  Ni94  1  0.58333333  0.33333333  0.05092986  1.0
  Ni  Ni95  1  0.58333333  0.66666667  0.05092986  1.0
  Ni  Ni96  1  0.91666667  0.00000000  0.05092986  1.0
  Ni  Ni97  1  0.91666667  0.33333333  0.05092986  1.0
  Ni  Ni98  1  0.91666667  0.66666667  0.05092986  1.0
  Ni  Ni99  1  0.08333333  0.00000000  0.05092986  1.0
  Ni  Ni100  1  0.08333333  0.33333333  0.05092986  1.0
  Ni  Ni101  1  0.08333333  0.66666667  0.05092986  1.0
  Ni  Ni102  1  0.41666667  0.00000000  0.05092986  1.0
  Ni  Ni103  1  0.41666667  0.33333333  0.05092986  1.0
  Ni  Ni104  1  0.41666667  0.66666667  0.05092986  1.0
  Ni  Ni105  1  0.75000000  0.00000000  0.05092986  1.0
  Ni  Ni106  1  0.75000000  0.33333333  0.05092986  1.0
  Ni  Ni107  1  0.75000000  0.66666667  0.05092986  1.0
  Ga  Ga108  1  0.00000000  0.00000000  0.26521557  1.0
  Ga  Ga109  1  0.00000000  0.33333333  0.26521557  1.0
  Ga  Ga110  1  0.00000000  0.66666667  0.26521557  1.0
  Ga  Ga111  1  0.33333333  0.00000000  0.26521557  1.0
  Ga  Ga112  1  0.33333333  0.33333333  0.26521557  1.0
  Ga  Ga113  1  0.33333333  0.66666667  0.26521557  1.0
  Ga  Ga114  1  0.66666667  0.00000000  0.26521557  1.0
  Ga  Ga115  1  0.66666667  0.33333333  0.26521557  1.0
  Ga  Ga116  1  0.66666667  0.66666667  0.26521557  1.0
  Ga  Ga117  1  0.16666667  0.00000000  0.26521557  1.0
  Ga  Ga118  1  0.16666667  0.33333333  0.26521557  1.0
  Ga  Ga119  1  0.16666667  0.66666667  0.26521557  1.0
  Ga  Ga120  1  0.50000000  0.00000000  0.26521557  1.0
  Ga  Ga121  1  0.50000000  0.33333333  0.26521557  1.0
  Ga  Ga122  1  0.50000000  0.66666667  0.26521557  1.0
  Ga  Ga123  1  0.83333333  0.00000000  0.26521557  1.0
  Ga  Ga124  1  0.83333333  0.33333333  0.26521557  1.0
  Ga  Ga125  1  0.83333333  0.66666667  0.26521557  1.0
  Ga  Ga126  1  0.16879733  0.06674467  0.16335586  1.0
  Ga  Ga127  1  0.16879733  0.40007800  0.16335586  1.0
  Ga  Ga128  1  0.16879733  0.73341133  0.16335586  1.0
  Ga  Ga129  1  0.50213067  0.06674467  0.16335586  1.0
  Ga  Ga130  1  0.50213067  0.40007800  0.16335586  1.0
  Ga  Ga131  1  0.50213067  0.73341133  0.16335586  1.0
  Ga  Ga132  1  0.83546400  0.06674467  0.16335586  1.0
  Ga  Ga133  1  0.83546400  0.40007800  0.16335586  1.0
  Ga  Ga134  1  0.83546400  0.73341133  0.16335586  1.0
  Ga  Ga135  1  0.06887533  0.26658867  0.16335586  1.0
  Ga  Ga136  1  0.06887533  0.59992200  0.16335586  1.0
  Ga  Ga137  1  0.06887533  0.93325533  0.16335586  1.0
  Ga  Ga138  1  0.40220867  0.26658867  0.16335586  1.0
  Ga  Ga139  1  0.40220867  0.59992200  0.16335586  1.0
  Ga  Ga140  1  0.40220867  0.93325533  0.16335586  1.0
  Ga  Ga141  1  0.73554200  0.26658867  0.16335586  1.0
  Ga  Ga142  1  0.73554200  0.59992200  0.16335586  1.0
  Ga  Ga143  1  0.73554200  0.93325533  0.16335586  1.0
  Ga  Ga144  1  0.23554200  0.16666667  0.16335586  1.0
  Ga  Ga145  1  0.23554200  0.50000000  0.16335586  1.0
  Ga  Ga146  1  0.23554200  0.83333333  0.16335586  1.0
  Ga  Ga147  1  0.56887533  0.16666667  0.16335586  1.0
  Ga  Ga148  1  0.56887533  0.50000000  0.16335586  1.0
  Ga  Ga149  1  0.56887533  0.83333333  0.16335586  1.0
  Ga  Ga150  1  0.90220867  0.16666667  0.16335586  1.0
  Ga  Ga151  1  0.90220867  0.50000000  0.16335586  1.0
  Ga  Ga152  1  0.90220867  0.83333333  0.16335586  1.0
  Ga  Ga153  1  0.00213067  0.16666667  0.16335586  1.0
  Ga  Ga154  1  0.00213067  0.50000000  0.16335586  1.0
  Ga  Ga155  1  0.00213067  0.83333333  0.16335586  1.0
  Ga  Ga156  1  0.33546400  0.16666667  0.16335586  1.0
  Ga  Ga157  1  0.33546400  0.50000000  0.16335586  1.0
  Ga  Ga158  1  0.33546400  0.83333333  0.16335586  1.0
  Ga  Ga159  1  0.66879733  0.16666667  0.16335586  1.0
  Ga  Ga160  1  0.66879733  0.50000000  0.16335586  1.0
  Ga  Ga161  1  0.66879733  0.83333333  0.16335586  1.0
  Ga  Ga162  1  0.16453600  0.26658867  0.22421814  1.0
  Ga  Ga163  1  0.16453600  0.59992200  0.22421814  1.0
  Ga  Ga164  1  0.16453600  0.93325533  0.22421814  1.0
  Ga  Ga165  1  0.49786933  0.26658867  0.22421814  1.0
  Ga  Ga166  1  0.49786933  0.59992200  0.22421814  1.0
  Ga  Ga167  1  0.49786933  0.93325533  0.22421814  1.0
  Ga  Ga168  1  0.83120267  0.26658867  0.22421814  1.0
  Ga  Ga169  1  0.83120267  0.59992200  0.22421814  1.0
  Ga  Ga170  1  0.83120267  0.93325533  0.22421814  1.0
  Ga  Ga171  1  0.26445800  0.06674467  0.22421814  1.0
  Ga  Ga172  1  0.26445800  0.40007800  0.22421814  1.0
  Ga  Ga173  1  0.26445800  0.73341133  0.22421814  1.0
  Ga  Ga174  1  0.59779133  0.06674467  0.22421814  1.0
  Ga  Ga175  1  0.59779133  0.40007800  0.22421814  1.0
  Ga  Ga176  1  0.59779133  0.73341133  0.22421814  1.0
  Ga  Ga177  1  0.93112467  0.06674467  0.22421814  1.0
  Ga  Ga178  1  0.93112467  0.40007800  0.22421814  1.0
  Ga  Ga179  1  0.93112467  0.73341133  0.22421814  1.0
  Ga  Ga180  1  0.09779133  0.16666667  0.22421814  1.0
  Ga  Ga181  1  0.09779133  0.50000000  0.22421814  1.0
  Ga  Ga182  1  0.09779133  0.83333333  0.22421814  1.0
  Ga  Ga183  1  0.43112467  0.16666667  0.22421814  1.0
  Ga  Ga184  1  0.43112467  0.50000000  0.22421814  1.0
  Ga  Ga185  1  0.43112467  0.83333333  0.22421814  1.0
  Ga  Ga186  1  0.76445800  0.16666667  0.22421814  1.0
  Ga  Ga187  1  0.76445800  0.50000000  0.22421814  1.0
  Ga  Ga188  1  0.76445800  0.83333333  0.22421814  1.0
  Ga  Ga189  1  0.33120267  0.16666667  0.22421814  1.0
  Ga  Ga190  1  0.33120267  0.50000000  0.22421814  1.0
  Ga  Ga191  1  0.33120267  0.83333333  0.22421814  1.0
  Ga  Ga192  1  0.66453600  0.16666667  0.22421814  1.0
  Ga  Ga193  1  0.66453600  0.50000000  0.22421814  1.0
  Ga  Ga194  1  0.66453600  0.83333333  0.22421814  1.0
  Ga  Ga195  1  0.99786933  0.16666667  0.22421814  1.0
  Ga  Ga196  1  0.99786933  0.50000000  0.22421814  1.0
  Ga  Ga197  1  0.99786933  0.83333333  0.22421814  1.0
  Ni  Ni198  1  0.25000000  0.00000000  0.19378700  1.0
  Ni  Ni199  1  0.25000000  0.33333333  0.19378700  1.0
  Ni  Ni200  1  0.25000000  0.66666667  0.19378700  1.0
  Ni  Ni201  1  0.58333333  0.00000000  0.19378700  1.0
  Ni  Ni202  1  0.58333333  0.33333333  0.19378700  1.0
  Ni  Ni203  1  0.58333333  0.66666667  0.19378700  1.0
  Ni  Ni204  1  0.91666667  0.00000000  0.19378700  1.0
  Ni  Ni205  1  0.91666667  0.33333333  0.19378700  1.0
  Ni  Ni206  1  0.91666667  0.66666667  0.19378700  1.0
  Ni  Ni207  1  0.08333333  0.00000000  0.19378700  1.0
  Ni  Ni208  1  0.08333333  0.33333333  0.19378700  1.0
  Ni  Ni209  1  0.08333333  0.66666667  0.19378700  1.0
  Ni  Ni210  1  0.41666667  0.00000000  0.19378700  1.0
  Ni  Ni211  1  0.41666667  0.33333333  0.19378700  1.0
  Ni  Ni212  1  0.41666667  0.66666667  0.19378700  1.0
  Ni  Ni213  1  0.75000000  0.00000000  0.19378700  1.0
  Ni  Ni214  1  0.75000000  0.33333333  0.19378700  1.0
  Ni  Ni215  1  0.75000000  0.66666667  0.19378700  1.0
  Ga  Ga216  1  0.00000000  0.00000000  0.40807271  1.0
  Ga  Ga217  1  0.00000000  0.33333333  0.40807271  1.0
  Ga  Ga218  1  0.00000000  0.66666667  0.40807271  1.0
  Ga  Ga219  1  0.33333333  0.00000000  0.40807271  1.0
  Ga  Ga220  1  0.33333333  0.33333333  0.40807271  1.0
  Ga  Ga221  1  0.33333333  0.66666667  0.40807271  1.0
  Ga  Ga222  1  0.66666667  0.00000000  0.40807271  1.0
  Ga  Ga223  1  0.66666667  0.33333333  0.40807271  1.0
  Ga  Ga224  1  0.66666667  0.66666667  0.40807271  1.0
  Ga  Ga225  1  0.16666667  0.00000000  0.40807271  1.0
  Ga  Ga226  1  0.16666667  0.33333333  0.40807271  1.0
  Ga  Ga227  1  0.16666667  0.66666667  0.40807271  1.0
  Ga  Ga228  1  0.50000000  0.00000000  0.40807271  1.0
  Ga  Ga229  1  0.50000000  0.33333333  0.40807271  1.0
  Ga  Ga230  1  0.50000000  0.66666667  0.40807271  1.0
  Ga  Ga231  1  0.83333333  0.00000000  0.40807271  1.0
  Ga  Ga232  1  0.83333333  0.33333333  0.40807271  1.0
  Ga  Ga233  1  0.83333333  0.66666667  0.40807271  1.0
  Ga  Ga234  1  0.16879733  0.06674467  0.30621300  1.0
  Ga  Ga235  1  0.16879733  0.40007800  0.30621300  1.0
  Ga  Ga236  1  0.16879733  0.73341133  0.30621300  1.0
  Ga  Ga237  1  0.50213067  0.06674467  0.30621300  1.0
  Ga  Ga238  1  0.50213067  0.40007800  0.30621300  1.0
  Ga  Ga239  1  0.50213067  0.73341133  0.30621300  1.0
  Ga  Ga240  1  0.83546400  0.06674467  0.30621300  1.0
  Ga  Ga241  1  0.83546400  0.40007800  0.30621300  1.0
  Ga  Ga242  1  0.83546400  0.73341133  0.30621300  1.0
  Ga  Ga243  1  0.06887533  0.26658867  0.30621300  1.0
  Ga  Ga244  1  0.06887533  0.59992200  0.30621300  1.0
  Ga  Ga245  1  0.06887533  0.93325533  0.30621300  1.0
  Ga  Ga246  1  0.40220867  0.26658867  0.30621300  1.0
  Ga  Ga247  1  0.40220867  0.59992200  0.30621300  1.0
  Ga  Ga248  1  0.40220867  0.93325533  0.30621300  1.0
  Ga  Ga249  1  0.73554200  0.26658867  0.30621300  1.0
  Ga  Ga250  1  0.73554200  0.59992200  0.30621300  1.0
  Ga  Ga251  1  0.73554200  0.93325533  0.30621300  1.0
  Ga  Ga252  1  0.23554200  0.16666667  0.30621300  1.0
  Ga  Ga253  1  0.23554200  0.50000000  0.30621300  1.0
  Ga  Ga254  1  0.23554200  0.83333333  0.30621300  1.0
  Ga  Ga255  1  0.56887533  0.16666667  0.30621300  1.0
  Ga  Ga256  1  0.56887533  0.50000000  0.30621300  1.0
  Ga  Ga257  1  0.56887533  0.83333333  0.30621300  1.0
  Ga  Ga258  1  0.90220867  0.16666667  0.30621300  1.0
  Ga  Ga259  1  0.90220867  0.50000000  0.30621300  1.0
  Ga  Ga260  1  0.90220867  0.83333333  0.30621300  1.0
  Ga  Ga261  1  0.00213067  0.16666667  0.30621300  1.0
  Ga  Ga262  1  0.00213067  0.50000000  0.30621300  1.0
  Ga  Ga263  1  0.00213067  0.83333333  0.30621300  1.0
  Ga  Ga264  1  0.33546400  0.16666667  0.30621300  1.0
  Ga  Ga265  1  0.33546400  0.50000000  0.30621300  1.0
  Ga  Ga266  1  0.33546400  0.83333333  0.30621300  1.0
  Ga  Ga267  1  0.66879733  0.16666667  0.30621300  1.0
  Ga  Ga268  1  0.66879733  0.50000000  0.30621300  1.0
  Ga  Ga269  1  0.66879733  0.83333333  0.30621300  1.0
  Ga  Ga270  1  0.16453600  0.26658867  0.36707529  1.0
  Ga  Ga271  1  0.16453600  0.59992200  0.36707529  1.0
  Ga  Ga272  1  0.16453600  0.93325533  0.36707529  1.0
  Ga  Ga273  1  0.49786933  0.26658867  0.36707529  1.0
  Ga  Ga274  1  0.49786933  0.59992200  0.36707529  1.0
  Ga  Ga275  1  0.49786933  0.93325533  0.36707529  1.0
  Ga  Ga276  1  0.83120267  0.26658867  0.36707529  1.0
  Ga  Ga277  1  0.83120267  0.59992200  0.36707529  1.0
  Ga  Ga278  1  0.83120267  0.93325533  0.36707529  1.0
  Ga  Ga279  1  0.26445800  0.06674467  0.36707529  1.0
  Ga  Ga280  1  0.26445800  0.40007800  0.36707529  1.0
  Ga  Ga281  1  0.26445800  0.73341133  0.36707529  1.0
  Ga  Ga282  1  0.59779133  0.06674467  0.36707529  1.0
  Ga  Ga283  1  0.59779133  0.40007800  0.36707529  1.0
  Ga  Ga284  1  0.59779133  0.73341133  0.36707529  1.0
  Ga  Ga285  1  0.93112467  0.06674467  0.36707529  1.0
  Ga  Ga286  1  0.93112467  0.40007800  0.36707529  1.0
  Ga  Ga287  1  0.93112467  0.73341133  0.36707529  1.0
  Ga  Ga288  1  0.09779133  0.16666667  0.36707529  1.0
  Ga  Ga289  1  0.09779133  0.50000000  0.36707529  1.0
  Ga  Ga290  1  0.09779133  0.83333333  0.36707529  1.0
  Ga  Ga291  1  0.43112467  0.16666667  0.36707529  1.0
  Ga  Ga292  1  0.43112467  0.50000000  0.36707529  1.0
  Ga  Ga293  1  0.43112467  0.83333333  0.36707529  1.0
  Ga  Ga294  1  0.76445800  0.16666667  0.36707529  1.0
  Ga  Ga295  1  0.76445800  0.50000000  0.36707529  1.0
  Ga  Ga296  1  0.76445800  0.83333333  0.36707529  1.0
  Ga  Ga297  1  0.33120267  0.16666667  0.36707529  1.0
  Ga  Ga298  1  0.33120267  0.50000000  0.36707529  1.0
  Ga  Ga299  1  0.33120267  0.83333333  0.36707529  1.0
  Ga  Ga300  1  0.66453600  0.16666667  0.36707529  1.0
  Ga  Ga301  1  0.66453600  0.50000000  0.36707529  1.0
  Ga  Ga302  1  0.66453600  0.83333333  0.36707529  1.0
  Ga  Ga303  1  0.99786933  0.16666667  0.36707529  1.0
  Ga  Ga304  1  0.99786933  0.50000000  0.36707529  1.0
  Ga  Ga305  1  0.99786933  0.83333333  0.36707529  1.0
  Ni  Ni306  1  0.25000000  0.00000000  0.33664414  1.0
  Ni  Ni307  1  0.25000000  0.33333333  0.33664414  1.0
  Ni  Ni308  1  0.25000000  0.66666667  0.33664414  1.0
  Ni  Ni309  1  0.58333333  0.00000000  0.33664414  1.0
  Ni  Ni310  1  0.58333333  0.33333333  0.33664414  1.0
  Ni  Ni311  1  0.58333333  0.66666667  0.33664414  1.0
  Ni  Ni312  1  0.91666667  0.00000000  0.33664414  1.0
  Ni  Ni313  1  0.91666667  0.33333333  0.33664414  1.0
  Ni  Ni314  1  0.91666667  0.66666667  0.33664414  1.0
  Ni  Ni315  1  0.08333333  0.00000000  0.33664414  1.0
  Ni  Ni316  1  0.08333333  0.33333333  0.33664414  1.0
  Ni  Ni317  1  0.08333333  0.66666667  0.33664414  1.0
  Ni  Ni318  1  0.41666667  0.00000000  0.33664414  1.0
  Ni  Ni319  1  0.41666667  0.33333333  0.33664414  1.0
  Ni  Ni320  1  0.41666667  0.66666667  0.33664414  1.0
  Ni  Ni321  1  0.75000000  0.00000000  0.33664414  1.0
  Ni  Ni322  1  0.75000000  0.33333333  0.33664414  1.0
  Ni  Ni323  1  0.75000000  0.66666667  0.33664414  1.0
