# generated using pymatgen
data_Ga5Ni
_symmetry_space_group_name_H-M   'P 1'
_cell_length_a   20.06948181
_cell_length_b   53.82471216
_cell_length_c   53.51861816
_cell_angle_alpha   141.41263687
_cell_angle_beta   84.47137158
_cell_angle_gamma   116.40503129
_symmetry_Int_Tables_number   1
_chemical_formula_structural   Ga5Ni
_chemical_formula_sum   'Ga540 Ni108'
_cell_volume   28844.89886751
_cell_formula_units_Z   108
loop_
 _symmetry_equiv_pos_site_id
 _symmetry_equiv_pos_as_xyz
  1  'x, y, z'
loop_
 _atom_site_type_symbol
 _atom_site_label
 _atom_site_symmetry_multiplicity
 _atom_site_fract_x
 _atom_site_fract_y
 _atom_site_fract_z
 _atom_site_occupancy
  Ga  Ga0  1  0.00000000  0.00000000  0.12228913  1.0
  Ga  Ga1  1  0.00000000  0.33333333  0.12228913  1.0
  Ga  Ga2  1  0.00000000  0.66666667  0.12228913  1.0
  Ga  Ga3  1  0.33333333  0.00000000  0.12228913  1.0
  Ga  Ga4  1  0.33333333  0.33333333  0.12228913  1.0
  Ga  Ga5  1  0.33333333  0.66666667  0.12228913  1.0
  Ga  Ga6  1  0.66666667  0.00000000  0.12228913  1.0
  Ga  Ga7  1  0.66666667  0.33333333  0.12228913  1.0
  Ga  Ga8  1  0.66666667  0.66666667  0.12228913  1.0
  Ga  Ga9  1  0.00000000  0.16666667  0.05978912  1.0
  Ga  Ga10  1  0.00000000  0.50000000  0.05978913  1.0
  Ga  Ga11  1  0.00000000  0.83333333  0.05978913  1.0
  Ga  Ga12  1  0.33333333  0.16666667  0.05978912  1.0
  Ga  Ga13  1  0.33333333  0.50000000  0.05978913  1.0
  Ga  Ga14  1  0.33333333  0.83333333  0.05978912  1.0
  Ga  Ga15  1  0.66666667  0.16666667  0.05978912  1.0
  Ga  Ga16  1  0.66666667  0.50000000  0.05978912  1.0
  Ga  Ga17  1  0.66666667  0.83333333  0.05978913  1.0
  Ga  Ga18  1  0.16666667  0.00000000  0.05978913  1.0
  Ga  Ga19  1  0.16666667  0.33333333  0.05978913  1.0
  Ga  Ga20  1  0.16666667  0.66666667  0.05978913  1.0
  Ga  Ga21  1  0.50000000  0.00000000  0.05978913  1.0
  Ga  Ga22  1  0.50000000  0.33333333  0.05978913  1.0
  Ga  Ga23  1  0.50000000  0.66666667  0.05978912  1.0
  Ga  Ga24  1  0.83333333  0.00000000  0.05978912  1.0
  Ga  Ga25  1  0.83333333  0.33333333  0.05978913  1.0
  Ga  Ga26  1  0.83333333  0.66666667  0.05978913  1.0
  Ga  Ga27  1  0.16666667  0.16666667  0.12228913  1.0
  Ga  Ga28  1  0.16666667  0.50000000  0.12228912  1.0
  Ga  Ga29  1  0.16666667  0.83333333  0.12228912  1.0
  Ga  Ga30  1  0.50000000  0.16666667  0.12228913  1.0
  Ga  Ga31  1  0.50000000  0.50000000  0.12228913  1.0
  Ga  Ga32  1  0.50000000  0.83333333  0.12228912  1.0
  Ga  Ga33  1  0.83333333  0.16666667  0.12228913  1.0
  Ga  Ga34  1  0.83333333  0.50000000  0.12228913  1.0
  Ga  Ga35  1  0.83333333  0.83333333  0.12228912  1.0
  Ga  Ga36  1  0.16879733  0.13329433  0.04807350  1.0
  Ga  Ga37  1  0.16879733  0.46662767  0.04807350  1.0
  Ga  Ga38  1  0.16879733  0.79996100  0.04807350  1.0
  Ga  Ga39  1  0.50213067  0.13329433  0.04807350  1.0
  Ga  Ga40  1  0.50213067  0.46662767  0.04807350  1.0
  Ga  Ga41  1  0.50213067  0.79996100  0.04807350  1.0
  Ga  Ga42  1  0.83546400  0.13329433  0.04807350  1.0
  Ga  Ga43  1  0.83546400  0.46662767  0.04807350  1.0
  Ga  Ga44  1  0.83546400  0.79996100  0.04807350  1.0
  Ga  Ga45  1  0.16879733  0.29996100  0.11057350  1.0
  Ga  Ga46  1  0.16879733  0.63329433  0.11057350  1.0
  Ga  Ga47  1  0.16879733  0.96662767  0.11057350  1.0
  Ga  Ga48  1  0.50213067  0.29996100  0.11057350  1.0
  Ga  Ga49  1  0.50213067  0.63329433  0.11057350  1.0
  Ga  Ga50  1  0.50213067  0.96662767  0.11057350  1.0
  Ga  Ga51  1  0.83546400  0.29996100  0.11057350  1.0
  Ga  Ga52  1  0.83546400  0.63329433  0.11057350  1.0
  Ga  Ga53  1  0.83546400  0.96662767  0.11057350  1.0
  Ga  Ga54  1  0.06887533  0.03337233  0.09813200  1.0
  Ga  Ga55  1  0.06887533  0.36670567  0.09813200  1.0
  Ga  Ga56  1  0.06887533  0.70003900  0.09813200  1.0
  Ga  Ga57  1  0.40220867  0.03337233  0.09813200  1.0
  Ga  Ga58  1  0.40220867  0.36670567  0.09813200  1.0
  Ga  Ga59  1  0.40220867  0.70003900  0.09813200  1.0
  Ga  Ga60  1  0.73554200  0.03337233  0.09813200  1.0
  Ga  Ga61  1  0.73554200  0.36670567  0.09813200  1.0
  Ga  Ga62  1  0.73554200  0.70003900  0.09813200  1.0
  Ga  Ga63  1  0.06887533  0.20003900  0.03563200  1.0
  Ga  Ga64  1  0.06887533  0.53337233  0.03563200  1.0
  Ga  Ga65  1  0.06887533  0.86670567  0.03563200  1.0
  Ga  Ga66  1  0.40220867  0.20003900  0.03563200  1.0
  Ga  Ga67  1  0.40220867  0.53337233  0.03563200  1.0
  Ga  Ga68  1  0.40220867  0.86670567  0.03563200  1.0
  Ga  Ga69  1  0.73554200  0.20003900  0.03563200  1.0
  Ga  Ga70  1  0.73554200  0.53337233  0.03563200  1.0
  Ga  Ga71  1  0.73554200  0.86670567  0.03563200  1.0
  Ga  Ga72  1  0.23554200  0.08333333  0.09183813  1.0
  Ga  Ga73  1  0.23554200  0.41666667  0.09183813  1.0
  Ga  Ga74  1  0.23554200  0.75000000  0.09183813  1.0
  Ga  Ga75  1  0.56887533  0.08333333  0.09183813  1.0
  Ga  Ga76  1  0.56887533  0.41666667  0.09183813  1.0
  Ga  Ga77  1  0.56887533  0.75000000  0.09183812  1.0
  Ga  Ga78  1  0.90220867  0.08333333  0.09183813  1.0
  Ga  Ga79  1  0.90220867  0.41666667  0.09183813  1.0
  Ga  Ga80  1  0.90220867  0.75000000  0.09183813  1.0
  Ga  Ga81  1  0.23554200  0.25000000  0.02933812  1.0
  Ga  Ga82  1  0.23554200  0.58333333  0.02933813  1.0
  Ga  Ga83  1  0.23554200  0.91666667  0.02933812  1.0
  Ga  Ga84  1  0.56887533  0.25000000  0.02933812  1.0
  Ga  Ga85  1  0.56887533  0.58333333  0.02933813  1.0
  Ga  Ga86  1  0.56887533  0.91666667  0.02933812  1.0
  Ga  Ga87  1  0.90220867  0.25000000  0.02933812  1.0
  Ga  Ga88  1  0.90220867  0.58333333  0.02933812  1.0
  Ga  Ga89  1  0.90220867  0.91666667  0.02933812  1.0
  Ga  Ga90  1  0.00213067  0.08333333  0.05436738  1.0
  Ga  Ga91  1  0.00213067  0.41666667  0.05436737  1.0
  Ga  Ga92  1  0.00213067  0.75000000  0.05436737  1.0
  Ga  Ga93  1  0.33546400  0.08333333  0.05436738  1.0
  Ga  Ga94  1  0.33546400  0.41666667  0.05436737  1.0
  Ga  Ga95  1  0.33546400  0.75000000  0.05436738  1.0
  Ga  Ga96  1  0.66879733  0.08333333  0.05436738  1.0
  Ga  Ga97  1  0.66879733  0.41666667  0.05436737  1.0
  Ga  Ga98  1  0.66879733  0.75000000  0.05436737  1.0
  Ga  Ga99  1  0.00213067  0.25000000  0.11686737  1.0
  Ga  Ga100  1  0.00213067  0.58333333  0.11686737  1.0
  Ga  Ga101  1  0.00213067  0.91666667  0.11686737  1.0
  Ga  Ga102  1  0.33546400  0.25000000  0.11686737  1.0
  Ga  Ga103  1  0.33546400  0.58333333  0.11686738  1.0
  Ga  Ga104  1  0.33546400  0.91666667  0.11686737  1.0
  Ga  Ga105  1  0.66879733  0.25000000  0.11686737  1.0
  Ga  Ga106  1  0.66879733  0.58333333  0.11686737  1.0
  Ga  Ga107  1  0.66879733  0.91666667  0.11686738  1.0
  Ga  Ga108  1  0.16453600  0.03337233  0.00900475  1.0
  Ga  Ga109  1  0.16453600  0.36670567  0.00900475  1.0
  Ga  Ga110  1  0.16453600  0.70003900  0.00900475  1.0
  Ga  Ga111  1  0.49786933  0.03337233  0.00900475  1.0
  Ga  Ga112  1  0.49786933  0.36670567  0.00900475  1.0
  Ga  Ga113  1  0.49786933  0.70003900  0.00900475  1.0
  Ga  Ga114  1  0.83120267  0.03337233  0.00900475  1.0
  Ga  Ga115  1  0.83120267  0.36670567  0.00900475  1.0
  Ga  Ga116  1  0.83120267  0.70003900  0.00900475  1.0
  Ga  Ga117  1  0.16453600  0.20003900  0.07150475  1.0
  Ga  Ga118  1  0.16453600  0.53337233  0.07150475  1.0
  Ga  Ga119  1  0.16453600  0.86670567  0.07150475  1.0
  Ga  Ga120  1  0.49786933  0.20003900  0.07150475  1.0
  Ga  Ga121  1  0.49786933  0.53337233  0.07150475  1.0
  Ga  Ga122  1  0.49786933  0.86670567  0.07150475  1.0
  Ga  Ga123  1  0.83120267  0.20003900  0.07150475  1.0
  Ga  Ga124  1  0.83120267  0.53337233  0.07150475  1.0
  Ga  Ga125  1  0.83120267  0.86670567  0.07150475  1.0
  Ga  Ga126  1  0.26445800  0.13329433  0.08394625  1.0
  Ga  Ga127  1  0.26445800  0.46662767  0.08394625  1.0
  Ga  Ga128  1  0.26445800  0.79996100  0.08394625  1.0
  Ga  Ga129  1  0.59779133  0.13329433  0.08394625  1.0
  Ga  Ga130  1  0.59779133  0.46662767  0.08394625  1.0
  Ga  Ga131  1  0.59779133  0.79996100  0.08394625  1.0
  Ga  Ga132  1  0.93112467  0.13329433  0.08394625  1.0
  Ga  Ga133  1  0.93112467  0.46662767  0.08394625  1.0
  Ga  Ga134  1  0.93112467  0.79996100  0.08394625  1.0
  Ga  Ga135  1  0.26445800  0.29996100  0.02144625  1.0
  Ga  Ga136  1  0.26445800  0.63329433  0.02144625  1.0
  Ga  Ga137  1  0.26445800  0.96662767  0.02144625  1.0
  Ga  Ga138  1  0.59779133  0.29996100  0.02144625  1.0
  Ga  Ga139  1  0.59779133  0.63329433  0.02144625  1.0
  Ga  Ga140  1  0.59779133  0.96662767  0.02144625  1.0
  Ga  Ga141  1  0.93112467  0.29996100  0.02144625  1.0
  Ga  Ga142  1  0.93112467  0.63329433  0.02144625  1.0
  Ga  Ga143  1  0.93112467  0.96662767  0.02144625  1.0
  Ga  Ga144  1  0.09779133  0.08333333  0.09024013  1.0
  Ga  Ga145  1  0.09779133  0.41666667  0.09024012  1.0
  Ga  Ga146  1  0.09779133  0.75000000  0.09024013  1.0
  Ga  Ga147  1  0.43112467  0.08333333  0.09024013  1.0
  Ga  Ga148  1  0.43112467  0.41666667  0.09024013  1.0
  Ga  Ga149  1  0.43112467  0.75000000  0.09024013  1.0
  Ga  Ga150  1  0.76445800  0.08333333  0.09024013  1.0
  Ga  Ga151  1  0.76445800  0.41666667  0.09024012  1.0
  Ga  Ga152  1  0.76445800  0.75000000  0.09024013  1.0
  Ga  Ga153  1  0.09779133  0.25000000  0.02774012  1.0
  Ga  Ga154  1  0.09779133  0.58333333  0.02774013  1.0
  Ga  Ga155  1  0.09779133  0.91666667  0.02774013  1.0
  Ga  Ga156  1  0.43112467  0.25000000  0.02774013  1.0
  Ga  Ga157  1  0.43112467  0.58333333  0.02774013  1.0
  Ga  Ga158  1  0.43112467  0.91666667  0.02774013  1.0
  Ga  Ga159  1  0.76445800  0.25000000  0.02774013  1.0
  Ga  Ga160  1  0.76445800  0.58333333  0.02774013  1.0
  Ga  Ga161  1  0.76445800  0.91666667  0.02774013  1.0
  Ga  Ga162  1  0.33120267  0.08333333  0.00271087  1.0
  Ga  Ga163  1  0.33120267  0.41666667  0.00271088  1.0
  Ga  Ga164  1  0.33120267  0.75000000  0.00271088  1.0
  Ga  Ga165  1  0.66453600  0.08333333  0.00271087  1.0
  Ga  Ga166  1  0.66453600  0.41666667  0.00271088  1.0
  Ga  Ga167  1  0.66453600  0.75000000  0.00271088  1.0
  Ga  Ga168  1  0.99786933  0.08333333  0.00271087  1.0
  Ga  Ga169  1  0.99786933  0.41666667  0.00271088  1.0
  Ga  Ga170  1  0.99786933  0.75000000  0.00271088  1.0
  Ga  Ga171  1  0.33120267  0.25000000  0.06521087  1.0
  Ga  Ga172  1  0.33120267  0.58333333  0.06521088  1.0
  Ga  Ga173  1  0.33120267  0.91666667  0.06521088  1.0
  Ga  Ga174  1  0.66453600  0.25000000  0.06521087  1.0
  Ga  Ga175  1  0.66453600  0.58333333  0.06521088  1.0
  Ga  Ga176  1  0.66453600  0.91666667  0.06521088  1.0
  Ga  Ga177  1  0.99786933  0.25000000  0.06521087  1.0
  Ga  Ga178  1  0.99786933  0.58333333  0.06521088  1.0
  Ga  Ga179  1  0.99786933  0.91666667  0.06521088  1.0
  Ni  Ni180  1  0.25000000  0.00000000  0.09103913  1.0
  Ni  Ni181  1  0.25000000  0.33333333  0.09103913  1.0
  Ni  Ni182  1  0.25000000  0.66666667  0.09103913  1.0
  Ni  Ni183  1  0.58333333  0.00000000  0.09103913  1.0
  Ni  Ni184  1  0.58333333  0.33333333  0.09103913  1.0
  Ni  Ni185  1  0.58333333  0.66666667  0.09103913  1.0
  Ni  Ni186  1  0.91666667  0.00000000  0.09103913  1.0
  Ni  Ni187  1  0.91666667  0.33333333  0.09103913  1.0
  Ni  Ni188  1  0.91666667  0.66666667  0.09103913  1.0
  Ni  Ni189  1  0.25000000  0.16666667  0.02853912  1.0
  Ni  Ni190  1  0.25000000  0.50000000  0.02853912  1.0
  Ni  Ni191  1  0.25000000  0.83333333  0.02853912  1.0
  Ni  Ni192  1  0.58333333  0.16666667  0.02853912  1.0
  Ni  Ni193  1  0.58333333  0.50000000  0.02853912  1.0
  Ni  Ni194  1  0.58333333  0.83333333  0.02853912  1.0
  Ni  Ni195  1  0.91666667  0.16666667  0.02853912  1.0
  Ni  Ni196  1  0.91666667  0.50000000  0.02853912  1.0
  Ni  Ni197  1  0.91666667  0.83333333  0.02853912  1.0
  Ni  Ni198  1  0.08333333  0.00000000  0.02853913  1.0
  Ni  Ni199  1  0.08333333  0.33333333  0.02853913  1.0
  Ni  Ni200  1  0.08333333  0.66666667  0.02853913  1.0
  Ni  Ni201  1  0.41666667  0.00000000  0.02853913  1.0
  Ni  Ni202  1  0.41666667  0.33333333  0.02853913  1.0
  Ni  Ni203  1  0.41666667  0.66666667  0.02853913  1.0
  Ni  Ni204  1  0.75000000  0.00000000  0.02853913  1.0
  Ni  Ni205  1  0.75000000  0.33333333  0.02853913  1.0
  Ni  Ni206  1  0.75000000  0.66666667  0.02853913  1.0
  Ni  Ni207  1  0.08333333  0.16666667  0.09103913  1.0
  Ni  Ni208  1  0.08333333  0.50000000  0.09103913  1.0
  Ni  Ni209  1  0.08333333  0.83333333  0.09103912  1.0
  Ni  Ni210  1  0.41666667  0.16666667  0.09103913  1.0
  Ni  Ni211  1  0.41666667  0.50000000  0.09103913  1.0
  Ni  Ni212  1  0.41666667  0.83333333  0.09103912  1.0
  Ni  Ni213  1  0.75000000  0.16666667  0.09103913  1.0
  Ni  Ni214  1  0.75000000  0.50000000  0.09103912  1.0
  Ni  Ni215  1  0.75000000  0.83333333  0.09103912  1.0
  Ga  Ga216  1  0.00000000  0.00000000  0.24728913  1.0
  Ga  Ga217  1  0.00000000  0.33333333  0.24728913  1.0
  Ga  Ga218  1  0.00000000  0.66666667  0.24728913  1.0
  Ga  Ga219  1  0.33333333  0.00000000  0.24728913  1.0
  Ga  Ga220  1  0.33333333  0.33333333  0.24728913  1.0
  Ga  Ga221  1  0.33333333  0.66666667  0.24728913  1.0
  Ga  Ga222  1  0.66666667  0.00000000  0.24728912  1.0
  Ga  Ga223  1  0.66666667  0.33333333  0.24728913  1.0
  Ga  Ga224  1  0.66666667  0.66666667  0.24728913  1.0
  Ga  Ga225  1  0.00000000  0.16666667  0.18478912  1.0
  Ga  Ga226  1  0.00000000  0.50000000  0.18478913  1.0
  Ga  Ga227  1  0.00000000  0.83333333  0.18478913  1.0
  Ga  Ga228  1  0.33333333  0.16666667  0.18478912  1.0
  Ga  Ga229  1  0.33333333  0.50000000  0.18478913  1.0
  Ga  Ga230  1  0.33333333  0.83333333  0.18478912  1.0
  Ga  Ga231  1  0.66666667  0.16666667  0.18478912  1.0
  Ga  Ga232  1  0.66666667  0.50000000  0.18478912  1.0
  Ga  Ga233  1  0.66666667  0.83333333  0.18478913  1.0
  Ga  Ga234  1  0.16666667  0.00000000  0.18478912  1.0
  Ga  Ga235  1  0.16666667  0.33333333  0.18478912  1.0
  Ga  Ga236  1  0.16666667  0.66666667  0.18478913  1.0
  Ga  Ga237  1  0.50000000  0.00000000  0.18478912  1.0
  Ga  Ga238  1  0.50000000  0.33333333  0.18478912  1.0
  Ga  Ga239  1  0.50000000  0.66666667  0.18478912  1.0
  Ga  Ga240  1  0.83333333  0.00000000  0.18478912  1.0
  Ga  Ga241  1  0.83333333  0.33333333  0.18478912  1.0
  Ga  Ga242  1  0.83333333  0.66666667  0.18478913  1.0
  Ga  Ga243  1  0.16666667  0.16666667  0.24728912  1.0
  Ga  Ga244  1  0.16666667  0.50000000  0.24728913  1.0
  Ga  Ga245  1  0.16666667  0.83333333  0.24728912  1.0
  Ga  Ga246  1  0.50000000  0.16666667  0.24728913  1.0
  Ga  Ga247  1  0.50000000  0.50000000  0.24728913  1.0
  Ga  Ga248  1  0.50000000  0.83333333  0.24728913  1.0
  Ga  Ga249  1  0.83333333  0.16666667  0.24728913  1.0
  Ga  Ga250  1  0.83333333  0.50000000  0.24728913  1.0
  Ga  Ga251  1  0.83333333  0.83333333  0.24728913  1.0
  Ga  Ga252  1  0.16879733  0.13329433  0.17307350  1.0
  Ga  Ga253  1  0.16879733  0.46662767  0.17307350  1.0
  Ga  Ga254  1  0.16879733  0.79996100  0.17307350  1.0
  Ga  Ga255  1  0.50213067  0.13329433  0.17307350  1.0
  Ga  Ga256  1  0.50213067  0.46662767  0.17307350  1.0
  Ga  Ga257  1  0.50213067  0.79996100  0.17307350  1.0
  Ga  Ga258  1  0.83546400  0.13329433  0.17307350  1.0
  Ga  Ga259  1  0.83546400  0.46662767  0.17307350  1.0
  Ga  Ga260  1  0.83546400  0.79996100  0.17307350  1.0
  Ga  Ga261  1  0.16879733  0.29996100  0.23557350  1.0
  Ga  Ga262  1  0.16879733  0.63329433  0.23557350  1.0
  Ga  Ga263  1  0.16879733  0.96662767  0.23557350  1.0
  Ga  Ga264  1  0.50213067  0.29996100  0.23557350  1.0
  Ga  Ga265  1  0.50213067  0.63329433  0.23557350  1.0
  Ga  Ga266  1  0.50213067  0.96662767  0.23557350  1.0
  Ga  Ga267  1  0.83546400  0.29996100  0.23557350  1.0
  Ga  Ga268  1  0.83546400  0.63329433  0.23557350  1.0
  Ga  Ga269  1  0.83546400  0.96662767  0.23557350  1.0
  Ga  Ga270  1  0.06887533  0.03337233  0.22313200  1.0
  Ga  Ga271  1  0.06887533  0.36670567  0.22313200  1.0
  Ga  Ga272  1  0.06887533  0.70003900  0.22313200  1.0
  Ga  Ga273  1  0.40220867  0.03337233  0.22313200  1.0
  Ga  Ga274  1  0.40220867  0.36670567  0.22313200  1.0
  Ga  Ga275  1  0.40220867  0.70003900  0.22313200  1.0
  Ga  Ga276  1  0.73554200  0.03337233  0.22313200  1.0
  Ga  Ga277  1  0.73554200  0.36670567  0.22313200  1.0
  Ga  Ga278  1  0.73554200  0.70003900  0.22313200  1.0
  Ga  Ga279  1  0.06887533  0.20003900  0.16063200  1.0
  Ga  Ga280  1  0.06887533  0.53337233  0.16063200  1.0
  Ga  Ga281  1  0.06887533  0.86670567  0.16063200  1.0
  Ga  Ga282  1  0.40220867  0.20003900  0.16063200  1.0
  Ga  Ga283  1  0.40220867  0.53337233  0.16063200  1.0
  Ga  Ga284  1  0.40220867  0.86670567  0.16063200  1.0
  Ga  Ga285  1  0.73554200  0.20003900  0.16063200  1.0
  Ga  Ga286  1  0.73554200  0.53337233  0.16063200  1.0
  Ga  Ga287  1  0.73554200  0.86670567  0.16063200  1.0
  Ga  Ga288  1  0.23554200  0.08333333  0.21683812  1.0
  Ga  Ga289  1  0.23554200  0.41666667  0.21683813  1.0
  Ga  Ga290  1  0.23554200  0.75000000  0.21683813  1.0
  Ga  Ga291  1  0.56887533  0.08333333  0.21683812  1.0
  Ga  Ga292  1  0.56887533  0.41666667  0.21683813  1.0
  Ga  Ga293  1  0.56887533  0.75000000  0.21683813  1.0
  Ga  Ga294  1  0.90220867  0.08333333  0.21683812  1.0
  Ga  Ga295  1  0.90220867  0.41666667  0.21683813  1.0
  Ga  Ga296  1  0.90220867  0.75000000  0.21683813  1.0
  Ga  Ga297  1  0.23554200  0.25000000  0.15433812  1.0
  Ga  Ga298  1  0.23554200  0.58333333  0.15433813  1.0
  Ga  Ga299  1  0.23554200  0.91666667  0.15433812  1.0
  Ga  Ga300  1  0.56887533  0.25000000  0.15433812  1.0
  Ga  Ga301  1  0.56887533  0.58333333  0.15433813  1.0
  Ga  Ga302  1  0.56887533  0.91666667  0.15433812  1.0
  Ga  Ga303  1  0.90220867  0.25000000  0.15433812  1.0
  Ga  Ga304  1  0.90220867  0.58333333  0.15433812  1.0
  Ga  Ga305  1  0.90220867  0.91666667  0.15433813  1.0
  Ga  Ga306  1  0.00213067  0.08333333  0.17936738  1.0
  Ga  Ga307  1  0.00213067  0.41666667  0.17936737  1.0
  Ga  Ga308  1  0.00213067  0.75000000  0.17936737  1.0
  Ga  Ga309  1  0.33546400  0.08333333  0.17936738  1.0
  Ga  Ga310  1  0.33546400  0.41666667  0.17936738  1.0
  Ga  Ga311  1  0.33546400  0.75000000  0.17936738  1.0
  Ga  Ga312  1  0.66879733  0.08333333  0.17936738  1.0
  Ga  Ga313  1  0.66879733  0.41666667  0.17936737  1.0
  Ga  Ga314  1  0.66879733  0.75000000  0.17936737  1.0
  Ga  Ga315  1  0.00213067  0.25000000  0.24186737  1.0
  Ga  Ga316  1  0.00213067  0.58333333  0.24186737  1.0
  Ga  Ga317  1  0.00213067  0.91666667  0.24186737  1.0
  Ga  Ga318  1  0.33546400  0.25000000  0.24186737  1.0
  Ga  Ga319  1  0.33546400  0.58333333  0.24186738  1.0
  Ga  Ga320  1  0.33546400  0.91666667  0.24186737  1.0
  Ga  Ga321  1  0.66879733  0.25000000  0.24186737  1.0
  Ga  Ga322  1  0.66879733  0.58333333  0.24186737  1.0
  Ga  Ga323  1  0.66879733  0.91666667  0.24186738  1.0
  Ga  Ga324  1  0.16453600  0.03337233  0.13400475  1.0
  Ga  Ga325  1  0.16453600  0.36670567  0.13400475  1.0
  Ga  Ga326  1  0.16453600  0.70003900  0.13400475  1.0
  Ga  Ga327  1  0.49786933  0.03337233  0.13400475  1.0
  Ga  Ga328  1  0.49786933  0.36670567  0.13400475  1.0
  Ga  Ga329  1  0.49786933  0.70003900  0.13400475  1.0
  Ga  Ga330  1  0.83120267  0.03337233  0.13400475  1.0
  Ga  Ga331  1  0.83120267  0.36670567  0.13400475  1.0
  Ga  Ga332  1  0.83120267  0.70003900  0.13400475  1.0
  Ga  Ga333  1  0.16453600  0.20003900  0.19650475  1.0
  Ga  Ga334  1  0.16453600  0.53337233  0.19650475  1.0
  Ga  Ga335  1  0.16453600  0.86670567  0.19650475  1.0
  Ga  Ga336  1  0.49786933  0.20003900  0.19650475  1.0
  Ga  Ga337  1  0.49786933  0.53337233  0.19650475  1.0
  Ga  Ga338  1  0.49786933  0.86670567  0.19650475  1.0
  Ga  Ga339  1  0.83120267  0.20003900  0.19650475  1.0
  Ga  Ga340  1  0.83120267  0.53337233  0.19650475  1.0
  Ga  Ga341  1  0.83120267  0.86670567  0.19650475  1.0
  Ga  Ga342  1  0.26445800  0.13329433  0.20894625  1.0
  Ga  Ga343  1  0.26445800  0.46662767  0.20894625  1.0
  Ga  Ga344  1  0.26445800  0.79996100  0.20894625  1.0
  Ga  Ga345  1  0.59779133  0.13329433  0.20894625  1.0
  Ga  Ga346  1  0.59779133  0.46662767  0.20894625  1.0
  Ga  Ga347  1  0.59779133  0.79996100  0.20894625  1.0
  Ga  Ga348  1  0.93112467  0.13329433  0.20894625  1.0
  Ga  Ga349  1  0.93112467  0.46662767  0.20894625  1.0
  Ga  Ga350  1  0.93112467  0.79996100  0.20894625  1.0
  Ga  Ga351  1  0.26445800  0.29996100  0.14644625  1.0
  Ga  Ga352  1  0.26445800  0.63329433  0.14644625  1.0
  Ga  Ga353  1  0.26445800  0.96662767  0.14644625  1.0
  Ga  Ga354  1  0.59779133  0.29996100  0.14644625  1.0
  Ga  Ga355  1  0.59779133  0.63329433  0.14644625  1.0
  Ga  Ga356  1  0.59779133  0.96662767  0.14644625  1.0
  Ga  Ga357  1  0.93112467  0.29996100  0.14644625  1.0
  Ga  Ga358  1  0.93112467  0.63329433  0.14644625  1.0
  Ga  Ga359  1  0.93112467  0.96662767  0.14644625  1.0
  Ga  Ga360  1  0.09779133  0.08333333  0.21524013  1.0
  Ga  Ga361  1  0.09779133  0.41666667  0.21524013  1.0
  Ga  Ga362  1  0.09779133  0.75000000  0.21524013  1.0
  Ga  Ga363  1  0.43112467  0.08333333  0.21524013  1.0
  Ga  Ga364  1  0.43112467  0.41666667  0.21524013  1.0
  Ga  Ga365  1  0.43112467  0.75000000  0.21524013  1.0
  Ga  Ga366  1  0.76445800  0.08333333  0.21524013  1.0
  Ga  Ga367  1  0.76445800  0.41666667  0.21524013  1.0
  Ga  Ga368  1  0.76445800  0.75000000  0.21524013  1.0
  Ga  Ga369  1  0.09779133  0.25000000  0.15274013  1.0
  Ga  Ga370  1  0.09779133  0.58333333  0.15274013  1.0
  Ga  Ga371  1  0.09779133  0.91666667  0.15274013  1.0
  Ga  Ga372  1  0.43112467  0.25000000  0.15274013  1.0
  Ga  Ga373  1  0.43112467  0.58333333  0.15274013  1.0
  Ga  Ga374  1  0.43112467  0.91666667  0.15274013  1.0
  Ga  Ga375  1  0.76445800  0.25000000  0.15274013  1.0
  Ga  Ga376  1  0.76445800  0.58333333  0.15274013  1.0
  Ga  Ga377  1  0.76445800  0.91666667  0.15274013  1.0
  Ga  Ga378  1  0.33120267  0.08333333  0.12771088  1.0
  Ga  Ga379  1  0.33120267  0.41666667  0.12771088  1.0
  Ga  Ga380  1  0.33120267  0.75000000  0.12771088  1.0
  Ga  Ga381  1  0.66453600  0.08333333  0.12771088  1.0
  Ga  Ga382  1  0.66453600  0.41666667  0.12771088  1.0
  Ga  Ga383  1  0.66453600  0.75000000  0.12771088  1.0
  Ga  Ga384  1  0.99786933  0.08333333  0.12771088  1.0
  Ga  Ga385  1  0.99786933  0.41666667  0.12771088  1.0
  Ga  Ga386  1  0.99786933  0.75000000  0.12771088  1.0
  Ga  Ga387  1  0.33120267  0.25000000  0.19021088  1.0
  Ga  Ga388  1  0.33120267  0.58333333  0.19021088  1.0
  Ga  Ga389  1  0.33120267  0.91666667  0.19021088  1.0
  Ga  Ga390  1  0.66453600  0.25000000  0.19021088  1.0
  Ga  Ga391  1  0.66453600  0.58333333  0.19021088  1.0
  Ga  Ga392  1  0.66453600  0.91666667  0.19021088  1.0
  Ga  Ga393  1  0.99786933  0.25000000  0.19021088  1.0
  Ga  Ga394  1  0.99786933  0.58333333  0.19021088  1.0
  Ga  Ga395  1  0.99786933  0.91666667  0.19021088  1.0
  Ni  Ni396  1  0.25000000  0.00000000  0.21603912  1.0
  Ni  Ni397  1  0.25000000  0.33333333  0.21603913  1.0
  Ni  Ni398  1  0.25000000  0.66666667  0.21603913  1.0
  Ni  Ni399  1  0.58333333  0.00000000  0.21603913  1.0
  Ni  Ni400  1  0.58333333  0.33333333  0.21603913  1.0
  Ni  Ni401  1  0.58333333  0.66666667  0.21603912  1.0
  Ni  Ni402  1  0.91666667  0.00000000  0.21603912  1.0
  Ni  Ni403  1  0.91666667  0.33333333  0.21603913  1.0
  Ni  Ni404  1  0.91666667  0.66666667  0.21603913  1.0
  Ni  Ni405  1  0.25000000  0.16666667  0.15353912  1.0
  Ni  Ni406  1  0.25000000  0.50000000  0.15353912  1.0
  Ni  Ni407  1  0.25000000  0.83333333  0.15353912  1.0
  Ni  Ni408  1  0.58333333  0.16666667  0.15353912  1.0
  Ni  Ni409  1  0.58333333  0.50000000  0.15353912  1.0
  Ni  Ni410  1  0.58333333  0.83333333  0.15353912  1.0
  Ni  Ni411  1  0.91666667  0.16666667  0.15353912  1.0
  Ni  Ni412  1  0.91666667  0.50000000  0.15353912  1.0
  Ni  Ni413  1  0.91666667  0.83333333  0.15353912  1.0
  Ni  Ni414  1  0.08333333  0.00000000  0.15353912  1.0
  Ni  Ni415  1  0.08333333  0.33333333  0.15353913  1.0
  Ni  Ni416  1  0.08333333  0.66666667  0.15353913  1.0
  Ni  Ni417  1  0.41666667  0.00000000  0.15353913  1.0
  Ni  Ni418  1  0.41666667  0.33333333  0.15353913  1.0
  Ni  Ni419  1  0.41666667  0.66666667  0.15353913  1.0
  Ni  Ni420  1  0.75000000  0.00000000  0.15353912  1.0
  Ni  Ni421  1  0.75000000  0.33333333  0.15353913  1.0
  Ni  Ni422  1  0.75000000  0.66666667  0.15353913  1.0
  Ni  Ni423  1  0.08333333  0.16666667  0.21603912  1.0
  Ni  Ni424  1  0.08333333  0.50000000  0.21603913  1.0
  Ni  Ni425  1  0.08333333  0.83333333  0.21603913  1.0
  Ni  Ni426  1  0.41666667  0.16666667  0.21603912  1.0
  Ni  Ni427  1  0.41666667  0.50000000  0.21603913  1.0
  Ni  Ni428  1  0.41666667  0.83333333  0.21603913  1.0
  Ni  Ni429  1  0.75000000  0.16666667  0.21603912  1.0
  Ni  Ni430  1  0.75000000  0.50000000  0.21603912  1.0
  Ni  Ni431  1  0.75000000  0.83333333  0.21603912  1.0
  Ga  Ga432  1  0.00000000  0.00000000  0.37228912  1.0
  Ga  Ga433  1  0.00000000  0.33333333  0.37228913  1.0
  Ga  Ga434  1  0.00000000  0.66666667  0.37228913  1.0
  Ga  Ga435  1  0.33333333  0.00000000  0.37228913  1.0
  Ga  Ga436  1  0.33333333  0.33333333  0.37228913  1.0
  Ga  Ga437  1  0.33333333  0.66666667  0.37228913  1.0
  Ga  Ga438  1  0.66666667  0.00000000  0.37228913  1.0
  Ga  Ga439  1  0.66666667  0.33333333  0.37228913  1.0
  Ga  Ga440  1  0.66666667  0.66666667  0.37228913  1.0
  Ga  Ga441  1  0.00000000  0.16666667  0.30978912  1.0
  Ga  Ga442  1  0.00000000  0.50000000  0.30978913  1.0
  Ga  Ga443  1  0.00000000  0.83333333  0.30978913  1.0
  Ga  Ga444  1  0.33333333  0.16666667  0.30978912  1.0
  Ga  Ga445  1  0.33333333  0.50000000  0.30978913  1.0
  Ga  Ga446  1  0.33333333  0.83333333  0.30978912  1.0
  Ga  Ga447  1  0.66666667  0.16666667  0.30978912  1.0
  Ga  Ga448  1  0.66666667  0.50000000  0.30978912  1.0
  Ga  Ga449  1  0.66666667  0.83333333  0.30978913  1.0
  Ga  Ga450  1  0.16666667  0.00000000  0.30978913  1.0
  Ga  Ga451  1  0.16666667  0.33333333  0.30978913  1.0
  Ga  Ga452  1  0.16666667  0.66666667  0.30978913  1.0
  Ga  Ga453  1  0.50000000  0.00000000  0.30978913  1.0
  Ga  Ga454  1  0.50000000  0.33333333  0.30978913  1.0
  Ga  Ga455  1  0.50000000  0.66666667  0.30978912  1.0
  Ga  Ga456  1  0.83333333  0.00000000  0.30978913  1.0
  Ga  Ga457  1  0.83333333  0.33333333  0.30978912  1.0
  Ga  Ga458  1  0.83333333  0.66666667  0.30978913  1.0
  Ga  Ga459  1  0.16666667  0.16666667  0.37228912  1.0
  Ga  Ga460  1  0.16666667  0.50000000  0.37228912  1.0
  Ga  Ga461  1  0.16666667  0.83333333  0.37228912  1.0
  Ga  Ga462  1  0.50000000  0.16666667  0.37228912  1.0
  Ga  Ga463  1  0.50000000  0.50000000  0.37228913  1.0
  Ga  Ga464  1  0.50000000  0.83333333  0.37228913  1.0
  Ga  Ga465  1  0.83333333  0.16666667  0.37228912  1.0
  Ga  Ga466  1  0.83333333  0.50000000  0.37228912  1.0
  Ga  Ga467  1  0.83333333  0.83333333  0.37228912  1.0
  Ga  Ga468  1  0.16879733  0.13329433  0.29807350  1.0
  Ga  Ga469  1  0.16879733  0.46662767  0.29807350  1.0
  Ga  Ga470  1  0.16879733  0.79996100  0.29807350  1.0
  Ga  Ga471  1  0.50213067  0.13329433  0.29807350  1.0
  Ga  Ga472  1  0.50213067  0.46662767  0.29807350  1.0
  Ga  Ga473  1  0.50213067  0.79996100  0.29807350  1.0
  Ga  Ga474  1  0.83546400  0.13329433  0.29807350  1.0
  Ga  Ga475  1  0.83546400  0.46662767  0.29807350  1.0
  Ga  Ga476  1  0.83546400  0.79996100  0.29807350  1.0
  Ga  Ga477  1  0.16879733  0.29996100  0.36057350  1.0
  Ga  Ga478  1  0.16879733  0.63329433  0.36057350  1.0
  Ga  Ga479  1  0.16879733  0.96662767  0.36057350  1.0
  Ga  Ga480  1  0.50213067  0.29996100  0.36057350  1.0
  Ga  Ga481  1  0.50213067  0.63329433  0.36057350  1.0
  Ga  Ga482  1  0.50213067  0.96662767  0.36057350  1.0
  Ga  Ga483  1  0.83546400  0.29996100  0.36057350  1.0
  Ga  Ga484  1  0.83546400  0.63329433  0.36057350  1.0
  Ga  Ga485  1  0.83546400  0.96662767  0.36057350  1.0
  Ga  Ga486  1  0.06887533  0.03337233  0.34813200  1.0
  Ga  Ga487  1  0.06887533  0.36670567  0.34813200  1.0
  Ga  Ga488  1  0.06887533  0.70003900  0.34813200  1.0
  Ga  Ga489  1  0.40220867  0.03337233  0.34813200  1.0
  Ga  Ga490  1  0.40220867  0.36670567  0.34813200  1.0
  Ga  Ga491  1  0.40220867  0.70003900  0.34813200  1.0
  Ga  Ga492  1  0.73554200  0.03337233  0.34813200  1.0
  Ga  Ga493  1  0.73554200  0.36670567  0.34813200  1.0
  Ga  Ga494  1  0.73554200  0.70003900  0.34813200  1.0
  Ga  Ga495  1  0.06887533  0.20003900  0.28563200  1.0
  Ga  Ga496  1  0.06887533  0.53337233  0.28563200  1.0
  Ga  Ga497  1  0.06887533  0.86670567  0.28563200  1.0
  Ga  Ga498  1  0.40220867  0.20003900  0.28563200  1.0
  Ga  Ga499  1  0.40220867  0.53337233  0.28563200  1.0
  Ga  Ga500  1  0.40220867  0.86670567  0.28563200  1.0
  Ga  Ga501  1  0.73554200  0.20003900  0.28563200  1.0
  Ga  Ga502  1  0.73554200  0.53337233  0.28563200  1.0
  Ga  Ga503  1  0.73554200  0.86670567  0.28563200  1.0
  Ga  Ga504  1  0.23554200  0.08333333  0.34183812  1.0
  Ga  Ga505  1  0.23554200  0.41666667  0.34183812  1.0
  Ga  Ga506  1  0.23554200  0.75000000  0.34183812  1.0
  Ga  Ga507  1  0.56887533  0.08333333  0.34183813  1.0
  Ga  Ga508  1  0.56887533  0.41666667  0.34183813  1.0
  Ga  Ga509  1  0.56887533  0.75000000  0.34183812  1.0
  Ga  Ga510  1  0.90220867  0.08333333  0.34183813  1.0
  Ga  Ga511  1  0.90220867  0.41666667  0.34183812  1.0
  Ga  Ga512  1  0.90220867  0.75000000  0.34183813  1.0
  Ga  Ga513  1  0.23554200  0.25000000  0.27933812  1.0
  Ga  Ga514  1  0.23554200  0.58333333  0.27933813  1.0
  Ga  Ga515  1  0.23554200  0.91666667  0.27933813  1.0
  Ga  Ga516  1  0.56887533  0.25000000  0.27933812  1.0
  Ga  Ga517  1  0.56887533  0.58333333  0.27933813  1.0
  Ga  Ga518  1  0.56887533  0.91666667  0.27933813  1.0
  Ga  Ga519  1  0.90220867  0.25000000  0.27933812  1.0
  Ga  Ga520  1  0.90220867  0.58333333  0.27933812  1.0
  Ga  Ga521  1  0.90220867  0.91666667  0.27933813  1.0
  Ga  Ga522  1  0.00213067  0.08333333  0.30436737  1.0
  Ga  Ga523  1  0.00213067  0.41666667  0.30436737  1.0
  Ga  Ga524  1  0.00213067  0.75000000  0.30436738  1.0
  Ga  Ga525  1  0.33546400  0.08333333  0.30436737  1.0
  Ga  Ga526  1  0.33546400  0.41666667  0.30436738  1.0
  Ga  Ga527  1  0.33546400  0.75000000  0.30436738  1.0
  Ga  Ga528  1  0.66879733  0.08333333  0.30436737  1.0
  Ga  Ga529  1  0.66879733  0.41666667  0.30436737  1.0
  Ga  Ga530  1  0.66879733  0.75000000  0.30436738  1.0
  Ga  Ga531  1  0.00213067  0.25000000  0.36686737  1.0
  Ga  Ga532  1  0.00213067  0.58333333  0.36686738  1.0
  Ga  Ga533  1  0.00213067  0.91666667  0.36686738  1.0
  Ga  Ga534  1  0.33546400  0.25000000  0.36686738  1.0
  Ga  Ga535  1  0.33546400  0.58333333  0.36686738  1.0
  Ga  Ga536  1  0.33546400  0.91666667  0.36686737  1.0
  Ga  Ga537  1  0.66879733  0.25000000  0.36686737  1.0
  Ga  Ga538  1  0.66879733  0.58333333  0.36686738  1.0
  Ga  Ga539  1  0.66879733  0.91666667  0.36686738  1.0
  Ga  Ga540  1  0.16453600  0.03337233  0.25900475  1.0
  Ga  Ga541  1  0.16453600  0.36670567  0.25900475  1.0
  Ga  Ga542  1  0.16453600  0.70003900  0.25900475  1.0
  Ga  Ga543  1  0.49786933  0.03337233  0.25900475  1.0
  Ga  Ga544  1  0.49786933  0.36670567  0.25900475  1.0
  Ga  Ga545  1  0.49786933  0.70003900  0.25900475  1.0
  Ga  Ga546  1  0.83120267  0.03337233  0.25900475  1.0
  Ga  Ga547  1  0.83120267  0.36670567  0.25900475  1.0
  Ga  Ga548  1  0.83120267  0.70003900  0.25900475  1.0
  Ga  Ga549  1  0.16453600  0.20003900  0.32150475  1.0
  Ga  Ga550  1  0.16453600  0.53337233  0.32150475  1.0
  Ga  Ga551  1  0.16453600  0.86670567  0.32150475  1.0
  Ga  Ga552  1  0.49786933  0.20003900  0.32150475  1.0
  Ga  Ga553  1  0.49786933  0.53337233  0.32150475  1.0
  Ga  Ga554  1  0.49786933  0.86670567  0.32150475  1.0
  Ga  Ga555  1  0.83120267  0.20003900  0.32150475  1.0
  Ga  Ga556  1  0.83120267  0.53337233  0.32150475  1.0
  Ga  Ga557  1  0.83120267  0.86670567  0.32150475  1.0
  Ga  Ga558  1  0.26445800  0.13329433  0.33394625  1.0
  Ga  Ga559  1  0.26445800  0.46662767  0.33394625  1.0
  Ga  Ga560  1  0.26445800  0.79996100  0.33394625  1.0
  Ga  Ga561  1  0.59779133  0.13329433  0.33394625  1.0
  Ga  Ga562  1  0.59779133  0.46662767  0.33394625  1.0
  Ga  Ga563  1  0.59779133  0.79996100  0.33394625  1.0
  Ga  Ga564  1  0.93112467  0.13329433  0.33394625  1.0
  Ga  Ga565  1  0.93112467  0.46662767  0.33394625  1.0
  Ga  Ga566  1  0.93112467  0.79996100  0.33394625  1.0
  Ga  Ga567  1  0.26445800  0.29996100  0.27144625  1.0
  Ga  Ga568  1  0.26445800  0.63329433  0.27144625  1.0
  Ga  Ga569  1  0.26445800  0.96662767  0.27144625  1.0
  Ga  Ga570  1  0.59779133  0.29996100  0.27144625  1.0
  Ga  Ga571  1  0.59779133  0.63329433  0.27144625  1.0
  Ga  Ga572  1  0.59779133  0.96662767  0.27144625  1.0
  Ga  Ga573  1  0.93112467  0.29996100  0.27144625  1.0
  Ga  Ga574  1  0.93112467  0.63329433  0.27144625  1.0
  Ga  Ga575  1  0.93112467  0.96662767  0.27144625  1.0
  Ga  Ga576  1  0.09779133  0.08333333  0.34024013  1.0
  Ga  Ga577  1  0.09779133  0.41666667  0.34024013  1.0
  Ga  Ga578  1  0.09779133  0.75000000  0.34024013  1.0
  Ga  Ga579  1  0.43112467  0.08333333  0.34024013  1.0
  Ga  Ga580  1  0.43112467  0.41666667  0.34024013  1.0
  Ga  Ga581  1  0.43112467  0.75000000  0.34024013  1.0
  Ga  Ga582  1  0.76445800  0.08333333  0.34024013  1.0
  Ga  Ga583  1  0.76445800  0.41666667  0.34024013  1.0
  Ga  Ga584  1  0.76445800  0.75000000  0.34024013  1.0
  Ga  Ga585  1  0.09779133  0.25000000  0.27774013  1.0
  Ga  Ga586  1  0.09779133  0.58333333  0.27774013  1.0
  Ga  Ga587  1  0.09779133  0.91666667  0.27774013  1.0
  Ga  Ga588  1  0.43112467  0.25000000  0.27774013  1.0
  Ga  Ga589  1  0.43112467  0.58333333  0.27774013  1.0
  Ga  Ga590  1  0.43112467  0.91666667  0.27774013  1.0
  Ga  Ga591  1  0.76445800  0.25000000  0.27774013  1.0
  Ga  Ga592  1  0.76445800  0.58333333  0.27774013  1.0
  Ga  Ga593  1  0.76445800  0.91666667  0.27774013  1.0
  Ga  Ga594  1  0.33120267  0.08333333  0.25271088  1.0
  Ga  Ga595  1  0.33120267  0.41666667  0.25271088  1.0
  Ga  Ga596  1  0.33120267  0.75000000  0.25271088  1.0
  Ga  Ga597  1  0.66453600  0.08333333  0.25271088  1.0
  Ga  Ga598  1  0.66453600  0.41666667  0.25271088  1.0
  Ga  Ga599  1  0.66453600  0.75000000  0.25271088  1.0
  Ga  Ga600  1  0.99786933  0.08333333  0.25271088  1.0
  Ga  Ga601  1  0.99786933  0.41666667  0.25271088  1.0
  Ga  Ga602  1  0.99786933  0.75000000  0.25271088  1.0
  Ga  Ga603  1  0.33120267  0.25000000  0.31521088  1.0
  Ga  Ga604  1  0.33120267  0.58333333  0.31521088  1.0
  Ga  Ga605  1  0.33120267  0.91666667  0.31521088  1.0
  Ga  Ga606  1  0.66453600  0.25000000  0.31521088  1.0
  Ga  Ga607  1  0.66453600  0.58333333  0.31521088  1.0
  Ga  Ga608  1  0.66453600  0.91666667  0.31521087  1.0
  Ga  Ga609  1  0.99786933  0.25000000  0.31521088  1.0
  Ga  Ga610  1  0.99786933  0.58333333  0.31521088  1.0
  Ga  Ga611  1  0.99786933  0.91666667  0.31521088  1.0
  Ni  Ni612  1  0.25000000  0.00000000  0.34103912  1.0
  Ni  Ni613  1  0.25000000  0.33333333  0.34103912  1.0
  Ni  Ni614  1  0.25000000  0.66666667  0.34103912  1.0
  Ni  Ni615  1  0.58333333  0.00000000  0.34103912  1.0
  Ni  Ni616  1  0.58333333  0.33333333  0.34103913  1.0
  Ni  Ni617  1  0.58333333  0.66666667  0.34103912  1.0
  Ni  Ni618  1  0.91666667  0.00000000  0.34103912  1.0
  Ni  Ni619  1  0.91666667  0.33333333  0.34103912  1.0
  Ni  Ni620  1  0.91666667  0.66666667  0.34103913  1.0
  Ni  Ni621  1  0.25000000  0.16666667  0.27853912  1.0
  Ni  Ni622  1  0.25000000  0.50000000  0.27853912  1.0
  Ni  Ni623  1  0.25000000  0.83333333  0.27853912  1.0
  Ni  Ni624  1  0.58333333  0.16666667  0.27853912  1.0
  Ni  Ni625  1  0.58333333  0.50000000  0.27853912  1.0
  Ni  Ni626  1  0.58333333  0.83333333  0.27853912  1.0
  Ni  Ni627  1  0.91666667  0.16666667  0.27853912  1.0
  Ni  Ni628  1  0.91666667  0.50000000  0.27853912  1.0
  Ni  Ni629  1  0.91666667  0.83333333  0.27853912  1.0
  Ni  Ni630  1  0.08333333  0.00000000  0.27853912  1.0
  Ni  Ni631  1  0.08333333  0.33333333  0.27853912  1.0
  Ni  Ni632  1  0.08333333  0.66666667  0.27853913  1.0
  Ni  Ni633  1  0.41666667  0.00000000  0.27853913  1.0
  Ni  Ni634  1  0.41666667  0.33333333  0.27853913  1.0
  Ni  Ni635  1  0.41666667  0.66666667  0.27853913  1.0
  Ni  Ni636  1  0.75000000  0.00000000  0.27853913  1.0
  Ni  Ni637  1  0.75000000  0.33333333  0.27853912  1.0
  Ni  Ni638  1  0.75000000  0.66666667  0.27853913  1.0
  Ni  Ni639  1  0.08333333  0.16666667  0.34103912  1.0
  Ni  Ni640  1  0.08333333  0.50000000  0.34103912  1.0
  Ni  Ni641  1  0.08333333  0.83333333  0.34103913  1.0
  Ni  Ni642  1  0.41666667  0.16666667  0.34103912  1.0
  Ni  Ni643  1  0.41666667  0.50000000  0.34103912  1.0
  Ni  Ni644  1  0.41666667  0.83333333  0.34103912  1.0
  Ni  Ni645  1  0.75000000  0.16666667  0.34103912  1.0
  Ni  Ni646  1  0.75000000  0.50000000  0.34103912  1.0
  Ni  Ni647  1  0.75000000  0.83333333  0.34103912  1.0
