# generated using pymatgen
data_Ga5Ni
_symmetry_space_group_name_H-M   'P 1'
_cell_length_a   19.07822400
_cell_length_b   33.62649792
_cell_length_c   29.60054563
_cell_angle_alpha   83.23138178
_cell_angle_beta   83.83336282
_cell_angle_gamma   73.52013206
_symmetry_Int_Tables_number   1
_chemical_formula_structural   Ga5Ni
_chemical_formula_sum   'Ga360 Ni72'
_cell_volume   18028.06179219
_cell_formula_units_Z   72
loop_
 _symmetry_equiv_pos_site_id
 _symmetry_equiv_pos_as_xyz
  1  'x, y, z'
loop_
 _atom_site_type_symbol
 _atom_site_label
 _atom_site_symmetry_multiplicity
 _atom_site_fract_x
 _atom_site_fract_y
 _atom_site_fract_z
 _atom_site_occupancy
  Ga  Ga0  1  0.23065480  0.16666667  0.09598220  1.0
  Ga  Ga1  1  0.23065480  0.50000000  0.09598220  1.0
  Ga  Ga2  1  0.23065480  0.83333333  0.09598220  1.0
  Ga  Ga3  1  0.56398813  0.16666667  0.09598220  1.0
  Ga  Ga4  1  0.56398813  0.50000000  0.09598220  1.0
  Ga  Ga5  1  0.56398813  0.83333333  0.09598220  1.0
  Ga  Ga6  1  0.89732147  0.16666667  0.09598220  1.0
  Ga  Ga7  1  0.89732147  0.50000000  0.09598220  1.0
  Ga  Ga8  1  0.89732147  0.83333333  0.09598220  1.0
  Ga  Ga9  1  0.13065480  0.00000000  0.19598220  1.0
  Ga  Ga10  1  0.13065480  0.33333333  0.19598220  1.0
  Ga  Ga11  1  0.13065480  0.66666667  0.19598220  1.0
  Ga  Ga12  1  0.46398813  0.00000000  0.19598220  1.0
  Ga  Ga13  1  0.46398813  0.33333333  0.19598220  1.0
  Ga  Ga14  1  0.46398813  0.66666667  0.19598220  1.0
  Ga  Ga15  1  0.79732147  0.00000000  0.19598220  1.0
  Ga  Ga16  1  0.79732147  0.33333333  0.19598220  1.0
  Ga  Ga17  1  0.79732147  0.66666667  0.19598220  1.0
  Ga  Ga18  1  0.01398813  0.25000000  0.14598220  1.0
  Ga  Ga19  1  0.01398813  0.58333333  0.14598220  1.0
  Ga  Ga20  1  0.01398813  0.91666667  0.14598220  1.0
  Ga  Ga21  1  0.34732147  0.25000000  0.14598220  1.0
  Ga  Ga22  1  0.34732147  0.58333333  0.14598220  1.0
  Ga  Ga23  1  0.34732147  0.91666667  0.14598220  1.0
  Ga  Ga24  1  0.68065480  0.25000000  0.14598220  1.0
  Ga  Ga25  1  0.68065480  0.58333333  0.14598220  1.0
  Ga  Ga26  1  0.68065480  0.91666667  0.14598220  1.0
  Ga  Ga27  1  0.11398813  0.08333333  0.04598220  1.0
  Ga  Ga28  1  0.11398813  0.41666667  0.04598220  1.0
  Ga  Ga29  1  0.11398813  0.75000000  0.04598220  1.0
  Ga  Ga30  1  0.44732147  0.08333333  0.04598220  1.0
  Ga  Ga31  1  0.44732147  0.41666667  0.04598220  1.0
  Ga  Ga32  1  0.44732147  0.75000000  0.04598220  1.0
  Ga  Ga33  1  0.78065480  0.08333333  0.04598220  1.0
  Ga  Ga34  1  0.78065480  0.41666667  0.04598220  1.0
  Ga  Ga35  1  0.78065480  0.75000000  0.04598220  1.0
  Ga  Ga36  1  0.13372047  0.11777100  0.12404120  1.0
  Ga  Ga37  1  0.13372047  0.45110433  0.12404120  1.0
  Ga  Ga38  1  0.13372047  0.78443767  0.12404120  1.0
  Ga  Ga39  1  0.46705380  0.11777100  0.12404120  1.0
  Ga  Ga40  1  0.46705380  0.45110433  0.12404120  1.0
  Ga  Ga41  1  0.46705380  0.78443767  0.12404120  1.0
  Ga  Ga42  1  0.80038713  0.11777100  0.12404120  1.0
  Ga  Ga43  1  0.80038713  0.45110433  0.12404120  1.0
  Ga  Ga44  1  0.80038713  0.78443767  0.12404120  1.0
  Ga  Ga45  1  0.23372047  0.28443767  0.02404120  1.0
  Ga  Ga46  1  0.23372047  0.61777100  0.02404120  1.0
  Ga  Ga47  1  0.23372047  0.95110433  0.02404120  1.0
  Ga  Ga48  1  0.56705380  0.28443767  0.02404120  1.0
  Ga  Ga49  1  0.56705380  0.61777100  0.02404120  1.0
  Ga  Ga50  1  0.56705380  0.95110433  0.02404120  1.0
  Ga  Ga51  1  0.90038713  0.28443767  0.02404120  1.0
  Ga  Ga52  1  0.90038713  0.61777100  0.02404120  1.0
  Ga  Ga53  1  0.90038713  0.95110433  0.02404120  1.0
  Ga  Ga54  1  0.00382187  0.16773200  0.15401780  1.0
  Ga  Ga55  1  0.00382187  0.50106533  0.15401780  1.0
  Ga  Ga56  1  0.00382187  0.83439867  0.15401780  1.0
  Ga  Ga57  1  0.33715520  0.16773200  0.15401780  1.0
  Ga  Ga58  1  0.33715520  0.50106533  0.15401780  1.0
  Ga  Ga59  1  0.33715520  0.83439867  0.15401780  1.0
  Ga  Ga60  1  0.67048853  0.16773200  0.15401780  1.0
  Ga  Ga61  1  0.67048853  0.50106533  0.15401780  1.0
  Ga  Ga62  1  0.67048853  0.83439867  0.15401780  1.0
  Ga  Ga63  1  0.10382187  0.00106533  0.05401780  1.0
  Ga  Ga64  1  0.10382187  0.33439867  0.05401780  1.0
  Ga  Ga65  1  0.10382187  0.66773200  0.05401780  1.0
  Ga  Ga66  1  0.43715520  0.00106533  0.05401780  1.0
  Ga  Ga67  1  0.43715520  0.33439867  0.05401780  1.0
  Ga  Ga68  1  0.43715520  0.66773200  0.05401780  1.0
  Ga  Ga69  1  0.77048853  0.00106533  0.05401780  1.0
  Ga  Ga70  1  0.77048853  0.33439867  0.05401780  1.0
  Ga  Ga71  1  0.77048853  0.66773200  0.05401780  1.0
  Ga  Ga72  1  0.15046513  0.20110433  0.17404120  1.0
  Ga  Ga73  1  0.15046513  0.53443767  0.17404120  1.0
  Ga  Ga74  1  0.15046513  0.86777100  0.17404120  1.0
  Ga  Ga75  1  0.48379847  0.20110433  0.17404120  1.0
  Ga  Ga76  1  0.48379847  0.53443767  0.17404120  1.0
  Ga  Ga77  1  0.48379847  0.86777100  0.17404120  1.0
  Ga  Ga78  1  0.81713180  0.20110433  0.17404120  1.0
  Ga  Ga79  1  0.81713180  0.53443767  0.17404120  1.0
  Ga  Ga80  1  0.81713180  0.86777100  0.17404120  1.0
  Ga  Ga81  1  0.25046513  0.03443767  0.07404120  1.0
  Ga  Ga82  1  0.25046513  0.36777100  0.07404120  1.0
  Ga  Ga83  1  0.25046513  0.70110433  0.07404120  1.0
  Ga  Ga84  1  0.58379847  0.03443767  0.07404120  1.0
  Ga  Ga85  1  0.58379847  0.36777100  0.07404120  1.0
  Ga  Ga86  1  0.58379847  0.70110433  0.07404120  1.0
  Ga  Ga87  1  0.91713180  0.03443767  0.07404120  1.0
  Ga  Ga88  1  0.91713180  0.36777100  0.07404120  1.0
  Ga  Ga89  1  0.91713180  0.70110433  0.07404120  1.0
  Ga  Ga90  1  0.32041053  0.08439867  0.10401780  1.0
  Ga  Ga91  1  0.32041053  0.41773200  0.10401780  1.0
  Ga  Ga92  1  0.32041053  0.75106533  0.10401780  1.0
  Ga  Ga93  1  0.65374387  0.08439867  0.10401780  1.0
  Ga  Ga94  1  0.65374387  0.41773200  0.10401780  1.0
  Ga  Ga95  1  0.65374387  0.75106533  0.10401780  1.0
  Ga  Ga96  1  0.98707720  0.08439867  0.10401780  1.0
  Ga  Ga97  1  0.98707720  0.41773200  0.10401780  1.0
  Ga  Ga98  1  0.98707720  0.75106533  0.10401780  1.0
  Ga  Ga99  1  0.08707720  0.25106533  0.00401780  1.0
  Ga  Ga100  1  0.08707720  0.58439867  0.00401780  1.0
  Ga  Ga101  1  0.08707720  0.91773200  0.00401780  1.0
  Ga  Ga102  1  0.42041053  0.25106533  0.00401780  1.0
  Ga  Ga103  1  0.42041053  0.58439867  0.00401780  1.0
  Ga  Ga104  1  0.42041053  0.91773200  0.00401780  1.0
  Ga  Ga105  1  0.75374387  0.25106533  0.00401780  1.0
  Ga  Ga106  1  0.75374387  0.58439867  0.00401780  1.0
  Ga  Ga107  1  0.75374387  0.91773200  0.00401780  1.0
  Ga  Ga108  1  0.32758913  0.21556233  0.06792320  1.0
  Ga  Ga109  1  0.32758913  0.54889567  0.06792320  1.0
  Ga  Ga110  1  0.32758913  0.88222900  0.06792320  1.0
  Ga  Ga111  1  0.66092247  0.21556233  0.06792320  1.0
  Ga  Ga112  1  0.66092247  0.54889567  0.06792320  1.0
  Ga  Ga113  1  0.66092247  0.88222900  0.06792320  1.0
  Ga  Ga114  1  0.99425580  0.21556233  0.06792320  1.0
  Ga  Ga115  1  0.99425580  0.54889567  0.06792320  1.0
  Ga  Ga116  1  0.99425580  0.88222900  0.06792320  1.0
  Ga  Ga117  1  0.22758913  0.04889567  0.16792320  1.0
  Ga  Ga118  1  0.22758913  0.38222900  0.16792320  1.0
  Ga  Ga119  1  0.22758913  0.71556233  0.16792320  1.0
  Ga  Ga120  1  0.56092247  0.04889567  0.16792320  1.0
  Ga  Ga121  1  0.56092247  0.38222900  0.16792320  1.0
  Ga  Ga122  1  0.56092247  0.71556233  0.16792320  1.0
  Ga  Ga123  1  0.89425580  0.04889567  0.16792320  1.0
  Ga  Ga124  1  0.89425580  0.38222900  0.16792320  1.0
  Ga  Ga125  1  0.89425580  0.71556233  0.16792320  1.0
  Ga  Ga126  1  0.12415440  0.16560133  0.03794660  1.0
  Ga  Ga127  1  0.12415440  0.49893467  0.03794660  1.0
  Ga  Ga128  1  0.12415440  0.83226800  0.03794660  1.0
  Ga  Ga129  1  0.45748773  0.16560133  0.03794660  1.0
  Ga  Ga130  1  0.45748773  0.49893467  0.03794660  1.0
  Ga  Ga131  1  0.45748773  0.83226800  0.03794660  1.0
  Ga  Ga132  1  0.79082107  0.16560133  0.03794660  1.0
  Ga  Ga133  1  0.79082107  0.49893467  0.03794660  1.0
  Ga  Ga134  1  0.79082107  0.83226800  0.03794660  1.0
  Ga  Ga135  1  0.02415440  0.33226800  0.13794660  1.0
  Ga  Ga136  1  0.02415440  0.66560133  0.13794660  1.0
  Ga  Ga137  1  0.02415440  0.99893467  0.13794660  1.0
  Ga  Ga138  1  0.35748773  0.33226800  0.13794660  1.0
  Ga  Ga139  1  0.35748773  0.66560133  0.13794660  1.0
  Ga  Ga140  1  0.35748773  0.99893467  0.13794660  1.0
  Ga  Ga141  1  0.69082107  0.33226800  0.13794660  1.0
  Ga  Ga142  1  0.69082107  0.66560133  0.13794660  1.0
  Ga  Ga143  1  0.69082107  0.99893467  0.13794660  1.0
  Ga  Ga144  1  0.31084447  0.13222900  0.01792320  1.0
  Ga  Ga145  1  0.31084447  0.46556233  0.01792320  1.0
  Ga  Ga146  1  0.31084447  0.79889567  0.01792320  1.0
  Ga  Ga147  1  0.64417780  0.13222900  0.01792320  1.0
  Ga  Ga148  1  0.64417780  0.46556233  0.01792320  1.0
  Ga  Ga149  1  0.64417780  0.79889567  0.01792320  1.0
  Ga  Ga150  1  0.97751113  0.13222900  0.01792320  1.0
  Ga  Ga151  1  0.97751113  0.46556233  0.01792320  1.0
  Ga  Ga152  1  0.97751113  0.79889567  0.01792320  1.0
  Ga  Ga153  1  0.21084447  0.29889567  0.11792320  1.0
  Ga  Ga154  1  0.21084447  0.63222900  0.11792320  1.0
  Ga  Ga155  1  0.21084447  0.96556233  0.11792320  1.0
  Ga  Ga156  1  0.54417780  0.29889567  0.11792320  1.0
  Ga  Ga157  1  0.54417780  0.63222900  0.11792320  1.0
  Ga  Ga158  1  0.54417780  0.96556233  0.11792320  1.0
  Ga  Ga159  1  0.87751113  0.29889567  0.11792320  1.0
  Ga  Ga160  1  0.87751113  0.63222900  0.11792320  1.0
  Ga  Ga161  1  0.87751113  0.96556233  0.11792320  1.0
  Ga  Ga162  1  0.14089907  0.24893467  0.08794660  1.0
  Ga  Ga163  1  0.14089907  0.58226800  0.08794660  1.0
  Ga  Ga164  1  0.14089907  0.91560133  0.08794660  1.0
  Ga  Ga165  1  0.47423240  0.24893467  0.08794660  1.0
  Ga  Ga166  1  0.47423240  0.58226800  0.08794660  1.0
  Ga  Ga167  1  0.47423240  0.91560133  0.08794660  1.0
  Ga  Ga168  1  0.80756573  0.24893467  0.08794660  1.0
  Ga  Ga169  1  0.80756573  0.58226800  0.08794660  1.0
  Ga  Ga170  1  0.80756573  0.91560133  0.08794660  1.0
  Ga  Ga171  1  0.04089907  0.08226800  0.18794660  1.0
  Ga  Ga172  1  0.04089907  0.41560133  0.18794660  1.0
  Ga  Ga173  1  0.04089907  0.74893467  0.18794660  1.0
  Ga  Ga174  1  0.37423240  0.08226800  0.18794660  1.0
  Ga  Ga175  1  0.37423240  0.41560133  0.18794660  1.0
  Ga  Ga176  1  0.37423240  0.74893467  0.18794660  1.0
  Ga  Ga177  1  0.70756573  0.08226800  0.18794660  1.0
  Ga  Ga178  1  0.70756573  0.41560133  0.18794660  1.0
  Ga  Ga179  1  0.70756573  0.74893467  0.18794660  1.0
  Ga  Ga180  1  0.03065480  0.16666667  0.29598220  1.0
  Ga  Ga181  1  0.03065480  0.50000000  0.29598220  1.0
  Ga  Ga182  1  0.03065480  0.83333333  0.29598220  1.0
  Ga  Ga183  1  0.36398813  0.16666667  0.29598220  1.0
  Ga  Ga184  1  0.36398813  0.50000000  0.29598220  1.0
  Ga  Ga185  1  0.36398813  0.83333333  0.29598220  1.0
  Ga  Ga186  1  0.69732147  0.16666667  0.29598220  1.0
  Ga  Ga187  1  0.69732147  0.50000000  0.29598220  1.0
  Ga  Ga188  1  0.69732147  0.83333333  0.29598220  1.0
  Ga  Ga189  1  0.26398813  0.33333333  0.39598220  1.0
  Ga  Ga190  1  0.26398813  0.66666667  0.39598220  1.0
  Ga  Ga191  1  0.26398813  0.00000000  0.39598220  1.0
  Ga  Ga192  1  0.59732147  0.33333333  0.39598220  1.0
  Ga  Ga193  1  0.59732147  0.66666667  0.39598220  1.0
  Ga  Ga194  1  0.59732147  0.00000000  0.39598220  1.0
  Ga  Ga195  1  0.93065480  0.33333333  0.39598220  1.0
  Ga  Ga196  1  0.93065480  0.66666667  0.39598220  1.0
  Ga  Ga197  1  0.93065480  0.00000000  0.39598220  1.0
  Ga  Ga198  1  0.14732147  0.25000000  0.34598220  1.0
  Ga  Ga199  1  0.14732147  0.58333333  0.34598220  1.0
  Ga  Ga200  1  0.14732147  0.91666667  0.34598220  1.0
  Ga  Ga201  1  0.48065480  0.25000000  0.34598220  1.0
  Ga  Ga202  1  0.48065480  0.58333333  0.34598220  1.0
  Ga  Ga203  1  0.48065480  0.91666667  0.34598220  1.0
  Ga  Ga204  1  0.81398813  0.25000000  0.34598220  1.0
  Ga  Ga205  1  0.81398813  0.58333333  0.34598220  1.0
  Ga  Ga206  1  0.81398813  0.91666667  0.34598220  1.0
  Ga  Ga207  1  0.24732147  0.08333333  0.24598220  1.0
  Ga  Ga208  1  0.24732147  0.41666667  0.24598220  1.0
  Ga  Ga209  1  0.24732147  0.75000000  0.24598220  1.0
  Ga  Ga210  1  0.58065480  0.08333333  0.24598220  1.0
  Ga  Ga211  1  0.58065480  0.41666667  0.24598220  1.0
  Ga  Ga212  1  0.58065480  0.75000000  0.24598220  1.0
  Ga  Ga213  1  0.91398813  0.08333333  0.24598220  1.0
  Ga  Ga214  1  0.91398813  0.41666667  0.24598220  1.0
  Ga  Ga215  1  0.91398813  0.75000000  0.24598220  1.0
  Ga  Ga216  1  0.26705380  0.11777100  0.32404120  1.0
  Ga  Ga217  1  0.26705380  0.45110433  0.32404120  1.0
  Ga  Ga218  1  0.26705380  0.78443767  0.32404120  1.0
  Ga  Ga219  1  0.60038713  0.11777100  0.32404120  1.0
  Ga  Ga220  1  0.60038713  0.45110433  0.32404120  1.0
  Ga  Ga221  1  0.60038713  0.78443767  0.32404120  1.0
  Ga  Ga222  1  0.93372047  0.11777100  0.32404120  1.0
  Ga  Ga223  1  0.93372047  0.45110433  0.32404120  1.0
  Ga  Ga224  1  0.93372047  0.78443767  0.32404120  1.0
  Ga  Ga225  1  0.03372047  0.28443767  0.22404120  1.0
  Ga  Ga226  1  0.03372047  0.61777100  0.22404120  1.0
  Ga  Ga227  1  0.03372047  0.95110433  0.22404120  1.0
  Ga  Ga228  1  0.36705380  0.28443767  0.22404120  1.0
  Ga  Ga229  1  0.36705380  0.61777100  0.22404120  1.0
  Ga  Ga230  1  0.36705380  0.95110433  0.22404120  1.0
  Ga  Ga231  1  0.70038713  0.28443767  0.22404120  1.0
  Ga  Ga232  1  0.70038713  0.61777100  0.22404120  1.0
  Ga  Ga233  1  0.70038713  0.95110433  0.22404120  1.0
  Ga  Ga234  1  0.13715520  0.16773200  0.35401780  1.0
  Ga  Ga235  1  0.13715520  0.50106533  0.35401780  1.0
  Ga  Ga236  1  0.13715520  0.83439867  0.35401780  1.0
  Ga  Ga237  1  0.47048853  0.16773200  0.35401780  1.0
  Ga  Ga238  1  0.47048853  0.50106533  0.35401780  1.0
  Ga  Ga239  1  0.47048853  0.83439867  0.35401780  1.0
  Ga  Ga240  1  0.80382187  0.16773200  0.35401780  1.0
  Ga  Ga241  1  0.80382187  0.50106533  0.35401780  1.0
  Ga  Ga242  1  0.80382187  0.83439867  0.35401780  1.0
  Ga  Ga243  1  0.23715520  0.00106533  0.25401780  1.0
  Ga  Ga244  1  0.23715520  0.33439867  0.25401780  1.0
  Ga  Ga245  1  0.23715520  0.66773200  0.25401780  1.0
  Ga  Ga246  1  0.57048853  0.00106533  0.25401780  1.0
  Ga  Ga247  1  0.57048853  0.33439867  0.25401780  1.0
  Ga  Ga248  1  0.57048853  0.66773200  0.25401780  1.0
  Ga  Ga249  1  0.90382187  0.00106533  0.25401780  1.0
  Ga  Ga250  1  0.90382187  0.33439867  0.25401780  1.0
  Ga  Ga251  1  0.90382187  0.66773200  0.25401780  1.0
  Ga  Ga252  1  0.28379847  0.20110433  0.37404120  1.0
  Ga  Ga253  1  0.28379847  0.53443767  0.37404120  1.0
  Ga  Ga254  1  0.28379847  0.86777100  0.37404120  1.0
  Ga  Ga255  1  0.61713180  0.20110433  0.37404120  1.0
  Ga  Ga256  1  0.61713180  0.53443767  0.37404120  1.0
  Ga  Ga257  1  0.61713180  0.86777100  0.37404120  1.0
  Ga  Ga258  1  0.95046513  0.20110433  0.37404120  1.0
  Ga  Ga259  1  0.95046513  0.53443767  0.37404120  1.0
  Ga  Ga260  1  0.95046513  0.86777100  0.37404120  1.0
  Ga  Ga261  1  0.05046513  0.03443767  0.27404120  1.0
  Ga  Ga262  1  0.05046513  0.36777100  0.27404120  1.0
  Ga  Ga263  1  0.05046513  0.70110433  0.27404120  1.0
  Ga  Ga264  1  0.38379847  0.03443767  0.27404120  1.0
  Ga  Ga265  1  0.38379847  0.36777100  0.27404120  1.0
  Ga  Ga266  1  0.38379847  0.70110433  0.27404120  1.0
  Ga  Ga267  1  0.71713180  0.03443767  0.27404120  1.0
  Ga  Ga268  1  0.71713180  0.36777100  0.27404120  1.0
  Ga  Ga269  1  0.71713180  0.70110433  0.27404120  1.0
  Ga  Ga270  1  0.12041053  0.08439867  0.30401780  1.0
  Ga  Ga271  1  0.12041053  0.41773200  0.30401780  1.0
  Ga  Ga272  1  0.12041053  0.75106533  0.30401780  1.0
  Ga  Ga273  1  0.45374387  0.08439867  0.30401780  1.0
  Ga  Ga274  1  0.45374387  0.41773200  0.30401780  1.0
  Ga  Ga275  1  0.45374387  0.75106533  0.30401780  1.0
  Ga  Ga276  1  0.78707720  0.08439867  0.30401780  1.0
  Ga  Ga277  1  0.78707720  0.41773200  0.30401780  1.0
  Ga  Ga278  1  0.78707720  0.75106533  0.30401780  1.0
  Ga  Ga279  1  0.22041053  0.25106533  0.20401780  1.0
  Ga  Ga280  1  0.22041053  0.58439867  0.20401780  1.0
  Ga  Ga281  1  0.22041053  0.91773200  0.20401780  1.0
  Ga  Ga282  1  0.55374387  0.25106533  0.20401780  1.0
  Ga  Ga283  1  0.55374387  0.58439867  0.20401780  1.0
  Ga  Ga284  1  0.55374387  0.91773200  0.20401780  1.0
  Ga  Ga285  1  0.88707720  0.25106533  0.20401780  1.0
  Ga  Ga286  1  0.88707720  0.58439867  0.20401780  1.0
  Ga  Ga287  1  0.88707720  0.91773200  0.20401780  1.0
  Ga  Ga288  1  0.12758913  0.21556233  0.26792320  1.0
  Ga  Ga289  1  0.12758913  0.54889567  0.26792320  1.0
  Ga  Ga290  1  0.12758913  0.88222900  0.26792320  1.0
  Ga  Ga291  1  0.46092247  0.21556233  0.26792320  1.0
  Ga  Ga292  1  0.46092247  0.54889567  0.26792320  1.0
  Ga  Ga293  1  0.46092247  0.88222900  0.26792320  1.0
  Ga  Ga294  1  0.79425580  0.21556233  0.26792320  1.0
  Ga  Ga295  1  0.79425580  0.54889567  0.26792320  1.0
  Ga  Ga296  1  0.79425580  0.88222900  0.26792320  1.0
  Ga  Ga297  1  0.02758913  0.04889567  0.36792320  1.0
  Ga  Ga298  1  0.02758913  0.38222900  0.36792320  1.0
  Ga  Ga299  1  0.02758913  0.71556233  0.36792320  1.0
  Ga  Ga300  1  0.36092247  0.04889567  0.36792320  1.0
  Ga  Ga301  1  0.36092247  0.38222900  0.36792320  1.0
  Ga  Ga302  1  0.36092247  0.71556233  0.36792320  1.0
  Ga  Ga303  1  0.69425580  0.04889567  0.36792320  1.0
  Ga  Ga304  1  0.69425580  0.38222900  0.36792320  1.0
  Ga  Ga305  1  0.69425580  0.71556233  0.36792320  1.0
  Ga  Ga306  1  0.25748773  0.16560133  0.23794660  1.0
  Ga  Ga307  1  0.25748773  0.49893467  0.23794660  1.0
  Ga  Ga308  1  0.25748773  0.83226800  0.23794660  1.0
  Ga  Ga309  1  0.59082107  0.16560133  0.23794660  1.0
  Ga  Ga310  1  0.59082107  0.49893467  0.23794660  1.0
  Ga  Ga311  1  0.59082107  0.83226800  0.23794660  1.0
  Ga  Ga312  1  0.92415440  0.16560133  0.23794660  1.0
  Ga  Ga313  1  0.92415440  0.49893467  0.23794660  1.0
  Ga  Ga314  1  0.92415440  0.83226800  0.23794660  1.0
  Ga  Ga315  1  0.15748773  0.33226800  0.33794660  1.0
  Ga  Ga316  1  0.15748773  0.66560133  0.33794660  1.0
  Ga  Ga317  1  0.15748773  0.99893467  0.33794660  1.0
  Ga  Ga318  1  0.49082107  0.33226800  0.33794660  1.0
  Ga  Ga319  1  0.49082107  0.66560133  0.33794660  1.0
  Ga  Ga320  1  0.49082107  0.99893467  0.33794660  1.0
  Ga  Ga321  1  0.82415440  0.33226800  0.33794660  1.0
  Ga  Ga322  1  0.82415440  0.66560133  0.33794660  1.0
  Ga  Ga323  1  0.82415440  0.99893467  0.33794660  1.0
  Ga  Ga324  1  0.11084447  0.13222900  0.21792320  1.0
  Ga  Ga325  1  0.11084447  0.46556233  0.21792320  1.0
  Ga  Ga326  1  0.11084447  0.79889567  0.21792320  1.0
  Ga  Ga327  1  0.44417780  0.13222900  0.21792320  1.0
  Ga  Ga328  1  0.44417780  0.46556233  0.21792320  1.0
  Ga  Ga329  1  0.44417780  0.79889567  0.21792320  1.0
  Ga  Ga330  1  0.77751113  0.13222900  0.21792320  1.0
  Ga  Ga331  1  0.77751113  0.46556233  0.21792320  1.0
  Ga  Ga332  1  0.77751113  0.79889567  0.21792320  1.0
  Ga  Ga333  1  0.01084447  0.29889567  0.31792320  1.0
  Ga  Ga334  1  0.01084447  0.63222900  0.31792320  1.0
  Ga  Ga335  1  0.01084447  0.96556233  0.31792320  1.0
  Ga  Ga336  1  0.34417780  0.29889567  0.31792320  1.0
  Ga  Ga337  1  0.34417780  0.63222900  0.31792320  1.0
  Ga  Ga338  1  0.34417780  0.96556233  0.31792320  1.0
  Ga  Ga339  1  0.67751113  0.29889567  0.31792320  1.0
  Ga  Ga340  1  0.67751113  0.63222900  0.31792320  1.0
  Ga  Ga341  1  0.67751113  0.96556233  0.31792320  1.0
  Ga  Ga342  1  0.27423240  0.24893467  0.28794660  1.0
  Ga  Ga343  1  0.27423240  0.58226800  0.28794660  1.0
  Ga  Ga344  1  0.27423240  0.91560133  0.28794660  1.0
  Ga  Ga345  1  0.60756573  0.24893467  0.28794660  1.0
  Ga  Ga346  1  0.60756573  0.58226800  0.28794660  1.0
  Ga  Ga347  1  0.60756573  0.91560133  0.28794660  1.0
  Ga  Ga348  1  0.94089907  0.24893467  0.28794660  1.0
  Ga  Ga349  1  0.94089907  0.58226800  0.28794660  1.0
  Ga  Ga350  1  0.94089907  0.91560133  0.28794660  1.0
  Ga  Ga351  1  0.17423240  0.08226800  0.38794660  1.0
  Ga  Ga352  1  0.17423240  0.41560133  0.38794660  1.0
  Ga  Ga353  1  0.17423240  0.74893467  0.38794660  1.0
  Ga  Ga354  1  0.50756573  0.08226800  0.38794660  1.0
  Ga  Ga355  1  0.50756573  0.41560133  0.38794660  1.0
  Ga  Ga356  1  0.50756573  0.74893467  0.38794660  1.0
  Ga  Ga357  1  0.84089907  0.08226800  0.38794660  1.0
  Ga  Ga358  1  0.84089907  0.41560133  0.38794660  1.0
  Ga  Ga359  1  0.84089907  0.74893467  0.38794660  1.0
  Ni  Ni360  1  0.00565480  0.29166667  0.07098220  1.0
  Ni  Ni361  1  0.00565480  0.62500000  0.07098220  1.0
  Ni  Ni362  1  0.00565480  0.95833333  0.07098220  1.0
  Ni  Ni363  1  0.33898813  0.29166667  0.07098220  1.0
  Ni  Ni364  1  0.33898813  0.62500000  0.07098220  1.0
  Ni  Ni365  1  0.33898813  0.95833333  0.07098220  1.0
  Ni  Ni366  1  0.67232147  0.29166667  0.07098220  1.0
  Ni  Ni367  1  0.67232147  0.62500000  0.07098220  1.0
  Ni  Ni368  1  0.67232147  0.95833333  0.07098220  1.0
  Ni  Ni369  1  0.23898813  0.12500000  0.17098220  1.0
  Ni  Ni370  1  0.23898813  0.45833333  0.17098220  1.0
  Ni  Ni371  1  0.23898813  0.79166667  0.17098220  1.0
  Ni  Ni372  1  0.57232147  0.12500000  0.17098220  1.0
  Ni  Ni373  1  0.57232147  0.45833333  0.17098220  1.0
  Ni  Ni374  1  0.57232147  0.79166667  0.17098220  1.0
  Ni  Ni375  1  0.90565480  0.12500000  0.17098220  1.0
  Ni  Ni376  1  0.90565480  0.45833333  0.17098220  1.0
  Ni  Ni377  1  0.90565480  0.79166667  0.17098220  1.0
  Ni  Ni378  1  0.22232147  0.20833333  0.02098220  1.0
  Ni  Ni379  1  0.22232147  0.54166667  0.02098220  1.0
  Ni  Ni380  1  0.22232147  0.87500000  0.02098220  1.0
  Ni  Ni381  1  0.55565480  0.20833333  0.02098220  1.0
  Ni  Ni382  1  0.55565480  0.54166667  0.02098220  1.0
  Ni  Ni383  1  0.55565480  0.87500000  0.02098220  1.0
  Ni  Ni384  1  0.88898813  0.20833333  0.02098220  1.0
  Ni  Ni385  1  0.88898813  0.54166667  0.02098220  1.0
  Ni  Ni386  1  0.88898813  0.87500000  0.02098220  1.0
  Ni  Ni387  1  0.12232147  0.04166667  0.12098220  1.0
  Ni  Ni388  1  0.12232147  0.37500000  0.12098220  1.0
  Ni  Ni389  1  0.12232147  0.70833333  0.12098220  1.0
  Ni  Ni390  1  0.45565480  0.04166667  0.12098220  1.0
  Ni  Ni391  1  0.45565480  0.37500000  0.12098220  1.0
  Ni  Ni392  1  0.45565480  0.70833333  0.12098220  1.0
  Ni  Ni393  1  0.78898813  0.04166667  0.12098220  1.0
  Ni  Ni394  1  0.78898813  0.37500000  0.12098220  1.0
  Ni  Ni395  1  0.78898813  0.70833333  0.12098220  1.0
  Ni  Ni396  1  0.13898813  0.29166667  0.27098220  1.0
  Ni  Ni397  1  0.13898813  0.62500000  0.27098220  1.0
  Ni  Ni398  1  0.13898813  0.95833333  0.27098220  1.0
  Ni  Ni399  1  0.47232147  0.29166667  0.27098220  1.0
  Ni  Ni400  1  0.47232147  0.62500000  0.27098220  1.0
  Ni  Ni401  1  0.47232147  0.95833333  0.27098220  1.0
  Ni  Ni402  1  0.80565480  0.29166667  0.27098220  1.0
  Ni  Ni403  1  0.80565480  0.62500000  0.27098220  1.0
  Ni  Ni404  1  0.80565480  0.95833333  0.27098220  1.0
  Ni  Ni405  1  0.03898813  0.12500000  0.37098220  1.0
  Ni  Ni406  1  0.03898813  0.45833333  0.37098220  1.0
  Ni  Ni407  1  0.03898813  0.79166667  0.37098220  1.0
  Ni  Ni408  1  0.37232147  0.12500000  0.37098220  1.0
  Ni  Ni409  1  0.37232147  0.45833333  0.37098220  1.0
  Ni  Ni410  1  0.37232147  0.79166667  0.37098220  1.0
  Ni  Ni411  1  0.70565480  0.12500000  0.37098220  1.0
  Ni  Ni412  1  0.70565480  0.45833333  0.37098220  1.0
  Ni  Ni413  1  0.70565480  0.79166667  0.37098220  1.0
  Ni  Ni414  1  0.02232147  0.20833333  0.22098220  1.0
  Ni  Ni415  1  0.02232147  0.54166667  0.22098220  1.0
  Ni  Ni416  1  0.02232147  0.87500000  0.22098220  1.0
  Ni  Ni417  1  0.35565480  0.20833333  0.22098220  1.0
  Ni  Ni418  1  0.35565480  0.54166667  0.22098220  1.0
  Ni  Ni419  1  0.35565480  0.87500000  0.22098220  1.0
  Ni  Ni420  1  0.68898813  0.20833333  0.22098220  1.0
  Ni  Ni421  1  0.68898813  0.54166667  0.22098220  1.0
  Ni  Ni422  1  0.68898813  0.87500000  0.22098220  1.0
  Ni  Ni423  1  0.25565480  0.04166667  0.32098220  1.0
  Ni  Ni424  1  0.25565480  0.37500000  0.32098220  1.0
  Ni  Ni425  1  0.25565480  0.70833333  0.32098220  1.0
  Ni  Ni426  1  0.58898813  0.04166667  0.32098220  1.0
  Ni  Ni427  1  0.58898813  0.37500000  0.32098220  1.0
  Ni  Ni428  1  0.58898813  0.70833333  0.32098220  1.0
  Ni  Ni429  1  0.92232147  0.04166667  0.32098220  1.0
  Ni  Ni430  1  0.92232147  0.37500000  0.32098220  1.0
  Ni  Ni431  1  0.92232147  0.70833333  0.32098220  1.0
