# generated using pymatgen
data_Ga5Ni
_symmetry_space_group_name_H-M   'P 1'
_cell_length_a   20.06948181
_cell_length_b   20.06948181
_cell_length_c   33.44913635
_cell_angle_alpha   123.24166388
_cell_angle_beta   84.47137158
_cell_angle_gamma   123.24166388
_symmetry_Int_Tables_number   1
_chemical_formula_structural   Ga5Ni
_chemical_formula_sum   'Ga180 Ni36'
_cell_volume   9014.03089610
_cell_formula_units_Z   36
loop_
 _symmetry_equiv_pos_site_id
 _symmetry_equiv_pos_as_xyz
  1  'x, y, z'
loop_
 _atom_site_type_symbol
 _atom_site_label
 _atom_site_symmetry_multiplicity
 _atom_site_fract_x
 _atom_site_fract_y
 _atom_site_fract_z
 _atom_site_occupancy
  Ga  Ga0  1  0.00000000  0.00000000  0.17997660  1.0
  Ga  Ga1  1  0.00000000  0.33333333  0.17997660  1.0
  Ga  Ga2  1  0.00000000  0.66666667  0.17997660  1.0
  Ga  Ga3  1  0.33333333  0.00000000  0.17997660  1.0
  Ga  Ga4  1  0.33333333  0.33333333  0.17997660  1.0
  Ga  Ga5  1  0.33333333  0.66666667  0.17997660  1.0
  Ga  Ga6  1  0.66666667  0.00000000  0.17997660  1.0
  Ga  Ga7  1  0.66666667  0.33333333  0.17997660  1.0
  Ga  Ga8  1  0.66666667  0.66666667  0.17997660  1.0
  Ga  Ga9  1  0.16666667  0.00000000  0.07997660  1.0
  Ga  Ga10  1  0.16666667  0.33333333  0.07997660  1.0
  Ga  Ga11  1  0.16666667  0.66666667  0.07997660  1.0
  Ga  Ga12  1  0.50000000  0.00000000  0.07997660  1.0
  Ga  Ga13  1  0.50000000  0.33333333  0.07997660  1.0
  Ga  Ga14  1  0.50000000  0.66666667  0.07997660  1.0
  Ga  Ga15  1  0.83333333  0.00000000  0.07997660  1.0
  Ga  Ga16  1  0.83333333  0.33333333  0.07997660  1.0
  Ga  Ga17  1  0.83333333  0.66666667  0.07997660  1.0
  Ga  Ga18  1  0.16879733  0.26658867  0.18125500  1.0
  Ga  Ga19  1  0.16879733  0.59992200  0.18125500  1.0
  Ga  Ga20  1  0.16879733  0.93325533  0.18125500  1.0
  Ga  Ga21  1  0.50213067  0.26658867  0.18125500  1.0
  Ga  Ga22  1  0.50213067  0.59992200  0.18125500  1.0
  Ga  Ga23  1  0.50213067  0.93325533  0.18125500  1.0
  Ga  Ga24  1  0.83546400  0.26658867  0.18125500  1.0
  Ga  Ga25  1  0.83546400  0.59992200  0.18125500  1.0
  Ga  Ga26  1  0.83546400  0.93325533  0.18125500  1.0
  Ga  Ga27  1  0.06887533  0.06674467  0.12130180  1.0
  Ga  Ga28  1  0.06887533  0.40007800  0.12130180  1.0
  Ga  Ga29  1  0.06887533  0.73341133  0.12130180  1.0
  Ga  Ga30  1  0.40220867  0.06674467  0.12130180  1.0
  Ga  Ga31  1  0.40220867  0.40007800  0.12130180  1.0
  Ga  Ga32  1  0.40220867  0.73341133  0.12130180  1.0
  Ga  Ga33  1  0.73554200  0.06674467  0.12130180  1.0
  Ga  Ga34  1  0.73554200  0.40007800  0.12130180  1.0
  Ga  Ga35  1  0.73554200  0.73341133  0.12130180  1.0
  Ga  Ga36  1  0.23554200  0.16666667  0.08125500  1.0
  Ga  Ga37  1  0.23554200  0.50000000  0.08125500  1.0
  Ga  Ga38  1  0.23554200  0.83333333  0.08125500  1.0
  Ga  Ga39  1  0.56887533  0.16666667  0.08125500  1.0
  Ga  Ga40  1  0.56887533  0.50000000  0.08125500  1.0
  Ga  Ga41  1  0.56887533  0.83333333  0.08125500  1.0
  Ga  Ga42  1  0.90220867  0.16666667  0.08125500  1.0
  Ga  Ga43  1  0.90220867  0.50000000  0.08125500  1.0
  Ga  Ga44  1  0.90220867  0.83333333  0.08125500  1.0
  Ga  Ga45  1  0.00213067  0.16666667  0.02130180  1.0
  Ga  Ga46  1  0.00213067  0.50000000  0.02130180  1.0
  Ga  Ga47  1  0.00213067  0.83333333  0.02130180  1.0
  Ga  Ga48  1  0.33546400  0.16666667  0.02130180  1.0
  Ga  Ga49  1  0.33546400  0.50000000  0.02130180  1.0
  Ga  Ga50  1  0.33546400  0.83333333  0.02130180  1.0
  Ga  Ga51  1  0.66879733  0.16666667  0.02130180  1.0
  Ga  Ga52  1  0.66879733  0.50000000  0.02130180  1.0
  Ga  Ga53  1  0.66879733  0.83333333  0.02130180  1.0
  Ga  Ga54  1  0.16453600  0.06674467  0.17869820  1.0
  Ga  Ga55  1  0.16453600  0.40007800  0.17869820  1.0
  Ga  Ga56  1  0.16453600  0.73341133  0.17869820  1.0
  Ga  Ga57  1  0.49786933  0.06674467  0.17869820  1.0
  Ga  Ga58  1  0.49786933  0.40007800  0.17869820  1.0
  Ga  Ga59  1  0.49786933  0.73341133  0.17869820  1.0
  Ga  Ga60  1  0.83120267  0.06674467  0.17869820  1.0
  Ga  Ga61  1  0.83120267  0.40007800  0.17869820  1.0
  Ga  Ga62  1  0.83120267  0.73341133  0.17869820  1.0
  Ga  Ga63  1  0.26445800  0.26658867  0.03865140  1.0
  Ga  Ga64  1  0.26445800  0.59992200  0.03865140  1.0
  Ga  Ga65  1  0.26445800  0.93325533  0.03865140  1.0
  Ga  Ga66  1  0.59779133  0.26658867  0.03865140  1.0
  Ga  Ga67  1  0.59779133  0.59992200  0.03865140  1.0
  Ga  Ga68  1  0.59779133  0.93325533  0.03865140  1.0
  Ga  Ga69  1  0.93112467  0.26658867  0.03865140  1.0
  Ga  Ga70  1  0.93112467  0.59992200  0.03865140  1.0
  Ga  Ga71  1  0.93112467  0.93325533  0.03865140  1.0
  Ga  Ga72  1  0.09779133  0.16666667  0.07869820  1.0
  Ga  Ga73  1  0.09779133  0.50000000  0.07869820  1.0
  Ga  Ga74  1  0.09779133  0.83333333  0.07869820  1.0
  Ga  Ga75  1  0.43112467  0.16666667  0.07869820  1.0
  Ga  Ga76  1  0.43112467  0.50000000  0.07869820  1.0
  Ga  Ga77  1  0.43112467  0.83333333  0.07869820  1.0
  Ga  Ga78  1  0.76445800  0.16666667  0.07869820  1.0
  Ga  Ga79  1  0.76445800  0.50000000  0.07869820  1.0
  Ga  Ga80  1  0.76445800  0.83333333  0.07869820  1.0
  Ga  Ga81  1  0.33120267  0.16666667  0.13865140  1.0
  Ga  Ga82  1  0.33120267  0.50000000  0.13865140  1.0
  Ga  Ga83  1  0.33120267  0.83333333  0.13865140  1.0
  Ga  Ga84  1  0.66453600  0.16666667  0.13865140  1.0
  Ga  Ga85  1  0.66453600  0.50000000  0.13865140  1.0
  Ga  Ga86  1  0.66453600  0.83333333  0.13865140  1.0
  Ga  Ga87  1  0.99786933  0.16666667  0.13865140  1.0
  Ga  Ga88  1  0.99786933  0.50000000  0.13865140  1.0
  Ga  Ga89  1  0.99786933  0.83333333  0.13865140  1.0
  Ni  Ni90  1  0.25000000  0.00000000  0.12997660  1.0
  Ni  Ni91  1  0.25000000  0.33333333  0.12997660  1.0
  Ni  Ni92  1  0.25000000  0.66666667  0.12997660  1.0
  Ni  Ni93  1  0.58333333  0.00000000  0.12997660  1.0
  Ni  Ni94  1  0.58333333  0.33333333  0.12997660  1.0
  Ni  Ni95  1  0.58333333  0.66666667  0.12997660  1.0
  Ni  Ni96  1  0.91666667  0.00000000  0.12997660  1.0
  Ni  Ni97  1  0.91666667  0.33333333  0.12997660  1.0
  Ni  Ni98  1  0.91666667  0.66666667  0.12997660  1.0
  Ni  Ni99  1  0.08333333  0.00000000  0.02997660  1.0
  Ni  Ni100  1  0.08333333  0.33333333  0.02997660  1.0
  Ni  Ni101  1  0.08333333  0.66666667  0.02997660  1.0
  Ni  Ni102  1  0.41666667  0.00000000  0.02997660  1.0
  Ni  Ni103  1  0.41666667  0.33333333  0.02997660  1.0
  Ni  Ni104  1  0.41666667  0.66666667  0.02997660  1.0
  Ni  Ni105  1  0.75000000  0.00000000  0.02997660  1.0
  Ni  Ni106  1  0.75000000  0.33333333  0.02997660  1.0
  Ni  Ni107  1  0.75000000  0.66666667  0.02997660  1.0
  Ga  Ga108  1  0.00000000  0.00000000  0.37997660  1.0
  Ga  Ga109  1  0.00000000  0.33333333  0.37997660  1.0
  Ga  Ga110  1  0.00000000  0.66666667  0.37997660  1.0
  Ga  Ga111  1  0.33333333  0.00000000  0.37997660  1.0
  Ga  Ga112  1  0.33333333  0.33333333  0.37997660  1.0
  Ga  Ga113  1  0.33333333  0.66666667  0.37997660  1.0
  Ga  Ga114  1  0.66666667  0.00000000  0.37997660  1.0
  Ga  Ga115  1  0.66666667  0.33333333  0.37997660  1.0
  Ga  Ga116  1  0.66666667  0.66666667  0.37997660  1.0
  Ga  Ga117  1  0.16666667  0.00000000  0.27997660  1.0
  Ga  Ga118  1  0.16666667  0.33333333  0.27997660  1.0
  Ga  Ga119  1  0.16666667  0.66666667  0.27997660  1.0
  Ga  Ga120  1  0.50000000  0.00000000  0.27997660  1.0
  Ga  Ga121  1  0.50000000  0.33333333  0.27997660  1.0
  Ga  Ga122  1  0.50000000  0.66666667  0.27997660  1.0
  Ga  Ga123  1  0.83333333  0.00000000  0.27997660  1.0
  Ga  Ga124  1  0.83333333  0.33333333  0.27997660  1.0
  Ga  Ga125  1  0.83333333  0.66666667  0.27997660  1.0
  Ga  Ga126  1  0.16879733  0.26658867  0.38125500  1.0
  Ga  Ga127  1  0.16879733  0.59992200  0.38125500  1.0
  Ga  Ga128  1  0.16879733  0.93325533  0.38125500  1.0
  Ga  Ga129  1  0.50213067  0.26658867  0.38125500  1.0
  Ga  Ga130  1  0.50213067  0.59992200  0.38125500  1.0
  Ga  Ga131  1  0.50213067  0.93325533  0.38125500  1.0
  Ga  Ga132  1  0.83546400  0.26658867  0.38125500  1.0
  Ga  Ga133  1  0.83546400  0.59992200  0.38125500  1.0
  Ga  Ga134  1  0.83546400  0.93325533  0.38125500  1.0
  Ga  Ga135  1  0.06887533  0.06674467  0.32130180  1.0
  Ga  Ga136  1  0.06887533  0.40007800  0.32130180  1.0
  Ga  Ga137  1  0.06887533  0.73341133  0.32130180  1.0
  Ga  Ga138  1  0.40220867  0.06674467  0.32130180  1.0
  Ga  Ga139  1  0.40220867  0.40007800  0.32130180  1.0
  Ga  Ga140  1  0.40220867  0.73341133  0.32130180  1.0
  Ga  Ga141  1  0.73554200  0.06674467  0.32130180  1.0
  Ga  Ga142  1  0.73554200  0.40007800  0.32130180  1.0
  Ga  Ga143  1  0.73554200  0.73341133  0.32130180  1.0
  Ga  Ga144  1  0.23554200  0.16666667  0.28125500  1.0
  Ga  Ga145  1  0.23554200  0.50000000  0.28125500  1.0
  Ga  Ga146  1  0.23554200  0.83333333  0.28125500  1.0
  Ga  Ga147  1  0.56887533  0.16666667  0.28125500  1.0
  Ga  Ga148  1  0.56887533  0.50000000  0.28125500  1.0
  Ga  Ga149  1  0.56887533  0.83333333  0.28125500  1.0
  Ga  Ga150  1  0.90220867  0.16666667  0.28125500  1.0
  Ga  Ga151  1  0.90220867  0.50000000  0.28125500  1.0
  Ga  Ga152  1  0.90220867  0.83333333  0.28125500  1.0
  Ga  Ga153  1  0.00213067  0.16666667  0.22130180  1.0
  Ga  Ga154  1  0.00213067  0.50000000  0.22130180  1.0
  Ga  Ga155  1  0.00213067  0.83333333  0.22130180  1.0
  Ga  Ga156  1  0.33546400  0.16666667  0.22130180  1.0
  Ga  Ga157  1  0.33546400  0.50000000  0.22130180  1.0
  Ga  Ga158  1  0.33546400  0.83333333  0.22130180  1.0
  Ga  Ga159  1  0.66879733  0.16666667  0.22130180  1.0
  Ga  Ga160  1  0.66879733  0.50000000  0.22130180  1.0
  Ga  Ga161  1  0.66879733  0.83333333  0.22130180  1.0
  Ga  Ga162  1  0.16453600  0.06674467  0.37869820  1.0
  Ga  Ga163  1  0.16453600  0.40007800  0.37869820  1.0
  Ga  Ga164  1  0.16453600  0.73341133  0.37869820  1.0
  Ga  Ga165  1  0.49786933  0.06674467  0.37869820  1.0
  Ga  Ga166  1  0.49786933  0.40007800  0.37869820  1.0
  Ga  Ga167  1  0.49786933  0.73341133  0.37869820  1.0
  Ga  Ga168  1  0.83120267  0.06674467  0.37869820  1.0
  Ga  Ga169  1  0.83120267  0.40007800  0.37869820  1.0
  Ga  Ga170  1  0.83120267  0.73341133  0.37869820  1.0
  Ga  Ga171  1  0.26445800  0.26658867  0.23865140  1.0
  Ga  Ga172  1  0.26445800  0.59992200  0.23865140  1.0
  Ga  Ga173  1  0.26445800  0.93325533  0.23865140  1.0
  Ga  Ga174  1  0.59779133  0.26658867  0.23865140  1.0
  Ga  Ga175  1  0.59779133  0.59992200  0.23865140  1.0
  Ga  Ga176  1  0.59779133  0.93325533  0.23865140  1.0
  Ga  Ga177  1  0.93112467  0.26658867  0.23865140  1.0
  Ga  Ga178  1  0.93112467  0.59992200  0.23865140  1.0
  Ga  Ga179  1  0.93112467  0.93325533  0.23865140  1.0
  Ga  Ga180  1  0.09779133  0.16666667  0.27869820  1.0
  Ga  Ga181  1  0.09779133  0.50000000  0.27869820  1.0
  Ga  Ga182  1  0.09779133  0.83333333  0.27869820  1.0
  Ga  Ga183  1  0.43112467  0.16666667  0.27869820  1.0
  Ga  Ga184  1  0.43112467  0.50000000  0.27869820  1.0
  Ga  Ga185  1  0.43112467  0.83333333  0.27869820  1.0
  Ga  Ga186  1  0.76445800  0.16666667  0.27869820  1.0
  Ga  Ga187  1  0.76445800  0.50000000  0.27869820  1.0
  Ga  Ga188  1  0.76445800  0.83333333  0.27869820  1.0
  Ga  Ga189  1  0.33120267  0.16666667  0.33865140  1.0
  Ga  Ga190  1  0.33120267  0.50000000  0.33865140  1.0
  Ga  Ga191  1  0.33120267  0.83333333  0.33865140  1.0
  Ga  Ga192  1  0.66453600  0.16666667  0.33865140  1.0
  Ga  Ga193  1  0.66453600  0.50000000  0.33865140  1.0
  Ga  Ga194  1  0.66453600  0.83333333  0.33865140  1.0
  Ga  Ga195  1  0.99786933  0.16666667  0.33865140  1.0
  Ga  Ga196  1  0.99786933  0.50000000  0.33865140  1.0
  Ga  Ga197  1  0.99786933  0.83333333  0.33865140  1.0
  Ni  Ni198  1  0.25000000  0.00000000  0.32997660  1.0
  Ni  Ni199  1  0.25000000  0.33333333  0.32997660  1.0
  Ni  Ni200  1  0.25000000  0.66666667  0.32997660  1.0
  Ni  Ni201  1  0.58333333  0.00000000  0.32997660  1.0
  Ni  Ni202  1  0.58333333  0.33333333  0.32997660  1.0
  Ni  Ni203  1  0.58333333  0.66666667  0.32997660  1.0
  Ni  Ni204  1  0.91666667  0.00000000  0.32997660  1.0
  Ni  Ni205  1  0.91666667  0.33333333  0.32997660  1.0
  Ni  Ni206  1  0.91666667  0.66666667  0.32997660  1.0
  Ni  Ni207  1  0.08333333  0.00000000  0.22997660  1.0
  Ni  Ni208  1  0.08333333  0.33333333  0.22997660  1.0
  Ni  Ni209  1  0.08333333  0.66666667  0.22997660  1.0
  Ni  Ni210  1  0.41666667  0.00000000  0.22997660  1.0
  Ni  Ni211  1  0.41666667  0.33333333  0.22997660  1.0
  Ni  Ni212  1  0.41666667  0.66666667  0.22997660  1.0
  Ni  Ni213  1  0.75000000  0.00000000  0.22997660  1.0
  Ni  Ni214  1  0.75000000  0.33333333  0.22997660  1.0
  Ni  Ni215  1  0.75000000  0.66666667  0.22997660  1.0
