# generated using pymatgen
data_Ga5Ni
_symmetry_space_group_name_H-M   'P 1'
_cell_length_a   19.07822400
_cell_length_b   46.57405261
_cell_length_c   29.21635144
_cell_angle_alpha   86.52317917
_cell_angle_beta   83.75195086
_cell_angle_gamma   78.18127086
_symmetry_Int_Tables_number   1
_chemical_formula_structural   Ga5Ni
_chemical_formula_sum   'Ga540 Ni108'
_cell_volume   25239.28650907
_cell_formula_units_Z   108
loop_
 _symmetry_equiv_pos_site_id
 _symmetry_equiv_pos_as_xyz
  1  'x, y, z'
loop_
 _atom_site_type_symbol
 _atom_site_label
 _atom_site_symmetry_multiplicity
 _atom_site_fract_x
 _atom_site_fract_y
 _atom_site_fract_z
 _atom_site_occupancy
  Ga  Ga0  1  0.23476881  0.21206810  0.93189786  1.0
  Ga  Ga1  1  0.23476881  0.54540143  0.93189786  1.0
  Ga  Ga2  1  0.23476881  0.87873476  0.93189786  1.0
  Ga  Ga3  1  0.56810214  0.21206810  0.93189786  1.0
  Ga  Ga4  1  0.56810214  0.54540143  0.93189786  1.0
  Ga  Ga5  1  0.56810214  0.87873476  0.93189786  1.0
  Ga  Ga6  1  0.90143548  0.21206810  0.93189786  1.0
  Ga  Ga7  1  0.90143548  0.54540143  0.93189786  1.0
  Ga  Ga8  1  0.90143548  0.87873476  0.93189786  1.0
  Ga  Ga9  1  0.13953071  0.09302048  0.86046929  1.0
  Ga  Ga10  1  0.13953071  0.42635381  0.86046929  1.0
  Ga  Ga11  1  0.13953071  0.75968714  0.86046929  1.0
  Ga  Ga12  1  0.47286405  0.09302048  0.86046929  1.0
  Ga  Ga13  1  0.47286405  0.42635381  0.86046929  1.0
  Ga  Ga14  1  0.47286405  0.75968714  0.86046929  1.0
  Ga  Ga15  1  0.80619738  0.09302048  0.86046929  1.0
  Ga  Ga16  1  0.80619738  0.42635381  0.86046929  1.0
  Ga  Ga17  1  0.80619738  0.75968714  0.86046929  1.0
  Ga  Ga18  1  0.28238786  0.10492524  0.96761214  1.0
  Ga  Ga19  1  0.28238786  0.43825857  0.96761214  1.0
  Ga  Ga20  1  0.28238786  0.77159190  0.96761214  1.0
  Ga  Ga21  1  0.61572119  0.10492524  0.96761214  1.0
  Ga  Ga22  1  0.61572119  0.43825857  0.96761214  1.0
  Ga  Ga23  1  0.61572119  0.77159190  0.96761214  1.0
  Ga  Ga24  1  0.94905452  0.10492524  0.96761214  1.0
  Ga  Ga25  1  0.94905452  0.43825857  0.96761214  1.0
  Ga  Ga26  1  0.94905452  0.77159190  0.96761214  1.0
  Ga  Ga27  1  0.18714976  0.31921095  0.89618357  1.0
  Ga  Ga28  1  0.18714976  0.65254429  0.89618357  1.0
  Ga  Ga29  1  0.18714976  0.98587762  0.89618357  1.0
  Ga  Ga30  1  0.52048310  0.31921095  0.89618357  1.0
  Ga  Ga31  1  0.52048310  0.65254429  0.89618357  1.0
  Ga  Ga32  1  0.52048310  0.98587762  0.89618357  1.0
  Ga  Ga33  1  0.85381643  0.31921095  0.89618357  1.0
  Ga  Ga34  1  0.85381643  0.65254429  0.89618357  1.0
  Ga  Ga35  1  0.85381643  0.98587762  0.89618357  1.0
  Ga  Ga36  1  0.09726005  0.24638481  0.95376629  1.0
  Ga  Ga37  1  0.09726005  0.57971814  0.95376629  1.0
  Ga  Ga38  1  0.09726005  0.91305148  0.95376629  1.0
  Ga  Ga39  1  0.43059338  0.24638481  0.95376629  1.0
  Ga  Ga40  1  0.43059338  0.57971814  0.95376629  1.0
  Ga  Ga41  1  0.43059338  0.91305148  0.95376629  1.0
  Ga  Ga42  1  0.76392671  0.24638481  0.95376629  1.0
  Ga  Ga43  1  0.76392671  0.57971814  0.95376629  1.0
  Ga  Ga44  1  0.76392671  0.91305148  0.95376629  1.0
  Ga  Ga45  1  0.00202195  0.12733719  0.88233771  1.0
  Ga  Ga46  1  0.00202195  0.46067052  0.88233771  1.0
  Ga  Ga47  1  0.00202195  0.79400386  0.88233771  1.0
  Ga  Ga48  1  0.33535529  0.12733719  0.88233771  1.0
  Ga  Ga49  1  0.33535529  0.46067052  0.88233771  1.0
  Ga  Ga50  1  0.33535529  0.79400386  0.88233771  1.0
  Ga  Ga51  1  0.66868862  0.12733719  0.88233771  1.0
  Ga  Ga52  1  0.66868862  0.46067052  0.88233771  1.0
  Ga  Ga53  1  0.66868862  0.79400386  0.88233771  1.0
  Ga  Ga54  1  0.01161262  0.23924752  0.88953071  1.0
  Ga  Ga55  1  0.01161262  0.57258086  0.88953071  1.0
  Ga  Ga56  1  0.01161262  0.90591419  0.88953071  1.0
  Ga  Ga57  1  0.34494595  0.23924752  0.88953071  1.0
  Ga  Ga58  1  0.34494595  0.57258086  0.88953071  1.0
  Ga  Ga59  1  0.34494595  0.90591419  0.88953071  1.0
  Ga  Ga60  1  0.67827929  0.23924752  0.88953071  1.0
  Ga  Ga61  1  0.67827929  0.57258086  0.88953071  1.0
  Ga  Ga62  1  0.67827929  0.90591419  0.88953071  1.0
  Ga  Ga63  1  0.10685071  0.02496181  0.96095929  1.0
  Ga  Ga64  1  0.10685071  0.35829514  0.96095929  1.0
  Ga  Ga65  1  0.10685071  0.69162848  0.96095929  1.0
  Ga  Ga66  1  0.44018405  0.02496181  0.96095929  1.0
  Ga  Ga67  1  0.44018405  0.35829514  0.96095929  1.0
  Ga  Ga68  1  0.44018405  0.69162848  0.96095929  1.0
  Ga  Ga69  1  0.77351738  0.02496181  0.96095929  1.0
  Ga  Ga70  1  0.77351738  0.35829514  0.96095929  1.0
  Ga  Ga71  1  0.77351738  0.69162848  0.96095929  1.0
  Ga  Ga72  1  0.04495710  0.13924195  0.98948057  1.0
  Ga  Ga73  1  0.04495710  0.47257529  0.98948057  1.0
  Ga  Ga74  1  0.04495710  0.80590862  0.98948057  1.0
  Ga  Ga75  1  0.37829043  0.13924195  0.98948057  1.0
  Ga  Ga76  1  0.37829043  0.47257529  0.98948057  1.0
  Ga  Ga77  1  0.37829043  0.80590862  0.98948057  1.0
  Ga  Ga78  1  0.71162376  0.13924195  0.98948057  1.0
  Ga  Ga79  1  0.71162376  0.47257529  0.98948057  1.0
  Ga  Ga80  1  0.71162376  0.80590862  0.98948057  1.0
  Ga  Ga81  1  0.28305233  0.02019433  0.91805200  1.0
  Ga  Ga82  1  0.28305233  0.35352767  0.91805200  1.0
  Ga  Ga83  1  0.28305233  0.68686100  0.91805200  1.0
  Ga  Ga84  1  0.61638567  0.02019433  0.91805200  1.0
  Ga  Ga85  1  0.61638567  0.35352767  0.91805200  1.0
  Ga  Ga86  1  0.61638567  0.68686100  0.91805200  1.0
  Ga  Ga87  1  0.94971900  0.02019433  0.91805200  1.0
  Ga  Ga88  1  0.94971900  0.35352767  0.91805200  1.0
  Ga  Ga89  1  0.94971900  0.68686100  0.91805200  1.0
  Ga  Ga90  1  0.25439176  0.25115229  0.99667357  1.0
  Ga  Ga91  1  0.25439176  0.58448562  0.99667357  1.0
  Ga  Ga92  1  0.25439176  0.91781895  0.99667357  1.0
  Ga  Ga93  1  0.58772510  0.25115229  0.99667357  1.0
  Ga  Ga94  1  0.58772510  0.58448562  0.99667357  1.0
  Ga  Ga95  1  0.58772510  0.91781895  0.99667357  1.0
  Ga  Ga96  1  0.92105843  0.25115229  0.99667357  1.0
  Ga  Ga97  1  0.92105843  0.58448562  0.99667357  1.0
  Ga  Ga98  1  0.92105843  0.91781895  0.99667357  1.0
  Ga  Ga99  1  0.15915367  0.13210467  0.92524500  1.0
  Ga  Ga100  1  0.15915367  0.46543800  0.92524500  1.0
  Ga  Ga101  1  0.15915367  0.79877133  0.92524500  1.0
  Ga  Ga102  1  0.49248700  0.13210467  0.92524500  1.0
  Ga  Ga103  1  0.49248700  0.46543800  0.92524500  1.0
  Ga  Ga104  1  0.49248700  0.79877133  0.92524500  1.0
  Ga  Ga105  1  0.82582033  0.13210467  0.92524500  1.0
  Ga  Ga106  1  0.82582033  0.46543800  0.92524500  1.0
  Ga  Ga107  1  0.82582033  0.79877133  0.92524500  1.0
  Ga  Ga108  1  0.03894424  0.17775138  0.91002943  1.0
  Ga  Ga109  1  0.03894424  0.51108471  0.91002943  1.0
  Ga  Ga110  1  0.03894424  0.84441805  0.91002943  1.0
  Ga  Ga111  1  0.37227757  0.17775138  0.91002943  1.0
  Ga  Ga112  1  0.37227757  0.51108471  0.91002943  1.0
  Ga  Ga113  1  0.37227757  0.84441805  0.91002943  1.0
  Ga  Ga114  1  0.70561090  0.17775138  0.91002943  1.0
  Ga  Ga115  1  0.70561090  0.51108471  0.91002943  1.0
  Ga  Ga116  1  0.70561090  0.84441805  0.91002943  1.0
  Ga  Ga117  1  0.13418233  0.29679900  0.98145800  1.0
  Ga  Ga118  1  0.13418233  0.63013233  0.98145800  1.0
  Ga  Ga119  1  0.13418233  0.96346567  0.98145800  1.0
  Ga  Ga120  1  0.46751567  0.29679900  0.98145800  1.0
  Ga  Ga121  1  0.46751567  0.63013233  0.98145800  1.0
  Ga  Ga122  1  0.46751567  0.96346567  0.98145800  1.0
  Ga  Ga123  1  0.80084900  0.29679900  0.98145800  1.0
  Ga  Ga124  1  0.80084900  0.63013233  0.98145800  1.0
  Ga  Ga125  1  0.80084900  0.96346567  0.98145800  1.0
  Ga  Ga126  1  0.12459167  0.18488867  0.97426500  1.0
  Ga  Ga127  1  0.12459167  0.51822200  0.97426500  1.0
  Ga  Ga128  1  0.12459167  0.85155533  0.97426500  1.0
  Ga  Ga129  1  0.45792500  0.18488867  0.97426500  1.0
  Ga  Ga130  1  0.45792500  0.51822200  0.97426500  1.0
  Ga  Ga131  1  0.45792500  0.85155533  0.97426500  1.0
  Ga  Ga132  1  0.79125833  0.18488867  0.97426500  1.0
  Ga  Ga133  1  0.79125833  0.51822200  0.97426500  1.0
  Ga  Ga134  1  0.79125833  0.85155533  0.97426500  1.0
  Ga  Ga135  1  0.02935357  0.06584105  0.90283643  1.0
  Ga  Ga136  1  0.02935357  0.39917438  0.90283643  1.0
  Ga  Ga137  1  0.02935357  0.73250771  0.90283643  1.0
  Ga  Ga138  1  0.36268690  0.06584105  0.90283643  1.0
  Ga  Ga139  1  0.36268690  0.39917438  0.90283643  1.0
  Ga  Ga140  1  0.36268690  0.73250771  0.90283643  1.0
  Ga  Ga141  1  0.69602024  0.06584105  0.90283643  1.0
  Ga  Ga142  1  0.69602024  0.39917438  0.90283643  1.0
  Ga  Ga143  1  0.69602024  0.73250771  0.90283643  1.0
  Ga  Ga144  1  0.09124719  0.28489424  0.87431514  1.0
  Ga  Ga145  1  0.09124719  0.61822757  0.87431514  1.0
  Ga  Ga146  1  0.09124719  0.95156090  0.87431514  1.0
  Ga  Ga147  1  0.42458052  0.28489424  0.87431514  1.0
  Ga  Ga148  1  0.42458052  0.61822757  0.87431514  1.0
  Ga  Ga149  1  0.42458052  0.95156090  0.87431514  1.0
  Ga  Ga150  1  0.75791386  0.28489424  0.87431514  1.0
  Ga  Ga151  1  0.75791386  0.61822757  0.87431514  1.0
  Ga  Ga152  1  0.75791386  0.95156090  0.87431514  1.0
  Ga  Ga153  1  0.18648529  0.07060852  0.94574371  1.0
  Ga  Ga154  1  0.18648529  0.40394186  0.94574371  1.0
  Ga  Ga155  1  0.18648529  0.73727519  0.94574371  1.0
  Ga  Ga156  1  0.51981862  0.07060852  0.94574371  1.0
  Ga  Ga157  1  0.51981862  0.40394186  0.94574371  1.0
  Ga  Ga158  1  0.51981862  0.73727519  0.94574371  1.0
  Ga  Ga159  1  0.85315195  0.07060852  0.94574371  1.0
  Ga  Ga160  1  0.85315195  0.40394186  0.94574371  1.0
  Ga  Ga161  1  0.85315195  0.73727519  0.94574371  1.0
  Ga  Ga162  1  0.21514586  0.17298390  0.86712214  1.0
  Ga  Ga163  1  0.21514586  0.50631724  0.86712214  1.0
  Ga  Ga164  1  0.21514586  0.83965057  0.86712214  1.0
  Ga  Ga165  1  0.54847919  0.17298390  0.86712214  1.0
  Ga  Ga166  1  0.54847919  0.50631724  0.86712214  1.0
  Ga  Ga167  1  0.54847919  0.83965057  0.86712214  1.0
  Ga  Ga168  1  0.88181252  0.17298390  0.86712214  1.0
  Ga  Ga169  1  0.88181252  0.50631724  0.86712214  1.0
  Ga  Ga170  1  0.88181252  0.83965057  0.86712214  1.0
  Ga  Ga171  1  0.31038395  0.29203152  0.93855071  1.0
  Ga  Ga172  1  0.31038395  0.62536486  0.93855071  1.0
  Ga  Ga173  1  0.31038395  0.95869819  0.93855071  1.0
  Ga  Ga174  1  0.64371729  0.29203152  0.93855071  1.0
  Ga  Ga175  1  0.64371729  0.62536486  0.93855071  1.0
  Ga  Ga176  1  0.64371729  0.95869819  0.93855071  1.0
  Ga  Ga177  1  0.97705062  0.29203152  0.93855071  1.0
  Ga  Ga178  1  0.97705062  0.62536486  0.93855071  1.0
  Ga  Ga179  1  0.97705062  0.95869819  0.93855071  1.0
  Ga  Ga180  1  0.04429262  0.30730619  0.78904071  1.0
  Ga  Ga181  1  0.04429262  0.64063952  0.78904071  1.0
  Ga  Ga182  1  0.04429262  0.97397286  0.78904071  1.0
  Ga  Ga183  1  0.37762595  0.30730619  0.78904071  1.0
  Ga  Ga184  1  0.37762595  0.64063952  0.78904071  1.0
  Ga  Ga185  1  0.37762595  0.97397286  0.78904071  1.0
  Ga  Ga186  1  0.71095929  0.30730619  0.78904071  1.0
  Ga  Ga187  1  0.71095929  0.64063952  0.78904071  1.0
  Ga  Ga188  1  0.71095929  0.97397286  0.78904071  1.0
  Ga  Ga189  1  0.28238786  0.18825857  0.71761214  1.0
  Ga  Ga190  1  0.28238786  0.52159190  0.71761214  1.0
  Ga  Ga191  1  0.28238786  0.85492524  0.71761214  1.0
  Ga  Ga192  1  0.61572119  0.18825857  0.71761214  1.0
  Ga  Ga193  1  0.61572119  0.52159190  0.71761214  1.0
  Ga  Ga194  1  0.61572119  0.85492524  0.71761214  1.0
  Ga  Ga195  1  0.94905452  0.18825857  0.71761214  1.0
  Ga  Ga196  1  0.94905452  0.52159190  0.71761214  1.0
  Ga  Ga197  1  0.94905452  0.85492524  0.71761214  1.0
  Ga  Ga198  1  0.09191167  0.20016333  0.82475500  1.0
  Ga  Ga199  1  0.09191167  0.53349667  0.82475500  1.0
  Ga  Ga200  1  0.09191167  0.86683000  0.82475500  1.0
  Ga  Ga201  1  0.42524500  0.20016333  0.82475500  1.0
  Ga  Ga202  1  0.42524500  0.53349667  0.82475500  1.0
  Ga  Ga203  1  0.42524500  0.86683000  0.82475500  1.0
  Ga  Ga204  1  0.75857833  0.20016333  0.82475500  1.0
  Ga  Ga205  1  0.75857833  0.53349667  0.82475500  1.0
  Ga  Ga206  1  0.75857833  0.86683000  0.82475500  1.0
  Ga  Ga207  1  0.33000690  0.08111571  0.75332643  1.0
  Ga  Ga208  1  0.33000690  0.41444905  0.75332643  1.0
  Ga  Ga209  1  0.33000690  0.74778238  0.75332643  1.0
  Ga  Ga210  1  0.66334024  0.08111571  0.75332643  1.0
  Ga  Ga211  1  0.66334024  0.41444905  0.75332643  1.0
  Ga  Ga212  1  0.66334024  0.74778238  0.75332643  1.0
  Ga  Ga213  1  0.99667357  0.08111571  0.75332643  1.0
  Ga  Ga214  1  0.99667357  0.41444905  0.75332643  1.0
  Ga  Ga215  1  0.99667357  0.74778238  0.75332643  1.0
  Ga  Ga216  1  0.24011719  0.00828957  0.81090914  1.0
  Ga  Ga217  1  0.24011719  0.34162290  0.81090914  1.0
  Ga  Ga218  1  0.24011719  0.67495624  0.81090914  1.0
  Ga  Ga219  1  0.57345052  0.00828957  0.81090914  1.0
  Ga  Ga220  1  0.57345052  0.34162290  0.81090914  1.0
  Ga  Ga221  1  0.57345052  0.67495624  0.81090914  1.0
  Ga  Ga222  1  0.90678386  0.00828957  0.81090914  1.0
  Ga  Ga223  1  0.90678386  0.34162290  0.81090914  1.0
  Ga  Ga224  1  0.90678386  0.67495624  0.81090914  1.0
  Ga  Ga225  1  0.14487910  0.22257529  0.73948057  1.0
  Ga  Ga226  1  0.14487910  0.55590862  0.73948057  1.0
  Ga  Ga227  1  0.14487910  0.88924195  0.73948057  1.0
  Ga  Ga228  1  0.47821243  0.22257529  0.73948057  1.0
  Ga  Ga229  1  0.47821243  0.55590862  0.73948057  1.0
  Ga  Ga230  1  0.47821243  0.88924195  0.73948057  1.0
  Ga  Ga231  1  0.81154576  0.22257529  0.73948057  1.0
  Ga  Ga232  1  0.81154576  0.55590862  0.73948057  1.0
  Ga  Ga233  1  0.81154576  0.88924195  0.73948057  1.0
  Ga  Ga234  1  0.15446976  0.00115229  0.74667357  1.0
  Ga  Ga235  1  0.15446976  0.33448562  0.74667357  1.0
  Ga  Ga236  1  0.15446976  0.66781895  0.74667357  1.0
  Ga  Ga237  1  0.48780310  0.00115229  0.74667357  1.0
  Ga  Ga238  1  0.48780310  0.33448562  0.74667357  1.0
  Ga  Ga239  1  0.48780310  0.66781895  0.74667357  1.0
  Ga  Ga240  1  0.82113643  0.00115229  0.74667357  1.0
  Ga  Ga241  1  0.82113643  0.33448562  0.74667357  1.0
  Ga  Ga242  1  0.82113643  0.66781895  0.74667357  1.0
  Ga  Ga243  1  0.24970786  0.12019990  0.81810214  1.0
  Ga  Ga244  1  0.24970786  0.45353324  0.81810214  1.0
  Ga  Ga245  1  0.24970786  0.78686657  0.81810214  1.0
  Ga  Ga246  1  0.58304119  0.12019990  0.81810214  1.0
  Ga  Ga247  1  0.58304119  0.45353324  0.81810214  1.0
  Ga  Ga248  1  0.58304119  0.78686657  0.81810214  1.0
  Ga  Ga249  1  0.91637452  0.12019990  0.81810214  1.0
  Ga  Ga250  1  0.91637452  0.45353324  0.81810214  1.0
  Ga  Ga251  1  0.91637452  0.78686657  0.81810214  1.0
  Ga  Ga252  1  0.18781424  0.23448005  0.84662343  1.0
  Ga  Ga253  1  0.18781424  0.56781338  0.84662343  1.0
  Ga  Ga254  1  0.18781424  0.90114671  0.84662343  1.0
  Ga  Ga255  1  0.52114757  0.23448005  0.84662343  1.0
  Ga  Ga256  1  0.52114757  0.56781338  0.84662343  1.0
  Ga  Ga257  1  0.52114757  0.90114671  0.84662343  1.0
  Ga  Ga258  1  0.85448090  0.23448005  0.84662343  1.0
  Ga  Ga259  1  0.85448090  0.56781338  0.84662343  1.0
  Ga  Ga260  1  0.85448090  0.90114671  0.84662343  1.0
  Ga  Ga261  1  0.09257614  0.11543243  0.77519486  1.0
  Ga  Ga262  1  0.09257614  0.44876576  0.77519486  1.0
  Ga  Ga263  1  0.09257614  0.78209910  0.77519486  1.0
  Ga  Ga264  1  0.42590948  0.11543243  0.77519486  1.0
  Ga  Ga265  1  0.42590948  0.44876576  0.77519486  1.0
  Ga  Ga266  1  0.42590948  0.78209910  0.77519486  1.0
  Ga  Ga267  1  0.75924281  0.11543243  0.77519486  1.0
  Ga  Ga268  1  0.75924281  0.44876576  0.77519486  1.0
  Ga  Ga269  1  0.75924281  0.78209910  0.77519486  1.0
  Ga  Ga270  1  0.06391557  0.01305705  0.85381643  1.0
  Ga  Ga271  1  0.06391557  0.34639038  0.85381643  1.0
  Ga  Ga272  1  0.06391557  0.67972371  0.85381643  1.0
  Ga  Ga273  1  0.39724890  0.01305705  0.85381643  1.0
  Ga  Ga274  1  0.39724890  0.34639038  0.85381643  1.0
  Ga  Ga275  1  0.39724890  0.67972371  0.85381643  1.0
  Ga  Ga276  1  0.73058224  0.01305705  0.85381643  1.0
  Ga  Ga277  1  0.73058224  0.34639038  0.85381643  1.0
  Ga  Ga278  1  0.73058224  0.67972371  0.85381643  1.0
  Ga  Ga279  1  0.30201081  0.22734276  0.78238786  1.0
  Ga  Ga280  1  0.30201081  0.56067610  0.78238786  1.0
  Ga  Ga281  1  0.30201081  0.89400943  0.78238786  1.0
  Ga  Ga282  1  0.63534414  0.22734276  0.78238786  1.0
  Ga  Ga283  1  0.63534414  0.56067610  0.78238786  1.0
  Ga  Ga284  1  0.63534414  0.89400943  0.78238786  1.0
  Ga  Ga285  1  0.96867748  0.22734276  0.78238786  1.0
  Ga  Ga286  1  0.96867748  0.56067610  0.78238786  1.0
  Ga  Ga287  1  0.96867748  0.89400943  0.78238786  1.0
  Ga  Ga288  1  0.18180138  0.27298948  0.76717229  1.0
  Ga  Ga289  1  0.18180138  0.60632281  0.76717229  1.0
  Ga  Ga290  1  0.18180138  0.93965614  0.76717229  1.0
  Ga  Ga291  1  0.51513471  0.27298948  0.76717229  1.0
  Ga  Ga292  1  0.51513471  0.60632281  0.76717229  1.0
  Ga  Ga293  1  0.51513471  0.93965614  0.76717229  1.0
  Ga  Ga294  1  0.84846805  0.27298948  0.76717229  1.0
  Ga  Ga295  1  0.84846805  0.60632281  0.76717229  1.0
  Ga  Ga296  1  0.84846805  0.93965614  0.76717229  1.0
  Ga  Ga297  1  0.27703948  0.05870376  0.83860086  1.0
  Ga  Ga298  1  0.27703948  0.39203710  0.83860086  1.0
  Ga  Ga299  1  0.27703948  0.72537043  0.83860086  1.0
  Ga  Ga300  1  0.61037281  0.05870376  0.83860086  1.0
  Ga  Ga301  1  0.61037281  0.39203710  0.83860086  1.0
  Ga  Ga302  1  0.61037281  0.72537043  0.83860086  1.0
  Ga  Ga303  1  0.94370614  0.05870376  0.83860086  1.0
  Ga  Ga304  1  0.94370614  0.39203710  0.83860086  1.0
  Ga  Ga305  1  0.94370614  0.72537043  0.83860086  1.0
  Ga  Ga306  1  0.26744881  0.28012676  0.83140786  1.0
  Ga  Ga307  1  0.26744881  0.61346010  0.83140786  1.0
  Ga  Ga308  1  0.26744881  0.94679343  0.83140786  1.0
  Ga  Ga309  1  0.60078214  0.28012676  0.83140786  1.0
  Ga  Ga310  1  0.60078214  0.61346010  0.83140786  1.0
  Ga  Ga311  1  0.60078214  0.94679343  0.83140786  1.0
  Ga  Ga312  1  0.93411548  0.28012676  0.83140786  1.0
  Ga  Ga313  1  0.93411548  0.61346010  0.83140786  1.0
  Ga  Ga314  1  0.93411548  0.94679343  0.83140786  1.0
  Ga  Ga315  1  0.17221071  0.16107914  0.75997929  1.0
  Ga  Ga316  1  0.17221071  0.49441248  0.75997929  1.0
  Ga  Ga317  1  0.17221071  0.82774581  0.75997929  1.0
  Ga  Ga318  1  0.50554405  0.16107914  0.75997929  1.0
  Ga  Ga319  1  0.50554405  0.49441248  0.75997929  1.0
  Ga  Ga320  1  0.50554405  0.82774581  0.75997929  1.0
  Ga  Ga321  1  0.83887738  0.16107914  0.75997929  1.0
  Ga  Ga322  1  0.83887738  0.49441248  0.75997929  1.0
  Ga  Ga323  1  0.83887738  0.82774581  0.75997929  1.0
  Ga  Ga324  1  0.23410433  0.04679900  0.73145800  1.0
  Ga  Ga325  1  0.23410433  0.38013233  0.73145800  1.0
  Ga  Ga326  1  0.23410433  0.71346567  0.73145800  1.0
  Ga  Ga327  1  0.56743767  0.04679900  0.73145800  1.0
  Ga  Ga328  1  0.56743767  0.38013233  0.73145800  1.0
  Ga  Ga329  1  0.56743767  0.71346567  0.73145800  1.0
  Ga  Ga330  1  0.90077100  0.04679900  0.73145800  1.0
  Ga  Ga331  1  0.90077100  0.38013233  0.73145800  1.0
  Ga  Ga332  1  0.90077100  0.71346567  0.73145800  1.0
  Ga  Ga333  1  0.32934243  0.16584662  0.80288657  1.0
  Ga  Ga334  1  0.32934243  0.49917995  0.80288657  1.0
  Ga  Ga335  1  0.32934243  0.83251329  0.80288657  1.0
  Ga  Ga336  1  0.66267576  0.16584662  0.80288657  1.0
  Ga  Ga337  1  0.66267576  0.49917995  0.80288657  1.0
  Ga  Ga338  1  0.66267576  0.83251329  0.80288657  1.0
  Ga  Ga339  1  0.99600910  0.16584662  0.80288657  1.0
  Ga  Ga340  1  0.99600910  0.49917995  0.80288657  1.0
  Ga  Ga341  1  0.99600910  0.83251329  0.80288657  1.0
  Ga  Ga342  1  0.02466967  0.26822200  0.72426500  1.0
  Ga  Ga343  1  0.02466967  0.60155533  0.72426500  1.0
  Ga  Ga344  1  0.02466967  0.93488867  0.72426500  1.0
  Ga  Ga345  1  0.35800300  0.26822200  0.72426500  1.0
  Ga  Ga346  1  0.35800300  0.60155533  0.72426500  1.0
  Ga  Ga347  1  0.35800300  0.93488867  0.72426500  1.0
  Ga  Ga348  1  0.69133633  0.26822200  0.72426500  1.0
  Ga  Ga349  1  0.69133633  0.60155533  0.72426500  1.0
  Ga  Ga350  1  0.69133633  0.93488867  0.72426500  1.0
  Ga  Ga351  1  0.11990776  0.05393629  0.79569357  1.0
  Ga  Ga352  1  0.11990776  0.38726962  0.79569357  1.0
  Ga  Ga353  1  0.11990776  0.72060295  0.79569357  1.0
  Ga  Ga354  1  0.45324110  0.05393629  0.79569357  1.0
  Ga  Ga355  1  0.45324110  0.38726962  0.79569357  1.0
  Ga  Ga356  1  0.45324110  0.72060295  0.79569357  1.0
  Ga  Ga357  1  0.78657443  0.05393629  0.79569357  1.0
  Ga  Ga358  1  0.78657443  0.38726962  0.79569357  1.0
  Ga  Ga359  1  0.78657443  0.72060295  0.79569357  1.0
  Ga  Ga360  1  0.18714976  0.06921095  0.64618357  1.0
  Ga  Ga361  1  0.18714976  0.40254429  0.64618357  1.0
  Ga  Ga362  1  0.18714976  0.73587762  0.64618357  1.0
  Ga  Ga363  1  0.52048310  0.06921095  0.64618357  1.0
  Ga  Ga364  1  0.52048310  0.40254429  0.64618357  1.0
  Ga  Ga365  1  0.52048310  0.73587762  0.64618357  1.0
  Ga  Ga366  1  0.85381643  0.06921095  0.64618357  1.0
  Ga  Ga367  1  0.85381643  0.40254429  0.64618357  1.0
  Ga  Ga368  1  0.85381643  0.73587762  0.64618357  1.0
  Ga  Ga369  1  0.09191167  0.28349667  0.57475500  1.0
  Ga  Ga370  1  0.09191167  0.61683000  0.57475500  1.0
  Ga  Ga371  1  0.09191167  0.95016333  0.57475500  1.0
  Ga  Ga372  1  0.42524500  0.28349667  0.57475500  1.0
  Ga  Ga373  1  0.42524500  0.61683000  0.57475500  1.0
  Ga  Ga374  1  0.42524500  0.95016333  0.57475500  1.0
  Ga  Ga375  1  0.75857833  0.28349667  0.57475500  1.0
  Ga  Ga376  1  0.75857833  0.61683000  0.57475500  1.0
  Ga  Ga377  1  0.75857833  0.95016333  0.57475500  1.0
  Ga  Ga378  1  0.23476881  0.29540143  0.68189786  1.0
  Ga  Ga379  1  0.23476881  0.62873476  0.68189786  1.0
  Ga  Ga380  1  0.23476881  0.96206810  0.68189786  1.0
  Ga  Ga381  1  0.56810214  0.29540143  0.68189786  1.0
  Ga  Ga382  1  0.56810214  0.62873476  0.68189786  1.0
  Ga  Ga383  1  0.56810214  0.96206810  0.68189786  1.0
  Ga  Ga384  1  0.90143548  0.29540143  0.68189786  1.0
  Ga  Ga385  1  0.90143548  0.62873476  0.68189786  1.0
  Ga  Ga386  1  0.90143548  0.96206810  0.68189786  1.0
  Ga  Ga387  1  0.13953071  0.17635381  0.61046929  1.0
  Ga  Ga388  1  0.13953071  0.50968714  0.61046929  1.0
  Ga  Ga389  1  0.13953071  0.84302048  0.61046929  1.0
  Ga  Ga390  1  0.47286405  0.17635381  0.61046929  1.0
  Ga  Ga391  1  0.47286405  0.50968714  0.61046929  1.0
  Ga  Ga392  1  0.47286405  0.84302048  0.61046929  1.0
  Ga  Ga393  1  0.80619738  0.17635381  0.61046929  1.0
  Ga  Ga394  1  0.80619738  0.50968714  0.61046929  1.0
  Ga  Ga395  1  0.80619738  0.84302048  0.61046929  1.0
  Ga  Ga396  1  0.04964100  0.10352767  0.66805200  1.0
  Ga  Ga397  1  0.04964100  0.43686100  0.66805200  1.0
  Ga  Ga398  1  0.04964100  0.77019433  0.66805200  1.0
  Ga  Ga399  1  0.38297433  0.10352767  0.66805200  1.0
  Ga  Ga400  1  0.38297433  0.43686100  0.66805200  1.0
  Ga  Ga401  1  0.38297433  0.77019433  0.66805200  1.0
  Ga  Ga402  1  0.71630767  0.10352767  0.66805200  1.0
  Ga  Ga403  1  0.71630767  0.43686100  0.66805200  1.0
  Ga  Ga404  1  0.71630767  0.77019433  0.66805200  1.0
  Ga  Ga405  1  0.28773624  0.31781338  0.59662343  1.0
  Ga  Ga406  1  0.28773624  0.65114671  0.59662343  1.0
  Ga  Ga407  1  0.28773624  0.98448005  0.59662343  1.0
  Ga  Ga408  1  0.62106957  0.31781338  0.59662343  1.0
  Ga  Ga409  1  0.62106957  0.65114671  0.59662343  1.0
  Ga  Ga410  1  0.62106957  0.98448005  0.59662343  1.0
  Ga  Ga411  1  0.95440290  0.31781338  0.59662343  1.0
  Ga  Ga412  1  0.95440290  0.65114671  0.59662343  1.0
  Ga  Ga413  1  0.95440290  0.98448005  0.59662343  1.0
  Ga  Ga414  1  0.29732690  0.09639038  0.60381643  1.0
  Ga  Ga415  1  0.29732690  0.42972371  0.60381643  1.0
  Ga  Ga416  1  0.29732690  0.76305705  0.60381643  1.0
  Ga  Ga417  1  0.63066024  0.09639038  0.60381643  1.0
  Ga  Ga418  1  0.63066024  0.42972371  0.60381643  1.0
  Ga  Ga419  1  0.63066024  0.76305705  0.60381643  1.0
  Ga  Ga420  1  0.96399357  0.09639038  0.60381643  1.0
  Ga  Ga421  1  0.96399357  0.42972371  0.60381643  1.0
  Ga  Ga422  1  0.96399357  0.76305705  0.60381643  1.0
  Ga  Ga423  1  0.05923167  0.21543800  0.67524500  1.0
  Ga  Ga424  1  0.05923167  0.54877133  0.67524500  1.0
  Ga  Ga425  1  0.05923167  0.88210467  0.67524500  1.0
  Ga  Ga426  1  0.39256500  0.21543800  0.67524500  1.0
  Ga  Ga427  1  0.39256500  0.54877133  0.67524500  1.0
  Ga  Ga428  1  0.39256500  0.88210467  0.67524500  1.0
  Ga  Ga429  1  0.72589833  0.21543800  0.67524500  1.0
  Ga  Ga430  1  0.72589833  0.54877133  0.67524500  1.0
  Ga  Ga431  1  0.72589833  0.88210467  0.67524500  1.0
  Ga  Ga432  1  0.33067138  0.32971814  0.70376629  1.0
  Ga  Ga433  1  0.33067138  0.66305148  0.70376629  1.0
  Ga  Ga434  1  0.33067138  0.99638481  0.70376629  1.0
  Ga  Ga435  1  0.66400471  0.32971814  0.70376629  1.0
  Ga  Ga436  1  0.66400471  0.66305148  0.70376629  1.0
  Ga  Ga437  1  0.66400471  0.99638481  0.70376629  1.0
  Ga  Ga438  1  0.99733805  0.32971814  0.70376629  1.0
  Ga  Ga439  1  0.99733805  0.66305148  0.70376629  1.0
  Ga  Ga440  1  0.99733805  0.99638481  0.70376629  1.0
  Ga  Ga441  1  0.23543329  0.21067052  0.63233771  1.0
  Ga  Ga442  1  0.23543329  0.54400386  0.63233771  1.0
  Ga  Ga443  1  0.23543329  0.87733719  0.63233771  1.0
  Ga  Ga444  1  0.56876662  0.21067052  0.63233771  1.0
  Ga  Ga445  1  0.56876662  0.54400386  0.63233771  1.0
  Ga  Ga446  1  0.56876662  0.87733719  0.63233771  1.0
  Ga  Ga447  1  0.90209995  0.21067052  0.63233771  1.0
  Ga  Ga448  1  0.90209995  0.54400386  0.63233771  1.0
  Ga  Ga449  1  0.90209995  0.87733719  0.63233771  1.0
  Ga  Ga450  1  0.20677271  0.10829514  0.71095929  1.0
  Ga  Ga451  1  0.20677271  0.44162848  0.71095929  1.0
  Ga  Ga452  1  0.20677271  0.77496181  0.71095929  1.0
  Ga  Ga453  1  0.54010605  0.10829514  0.71095929  1.0
  Ga  Ga454  1  0.54010605  0.44162848  0.71095929  1.0
  Ga  Ga455  1  0.54010605  0.77496181  0.71095929  1.0
  Ga  Ga456  1  0.87343938  0.10829514  0.71095929  1.0
  Ga  Ga457  1  0.87343938  0.44162848  0.71095929  1.0
  Ga  Ga458  1  0.87343938  0.77496181  0.71095929  1.0
  Ga  Ga459  1  0.11153462  0.32258086  0.63953071  1.0
  Ga  Ga460  1  0.11153462  0.65591419  0.63953071  1.0
  Ga  Ga461  1  0.11153462  0.98924752  0.63953071  1.0
  Ga  Ga462  1  0.44486795  0.32258086  0.63953071  1.0
  Ga  Ga463  1  0.44486795  0.65591419  0.63953071  1.0
  Ga  Ga464  1  0.44486795  0.98924752  0.63953071  1.0
  Ga  Ga465  1  0.77820129  0.32258086  0.63953071  1.0
  Ga  Ga466  1  0.77820129  0.65591419  0.63953071  1.0
  Ga  Ga467  1  0.77820129  0.98924752  0.63953071  1.0
  Ga  Ga468  1  0.32465852  0.03489424  0.62431514  1.0
  Ga  Ga469  1  0.32465852  0.36822757  0.62431514  1.0
  Ga  Ga470  1  0.32465852  0.70156090  0.62431514  1.0
  Ga  Ga471  1  0.65799186  0.03489424  0.62431514  1.0
  Ga  Ga472  1  0.65799186  0.36822757  0.62431514  1.0
  Ga  Ga473  1  0.65799186  0.70156090  0.62431514  1.0
  Ga  Ga474  1  0.99132519  0.03489424  0.62431514  1.0
  Ga  Ga475  1  0.99132519  0.36822757  0.62431514  1.0
  Ga  Ga476  1  0.99132519  0.70156090  0.62431514  1.0
  Ga  Ga477  1  0.08656329  0.15394186  0.69574371  1.0
  Ga  Ga478  1  0.08656329  0.48727519  0.69574371  1.0
  Ga  Ga479  1  0.08656329  0.82060852  0.69574371  1.0
  Ga  Ga480  1  0.41989662  0.15394186  0.69574371  1.0
  Ga  Ga481  1  0.41989662  0.48727519  0.69574371  1.0
  Ga  Ga482  1  0.41989662  0.82060852  0.69574371  1.0
  Ga  Ga483  1  0.75322995  0.15394186  0.69574371  1.0
  Ga  Ga484  1  0.75322995  0.48727519  0.69574371  1.0
  Ga  Ga485  1  0.75322995  0.82060852  0.69574371  1.0
  Ga  Ga486  1  0.07697262  0.04203152  0.68855071  1.0
  Ga  Ga487  1  0.07697262  0.37536486  0.68855071  1.0
  Ga  Ga488  1  0.07697262  0.70869819  0.68855071  1.0
  Ga  Ga489  1  0.41030595  0.04203152  0.68855071  1.0
  Ga  Ga490  1  0.41030595  0.37536486  0.68855071  1.0
  Ga  Ga491  1  0.41030595  0.70869819  0.68855071  1.0
  Ga  Ga492  1  0.74363929  0.04203152  0.68855071  1.0
  Ga  Ga493  1  0.74363929  0.37536486  0.68855071  1.0
  Ga  Ga494  1  0.74363929  0.70869819  0.68855071  1.0
  Ga  Ga495  1  0.31506786  0.25631724  0.61712214  1.0
  Ga  Ga496  1  0.31506786  0.58965057  0.61712214  1.0
  Ga  Ga497  1  0.31506786  0.92298390  0.61712214  1.0
  Ga  Ga498  1  0.64840119  0.25631724  0.61712214  1.0
  Ga  Ga499  1  0.64840119  0.58965057  0.61712214  1.0
  Ga  Ga500  1  0.64840119  0.92298390  0.61712214  1.0
  Ga  Ga501  1  0.98173452  0.25631724  0.61712214  1.0
  Ga  Ga502  1  0.98173452  0.58965057  0.61712214  1.0
  Ga  Ga503  1  0.98173452  0.92298390  0.61712214  1.0
  Ga  Ga504  1  0.04362814  0.14203710  0.58860086  1.0
  Ga  Ga505  1  0.04362814  0.47537043  0.58860086  1.0
  Ga  Ga506  1  0.04362814  0.80870376  0.58860086  1.0
  Ga  Ga507  1  0.37696148  0.14203710  0.58860086  1.0
  Ga  Ga508  1  0.37696148  0.47537043  0.58860086  1.0
  Ga  Ga509  1  0.37696148  0.80870376  0.58860086  1.0
  Ga  Ga510  1  0.71029481  0.14203710  0.58860086  1.0
  Ga  Ga511  1  0.71029481  0.47537043  0.58860086  1.0
  Ga  Ga512  1  0.71029481  0.80870376  0.58860086  1.0
  Ga  Ga513  1  0.13886624  0.26108471  0.66002943  1.0
  Ga  Ga514  1  0.13886624  0.59441805  0.66002943  1.0
  Ga  Ga515  1  0.13886624  0.92775138  0.66002943  1.0
  Ga  Ga516  1  0.47219957  0.26108471  0.66002943  1.0
  Ga  Ga517  1  0.47219957  0.59441805  0.66002943  1.0
  Ga  Ga518  1  0.47219957  0.92775138  0.66002943  1.0
  Ga  Ga519  1  0.80553290  0.26108471  0.66002943  1.0
  Ga  Ga520  1  0.80553290  0.59441805  0.66002943  1.0
  Ga  Ga521  1  0.80553290  0.92775138  0.66002943  1.0
  Ga  Ga522  1  0.16752681  0.03012676  0.58140786  1.0
  Ga  Ga523  1  0.16752681  0.36346010  0.58140786  1.0
  Ga  Ga524  1  0.16752681  0.69679343  0.58140786  1.0
  Ga  Ga525  1  0.50086014  0.03012676  0.58140786  1.0
  Ga  Ga526  1  0.50086014  0.36346010  0.58140786  1.0
  Ga  Ga527  1  0.50086014  0.69679343  0.58140786  1.0
  Ga  Ga528  1  0.83419348  0.03012676  0.58140786  1.0
  Ga  Ga529  1  0.83419348  0.36346010  0.58140786  1.0
  Ga  Ga530  1  0.83419348  0.69679343  0.58140786  1.0
  Ga  Ga531  1  0.26276490  0.14917438  0.65283643  1.0
  Ga  Ga532  1  0.26276490  0.48250771  0.65283643  1.0
  Ga  Ga533  1  0.26276490  0.81584105  0.65283643  1.0
  Ga  Ga534  1  0.59609824  0.14917438  0.65283643  1.0
  Ga  Ga535  1  0.59609824  0.48250771  0.65283643  1.0
  Ga  Ga536  1  0.59609824  0.81584105  0.65283643  1.0
  Ga  Ga537  1  0.92943157  0.14917438  0.65283643  1.0
  Ga  Ga538  1  0.92943157  0.48250771  0.65283643  1.0
  Ga  Ga539  1  0.92943157  0.81584105  0.65283643  1.0
  Ni  Ni540  1  0.30619738  0.05135381  0.98546929  1.0
  Ni  Ni541  1  0.30619738  0.38468714  0.98546929  1.0
  Ni  Ni542  1  0.30619738  0.71802048  0.98546929  1.0
  Ni  Ni543  1  0.63953071  0.05135381  0.98546929  1.0
  Ni  Ni544  1  0.63953071  0.38468714  0.98546929  1.0
  Ni  Ni545  1  0.63953071  0.71802048  0.98546929  1.0
  Ni  Ni546  1  0.97286405  0.05135381  0.98546929  1.0
  Ni  Ni547  1  0.97286405  0.38468714  0.98546929  1.0
  Ni  Ni548  1  0.97286405  0.71802048  0.98546929  1.0
  Ni  Ni549  1  0.21095929  0.26563952  0.91404071  1.0
  Ni  Ni550  1  0.21095929  0.59897286  0.91404071  1.0
  Ni  Ni551  1  0.21095929  0.93230619  0.91404071  1.0
  Ni  Ni552  1  0.54429262  0.26563952  0.91404071  1.0
  Ni  Ni553  1  0.54429262  0.59897286  0.91404071  1.0
  Ni  Ni554  1  0.54429262  0.93230619  0.91404071  1.0
  Ni  Ni555  1  0.87762595  0.26563952  0.91404071  1.0
  Ni  Ni556  1  0.87762595  0.59897286  0.91404071  1.0
  Ni  Ni557  1  0.87762595  0.93230619  0.91404071  1.0
  Ni  Ni558  1  0.25857833  0.15849667  0.94975500  1.0
  Ni  Ni559  1  0.25857833  0.49183000  0.94975500  1.0
  Ni  Ni560  1  0.25857833  0.82516333  0.94975500  1.0
  Ni  Ni561  1  0.59191167  0.15849667  0.94975500  1.0
  Ni  Ni562  1  0.59191167  0.49183000  0.94975500  1.0
  Ni  Ni563  1  0.59191167  0.82516333  0.94975500  1.0
  Ni  Ni564  1  0.92524500  0.15849667  0.94975500  1.0
  Ni  Ni565  1  0.92524500  0.49183000  0.94975500  1.0
  Ni  Ni566  1  0.92524500  0.82516333  0.94975500  1.0
  Ni  Ni567  1  0.16334024  0.03944905  0.87832643  1.0
  Ni  Ni568  1  0.16334024  0.37278238  0.87832643  1.0
  Ni  Ni569  1  0.16334024  0.70611571  0.87832643  1.0
  Ni  Ni570  1  0.49667357  0.03944905  0.87832643  1.0
  Ni  Ni571  1  0.49667357  0.37278238  0.87832643  1.0
  Ni  Ni572  1  0.49667357  0.70611571  0.87832643  1.0
  Ni  Ni573  1  0.83000690  0.03944905  0.87832643  1.0
  Ni  Ni574  1  0.83000690  0.37278238  0.87832643  1.0
  Ni  Ni575  1  0.83000690  0.70611571  0.87832643  1.0
  Ni  Ni576  1  0.11572119  0.14659190  0.84261214  1.0
  Ni  Ni577  1  0.11572119  0.47992524  0.84261214  1.0
  Ni  Ni578  1  0.11572119  0.81325857  0.84261214  1.0
  Ni  Ni579  1  0.44905452  0.14659190  0.84261214  1.0
  Ni  Ni580  1  0.44905452  0.47992524  0.84261214  1.0
  Ni  Ni581  1  0.44905452  0.81325857  0.84261214  1.0
  Ni  Ni582  1  0.78238786  0.14659190  0.84261214  1.0
  Ni  Ni583  1  0.78238786  0.47992524  0.84261214  1.0
  Ni  Ni584  1  0.78238786  0.81325857  0.84261214  1.0
  Ni  Ni585  1  0.02048310  0.02754429  0.77118357  1.0
  Ni  Ni586  1  0.02048310  0.36087762  0.77118357  1.0
  Ni  Ni587  1  0.02048310  0.69421095  0.77118357  1.0
  Ni  Ni588  1  0.35381643  0.02754429  0.77118357  1.0
  Ni  Ni589  1  0.35381643  0.36087762  0.77118357  1.0
  Ni  Ni590  1  0.35381643  0.69421095  0.77118357  1.0
  Ni  Ni591  1  0.68714976  0.02754429  0.77118357  1.0
  Ni  Ni592  1  0.68714976  0.36087762  0.77118357  1.0
  Ni  Ni593  1  0.68714976  0.69421095  0.77118357  1.0
  Ni  Ni594  1  0.06810214  0.25373476  0.80689786  1.0
  Ni  Ni595  1  0.06810214  0.58706810  0.80689786  1.0
  Ni  Ni596  1  0.06810214  0.92040143  0.80689786  1.0
  Ni  Ni597  1  0.40143548  0.25373476  0.80689786  1.0
  Ni  Ni598  1  0.40143548  0.58706810  0.80689786  1.0
  Ni  Ni599  1  0.40143548  0.92040143  0.80689786  1.0
  Ni  Ni600  1  0.73476881  0.25373476  0.80689786  1.0
  Ni  Ni601  1  0.73476881  0.58706810  0.80689786  1.0
  Ni  Ni602  1  0.73476881  0.92040143  0.80689786  1.0
  Ni  Ni603  1  0.30619738  0.13468714  0.73546929  1.0
  Ni  Ni604  1  0.30619738  0.46802048  0.73546929  1.0
  Ni  Ni605  1  0.30619738  0.80135381  0.73546929  1.0
  Ni  Ni606  1  0.63953071  0.13468714  0.73546929  1.0
  Ni  Ni607  1  0.63953071  0.46802048  0.73546929  1.0
  Ni  Ni608  1  0.63953071  0.80135381  0.73546929  1.0
  Ni  Ni609  1  0.97286405  0.13468714  0.73546929  1.0
  Ni  Ni610  1  0.97286405  0.46802048  0.73546929  1.0
  Ni  Ni611  1  0.97286405  0.80135381  0.73546929  1.0
  Ni  Ni612  1  0.25857833  0.24183000  0.69975500  1.0
  Ni  Ni613  1  0.25857833  0.57516333  0.69975500  1.0
  Ni  Ni614  1  0.25857833  0.90849667  0.69975500  1.0
  Ni  Ni615  1  0.59191167  0.24183000  0.69975500  1.0
  Ni  Ni616  1  0.59191167  0.57516333  0.69975500  1.0
  Ni  Ni617  1  0.59191167  0.90849667  0.69975500  1.0
  Ni  Ni618  1  0.92524500  0.24183000  0.69975500  1.0
  Ni  Ni619  1  0.92524500  0.57516333  0.69975500  1.0
  Ni  Ni620  1  0.92524500  0.90849667  0.69975500  1.0
  Ni  Ni621  1  0.16334024  0.12278238  0.62832643  1.0
  Ni  Ni622  1  0.16334024  0.45611571  0.62832643  1.0
  Ni  Ni623  1  0.16334024  0.78944905  0.62832643  1.0
  Ni  Ni624  1  0.49667357  0.12278238  0.62832643  1.0
  Ni  Ni625  1  0.49667357  0.45611571  0.62832643  1.0
  Ni  Ni626  1  0.49667357  0.78944905  0.62832643  1.0
  Ni  Ni627  1  0.83000690  0.12278238  0.62832643  1.0
  Ni  Ni628  1  0.83000690  0.45611571  0.62832643  1.0
  Ni  Ni629  1  0.83000690  0.78944905  0.62832643  1.0
  Ni  Ni630  1  0.21095929  0.01563952  0.66404071  1.0
  Ni  Ni631  1  0.21095929  0.34897286  0.66404071  1.0
  Ni  Ni632  1  0.21095929  0.68230619  0.66404071  1.0
  Ni  Ni633  1  0.54429262  0.01563952  0.66404071  1.0
  Ni  Ni634  1  0.54429262  0.34897286  0.66404071  1.0
  Ni  Ni635  1  0.54429262  0.68230619  0.66404071  1.0
  Ni  Ni636  1  0.87762595  0.01563952  0.66404071  1.0
  Ni  Ni637  1  0.87762595  0.34897286  0.66404071  1.0
  Ni  Ni638  1  0.87762595  0.68230619  0.66404071  1.0
  Ni  Ni639  1  0.11572119  0.22992524  0.59261214  1.0
  Ni  Ni640  1  0.11572119  0.56325857  0.59261214  1.0
  Ni  Ni641  1  0.11572119  0.89659190  0.59261214  1.0
  Ni  Ni642  1  0.44905452  0.22992524  0.59261214  1.0
  Ni  Ni643  1  0.44905452  0.56325857  0.59261214  1.0
  Ni  Ni644  1  0.44905452  0.89659190  0.59261214  1.0
  Ni  Ni645  1  0.78238786  0.22992524  0.59261214  1.0
  Ni  Ni646  1  0.78238786  0.56325857  0.59261214  1.0
  Ni  Ni647  1  0.78238786  0.89659190  0.59261214  1.0
