# generated using pymatgen
data_Ga7Ni3
_symmetry_space_group_name_H-M   'P 1'
_cell_length_a   35.91251090
_cell_length_b   25.39397999
_cell_length_c   51.31427413
_cell_angle_alpha   54.73561032
_cell_angle_beta   35.26438968
_cell_angle_gamma   45.00000000
_symmetry_Int_Tables_number   1
_chemical_formula_structural   Ga7Ni3
_chemical_formula_sum   'Ga378 Ni162'
_cell_volume   19104.65100244
_cell_formula_units_Z   54
loop_
 _symmetry_equiv_pos_site_id
 _symmetry_equiv_pos_as_xyz
  1  'x, y, z'
loop_
 _atom_site_type_symbol
 _atom_site_label
 _atom_site_symmetry_multiplicity
 _atom_site_fract_x
 _atom_site_fract_y
 _atom_site_fract_z
 _atom_site_occupancy
  Ga  Ga0  1  0.08333333  0.16666667  0.04997843  1.0
  Ga  Ga1  1  0.08333333  0.50000000  0.04997843  1.0
  Ga  Ga2  1  0.08333333  0.83333333  0.04997843  1.0
  Ga  Ga3  1  0.41666667  0.16666667  0.04997843  1.0
  Ga  Ga4  1  0.41666667  0.50000000  0.04997843  1.0
  Ga  Ga5  1  0.41666667  0.83333333  0.04997843  1.0
  Ga  Ga6  1  0.75000000  0.16666667  0.04997843  1.0
  Ga  Ga7  1  0.75000000  0.50000000  0.04997843  1.0
  Ga  Ga8  1  0.75000000  0.83333333  0.04997843  1.0
  Ga  Ga9  1  0.08333333  0.08333333  0.12140700  1.0
  Ga  Ga10  1  0.08333333  0.41666667  0.12140700  1.0
  Ga  Ga11  1  0.08333333  0.75000000  0.12140700  1.0
  Ga  Ga12  1  0.41666667  0.08333333  0.12140700  1.0
  Ga  Ga13  1  0.41666667  0.41666667  0.12140700  1.0
  Ga  Ga14  1  0.41666667  0.75000000  0.12140700  1.0
  Ga  Ga15  1  0.75000000  0.08333333  0.12140700  1.0
  Ga  Ga16  1  0.75000000  0.41666667  0.12140700  1.0
  Ga  Ga17  1  0.75000000  0.75000000  0.12140700  1.0
  Ga  Ga18  1  0.25000000  0.25000000  0.12140700  1.0
  Ga  Ga19  1  0.25000000  0.58333333  0.12140700  1.0
  Ga  Ga20  1  0.25000000  0.91666667  0.12140700  1.0
  Ga  Ga21  1  0.58333333  0.25000000  0.12140700  1.0
  Ga  Ga22  1  0.58333333  0.58333333  0.12140700  1.0
  Ga  Ga23  1  0.58333333  0.91666667  0.12140700  1.0
  Ga  Ga24  1  0.91666667  0.25000000  0.12140700  1.0
  Ga  Ga25  1  0.91666667  0.58333333  0.12140700  1.0
  Ga  Ga26  1  0.91666667  0.91666667  0.12140700  1.0
  Ga  Ga27  1  0.16666667  0.08333333  0.12140700  1.0
  Ga  Ga28  1  0.16666667  0.41666667  0.12140700  1.0
  Ga  Ga29  1  0.16666667  0.75000000  0.12140700  1.0
  Ga  Ga30  1  0.50000000  0.08333333  0.12140700  1.0
  Ga  Ga31  1  0.50000000  0.41666667  0.12140700  1.0
  Ga  Ga32  1  0.50000000  0.75000000  0.12140700  1.0
  Ga  Ga33  1  0.83333333  0.08333333  0.12140700  1.0
  Ga  Ga34  1  0.83333333  0.41666667  0.12140700  1.0
  Ga  Ga35  1  0.83333333  0.75000000  0.12140700  1.0
  Ga  Ga36  1  0.16666667  0.25000000  0.12140700  1.0
  Ga  Ga37  1  0.16666667  0.58333333  0.12140700  1.0
  Ga  Ga38  1  0.16666667  0.91666667  0.12140700  1.0
  Ga  Ga39  1  0.50000000  0.25000000  0.12140700  1.0
  Ga  Ga40  1  0.50000000  0.58333333  0.12140700  1.0
  Ga  Ga41  1  0.50000000  0.91666667  0.12140700  1.0
  Ga  Ga42  1  0.83333333  0.25000000  0.12140700  1.0
  Ga  Ga43  1  0.83333333  0.58333333  0.12140700  1.0
  Ga  Ga44  1  0.83333333  0.91666667  0.12140700  1.0
  Ga  Ga45  1  0.25000000  0.16666667  0.04997843  1.0
  Ga  Ga46  1  0.25000000  0.50000000  0.04997843  1.0
  Ga  Ga47  1  0.25000000  0.83333333  0.04997843  1.0
  Ga  Ga48  1  0.58333333  0.16666667  0.04997843  1.0
  Ga  Ga49  1  0.58333333  0.50000000  0.04997843  1.0
  Ga  Ga50  1  0.58333333  0.83333333  0.04997843  1.0
  Ga  Ga51  1  0.91666667  0.16666667  0.04997843  1.0
  Ga  Ga52  1  0.91666667  0.50000000  0.04997843  1.0
  Ga  Ga53  1  0.91666667  0.83333333  0.04997843  1.0
  Ga  Ga54  1  0.10773133  0.22560200  0.07523643  1.0
  Ga  Ga55  1  0.10773133  0.55893533  0.07523643  1.0
  Ga  Ga56  1  0.10773133  0.89226867  0.07523643  1.0
  Ga  Ga57  1  0.44106467  0.22560200  0.07523643  1.0
  Ga  Ga58  1  0.44106467  0.55893533  0.07523643  1.0
  Ga  Ga59  1  0.44106467  0.89226867  0.07523643  1.0
  Ga  Ga60  1  0.77439800  0.22560200  0.07523643  1.0
  Ga  Ga61  1  0.77439800  0.55893533  0.07523643  1.0
  Ga  Ga62  1  0.77439800  0.89226867  0.07523643  1.0
  Ga  Ga63  1  0.00000000  0.22560200  0.02472043  1.0
  Ga  Ga64  1  0.00000000  0.55893533  0.02472043  1.0
  Ga  Ga65  1  0.00000000  0.89226867  0.02472043  1.0
  Ga  Ga66  1  0.33333333  0.22560200  0.02472043  1.0
  Ga  Ga67  1  0.33333333  0.55893533  0.02472043  1.0
  Ga  Ga68  1  0.33333333  0.89226867  0.02472043  1.0
  Ga  Ga69  1  0.66666667  0.22560200  0.02472043  1.0
  Ga  Ga70  1  0.66666667  0.55893533  0.02472043  1.0
  Ga  Ga71  1  0.66666667  0.89226867  0.02472043  1.0
  Ga  Ga72  1  0.00000000  0.00000000  0.07523643  1.0
  Ga  Ga73  1  0.00000000  0.33333333  0.07523643  1.0
  Ga  Ga74  1  0.00000000  0.66666667  0.07523643  1.0
  Ga  Ga75  1  0.33333333  0.00000000  0.07523643  1.0
  Ga  Ga76  1  0.33333333  0.33333333  0.07523643  1.0
  Ga  Ga77  1  0.33333333  0.66666667  0.07523643  1.0
  Ga  Ga78  1  0.66666667  0.00000000  0.07523643  1.0
  Ga  Ga79  1  0.66666667  0.33333333  0.07523643  1.0
  Ga  Ga80  1  0.66666667  0.66666667  0.07523643  1.0
  Ga  Ga81  1  0.10773133  0.00000000  0.07523643  1.0
  Ga  Ga82  1  0.10773133  0.33333333  0.07523643  1.0
  Ga  Ga83  1  0.10773133  0.66666667  0.07523643  1.0
  Ga  Ga84  1  0.44106467  0.00000000  0.07523643  1.0
  Ga  Ga85  1  0.44106467  0.33333333  0.07523643  1.0
  Ga  Ga86  1  0.44106467  0.66666667  0.07523643  1.0
  Ga  Ga87  1  0.77439800  0.00000000  0.07523643  1.0
  Ga  Ga88  1  0.77439800  0.33333333  0.07523643  1.0
  Ga  Ga89  1  0.77439800  0.66666667  0.07523643  1.0
  Ga  Ga90  1  0.00000000  0.00000000  0.02472043  1.0
  Ga  Ga91  1  0.00000000  0.33333333  0.02472043  1.0
  Ga  Ga92  1  0.00000000  0.66666667  0.02472043  1.0
  Ga  Ga93  1  0.33333333  0.00000000  0.02472043  1.0
  Ga  Ga94  1  0.33333333  0.33333333  0.02472043  1.0
  Ga  Ga95  1  0.33333333  0.66666667  0.02472043  1.0
  Ga  Ga96  1  0.66666667  0.00000000  0.02472043  1.0
  Ga  Ga97  1  0.66666667  0.33333333  0.02472043  1.0
  Ga  Ga98  1  0.66666667  0.66666667  0.02472043  1.0
  Ga  Ga99  1  0.22560200  0.00000000  0.02472043  1.0
  Ga  Ga100  1  0.22560200  0.33333333  0.02472043  1.0
  Ga  Ga101  1  0.22560200  0.66666667  0.02472043  1.0
  Ga  Ga102  1  0.55893533  0.00000000  0.02472043  1.0
  Ga  Ga103  1  0.55893533  0.33333333  0.02472043  1.0
  Ga  Ga104  1  0.55893533  0.66666667  0.02472043  1.0
  Ga  Ga105  1  0.89226867  0.00000000  0.02472043  1.0
  Ga  Ga106  1  0.89226867  0.33333333  0.02472043  1.0
  Ga  Ga107  1  0.89226867  0.66666667  0.02472043  1.0
  Ga  Ga108  1  0.00000000  0.10773133  0.07523643  1.0
  Ga  Ga109  1  0.00000000  0.44106467  0.07523643  1.0
  Ga  Ga110  1  0.00000000  0.77439800  0.07523643  1.0
  Ga  Ga111  1  0.33333333  0.10773133  0.07523643  1.0
  Ga  Ga112  1  0.33333333  0.44106467  0.07523643  1.0
  Ga  Ga113  1  0.33333333  0.77439800  0.07523643  1.0
  Ga  Ga114  1  0.66666667  0.10773133  0.07523643  1.0
  Ga  Ga115  1  0.66666667  0.44106467  0.07523643  1.0
  Ga  Ga116  1  0.66666667  0.77439800  0.07523643  1.0
  Ga  Ga117  1  0.22560200  0.10773133  0.02472043  1.0
  Ga  Ga118  1  0.22560200  0.44106467  0.02472043  1.0
  Ga  Ga119  1  0.22560200  0.77439800  0.02472043  1.0
  Ga  Ga120  1  0.55893533  0.10773133  0.02472043  1.0
  Ga  Ga121  1  0.55893533  0.44106467  0.02472043  1.0
  Ga  Ga122  1  0.55893533  0.77439800  0.02472043  1.0
  Ga  Ga123  1  0.89226867  0.10773133  0.02472043  1.0
  Ga  Ga124  1  0.89226867  0.44106467  0.02472043  1.0
  Ga  Ga125  1  0.89226867  0.77439800  0.02472043  1.0
  Ni  Ni126  1  0.11661633  0.00000000  0.02145014  1.0
  Ni  Ni127  1  0.11661633  0.33333333  0.02145014  1.0
  Ni  Ni128  1  0.11661633  0.66666667  0.02145014  1.0
  Ni  Ni129  1  0.44994967  0.00000000  0.02145014  1.0
  Ni  Ni130  1  0.44994967  0.33333333  0.02145014  1.0
  Ni  Ni131  1  0.44994967  0.66666667  0.02145014  1.0
  Ni  Ni132  1  0.78328300  0.00000000  0.02145014  1.0
  Ni  Ni133  1  0.78328300  0.33333333  0.02145014  1.0
  Ni  Ni134  1  0.78328300  0.66666667  0.02145014  1.0
  Ni  Ni135  1  0.11661633  0.21671700  0.12140700  1.0
  Ni  Ni136  1  0.11661633  0.55005033  0.12140700  1.0
  Ni  Ni137  1  0.11661633  0.88338367  0.12140700  1.0
  Ni  Ni138  1  0.44994967  0.21671700  0.12140700  1.0
  Ni  Ni139  1  0.44994967  0.55005033  0.12140700  1.0
  Ni  Ni140  1  0.44994967  0.88338367  0.12140700  1.0
  Ni  Ni141  1  0.78328300  0.21671700  0.12140700  1.0
  Ni  Ni142  1  0.78328300  0.55005033  0.12140700  1.0
  Ni  Ni143  1  0.78328300  0.88338367  0.12140700  1.0
  Ni  Ni144  1  0.21671700  0.11661633  0.12140700  1.0
  Ni  Ni145  1  0.21671700  0.44994967  0.12140700  1.0
  Ni  Ni146  1  0.21671700  0.78328300  0.12140700  1.0
  Ni  Ni147  1  0.55005033  0.11661633  0.12140700  1.0
  Ni  Ni148  1  0.55005033  0.44994967  0.12140700  1.0
  Ni  Ni149  1  0.55005033  0.78328300  0.12140700  1.0
  Ni  Ni150  1  0.88338367  0.11661633  0.12140700  1.0
  Ni  Ni151  1  0.88338367  0.44994967  0.12140700  1.0
  Ni  Ni152  1  0.88338367  0.78328300  0.12140700  1.0
  Ni  Ni153  1  0.00000000  0.11661633  0.12140700  1.0
  Ni  Ni154  1  0.00000000  0.44994967  0.12140700  1.0
  Ni  Ni155  1  0.00000000  0.78328300  0.12140700  1.0
  Ni  Ni156  1  0.33333333  0.11661633  0.12140700  1.0
  Ni  Ni157  1  0.33333333  0.44994967  0.12140700  1.0
  Ni  Ni158  1  0.33333333  0.78328300  0.12140700  1.0
  Ni  Ni159  1  0.66666667  0.11661633  0.12140700  1.0
  Ni  Ni160  1  0.66666667  0.44994967  0.12140700  1.0
  Ni  Ni161  1  0.66666667  0.78328300  0.12140700  1.0
  Ni  Ni162  1  0.00000000  0.21671700  0.12140700  1.0
  Ni  Ni163  1  0.00000000  0.55005033  0.12140700  1.0
  Ni  Ni164  1  0.00000000  0.88338367  0.12140700  1.0
  Ni  Ni165  1  0.33333333  0.21671700  0.12140700  1.0
  Ni  Ni166  1  0.33333333  0.55005033  0.12140700  1.0
  Ni  Ni167  1  0.33333333  0.88338367  0.12140700  1.0
  Ni  Ni168  1  0.66666667  0.21671700  0.12140700  1.0
  Ni  Ni169  1  0.66666667  0.55005033  0.12140700  1.0
  Ni  Ni170  1  0.66666667  0.88338367  0.12140700  1.0
  Ni  Ni171  1  0.21671700  0.00000000  0.07850671  1.0
  Ni  Ni172  1  0.21671700  0.33333333  0.07850671  1.0
  Ni  Ni173  1  0.21671700  0.66666667  0.07850671  1.0
  Ni  Ni174  1  0.55005033  0.00000000  0.07850671  1.0
  Ni  Ni175  1  0.55005033  0.33333333  0.07850671  1.0
  Ni  Ni176  1  0.55005033  0.66666667  0.07850671  1.0
  Ni  Ni177  1  0.88338367  0.00000000  0.07850671  1.0
  Ni  Ni178  1  0.88338367  0.33333333  0.07850671  1.0
  Ni  Ni179  1  0.88338367  0.66666667  0.07850671  1.0
  Ga  Ga180  1  0.08333333  0.16666667  0.19283557  1.0
  Ga  Ga181  1  0.08333333  0.50000000  0.19283557  1.0
  Ga  Ga182  1  0.08333333  0.83333333  0.19283557  1.0
  Ga  Ga183  1  0.41666667  0.16666667  0.19283557  1.0
  Ga  Ga184  1  0.41666667  0.50000000  0.19283557  1.0
  Ga  Ga185  1  0.41666667  0.83333333  0.19283557  1.0
  Ga  Ga186  1  0.75000000  0.16666667  0.19283557  1.0
  Ga  Ga187  1  0.75000000  0.50000000  0.19283557  1.0
  Ga  Ga188  1  0.75000000  0.83333333  0.19283557  1.0
  Ga  Ga189  1  0.08333333  0.08333333  0.26426414  1.0
  Ga  Ga190  1  0.08333333  0.41666667  0.26426414  1.0
  Ga  Ga191  1  0.08333333  0.75000000  0.26426414  1.0
  Ga  Ga192  1  0.41666667  0.08333333  0.26426414  1.0
  Ga  Ga193  1  0.41666667  0.41666667  0.26426414  1.0
  Ga  Ga194  1  0.41666667  0.75000000  0.26426414  1.0
  Ga  Ga195  1  0.75000000  0.08333333  0.26426414  1.0
  Ga  Ga196  1  0.75000000  0.41666667  0.26426414  1.0
  Ga  Ga197  1  0.75000000  0.75000000  0.26426414  1.0
  Ga  Ga198  1  0.25000000  0.25000000  0.26426414  1.0
  Ga  Ga199  1  0.25000000  0.58333333  0.26426414  1.0
  Ga  Ga200  1  0.25000000  0.91666667  0.26426414  1.0
  Ga  Ga201  1  0.58333333  0.25000000  0.26426414  1.0
  Ga  Ga202  1  0.58333333  0.58333333  0.26426414  1.0
  Ga  Ga203  1  0.58333333  0.91666667  0.26426414  1.0
  Ga  Ga204  1  0.91666667  0.25000000  0.26426414  1.0
  Ga  Ga205  1  0.91666667  0.58333333  0.26426414  1.0
  Ga  Ga206  1  0.91666667  0.91666667  0.26426414  1.0
  Ga  Ga207  1  0.16666667  0.08333333  0.26426414  1.0
  Ga  Ga208  1  0.16666667  0.41666667  0.26426414  1.0
  Ga  Ga209  1  0.16666667  0.75000000  0.26426414  1.0
  Ga  Ga210  1  0.50000000  0.08333333  0.26426414  1.0
  Ga  Ga211  1  0.50000000  0.41666667  0.26426414  1.0
  Ga  Ga212  1  0.50000000  0.75000000  0.26426414  1.0
  Ga  Ga213  1  0.83333333  0.08333333  0.26426414  1.0
  Ga  Ga214  1  0.83333333  0.41666667  0.26426414  1.0
  Ga  Ga215  1  0.83333333  0.75000000  0.26426414  1.0
  Ga  Ga216  1  0.16666667  0.25000000  0.26426414  1.0
  Ga  Ga217  1  0.16666667  0.58333333  0.26426414  1.0
  Ga  Ga218  1  0.16666667  0.91666667  0.26426414  1.0
  Ga  Ga219  1  0.50000000  0.25000000  0.26426414  1.0
  Ga  Ga220  1  0.50000000  0.58333333  0.26426414  1.0
  Ga  Ga221  1  0.50000000  0.91666667  0.26426414  1.0
  Ga  Ga222  1  0.83333333  0.25000000  0.26426414  1.0
  Ga  Ga223  1  0.83333333  0.58333333  0.26426414  1.0
  Ga  Ga224  1  0.83333333  0.91666667  0.26426414  1.0
  Ga  Ga225  1  0.25000000  0.16666667  0.19283557  1.0
  Ga  Ga226  1  0.25000000  0.50000000  0.19283557  1.0
  Ga  Ga227  1  0.25000000  0.83333333  0.19283557  1.0
  Ga  Ga228  1  0.58333333  0.16666667  0.19283557  1.0
  Ga  Ga229  1  0.58333333  0.50000000  0.19283557  1.0
  Ga  Ga230  1  0.58333333  0.83333333  0.19283557  1.0
  Ga  Ga231  1  0.91666667  0.16666667  0.19283557  1.0
  Ga  Ga232  1  0.91666667  0.50000000  0.19283557  1.0
  Ga  Ga233  1  0.91666667  0.83333333  0.19283557  1.0
  Ga  Ga234  1  0.10773133  0.22560200  0.21809357  1.0
  Ga  Ga235  1  0.10773133  0.55893533  0.21809357  1.0
  Ga  Ga236  1  0.10773133  0.89226867  0.21809357  1.0
  Ga  Ga237  1  0.44106467  0.22560200  0.21809357  1.0
  Ga  Ga238  1  0.44106467  0.55893533  0.21809357  1.0
  Ga  Ga239  1  0.44106467  0.89226867  0.21809357  1.0
  Ga  Ga240  1  0.77439800  0.22560200  0.21809357  1.0
  Ga  Ga241  1  0.77439800  0.55893533  0.21809357  1.0
  Ga  Ga242  1  0.77439800  0.89226867  0.21809357  1.0
  Ga  Ga243  1  0.00000000  0.22560200  0.16757757  1.0
  Ga  Ga244  1  0.00000000  0.55893533  0.16757757  1.0
  Ga  Ga245  1  0.00000000  0.89226867  0.16757757  1.0
  Ga  Ga246  1  0.33333333  0.22560200  0.16757757  1.0
  Ga  Ga247  1  0.33333333  0.55893533  0.16757757  1.0
  Ga  Ga248  1  0.33333333  0.89226867  0.16757757  1.0
  Ga  Ga249  1  0.66666667  0.22560200  0.16757757  1.0
  Ga  Ga250  1  0.66666667  0.55893533  0.16757757  1.0
  Ga  Ga251  1  0.66666667  0.89226867  0.16757757  1.0
  Ga  Ga252  1  0.00000000  0.00000000  0.21809357  1.0
  Ga  Ga253  1  0.00000000  0.33333333  0.21809357  1.0
  Ga  Ga254  1  0.00000000  0.66666667  0.21809357  1.0
  Ga  Ga255  1  0.33333333  0.00000000  0.21809357  1.0
  Ga  Ga256  1  0.33333333  0.33333333  0.21809357  1.0
  Ga  Ga257  1  0.33333333  0.66666667  0.21809357  1.0
  Ga  Ga258  1  0.66666667  0.00000000  0.21809357  1.0
  Ga  Ga259  1  0.66666667  0.33333333  0.21809357  1.0
  Ga  Ga260  1  0.66666667  0.66666667  0.21809357  1.0
  Ga  Ga261  1  0.10773133  0.00000000  0.21809357  1.0
  Ga  Ga262  1  0.10773133  0.33333333  0.21809357  1.0
  Ga  Ga263  1  0.10773133  0.66666667  0.21809357  1.0
  Ga  Ga264  1  0.44106467  0.00000000  0.21809357  1.0
  Ga  Ga265  1  0.44106467  0.33333333  0.21809357  1.0
  Ga  Ga266  1  0.44106467  0.66666667  0.21809357  1.0
  Ga  Ga267  1  0.77439800  0.00000000  0.21809357  1.0
  Ga  Ga268  1  0.77439800  0.33333333  0.21809357  1.0
  Ga  Ga269  1  0.77439800  0.66666667  0.21809357  1.0
  Ga  Ga270  1  0.00000000  0.00000000  0.16757757  1.0
  Ga  Ga271  1  0.00000000  0.33333333  0.16757757  1.0
  Ga  Ga272  1  0.00000000  0.66666667  0.16757757  1.0
  Ga  Ga273  1  0.33333333  0.00000000  0.16757757  1.0
  Ga  Ga274  1  0.33333333  0.33333333  0.16757757  1.0
  Ga  Ga275  1  0.33333333  0.66666667  0.16757757  1.0
  Ga  Ga276  1  0.66666667  0.00000000  0.16757757  1.0
  Ga  Ga277  1  0.66666667  0.33333333  0.16757757  1.0
  Ga  Ga278  1  0.66666667  0.66666667  0.16757757  1.0
  Ga  Ga279  1  0.22560200  0.00000000  0.16757757  1.0
  Ga  Ga280  1  0.22560200  0.33333333  0.16757757  1.0
  Ga  Ga281  1  0.22560200  0.66666667  0.16757757  1.0
  Ga  Ga282  1  0.55893533  0.00000000  0.16757757  1.0
  Ga  Ga283  1  0.55893533  0.33333333  0.16757757  1.0
  Ga  Ga284  1  0.55893533  0.66666667  0.16757757  1.0
  Ga  Ga285  1  0.89226867  0.00000000  0.16757757  1.0
  Ga  Ga286  1  0.89226867  0.33333333  0.16757757  1.0
  Ga  Ga287  1  0.89226867  0.66666667  0.16757757  1.0
  Ga  Ga288  1  0.00000000  0.10773133  0.21809357  1.0
  Ga  Ga289  1  0.00000000  0.44106467  0.21809357  1.0
  Ga  Ga290  1  0.00000000  0.77439800  0.21809357  1.0
  Ga  Ga291  1  0.33333333  0.10773133  0.21809357  1.0
  Ga  Ga292  1  0.33333333  0.44106467  0.21809357  1.0
  Ga  Ga293  1  0.33333333  0.77439800  0.21809357  1.0
  Ga  Ga294  1  0.66666667  0.10773133  0.21809357  1.0
  Ga  Ga295  1  0.66666667  0.44106467  0.21809357  1.0
  Ga  Ga296  1  0.66666667  0.77439800  0.21809357  1.0
  Ga  Ga297  1  0.22560200  0.10773133  0.16757757  1.0
  Ga  Ga298  1  0.22560200  0.44106467  0.16757757  1.0
  Ga  Ga299  1  0.22560200  0.77439800  0.16757757  1.0
  Ga  Ga300  1  0.55893533  0.10773133  0.16757757  1.0
  Ga  Ga301  1  0.55893533  0.44106467  0.16757757  1.0
  Ga  Ga302  1  0.55893533  0.77439800  0.16757757  1.0
  Ga  Ga303  1  0.89226867  0.10773133  0.16757757  1.0
  Ga  Ga304  1  0.89226867  0.44106467  0.16757757  1.0
  Ga  Ga305  1  0.89226867  0.77439800  0.16757757  1.0
  Ni  Ni306  1  0.11661633  0.00000000  0.16430729  1.0
  Ni  Ni307  1  0.11661633  0.33333333  0.16430729  1.0
  Ni  Ni308  1  0.11661633  0.66666667  0.16430729  1.0
  Ni  Ni309  1  0.44994967  0.00000000  0.16430729  1.0
  Ni  Ni310  1  0.44994967  0.33333333  0.16430729  1.0
  Ni  Ni311  1  0.44994967  0.66666667  0.16430729  1.0
  Ni  Ni312  1  0.78328300  0.00000000  0.16430729  1.0
  Ni  Ni313  1  0.78328300  0.33333333  0.16430729  1.0
  Ni  Ni314  1  0.78328300  0.66666667  0.16430729  1.0
  Ni  Ni315  1  0.11661633  0.21671700  0.26426414  1.0
  Ni  Ni316  1  0.11661633  0.55005033  0.26426414  1.0
  Ni  Ni317  1  0.11661633  0.88338367  0.26426414  1.0
  Ni  Ni318  1  0.44994967  0.21671700  0.26426414  1.0
  Ni  Ni319  1  0.44994967  0.55005033  0.26426414  1.0
  Ni  Ni320  1  0.44994967  0.88338367  0.26426414  1.0
  Ni  Ni321  1  0.78328300  0.21671700  0.26426414  1.0
  Ni  Ni322  1  0.78328300  0.55005033  0.26426414  1.0
  Ni  Ni323  1  0.78328300  0.88338367  0.26426414  1.0
  Ni  Ni324  1  0.21671700  0.11661633  0.26426414  1.0
  Ni  Ni325  1  0.21671700  0.44994967  0.26426414  1.0
  Ni  Ni326  1  0.21671700  0.78328300  0.26426414  1.0
  Ni  Ni327  1  0.55005033  0.11661633  0.26426414  1.0
  Ni  Ni328  1  0.55005033  0.44994967  0.26426414  1.0
  Ni  Ni329  1  0.55005033  0.78328300  0.26426414  1.0
  Ni  Ni330  1  0.88338367  0.11661633  0.26426414  1.0
  Ni  Ni331  1  0.88338367  0.44994967  0.26426414  1.0
  Ni  Ni332  1  0.88338367  0.78328300  0.26426414  1.0
  Ni  Ni333  1  0.00000000  0.11661633  0.26426414  1.0
  Ni  Ni334  1  0.00000000  0.44994967  0.26426414  1.0
  Ni  Ni335  1  0.00000000  0.78328300  0.26426414  1.0
  Ni  Ni336  1  0.33333333  0.11661633  0.26426414  1.0
  Ni  Ni337  1  0.33333333  0.44994967  0.26426414  1.0
  Ni  Ni338  1  0.33333333  0.78328300  0.26426414  1.0
  Ni  Ni339  1  0.66666667  0.11661633  0.26426414  1.0
  Ni  Ni340  1  0.66666667  0.44994967  0.26426414  1.0
  Ni  Ni341  1  0.66666667  0.78328300  0.26426414  1.0
  Ni  Ni342  1  0.00000000  0.21671700  0.26426414  1.0
  Ni  Ni343  1  0.00000000  0.55005033  0.26426414  1.0
  Ni  Ni344  1  0.00000000  0.88338367  0.26426414  1.0
  Ni  Ni345  1  0.33333333  0.21671700  0.26426414  1.0
  Ni  Ni346  1  0.33333333  0.55005033  0.26426414  1.0
  Ni  Ni347  1  0.33333333  0.88338367  0.26426414  1.0
  Ni  Ni348  1  0.66666667  0.21671700  0.26426414  1.0
  Ni  Ni349  1  0.66666667  0.55005033  0.26426414  1.0
  Ni  Ni350  1  0.66666667  0.88338367  0.26426414  1.0
  Ni  Ni351  1  0.21671700  0.00000000  0.22136386  1.0
  Ni  Ni352  1  0.21671700  0.33333333  0.22136386  1.0
  Ni  Ni353  1  0.21671700  0.66666667  0.22136386  1.0
  Ni  Ni354  1  0.55005033  0.00000000  0.22136386  1.0
  Ni  Ni355  1  0.55005033  0.33333333  0.22136386  1.0
  Ni  Ni356  1  0.55005033  0.66666667  0.22136386  1.0
  Ni  Ni357  1  0.88338367  0.00000000  0.22136386  1.0
  Ni  Ni358  1  0.88338367  0.33333333  0.22136386  1.0
  Ni  Ni359  1  0.88338367  0.66666667  0.22136386  1.0
  Ga  Ga360  1  0.08333333  0.16666667  0.33569271  1.0
  Ga  Ga361  1  0.08333333  0.50000000  0.33569271  1.0
  Ga  Ga362  1  0.08333333  0.83333333  0.33569271  1.0
  Ga  Ga363  1  0.41666667  0.16666667  0.33569271  1.0
  Ga  Ga364  1  0.41666667  0.50000000  0.33569271  1.0
  Ga  Ga365  1  0.41666667  0.83333333  0.33569271  1.0
  Ga  Ga366  1  0.75000000  0.16666667  0.33569271  1.0
  Ga  Ga367  1  0.75000000  0.50000000  0.33569271  1.0
  Ga  Ga368  1  0.75000000  0.83333333  0.33569271  1.0
  Ga  Ga369  1  0.08333333  0.08333333  0.40712129  1.0
  Ga  Ga370  1  0.08333333  0.41666667  0.40712129  1.0
  Ga  Ga371  1  0.08333333  0.75000000  0.40712129  1.0
  Ga  Ga372  1  0.41666667  0.08333333  0.40712129  1.0
  Ga  Ga373  1  0.41666667  0.41666667  0.40712129  1.0
  Ga  Ga374  1  0.41666667  0.75000000  0.40712129  1.0
  Ga  Ga375  1  0.75000000  0.08333333  0.40712129  1.0
  Ga  Ga376  1  0.75000000  0.41666667  0.40712129  1.0
  Ga  Ga377  1  0.75000000  0.75000000  0.40712129  1.0
  Ga  Ga378  1  0.25000000  0.25000000  0.40712129  1.0
  Ga  Ga379  1  0.25000000  0.58333333  0.40712129  1.0
  Ga  Ga380  1  0.25000000  0.91666667  0.40712129  1.0
  Ga  Ga381  1  0.58333333  0.25000000  0.40712129  1.0
  Ga  Ga382  1  0.58333333  0.58333333  0.40712129  1.0
  Ga  Ga383  1  0.58333333  0.91666667  0.40712129  1.0
  Ga  Ga384  1  0.91666667  0.25000000  0.40712129  1.0
  Ga  Ga385  1  0.91666667  0.58333333  0.40712129  1.0
  Ga  Ga386  1  0.91666667  0.91666667  0.40712129  1.0
  Ga  Ga387  1  0.16666667  0.08333333  0.40712129  1.0
  Ga  Ga388  1  0.16666667  0.41666667  0.40712129  1.0
  Ga  Ga389  1  0.16666667  0.75000000  0.40712129  1.0
  Ga  Ga390  1  0.50000000  0.08333333  0.40712129  1.0
  Ga  Ga391  1  0.50000000  0.41666667  0.40712129  1.0
  Ga  Ga392  1  0.50000000  0.75000000  0.40712129  1.0
  Ga  Ga393  1  0.83333333  0.08333333  0.40712129  1.0
  Ga  Ga394  1  0.83333333  0.41666667  0.40712129  1.0
  Ga  Ga395  1  0.83333333  0.75000000  0.40712129  1.0
  Ga  Ga396  1  0.16666667  0.25000000  0.40712129  1.0
  Ga  Ga397  1  0.16666667  0.58333333  0.40712129  1.0
  Ga  Ga398  1  0.16666667  0.91666667  0.40712129  1.0
  Ga  Ga399  1  0.50000000  0.25000000  0.40712129  1.0
  Ga  Ga400  1  0.50000000  0.58333333  0.40712129  1.0
  Ga  Ga401  1  0.50000000  0.91666667  0.40712129  1.0
  Ga  Ga402  1  0.83333333  0.25000000  0.40712129  1.0
  Ga  Ga403  1  0.83333333  0.58333333  0.40712129  1.0
  Ga  Ga404  1  0.83333333  0.91666667  0.40712129  1.0
  Ga  Ga405  1  0.25000000  0.16666667  0.33569271  1.0
  Ga  Ga406  1  0.25000000  0.50000000  0.33569271  1.0
  Ga  Ga407  1  0.25000000  0.83333333  0.33569271  1.0
  Ga  Ga408  1  0.58333333  0.16666667  0.33569271  1.0
  Ga  Ga409  1  0.58333333  0.50000000  0.33569271  1.0
  Ga  Ga410  1  0.58333333  0.83333333  0.33569271  1.0
  Ga  Ga411  1  0.91666667  0.16666667  0.33569271  1.0
  Ga  Ga412  1  0.91666667  0.50000000  0.33569271  1.0
  Ga  Ga413  1  0.91666667  0.83333333  0.33569271  1.0
  Ga  Ga414  1  0.10773133  0.22560200  0.36095071  1.0
  Ga  Ga415  1  0.10773133  0.55893533  0.36095071  1.0
  Ga  Ga416  1  0.10773133  0.89226867  0.36095071  1.0
  Ga  Ga417  1  0.44106467  0.22560200  0.36095071  1.0
  Ga  Ga418  1  0.44106467  0.55893533  0.36095071  1.0
  Ga  Ga419  1  0.44106467  0.89226867  0.36095071  1.0
  Ga  Ga420  1  0.77439800  0.22560200  0.36095071  1.0
  Ga  Ga421  1  0.77439800  0.55893533  0.36095071  1.0
  Ga  Ga422  1  0.77439800  0.89226867  0.36095071  1.0
  Ga  Ga423  1  0.00000000  0.22560200  0.31043471  1.0
  Ga  Ga424  1  0.00000000  0.55893533  0.31043471  1.0
  Ga  Ga425  1  0.00000000  0.89226867  0.31043471  1.0
  Ga  Ga426  1  0.33333333  0.22560200  0.31043471  1.0
  Ga  Ga427  1  0.33333333  0.55893533  0.31043471  1.0
  Ga  Ga428  1  0.33333333  0.89226867  0.31043471  1.0
  Ga  Ga429  1  0.66666667  0.22560200  0.31043471  1.0
  Ga  Ga430  1  0.66666667  0.55893533  0.31043471  1.0
  Ga  Ga431  1  0.66666667  0.89226867  0.31043471  1.0
  Ga  Ga432  1  0.00000000  0.00000000  0.36095071  1.0
  Ga  Ga433  1  0.00000000  0.33333333  0.36095071  1.0
  Ga  Ga434  1  0.00000000  0.66666667  0.36095071  1.0
  Ga  Ga435  1  0.33333333  0.00000000  0.36095071  1.0
  Ga  Ga436  1  0.33333333  0.33333333  0.36095071  1.0
  Ga  Ga437  1  0.33333333  0.66666667  0.36095071  1.0
  Ga  Ga438  1  0.66666667  0.00000000  0.36095071  1.0
  Ga  Ga439  1  0.66666667  0.33333333  0.36095071  1.0
  Ga  Ga440  1  0.66666667  0.66666667  0.36095071  1.0
  Ga  Ga441  1  0.10773133  0.00000000  0.36095071  1.0
  Ga  Ga442  1  0.10773133  0.33333333  0.36095071  1.0
  Ga  Ga443  1  0.10773133  0.66666667  0.36095071  1.0
  Ga  Ga444  1  0.44106467  0.00000000  0.36095071  1.0
  Ga  Ga445  1  0.44106467  0.33333333  0.36095071  1.0
  Ga  Ga446  1  0.44106467  0.66666667  0.36095071  1.0
  Ga  Ga447  1  0.77439800  0.00000000  0.36095071  1.0
  Ga  Ga448  1  0.77439800  0.33333333  0.36095071  1.0
  Ga  Ga449  1  0.77439800  0.66666667  0.36095071  1.0
  Ga  Ga450  1  0.00000000  0.00000000  0.31043471  1.0
  Ga  Ga451  1  0.00000000  0.33333333  0.31043471  1.0
  Ga  Ga452  1  0.00000000  0.66666667  0.31043471  1.0
  Ga  Ga453  1  0.33333333  0.00000000  0.31043471  1.0
  Ga  Ga454  1  0.33333333  0.33333333  0.31043471  1.0
  Ga  Ga455  1  0.33333333  0.66666667  0.31043471  1.0
  Ga  Ga456  1  0.66666667  0.00000000  0.31043471  1.0
  Ga  Ga457  1  0.66666667  0.33333333  0.31043471  1.0
  Ga  Ga458  1  0.66666667  0.66666667  0.31043471  1.0
  Ga  Ga459  1  0.22560200  0.00000000  0.31043471  1.0
  Ga  Ga460  1  0.22560200  0.33333333  0.31043471  1.0
  Ga  Ga461  1  0.22560200  0.66666667  0.31043471  1.0
  Ga  Ga462  1  0.55893533  0.00000000  0.31043471  1.0
  Ga  Ga463  1  0.55893533  0.33333333  0.31043471  1.0
  Ga  Ga464  1  0.55893533  0.66666667  0.31043471  1.0
  Ga  Ga465  1  0.89226867  0.00000000  0.31043471  1.0
  Ga  Ga466  1  0.89226867  0.33333333  0.31043471  1.0
  Ga  Ga467  1  0.89226867  0.66666667  0.31043471  1.0
  Ga  Ga468  1  0.00000000  0.10773133  0.36095071  1.0
  Ga  Ga469  1  0.00000000  0.44106467  0.36095071  1.0
  Ga  Ga470  1  0.00000000  0.77439800  0.36095071  1.0
  Ga  Ga471  1  0.33333333  0.10773133  0.36095071  1.0
  Ga  Ga472  1  0.33333333  0.44106467  0.36095071  1.0
  Ga  Ga473  1  0.33333333  0.77439800  0.36095071  1.0
  Ga  Ga474  1  0.66666667  0.10773133  0.36095071  1.0
  Ga  Ga475  1  0.66666667  0.44106467  0.36095071  1.0
  Ga  Ga476  1  0.66666667  0.77439800  0.36095071  1.0
  Ga  Ga477  1  0.22560200  0.10773133  0.31043471  1.0
  Ga  Ga478  1  0.22560200  0.44106467  0.31043471  1.0
  Ga  Ga479  1  0.22560200  0.77439800  0.31043471  1.0
  Ga  Ga480  1  0.55893533  0.10773133  0.31043471  1.0
  Ga  Ga481  1  0.55893533  0.44106467  0.31043471  1.0
  Ga  Ga482  1  0.55893533  0.77439800  0.31043471  1.0
  Ga  Ga483  1  0.89226867  0.10773133  0.31043471  1.0
  Ga  Ga484  1  0.89226867  0.44106467  0.31043471  1.0
  Ga  Ga485  1  0.89226867  0.77439800  0.31043471  1.0
  Ni  Ni486  1  0.11661633  0.00000000  0.30716443  1.0
  Ni  Ni487  1  0.11661633  0.33333333  0.30716443  1.0
  Ni  Ni488  1  0.11661633  0.66666667  0.30716443  1.0
  Ni  Ni489  1  0.44994967  0.00000000  0.30716443  1.0
  Ni  Ni490  1  0.44994967  0.33333333  0.30716443  1.0
  Ni  Ni491  1  0.44994967  0.66666667  0.30716443  1.0
  Ni  Ni492  1  0.78328300  0.00000000  0.30716443  1.0
  Ni  Ni493  1  0.78328300  0.33333333  0.30716443  1.0
  Ni  Ni494  1  0.78328300  0.66666667  0.30716443  1.0
  Ni  Ni495  1  0.11661633  0.21671700  0.40712129  1.0
  Ni  Ni496  1  0.11661633  0.55005033  0.40712129  1.0
  Ni  Ni497  1  0.11661633  0.88338367  0.40712129  1.0
  Ni  Ni498  1  0.44994967  0.21671700  0.40712129  1.0
  Ni  Ni499  1  0.44994967  0.55005033  0.40712129  1.0
  Ni  Ni500  1  0.44994967  0.88338367  0.40712129  1.0
  Ni  Ni501  1  0.78328300  0.21671700  0.40712129  1.0
  Ni  Ni502  1  0.78328300  0.55005033  0.40712129  1.0
  Ni  Ni503  1  0.78328300  0.88338367  0.40712129  1.0
  Ni  Ni504  1  0.21671700  0.11661633  0.40712129  1.0
  Ni  Ni505  1  0.21671700  0.44994967  0.40712129  1.0
  Ni  Ni506  1  0.21671700  0.78328300  0.40712129  1.0
  Ni  Ni507  1  0.55005033  0.11661633  0.40712129  1.0
  Ni  Ni508  1  0.55005033  0.44994967  0.40712129  1.0
  Ni  Ni509  1  0.55005033  0.78328300  0.40712129  1.0
  Ni  Ni510  1  0.88338367  0.11661633  0.40712129  1.0
  Ni  Ni511  1  0.88338367  0.44994967  0.40712129  1.0
  Ni  Ni512  1  0.88338367  0.78328300  0.40712129  1.0
  Ni  Ni513  1  0.00000000  0.11661633  0.40712129  1.0
  Ni  Ni514  1  0.00000000  0.44994967  0.40712129  1.0
  Ni  Ni515  1  0.00000000  0.78328300  0.40712129  1.0
  Ni  Ni516  1  0.33333333  0.11661633  0.40712129  1.0
  Ni  Ni517  1  0.33333333  0.44994967  0.40712129  1.0
  Ni  Ni518  1  0.33333333  0.78328300  0.40712129  1.0
  Ni  Ni519  1  0.66666667  0.11661633  0.40712129  1.0
  Ni  Ni520  1  0.66666667  0.44994967  0.40712129  1.0
  Ni  Ni521  1  0.66666667  0.78328300  0.40712129  1.0
  Ni  Ni522  1  0.00000000  0.21671700  0.40712129  1.0
  Ni  Ni523  1  0.00000000  0.55005033  0.40712129  1.0
  Ni  Ni524  1  0.00000000  0.88338367  0.40712129  1.0
  Ni  Ni525  1  0.33333333  0.21671700  0.40712129  1.0
  Ni  Ni526  1  0.33333333  0.55005033  0.40712129  1.0
  Ni  Ni527  1  0.33333333  0.88338367  0.40712129  1.0
  Ni  Ni528  1  0.66666667  0.21671700  0.40712129  1.0
  Ni  Ni529  1  0.66666667  0.55005033  0.40712129  1.0
  Ni  Ni530  1  0.66666667  0.88338367  0.40712129  1.0
  Ni  Ni531  1  0.21671700  0.00000000  0.36422100  1.0
  Ni  Ni532  1  0.21671700  0.33333333  0.36422100  1.0
  Ni  Ni533  1  0.21671700  0.66666667  0.36422100  1.0
  Ni  Ni534  1  0.55005033  0.00000000  0.36422100  1.0
  Ni  Ni535  1  0.55005033  0.33333333  0.36422100  1.0
  Ni  Ni536  1  0.55005033  0.66666667  0.36422100  1.0
  Ni  Ni537  1  0.88338367  0.00000000  0.36422100  1.0
  Ni  Ni538  1  0.88338367  0.33333333  0.36422100  1.0
  Ni  Ni539  1  0.88338367  0.66666667  0.36422100  1.0
