# generated using pymatgen
data_Ga9Ni13
_symmetry_space_group_name_H-M   'P 1'
_cell_length_a   23.70672600
_cell_length_b   23.80705972
_cell_length_c   44.47615284
_cell_angle_alpha   107.87768905
_cell_angle_beta   128.45193546
_cell_angle_gamma   60.13931533
_symmetry_Int_Tables_number   1
_chemical_formula_structural   Ga9Ni13
_chemical_formula_sum   'Ga243 Ni351'
_cell_volume   17048.01457576
_cell_formula_units_Z   27
loop_
 _symmetry_equiv_pos_site_id
 _symmetry_equiv_pos_as_xyz
  1  'x, y, z'
loop_
 _atom_site_type_symbol
 _atom_site_label
 _atom_site_symmetry_multiplicity
 _atom_site_fract_x
 _atom_site_fract_y
 _atom_site_fract_z
 _atom_site_occupancy
  Ga  Ga0  1  0.01987367  0.23034900  0.01297300  1.0
  Ga  Ga1  1  0.01987367  0.56368233  0.01297300  1.0
  Ga  Ga2  1  0.01987367  0.89701567  0.01297300  1.0
  Ga  Ga3  1  0.35320700  0.23034900  0.01297300  1.0
  Ga  Ga4  1  0.35320700  0.56368233  0.01297300  1.0
  Ga  Ga5  1  0.35320700  0.89701567  0.01297300  1.0
  Ga  Ga6  1  0.68654033  0.23034900  0.01297300  1.0
  Ga  Ga7  1  0.68654033  0.56368233  0.01297300  1.0
  Ga  Ga8  1  0.68654033  0.89701567  0.01297300  1.0
  Ga  Ga9  1  0.17320333  0.10298433  0.08981357  1.0
  Ga  Ga10  1  0.17320333  0.43631767  0.08981357  1.0
  Ga  Ga11  1  0.17320333  0.76965100  0.08981357  1.0
  Ga  Ga12  1  0.50653667  0.10298433  0.08981357  1.0
  Ga  Ga13  1  0.50653667  0.43631767  0.08981357  1.0
  Ga  Ga14  1  0.50653667  0.76965100  0.08981357  1.0
  Ga  Ga15  1  0.83987000  0.10298433  0.08981357  1.0
  Ga  Ga16  1  0.83987000  0.43631767  0.08981357  1.0
  Ga  Ga17  1  0.83987000  0.76965100  0.08981357  1.0
  Ga  Ga18  1  0.31345967  0.10298433  0.08981357  1.0
  Ga  Ga19  1  0.31345967  0.43631767  0.08981357  1.0
  Ga  Ga20  1  0.31345967  0.76965100  0.08981357  1.0
  Ga  Ga21  1  0.64679300  0.10298433  0.08981357  1.0
  Ga  Ga22  1  0.64679300  0.43631767  0.08981357  1.0
  Ga  Ga23  1  0.64679300  0.76965100  0.08981357  1.0
  Ga  Ga24  1  0.98012633  0.10298433  0.08981357  1.0
  Ga  Ga25  1  0.98012633  0.43631767  0.08981357  1.0
  Ga  Ga26  1  0.98012633  0.76965100  0.08981357  1.0
  Ga  Ga27  1  0.16013000  0.23034900  0.01297300  1.0
  Ga  Ga28  1  0.16013000  0.56368233  0.01297300  1.0
  Ga  Ga29  1  0.16013000  0.89701567  0.01297300  1.0
  Ga  Ga30  1  0.49346333  0.23034900  0.01297300  1.0
  Ga  Ga31  1  0.49346333  0.56368233  0.01297300  1.0
  Ga  Ga32  1  0.49346333  0.89701567  0.01297300  1.0
  Ga  Ga33  1  0.82679667  0.23034900  0.01297300  1.0
  Ga  Ga34  1  0.82679667  0.56368233  0.01297300  1.0
  Ga  Ga35  1  0.82679667  0.89701567  0.01297300  1.0
  Ga  Ga36  1  0.31411033  0.29574700  0.09023657  1.0
  Ga  Ga37  1  0.31411033  0.62908033  0.09023657  1.0
  Ga  Ga38  1  0.31411033  0.96241367  0.09023657  1.0
  Ga  Ga39  1  0.64744367  0.29574700  0.09023657  1.0
  Ga  Ga40  1  0.64744367  0.62908033  0.09023657  1.0
  Ga  Ga41  1  0.64744367  0.96241367  0.09023657  1.0
  Ga  Ga42  1  0.98077700  0.29574700  0.09023657  1.0
  Ga  Ga43  1  0.98077700  0.62908033  0.09023657  1.0
  Ga  Ga44  1  0.98077700  0.96241367  0.09023657  1.0
  Ga  Ga45  1  0.01922300  0.03758633  0.01255000  1.0
  Ga  Ga46  1  0.01922300  0.37091967  0.01255000  1.0
  Ga  Ga47  1  0.01922300  0.70425300  0.01255000  1.0
  Ga  Ga48  1  0.35255633  0.03758633  0.01255000  1.0
  Ga  Ga49  1  0.35255633  0.37091967  0.01255000  1.0
  Ga  Ga50  1  0.35255633  0.70425300  0.01255000  1.0
  Ga  Ga51  1  0.68588967  0.03758633  0.01255000  1.0
  Ga  Ga52  1  0.68588967  0.37091967  0.01255000  1.0
  Ga  Ga53  1  0.68588967  0.70425300  0.01255000  1.0
  Ga  Ga54  1  0.15308533  0.27755300  0.08727486  1.0
  Ga  Ga55  1  0.15308533  0.61088633  0.08727486  1.0
  Ga  Ga56  1  0.15308533  0.94421967  0.08727486  1.0
  Ga  Ga57  1  0.48641867  0.27755300  0.08727486  1.0
  Ga  Ga58  1  0.48641867  0.61088633  0.08727486  1.0
  Ga  Ga59  1  0.48641867  0.94421967  0.08727486  1.0
  Ga  Ga60  1  0.81975200  0.27755300  0.08727486  1.0
  Ga  Ga61  1  0.81975200  0.61088633  0.08727486  1.0
  Ga  Ga62  1  0.81975200  0.94421967  0.08727486  1.0
  Ga  Ga63  1  0.18024800  0.05578033  0.01551171  1.0
  Ga  Ga64  1  0.18024800  0.38911367  0.01551171  1.0
  Ga  Ga65  1  0.18024800  0.72244700  0.01551171  1.0
  Ga  Ga66  1  0.51358133  0.05578033  0.01551171  1.0
  Ga  Ga67  1  0.51358133  0.38911367  0.01551171  1.0
  Ga  Ga68  1  0.51358133  0.72244700  0.01551171  1.0
  Ga  Ga69  1  0.84691467  0.05578033  0.01551171  1.0
  Ga  Ga70  1  0.84691467  0.38911367  0.01551171  1.0
  Ga  Ga71  1  0.84691467  0.72244700  0.01551171  1.0
  Ga  Ga72  1  0.00000000  0.16666667  0.05139329  1.0
  Ga  Ga73  1  0.00000000  0.50000000  0.05139329  1.0
  Ga  Ga74  1  1.00000000  0.83333333  0.05139329  1.0
  Ga  Ga75  1  0.33333333  0.16666667  0.05139329  1.0
  Ga  Ga76  1  0.33333333  0.50000000  0.05139329  1.0
  Ga  Ga77  1  0.33333333  0.83333333  0.05139329  1.0
  Ga  Ga78  1  0.66666667  0.16666667  0.05139329  1.0
  Ga  Ga79  1  0.66666667  0.50000000  0.05139329  1.0
  Ga  Ga80  1  0.66666667  0.83333333  0.05139329  1.0
  Ni  Ni81  1  0.06772600  0.11302700  0.01830014  1.0
  Ni  Ni82  1  0.06772600  0.44636033  0.01830014  1.0
  Ni  Ni83  1  0.06772600  0.77969367  0.01830014  1.0
  Ni  Ni84  1  0.40105933  0.11302700  0.01830014  1.0
  Ni  Ni85  1  0.40105933  0.44636033  0.01830014  1.0
  Ni  Ni86  1  0.40105933  0.77969367  0.01830014  1.0
  Ni  Ni87  1  0.73439267  0.11302700  0.01830014  1.0
  Ni  Ni88  1  0.73439267  0.44636033  0.01830014  1.0
  Ni  Ni89  1  0.73439267  0.77969367  0.01830014  1.0
  Ni  Ni90  1  0.09130367  0.22030633  0.08448643  1.0
  Ni  Ni91  1  0.09130367  0.55363967  0.08448643  1.0
  Ni  Ni92  1  0.09130367  0.88697300  0.08448643  1.0
  Ni  Ni93  1  0.42463700  0.22030633  0.08448643  1.0
  Ni  Ni94  1  0.42463700  0.55363967  0.08448643  1.0
  Ni  Ni95  1  0.42463700  0.88697300  0.08448643  1.0
  Ni  Ni96  1  0.75797033  0.22030633  0.08448643  1.0
  Ni  Ni97  1  0.75797033  0.55363967  0.08448643  1.0
  Ni  Ni98  1  0.75797033  0.88697300  0.08448643  1.0
  Ni  Ni99  1  0.26560733  0.22030633  0.08448643  1.0
  Ni  Ni100  1  0.26560733  0.55363967  0.08448643  1.0
  Ni  Ni101  1  0.26560733  0.88697300  0.08448643  1.0
  Ni  Ni102  1  0.59894067  0.22030633  0.08448643  1.0
  Ni  Ni103  1  0.59894067  0.55363967  0.08448643  1.0
  Ni  Ni104  1  0.59894067  0.88697300  0.08448643  1.0
  Ni  Ni105  1  0.93227400  0.22030633  0.08448643  1.0
  Ni  Ni106  1  0.93227400  0.55363967  0.08448643  1.0
  Ni  Ni107  1  0.93227400  0.88697300  0.08448643  1.0
  Ni  Ni108  1  0.24202967  0.11302700  0.01830014  1.0
  Ni  Ni109  1  0.24202967  0.44636033  0.01830014  1.0
  Ni  Ni110  1  0.24202967  0.77969367  0.01830014  1.0
  Ni  Ni111  1  0.57536300  0.11302700  0.01830014  1.0
  Ni  Ni112  1  0.57536300  0.44636033  0.01830014  1.0
  Ni  Ni113  1  0.57536300  0.77969367  0.01830014  1.0
  Ni  Ni114  1  0.90869633  0.11302700  0.01830014  1.0
  Ni  Ni115  1  0.90869633  0.44636033  0.01830014  1.0
  Ni  Ni116  1  0.90869633  0.77969367  0.01830014  1.0
  Ni  Ni117  1  0.24320800  0.27374867  0.02003529  1.0
  Ni  Ni118  1  0.24320800  0.60708200  0.02003529  1.0
  Ni  Ni119  1  0.24320800  0.94041533  0.02003529  1.0
  Ni  Ni120  1  0.57654133  0.27374867  0.02003529  1.0
  Ni  Ni121  1  0.57654133  0.60708200  0.02003529  1.0
  Ni  Ni122  1  0.57654133  0.94041533  0.02003529  1.0
  Ni  Ni123  1  0.90987467  0.27374867  0.02003529  1.0
  Ni  Ni124  1  0.90987467  0.60708200  0.02003529  1.0
  Ni  Ni125  1  0.90987467  0.94041533  0.02003529  1.0
  Ni  Ni126  1  0.09012533  0.05958467  0.08275129  1.0
  Ni  Ni127  1  0.09012533  0.39291800  0.08275129  1.0
  Ni  Ni128  1  0.09012533  0.72625133  0.08275129  1.0
  Ni  Ni129  1  0.42345867  0.05958467  0.08275129  1.0
  Ni  Ni130  1  0.42345867  0.39291800  0.08275129  1.0
  Ni  Ni131  1  0.42345867  0.72625133  0.08275129  1.0
  Ni  Ni132  1  0.75679200  0.05958467  0.08275129  1.0
  Ni  Ni133  1  0.75679200  0.39291800  0.08275129  1.0
  Ni  Ni134  1  0.75679200  0.72625133  0.08275129  1.0
  Ni  Ni135  1  0.08472100  0.16254500  0.12224486  1.0
  Ni  Ni136  1  0.08472100  0.49587833  0.12224486  1.0
  Ni  Ni137  1  0.08472100  0.82921167  0.12224486  1.0
  Ni  Ni138  1  0.41805433  0.16254500  0.12224486  1.0
  Ni  Ni139  1  0.41805433  0.49587833  0.12224486  1.0
  Ni  Ni140  1  0.41805433  0.82921167  0.12224486  1.0
  Ni  Ni141  1  0.75138767  0.16254500  0.12224486  1.0
  Ni  Ni142  1  0.75138767  0.49587833  0.12224486  1.0
  Ni  Ni143  1  0.75138767  0.82921167  0.12224486  1.0
  Ni  Ni144  1  0.24861233  0.17078833  0.12339886  1.0
  Ni  Ni145  1  0.24861233  0.50412167  0.12339886  1.0
  Ni  Ni146  1  0.24861233  0.83745500  0.12339886  1.0
  Ni  Ni147  1  0.58194567  0.17078833  0.12339886  1.0
  Ni  Ni148  1  0.58194567  0.50412167  0.12339886  1.0
  Ni  Ni149  1  0.58194567  0.83745500  0.12339886  1.0
  Ni  Ni150  1  0.91527900  0.17078833  0.12339886  1.0
  Ni  Ni151  1  0.91527900  0.50412167  0.12339886  1.0
  Ni  Ni152  1  0.91527900  0.83745500  0.12339886  1.0
  Ni  Ni153  1  0.24669967  0.00000000  0.12282186  1.0
  Ni  Ni154  1  0.24669967  0.33333333  0.12282186  1.0
  Ni  Ni155  1  0.24669967  0.66666667  0.12282186  1.0
  Ni  Ni156  1  0.58003300  0.00000000  0.12282186  1.0
  Ni  Ni157  1  0.58003300  0.33333333  0.12282186  1.0
  Ni  Ni158  1  0.58003300  0.66666667  0.12282186  1.0
  Ni  Ni159  1  0.91336633  0.00000000  0.12282186  1.0
  Ni  Ni160  1  0.91336633  0.33333333  0.12282186  1.0
  Ni  Ni161  1  0.91336633  0.66666667  0.12282186  1.0
  Ni  Ni162  1  0.16666667  0.16666667  0.05139329  1.0
  Ni  Ni163  1  0.16666667  0.50000000  0.05139329  1.0
  Ni  Ni164  1  0.16666667  0.83333333  0.05139329  1.0
  Ni  Ni165  1  0.50000000  0.16666667  0.05139329  1.0
  Ni  Ni166  1  0.50000000  0.50000000  0.05139329  1.0
  Ni  Ni167  1  0.50000000  0.83333333  0.05139329  1.0
  Ni  Ni168  1  0.83333333  0.16666667  0.05139329  1.0
  Ni  Ni169  1  0.83333333  0.50000000  0.05139329  1.0
  Ni  Ni170  1  0.83333333  0.83333333  0.05139329  1.0
  Ni  Ni171  1  0.16666667  0.00000000  0.05139329  1.0
  Ni  Ni172  1  0.16666667  0.33333333  0.05139329  1.0
  Ni  Ni173  1  0.16666667  0.66666667  0.05139329  1.0
  Ni  Ni174  1  0.50000000  0.00000000  0.05139329  1.0
  Ni  Ni175  1  0.50000000  0.33333333  0.05139329  1.0
  Ni  Ni176  1  0.50000000  0.66666667  0.05139329  1.0
  Ni  Ni177  1  0.83333333  0.00000000  0.05139329  1.0
  Ni  Ni178  1  0.83333333  0.33333333  0.05139329  1.0
  Ni  Ni179  1  0.83333333  0.66666667  0.05139329  1.0
  Ni  Ni180  1  0.00000000  0.00000000  0.05139329  1.0
  Ni  Ni181  1  0.00000000  0.33333333  0.05139329  1.0
  Ni  Ni182  1  0.00000000  0.66666667  0.05139329  1.0
  Ni  Ni183  1  0.33333333  0.00000000  0.05139329  1.0
  Ni  Ni184  1  0.33333333  0.33333333  0.05139329  1.0
  Ni  Ni185  1  0.33333333  0.66666667  0.05139329  1.0
  Ni  Ni186  1  0.66666667  0.00000000  0.05139329  1.0
  Ni  Ni187  1  0.66666667  0.33333333  0.05139329  1.0
  Ni  Ni188  1  0.66666667  0.66666667  0.05139329  1.0
  Ni  Ni189  1  0.08663367  0.00000000  0.12282186  1.0
  Ni  Ni190  1  0.08663367  0.33333333  0.12282186  1.0
  Ni  Ni191  1  0.08663367  0.66666667  0.12282186  1.0
  Ni  Ni192  1  0.41996700  0.00000000  0.12282186  1.0
  Ni  Ni193  1  0.41996700  0.33333333  0.12282186  1.0
  Ni  Ni194  1  0.41996700  0.66666667  0.12282186  1.0
  Ni  Ni195  1  0.75330033  0.00000000  0.12282186  1.0
  Ni  Ni196  1  0.75330033  0.33333333  0.12282186  1.0
  Ni  Ni197  1  0.75330033  0.66666667  0.12282186  1.0
  Ga  Ga198  1  0.01987367  0.23034900  0.15583014  1.0
  Ga  Ga199  1  0.01987367  0.56368233  0.15583014  1.0
  Ga  Ga200  1  0.01987367  0.89701567  0.15583014  1.0
  Ga  Ga201  1  0.35320700  0.23034900  0.15583014  1.0
  Ga  Ga202  1  0.35320700  0.56368233  0.15583014  1.0
  Ga  Ga203  1  0.35320700  0.89701567  0.15583014  1.0
  Ga  Ga204  1  0.68654033  0.23034900  0.15583014  1.0
  Ga  Ga205  1  0.68654033  0.56368233  0.15583014  1.0
  Ga  Ga206  1  0.68654033  0.89701567  0.15583014  1.0
  Ga  Ga207  1  0.17320333  0.10298433  0.23267071  1.0
  Ga  Ga208  1  0.17320333  0.43631767  0.23267071  1.0
  Ga  Ga209  1  0.17320333  0.76965100  0.23267071  1.0
  Ga  Ga210  1  0.50653667  0.10298433  0.23267071  1.0
  Ga  Ga211  1  0.50653667  0.43631767  0.23267071  1.0
  Ga  Ga212  1  0.50653667  0.76965100  0.23267071  1.0
  Ga  Ga213  1  0.83987000  0.10298433  0.23267071  1.0
  Ga  Ga214  1  0.83987000  0.43631767  0.23267071  1.0
  Ga  Ga215  1  0.83987000  0.76965100  0.23267071  1.0
  Ga  Ga216  1  0.31345967  0.10298433  0.23267071  1.0
  Ga  Ga217  1  0.31345967  0.43631767  0.23267071  1.0
  Ga  Ga218  1  0.31345967  0.76965100  0.23267071  1.0
  Ga  Ga219  1  0.64679300  0.10298433  0.23267071  1.0
  Ga  Ga220  1  0.64679300  0.43631767  0.23267071  1.0
  Ga  Ga221  1  0.64679300  0.76965100  0.23267071  1.0
  Ga  Ga222  1  0.98012633  0.10298433  0.23267071  1.0
  Ga  Ga223  1  0.98012633  0.43631767  0.23267071  1.0
  Ga  Ga224  1  0.98012633  0.76965100  0.23267071  1.0
  Ga  Ga225  1  0.16013000  0.23034900  0.15583014  1.0
  Ga  Ga226  1  0.16013000  0.56368233  0.15583014  1.0
  Ga  Ga227  1  0.16013000  0.89701567  0.15583014  1.0
  Ga  Ga228  1  0.49346333  0.23034900  0.15583014  1.0
  Ga  Ga229  1  0.49346333  0.56368233  0.15583014  1.0
  Ga  Ga230  1  0.49346333  0.89701567  0.15583014  1.0
  Ga  Ga231  1  0.82679667  0.23034900  0.15583014  1.0
  Ga  Ga232  1  0.82679667  0.56368233  0.15583014  1.0
  Ga  Ga233  1  0.82679667  0.89701567  0.15583014  1.0
  Ga  Ga234  1  0.31411033  0.29574700  0.23309371  1.0
  Ga  Ga235  1  0.31411033  0.62908033  0.23309371  1.0
  Ga  Ga236  1  0.31411033  0.96241367  0.23309371  1.0
  Ga  Ga237  1  0.64744367  0.29574700  0.23309371  1.0
  Ga  Ga238  1  0.64744367  0.62908033  0.23309371  1.0
  Ga  Ga239  1  0.64744367  0.96241367  0.23309371  1.0
  Ga  Ga240  1  0.98077700  0.29574700  0.23309371  1.0
  Ga  Ga241  1  0.98077700  0.62908033  0.23309371  1.0
  Ga  Ga242  1  0.98077700  0.96241367  0.23309371  1.0
  Ga  Ga243  1  0.01922300  0.03758633  0.15540714  1.0
  Ga  Ga244  1  0.01922300  0.37091967  0.15540714  1.0
  Ga  Ga245  1  0.01922300  0.70425300  0.15540714  1.0
  Ga  Ga246  1  0.35255633  0.03758633  0.15540714  1.0
  Ga  Ga247  1  0.35255633  0.37091967  0.15540714  1.0
  Ga  Ga248  1  0.35255633  0.70425300  0.15540714  1.0
  Ga  Ga249  1  0.68588967  0.03758633  0.15540714  1.0
  Ga  Ga250  1  0.68588967  0.37091967  0.15540714  1.0
  Ga  Ga251  1  0.68588967  0.70425300  0.15540714  1.0
  Ga  Ga252  1  0.15308533  0.27755300  0.23013200  1.0
  Ga  Ga253  1  0.15308533  0.61088633  0.23013200  1.0
  Ga  Ga254  1  0.15308533  0.94421967  0.23013200  1.0
  Ga  Ga255  1  0.48641867  0.27755300  0.23013200  1.0
  Ga  Ga256  1  0.48641867  0.61088633  0.23013200  1.0
  Ga  Ga257  1  0.48641867  0.94421967  0.23013200  1.0
  Ga  Ga258  1  0.81975200  0.27755300  0.23013200  1.0
  Ga  Ga259  1  0.81975200  0.61088633  0.23013200  1.0
  Ga  Ga260  1  0.81975200  0.94421967  0.23013200  1.0
  Ga  Ga261  1  0.18024800  0.05578033  0.15836886  1.0
  Ga  Ga262  1  0.18024800  0.38911367  0.15836886  1.0
  Ga  Ga263  1  0.18024800  0.72244700  0.15836886  1.0
  Ga  Ga264  1  0.51358133  0.05578033  0.15836886  1.0
  Ga  Ga265  1  0.51358133  0.38911367  0.15836886  1.0
  Ga  Ga266  1  0.51358133  0.72244700  0.15836886  1.0
  Ga  Ga267  1  0.84691467  0.05578033  0.15836886  1.0
  Ga  Ga268  1  0.84691467  0.38911367  0.15836886  1.0
  Ga  Ga269  1  0.84691467  0.72244700  0.15836886  1.0
  Ga  Ga270  1  0.00000000  0.16666667  0.19425043  1.0
  Ga  Ga271  1  0.00000000  0.50000000  0.19425043  1.0
  Ga  Ga272  1  1.00000000  0.83333333  0.19425043  1.0
  Ga  Ga273  1  0.33333333  0.16666667  0.19425043  1.0
  Ga  Ga274  1  0.33333333  0.50000000  0.19425043  1.0
  Ga  Ga275  1  0.33333333  0.83333333  0.19425043  1.0
  Ga  Ga276  1  0.66666667  0.16666667  0.19425043  1.0
  Ga  Ga277  1  0.66666667  0.50000000  0.19425043  1.0
  Ga  Ga278  1  0.66666667  0.83333333  0.19425043  1.0
  Ni  Ni279  1  0.06772600  0.11302700  0.16115729  1.0
  Ni  Ni280  1  0.06772600  0.44636033  0.16115729  1.0
  Ni  Ni281  1  0.06772600  0.77969367  0.16115729  1.0
  Ni  Ni282  1  0.40105933  0.11302700  0.16115729  1.0
  Ni  Ni283  1  0.40105933  0.44636033  0.16115729  1.0
  Ni  Ni284  1  0.40105933  0.77969367  0.16115729  1.0
  Ni  Ni285  1  0.73439267  0.11302700  0.16115729  1.0
  Ni  Ni286  1  0.73439267  0.44636033  0.16115729  1.0
  Ni  Ni287  1  0.73439267  0.77969367  0.16115729  1.0
  Ni  Ni288  1  0.09130367  0.22030633  0.22734357  1.0
  Ni  Ni289  1  0.09130367  0.55363967  0.22734357  1.0
  Ni  Ni290  1  0.09130367  0.88697300  0.22734357  1.0
  Ni  Ni291  1  0.42463700  0.22030633  0.22734357  1.0
  Ni  Ni292  1  0.42463700  0.55363967  0.22734357  1.0
  Ni  Ni293  1  0.42463700  0.88697300  0.22734357  1.0
  Ni  Ni294  1  0.75797033  0.22030633  0.22734357  1.0
  Ni  Ni295  1  0.75797033  0.55363967  0.22734357  1.0
  Ni  Ni296  1  0.75797033  0.88697300  0.22734357  1.0
  Ni  Ni297  1  0.26560733  0.22030633  0.22734357  1.0
  Ni  Ni298  1  0.26560733  0.55363967  0.22734357  1.0
  Ni  Ni299  1  0.26560733  0.88697300  0.22734357  1.0
  Ni  Ni300  1  0.59894067  0.22030633  0.22734357  1.0
  Ni  Ni301  1  0.59894067  0.55363967  0.22734357  1.0
  Ni  Ni302  1  0.59894067  0.88697300  0.22734357  1.0
  Ni  Ni303  1  0.93227400  0.22030633  0.22734357  1.0
  Ni  Ni304  1  0.93227400  0.55363967  0.22734357  1.0
  Ni  Ni305  1  0.93227400  0.88697300  0.22734357  1.0
  Ni  Ni306  1  0.24202967  0.11302700  0.16115729  1.0
  Ni  Ni307  1  0.24202967  0.44636033  0.16115729  1.0
  Ni  Ni308  1  0.24202967  0.77969367  0.16115729  1.0
  Ni  Ni309  1  0.57536300  0.11302700  0.16115729  1.0
  Ni  Ni310  1  0.57536300  0.44636033  0.16115729  1.0
  Ni  Ni311  1  0.57536300  0.77969367  0.16115729  1.0
  Ni  Ni312  1  0.90869633  0.11302700  0.16115729  1.0
  Ni  Ni313  1  0.90869633  0.44636033  0.16115729  1.0
  Ni  Ni314  1  0.90869633  0.77969367  0.16115729  1.0
  Ni  Ni315  1  0.24320800  0.27374867  0.16289243  1.0
  Ni  Ni316  1  0.24320800  0.60708200  0.16289243  1.0
  Ni  Ni317  1  0.24320800  0.94041533  0.16289243  1.0
  Ni  Ni318  1  0.57654133  0.27374867  0.16289243  1.0
  Ni  Ni319  1  0.57654133  0.60708200  0.16289243  1.0
  Ni  Ni320  1  0.57654133  0.94041533  0.16289243  1.0
  Ni  Ni321  1  0.90987467  0.27374867  0.16289243  1.0
  Ni  Ni322  1  0.90987467  0.60708200  0.16289243  1.0
  Ni  Ni323  1  0.90987467  0.94041533  0.16289243  1.0
  Ni  Ni324  1  0.09012533  0.05958467  0.22560843  1.0
  Ni  Ni325  1  0.09012533  0.39291800  0.22560843  1.0
  Ni  Ni326  1  0.09012533  0.72625133  0.22560843  1.0
  Ni  Ni327  1  0.42345867  0.05958467  0.22560843  1.0
  Ni  Ni328  1  0.42345867  0.39291800  0.22560843  1.0
  Ni  Ni329  1  0.42345867  0.72625133  0.22560843  1.0
  Ni  Ni330  1  0.75679200  0.05958467  0.22560843  1.0
  Ni  Ni331  1  0.75679200  0.39291800  0.22560843  1.0
  Ni  Ni332  1  0.75679200  0.72625133  0.22560843  1.0
  Ni  Ni333  1  0.08472100  0.16254500  0.26510200  1.0
  Ni  Ni334  1  0.08472100  0.49587833  0.26510200  1.0
  Ni  Ni335  1  0.08472100  0.82921167  0.26510200  1.0
  Ni  Ni336  1  0.41805433  0.16254500  0.26510200  1.0
  Ni  Ni337  1  0.41805433  0.49587833  0.26510200  1.0
  Ni  Ni338  1  0.41805433  0.82921167  0.26510200  1.0
  Ni  Ni339  1  0.75138767  0.16254500  0.26510200  1.0
  Ni  Ni340  1  0.75138767  0.49587833  0.26510200  1.0
  Ni  Ni341  1  0.75138767  0.82921167  0.26510200  1.0
  Ni  Ni342  1  0.24861233  0.17078833  0.26625600  1.0
  Ni  Ni343  1  0.24861233  0.50412167  0.26625600  1.0
  Ni  Ni344  1  0.24861233  0.83745500  0.26625600  1.0
  Ni  Ni345  1  0.58194567  0.17078833  0.26625600  1.0
  Ni  Ni346  1  0.58194567  0.50412167  0.26625600  1.0
  Ni  Ni347  1  0.58194567  0.83745500  0.26625600  1.0
  Ni  Ni348  1  0.91527900  0.17078833  0.26625600  1.0
  Ni  Ni349  1  0.91527900  0.50412167  0.26625600  1.0
  Ni  Ni350  1  0.91527900  0.83745500  0.26625600  1.0
  Ni  Ni351  1  0.24669967  0.00000000  0.26567900  1.0
  Ni  Ni352  1  0.24669967  0.33333333  0.26567900  1.0
  Ni  Ni353  1  0.24669967  0.66666667  0.26567900  1.0
  Ni  Ni354  1  0.58003300  0.00000000  0.26567900  1.0
  Ni  Ni355  1  0.58003300  0.33333333  0.26567900  1.0
  Ni  Ni356  1  0.58003300  0.66666667  0.26567900  1.0
  Ni  Ni357  1  0.91336633  0.00000000  0.26567900  1.0
  Ni  Ni358  1  0.91336633  0.33333333  0.26567900  1.0
  Ni  Ni359  1  0.91336633  0.66666667  0.26567900  1.0
  Ni  Ni360  1  0.16666667  0.16666667  0.19425043  1.0
  Ni  Ni361  1  0.16666667  0.50000000  0.19425043  1.0
  Ni  Ni362  1  0.16666667  0.83333333  0.19425043  1.0
  Ni  Ni363  1  0.50000000  0.16666667  0.19425043  1.0
  Ni  Ni364  1  0.50000000  0.50000000  0.19425043  1.0
  Ni  Ni365  1  0.50000000  0.83333333  0.19425043  1.0
  Ni  Ni366  1  0.83333333  0.16666667  0.19425043  1.0
  Ni  Ni367  1  0.83333333  0.50000000  0.19425043  1.0
  Ni  Ni368  1  0.83333333  0.83333333  0.19425043  1.0
  Ni  Ni369  1  0.16666667  0.00000000  0.19425043  1.0
  Ni  Ni370  1  0.16666667  0.33333333  0.19425043  1.0
  Ni  Ni371  1  0.16666667  0.66666667  0.19425043  1.0
  Ni  Ni372  1  0.50000000  0.00000000  0.19425043  1.0
  Ni  Ni373  1  0.50000000  0.33333333  0.19425043  1.0
  Ni  Ni374  1  0.50000000  0.66666667  0.19425043  1.0
  Ni  Ni375  1  0.83333333  0.00000000  0.19425043  1.0
  Ni  Ni376  1  0.83333333  0.33333333  0.19425043  1.0
  Ni  Ni377  1  0.83333333  0.66666667  0.19425043  1.0
  Ni  Ni378  1  0.00000000  0.00000000  0.19425043  1.0
  Ni  Ni379  1  0.00000000  0.33333333  0.19425043  1.0
  Ni  Ni380  1  0.00000000  0.66666667  0.19425043  1.0
  Ni  Ni381  1  0.33333333  0.00000000  0.19425043  1.0
  Ni  Ni382  1  0.33333333  0.33333333  0.19425043  1.0
  Ni  Ni383  1  0.33333333  0.66666667  0.19425043  1.0
  Ni  Ni384  1  0.66666667  0.00000000  0.19425043  1.0
  Ni  Ni385  1  0.66666667  0.33333333  0.19425043  1.0
  Ni  Ni386  1  0.66666667  0.66666667  0.19425043  1.0
  Ni  Ni387  1  0.08663367  0.00000000  0.26567900  1.0
  Ni  Ni388  1  0.08663367  0.33333333  0.26567900  1.0
  Ni  Ni389  1  0.08663367  0.66666667  0.26567900  1.0
  Ni  Ni390  1  0.41996700  0.00000000  0.26567900  1.0
  Ni  Ni391  1  0.41996700  0.33333333  0.26567900  1.0
  Ni  Ni392  1  0.41996700  0.66666667  0.26567900  1.0
  Ni  Ni393  1  0.75330033  0.00000000  0.26567900  1.0
  Ni  Ni394  1  0.75330033  0.33333333  0.26567900  1.0
  Ni  Ni395  1  0.75330033  0.66666667  0.26567900  1.0
  Ga  Ga396  1  0.01987367  0.23034900  0.29868729  1.0
  Ga  Ga397  1  0.01987367  0.56368233  0.29868729  1.0
  Ga  Ga398  1  0.01987367  0.89701567  0.29868729  1.0
  Ga  Ga399  1  0.35320700  0.23034900  0.29868729  1.0
  Ga  Ga400  1  0.35320700  0.56368233  0.29868729  1.0
  Ga  Ga401  1  0.35320700  0.89701567  0.29868729  1.0
  Ga  Ga402  1  0.68654033  0.23034900  0.29868729  1.0
  Ga  Ga403  1  0.68654033  0.56368233  0.29868729  1.0
  Ga  Ga404  1  0.68654033  0.89701567  0.29868729  1.0
  Ga  Ga405  1  0.17320333  0.10298433  0.37552786  1.0
  Ga  Ga406  1  0.17320333  0.43631767  0.37552786  1.0
  Ga  Ga407  1  0.17320333  0.76965100  0.37552786  1.0
  Ga  Ga408  1  0.50653667  0.10298433  0.37552786  1.0
  Ga  Ga409  1  0.50653667  0.43631767  0.37552786  1.0
  Ga  Ga410  1  0.50653667  0.76965100  0.37552786  1.0
  Ga  Ga411  1  0.83987000  0.10298433  0.37552786  1.0
  Ga  Ga412  1  0.83987000  0.43631767  0.37552786  1.0
  Ga  Ga413  1  0.83987000  0.76965100  0.37552786  1.0
  Ga  Ga414  1  0.31345967  0.10298433  0.37552786  1.0
  Ga  Ga415  1  0.31345967  0.43631767  0.37552786  1.0
  Ga  Ga416  1  0.31345967  0.76965100  0.37552786  1.0
  Ga  Ga417  1  0.64679300  0.10298433  0.37552786  1.0
  Ga  Ga418  1  0.64679300  0.43631767  0.37552786  1.0
  Ga  Ga419  1  0.64679300  0.76965100  0.37552786  1.0
  Ga  Ga420  1  0.98012633  0.10298433  0.37552786  1.0
  Ga  Ga421  1  0.98012633  0.43631767  0.37552786  1.0
  Ga  Ga422  1  0.98012633  0.76965100  0.37552786  1.0
  Ga  Ga423  1  0.16013000  0.23034900  0.29868729  1.0
  Ga  Ga424  1  0.16013000  0.56368233  0.29868729  1.0
  Ga  Ga425  1  0.16013000  0.89701567  0.29868729  1.0
  Ga  Ga426  1  0.49346333  0.23034900  0.29868729  1.0
  Ga  Ga427  1  0.49346333  0.56368233  0.29868729  1.0
  Ga  Ga428  1  0.49346333  0.89701567  0.29868729  1.0
  Ga  Ga429  1  0.82679667  0.23034900  0.29868729  1.0
  Ga  Ga430  1  0.82679667  0.56368233  0.29868729  1.0
  Ga  Ga431  1  0.82679667  0.89701567  0.29868729  1.0
  Ga  Ga432  1  0.31411033  0.29574700  0.37595086  1.0
  Ga  Ga433  1  0.31411033  0.62908033  0.37595086  1.0
  Ga  Ga434  1  0.31411033  0.96241367  0.37595086  1.0
  Ga  Ga435  1  0.64744367  0.29574700  0.37595086  1.0
  Ga  Ga436  1  0.64744367  0.62908033  0.37595086  1.0
  Ga  Ga437  1  0.64744367  0.96241367  0.37595086  1.0
  Ga  Ga438  1  0.98077700  0.29574700  0.37595086  1.0
  Ga  Ga439  1  0.98077700  0.62908033  0.37595086  1.0
  Ga  Ga440  1  0.98077700  0.96241367  0.37595086  1.0
  Ga  Ga441  1  0.01922300  0.03758633  0.29826429  1.0
  Ga  Ga442  1  0.01922300  0.37091967  0.29826429  1.0
  Ga  Ga443  1  0.01922300  0.70425300  0.29826429  1.0
  Ga  Ga444  1  0.35255633  0.03758633  0.29826429  1.0
  Ga  Ga445  1  0.35255633  0.37091967  0.29826429  1.0
  Ga  Ga446  1  0.35255633  0.70425300  0.29826429  1.0
  Ga  Ga447  1  0.68588967  0.03758633  0.29826429  1.0
  Ga  Ga448  1  0.68588967  0.37091967  0.29826429  1.0
  Ga  Ga449  1  0.68588967  0.70425300  0.29826429  1.0
  Ga  Ga450  1  0.15308533  0.27755300  0.37298914  1.0
  Ga  Ga451  1  0.15308533  0.61088633  0.37298914  1.0
  Ga  Ga452  1  0.15308533  0.94421967  0.37298914  1.0
  Ga  Ga453  1  0.48641867  0.27755300  0.37298914  1.0
  Ga  Ga454  1  0.48641867  0.61088633  0.37298914  1.0
  Ga  Ga455  1  0.48641867  0.94421967  0.37298914  1.0
  Ga  Ga456  1  0.81975200  0.27755300  0.37298914  1.0
  Ga  Ga457  1  0.81975200  0.61088633  0.37298914  1.0
  Ga  Ga458  1  0.81975200  0.94421967  0.37298914  1.0
  Ga  Ga459  1  0.18024800  0.05578033  0.30122600  1.0
  Ga  Ga460  1  0.18024800  0.38911367  0.30122600  1.0
  Ga  Ga461  1  0.18024800  0.72244700  0.30122600  1.0
  Ga  Ga462  1  0.51358133  0.05578033  0.30122600  1.0
  Ga  Ga463  1  0.51358133  0.38911367  0.30122600  1.0
  Ga  Ga464  1  0.51358133  0.72244700  0.30122600  1.0
  Ga  Ga465  1  0.84691467  0.05578033  0.30122600  1.0
  Ga  Ga466  1  0.84691467  0.38911367  0.30122600  1.0
  Ga  Ga467  1  0.84691467  0.72244700  0.30122600  1.0
  Ga  Ga468  1  0.00000000  0.16666667  0.33710757  1.0
  Ga  Ga469  1  0.00000000  0.50000000  0.33710757  1.0
  Ga  Ga470  1  1.00000000  0.83333333  0.33710757  1.0
  Ga  Ga471  1  0.33333333  0.16666667  0.33710757  1.0
  Ga  Ga472  1  0.33333333  0.50000000  0.33710757  1.0
  Ga  Ga473  1  0.33333333  0.83333333  0.33710757  1.0
  Ga  Ga474  1  0.66666667  0.16666667  0.33710757  1.0
  Ga  Ga475  1  0.66666667  0.50000000  0.33710757  1.0
  Ga  Ga476  1  0.66666667  0.83333333  0.33710757  1.0
  Ni  Ni477  1  0.06772600  0.11302700  0.30401443  1.0
  Ni  Ni478  1  0.06772600  0.44636033  0.30401443  1.0
  Ni  Ni479  1  0.06772600  0.77969367  0.30401443  1.0
  Ni  Ni480  1  0.40105933  0.11302700  0.30401443  1.0
  Ni  Ni481  1  0.40105933  0.44636033  0.30401443  1.0
  Ni  Ni482  1  0.40105933  0.77969367  0.30401443  1.0
  Ni  Ni483  1  0.73439267  0.11302700  0.30401443  1.0
  Ni  Ni484  1  0.73439267  0.44636033  0.30401443  1.0
  Ni  Ni485  1  0.73439267  0.77969367  0.30401443  1.0
  Ni  Ni486  1  0.09130367  0.22030633  0.37020071  1.0
  Ni  Ni487  1  0.09130367  0.55363967  0.37020071  1.0
  Ni  Ni488  1  0.09130367  0.88697300  0.37020071  1.0
  Ni  Ni489  1  0.42463700  0.22030633  0.37020071  1.0
  Ni  Ni490  1  0.42463700  0.55363967  0.37020071  1.0
  Ni  Ni491  1  0.42463700  0.88697300  0.37020071  1.0
  Ni  Ni492  1  0.75797033  0.22030633  0.37020071  1.0
  Ni  Ni493  1  0.75797033  0.55363967  0.37020071  1.0
  Ni  Ni494  1  0.75797033  0.88697300  0.37020071  1.0
  Ni  Ni495  1  0.26560733  0.22030633  0.37020071  1.0
  Ni  Ni496  1  0.26560733  0.55363967  0.37020071  1.0
  Ni  Ni497  1  0.26560733  0.88697300  0.37020071  1.0
  Ni  Ni498  1  0.59894067  0.22030633  0.37020071  1.0
  Ni  Ni499  1  0.59894067  0.55363967  0.37020071  1.0
  Ni  Ni500  1  0.59894067  0.88697300  0.37020071  1.0
  Ni  Ni501  1  0.93227400  0.22030633  0.37020071  1.0
  Ni  Ni502  1  0.93227400  0.55363967  0.37020071  1.0
  Ni  Ni503  1  0.93227400  0.88697300  0.37020071  1.0
  Ni  Ni504  1  0.24202967  0.11302700  0.30401443  1.0
  Ni  Ni505  1  0.24202967  0.44636033  0.30401443  1.0
  Ni  Ni506  1  0.24202967  0.77969367  0.30401443  1.0
  Ni  Ni507  1  0.57536300  0.11302700  0.30401443  1.0
  Ni  Ni508  1  0.57536300  0.44636033  0.30401443  1.0
  Ni  Ni509  1  0.57536300  0.77969367  0.30401443  1.0
  Ni  Ni510  1  0.90869633  0.11302700  0.30401443  1.0
  Ni  Ni511  1  0.90869633  0.44636033  0.30401443  1.0
  Ni  Ni512  1  0.90869633  0.77969367  0.30401443  1.0
  Ni  Ni513  1  0.24320800  0.27374867  0.30574957  1.0
  Ni  Ni514  1  0.24320800  0.60708200  0.30574957  1.0
  Ni  Ni515  1  0.24320800  0.94041533  0.30574957  1.0
  Ni  Ni516  1  0.57654133  0.27374867  0.30574957  1.0
  Ni  Ni517  1  0.57654133  0.60708200  0.30574957  1.0
  Ni  Ni518  1  0.57654133  0.94041533  0.30574957  1.0
  Ni  Ni519  1  0.90987467  0.27374867  0.30574957  1.0
  Ni  Ni520  1  0.90987467  0.60708200  0.30574957  1.0
  Ni  Ni521  1  0.90987467  0.94041533  0.30574957  1.0
  Ni  Ni522  1  0.09012533  0.05958467  0.36846557  1.0
  Ni  Ni523  1  0.09012533  0.39291800  0.36846557  1.0
  Ni  Ni524  1  0.09012533  0.72625133  0.36846557  1.0
  Ni  Ni525  1  0.42345867  0.05958467  0.36846557  1.0
  Ni  Ni526  1  0.42345867  0.39291800  0.36846557  1.0
  Ni  Ni527  1  0.42345867  0.72625133  0.36846557  1.0
  Ni  Ni528  1  0.75679200  0.05958467  0.36846557  1.0
  Ni  Ni529  1  0.75679200  0.39291800  0.36846557  1.0
  Ni  Ni530  1  0.75679200  0.72625133  0.36846557  1.0
  Ni  Ni531  1  0.08472100  0.16254500  0.40795914  1.0
  Ni  Ni532  1  0.08472100  0.49587833  0.40795914  1.0
  Ni  Ni533  1  0.08472100  0.82921167  0.40795914  1.0
  Ni  Ni534  1  0.41805433  0.16254500  0.40795914  1.0
  Ni  Ni535  1  0.41805433  0.49587833  0.40795914  1.0
  Ni  Ni536  1  0.41805433  0.82921167  0.40795914  1.0
  Ni  Ni537  1  0.75138767  0.16254500  0.40795914  1.0
  Ni  Ni538  1  0.75138767  0.49587833  0.40795914  1.0
  Ni  Ni539  1  0.75138767  0.82921167  0.40795914  1.0
  Ni  Ni540  1  0.24861233  0.17078833  0.40911314  1.0
  Ni  Ni541  1  0.24861233  0.50412167  0.40911314  1.0
  Ni  Ni542  1  0.24861233  0.83745500  0.40911314  1.0
  Ni  Ni543  1  0.58194567  0.17078833  0.40911314  1.0
  Ni  Ni544  1  0.58194567  0.50412167  0.40911314  1.0
  Ni  Ni545  1  0.58194567  0.83745500  0.40911314  1.0
  Ni  Ni546  1  0.91527900  0.17078833  0.40911314  1.0
  Ni  Ni547  1  0.91527900  0.50412167  0.40911314  1.0
  Ni  Ni548  1  0.91527900  0.83745500  0.40911314  1.0
  Ni  Ni549  1  0.24669967  0.00000000  0.40853614  1.0
  Ni  Ni550  1  0.24669967  0.33333333  0.40853614  1.0
  Ni  Ni551  1  0.24669967  0.66666667  0.40853614  1.0
  Ni  Ni552  1  0.58003300  0.00000000  0.40853614  1.0
  Ni  Ni553  1  0.58003300  0.33333333  0.40853614  1.0
  Ni  Ni554  1  0.58003300  0.66666667  0.40853614  1.0
  Ni  Ni555  1  0.91336633  0.00000000  0.40853614  1.0
  Ni  Ni556  1  0.91336633  0.33333333  0.40853614  1.0
  Ni  Ni557  1  0.91336633  0.66666667  0.40853614  1.0
  Ni  Ni558  1  0.16666667  0.16666667  0.33710757  1.0
  Ni  Ni559  1  0.16666667  0.50000000  0.33710757  1.0
  Ni  Ni560  1  0.16666667  0.83333333  0.33710757  1.0
  Ni  Ni561  1  0.50000000  0.16666667  0.33710757  1.0
  Ni  Ni562  1  0.50000000  0.50000000  0.33710757  1.0
  Ni  Ni563  1  0.50000000  0.83333333  0.33710757  1.0
  Ni  Ni564  1  0.83333333  0.16666667  0.33710757  1.0
  Ni  Ni565  1  0.83333333  0.50000000  0.33710757  1.0
  Ni  Ni566  1  0.83333333  0.83333333  0.33710757  1.0
  Ni  Ni567  1  0.16666667  0.00000000  0.33710757  1.0
  Ni  Ni568  1  0.16666667  0.33333333  0.33710757  1.0
  Ni  Ni569  1  0.16666667  0.66666667  0.33710757  1.0
  Ni  Ni570  1  0.50000000  0.00000000  0.33710757  1.0
  Ni  Ni571  1  0.50000000  0.33333333  0.33710757  1.0
  Ni  Ni572  1  0.50000000  0.66666667  0.33710757  1.0
  Ni  Ni573  1  0.83333333  0.00000000  0.33710757  1.0
  Ni  Ni574  1  0.83333333  0.33333333  0.33710757  1.0
  Ni  Ni575  1  0.83333333  0.66666667  0.33710757  1.0
  Ni  Ni576  1  0.00000000  0.00000000  0.33710757  1.0
  Ni  Ni577  1  0.00000000  0.33333333  0.33710757  1.0
  Ni  Ni578  1  0.00000000  0.66666667  0.33710757  1.0
  Ni  Ni579  1  0.33333333  0.00000000  0.33710757  1.0
  Ni  Ni580  1  0.33333333  0.33333333  0.33710757  1.0
  Ni  Ni581  1  0.33333333  0.66666667  0.33710757  1.0
  Ni  Ni582  1  0.66666667  0.00000000  0.33710757  1.0
  Ni  Ni583  1  0.66666667  0.33333333  0.33710757  1.0
  Ni  Ni584  1  0.66666667  0.66666667  0.33710757  1.0
  Ni  Ni585  1  0.08663367  0.00000000  0.40853614  1.0
  Ni  Ni586  1  0.08663367  0.33333333  0.40853614  1.0
  Ni  Ni587  1  0.08663367  0.66666667  0.40853614  1.0
  Ni  Ni588  1  0.41996700  0.00000000  0.40853614  1.0
  Ni  Ni589  1  0.41996700  0.33333333  0.40853614  1.0
  Ni  Ni590  1  0.41996700  0.66666667  0.40853614  1.0
  Ni  Ni591  1  0.75330033  0.00000000  0.40853614  1.0
  Ni  Ni592  1  0.75330033  0.33333333  0.40853614  1.0
  Ni  Ni593  1  0.75330033  0.66666667  0.40853614  1.0
