# generated using pymatgen
data_Ga9Ni13
_symmetry_space_group_name_H-M   'P 1'
_cell_length_a   19.06120836
_cell_length_b   19.06120836
_cell_length_c   42.38422490
_cell_angle_alpha   62.79193464
_cell_angle_beta   117.20806536
_cell_angle_gamma   103.09612909
_symmetry_Int_Tables_number   1
_chemical_formula_structural   Ga9Ni13
_chemical_formula_sum   'Ga162 Ni234'
_cell_volume   12177.15326840
_cell_formula_units_Z   18
loop_
 _symmetry_equiv_pos_site_id
 _symmetry_equiv_pos_as_xyz
  1  'x, y, z'
loop_
 _atom_site_type_symbol
 _atom_site_label
 _atom_site_symmetry_multiplicity
 _atom_site_fract_x
 _atom_site_fract_y
 _atom_site_fract_z
 _atom_site_occupancy
  Ga  Ga0  1  0.25022267  0.27618767  0.12693350  1.0
  Ga  Ga1  1  0.25022267  0.60952100  0.12693350  1.0
  Ga  Ga2  1  0.25022267  0.94285433  0.12693350  1.0
  Ga  Ga3  1  0.58355600  0.27618767  0.12693350  1.0
  Ga  Ga4  1  0.58355600  0.60952100  0.12693350  1.0
  Ga  Ga5  1  0.58355600  0.94285433  0.12693350  1.0
  Ga  Ga6  1  0.91688933  0.27618767  0.12693350  1.0
  Ga  Ga7  1  0.91688933  0.60952100  0.12693350  1.0
  Ga  Ga8  1  0.91688933  0.94285433  0.12693350  1.0
  Ga  Ga9  1  0.27618767  0.25022267  0.05051470  1.0
  Ga  Ga10  1  0.27618767  0.58355600  0.05051470  1.0
  Ga  Ga11  1  0.27618767  0.91688933  0.05051470  1.0
  Ga  Ga12  1  0.60952100  0.25022267  0.05051470  1.0
  Ga  Ga13  1  0.60952100  0.58355600  0.05051470  1.0
  Ga  Ga14  1  0.60952100  0.91688933  0.05051470  1.0
  Ga  Ga15  1  0.94285433  0.25022267  0.05051470  1.0
  Ga  Ga16  1  0.94285433  0.58355600  0.05051470  1.0
  Ga  Ga17  1  0.94285433  0.91688933  0.05051470  1.0
  Ga  Ga18  1  0.08311067  0.05714567  0.05051470  1.0
  Ga  Ga19  1  0.08311067  0.39047900  0.05051470  1.0
  Ga  Ga20  1  0.08311067  0.72381233  0.05051470  1.0
  Ga  Ga21  1  0.41644400  0.05714567  0.05051470  1.0
  Ga  Ga22  1  0.41644400  0.39047900  0.05051470  1.0
  Ga  Ga23  1  0.41644400  0.72381233  0.05051470  1.0
  Ga  Ga24  1  0.74977733  0.05714567  0.05051470  1.0
  Ga  Ga25  1  0.74977733  0.39047900  0.05051470  1.0
  Ga  Ga26  1  0.74977733  0.72381233  0.05051470  1.0
  Ga  Ga27  1  0.05714567  0.08311067  0.12693350  1.0
  Ga  Ga28  1  0.05714567  0.41644400  0.12693350  1.0
  Ga  Ga29  1  0.05714567  0.74977733  0.12693350  1.0
  Ga  Ga30  1  0.39047900  0.08311067  0.12693350  1.0
  Ga  Ga31  1  0.39047900  0.41644400  0.12693350  1.0
  Ga  Ga32  1  0.39047900  0.74977733  0.12693350  1.0
  Ga  Ga33  1  0.72381233  0.08311067  0.12693350  1.0
  Ga  Ga34  1  0.72381233  0.41644400  0.12693350  1.0
  Ga  Ga35  1  0.72381233  0.74977733  0.12693350  1.0
  Ga  Ga36  1  0.27652400  0.05680933  0.16617230  1.0
  Ga  Ga37  1  0.27652400  0.39014267  0.16617230  1.0
  Ga  Ga38  1  0.27652400  0.72347600  0.16617230  1.0
  Ga  Ga39  1  0.60985733  0.05680933  0.16617230  1.0
  Ga  Ga40  1  0.60985733  0.39014267  0.16617230  1.0
  Ga  Ga41  1  0.60985733  0.72347600  0.16617230  1.0
  Ga  Ga42  1  0.94319067  0.05680933  0.16617230  1.0
  Ga  Ga43  1  0.94319067  0.39014267  0.16617230  1.0
  Ga  Ga44  1  0.94319067  0.72347600  0.16617230  1.0
  Ga  Ga45  1  0.05680933  0.27652400  0.01127590  1.0
  Ga  Ga46  1  0.05680933  0.60985733  0.01127590  1.0
  Ga  Ga47  1  0.05680933  0.94319067  0.01127590  1.0
  Ga  Ga48  1  0.39014267  0.27652400  0.01127590  1.0
  Ga  Ga49  1  0.39014267  0.60985733  0.01127590  1.0
  Ga  Ga50  1  0.39014267  0.94319067  0.01127590  1.0
  Ga  Ga51  1  0.72347600  0.27652400  0.01127590  1.0
  Ga  Ga52  1  0.72347600  0.60985733  0.01127590  1.0
  Ga  Ga53  1  0.72347600  0.94319067  0.01127590  1.0
  Ga  Ga54  1  0.09730500  0.23602833  0.15525590  1.0
  Ga  Ga55  1  0.09730500  0.56936167  0.15525590  1.0
  Ga  Ga56  1  0.09730500  0.90269500  0.15525590  1.0
  Ga  Ga57  1  0.43063833  0.23602833  0.15525590  1.0
  Ga  Ga58  1  0.43063833  0.56936167  0.15525590  1.0
  Ga  Ga59  1  0.43063833  0.90269500  0.15525590  1.0
  Ga  Ga60  1  0.76397167  0.23602833  0.15525590  1.0
  Ga  Ga61  1  0.76397167  0.56936167  0.15525590  1.0
  Ga  Ga62  1  0.76397167  0.90269500  0.15525590  1.0
  Ga  Ga63  1  0.23602833  0.09730500  0.02219230  1.0
  Ga  Ga64  1  0.23602833  0.43063833  0.02219230  1.0
  Ga  Ga65  1  0.23602833  0.76397167  0.02219230  1.0
  Ga  Ga66  1  0.56936167  0.09730500  0.02219230  1.0
  Ga  Ga67  1  0.56936167  0.43063833  0.02219230  1.0
  Ga  Ga68  1  0.56936167  0.76397167  0.02219230  1.0
  Ga  Ga69  1  0.90269500  0.09730500  0.02219230  1.0
  Ga  Ga70  1  0.90269500  0.43063833  0.02219230  1.0
  Ga  Ga71  1  0.90269500  0.76397167  0.02219230  1.0
  Ga  Ga72  1  0.16666667  0.16666667  0.08872410  1.0
  Ga  Ga73  1  0.16666667  0.50000000  0.08872410  1.0
  Ga  Ga74  1  0.16666667  0.83333333  0.08872410  1.0
  Ga  Ga75  1  0.50000000  0.16666667  0.08872410  1.0
  Ga  Ga76  1  0.50000000  0.50000000  0.08872410  1.0
  Ga  Ga77  1  0.50000000  0.83333333  0.08872410  1.0
  Ga  Ga78  1  0.83333333  0.16666667  0.08872410  1.0
  Ga  Ga79  1  0.83333333  0.50000000  0.08872410  1.0
  Ga  Ga80  1  0.83333333  0.83333333  0.08872410  1.0
  Ni  Ni81  1  0.18075300  0.31161000  0.05654030  1.0
  Ni  Ni82  1  0.18075300  0.64494333  0.05654030  1.0
  Ni  Ni83  1  0.18075300  0.97827667  0.05654030  1.0
  Ni  Ni84  1  0.51408633  0.31161000  0.05654030  1.0
  Ni  Ni85  1  0.51408633  0.64494333  0.05654030  1.0
  Ni  Ni86  1  0.51408633  0.97827667  0.05654030  1.0
  Ni  Ni87  1  0.84741967  0.31161000  0.05654030  1.0
  Ni  Ni88  1  0.84741967  0.64494333  0.05654030  1.0
  Ni  Ni89  1  0.84741967  0.97827667  0.05654030  1.0
  Ni  Ni90  1  0.31161000  0.18075300  0.12090790  1.0
  Ni  Ni91  1  0.31161000  0.51408633  0.12090790  1.0
  Ni  Ni92  1  0.31161000  0.84741967  0.12090790  1.0
  Ni  Ni93  1  0.64494333  0.18075300  0.12090790  1.0
  Ni  Ni94  1  0.64494333  0.51408633  0.12090790  1.0
  Ni  Ni95  1  0.64494333  0.84741967  0.12090790  1.0
  Ni  Ni96  1  0.97827667  0.18075300  0.12090790  1.0
  Ni  Ni97  1  0.97827667  0.51408633  0.12090790  1.0
  Ni  Ni98  1  0.97827667  0.84741967  0.12090790  1.0
  Ni  Ni99  1  0.15258033  0.02172333  0.12090790  1.0
  Ni  Ni100  1  0.15258033  0.35505667  0.12090790  1.0
  Ni  Ni101  1  0.15258033  0.68839000  0.12090790  1.0
  Ni  Ni102  1  0.48591367  0.02172333  0.12090790  1.0
  Ni  Ni103  1  0.48591367  0.35505667  0.12090790  1.0
  Ni  Ni104  1  0.48591367  0.68839000  0.12090790  1.0
  Ni  Ni105  1  0.81924700  0.02172333  0.12090790  1.0
  Ni  Ni106  1  0.81924700  0.35505667  0.12090790  1.0
  Ni  Ni107  1  0.81924700  0.68839000  0.12090790  1.0
  Ni  Ni108  1  0.02172333  0.15258033  0.05654030  1.0
  Ni  Ni109  1  0.02172333  0.48591367  0.05654030  1.0
  Ni  Ni110  1  0.02172333  0.81924700  0.05654030  1.0
  Ni  Ni111  1  0.35505667  0.15258033  0.05654030  1.0
  Ni  Ni112  1  0.35505667  0.48591367  0.05654030  1.0
  Ni  Ni113  1  0.35505667  0.81924700  0.05654030  1.0
  Ni  Ni114  1  0.68839000  0.15258033  0.05654030  1.0
  Ni  Ni115  1  0.68839000  0.48591367  0.05654030  1.0
  Ni  Ni116  1  0.68839000  0.81924700  0.05654030  1.0
  Ni  Ni117  1  0.18362333  0.14971000  0.15297330  1.0
  Ni  Ni118  1  0.18362333  0.48304333  0.15297330  1.0
  Ni  Ni119  1  0.18362333  0.81637667  0.15297330  1.0
  Ni  Ni120  1  0.51695667  0.14971000  0.15297330  1.0
  Ni  Ni121  1  0.51695667  0.48304333  0.15297330  1.0
  Ni  Ni122  1  0.51695667  0.81637667  0.15297330  1.0
  Ni  Ni123  1  0.85029000  0.14971000  0.15297330  1.0
  Ni  Ni124  1  0.85029000  0.48304333  0.15297330  1.0
  Ni  Ni125  1  0.85029000  0.81637667  0.15297330  1.0
  Ni  Ni126  1  0.14971000  0.18362333  0.02447490  1.0
  Ni  Ni127  1  0.14971000  0.51695667  0.02447490  1.0
  Ni  Ni128  1  0.14971000  0.85029000  0.02447490  1.0
  Ni  Ni129  1  0.48304333  0.18362333  0.02447490  1.0
  Ni  Ni130  1  0.48304333  0.51695667  0.02447490  1.0
  Ni  Ni131  1  0.48304333  0.85029000  0.02447490  1.0
  Ni  Ni132  1  0.81637667  0.18362333  0.02447490  1.0
  Ni  Ni133  1  0.81637667  0.51695667  0.02447490  1.0
  Ni  Ni134  1  0.81637667  0.85029000  0.02447490  1.0
  Ni  Ni135  1  0.24726600  0.08606733  0.08625110  1.0
  Ni  Ni136  1  0.24726600  0.41940067  0.08625110  1.0
  Ni  Ni137  1  0.24726600  0.75273400  0.08625110  1.0
  Ni  Ni138  1  0.58059933  0.08606733  0.08625110  1.0
  Ni  Ni139  1  0.58059933  0.41940067  0.08625110  1.0
  Ni  Ni140  1  0.58059933  0.75273400  0.08625110  1.0
  Ni  Ni141  1  0.91393267  0.08606733  0.08625110  1.0
  Ni  Ni142  1  0.91393267  0.41940067  0.08625110  1.0
  Ni  Ni143  1  0.91393267  0.75273400  0.08625110  1.0
  Ni  Ni144  1  0.08606733  0.24726600  0.09119710  1.0
  Ni  Ni145  1  0.08606733  0.58059933  0.09119710  1.0
  Ni  Ni146  1  0.08606733  0.91393267  0.09119710  1.0
  Ni  Ni147  1  0.41940067  0.24726600  0.09119710  1.0
  Ni  Ni148  1  0.41940067  0.58059933  0.09119710  1.0
  Ni  Ni149  1  0.41940067  0.91393267  0.09119710  1.0
  Ni  Ni150  1  0.75273400  0.24726600  0.09119710  1.0
  Ni  Ni151  1  0.75273400  0.58059933  0.09119710  1.0
  Ni  Ni152  1  0.75273400  0.91393267  0.09119710  1.0
  Ni  Ni153  1  0.24669967  0.24669967  0.18872410  1.0
  Ni  Ni154  1  0.24669967  0.58003300  0.18872410  1.0
  Ni  Ni155  1  0.24669967  0.91336633  0.18872410  1.0
  Ni  Ni156  1  0.58003300  0.24669967  0.18872410  1.0
  Ni  Ni157  1  0.58003300  0.58003300  0.18872410  1.0
  Ni  Ni158  1  0.58003300  0.91336633  0.18872410  1.0
  Ni  Ni159  1  0.91336633  0.24669967  0.18872410  1.0
  Ni  Ni160  1  0.91336633  0.58003300  0.18872410  1.0
  Ni  Ni161  1  0.91336633  0.91336633  0.18872410  1.0
  Ni  Ni162  1  0.00000000  0.00000000  0.08872410  1.0
  Ni  Ni163  1  0.00000000  0.33333333  0.08872410  1.0
  Ni  Ni164  1  0.00000000  0.66666667  0.08872410  1.0
  Ni  Ni165  1  0.33333333  0.00000000  0.08872410  1.0
  Ni  Ni166  1  0.33333333  0.33333333  0.08872410  1.0
  Ni  Ni167  1  0.33333333  0.66666667  0.08872410  1.0
  Ni  Ni168  1  0.66666667  0.00000000  0.08872410  1.0
  Ni  Ni169  1  0.66666667  0.33333333  0.08872410  1.0
  Ni  Ni170  1  0.66666667  0.66666667  0.08872410  1.0
  Ni  Ni171  1  0.16666667  0.00000000  0.18872410  1.0
  Ni  Ni172  1  0.16666667  0.33333333  0.18872410  1.0
  Ni  Ni173  1  0.16666667  0.66666667  0.18872410  1.0
  Ni  Ni174  1  0.50000000  0.00000000  0.18872410  1.0
  Ni  Ni175  1  0.50000000  0.33333333  0.18872410  1.0
  Ni  Ni176  1  0.50000000  0.66666667  0.18872410  1.0
  Ni  Ni177  1  0.83333333  0.00000000  0.18872410  1.0
  Ni  Ni178  1  0.83333333  0.33333333  0.18872410  1.0
  Ni  Ni179  1  0.83333333  0.66666667  0.18872410  1.0
  Ni  Ni180  1  0.00000000  0.16666667  0.18872410  1.0
  Ni  Ni181  1  0.00000000  0.50000000  0.18872410  1.0
  Ni  Ni182  1  0.00000000  0.83333333  0.18872410  1.0
  Ni  Ni183  1  0.33333333  0.16666667  0.18872410  1.0
  Ni  Ni184  1  0.33333333  0.50000000  0.18872410  1.0
  Ni  Ni185  1  0.33333333  0.83333333  0.18872410  1.0
  Ni  Ni186  1  0.66666667  0.16666667  0.18872410  1.0
  Ni  Ni187  1  0.66666667  0.50000000  0.18872410  1.0
  Ni  Ni188  1  0.66666667  0.83333333  0.18872410  1.0
  Ni  Ni189  1  0.08663367  0.08663367  0.18872410  1.0
  Ni  Ni190  1  0.08663367  0.41996700  0.18872410  1.0
  Ni  Ni191  1  0.08663367  0.75330033  0.18872410  1.0
  Ni  Ni192  1  0.41996700  0.08663367  0.18872410  1.0
  Ni  Ni193  1  0.41996700  0.41996700  0.18872410  1.0
  Ni  Ni194  1  0.41996700  0.75330033  0.18872410  1.0
  Ni  Ni195  1  0.75330033  0.08663367  0.18872410  1.0
  Ni  Ni196  1  0.75330033  0.41996700  0.18872410  1.0
  Ni  Ni197  1  0.75330033  0.75330033  0.18872410  1.0
  Ga  Ga198  1  0.25022267  0.27618767  0.32693350  1.0
  Ga  Ga199  1  0.25022267  0.60952100  0.32693350  1.0
  Ga  Ga200  1  0.25022267  0.94285433  0.32693350  1.0
  Ga  Ga201  1  0.58355600  0.27618767  0.32693350  1.0
  Ga  Ga202  1  0.58355600  0.60952100  0.32693350  1.0
  Ga  Ga203  1  0.58355600  0.94285433  0.32693350  1.0
  Ga  Ga204  1  0.91688933  0.27618767  0.32693350  1.0
  Ga  Ga205  1  0.91688933  0.60952100  0.32693350  1.0
  Ga  Ga206  1  0.91688933  0.94285433  0.32693350  1.0
  Ga  Ga207  1  0.27618767  0.25022267  0.25051470  1.0
  Ga  Ga208  1  0.27618767  0.58355600  0.25051470  1.0
  Ga  Ga209  1  0.27618767  0.91688933  0.25051470  1.0
  Ga  Ga210  1  0.60952100  0.25022267  0.25051470  1.0
  Ga  Ga211  1  0.60952100  0.58355600  0.25051470  1.0
  Ga  Ga212  1  0.60952100  0.91688933  0.25051470  1.0
  Ga  Ga213  1  0.94285433  0.25022267  0.25051470  1.0
  Ga  Ga214  1  0.94285433  0.58355600  0.25051470  1.0
  Ga  Ga215  1  0.94285433  0.91688933  0.25051470  1.0
  Ga  Ga216  1  0.08311067  0.05714567  0.25051470  1.0
  Ga  Ga217  1  0.08311067  0.39047900  0.25051470  1.0
  Ga  Ga218  1  0.08311067  0.72381233  0.25051470  1.0
  Ga  Ga219  1  0.41644400  0.05714567  0.25051470  1.0
  Ga  Ga220  1  0.41644400  0.39047900  0.25051470  1.0
  Ga  Ga221  1  0.41644400  0.72381233  0.25051470  1.0
  Ga  Ga222  1  0.74977733  0.05714567  0.25051470  1.0
  Ga  Ga223  1  0.74977733  0.39047900  0.25051470  1.0
  Ga  Ga224  1  0.74977733  0.72381233  0.25051470  1.0
  Ga  Ga225  1  0.05714567  0.08311067  0.32693350  1.0
  Ga  Ga226  1  0.05714567  0.41644400  0.32693350  1.0
  Ga  Ga227  1  0.05714567  0.74977733  0.32693350  1.0
  Ga  Ga228  1  0.39047900  0.08311067  0.32693350  1.0
  Ga  Ga229  1  0.39047900  0.41644400  0.32693350  1.0
  Ga  Ga230  1  0.39047900  0.74977733  0.32693350  1.0
  Ga  Ga231  1  0.72381233  0.08311067  0.32693350  1.0
  Ga  Ga232  1  0.72381233  0.41644400  0.32693350  1.0
  Ga  Ga233  1  0.72381233  0.74977733  0.32693350  1.0
  Ga  Ga234  1  0.27652400  0.05680933  0.36617230  1.0
  Ga  Ga235  1  0.27652400  0.39014267  0.36617230  1.0
  Ga  Ga236  1  0.27652400  0.72347600  0.36617230  1.0
  Ga  Ga237  1  0.60985733  0.05680933  0.36617230  1.0
  Ga  Ga238  1  0.60985733  0.39014267  0.36617230  1.0
  Ga  Ga239  1  0.60985733  0.72347600  0.36617230  1.0
  Ga  Ga240  1  0.94319067  0.05680933  0.36617230  1.0
  Ga  Ga241  1  0.94319067  0.39014267  0.36617230  1.0
  Ga  Ga242  1  0.94319067  0.72347600  0.36617230  1.0
  Ga  Ga243  1  0.05680933  0.27652400  0.21127590  1.0
  Ga  Ga244  1  0.05680933  0.60985733  0.21127590  1.0
  Ga  Ga245  1  0.05680933  0.94319067  0.21127590  1.0
  Ga  Ga246  1  0.39014267  0.27652400  0.21127590  1.0
  Ga  Ga247  1  0.39014267  0.60985733  0.21127590  1.0
  Ga  Ga248  1  0.39014267  0.94319067  0.21127590  1.0
  Ga  Ga249  1  0.72347600  0.27652400  0.21127590  1.0
  Ga  Ga250  1  0.72347600  0.60985733  0.21127590  1.0
  Ga  Ga251  1  0.72347600  0.94319067  0.21127590  1.0
  Ga  Ga252  1  0.09730500  0.23602833  0.35525590  1.0
  Ga  Ga253  1  0.09730500  0.56936167  0.35525590  1.0
  Ga  Ga254  1  0.09730500  0.90269500  0.35525590  1.0
  Ga  Ga255  1  0.43063833  0.23602833  0.35525590  1.0
  Ga  Ga256  1  0.43063833  0.56936167  0.35525590  1.0
  Ga  Ga257  1  0.43063833  0.90269500  0.35525590  1.0
  Ga  Ga258  1  0.76397167  0.23602833  0.35525590  1.0
  Ga  Ga259  1  0.76397167  0.56936167  0.35525590  1.0
  Ga  Ga260  1  0.76397167  0.90269500  0.35525590  1.0
  Ga  Ga261  1  0.23602833  0.09730500  0.22219230  1.0
  Ga  Ga262  1  0.23602833  0.43063833  0.22219230  1.0
  Ga  Ga263  1  0.23602833  0.76397167  0.22219230  1.0
  Ga  Ga264  1  0.56936167  0.09730500  0.22219230  1.0
  Ga  Ga265  1  0.56936167  0.43063833  0.22219230  1.0
  Ga  Ga266  1  0.56936167  0.76397167  0.22219230  1.0
  Ga  Ga267  1  0.90269500  0.09730500  0.22219230  1.0
  Ga  Ga268  1  0.90269500  0.43063833  0.22219230  1.0
  Ga  Ga269  1  0.90269500  0.76397167  0.22219230  1.0
  Ga  Ga270  1  0.16666667  0.16666667  0.28872410  1.0
  Ga  Ga271  1  0.16666667  0.50000000  0.28872410  1.0
  Ga  Ga272  1  0.16666667  0.83333333  0.28872410  1.0
  Ga  Ga273  1  0.50000000  0.16666667  0.28872410  1.0
  Ga  Ga274  1  0.50000000  0.50000000  0.28872410  1.0
  Ga  Ga275  1  0.50000000  0.83333333  0.28872410  1.0
  Ga  Ga276  1  0.83333333  0.16666667  0.28872410  1.0
  Ga  Ga277  1  0.83333333  0.50000000  0.28872410  1.0
  Ga  Ga278  1  0.83333333  0.83333333  0.28872410  1.0
  Ni  Ni279  1  0.18075300  0.31161000  0.25654030  1.0
  Ni  Ni280  1  0.18075300  0.64494333  0.25654030  1.0
  Ni  Ni281  1  0.18075300  0.97827667  0.25654030  1.0
  Ni  Ni282  1  0.51408633  0.31161000  0.25654030  1.0
  Ni  Ni283  1  0.51408633  0.64494333  0.25654030  1.0
  Ni  Ni284  1  0.51408633  0.97827667  0.25654030  1.0
  Ni  Ni285  1  0.84741967  0.31161000  0.25654030  1.0
  Ni  Ni286  1  0.84741967  0.64494333  0.25654030  1.0
  Ni  Ni287  1  0.84741967  0.97827667  0.25654030  1.0
  Ni  Ni288  1  0.31161000  0.18075300  0.32090790  1.0
  Ni  Ni289  1  0.31161000  0.51408633  0.32090790  1.0
  Ni  Ni290  1  0.31161000  0.84741967  0.32090790  1.0
  Ni  Ni291  1  0.64494333  0.18075300  0.32090790  1.0
  Ni  Ni292  1  0.64494333  0.51408633  0.32090790  1.0
  Ni  Ni293  1  0.64494333  0.84741967  0.32090790  1.0
  Ni  Ni294  1  0.97827667  0.18075300  0.32090790  1.0
  Ni  Ni295  1  0.97827667  0.51408633  0.32090790  1.0
  Ni  Ni296  1  0.97827667  0.84741967  0.32090790  1.0
  Ni  Ni297  1  0.15258033  0.02172333  0.32090790  1.0
  Ni  Ni298  1  0.15258033  0.35505667  0.32090790  1.0
  Ni  Ni299  1  0.15258033  0.68839000  0.32090790  1.0
  Ni  Ni300  1  0.48591367  0.02172333  0.32090790  1.0
  Ni  Ni301  1  0.48591367  0.35505667  0.32090790  1.0
  Ni  Ni302  1  0.48591367  0.68839000  0.32090790  1.0
  Ni  Ni303  1  0.81924700  0.02172333  0.32090790  1.0
  Ni  Ni304  1  0.81924700  0.35505667  0.32090790  1.0
  Ni  Ni305  1  0.81924700  0.68839000  0.32090790  1.0
  Ni  Ni306  1  0.02172333  0.15258033  0.25654030  1.0
  Ni  Ni307  1  0.02172333  0.48591367  0.25654030  1.0
  Ni  Ni308  1  0.02172333  0.81924700  0.25654030  1.0
  Ni  Ni309  1  0.35505667  0.15258033  0.25654030  1.0
  Ni  Ni310  1  0.35505667  0.48591367  0.25654030  1.0
  Ni  Ni311  1  0.35505667  0.81924700  0.25654030  1.0
  Ni  Ni312  1  0.68839000  0.15258033  0.25654030  1.0
  Ni  Ni313  1  0.68839000  0.48591367  0.25654030  1.0
  Ni  Ni314  1  0.68839000  0.81924700  0.25654030  1.0
  Ni  Ni315  1  0.18362333  0.14971000  0.35297330  1.0
  Ni  Ni316  1  0.18362333  0.48304333  0.35297330  1.0
  Ni  Ni317  1  0.18362333  0.81637667  0.35297330  1.0
  Ni  Ni318  1  0.51695667  0.14971000  0.35297330  1.0
  Ni  Ni319  1  0.51695667  0.48304333  0.35297330  1.0
  Ni  Ni320  1  0.51695667  0.81637667  0.35297330  1.0
  Ni  Ni321  1  0.85029000  0.14971000  0.35297330  1.0
  Ni  Ni322  1  0.85029000  0.48304333  0.35297330  1.0
  Ni  Ni323  1  0.85029000  0.81637667  0.35297330  1.0
  Ni  Ni324  1  0.14971000  0.18362333  0.22447490  1.0
  Ni  Ni325  1  0.14971000  0.51695667  0.22447490  1.0
  Ni  Ni326  1  0.14971000  0.85029000  0.22447490  1.0
  Ni  Ni327  1  0.48304333  0.18362333  0.22447490  1.0
  Ni  Ni328  1  0.48304333  0.51695667  0.22447490  1.0
  Ni  Ni329  1  0.48304333  0.85029000  0.22447490  1.0
  Ni  Ni330  1  0.81637667  0.18362333  0.22447490  1.0
  Ni  Ni331  1  0.81637667  0.51695667  0.22447490  1.0
  Ni  Ni332  1  0.81637667  0.85029000  0.22447490  1.0
  Ni  Ni333  1  0.24726600  0.08606733  0.28625110  1.0
  Ni  Ni334  1  0.24726600  0.41940067  0.28625110  1.0
  Ni  Ni335  1  0.24726600  0.75273400  0.28625110  1.0
  Ni  Ni336  1  0.58059933  0.08606733  0.28625110  1.0
  Ni  Ni337  1  0.58059933  0.41940067  0.28625110  1.0
  Ni  Ni338  1  0.58059933  0.75273400  0.28625110  1.0
  Ni  Ni339  1  0.91393267  0.08606733  0.28625110  1.0
  Ni  Ni340  1  0.91393267  0.41940067  0.28625110  1.0
  Ni  Ni341  1  0.91393267  0.75273400  0.28625110  1.0
  Ni  Ni342  1  0.08606733  0.24726600  0.29119710  1.0
  Ni  Ni343  1  0.08606733  0.58059933  0.29119710  1.0
  Ni  Ni344  1  0.08606733  0.91393267  0.29119710  1.0
  Ni  Ni345  1  0.41940067  0.24726600  0.29119710  1.0
  Ni  Ni346  1  0.41940067  0.58059933  0.29119710  1.0
  Ni  Ni347  1  0.41940067  0.91393267  0.29119710  1.0
  Ni  Ni348  1  0.75273400  0.24726600  0.29119710  1.0
  Ni  Ni349  1  0.75273400  0.58059933  0.29119710  1.0
  Ni  Ni350  1  0.75273400  0.91393267  0.29119710  1.0
  Ni  Ni351  1  0.24669967  0.24669967  0.38872410  1.0
  Ni  Ni352  1  0.24669967  0.58003300  0.38872410  1.0
  Ni  Ni353  1  0.24669967  0.91336633  0.38872410  1.0
  Ni  Ni354  1  0.58003300  0.24669967  0.38872410  1.0
  Ni  Ni355  1  0.58003300  0.58003300  0.38872410  1.0
  Ni  Ni356  1  0.58003300  0.91336633  0.38872410  1.0
  Ni  Ni357  1  0.91336633  0.24669967  0.38872410  1.0
  Ni  Ni358  1  0.91336633  0.58003300  0.38872410  1.0
  Ni  Ni359  1  0.91336633  0.91336633  0.38872410  1.0
  Ni  Ni360  1  0.00000000  0.00000000  0.28872410  1.0
  Ni  Ni361  1  0.00000000  0.33333333  0.28872410  1.0
  Ni  Ni362  1  0.00000000  0.66666667  0.28872410  1.0
  Ni  Ni363  1  0.33333333  0.00000000  0.28872410  1.0
  Ni  Ni364  1  0.33333333  0.33333333  0.28872410  1.0
  Ni  Ni365  1  0.33333333  0.66666667  0.28872410  1.0
  Ni  Ni366  1  0.66666667  0.00000000  0.28872410  1.0
  Ni  Ni367  1  0.66666667  0.33333333  0.28872410  1.0
  Ni  Ni368  1  0.66666667  0.66666667  0.28872410  1.0
  Ni  Ni369  1  0.16666667  0.00000000  0.38872410  1.0
  Ni  Ni370  1  0.16666667  0.33333333  0.38872410  1.0
  Ni  Ni371  1  0.16666667  0.66666667  0.38872410  1.0
  Ni  Ni372  1  0.50000000  0.00000000  0.38872410  1.0
  Ni  Ni373  1  0.50000000  0.33333333  0.38872410  1.0
  Ni  Ni374  1  0.50000000  0.66666667  0.38872410  1.0
  Ni  Ni375  1  0.83333333  0.00000000  0.38872410  1.0
  Ni  Ni376  1  0.83333333  0.33333333  0.38872410  1.0
  Ni  Ni377  1  0.83333333  0.66666667  0.38872410  1.0
  Ni  Ni378  1  0.00000000  0.16666667  0.38872410  1.0
  Ni  Ni379  1  0.00000000  0.50000000  0.38872410  1.0
  Ni  Ni380  1  0.00000000  0.83333333  0.38872410  1.0
  Ni  Ni381  1  0.33333333  0.16666667  0.38872410  1.0
  Ni  Ni382  1  0.33333333  0.50000000  0.38872410  1.0
  Ni  Ni383  1  0.33333333  0.83333333  0.38872410  1.0
  Ni  Ni384  1  0.66666667  0.16666667  0.38872410  1.0
  Ni  Ni385  1  0.66666667  0.50000000  0.38872410  1.0
  Ni  Ni386  1  0.66666667  0.83333333  0.38872410  1.0
  Ni  Ni387  1  0.08663367  0.08663367  0.38872410  1.0
  Ni  Ni388  1  0.08663367  0.41996700  0.38872410  1.0
  Ni  Ni389  1  0.08663367  0.75330033  0.38872410  1.0
  Ni  Ni390  1  0.41996700  0.08663367  0.38872410  1.0
  Ni  Ni391  1  0.41996700  0.41996700  0.38872410  1.0
  Ni  Ni392  1  0.41996700  0.75330033  0.38872410  1.0
  Ni  Ni393  1  0.75330033  0.08663367  0.38872410  1.0
  Ni  Ni394  1  0.75330033  0.41996700  0.38872410  1.0
  Ni  Ni395  1  0.75330033  0.75330033  0.38872410  1.0
