# generated using pymatgen
data_Ga9Ni13
_symmetry_space_group_name_H-M   'P 1'
_cell_length_a   19.06120836
_cell_length_b   38.12226974
_cell_length_c   50.82988896
_cell_angle_alpha   143.61078688
_cell_angle_beta   103.09612909
_cell_angle_gamma   65.27289820
_symmetry_Int_Tables_number   1
_chemical_formula_structural   Ga9Ni13
_chemical_formula_sum   'Ga243 Ni351'
_cell_volume   19483.44522944
_cell_formula_units_Z   27
loop_
 _symmetry_equiv_pos_site_id
 _symmetry_equiv_pos_as_xyz
  1  'x, y, z'
loop_
 _atom_site_type_symbol
 _atom_site_label
 _atom_site_symmetry_multiplicity
 _atom_site_fract_x
 _atom_site_fract_y
 _atom_site_fract_z
 _atom_site_occupancy
  Ga  Ga0  1  0.27618767  0.23034900  0.04779812  1.0
  Ga  Ga1  1  0.27618767  0.56368233  0.04779812  1.0
  Ga  Ga2  1  0.27618767  0.89701567  0.04779813  1.0
  Ga  Ga3  1  0.60952100  0.23034900  0.04779812  1.0
  Ga  Ga4  1  0.60952100  0.56368233  0.04779812  1.0
  Ga  Ga5  1  0.60952100  0.89701567  0.04779812  1.0
  Ga  Ga6  1  0.94285433  0.23034900  0.04779812  1.0
  Ga  Ga7  1  0.94285433  0.56368233  0.04779812  1.0
  Ga  Ga8  1  0.94285433  0.89701567  0.04779813  1.0
  Ga  Ga9  1  0.25022267  0.10298433  0.00977325  1.0
  Ga  Ga10  1  0.25022267  0.43631767  0.00977325  1.0
  Ga  Ga11  1  0.25022267  0.76965100  0.00977325  1.0
  Ga  Ga12  1  0.58355600  0.10298433  0.00977325  1.0
  Ga  Ga13  1  0.58355600  0.43631767  0.00977325  1.0
  Ga  Ga14  1  0.58355600  0.76965100  0.00977325  1.0
  Ga  Ga15  1  0.91688933  0.10298433  0.00977325  1.0
  Ga  Ga16  1  0.91688933  0.43631767  0.00977325  1.0
  Ga  Ga17  1  0.91688933  0.76965100  0.00977325  1.0
  Ga  Ga18  1  0.05714567  0.10298433  0.06236937  1.0
  Ga  Ga19  1  0.05714567  0.43631767  0.06236937  1.0
  Ga  Ga20  1  0.05714567  0.76965100  0.06236937  1.0
  Ga  Ga21  1  0.39047900  0.10298433  0.06236937  1.0
  Ga  Ga22  1  0.39047900  0.43631767  0.06236937  1.0
  Ga  Ga23  1  0.39047900  0.76965100  0.06236937  1.0
  Ga  Ga24  1  0.72381233  0.10298433  0.06236937  1.0
  Ga  Ga25  1  0.72381233  0.43631767  0.06236937  1.0
  Ga  Ga26  1  0.72381233  0.76965100  0.06236938  1.0
  Ga  Ga27  1  0.08311067  0.23034900  0.10039425  1.0
  Ga  Ga28  1  0.08311067  0.56368233  0.10039425  1.0
  Ga  Ga29  1  0.08311067  0.89701567  0.10039425  1.0
  Ga  Ga30  1  0.41644400  0.23034900  0.10039425  1.0
  Ga  Ga31  1  0.41644400  0.56368233  0.10039425  1.0
  Ga  Ga32  1  0.41644400  0.89701567  0.10039425  1.0
  Ga  Ga33  1  0.74977733  0.23034900  0.10039425  1.0
  Ga  Ga34  1  0.74977733  0.56368233  0.10039425  1.0
  Ga  Ga35  1  0.74977733  0.89701567  0.10039425  1.0
  Ga  Ga36  1  0.05680933  0.29574700  0.08218538  1.0
  Ga  Ga37  1  0.05680933  0.62908033  0.08218538  1.0
  Ga  Ga38  1  0.05680933  0.96241367  0.08218538  1.0
  Ga  Ga39  1  0.39014267  0.29574700  0.08218538  1.0
  Ga  Ga40  1  0.39014267  0.62908033  0.08218538  1.0
  Ga  Ga41  1  0.39014267  0.96241367  0.08218538  1.0
  Ga  Ga42  1  0.72347600  0.29574700  0.08218538  1.0
  Ga  Ga43  1  0.72347600  0.62908033  0.08218538  1.0
  Ga  Ga44  1  0.72347600  0.96241367  0.08218538  1.0
  Ga  Ga45  1  0.27652400  0.03758633  0.02798212  1.0
  Ga  Ga46  1  0.27652400  0.37091967  0.02798212  1.0
  Ga  Ga47  1  0.27652400  0.70425300  0.02798212  1.0
  Ga  Ga48  1  0.60985733  0.03758633  0.02798212  1.0
  Ga  Ga49  1  0.60985733  0.37091967  0.02798212  1.0
  Ga  Ga50  1  0.60985733  0.70425300  0.02798212  1.0
  Ga  Ga51  1  0.94319067  0.03758633  0.02798212  1.0
  Ga  Ga52  1  0.94319067  0.37091967  0.02798212  1.0
  Ga  Ga53  1  0.94319067  0.70425300  0.02798213  1.0
  Ga  Ga54  1  0.23602833  0.27755300  0.00815550  1.0
  Ga  Ga55  1  0.23602833  0.61088633  0.00815550  1.0
  Ga  Ga56  1  0.23602833  0.94421967  0.00815550  1.0
  Ga  Ga57  1  0.56936167  0.27755300  0.00815550  1.0
  Ga  Ga58  1  0.56936167  0.61088633  0.00815550  1.0
  Ga  Ga59  1  0.56936167  0.94421967  0.00815550  1.0
  Ga  Ga60  1  0.90269500  0.27755300  0.00815550  1.0
  Ga  Ga61  1  0.90269500  0.61088633  0.00815550  1.0
  Ga  Ga62  1  0.90269500  0.94421967  0.00815550  1.0
  Ga  Ga63  1  0.09730500  0.05578033  0.10201200  1.0
  Ga  Ga64  1  0.09730500  0.38911367  0.10201200  1.0
  Ga  Ga65  1  0.09730500  0.72244700  0.10201200  1.0
  Ga  Ga66  1  0.43063833  0.05578033  0.10201200  1.0
  Ga  Ga67  1  0.43063833  0.38911367  0.10201200  1.0
  Ga  Ga68  1  0.43063833  0.72244700  0.10201200  1.0
  Ga  Ga69  1  0.76397167  0.05578033  0.10201200  1.0
  Ga  Ga70  1  0.76397167  0.38911367  0.10201200  1.0
  Ga  Ga71  1  0.76397167  0.72244700  0.10201200  1.0
  Ga  Ga72  1  0.16666667  0.16666667  0.11758375  1.0
  Ga  Ga73  1  0.16666667  0.50000000  0.11758375  1.0
  Ga  Ga74  1  0.16666667  0.83333333  0.11758375  1.0
  Ga  Ga75  1  0.50000000  0.16666667  0.11758375  1.0
  Ga  Ga76  1  0.50000000  0.50000000  0.11758375  1.0
  Ga  Ga77  1  0.50000000  0.83333333  0.11758375  1.0
  Ga  Ga78  1  0.83333333  0.16666667  0.11758375  1.0
  Ga  Ga79  1  0.83333333  0.50000000  0.11758375  1.0
  Ga  Ga80  1  0.83333333  0.83333333  0.11758375  1.0
  Ni  Ni81  1  0.31161000  0.11302700  0.10275125  1.0
  Ni  Ni82  1  0.31161000  0.44636033  0.10275125  1.0
  Ni  Ni83  1  0.31161000  0.77969367  0.10275125  1.0
  Ni  Ni84  1  0.64494333  0.11302700  0.10275125  1.0
  Ni  Ni85  1  0.64494333  0.44636033  0.10275125  1.0
  Ni  Ni86  1  0.64494333  0.77969367  0.10275125  1.0
  Ni  Ni87  1  0.97827667  0.11302700  0.10275125  1.0
  Ni  Ni88  1  0.97827667  0.44636033  0.10275125  1.0
  Ni  Ni89  1  0.97827667  0.77969367  0.10275125  1.0
  Ni  Ni90  1  0.18075300  0.22030633  0.06705238  1.0
  Ni  Ni91  1  0.18075300  0.55363967  0.06705237  1.0
  Ni  Ni92  1  0.18075300  0.88697300  0.06705237  1.0
  Ni  Ni93  1  0.51408633  0.22030633  0.06705238  1.0
  Ni  Ni94  1  0.51408633  0.55363967  0.06705237  1.0
  Ni  Ni95  1  0.51408633  0.88697300  0.06705237  1.0
  Ni  Ni96  1  0.84741967  0.22030633  0.06705238  1.0
  Ni  Ni97  1  0.84741967  0.55363967  0.06705237  1.0
  Ni  Ni98  1  0.84741967  0.88697300  0.06705237  1.0
  Ni  Ni99  1  0.02172333  0.22030633  0.00741625  1.0
  Ni  Ni100  1  0.02172333  0.55363967  0.00741625  1.0
  Ni  Ni101  1  0.02172333  0.88697300  0.00741625  1.0
  Ni  Ni102  1  0.35505667  0.22030633  0.00741625  1.0
  Ni  Ni103  1  0.35505667  0.55363967  0.00741625  1.0
  Ni  Ni104  1  0.35505667  0.88697300  0.00741625  1.0
  Ni  Ni105  1  0.68839000  0.22030633  0.00741625  1.0
  Ni  Ni106  1  0.68839000  0.55363967  0.00741625  1.0
  Ni  Ni107  1  0.68839000  0.88697300  0.00741625  1.0
  Ni  Ni108  1  0.15258033  0.11302700  0.04311513  1.0
  Ni  Ni109  1  0.15258033  0.44636033  0.04311513  1.0
  Ni  Ni110  1  0.15258033  0.77969367  0.04311512  1.0
  Ni  Ni111  1  0.48591367  0.11302700  0.04311512  1.0
  Ni  Ni112  1  0.48591367  0.44636033  0.04311513  1.0
  Ni  Ni113  1  0.48591367  0.77969367  0.04311513  1.0
  Ni  Ni114  1  0.81924700  0.11302700  0.04311513  1.0
  Ni  Ni115  1  0.81924700  0.44636033  0.04311512  1.0
  Ni  Ni116  1  0.81924700  0.77969367  0.04311513  1.0
  Ni  Ni117  1  0.14971000  0.27374867  0.03909825  1.0
  Ni  Ni118  1  0.14971000  0.60708200  0.03909825  1.0
  Ni  Ni119  1  0.14971000  0.94041533  0.03909825  1.0
  Ni  Ni120  1  0.48304333  0.27374867  0.03909825  1.0
  Ni  Ni121  1  0.48304333  0.60708200  0.03909825  1.0
  Ni  Ni122  1  0.48304333  0.94041533  0.03909825  1.0
  Ni  Ni123  1  0.81637667  0.27374867  0.03909825  1.0
  Ni  Ni124  1  0.81637667  0.60708200  0.03909825  1.0
  Ni  Ni125  1  0.81637667  0.94041533  0.03909825  1.0
  Ni  Ni126  1  0.18362333  0.05958467  0.07106925  1.0
  Ni  Ni127  1  0.18362333  0.39291800  0.07106925  1.0
  Ni  Ni128  1  0.18362333  0.72625133  0.07106925  1.0
  Ni  Ni129  1  0.51695667  0.05958467  0.07106925  1.0
  Ni  Ni130  1  0.51695667  0.39291800  0.07106925  1.0
  Ni  Ni131  1  0.51695667  0.72625133  0.07106925  1.0
  Ni  Ni132  1  0.85029000  0.05958467  0.07106925  1.0
  Ni  Ni133  1  0.85029000  0.39291800  0.07106925  1.0
  Ni  Ni134  1  0.85029000  0.72625133  0.07106925  1.0
  Ni  Ni135  1  0.08606733  0.16254500  0.02126288  1.0
  Ni  Ni136  1  0.08606733  0.49587833  0.02126287  1.0
  Ni  Ni137  1  0.08606733  0.82921167  0.02126288  1.0
  Ni  Ni138  1  0.41940067  0.16254500  0.02126288  1.0
  Ni  Ni139  1  0.41940067  0.49587833  0.02126288  1.0
  Ni  Ni140  1  0.41940067  0.82921167  0.02126288  1.0
  Ni  Ni141  1  0.75273400  0.16254500  0.02126288  1.0
  Ni  Ni142  1  0.75273400  0.49587833  0.02126287  1.0
  Ni  Ni143  1  0.75273400  0.82921167  0.02126288  1.0
  Ni  Ni144  1  0.24726600  0.17078833  0.08890462  1.0
  Ni  Ni145  1  0.24726600  0.50412167  0.08890462  1.0
  Ni  Ni146  1  0.24726600  0.83745500  0.08890463  1.0
  Ni  Ni147  1  0.58059933  0.17078833  0.08890462  1.0
  Ni  Ni148  1  0.58059933  0.50412167  0.08890463  1.0
  Ni  Ni149  1  0.58059933  0.83745500  0.08890462  1.0
  Ni  Ni150  1  0.91393267  0.17078833  0.08890462  1.0
  Ni  Ni151  1  0.91393267  0.50412167  0.08890462  1.0
  Ni  Ni152  1  0.91393267  0.83745500  0.08890462  1.0
  Ni  Ni153  1  0.24669967  0.00000000  0.08509612  1.0
  Ni  Ni154  1  0.24669967  0.33333333  0.08509612  1.0
  Ni  Ni155  1  0.24669967  0.66666667  0.08509612  1.0
  Ni  Ni156  1  0.58003300  0.00000000  0.08509612  1.0
  Ni  Ni157  1  0.58003300  0.33333333  0.08509612  1.0
  Ni  Ni158  1  0.58003300  0.66666667  0.08509612  1.0
  Ni  Ni159  1  0.91336633  0.00000000  0.08509612  1.0
  Ni  Ni160  1  0.91336633  0.33333333  0.08509612  1.0
  Ni  Ni161  1  0.91336633  0.66666667  0.08509613  1.0
  Ni  Ni162  1  0.00000000  0.16666667  0.05508375  1.0
  Ni  Ni163  1  0.00000000  0.50000000  0.05508375  1.0
  Ni  Ni164  1  0.00000000  0.83333333  0.05508375  1.0
  Ni  Ni165  1  0.33333333  0.16666667  0.05508375  1.0
  Ni  Ni166  1  0.33333333  0.50000000  0.05508375  1.0
  Ni  Ni167  1  0.33333333  0.83333333  0.05508375  1.0
  Ni  Ni168  1  0.66666667  0.16666667  0.05508375  1.0
  Ni  Ni169  1  0.66666667  0.50000000  0.05508375  1.0
  Ni  Ni170  1  0.66666667  0.83333333  0.05508375  1.0
  Ni  Ni171  1  0.00000000  0.00000000  0.05508375  1.0
  Ni  Ni172  1  0.00000000  0.33333333  0.05508375  1.0
  Ni  Ni173  1  0.00000000  0.66666667  0.05508375  1.0
  Ni  Ni174  1  0.33333333  0.00000000  0.05508375  1.0
  Ni  Ni175  1  0.33333333  0.33333333  0.05508375  1.0
  Ni  Ni176  1  0.33333333  0.66666667  0.05508375  1.0
  Ni  Ni177  1  0.66666667  0.00000000  0.05508375  1.0
  Ni  Ni178  1  0.66666667  0.33333333  0.05508375  1.0
  Ni  Ni179  1  0.66666667  0.66666667  0.05508375  1.0
  Ni  Ni180  1  0.16666667  0.00000000  0.11758375  1.0
  Ni  Ni181  1  0.16666667  0.33333333  0.11758375  1.0
  Ni  Ni182  1  0.16666667  0.66666667  0.11758375  1.0
  Ni  Ni183  1  0.50000000  0.00000000  0.11758375  1.0
  Ni  Ni184  1  0.50000000  0.33333333  0.11758375  1.0
  Ni  Ni185  1  0.50000000  0.66666667  0.11758375  1.0
  Ni  Ni186  1  0.83333333  0.00000000  0.11758375  1.0
  Ni  Ni187  1  0.83333333  0.33333333  0.11758375  1.0
  Ni  Ni188  1  0.83333333  0.66666667  0.11758375  1.0
  Ni  Ni189  1  0.08663367  0.00000000  0.02507137  1.0
  Ni  Ni190  1  0.08663367  0.33333333  0.02507137  1.0
  Ni  Ni191  1  0.08663367  0.66666667  0.02507137  1.0
  Ni  Ni192  1  0.41996700  0.00000000  0.02507137  1.0
  Ni  Ni193  1  0.41996700  0.33333333  0.02507138  1.0
  Ni  Ni194  1  0.41996700  0.66666667  0.02507137  1.0
  Ni  Ni195  1  0.75330033  0.00000000  0.02507137  1.0
  Ni  Ni196  1  0.75330033  0.33333333  0.02507137  1.0
  Ni  Ni197  1  0.75330033  0.66666667  0.02507138  1.0
  Ga  Ga198  1  0.27618767  0.23034900  0.17279812  1.0
  Ga  Ga199  1  0.27618767  0.56368233  0.17279812  1.0
  Ga  Ga200  1  0.27618767  0.89701567  0.17279813  1.0
  Ga  Ga201  1  0.60952100  0.23034900  0.17279812  1.0
  Ga  Ga202  1  0.60952100  0.56368233  0.17279812  1.0
  Ga  Ga203  1  0.60952100  0.89701567  0.17279812  1.0
  Ga  Ga204  1  0.94285433  0.23034900  0.17279812  1.0
  Ga  Ga205  1  0.94285433  0.56368233  0.17279812  1.0
  Ga  Ga206  1  0.94285433  0.89701567  0.17279813  1.0
  Ga  Ga207  1  0.25022267  0.10298433  0.13477325  1.0
  Ga  Ga208  1  0.25022267  0.43631767  0.13477325  1.0
  Ga  Ga209  1  0.25022267  0.76965100  0.13477325  1.0
  Ga  Ga210  1  0.58355600  0.10298433  0.13477325  1.0
  Ga  Ga211  1  0.58355600  0.43631767  0.13477325  1.0
  Ga  Ga212  1  0.58355600  0.76965100  0.13477325  1.0
  Ga  Ga213  1  0.91688933  0.10298433  0.13477325  1.0
  Ga  Ga214  1  0.91688933  0.43631767  0.13477325  1.0
  Ga  Ga215  1  0.91688933  0.76965100  0.13477325  1.0
  Ga  Ga216  1  0.05714567  0.10298433  0.18736937  1.0
  Ga  Ga217  1  0.05714567  0.43631767  0.18736937  1.0
  Ga  Ga218  1  0.05714567  0.76965100  0.18736937  1.0
  Ga  Ga219  1  0.39047900  0.10298433  0.18736937  1.0
  Ga  Ga220  1  0.39047900  0.43631767  0.18736937  1.0
  Ga  Ga221  1  0.39047900  0.76965100  0.18736937  1.0
  Ga  Ga222  1  0.72381233  0.10298433  0.18736937  1.0
  Ga  Ga223  1  0.72381233  0.43631767  0.18736937  1.0
  Ga  Ga224  1  0.72381233  0.76965100  0.18736938  1.0
  Ga  Ga225  1  0.08311067  0.23034900  0.22539425  1.0
  Ga  Ga226  1  0.08311067  0.56368233  0.22539425  1.0
  Ga  Ga227  1  0.08311067  0.89701567  0.22539425  1.0
  Ga  Ga228  1  0.41644400  0.23034900  0.22539425  1.0
  Ga  Ga229  1  0.41644400  0.56368233  0.22539425  1.0
  Ga  Ga230  1  0.41644400  0.89701567  0.22539425  1.0
  Ga  Ga231  1  0.74977733  0.23034900  0.22539425  1.0
  Ga  Ga232  1  0.74977733  0.56368233  0.22539425  1.0
  Ga  Ga233  1  0.74977733  0.89701567  0.22539425  1.0
  Ga  Ga234  1  0.05680933  0.29574700  0.20718538  1.0
  Ga  Ga235  1  0.05680933  0.62908033  0.20718538  1.0
  Ga  Ga236  1  0.05680933  0.96241367  0.20718538  1.0
  Ga  Ga237  1  0.39014267  0.29574700  0.20718537  1.0
  Ga  Ga238  1  0.39014267  0.62908033  0.20718538  1.0
  Ga  Ga239  1  0.39014267  0.96241367  0.20718538  1.0
  Ga  Ga240  1  0.72347600  0.29574700  0.20718537  1.0
  Ga  Ga241  1  0.72347600  0.62908033  0.20718538  1.0
  Ga  Ga242  1  0.72347600  0.96241367  0.20718538  1.0
  Ga  Ga243  1  0.27652400  0.03758633  0.15298212  1.0
  Ga  Ga244  1  0.27652400  0.37091967  0.15298212  1.0
  Ga  Ga245  1  0.27652400  0.70425300  0.15298212  1.0
  Ga  Ga246  1  0.60985733  0.03758633  0.15298212  1.0
  Ga  Ga247  1  0.60985733  0.37091967  0.15298212  1.0
  Ga  Ga248  1  0.60985733  0.70425300  0.15298212  1.0
  Ga  Ga249  1  0.94319067  0.03758633  0.15298212  1.0
  Ga  Ga250  1  0.94319067  0.37091967  0.15298212  1.0
  Ga  Ga251  1  0.94319067  0.70425300  0.15298213  1.0
  Ga  Ga252  1  0.23602833  0.27755300  0.13315550  1.0
  Ga  Ga253  1  0.23602833  0.61088633  0.13315550  1.0
  Ga  Ga254  1  0.23602833  0.94421967  0.13315550  1.0
  Ga  Ga255  1  0.56936167  0.27755300  0.13315550  1.0
  Ga  Ga256  1  0.56936167  0.61088633  0.13315550  1.0
  Ga  Ga257  1  0.56936167  0.94421967  0.13315550  1.0
  Ga  Ga258  1  0.90269500  0.27755300  0.13315550  1.0
  Ga  Ga259  1  0.90269500  0.61088633  0.13315550  1.0
  Ga  Ga260  1  0.90269500  0.94421967  0.13315550  1.0
  Ga  Ga261  1  0.09730500  0.05578033  0.22701200  1.0
  Ga  Ga262  1  0.09730500  0.38911367  0.22701200  1.0
  Ga  Ga263  1  0.09730500  0.72244700  0.22701200  1.0
  Ga  Ga264  1  0.43063833  0.05578033  0.22701200  1.0
  Ga  Ga265  1  0.43063833  0.38911367  0.22701200  1.0
  Ga  Ga266  1  0.43063833  0.72244700  0.22701200  1.0
  Ga  Ga267  1  0.76397167  0.05578033  0.22701200  1.0
  Ga  Ga268  1  0.76397167  0.38911367  0.22701200  1.0
  Ga  Ga269  1  0.76397167  0.72244700  0.22701200  1.0
  Ga  Ga270  1  0.16666667  0.16666667  0.24258375  1.0
  Ga  Ga271  1  0.16666667  0.50000000  0.24258375  1.0
  Ga  Ga272  1  0.16666667  0.83333333  0.24258375  1.0
  Ga  Ga273  1  0.50000000  0.16666667  0.24258375  1.0
  Ga  Ga274  1  0.50000000  0.50000000  0.24258375  1.0
  Ga  Ga275  1  0.50000000  0.83333333  0.24258375  1.0
  Ga  Ga276  1  0.83333333  0.16666667  0.24258375  1.0
  Ga  Ga277  1  0.83333333  0.50000000  0.24258375  1.0
  Ga  Ga278  1  0.83333333  0.83333333  0.24258375  1.0
  Ni  Ni279  1  0.31161000  0.11302700  0.22775125  1.0
  Ni  Ni280  1  0.31161000  0.44636033  0.22775125  1.0
  Ni  Ni281  1  0.31161000  0.77969367  0.22775125  1.0
  Ni  Ni282  1  0.64494333  0.11302700  0.22775125  1.0
  Ni  Ni283  1  0.64494333  0.44636033  0.22775125  1.0
  Ni  Ni284  1  0.64494333  0.77969367  0.22775125  1.0
  Ni  Ni285  1  0.97827667  0.11302700  0.22775125  1.0
  Ni  Ni286  1  0.97827667  0.44636033  0.22775125  1.0
  Ni  Ni287  1  0.97827667  0.77969367  0.22775125  1.0
  Ni  Ni288  1  0.18075300  0.22030633  0.19205238  1.0
  Ni  Ni289  1  0.18075300  0.55363967  0.19205237  1.0
  Ni  Ni290  1  0.18075300  0.88697300  0.19205237  1.0
  Ni  Ni291  1  0.51408633  0.22030633  0.19205237  1.0
  Ni  Ni292  1  0.51408633  0.55363967  0.19205238  1.0
  Ni  Ni293  1  0.51408633  0.88697300  0.19205237  1.0
  Ni  Ni294  1  0.84741967  0.22030633  0.19205237  1.0
  Ni  Ni295  1  0.84741967  0.55363967  0.19205237  1.0
  Ni  Ni296  1  0.84741967  0.88697300  0.19205237  1.0
  Ni  Ni297  1  0.02172333  0.22030633  0.13241625  1.0
  Ni  Ni298  1  0.02172333  0.55363967  0.13241625  1.0
  Ni  Ni299  1  0.02172333  0.88697300  0.13241625  1.0
  Ni  Ni300  1  0.35505667  0.22030633  0.13241625  1.0
  Ni  Ni301  1  0.35505667  0.55363967  0.13241625  1.0
  Ni  Ni302  1  0.35505667  0.88697300  0.13241625  1.0
  Ni  Ni303  1  0.68839000  0.22030633  0.13241625  1.0
  Ni  Ni304  1  0.68839000  0.55363967  0.13241625  1.0
  Ni  Ni305  1  0.68839000  0.88697300  0.13241625  1.0
  Ni  Ni306  1  0.15258033  0.11302700  0.16811512  1.0
  Ni  Ni307  1  0.15258033  0.44636033  0.16811512  1.0
  Ni  Ni308  1  0.15258033  0.77969367  0.16811512  1.0
  Ni  Ni309  1  0.48591367  0.11302700  0.16811512  1.0
  Ni  Ni310  1  0.48591367  0.44636033  0.16811513  1.0
  Ni  Ni311  1  0.48591367  0.77969367  0.16811512  1.0
  Ni  Ni312  1  0.81924700  0.11302700  0.16811513  1.0
  Ni  Ni313  1  0.81924700  0.44636033  0.16811512  1.0
  Ni  Ni314  1  0.81924700  0.77969367  0.16811513  1.0
  Ni  Ni315  1  0.14971000  0.27374867  0.16409825  1.0
  Ni  Ni316  1  0.14971000  0.60708200  0.16409825  1.0
  Ni  Ni317  1  0.14971000  0.94041533  0.16409825  1.0
  Ni  Ni318  1  0.48304333  0.27374867  0.16409825  1.0
  Ni  Ni319  1  0.48304333  0.60708200  0.16409825  1.0
  Ni  Ni320  1  0.48304333  0.94041533  0.16409825  1.0
  Ni  Ni321  1  0.81637667  0.27374867  0.16409825  1.0
  Ni  Ni322  1  0.81637667  0.60708200  0.16409825  1.0
  Ni  Ni323  1  0.81637667  0.94041533  0.16409825  1.0
  Ni  Ni324  1  0.18362333  0.05958467  0.19606925  1.0
  Ni  Ni325  1  0.18362333  0.39291800  0.19606925  1.0
  Ni  Ni326  1  0.18362333  0.72625133  0.19606925  1.0
  Ni  Ni327  1  0.51695667  0.05958467  0.19606925  1.0
  Ni  Ni328  1  0.51695667  0.39291800  0.19606925  1.0
  Ni  Ni329  1  0.51695667  0.72625133  0.19606925  1.0
  Ni  Ni330  1  0.85029000  0.05958467  0.19606925  1.0
  Ni  Ni331  1  0.85029000  0.39291800  0.19606925  1.0
  Ni  Ni332  1  0.85029000  0.72625133  0.19606925  1.0
  Ni  Ni333  1  0.08606733  0.16254500  0.14626287  1.0
  Ni  Ni334  1  0.08606733  0.49587833  0.14626287  1.0
  Ni  Ni335  1  0.08606733  0.82921167  0.14626288  1.0
  Ni  Ni336  1  0.41940067  0.16254500  0.14626288  1.0
  Ni  Ni337  1  0.41940067  0.49587833  0.14626288  1.0
  Ni  Ni338  1  0.41940067  0.82921167  0.14626288  1.0
  Ni  Ni339  1  0.75273400  0.16254500  0.14626288  1.0
  Ni  Ni340  1  0.75273400  0.49587833  0.14626287  1.0
  Ni  Ni341  1  0.75273400  0.82921167  0.14626288  1.0
  Ni  Ni342  1  0.24726600  0.17078833  0.21390462  1.0
  Ni  Ni343  1  0.24726600  0.50412167  0.21390462  1.0
  Ni  Ni344  1  0.24726600  0.83745500  0.21390462  1.0
  Ni  Ni345  1  0.58059933  0.17078833  0.21390462  1.0
  Ni  Ni346  1  0.58059933  0.50412167  0.21390463  1.0
  Ni  Ni347  1  0.58059933  0.83745500  0.21390462  1.0
  Ni  Ni348  1  0.91393267  0.17078833  0.21390462  1.0
  Ni  Ni349  1  0.91393267  0.50412167  0.21390462  1.0
  Ni  Ni350  1  0.91393267  0.83745500  0.21390462  1.0
  Ni  Ni351  1  0.24669967  0.00000000  0.21009612  1.0
  Ni  Ni352  1  0.24669967  0.33333333  0.21009612  1.0
  Ni  Ni353  1  0.24669967  0.66666667  0.21009612  1.0
  Ni  Ni354  1  0.58003300  0.00000000  0.21009612  1.0
  Ni  Ni355  1  0.58003300  0.33333333  0.21009612  1.0
  Ni  Ni356  1  0.58003300  0.66666667  0.21009612  1.0
  Ni  Ni357  1  0.91336633  0.00000000  0.21009612  1.0
  Ni  Ni358  1  0.91336633  0.33333333  0.21009612  1.0
  Ni  Ni359  1  0.91336633  0.66666667  0.21009613  1.0
  Ni  Ni360  1  0.00000000  0.16666667  0.18008375  1.0
  Ni  Ni361  1  0.00000000  0.50000000  0.18008375  1.0
  Ni  Ni362  1  0.00000000  0.83333333  0.18008375  1.0
  Ni  Ni363  1  0.33333333  0.16666667  0.18008375  1.0
  Ni  Ni364  1  0.33333333  0.50000000  0.18008375  1.0
  Ni  Ni365  1  0.33333333  0.83333333  0.18008375  1.0
  Ni  Ni366  1  0.66666667  0.16666667  0.18008375  1.0
  Ni  Ni367  1  0.66666667  0.50000000  0.18008375  1.0
  Ni  Ni368  1  0.66666667  0.83333333  0.18008375  1.0
  Ni  Ni369  1  0.00000000  0.00000000  0.18008375  1.0
  Ni  Ni370  1  0.00000000  0.33333333  0.18008375  1.0
  Ni  Ni371  1  0.00000000  0.66666667  0.18008375  1.0
  Ni  Ni372  1  0.33333333  0.00000000  0.18008375  1.0
  Ni  Ni373  1  0.33333333  0.33333333  0.18008375  1.0
  Ni  Ni374  1  0.33333333  0.66666667  0.18008375  1.0
  Ni  Ni375  1  0.66666667  0.00000000  0.18008375  1.0
  Ni  Ni376  1  0.66666667  0.33333333  0.18008375  1.0
  Ni  Ni377  1  0.66666667  0.66666667  0.18008375  1.0
  Ni  Ni378  1  0.16666667  0.00000000  0.24258375  1.0
  Ni  Ni379  1  0.16666667  0.33333333  0.24258375  1.0
  Ni  Ni380  1  0.16666667  0.66666667  0.24258375  1.0
  Ni  Ni381  1  0.50000000  0.00000000  0.24258375  1.0
  Ni  Ni382  1  0.50000000  0.33333333  0.24258375  1.0
  Ni  Ni383  1  0.50000000  0.66666667  0.24258375  1.0
  Ni  Ni384  1  0.83333333  0.00000000  0.24258375  1.0
  Ni  Ni385  1  0.83333333  0.33333333  0.24258375  1.0
  Ni  Ni386  1  0.83333333  0.66666667  0.24258375  1.0
  Ni  Ni387  1  0.08663367  0.00000000  0.15007138  1.0
  Ni  Ni388  1  0.08663367  0.33333333  0.15007138  1.0
  Ni  Ni389  1  0.08663367  0.66666667  0.15007138  1.0
  Ni  Ni390  1  0.41996700  0.00000000  0.15007138  1.0
  Ni  Ni391  1  0.41996700  0.33333333  0.15007138  1.0
  Ni  Ni392  1  0.41996700  0.66666667  0.15007138  1.0
  Ni  Ni393  1  0.75330033  0.00000000  0.15007138  1.0
  Ni  Ni394  1  0.75330033  0.33333333  0.15007137  1.0
  Ni  Ni395  1  0.75330033  0.66666667  0.15007138  1.0
  Ga  Ga396  1  0.27618767  0.23034900  0.29779813  1.0
  Ga  Ga397  1  0.27618767  0.56368233  0.29779812  1.0
  Ga  Ga398  1  0.27618767  0.89701567  0.29779813  1.0
  Ga  Ga399  1  0.60952100  0.23034900  0.29779812  1.0
  Ga  Ga400  1  0.60952100  0.56368233  0.29779812  1.0
  Ga  Ga401  1  0.60952100  0.89701567  0.29779812  1.0
  Ga  Ga402  1  0.94285433  0.23034900  0.29779812  1.0
  Ga  Ga403  1  0.94285433  0.56368233  0.29779812  1.0
  Ga  Ga404  1  0.94285433  0.89701567  0.29779813  1.0
  Ga  Ga405  1  0.25022267  0.10298433  0.25977325  1.0
  Ga  Ga406  1  0.25022267  0.43631767  0.25977325  1.0
  Ga  Ga407  1  0.25022267  0.76965100  0.25977325  1.0
  Ga  Ga408  1  0.58355600  0.10298433  0.25977325  1.0
  Ga  Ga409  1  0.58355600  0.43631767  0.25977325  1.0
  Ga  Ga410  1  0.58355600  0.76965100  0.25977325  1.0
  Ga  Ga411  1  0.91688933  0.10298433  0.25977325  1.0
  Ga  Ga412  1  0.91688933  0.43631767  0.25977325  1.0
  Ga  Ga413  1  0.91688933  0.76965100  0.25977325  1.0
  Ga  Ga414  1  0.05714567  0.10298433  0.31236937  1.0
  Ga  Ga415  1  0.05714567  0.43631767  0.31236937  1.0
  Ga  Ga416  1  0.05714567  0.76965100  0.31236937  1.0
  Ga  Ga417  1  0.39047900  0.10298433  0.31236937  1.0
  Ga  Ga418  1  0.39047900  0.43631767  0.31236937  1.0
  Ga  Ga419  1  0.39047900  0.76965100  0.31236937  1.0
  Ga  Ga420  1  0.72381233  0.10298433  0.31236937  1.0
  Ga  Ga421  1  0.72381233  0.43631767  0.31236937  1.0
  Ga  Ga422  1  0.72381233  0.76965100  0.31236937  1.0
  Ga  Ga423  1  0.08311067  0.23034900  0.35039425  1.0
  Ga  Ga424  1  0.08311067  0.56368233  0.35039425  1.0
  Ga  Ga425  1  0.08311067  0.89701567  0.35039425  1.0
  Ga  Ga426  1  0.41644400  0.23034900  0.35039425  1.0
  Ga  Ga427  1  0.41644400  0.56368233  0.35039425  1.0
  Ga  Ga428  1  0.41644400  0.89701567  0.35039425  1.0
  Ga  Ga429  1  0.74977733  0.23034900  0.35039425  1.0
  Ga  Ga430  1  0.74977733  0.56368233  0.35039425  1.0
  Ga  Ga431  1  0.74977733  0.89701567  0.35039425  1.0
  Ga  Ga432  1  0.05680933  0.29574700  0.33218538  1.0
  Ga  Ga433  1  0.05680933  0.62908033  0.33218538  1.0
  Ga  Ga434  1  0.05680933  0.96241367  0.33218538  1.0
  Ga  Ga435  1  0.39014267  0.29574700  0.33218538  1.0
  Ga  Ga436  1  0.39014267  0.62908033  0.33218538  1.0
  Ga  Ga437  1  0.39014267  0.96241367  0.33218538  1.0
  Ga  Ga438  1  0.72347600  0.29574700  0.33218538  1.0
  Ga  Ga439  1  0.72347600  0.62908033  0.33218538  1.0
  Ga  Ga440  1  0.72347600  0.96241367  0.33218538  1.0
  Ga  Ga441  1  0.27652400  0.03758633  0.27798212  1.0
  Ga  Ga442  1  0.27652400  0.37091967  0.27798212  1.0
  Ga  Ga443  1  0.27652400  0.70425300  0.27798212  1.0
  Ga  Ga444  1  0.60985733  0.03758633  0.27798212  1.0
  Ga  Ga445  1  0.60985733  0.37091967  0.27798212  1.0
  Ga  Ga446  1  0.60985733  0.70425300  0.27798212  1.0
  Ga  Ga447  1  0.94319067  0.03758633  0.27798212  1.0
  Ga  Ga448  1  0.94319067  0.37091967  0.27798212  1.0
  Ga  Ga449  1  0.94319067  0.70425300  0.27798213  1.0
  Ga  Ga450  1  0.23602833  0.27755300  0.25815550  1.0
  Ga  Ga451  1  0.23602833  0.61088633  0.25815550  1.0
  Ga  Ga452  1  0.23602833  0.94421967  0.25815550  1.0
  Ga  Ga453  1  0.56936167  0.27755300  0.25815550  1.0
  Ga  Ga454  1  0.56936167  0.61088633  0.25815550  1.0
  Ga  Ga455  1  0.56936167  0.94421967  0.25815550  1.0
  Ga  Ga456  1  0.90269500  0.27755300  0.25815550  1.0
  Ga  Ga457  1  0.90269500  0.61088633  0.25815550  1.0
  Ga  Ga458  1  0.90269500  0.94421967  0.25815550  1.0
  Ga  Ga459  1  0.09730500  0.05578033  0.35201200  1.0
  Ga  Ga460  1  0.09730500  0.38911367  0.35201200  1.0
  Ga  Ga461  1  0.09730500  0.72244700  0.35201200  1.0
  Ga  Ga462  1  0.43063833  0.05578033  0.35201200  1.0
  Ga  Ga463  1  0.43063833  0.38911367  0.35201200  1.0
  Ga  Ga464  1  0.43063833  0.72244700  0.35201200  1.0
  Ga  Ga465  1  0.76397167  0.05578033  0.35201200  1.0
  Ga  Ga466  1  0.76397167  0.38911367  0.35201200  1.0
  Ga  Ga467  1  0.76397167  0.72244700  0.35201200  1.0
  Ga  Ga468  1  0.16666667  0.16666667  0.36758375  1.0
  Ga  Ga469  1  0.16666667  0.50000000  0.36758375  1.0
  Ga  Ga470  1  0.16666667  0.83333333  0.36758375  1.0
  Ga  Ga471  1  0.50000000  0.16666667  0.36758375  1.0
  Ga  Ga472  1  0.50000000  0.50000000  0.36758375  1.0
  Ga  Ga473  1  0.50000000  0.83333333  0.36758375  1.0
  Ga  Ga474  1  0.83333333  0.16666667  0.36758375  1.0
  Ga  Ga475  1  0.83333333  0.50000000  0.36758375  1.0
  Ga  Ga476  1  0.83333333  0.83333333  0.36758375  1.0
  Ni  Ni477  1  0.31161000  0.11302700  0.35275125  1.0
  Ni  Ni478  1  0.31161000  0.44636033  0.35275125  1.0
  Ni  Ni479  1  0.31161000  0.77969367  0.35275125  1.0
  Ni  Ni480  1  0.64494333  0.11302700  0.35275125  1.0
  Ni  Ni481  1  0.64494333  0.44636033  0.35275125  1.0
  Ni  Ni482  1  0.64494333  0.77969367  0.35275125  1.0
  Ni  Ni483  1  0.97827667  0.11302700  0.35275125  1.0
  Ni  Ni484  1  0.97827667  0.44636033  0.35275125  1.0
  Ni  Ni485  1  0.97827667  0.77969367  0.35275125  1.0
  Ni  Ni486  1  0.18075300  0.22030633  0.31705238  1.0
  Ni  Ni487  1  0.18075300  0.55363967  0.31705237  1.0
  Ni  Ni488  1  0.18075300  0.88697300  0.31705237  1.0
  Ni  Ni489  1  0.51408633  0.22030633  0.31705238  1.0
  Ni  Ni490  1  0.51408633  0.55363967  0.31705238  1.0
  Ni  Ni491  1  0.51408633  0.88697300  0.31705237  1.0
  Ni  Ni492  1  0.84741967  0.22030633  0.31705238  1.0
  Ni  Ni493  1  0.84741967  0.55363967  0.31705237  1.0
  Ni  Ni494  1  0.84741967  0.88697300  0.31705237  1.0
  Ni  Ni495  1  0.02172333  0.22030633  0.25741625  1.0
  Ni  Ni496  1  0.02172333  0.55363967  0.25741625  1.0
  Ni  Ni497  1  0.02172333  0.88697300  0.25741625  1.0
  Ni  Ni498  1  0.35505667  0.22030633  0.25741625  1.0
  Ni  Ni499  1  0.35505667  0.55363967  0.25741625  1.0
  Ni  Ni500  1  0.35505667  0.88697300  0.25741625  1.0
  Ni  Ni501  1  0.68839000  0.22030633  0.25741625  1.0
  Ni  Ni502  1  0.68839000  0.55363967  0.25741625  1.0
  Ni  Ni503  1  0.68839000  0.88697300  0.25741625  1.0
  Ni  Ni504  1  0.15258033  0.11302700  0.29311512  1.0
  Ni  Ni505  1  0.15258033  0.44636033  0.29311512  1.0
  Ni  Ni506  1  0.15258033  0.77969367  0.29311512  1.0
  Ni  Ni507  1  0.48591367  0.11302700  0.29311512  1.0
  Ni  Ni508  1  0.48591367  0.44636033  0.29311512  1.0
  Ni  Ni509  1  0.48591367  0.77969367  0.29311512  1.0
  Ni  Ni510  1  0.81924700  0.11302700  0.29311513  1.0
  Ni  Ni511  1  0.81924700  0.44636033  0.29311512  1.0
  Ni  Ni512  1  0.81924700  0.77969367  0.29311513  1.0
  Ni  Ni513  1  0.14971000  0.27374867  0.28909825  1.0
  Ni  Ni514  1  0.14971000  0.60708200  0.28909825  1.0
  Ni  Ni515  1  0.14971000  0.94041533  0.28909825  1.0
  Ni  Ni516  1  0.48304333  0.27374867  0.28909825  1.0
  Ni  Ni517  1  0.48304333  0.60708200  0.28909825  1.0
  Ni  Ni518  1  0.48304333  0.94041533  0.28909825  1.0
  Ni  Ni519  1  0.81637667  0.27374867  0.28909825  1.0
  Ni  Ni520  1  0.81637667  0.60708200  0.28909825  1.0
  Ni  Ni521  1  0.81637667  0.94041533  0.28909825  1.0
  Ni  Ni522  1  0.18362333  0.05958467  0.32106925  1.0
  Ni  Ni523  1  0.18362333  0.39291800  0.32106925  1.0
  Ni  Ni524  1  0.18362333  0.72625133  0.32106925  1.0
  Ni  Ni525  1  0.51695667  0.05958467  0.32106925  1.0
  Ni  Ni526  1  0.51695667  0.39291800  0.32106925  1.0
  Ni  Ni527  1  0.51695667  0.72625133  0.32106925  1.0
  Ni  Ni528  1  0.85029000  0.05958467  0.32106925  1.0
  Ni  Ni529  1  0.85029000  0.39291800  0.32106925  1.0
  Ni  Ni530  1  0.85029000  0.72625133  0.32106925  1.0
  Ni  Ni531  1  0.08606733  0.16254500  0.27126288  1.0
  Ni  Ni532  1  0.08606733  0.49587833  0.27126287  1.0
  Ni  Ni533  1  0.08606733  0.82921167  0.27126288  1.0
  Ni  Ni534  1  0.41940067  0.16254500  0.27126288  1.0
  Ni  Ni535  1  0.41940067  0.49587833  0.27126288  1.0
  Ni  Ni536  1  0.41940067  0.82921167  0.27126288  1.0
  Ni  Ni537  1  0.75273400  0.16254500  0.27126288  1.0
  Ni  Ni538  1  0.75273400  0.49587833  0.27126287  1.0
  Ni  Ni539  1  0.75273400  0.82921167  0.27126288  1.0
  Ni  Ni540  1  0.24726600  0.17078833  0.33890462  1.0
  Ni  Ni541  1  0.24726600  0.50412167  0.33890462  1.0
  Ni  Ni542  1  0.24726600  0.83745500  0.33890462  1.0
  Ni  Ni543  1  0.58059933  0.17078833  0.33890462  1.0
  Ni  Ni544  1  0.58059933  0.50412167  0.33890462  1.0
  Ni  Ni545  1  0.58059933  0.83745500  0.33890462  1.0
  Ni  Ni546  1  0.91393267  0.17078833  0.33890462  1.0
  Ni  Ni547  1  0.91393267  0.50412167  0.33890462  1.0
  Ni  Ni548  1  0.91393267  0.83745500  0.33890462  1.0
  Ni  Ni549  1  0.24669967  0.00000000  0.33509612  1.0
  Ni  Ni550  1  0.24669967  0.33333333  0.33509612  1.0
  Ni  Ni551  1  0.24669967  0.66666667  0.33509612  1.0
  Ni  Ni552  1  0.58003300  0.00000000  0.33509612  1.0
  Ni  Ni553  1  0.58003300  0.33333333  0.33509612  1.0
  Ni  Ni554  1  0.58003300  0.66666667  0.33509612  1.0
  Ni  Ni555  1  0.91336633  0.00000000  0.33509612  1.0
  Ni  Ni556  1  0.91336633  0.33333333  0.33509612  1.0
  Ni  Ni557  1  0.91336633  0.66666667  0.33509612  1.0
  Ni  Ni558  1  0.00000000  0.16666667  0.30508375  1.0
  Ni  Ni559  1  0.00000000  0.50000000  0.30508375  1.0
  Ni  Ni560  1  0.00000000  0.83333333  0.30508375  1.0
  Ni  Ni561  1  0.33333333  0.16666667  0.30508375  1.0
  Ni  Ni562  1  0.33333333  0.50000000  0.30508375  1.0
  Ni  Ni563  1  0.33333333  0.83333333  0.30508375  1.0
  Ni  Ni564  1  0.66666667  0.16666667  0.30508375  1.0
  Ni  Ni565  1  0.66666667  0.50000000  0.30508375  1.0
  Ni  Ni566  1  0.66666667  0.83333333  0.30508375  1.0
  Ni  Ni567  1  0.00000000  0.00000000  0.30508375  1.0
  Ni  Ni568  1  0.00000000  0.33333333  0.30508375  1.0
  Ni  Ni569  1  0.00000000  0.66666667  0.30508375  1.0
  Ni  Ni570  1  0.33333333  0.00000000  0.30508375  1.0
  Ni  Ni571  1  0.33333333  0.33333333  0.30508375  1.0
  Ni  Ni572  1  0.33333333  0.66666667  0.30508375  1.0
  Ni  Ni573  1  0.66666667  0.00000000  0.30508375  1.0
  Ni  Ni574  1  0.66666667  0.33333333  0.30508375  1.0
  Ni  Ni575  1  0.66666667  0.66666667  0.30508375  1.0
  Ni  Ni576  1  0.16666667  0.00000000  0.36758375  1.0
  Ni  Ni577  1  0.16666667  0.33333333  0.36758375  1.0
  Ni  Ni578  1  0.16666667  0.66666667  0.36758375  1.0
  Ni  Ni579  1  0.50000000  0.00000000  0.36758375  1.0
  Ni  Ni580  1  0.50000000  0.33333333  0.36758375  1.0
  Ni  Ni581  1  0.50000000  0.66666667  0.36758375  1.0
  Ni  Ni582  1  0.83333333  0.00000000  0.36758375  1.0
  Ni  Ni583  1  0.83333333  0.33333333  0.36758375  1.0
  Ni  Ni584  1  0.83333333  0.66666667  0.36758375  1.0
  Ni  Ni585  1  0.08663367  0.00000000  0.27507138  1.0
  Ni  Ni586  1  0.08663367  0.33333333  0.27507138  1.0
  Ni  Ni587  1  0.08663367  0.66666667  0.27507138  1.0
  Ni  Ni588  1  0.41996700  0.00000000  0.27507138  1.0
  Ni  Ni589  1  0.41996700  0.33333333  0.27507138  1.0
  Ni  Ni590  1  0.41996700  0.66666667  0.27507138  1.0
  Ni  Ni591  1  0.75330033  0.00000000  0.27507138  1.0
  Ni  Ni592  1  0.75330033  0.33333333  0.27507138  1.0
  Ni  Ni593  1  0.75330033  0.66666667  0.27507138  1.0
