# generated using pymatgen
data_GaNi
_symmetry_space_group_name_H-M   'P 1'
_cell_length_a   12.36126457
_cell_length_b   19.54487540
_cell_length_c   40.79009200
_cell_angle_alpha   116.56505118
_cell_angle_beta   135.00000000
_cell_angle_gamma   71.56505118
_symmetry_Int_Tables_number   1
_chemical_formula_structural   GaNi
_chemical_formula_sum   'Ga108 Ni108'
_cell_volume   6232.76120714
_cell_formula_units_Z   108
loop_
 _symmetry_equiv_pos_site_id
 _symmetry_equiv_pos_as_xyz
  1  'x, y, z'
loop_
 _atom_site_type_symbol
 _atom_site_label
 _atom_site_symmetry_multiplicity
 _atom_site_fract_x
 _atom_site_fract_y
 _atom_site_fract_z
 _atom_site_occupancy
  Ga  Ga0  1  0.00000000  0.00000000  0.06250000  1.0
  Ga  Ga1  1  0.00000000  0.33333333  0.06250000  1.0
  Ga  Ga2  1  0.00000000  0.66666667  0.06250000  1.0
  Ga  Ga3  1  0.33333333  0.00000000  0.06250000  1.0
  Ga  Ga4  1  0.33333333  0.33333333  0.06250000  1.0
  Ga  Ga5  1  0.33333333  0.66666667  0.06250000  1.0
  Ga  Ga6  1  0.66666667  0.00000000  0.06250000  1.0
  Ga  Ga7  1  0.66666667  0.33333333  0.06250000  1.0
  Ga  Ga8  1  0.66666667  0.66666667  0.06250000  1.0
  Ga  Ga9  1  0.00000000  0.16666667  0.02678571  1.0
  Ga  Ga10  1  0.00000000  0.50000000  0.02678571  1.0
  Ga  Ga11  1  0.00000000  0.83333333  0.02678571  1.0
  Ga  Ga12  1  0.33333333  0.16666667  0.02678571  1.0
  Ga  Ga13  1  0.33333333  0.50000000  0.02678571  1.0
  Ga  Ga14  1  0.33333333  0.83333333  0.02678571  1.0
  Ga  Ga15  1  0.66666667  0.16666667  0.02678571  1.0
  Ga  Ga16  1  0.66666667  0.50000000  0.02678571  1.0
  Ga  Ga17  1  0.66666667  0.83333333  0.02678571  1.0
  Ni  Ni18  1  0.16666667  0.08333333  0.00892857  1.0
  Ni  Ni19  1  0.16666667  0.41666667  0.00892857  1.0
  Ni  Ni20  1  0.16666667  0.75000000  0.00892857  1.0
  Ni  Ni21  1  0.50000000  0.08333333  0.00892857  1.0
  Ni  Ni22  1  0.50000000  0.41666667  0.00892857  1.0
  Ni  Ni23  1  0.50000000  0.75000000  0.00892857  1.0
  Ni  Ni24  1  0.83333333  0.08333333  0.00892857  1.0
  Ni  Ni25  1  0.83333333  0.41666667  0.00892857  1.0
  Ni  Ni26  1  0.83333333  0.75000000  0.00892857  1.0
  Ni  Ni27  1  0.16666667  0.25000000  0.04464286  1.0
  Ni  Ni28  1  0.16666667  0.58333333  0.04464286  1.0
  Ni  Ni29  1  0.16666667  0.91666667  0.04464286  1.0
  Ni  Ni30  1  0.50000000  0.25000000  0.04464286  1.0
  Ni  Ni31  1  0.50000000  0.58333333  0.04464286  1.0
  Ni  Ni32  1  0.50000000  0.91666667  0.04464286  1.0
  Ni  Ni33  1  0.83333333  0.25000000  0.04464286  1.0
  Ni  Ni34  1  0.83333333  0.58333333  0.04464286  1.0
  Ni  Ni35  1  0.83333333  0.91666667  0.04464286  1.0
  Ga  Ga36  1  0.00000000  0.00000000  0.13392857  1.0
  Ga  Ga37  1  0.00000000  0.33333333  0.13392857  1.0
  Ga  Ga38  1  0.00000000  0.66666667  0.13392857  1.0
  Ga  Ga39  1  0.33333333  0.00000000  0.13392857  1.0
  Ga  Ga40  1  0.33333333  0.33333333  0.13392857  1.0
  Ga  Ga41  1  0.33333333  0.66666667  0.13392857  1.0
  Ga  Ga42  1  0.66666667  0.00000000  0.13392857  1.0
  Ga  Ga43  1  0.66666667  0.33333333  0.13392857  1.0
  Ga  Ga44  1  0.66666667  0.66666667  0.13392857  1.0
  Ga  Ga45  1  0.00000000  0.16666667  0.09821429  1.0
  Ga  Ga46  1  0.00000000  0.50000000  0.09821429  1.0
  Ga  Ga47  1  0.00000000  0.83333333  0.09821429  1.0
  Ga  Ga48  1  0.33333333  0.16666667  0.09821429  1.0
  Ga  Ga49  1  0.33333333  0.50000000  0.09821429  1.0
  Ga  Ga50  1  0.33333333  0.83333333  0.09821429  1.0
  Ga  Ga51  1  0.66666667  0.16666667  0.09821429  1.0
  Ga  Ga52  1  0.66666667  0.50000000  0.09821429  1.0
  Ga  Ga53  1  0.66666667  0.83333333  0.09821429  1.0
  Ni  Ni54  1  0.16666667  0.08333333  0.08035714  1.0
  Ni  Ni55  1  0.16666667  0.41666667  0.08035714  1.0
  Ni  Ni56  1  0.16666667  0.75000000  0.08035714  1.0
  Ni  Ni57  1  0.50000000  0.08333333  0.08035714  1.0
  Ni  Ni58  1  0.50000000  0.41666667  0.08035714  1.0
  Ni  Ni59  1  0.50000000  0.75000000  0.08035714  1.0
  Ni  Ni60  1  0.83333333  0.08333333  0.08035714  1.0
  Ni  Ni61  1  0.83333333  0.41666667  0.08035714  1.0
  Ni  Ni62  1  0.83333333  0.75000000  0.08035714  1.0
  Ni  Ni63  1  0.16666667  0.25000000  0.11607143  1.0
  Ni  Ni64  1  0.16666667  0.58333333  0.11607143  1.0
  Ni  Ni65  1  0.16666667  0.91666667  0.11607143  1.0
  Ni  Ni66  1  0.50000000  0.25000000  0.11607143  1.0
  Ni  Ni67  1  0.50000000  0.58333333  0.11607143  1.0
  Ni  Ni68  1  0.50000000  0.91666667  0.11607143  1.0
  Ni  Ni69  1  0.83333333  0.25000000  0.11607143  1.0
  Ni  Ni70  1  0.83333333  0.58333333  0.11607143  1.0
  Ni  Ni71  1  0.83333333  0.91666667  0.11607143  1.0
  Ga  Ga72  1  0.00000000  0.00000000  0.20535714  1.0
  Ga  Ga73  1  0.00000000  0.33333333  0.20535714  1.0
  Ga  Ga74  1  0.00000000  0.66666667  0.20535714  1.0
  Ga  Ga75  1  0.33333333  0.00000000  0.20535714  1.0
  Ga  Ga76  1  0.33333333  0.33333333  0.20535714  1.0
  Ga  Ga77  1  0.33333333  0.66666667  0.20535714  1.0
  Ga  Ga78  1  0.66666667  0.00000000  0.20535714  1.0
  Ga  Ga79  1  0.66666667  0.33333333  0.20535714  1.0
  Ga  Ga80  1  0.66666667  0.66666667  0.20535714  1.0
  Ga  Ga81  1  0.00000000  0.16666667  0.16964286  1.0
  Ga  Ga82  1  0.00000000  0.50000000  0.16964286  1.0
  Ga  Ga83  1  0.00000000  0.83333333  0.16964286  1.0
  Ga  Ga84  1  0.33333333  0.16666667  0.16964286  1.0
  Ga  Ga85  1  0.33333333  0.50000000  0.16964286  1.0
  Ga  Ga86  1  0.33333333  0.83333333  0.16964286  1.0
  Ga  Ga87  1  0.66666667  0.16666667  0.16964286  1.0
  Ga  Ga88  1  0.66666667  0.50000000  0.16964286  1.0
  Ga  Ga89  1  0.66666667  0.83333333  0.16964286  1.0
  Ni  Ni90  1  0.16666667  0.08333333  0.15178571  1.0
  Ni  Ni91  1  0.16666667  0.41666667  0.15178571  1.0
  Ni  Ni92  1  0.16666667  0.75000000  0.15178571  1.0
  Ni  Ni93  1  0.50000000  0.08333333  0.15178571  1.0
  Ni  Ni94  1  0.50000000  0.41666667  0.15178571  1.0
  Ni  Ni95  1  0.50000000  0.75000000  0.15178571  1.0
  Ni  Ni96  1  0.83333333  0.08333333  0.15178571  1.0
  Ni  Ni97  1  0.83333333  0.41666667  0.15178571  1.0
  Ni  Ni98  1  0.83333333  0.75000000  0.15178571  1.0
  Ni  Ni99  1  0.16666667  0.25000000  0.18750000  1.0
  Ni  Ni100  1  0.16666667  0.58333333  0.18750000  1.0
  Ni  Ni101  1  0.16666667  0.91666667  0.18750000  1.0
  Ni  Ni102  1  0.50000000  0.25000000  0.18750000  1.0
  Ni  Ni103  1  0.50000000  0.58333333  0.18750000  1.0
  Ni  Ni104  1  0.50000000  0.91666667  0.18750000  1.0
  Ni  Ni105  1  0.83333333  0.25000000  0.18750000  1.0
  Ni  Ni106  1  0.83333333  0.58333333  0.18750000  1.0
  Ni  Ni107  1  0.83333333  0.91666667  0.18750000  1.0
  Ga  Ga108  1  0.00000000  0.00000000  0.27678571  1.0
  Ga  Ga109  1  0.00000000  0.33333333  0.27678571  1.0
  Ga  Ga110  1  0.00000000  0.66666667  0.27678571  1.0
  Ga  Ga111  1  0.33333333  0.00000000  0.27678571  1.0
  Ga  Ga112  1  0.33333333  0.33333333  0.27678571  1.0
  Ga  Ga113  1  0.33333333  0.66666667  0.27678571  1.0
  Ga  Ga114  1  0.66666667  0.00000000  0.27678571  1.0
  Ga  Ga115  1  0.66666667  0.33333333  0.27678571  1.0
  Ga  Ga116  1  0.66666667  0.66666667  0.27678571  1.0
  Ga  Ga117  1  0.00000000  0.16666667  0.24107143  1.0
  Ga  Ga118  1  0.00000000  0.50000000  0.24107143  1.0
  Ga  Ga119  1  0.00000000  0.83333333  0.24107143  1.0
  Ga  Ga120  1  0.33333333  0.16666667  0.24107143  1.0
  Ga  Ga121  1  0.33333333  0.50000000  0.24107143  1.0
  Ga  Ga122  1  0.33333333  0.83333333  0.24107143  1.0
  Ga  Ga123  1  0.66666667  0.16666667  0.24107143  1.0
  Ga  Ga124  1  0.66666667  0.50000000  0.24107143  1.0
  Ga  Ga125  1  0.66666667  0.83333333  0.24107143  1.0
  Ni  Ni126  1  0.16666667  0.08333333  0.22321429  1.0
  Ni  Ni127  1  0.16666667  0.41666667  0.22321429  1.0
  Ni  Ni128  1  0.16666667  0.75000000  0.22321429  1.0
  Ni  Ni129  1  0.50000000  0.08333333  0.22321429  1.0
  Ni  Ni130  1  0.50000000  0.41666667  0.22321429  1.0
  Ni  Ni131  1  0.50000000  0.75000000  0.22321429  1.0
  Ni  Ni132  1  0.83333333  0.08333333  0.22321429  1.0
  Ni  Ni133  1  0.83333333  0.41666667  0.22321429  1.0
  Ni  Ni134  1  0.83333333  0.75000000  0.22321429  1.0
  Ni  Ni135  1  0.16666667  0.25000000  0.25892857  1.0
  Ni  Ni136  1  0.16666667  0.58333333  0.25892857  1.0
  Ni  Ni137  1  0.16666667  0.91666667  0.25892857  1.0
  Ni  Ni138  1  0.50000000  0.25000000  0.25892857  1.0
  Ni  Ni139  1  0.50000000  0.58333333  0.25892857  1.0
  Ni  Ni140  1  0.50000000  0.91666667  0.25892857  1.0
  Ni  Ni141  1  0.83333333  0.25000000  0.25892857  1.0
  Ni  Ni142  1  0.83333333  0.58333333  0.25892857  1.0
  Ni  Ni143  1  0.83333333  0.91666667  0.25892857  1.0
  Ga  Ga144  1  0.00000000  0.00000000  0.34821429  1.0
  Ga  Ga145  1  0.00000000  0.33333333  0.34821429  1.0
  Ga  Ga146  1  0.00000000  0.66666667  0.34821429  1.0
  Ga  Ga147  1  0.33333333  0.00000000  0.34821429  1.0
  Ga  Ga148  1  0.33333333  0.33333333  0.34821429  1.0
  Ga  Ga149  1  0.33333333  0.66666667  0.34821429  1.0
  Ga  Ga150  1  0.66666667  0.00000000  0.34821429  1.0
  Ga  Ga151  1  0.66666667  0.33333333  0.34821429  1.0
  Ga  Ga152  1  0.66666667  0.66666667  0.34821429  1.0
  Ga  Ga153  1  0.00000000  0.16666667  0.31250000  1.0
  Ga  Ga154  1  0.00000000  0.50000000  0.31250000  1.0
  Ga  Ga155  1  0.00000000  0.83333333  0.31250000  1.0
  Ga  Ga156  1  0.33333333  0.16666667  0.31250000  1.0
  Ga  Ga157  1  0.33333333  0.50000000  0.31250000  1.0
  Ga  Ga158  1  0.33333333  0.83333333  0.31250000  1.0
  Ga  Ga159  1  0.66666667  0.16666667  0.31250000  1.0
  Ga  Ga160  1  0.66666667  0.50000000  0.31250000  1.0
  Ga  Ga161  1  0.66666667  0.83333333  0.31250000  1.0
  Ni  Ni162  1  0.16666667  0.08333333  0.29464286  1.0
  Ni  Ni163  1  0.16666667  0.41666667  0.29464286  1.0
  Ni  Ni164  1  0.16666667  0.75000000  0.29464286  1.0
  Ni  Ni165  1  0.50000000  0.08333333  0.29464286  1.0
  Ni  Ni166  1  0.50000000  0.41666667  0.29464286  1.0
  Ni  Ni167  1  0.50000000  0.75000000  0.29464286  1.0
  Ni  Ni168  1  0.83333333  0.08333333  0.29464286  1.0
  Ni  Ni169  1  0.83333333  0.41666667  0.29464286  1.0
  Ni  Ni170  1  0.83333333  0.75000000  0.29464286  1.0
  Ni  Ni171  1  0.16666667  0.25000000  0.33035714  1.0
  Ni  Ni172  1  0.16666667  0.58333333  0.33035714  1.0
  Ni  Ni173  1  0.16666667  0.91666667  0.33035714  1.0
  Ni  Ni174  1  0.50000000  0.25000000  0.33035714  1.0
  Ni  Ni175  1  0.50000000  0.58333333  0.33035714  1.0
  Ni  Ni176  1  0.50000000  0.91666667  0.33035714  1.0
  Ni  Ni177  1  0.83333333  0.25000000  0.33035714  1.0
  Ni  Ni178  1  0.83333333  0.58333333  0.33035714  1.0
  Ni  Ni179  1  0.83333333  0.91666667  0.33035714  1.0
  Ga  Ga180  1  0.00000000  0.00000000  0.41964286  1.0
  Ga  Ga181  1  0.00000000  0.33333333  0.41964286  1.0
  Ga  Ga182  1  0.00000000  0.66666667  0.41964286  1.0
  Ga  Ga183  1  0.33333333  0.00000000  0.41964286  1.0
  Ga  Ga184  1  0.33333333  0.33333333  0.41964286  1.0
  Ga  Ga185  1  0.33333333  0.66666667  0.41964286  1.0
  Ga  Ga186  1  0.66666667  0.00000000  0.41964286  1.0
  Ga  Ga187  1  0.66666667  0.33333333  0.41964286  1.0
  Ga  Ga188  1  0.66666667  0.66666667  0.41964286  1.0
  Ga  Ga189  1  0.00000000  0.16666667  0.38392857  1.0
  Ga  Ga190  1  0.00000000  0.50000000  0.38392857  1.0
  Ga  Ga191  1  0.00000000  0.83333333  0.38392857  1.0
  Ga  Ga192  1  0.33333333  0.16666667  0.38392857  1.0
  Ga  Ga193  1  0.33333333  0.50000000  0.38392857  1.0
  Ga  Ga194  1  0.33333333  0.83333333  0.38392857  1.0
  Ga  Ga195  1  0.66666667  0.16666667  0.38392857  1.0
  Ga  Ga196  1  0.66666667  0.50000000  0.38392857  1.0
  Ga  Ga197  1  0.66666667  0.83333333  0.38392857  1.0
  Ni  Ni198  1  0.16666667  0.08333333  0.36607143  1.0
  Ni  Ni199  1  0.16666667  0.41666667  0.36607143  1.0
  Ni  Ni200  1  0.16666667  0.75000000  0.36607143  1.0
  Ni  Ni201  1  0.50000000  0.08333333  0.36607143  1.0
  Ni  Ni202  1  0.50000000  0.41666667  0.36607143  1.0
  Ni  Ni203  1  0.50000000  0.75000000  0.36607143  1.0
  Ni  Ni204  1  0.83333333  0.08333333  0.36607143  1.0
  Ni  Ni205  1  0.83333333  0.41666667  0.36607143  1.0
  Ni  Ni206  1  0.83333333  0.75000000  0.36607143  1.0
  Ni  Ni207  1  0.16666667  0.25000000  0.40178571  1.0
  Ni  Ni208  1  0.16666667  0.58333333  0.40178571  1.0
  Ni  Ni209  1  0.16666667  0.91666667  0.40178571  1.0
  Ni  Ni210  1  0.50000000  0.25000000  0.40178571  1.0
  Ni  Ni211  1  0.50000000  0.58333333  0.40178571  1.0
  Ni  Ni212  1  0.50000000  0.91666667  0.40178571  1.0
  Ni  Ni213  1  0.83333333  0.25000000  0.40178571  1.0
  Ni  Ni214  1  0.83333333  0.58333333  0.40178571  1.0
  Ni  Ni215  1  0.83333333  0.91666667  0.40178571  1.0
