# generated using pymatgen
data_GaNi2
_symmetry_space_group_name_H-M   'P 1'
_cell_length_a   21.02481462
_cell_length_b   32.49751205
_cell_length_c   56.64718444
_cell_angle_alpha   79.23604850
_cell_angle_beta   30.00000000
_cell_angle_gamma   71.12627945
_symmetry_Int_Tables_number   1
_chemical_formula_structural   GaNi2
_chemical_formula_sum   'Ga216 Ni432'
_cell_volume   17951.48965560
_cell_formula_units_Z   216
loop_
 _symmetry_equiv_pos_site_id
 _symmetry_equiv_pos_as_xyz
  1  'x, y, z'
loop_
 _atom_site_type_symbol
 _atom_site_label
 _atom_site_symmetry_multiplicity
 _atom_site_fract_x
 _atom_site_fract_y
 _atom_site_fract_z
 _atom_site_occupancy
  Ga  Ga0  1  0.15277778  0.29166667  0.05803571  1.0
  Ga  Ga1  1  0.15277778  0.62500000  0.05803571  1.0
  Ga  Ga2  1  0.15277778  0.95833333  0.05803571  1.0
  Ga  Ga3  1  0.48611111  0.29166667  0.05803571  1.0
  Ga  Ga4  1  0.48611111  0.62500000  0.05803571  1.0
  Ga  Ga5  1  0.48611111  0.95833333  0.05803571  1.0
  Ga  Ga6  1  0.81944444  0.29166667  0.05803571  1.0
  Ga  Ga7  1  0.81944444  0.62500000  0.05803571  1.0
  Ga  Ga8  1  0.81944444  0.95833333  0.05803571  1.0
  Ga  Ga9  1  0.31944444  0.12500000  0.02232143  1.0
  Ga  Ga10  1  0.31944444  0.45833333  0.02232143  1.0
  Ga  Ga11  1  0.31944444  0.79166667  0.02232143  1.0
  Ga  Ga12  1  0.65277778  0.12500000  0.02232143  1.0
  Ga  Ga13  1  0.65277778  0.45833333  0.02232143  1.0
  Ga  Ga14  1  0.65277778  0.79166667  0.02232143  1.0
  Ga  Ga15  1  0.98611111  0.12500000  0.02232143  1.0
  Ga  Ga16  1  0.98611111  0.45833333  0.02232143  1.0
  Ga  Ga17  1  0.98611111  0.79166667  0.02232143  1.0
  Ga  Ga18  1  0.01388889  0.20833333  0.04017857  1.0
  Ga  Ga19  1  0.01388889  0.54166667  0.04017857  1.0
  Ga  Ga20  1  0.01388889  0.87500000  0.04017857  1.0
  Ga  Ga21  1  0.34722222  0.20833333  0.04017857  1.0
  Ga  Ga22  1  0.34722222  0.54166667  0.04017857  1.0
  Ga  Ga23  1  0.34722222  0.87500000  0.04017857  1.0
  Ga  Ga24  1  0.68055556  0.20833333  0.04017857  1.0
  Ga  Ga25  1  0.68055556  0.54166667  0.04017857  1.0
  Ga  Ga26  1  0.68055556  0.87500000  0.04017857  1.0
  Ga  Ga27  1  0.18055556  0.04166667  0.00446429  1.0
  Ga  Ga28  1  0.18055556  0.37500000  0.00446429  1.0
  Ga  Ga29  1  0.18055556  0.70833333  0.00446429  1.0
  Ga  Ga30  1  0.51388889  0.04166667  0.00446429  1.0
  Ga  Ga31  1  0.51388889  0.37500000  0.00446429  1.0
  Ga  Ga32  1  0.51388889  0.70833333  0.00446429  1.0
  Ga  Ga33  1  0.84722222  0.04166667  0.00446429  1.0
  Ga  Ga34  1  0.84722222  0.37500000  0.00446429  1.0
  Ga  Ga35  1  0.84722222  0.70833333  0.00446429  1.0
  Ni  Ni36  1  0.08333333  0.25000000  0.04910714  1.0
  Ni  Ni37  1  0.08333333  0.58333333  0.04910714  1.0
  Ni  Ni38  1  0.08333333  0.91666667  0.04910714  1.0
  Ni  Ni39  1  0.41666667  0.25000000  0.04910714  1.0
  Ni  Ni40  1  0.41666667  0.58333333  0.04910714  1.0
  Ni  Ni41  1  0.41666667  0.91666667  0.04910714  1.0
  Ni  Ni42  1  0.75000000  0.25000000  0.04910714  1.0
  Ni  Ni43  1  0.75000000  0.58333333  0.04910714  1.0
  Ni  Ni44  1  0.75000000  0.91666667  0.04910714  1.0
  Ni  Ni45  1  0.25000000  0.08333333  0.01339286  1.0
  Ni  Ni46  1  0.25000000  0.41666667  0.01339286  1.0
  Ni  Ni47  1  0.25000000  0.75000000  0.01339286  1.0
  Ni  Ni48  1  0.58333333  0.08333333  0.01339286  1.0
  Ni  Ni49  1  0.58333333  0.41666667  0.01339286  1.0
  Ni  Ni50  1  0.58333333  0.75000000  0.01339286  1.0
  Ni  Ni51  1  0.91666667  0.08333333  0.01339286  1.0
  Ni  Ni52  1  0.91666667  0.41666667  0.01339286  1.0
  Ni  Ni53  1  0.91666667  0.75000000  0.01339286  1.0
  Ni  Ni54  1  0.26388889  0.29166667  0.05803571  1.0
  Ni  Ni55  1  0.26388889  0.62500000  0.05803571  1.0
  Ni  Ni56  1  0.26388889  0.95833333  0.05803571  1.0
  Ni  Ni57  1  0.59722222  0.29166667  0.05803571  1.0
  Ni  Ni58  1  0.59722222  0.62500000  0.05803571  1.0
  Ni  Ni59  1  0.59722222  0.95833333  0.05803571  1.0
  Ni  Ni60  1  0.93055556  0.29166667  0.05803571  1.0
  Ni  Ni61  1  0.93055556  0.62500000  0.05803571  1.0
  Ni  Ni62  1  0.93055556  0.95833333  0.05803571  1.0
  Ni  Ni63  1  0.09722222  0.12500000  0.02232143  1.0
  Ni  Ni64  1  0.09722222  0.45833333  0.02232143  1.0
  Ni  Ni65  1  0.09722222  0.79166667  0.02232143  1.0
  Ni  Ni66  1  0.43055556  0.12500000  0.02232143  1.0
  Ni  Ni67  1  0.43055556  0.45833333  0.02232143  1.0
  Ni  Ni68  1  0.43055556  0.79166667  0.02232143  1.0
  Ni  Ni69  1  0.76388889  0.12500000  0.02232143  1.0
  Ni  Ni70  1  0.76388889  0.45833333  0.02232143  1.0
  Ni  Ni71  1  0.76388889  0.79166667  0.02232143  1.0
  Ni  Ni72  1  0.23611111  0.20833333  0.04017857  1.0
  Ni  Ni73  1  0.23611111  0.54166667  0.04017857  1.0
  Ni  Ni74  1  0.23611111  0.87500000  0.04017857  1.0
  Ni  Ni75  1  0.56944444  0.20833333  0.04017857  1.0
  Ni  Ni76  1  0.56944444  0.54166667  0.04017857  1.0
  Ni  Ni77  1  0.56944444  0.87500000  0.04017857  1.0
  Ni  Ni78  1  0.90277778  0.20833333  0.04017857  1.0
  Ni  Ni79  1  0.90277778  0.54166667  0.04017857  1.0
  Ni  Ni80  1  0.90277778  0.87500000  0.04017857  1.0
  Ni  Ni81  1  0.06944444  0.04166667  0.00446429  1.0
  Ni  Ni82  1  0.06944444  0.37500000  0.00446429  1.0
  Ni  Ni83  1  0.06944444  0.70833333  0.00446429  1.0
  Ni  Ni84  1  0.40277778  0.04166667  0.00446429  1.0
  Ni  Ni85  1  0.40277778  0.37500000  0.00446429  1.0
  Ni  Ni86  1  0.40277778  0.70833333  0.00446429  1.0
  Ni  Ni87  1  0.73611111  0.04166667  0.00446429  1.0
  Ni  Ni88  1  0.73611111  0.37500000  0.00446429  1.0
  Ni  Ni89  1  0.73611111  0.70833333  0.00446429  1.0
  Ni  Ni90  1  0.16666667  0.16666667  0.03125000  1.0
  Ni  Ni91  1  0.16666667  0.50000000  0.03125000  1.0
  Ni  Ni92  1  0.16666667  0.83333333  0.03125000  1.0
  Ni  Ni93  1  0.50000000  0.16666667  0.03125000  1.0
  Ni  Ni94  1  0.50000000  0.50000000  0.03125000  1.0
  Ni  Ni95  1  0.50000000  0.83333333  0.03125000  1.0
  Ni  Ni96  1  0.83333333  0.16666667  0.03125000  1.0
  Ni  Ni97  1  0.83333333  0.50000000  0.03125000  1.0
  Ni  Ni98  1  0.83333333  0.83333333  0.03125000  1.0
  Ni  Ni99  1  0.00000000  0.00000000  0.06696429  1.0
  Ni  Ni100  1  0.00000000  0.33333333  0.06696429  1.0
  Ni  Ni101  1  0.00000000  0.66666667  0.06696429  1.0
  Ni  Ni102  1  0.33333333  0.00000000  0.06696429  1.0
  Ni  Ni103  1  0.33333333  0.33333333  0.06696429  1.0
  Ni  Ni104  1  0.33333333  0.66666667  0.06696429  1.0
  Ni  Ni105  1  0.66666667  0.00000000  0.06696429  1.0
  Ni  Ni106  1  0.66666667  0.33333333  0.06696429  1.0
  Ni  Ni107  1  0.66666667  0.66666667  0.06696429  1.0
  Ga  Ga108  1  0.15277778  0.29166667  0.12946429  1.0
  Ga  Ga109  1  0.15277778  0.62500000  0.12946429  1.0
  Ga  Ga110  1  0.15277778  0.95833333  0.12946429  1.0
  Ga  Ga111  1  0.48611111  0.29166667  0.12946429  1.0
  Ga  Ga112  1  0.48611111  0.62500000  0.12946429  1.0
  Ga  Ga113  1  0.48611111  0.95833333  0.12946429  1.0
  Ga  Ga114  1  0.81944444  0.29166667  0.12946429  1.0
  Ga  Ga115  1  0.81944444  0.62500000  0.12946429  1.0
  Ga  Ga116  1  0.81944444  0.95833333  0.12946429  1.0
  Ga  Ga117  1  0.31944444  0.12500000  0.09375000  1.0
  Ga  Ga118  1  0.31944444  0.45833333  0.09375000  1.0
  Ga  Ga119  1  0.31944444  0.79166667  0.09375000  1.0
  Ga  Ga120  1  0.65277778  0.12500000  0.09375000  1.0
  Ga  Ga121  1  0.65277778  0.45833333  0.09375000  1.0
  Ga  Ga122  1  0.65277778  0.79166667  0.09375000  1.0
  Ga  Ga123  1  0.98611111  0.12500000  0.09375000  1.0
  Ga  Ga124  1  0.98611111  0.45833333  0.09375000  1.0
  Ga  Ga125  1  0.98611111  0.79166667  0.09375000  1.0
  Ga  Ga126  1  0.01388889  0.20833333  0.11160714  1.0
  Ga  Ga127  1  0.01388889  0.54166667  0.11160714  1.0
  Ga  Ga128  1  0.01388889  0.87500000  0.11160714  1.0
  Ga  Ga129  1  0.34722222  0.20833333  0.11160714  1.0
  Ga  Ga130  1  0.34722222  0.54166667  0.11160714  1.0
  Ga  Ga131  1  0.34722222  0.87500000  0.11160714  1.0
  Ga  Ga132  1  0.68055556  0.20833333  0.11160714  1.0
  Ga  Ga133  1  0.68055556  0.54166667  0.11160714  1.0
  Ga  Ga134  1  0.68055556  0.87500000  0.11160714  1.0
  Ga  Ga135  1  0.18055556  0.04166667  0.07589286  1.0
  Ga  Ga136  1  0.18055556  0.37500000  0.07589286  1.0
  Ga  Ga137  1  0.18055556  0.70833333  0.07589286  1.0
  Ga  Ga138  1  0.51388889  0.04166667  0.07589286  1.0
  Ga  Ga139  1  0.51388889  0.37500000  0.07589286  1.0
  Ga  Ga140  1  0.51388889  0.70833333  0.07589286  1.0
  Ga  Ga141  1  0.84722222  0.04166667  0.07589286  1.0
  Ga  Ga142  1  0.84722222  0.37500000  0.07589286  1.0
  Ga  Ga143  1  0.84722222  0.70833333  0.07589286  1.0
  Ni  Ni144  1  0.08333333  0.25000000  0.12053571  1.0
  Ni  Ni145  1  0.08333333  0.58333333  0.12053571  1.0
  Ni  Ni146  1  0.08333333  0.91666667  0.12053571  1.0
  Ni  Ni147  1  0.41666667  0.25000000  0.12053571  1.0
  Ni  Ni148  1  0.41666667  0.58333333  0.12053571  1.0
  Ni  Ni149  1  0.41666667  0.91666667  0.12053571  1.0
  Ni  Ni150  1  0.75000000  0.25000000  0.12053571  1.0
  Ni  Ni151  1  0.75000000  0.58333333  0.12053571  1.0
  Ni  Ni152  1  0.75000000  0.91666667  0.12053571  1.0
  Ni  Ni153  1  0.25000000  0.08333333  0.08482143  1.0
  Ni  Ni154  1  0.25000000  0.41666667  0.08482143  1.0
  Ni  Ni155  1  0.25000000  0.75000000  0.08482143  1.0
  Ni  Ni156  1  0.58333333  0.08333333  0.08482143  1.0
  Ni  Ni157  1  0.58333333  0.41666667  0.08482143  1.0
  Ni  Ni158  1  0.58333333  0.75000000  0.08482143  1.0
  Ni  Ni159  1  0.91666667  0.08333333  0.08482143  1.0
  Ni  Ni160  1  0.91666667  0.41666667  0.08482143  1.0
  Ni  Ni161  1  0.91666667  0.75000000  0.08482143  1.0
  Ni  Ni162  1  0.26388889  0.29166667  0.12946429  1.0
  Ni  Ni163  1  0.26388889  0.62500000  0.12946429  1.0
  Ni  Ni164  1  0.26388889  0.95833333  0.12946429  1.0
  Ni  Ni165  1  0.59722222  0.29166667  0.12946429  1.0
  Ni  Ni166  1  0.59722222  0.62500000  0.12946429  1.0
  Ni  Ni167  1  0.59722222  0.95833333  0.12946429  1.0
  Ni  Ni168  1  0.93055556  0.29166667  0.12946429  1.0
  Ni  Ni169  1  0.93055556  0.62500000  0.12946429  1.0
  Ni  Ni170  1  0.93055556  0.95833333  0.12946429  1.0
  Ni  Ni171  1  0.09722222  0.12500000  0.09375000  1.0
  Ni  Ni172  1  0.09722222  0.45833333  0.09375000  1.0
  Ni  Ni173  1  0.09722222  0.79166667  0.09375000  1.0
  Ni  Ni174  1  0.43055556  0.12500000  0.09375000  1.0
  Ni  Ni175  1  0.43055556  0.45833333  0.09375000  1.0
  Ni  Ni176  1  0.43055556  0.79166667  0.09375000  1.0
  Ni  Ni177  1  0.76388889  0.12500000  0.09375000  1.0
  Ni  Ni178  1  0.76388889  0.45833333  0.09375000  1.0
  Ni  Ni179  1  0.76388889  0.79166667  0.09375000  1.0
  Ni  Ni180  1  0.23611111  0.20833333  0.11160714  1.0
  Ni  Ni181  1  0.23611111  0.54166667  0.11160714  1.0
  Ni  Ni182  1  0.23611111  0.87500000  0.11160714  1.0
  Ni  Ni183  1  0.56944444  0.20833333  0.11160714  1.0
  Ni  Ni184  1  0.56944444  0.54166667  0.11160714  1.0
  Ni  Ni185  1  0.56944444  0.87500000  0.11160714  1.0
  Ni  Ni186  1  0.90277778  0.20833333  0.11160714  1.0
  Ni  Ni187  1  0.90277778  0.54166667  0.11160714  1.0
  Ni  Ni188  1  0.90277778  0.87500000  0.11160714  1.0
  Ni  Ni189  1  0.06944444  0.04166667  0.07589286  1.0
  Ni  Ni190  1  0.06944444  0.37500000  0.07589286  1.0
  Ni  Ni191  1  0.06944444  0.70833333  0.07589286  1.0
  Ni  Ni192  1  0.40277778  0.04166667  0.07589286  1.0
  Ni  Ni193  1  0.40277778  0.37500000  0.07589286  1.0
  Ni  Ni194  1  0.40277778  0.70833333  0.07589286  1.0
  Ni  Ni195  1  0.73611111  0.04166667  0.07589286  1.0
  Ni  Ni196  1  0.73611111  0.37500000  0.07589286  1.0
  Ni  Ni197  1  0.73611111  0.70833333  0.07589286  1.0
  Ni  Ni198  1  0.16666667  0.16666667  0.10267857  1.0
  Ni  Ni199  1  0.16666667  0.50000000  0.10267857  1.0
  Ni  Ni200  1  0.16666667  0.83333333  0.10267857  1.0
  Ni  Ni201  1  0.50000000  0.16666667  0.10267857  1.0
  Ni  Ni202  1  0.50000000  0.50000000  0.10267857  1.0
  Ni  Ni203  1  0.50000000  0.83333333  0.10267857  1.0
  Ni  Ni204  1  0.83333333  0.16666667  0.10267857  1.0
  Ni  Ni205  1  0.83333333  0.50000000  0.10267857  1.0
  Ni  Ni206  1  0.83333333  0.83333333  0.10267857  1.0
  Ni  Ni207  1  0.00000000  0.00000000  0.13839286  1.0
  Ni  Ni208  1  0.00000000  0.33333333  0.13839286  1.0
  Ni  Ni209  1  0.00000000  0.66666667  0.13839286  1.0
  Ni  Ni210  1  0.33333333  0.00000000  0.13839286  1.0
  Ni  Ni211  1  0.33333333  0.33333333  0.13839286  1.0
  Ni  Ni212  1  0.33333333  0.66666667  0.13839286  1.0
  Ni  Ni213  1  0.66666667  0.00000000  0.13839286  1.0
  Ni  Ni214  1  0.66666667  0.33333333  0.13839286  1.0
  Ni  Ni215  1  0.66666667  0.66666667  0.13839286  1.0
  Ga  Ga216  1  0.15277778  0.29166667  0.20089286  1.0
  Ga  Ga217  1  0.15277778  0.62500000  0.20089286  1.0
  Ga  Ga218  1  0.15277778  0.95833333  0.20089286  1.0
  Ga  Ga219  1  0.48611111  0.29166667  0.20089286  1.0
  Ga  Ga220  1  0.48611111  0.62500000  0.20089286  1.0
  Ga  Ga221  1  0.48611111  0.95833333  0.20089286  1.0
  Ga  Ga222  1  0.81944444  0.29166667  0.20089286  1.0
  Ga  Ga223  1  0.81944444  0.62500000  0.20089286  1.0
  Ga  Ga224  1  0.81944444  0.95833333  0.20089286  1.0
  Ga  Ga225  1  0.31944444  0.12500000  0.16517857  1.0
  Ga  Ga226  1  0.31944444  0.45833333  0.16517857  1.0
  Ga  Ga227  1  0.31944444  0.79166667  0.16517857  1.0
  Ga  Ga228  1  0.65277778  0.12500000  0.16517857  1.0
  Ga  Ga229  1  0.65277778  0.45833333  0.16517857  1.0
  Ga  Ga230  1  0.65277778  0.79166667  0.16517857  1.0
  Ga  Ga231  1  0.98611111  0.12500000  0.16517857  1.0
  Ga  Ga232  1  0.98611111  0.45833333  0.16517857  1.0
  Ga  Ga233  1  0.98611111  0.79166667  0.16517857  1.0
  Ga  Ga234  1  0.01388889  0.20833333  0.18303571  1.0
  Ga  Ga235  1  0.01388889  0.54166667  0.18303571  1.0
  Ga  Ga236  1  0.01388889  0.87500000  0.18303571  1.0
  Ga  Ga237  1  0.34722222  0.20833333  0.18303571  1.0
  Ga  Ga238  1  0.34722222  0.54166667  0.18303571  1.0
  Ga  Ga239  1  0.34722222  0.87500000  0.18303571  1.0
  Ga  Ga240  1  0.68055556  0.20833333  0.18303571  1.0
  Ga  Ga241  1  0.68055556  0.54166667  0.18303571  1.0
  Ga  Ga242  1  0.68055556  0.87500000  0.18303571  1.0
  Ga  Ga243  1  0.18055556  0.04166667  0.14732143  1.0
  Ga  Ga244  1  0.18055556  0.37500000  0.14732143  1.0
  Ga  Ga245  1  0.18055556  0.70833333  0.14732143  1.0
  Ga  Ga246  1  0.51388889  0.04166667  0.14732143  1.0
  Ga  Ga247  1  0.51388889  0.37500000  0.14732143  1.0
  Ga  Ga248  1  0.51388889  0.70833333  0.14732143  1.0
  Ga  Ga249  1  0.84722222  0.04166667  0.14732143  1.0
  Ga  Ga250  1  0.84722222  0.37500000  0.14732143  1.0
  Ga  Ga251  1  0.84722222  0.70833333  0.14732143  1.0
  Ni  Ni252  1  0.08333333  0.25000000  0.19196429  1.0
  Ni  Ni253  1  0.08333333  0.58333333  0.19196429  1.0
  Ni  Ni254  1  0.08333333  0.91666667  0.19196429  1.0
  Ni  Ni255  1  0.41666667  0.25000000  0.19196429  1.0
  Ni  Ni256  1  0.41666667  0.58333333  0.19196429  1.0
  Ni  Ni257  1  0.41666667  0.91666667  0.19196429  1.0
  Ni  Ni258  1  0.75000000  0.25000000  0.19196429  1.0
  Ni  Ni259  1  0.75000000  0.58333333  0.19196429  1.0
  Ni  Ni260  1  0.75000000  0.91666667  0.19196429  1.0
  Ni  Ni261  1  0.25000000  0.08333333  0.15625000  1.0
  Ni  Ni262  1  0.25000000  0.41666667  0.15625000  1.0
  Ni  Ni263  1  0.25000000  0.75000000  0.15625000  1.0
  Ni  Ni264  1  0.58333333  0.08333333  0.15625000  1.0
  Ni  Ni265  1  0.58333333  0.41666667  0.15625000  1.0
  Ni  Ni266  1  0.58333333  0.75000000  0.15625000  1.0
  Ni  Ni267  1  0.91666667  0.08333333  0.15625000  1.0
  Ni  Ni268  1  0.91666667  0.41666667  0.15625000  1.0
  Ni  Ni269  1  0.91666667  0.75000000  0.15625000  1.0
  Ni  Ni270  1  0.26388889  0.29166667  0.20089286  1.0
  Ni  Ni271  1  0.26388889  0.62500000  0.20089286  1.0
  Ni  Ni272  1  0.26388889  0.95833333  0.20089286  1.0
  Ni  Ni273  1  0.59722222  0.29166667  0.20089286  1.0
  Ni  Ni274  1  0.59722222  0.62500000  0.20089286  1.0
  Ni  Ni275  1  0.59722222  0.95833333  0.20089286  1.0
  Ni  Ni276  1  0.93055556  0.29166667  0.20089286  1.0
  Ni  Ni277  1  0.93055556  0.62500000  0.20089286  1.0
  Ni  Ni278  1  0.93055556  0.95833333  0.20089286  1.0
  Ni  Ni279  1  0.09722222  0.12500000  0.16517857  1.0
  Ni  Ni280  1  0.09722222  0.45833333  0.16517857  1.0
  Ni  Ni281  1  0.09722222  0.79166667  0.16517857  1.0
  Ni  Ni282  1  0.43055556  0.12500000  0.16517857  1.0
  Ni  Ni283  1  0.43055556  0.45833333  0.16517857  1.0
  Ni  Ni284  1  0.43055556  0.79166667  0.16517857  1.0
  Ni  Ni285  1  0.76388889  0.12500000  0.16517857  1.0
  Ni  Ni286  1  0.76388889  0.45833333  0.16517857  1.0
  Ni  Ni287  1  0.76388889  0.79166667  0.16517857  1.0
  Ni  Ni288  1  0.23611111  0.20833333  0.18303571  1.0
  Ni  Ni289  1  0.23611111  0.54166667  0.18303571  1.0
  Ni  Ni290  1  0.23611111  0.87500000  0.18303571  1.0
  Ni  Ni291  1  0.56944444  0.20833333  0.18303571  1.0
  Ni  Ni292  1  0.56944444  0.54166667  0.18303571  1.0
  Ni  Ni293  1  0.56944444  0.87500000  0.18303571  1.0
  Ni  Ni294  1  0.90277778  0.20833333  0.18303571  1.0
  Ni  Ni295  1  0.90277778  0.54166667  0.18303571  1.0
  Ni  Ni296  1  0.90277778  0.87500000  0.18303571  1.0
  Ni  Ni297  1  0.06944444  0.04166667  0.14732143  1.0
  Ni  Ni298  1  0.06944444  0.37500000  0.14732143  1.0
  Ni  Ni299  1  0.06944444  0.70833333  0.14732143  1.0
  Ni  Ni300  1  0.40277778  0.04166667  0.14732143  1.0
  Ni  Ni301  1  0.40277778  0.37500000  0.14732143  1.0
  Ni  Ni302  1  0.40277778  0.70833333  0.14732143  1.0
  Ni  Ni303  1  0.73611111  0.04166667  0.14732143  1.0
  Ni  Ni304  1  0.73611111  0.37500000  0.14732143  1.0
  Ni  Ni305  1  0.73611111  0.70833333  0.14732143  1.0
  Ni  Ni306  1  0.16666667  0.16666667  0.17410714  1.0
  Ni  Ni307  1  0.16666667  0.50000000  0.17410714  1.0
  Ni  Ni308  1  0.16666667  0.83333333  0.17410714  1.0
  Ni  Ni309  1  0.50000000  0.16666667  0.17410714  1.0
  Ni  Ni310  1  0.50000000  0.50000000  0.17410714  1.0
  Ni  Ni311  1  0.50000000  0.83333333  0.17410714  1.0
  Ni  Ni312  1  0.83333333  0.16666667  0.17410714  1.0
  Ni  Ni313  1  0.83333333  0.50000000  0.17410714  1.0
  Ni  Ni314  1  0.83333333  0.83333333  0.17410714  1.0
  Ni  Ni315  1  0.00000000  0.00000000  0.20982143  1.0
  Ni  Ni316  1  0.00000000  0.33333333  0.20982143  1.0
  Ni  Ni317  1  0.00000000  0.66666667  0.20982143  1.0
  Ni  Ni318  1  0.33333333  0.00000000  0.20982143  1.0
  Ni  Ni319  1  0.33333333  0.33333333  0.20982143  1.0
  Ni  Ni320  1  0.33333333  0.66666667  0.20982143  1.0
  Ni  Ni321  1  0.66666667  0.00000000  0.20982143  1.0
  Ni  Ni322  1  0.66666667  0.33333333  0.20982143  1.0
  Ni  Ni323  1  0.66666667  0.66666667  0.20982143  1.0
  Ga  Ga324  1  0.15277778  0.29166667  0.27232143  1.0
  Ga  Ga325  1  0.15277778  0.62500000  0.27232143  1.0
  Ga  Ga326  1  0.15277778  0.95833333  0.27232143  1.0
  Ga  Ga327  1  0.48611111  0.29166667  0.27232143  1.0
  Ga  Ga328  1  0.48611111  0.62500000  0.27232143  1.0
  Ga  Ga329  1  0.48611111  0.95833333  0.27232143  1.0
  Ga  Ga330  1  0.81944444  0.29166667  0.27232143  1.0
  Ga  Ga331  1  0.81944444  0.62500000  0.27232143  1.0
  Ga  Ga332  1  0.81944444  0.95833333  0.27232143  1.0
  Ga  Ga333  1  0.31944444  0.12500000  0.23660714  1.0
  Ga  Ga334  1  0.31944444  0.45833333  0.23660714  1.0
  Ga  Ga335  1  0.31944444  0.79166667  0.23660714  1.0
  Ga  Ga336  1  0.65277778  0.12500000  0.23660714  1.0
  Ga  Ga337  1  0.65277778  0.45833333  0.23660714  1.0
  Ga  Ga338  1  0.65277778  0.79166667  0.23660714  1.0
  Ga  Ga339  1  0.98611111  0.12500000  0.23660714  1.0
  Ga  Ga340  1  0.98611111  0.45833333  0.23660714  1.0
  Ga  Ga341  1  0.98611111  0.79166667  0.23660714  1.0
  Ga  Ga342  1  0.01388889  0.20833333  0.25446429  1.0
  Ga  Ga343  1  0.01388889  0.54166667  0.25446429  1.0
  Ga  Ga344  1  0.01388889  0.87500000  0.25446429  1.0
  Ga  Ga345  1  0.34722222  0.20833333  0.25446429  1.0
  Ga  Ga346  1  0.34722222  0.54166667  0.25446429  1.0
  Ga  Ga347  1  0.34722222  0.87500000  0.25446429  1.0
  Ga  Ga348  1  0.68055556  0.20833333  0.25446429  1.0
  Ga  Ga349  1  0.68055556  0.54166667  0.25446429  1.0
  Ga  Ga350  1  0.68055556  0.87500000  0.25446429  1.0
  Ga  Ga351  1  0.18055556  0.04166667  0.21875000  1.0
  Ga  Ga352  1  0.18055556  0.37500000  0.21875000  1.0
  Ga  Ga353  1  0.18055556  0.70833333  0.21875000  1.0
  Ga  Ga354  1  0.51388889  0.04166667  0.21875000  1.0
  Ga  Ga355  1  0.51388889  0.37500000  0.21875000  1.0
  Ga  Ga356  1  0.51388889  0.70833333  0.21875000  1.0
  Ga  Ga357  1  0.84722222  0.04166667  0.21875000  1.0
  Ga  Ga358  1  0.84722222  0.37500000  0.21875000  1.0
  Ga  Ga359  1  0.84722222  0.70833333  0.21875000  1.0
  Ni  Ni360  1  0.08333333  0.25000000  0.26339286  1.0
  Ni  Ni361  1  0.08333333  0.58333333  0.26339286  1.0
  Ni  Ni362  1  0.08333333  0.91666667  0.26339286  1.0
  Ni  Ni363  1  0.41666667  0.25000000  0.26339286  1.0
  Ni  Ni364  1  0.41666667  0.58333333  0.26339286  1.0
  Ni  Ni365  1  0.41666667  0.91666667  0.26339286  1.0
  Ni  Ni366  1  0.75000000  0.25000000  0.26339286  1.0
  Ni  Ni367  1  0.75000000  0.58333333  0.26339286  1.0
  Ni  Ni368  1  0.75000000  0.91666667  0.26339286  1.0
  Ni  Ni369  1  0.25000000  0.08333333  0.22767857  1.0
  Ni  Ni370  1  0.25000000  0.41666667  0.22767857  1.0
  Ni  Ni371  1  0.25000000  0.75000000  0.22767857  1.0
  Ni  Ni372  1  0.58333333  0.08333333  0.22767857  1.0
  Ni  Ni373  1  0.58333333  0.41666667  0.22767857  1.0
  Ni  Ni374  1  0.58333333  0.75000000  0.22767857  1.0
  Ni  Ni375  1  0.91666667  0.08333333  0.22767857  1.0
  Ni  Ni376  1  0.91666667  0.41666667  0.22767857  1.0
  Ni  Ni377  1  0.91666667  0.75000000  0.22767857  1.0
  Ni  Ni378  1  0.26388889  0.29166667  0.27232143  1.0
  Ni  Ni379  1  0.26388889  0.62500000  0.27232143  1.0
  Ni  Ni380  1  0.26388889  0.95833333  0.27232143  1.0
  Ni  Ni381  1  0.59722222  0.29166667  0.27232143  1.0
  Ni  Ni382  1  0.59722222  0.62500000  0.27232143  1.0
  Ni  Ni383  1  0.59722222  0.95833333  0.27232143  1.0
  Ni  Ni384  1  0.93055556  0.29166667  0.27232143  1.0
  Ni  Ni385  1  0.93055556  0.62500000  0.27232143  1.0
  Ni  Ni386  1  0.93055556  0.95833333  0.27232143  1.0
  Ni  Ni387  1  0.09722222  0.12500000  0.23660714  1.0
  Ni  Ni388  1  0.09722222  0.45833333  0.23660714  1.0
  Ni  Ni389  1  0.09722222  0.79166667  0.23660714  1.0
  Ni  Ni390  1  0.43055556  0.12500000  0.23660714  1.0
  Ni  Ni391  1  0.43055556  0.45833333  0.23660714  1.0
  Ni  Ni392  1  0.43055556  0.79166667  0.23660714  1.0
  Ni  Ni393  1  0.76388889  0.12500000  0.23660714  1.0
  Ni  Ni394  1  0.76388889  0.45833333  0.23660714  1.0
  Ni  Ni395  1  0.76388889  0.79166667  0.23660714  1.0
  Ni  Ni396  1  0.23611111  0.20833333  0.25446429  1.0
  Ni  Ni397  1  0.23611111  0.54166667  0.25446429  1.0
  Ni  Ni398  1  0.23611111  0.87500000  0.25446429  1.0
  Ni  Ni399  1  0.56944444  0.20833333  0.25446429  1.0
  Ni  Ni400  1  0.56944444  0.54166667  0.25446429  1.0
  Ni  Ni401  1  0.56944444  0.87500000  0.25446429  1.0
  Ni  Ni402  1  0.90277778  0.20833333  0.25446429  1.0
  Ni  Ni403  1  0.90277778  0.54166667  0.25446429  1.0
  Ni  Ni404  1  0.90277778  0.87500000  0.25446429  1.0
  Ni  Ni405  1  0.06944444  0.04166667  0.21875000  1.0
  Ni  Ni406  1  0.06944444  0.37500000  0.21875000  1.0
  Ni  Ni407  1  0.06944444  0.70833333  0.21875000  1.0
  Ni  Ni408  1  0.40277778  0.04166667  0.21875000  1.0
  Ni  Ni409  1  0.40277778  0.37500000  0.21875000  1.0
  Ni  Ni410  1  0.40277778  0.70833333  0.21875000  1.0
  Ni  Ni411  1  0.73611111  0.04166667  0.21875000  1.0
  Ni  Ni412  1  0.73611111  0.37500000  0.21875000  1.0
  Ni  Ni413  1  0.73611111  0.70833333  0.21875000  1.0
  Ni  Ni414  1  0.16666667  0.16666667  0.24553571  1.0
  Ni  Ni415  1  0.16666667  0.50000000  0.24553571  1.0
  Ni  Ni416  1  0.16666667  0.83333333  0.24553571  1.0
  Ni  Ni417  1  0.50000000  0.16666667  0.24553571  1.0
  Ni  Ni418  1  0.50000000  0.50000000  0.24553571  1.0
  Ni  Ni419  1  0.50000000  0.83333333  0.24553571  1.0
  Ni  Ni420  1  0.83333333  0.16666667  0.24553571  1.0
  Ni  Ni421  1  0.83333333  0.50000000  0.24553571  1.0
  Ni  Ni422  1  0.83333333  0.83333333  0.24553571  1.0
  Ni  Ni423  1  0.00000000  0.00000000  0.28125000  1.0
  Ni  Ni424  1  0.00000000  0.33333333  0.28125000  1.0
  Ni  Ni425  1  0.00000000  0.66666667  0.28125000  1.0
  Ni  Ni426  1  0.33333333  0.00000000  0.28125000  1.0
  Ni  Ni427  1  0.33333333  0.33333333  0.28125000  1.0
  Ni  Ni428  1  0.33333333  0.66666667  0.28125000  1.0
  Ni  Ni429  1  0.66666667  0.00000000  0.28125000  1.0
  Ni  Ni430  1  0.66666667  0.33333333  0.28125000  1.0
  Ni  Ni431  1  0.66666667  0.66666667  0.28125000  1.0
  Ga  Ga432  1  0.15277778  0.29166667  0.34375000  1.0
  Ga  Ga433  1  0.15277778  0.62500000  0.34375000  1.0
  Ga  Ga434  1  0.15277778  0.95833333  0.34375000  1.0
  Ga  Ga435  1  0.48611111  0.29166667  0.34375000  1.0
  Ga  Ga436  1  0.48611111  0.62500000  0.34375000  1.0
  Ga  Ga437  1  0.48611111  0.95833333  0.34375000  1.0
  Ga  Ga438  1  0.81944444  0.29166667  0.34375000  1.0
  Ga  Ga439  1  0.81944444  0.62500000  0.34375000  1.0
  Ga  Ga440  1  0.81944444  0.95833333  0.34375000  1.0
  Ga  Ga441  1  0.31944444  0.12500000  0.30803571  1.0
  Ga  Ga442  1  0.31944444  0.45833333  0.30803571  1.0
  Ga  Ga443  1  0.31944444  0.79166667  0.30803571  1.0
  Ga  Ga444  1  0.65277778  0.12500000  0.30803571  1.0
  Ga  Ga445  1  0.65277778  0.45833333  0.30803571  1.0
  Ga  Ga446  1  0.65277778  0.79166667  0.30803571  1.0
  Ga  Ga447  1  0.98611111  0.12500000  0.30803571  1.0
  Ga  Ga448  1  0.98611111  0.45833333  0.30803571  1.0
  Ga  Ga449  1  0.98611111  0.79166667  0.30803571  1.0
  Ga  Ga450  1  0.01388889  0.20833333  0.32589286  1.0
  Ga  Ga451  1  0.01388889  0.54166667  0.32589286  1.0
  Ga  Ga452  1  0.01388889  0.87500000  0.32589286  1.0
  Ga  Ga453  1  0.34722222  0.20833333  0.32589286  1.0
  Ga  Ga454  1  0.34722222  0.54166667  0.32589286  1.0
  Ga  Ga455  1  0.34722222  0.87500000  0.32589286  1.0
  Ga  Ga456  1  0.68055556  0.20833333  0.32589286  1.0
  Ga  Ga457  1  0.68055556  0.54166667  0.32589286  1.0
  Ga  Ga458  1  0.68055556  0.87500000  0.32589286  1.0
  Ga  Ga459  1  0.18055556  0.04166667  0.29017857  1.0
  Ga  Ga460  1  0.18055556  0.37500000  0.29017857  1.0
  Ga  Ga461  1  0.18055556  0.70833333  0.29017857  1.0
  Ga  Ga462  1  0.51388889  0.04166667  0.29017857  1.0
  Ga  Ga463  1  0.51388889  0.37500000  0.29017857  1.0
  Ga  Ga464  1  0.51388889  0.70833333  0.29017857  1.0
  Ga  Ga465  1  0.84722222  0.04166667  0.29017857  1.0
  Ga  Ga466  1  0.84722222  0.37500000  0.29017857  1.0
  Ga  Ga467  1  0.84722222  0.70833333  0.29017857  1.0
  Ni  Ni468  1  0.08333333  0.25000000  0.33482143  1.0
  Ni  Ni469  1  0.08333333  0.58333333  0.33482143  1.0
  Ni  Ni470  1  0.08333333  0.91666667  0.33482143  1.0
  Ni  Ni471  1  0.41666667  0.25000000  0.33482143  1.0
  Ni  Ni472  1  0.41666667  0.58333333  0.33482143  1.0
  Ni  Ni473  1  0.41666667  0.91666667  0.33482143  1.0
  Ni  Ni474  1  0.75000000  0.25000000  0.33482143  1.0
  Ni  Ni475  1  0.75000000  0.58333333  0.33482143  1.0
  Ni  Ni476  1  0.75000000  0.91666667  0.33482143  1.0
  Ni  Ni477  1  0.25000000  0.08333333  0.29910714  1.0
  Ni  Ni478  1  0.25000000  0.41666667  0.29910714  1.0
  Ni  Ni479  1  0.25000000  0.75000000  0.29910714  1.0
  Ni  Ni480  1  0.58333333  0.08333333  0.29910714  1.0
  Ni  Ni481  1  0.58333333  0.41666667  0.29910714  1.0
  Ni  Ni482  1  0.58333333  0.75000000  0.29910714  1.0
  Ni  Ni483  1  0.91666667  0.08333333  0.29910714  1.0
  Ni  Ni484  1  0.91666667  0.41666667  0.29910714  1.0
  Ni  Ni485  1  0.91666667  0.75000000  0.29910714  1.0
  Ni  Ni486  1  0.26388889  0.29166667  0.34375000  1.0
  Ni  Ni487  1  0.26388889  0.62500000  0.34375000  1.0
  Ni  Ni488  1  0.26388889  0.95833333  0.34375000  1.0
  Ni  Ni489  1  0.59722222  0.29166667  0.34375000  1.0
  Ni  Ni490  1  0.59722222  0.62500000  0.34375000  1.0
  Ni  Ni491  1  0.59722222  0.95833333  0.34375000  1.0
  Ni  Ni492  1  0.93055556  0.29166667  0.34375000  1.0
  Ni  Ni493  1  0.93055556  0.62500000  0.34375000  1.0
  Ni  Ni494  1  0.93055556  0.95833333  0.34375000  1.0
  Ni  Ni495  1  0.09722222  0.12500000  0.30803571  1.0
  Ni  Ni496  1  0.09722222  0.45833333  0.30803571  1.0
  Ni  Ni497  1  0.09722222  0.79166667  0.30803571  1.0
  Ni  Ni498  1  0.43055556  0.12500000  0.30803571  1.0
  Ni  Ni499  1  0.43055556  0.45833333  0.30803571  1.0
  Ni  Ni500  1  0.43055556  0.79166667  0.30803571  1.0
  Ni  Ni501  1  0.76388889  0.12500000  0.30803571  1.0
  Ni  Ni502  1  0.76388889  0.45833333  0.30803571  1.0
  Ni  Ni503  1  0.76388889  0.79166667  0.30803571  1.0
  Ni  Ni504  1  0.23611111  0.20833333  0.32589286  1.0
  Ni  Ni505  1  0.23611111  0.54166667  0.32589286  1.0
  Ni  Ni506  1  0.23611111  0.87500000  0.32589286  1.0
  Ni  Ni507  1  0.56944444  0.20833333  0.32589286  1.0
  Ni  Ni508  1  0.56944444  0.54166667  0.32589286  1.0
  Ni  Ni509  1  0.56944444  0.87500000  0.32589286  1.0
  Ni  Ni510  1  0.90277778  0.20833333  0.32589286  1.0
  Ni  Ni511  1  0.90277778  0.54166667  0.32589286  1.0
  Ni  Ni512  1  0.90277778  0.87500000  0.32589286  1.0
  Ni  Ni513  1  0.06944444  0.04166667  0.29017857  1.0
  Ni  Ni514  1  0.06944444  0.37500000  0.29017857  1.0
  Ni  Ni515  1  0.06944444  0.70833333  0.29017857  1.0
  Ni  Ni516  1  0.40277778  0.04166667  0.29017857  1.0
  Ni  Ni517  1  0.40277778  0.37500000  0.29017857  1.0
  Ni  Ni518  1  0.40277778  0.70833333  0.29017857  1.0
  Ni  Ni519  1  0.73611111  0.04166667  0.29017857  1.0
  Ni  Ni520  1  0.73611111  0.37500000  0.29017857  1.0
  Ni  Ni521  1  0.73611111  0.70833333  0.29017857  1.0
  Ni  Ni522  1  0.16666667  0.16666667  0.31696429  1.0
  Ni  Ni523  1  0.16666667  0.50000000  0.31696429  1.0
  Ni  Ni524  1  0.16666667  0.83333333  0.31696429  1.0
  Ni  Ni525  1  0.50000000  0.16666667  0.31696429  1.0
  Ni  Ni526  1  0.50000000  0.50000000  0.31696429  1.0
  Ni  Ni527  1  0.50000000  0.83333333  0.31696429  1.0
  Ni  Ni528  1  0.83333333  0.16666667  0.31696429  1.0
  Ni  Ni529  1  0.83333333  0.50000000  0.31696429  1.0
  Ni  Ni530  1  0.83333333  0.83333333  0.31696429  1.0
  Ni  Ni531  1  0.00000000  0.00000000  0.35267857  1.0
  Ni  Ni532  1  0.00000000  0.33333333  0.35267857  1.0
  Ni  Ni533  1  0.00000000  0.66666667  0.35267857  1.0
  Ni  Ni534  1  0.33333333  0.00000000  0.35267857  1.0
  Ni  Ni535  1  0.33333333  0.33333333  0.35267857  1.0
  Ni  Ni536  1  0.33333333  0.66666667  0.35267857  1.0
  Ni  Ni537  1  0.66666667  0.00000000  0.35267857  1.0
  Ni  Ni538  1  0.66666667  0.33333333  0.35267857  1.0
  Ni  Ni539  1  0.66666667  0.66666667  0.35267857  1.0
  Ga  Ga540  1  0.15277778  0.29166667  0.41517857  1.0
  Ga  Ga541  1  0.15277778  0.62500000  0.41517857  1.0
  Ga  Ga542  1  0.15277778  0.95833333  0.41517857  1.0
  Ga  Ga543  1  0.48611111  0.29166667  0.41517857  1.0
  Ga  Ga544  1  0.48611111  0.62500000  0.41517857  1.0
  Ga  Ga545  1  0.48611111  0.95833333  0.41517857  1.0
  Ga  Ga546  1  0.81944444  0.29166667  0.41517857  1.0
  Ga  Ga547  1  0.81944444  0.62500000  0.41517857  1.0
  Ga  Ga548  1  0.81944444  0.95833333  0.41517857  1.0
  Ga  Ga549  1  0.31944444  0.12500000  0.37946429  1.0
  Ga  Ga550  1  0.31944444  0.45833333  0.37946429  1.0
  Ga  Ga551  1  0.31944444  0.79166667  0.37946429  1.0
  Ga  Ga552  1  0.65277778  0.12500000  0.37946429  1.0
  Ga  Ga553  1  0.65277778  0.45833333  0.37946429  1.0
  Ga  Ga554  1  0.65277778  0.79166667  0.37946429  1.0
  Ga  Ga555  1  0.98611111  0.12500000  0.37946429  1.0
  Ga  Ga556  1  0.98611111  0.45833333  0.37946429  1.0
  Ga  Ga557  1  0.98611111  0.79166667  0.37946429  1.0
  Ga  Ga558  1  0.01388889  0.20833333  0.39732143  1.0
  Ga  Ga559  1  0.01388889  0.54166667  0.39732143  1.0
  Ga  Ga560  1  0.01388889  0.87500000  0.39732143  1.0
  Ga  Ga561  1  0.34722222  0.20833333  0.39732143  1.0
  Ga  Ga562  1  0.34722222  0.54166667  0.39732143  1.0
  Ga  Ga563  1  0.34722222  0.87500000  0.39732143  1.0
  Ga  Ga564  1  0.68055556  0.20833333  0.39732143  1.0
  Ga  Ga565  1  0.68055556  0.54166667  0.39732143  1.0
  Ga  Ga566  1  0.68055556  0.87500000  0.39732143  1.0
  Ga  Ga567  1  0.18055556  0.04166667  0.36160714  1.0
  Ga  Ga568  1  0.18055556  0.37500000  0.36160714  1.0
  Ga  Ga569  1  0.18055556  0.70833333  0.36160714  1.0
  Ga  Ga570  1  0.51388889  0.04166667  0.36160714  1.0
  Ga  Ga571  1  0.51388889  0.37500000  0.36160714  1.0
  Ga  Ga572  1  0.51388889  0.70833333  0.36160714  1.0
  Ga  Ga573  1  0.84722222  0.04166667  0.36160714  1.0
  Ga  Ga574  1  0.84722222  0.37500000  0.36160714  1.0
  Ga  Ga575  1  0.84722222  0.70833333  0.36160714  1.0
  Ni  Ni576  1  0.08333333  0.25000000  0.40625000  1.0
  Ni  Ni577  1  0.08333333  0.58333333  0.40625000  1.0
  Ni  Ni578  1  0.08333333  0.91666667  0.40625000  1.0
  Ni  Ni579  1  0.41666667  0.25000000  0.40625000  1.0
  Ni  Ni580  1  0.41666667  0.58333333  0.40625000  1.0
  Ni  Ni581  1  0.41666667  0.91666667  0.40625000  1.0
  Ni  Ni582  1  0.75000000  0.25000000  0.40625000  1.0
  Ni  Ni583  1  0.75000000  0.58333333  0.40625000  1.0
  Ni  Ni584  1  0.75000000  0.91666667  0.40625000  1.0
  Ni  Ni585  1  0.25000000  0.08333333  0.37053571  1.0
  Ni  Ni586  1  0.25000000  0.41666667  0.37053571  1.0
  Ni  Ni587  1  0.25000000  0.75000000  0.37053571  1.0
  Ni  Ni588  1  0.58333333  0.08333333  0.37053571  1.0
  Ni  Ni589  1  0.58333333  0.41666667  0.37053571  1.0
  Ni  Ni590  1  0.58333333  0.75000000  0.37053571  1.0
  Ni  Ni591  1  0.91666667  0.08333333  0.37053571  1.0
  Ni  Ni592  1  0.91666667  0.41666667  0.37053571  1.0
  Ni  Ni593  1  0.91666667  0.75000000  0.37053571  1.0
  Ni  Ni594  1  0.26388889  0.29166667  0.41517857  1.0
  Ni  Ni595  1  0.26388889  0.62500000  0.41517857  1.0
  Ni  Ni596  1  0.26388889  0.95833333  0.41517857  1.0
  Ni  Ni597  1  0.59722222  0.29166667  0.41517857  1.0
  Ni  Ni598  1  0.59722222  0.62500000  0.41517857  1.0
  Ni  Ni599  1  0.59722222  0.95833333  0.41517857  1.0
  Ni  Ni600  1  0.93055556  0.29166667  0.41517857  1.0
  Ni  Ni601  1  0.93055556  0.62500000  0.41517857  1.0
  Ni  Ni602  1  0.93055556  0.95833333  0.41517857  1.0
  Ni  Ni603  1  0.09722222  0.12500000  0.37946429  1.0
  Ni  Ni604  1  0.09722222  0.45833333  0.37946429  1.0
  Ni  Ni605  1  0.09722222  0.79166667  0.37946429  1.0
  Ni  Ni606  1  0.43055556  0.12500000  0.37946429  1.0
  Ni  Ni607  1  0.43055556  0.45833333  0.37946429  1.0
  Ni  Ni608  1  0.43055556  0.79166667  0.37946429  1.0
  Ni  Ni609  1  0.76388889  0.12500000  0.37946429  1.0
  Ni  Ni610  1  0.76388889  0.45833333  0.37946429  1.0
  Ni  Ni611  1  0.76388889  0.79166667  0.37946429  1.0
  Ni  Ni612  1  0.23611111  0.20833333  0.39732143  1.0
  Ni  Ni613  1  0.23611111  0.54166667  0.39732143  1.0
  Ni  Ni614  1  0.23611111  0.87500000  0.39732143  1.0
  Ni  Ni615  1  0.56944444  0.20833333  0.39732143  1.0
  Ni  Ni616  1  0.56944444  0.54166667  0.39732143  1.0
  Ni  Ni617  1  0.56944444  0.87500000  0.39732143  1.0
  Ni  Ni618  1  0.90277778  0.20833333  0.39732143  1.0
  Ni  Ni619  1  0.90277778  0.54166667  0.39732143  1.0
  Ni  Ni620  1  0.90277778  0.87500000  0.39732143  1.0
  Ni  Ni621  1  0.06944444  0.04166667  0.36160714  1.0
  Ni  Ni622  1  0.06944444  0.37500000  0.36160714  1.0
  Ni  Ni623  1  0.06944444  0.70833333  0.36160714  1.0
  Ni  Ni624  1  0.40277778  0.04166667  0.36160714  1.0
  Ni  Ni625  1  0.40277778  0.37500000  0.36160714  1.0
  Ni  Ni626  1  0.40277778  0.70833333  0.36160714  1.0
  Ni  Ni627  1  0.73611111  0.04166667  0.36160714  1.0
  Ni  Ni628  1  0.73611111  0.37500000  0.36160714  1.0
  Ni  Ni629  1  0.73611111  0.70833333  0.36160714  1.0
  Ni  Ni630  1  0.16666667  0.16666667  0.38839286  1.0
  Ni  Ni631  1  0.16666667  0.50000000  0.38839286  1.0
  Ni  Ni632  1  0.16666667  0.83333333  0.38839286  1.0
  Ni  Ni633  1  0.50000000  0.16666667  0.38839286  1.0
  Ni  Ni634  1  0.50000000  0.50000000  0.38839286  1.0
  Ni  Ni635  1  0.50000000  0.83333333  0.38839286  1.0
  Ni  Ni636  1  0.83333333  0.16666667  0.38839286  1.0
  Ni  Ni637  1  0.83333333  0.50000000  0.38839286  1.0
  Ni  Ni638  1  0.83333333  0.83333333  0.38839286  1.0
  Ni  Ni639  1  0.00000000  0.00000000  0.42410714  1.0
  Ni  Ni640  1  0.00000000  0.33333333  0.42410714  1.0
  Ni  Ni641  1  0.00000000  0.66666667  0.42410714  1.0
  Ni  Ni642  1  0.33333333  0.00000000  0.42410714  1.0
  Ni  Ni643  1  0.33333333  0.33333333  0.42410714  1.0
  Ni  Ni644  1  0.33333333  0.66666667  0.42410714  1.0
  Ni  Ni645  1  0.66666667  0.00000000  0.42410714  1.0
  Ni  Ni646  1  0.66666667  0.33333333  0.42410714  1.0
  Ni  Ni647  1  0.66666667  0.66666667  0.42410714  1.0
