# generated using pymatgen
data_GaNi2
_symmetry_space_group_name_H-M   'P 1'
_cell_length_a   19.30760595
_cell_length_b   21.47378357
_cell_length_c   26.46068956
_cell_angle_alpha   95.54406973
_cell_angle_beta   91.62299694
_cell_angle_gamma   113.40398834
_symmetry_Int_Tables_number   1
_chemical_formula_structural   GaNi2
_chemical_formula_sum   'Ga108 Ni216'
_cell_volume   9994.34786152
_cell_formula_units_Z   108
loop_
 _symmetry_equiv_pos_site_id
 _symmetry_equiv_pos_as_xyz
  1  'x, y, z'
loop_
 _atom_site_type_symbol
 _atom_site_label
 _atom_site_symmetry_multiplicity
 _atom_site_fract_x
 _atom_site_fract_y
 _atom_site_fract_z
 _atom_site_occupancy
  Ga  Ga0  1  0.31297423  0.23153782  0.93892269  1.0
  Ga  Ga1  1  0.31297423  0.56487116  0.93892269  1.0
  Ga  Ga2  1  0.31297423  0.89820449  0.93892269  1.0
  Ga  Ga3  1  0.64630756  0.23153782  0.93892269  1.0
  Ga  Ga4  1  0.64630756  0.56487116  0.93892269  1.0
  Ga  Ga5  1  0.64630756  0.89820449  0.93892269  1.0
  Ga  Ga6  1  0.97964090  0.23153782  0.93892269  1.0
  Ga  Ga7  1  0.97964090  0.56487116  0.93892269  1.0
  Ga  Ga8  1  0.97964090  0.89820449  0.93892269  1.0
  Ga  Ga9  1  0.32408534  0.12042671  0.97225603  1.0
  Ga  Ga10  1  0.32408534  0.45376005  0.97225603  1.0
  Ga  Ga11  1  0.32408534  0.78709338  0.97225603  1.0
  Ga  Ga12  1  0.65741868  0.12042671  0.97225603  1.0
  Ga  Ga13  1  0.65741868  0.45376005  0.97225603  1.0
  Ga  Ga14  1  0.65741868  0.78709338  0.97225603  1.0
  Ga  Ga15  1  0.99075201  0.12042671  0.97225603  1.0
  Ga  Ga16  1  0.99075201  0.45376005  0.97225603  1.0
  Ga  Ga17  1  0.99075201  0.78709338  0.97225603  1.0
  Ga  Ga18  1  0.29075201  0.12042671  0.87225603  1.0
  Ga  Ga19  1  0.29075201  0.45376005  0.87225603  1.0
  Ga  Ga20  1  0.29075201  0.78709338  0.87225603  1.0
  Ga  Ga21  1  0.62408534  0.12042671  0.87225603  1.0
  Ga  Ga22  1  0.62408534  0.45376005  0.87225603  1.0
  Ga  Ga23  1  0.62408534  0.78709338  0.87225603  1.0
  Ga  Ga24  1  0.95741868  0.12042671  0.87225603  1.0
  Ga  Ga25  1  0.95741868  0.45376005  0.87225603  1.0
  Ga  Ga26  1  0.95741868  0.78709338  0.87225603  1.0
  Ga  Ga27  1  0.30186312  0.00931560  0.90558936  1.0
  Ga  Ga28  1  0.30186312  0.34264894  0.90558936  1.0
  Ga  Ga29  1  0.30186312  0.67598227  0.90558936  1.0
  Ga  Ga30  1  0.63519645  0.00931560  0.90558936  1.0
  Ga  Ga31  1  0.63519645  0.34264894  0.90558936  1.0
  Ga  Ga32  1  0.63519645  0.67598227  0.90558936  1.0
  Ga  Ga33  1  0.96852979  0.00931560  0.90558936  1.0
  Ga  Ga34  1  0.96852979  0.34264894  0.90558936  1.0
  Ga  Ga35  1  0.96852979  0.67598227  0.90558936  1.0
  Ga  Ga36  1  0.26852979  0.00931560  0.80558936  1.0
  Ga  Ga37  1  0.26852979  0.34264894  0.80558936  1.0
  Ga  Ga38  1  0.26852979  0.67598227  0.80558936  1.0
  Ga  Ga39  1  0.60186312  0.00931560  0.80558936  1.0
  Ga  Ga40  1  0.60186312  0.34264894  0.80558936  1.0
  Ga  Ga41  1  0.60186312  0.67598227  0.80558936  1.0
  Ga  Ga42  1  0.93519645  0.00931560  0.80558936  1.0
  Ga  Ga43  1  0.93519645  0.34264894  0.80558936  1.0
  Ga  Ga44  1  0.93519645  0.67598227  0.80558936  1.0
  Ga  Ga45  1  0.27964090  0.23153782  0.83892269  1.0
  Ga  Ga46  1  0.27964090  0.56487116  0.83892269  1.0
  Ga  Ga47  1  0.27964090  0.89820449  0.83892269  1.0
  Ga  Ga48  1  0.61297423  0.23153782  0.83892269  1.0
  Ga  Ga49  1  0.61297423  0.56487116  0.83892269  1.0
  Ga  Ga50  1  0.61297423  0.89820449  0.83892269  1.0
  Ga  Ga51  1  0.94630756  0.23153782  0.83892269  1.0
  Ga  Ga52  1  0.94630756  0.56487116  0.83892269  1.0
  Ga  Ga53  1  0.94630756  0.89820449  0.83892269  1.0
  Ga  Ga54  1  0.24630756  0.23153782  0.73892269  1.0
  Ga  Ga55  1  0.24630756  0.56487116  0.73892269  1.0
  Ga  Ga56  1  0.24630756  0.89820449  0.73892269  1.0
  Ga  Ga57  1  0.57964090  0.23153782  0.73892269  1.0
  Ga  Ga58  1  0.57964090  0.56487116  0.73892269  1.0
  Ga  Ga59  1  0.57964090  0.89820449  0.73892269  1.0
  Ga  Ga60  1  0.91297423  0.23153782  0.73892269  1.0
  Ga  Ga61  1  0.91297423  0.56487116  0.73892269  1.0
  Ga  Ga62  1  0.91297423  0.89820449  0.73892269  1.0
  Ga  Ga63  1  0.25741868  0.12042671  0.77225603  1.0
  Ga  Ga64  1  0.25741868  0.45376005  0.77225603  1.0
  Ga  Ga65  1  0.25741868  0.78709338  0.77225603  1.0
  Ga  Ga66  1  0.59075201  0.12042671  0.77225603  1.0
  Ga  Ga67  1  0.59075201  0.45376005  0.77225603  1.0
  Ga  Ga68  1  0.59075201  0.78709338  0.77225603  1.0
  Ga  Ga69  1  0.92408534  0.12042671  0.77225603  1.0
  Ga  Ga70  1  0.92408534  0.45376005  0.77225603  1.0
  Ga  Ga71  1  0.92408534  0.78709338  0.77225603  1.0
  Ga  Ga72  1  0.22408534  0.12042671  0.67225603  1.0
  Ga  Ga73  1  0.22408534  0.45376005  0.67225603  1.0
  Ga  Ga74  1  0.22408534  0.78709338  0.67225603  1.0
  Ga  Ga75  1  0.55741868  0.12042671  0.67225603  1.0
  Ga  Ga76  1  0.55741868  0.45376005  0.67225603  1.0
  Ga  Ga77  1  0.55741868  0.78709338  0.67225603  1.0
  Ga  Ga78  1  0.89075201  0.12042671  0.67225603  1.0
  Ga  Ga79  1  0.89075201  0.45376005  0.67225603  1.0
  Ga  Ga80  1  0.89075201  0.78709338  0.67225603  1.0
  Ga  Ga81  1  0.23519645  0.00931560  0.70558936  1.0
  Ga  Ga82  1  0.23519645  0.34264894  0.70558936  1.0
  Ga  Ga83  1  0.23519645  0.67598227  0.70558936  1.0
  Ga  Ga84  1  0.56852979  0.00931560  0.70558936  1.0
  Ga  Ga85  1  0.56852979  0.34264894  0.70558936  1.0
  Ga  Ga86  1  0.56852979  0.67598227  0.70558936  1.0
  Ga  Ga87  1  0.90186312  0.00931560  0.70558936  1.0
  Ga  Ga88  1  0.90186312  0.34264894  0.70558936  1.0
  Ga  Ga89  1  0.90186312  0.67598227  0.70558936  1.0
  Ga  Ga90  1  0.20186312  0.00931560  0.60558936  1.0
  Ga  Ga91  1  0.20186312  0.34264894  0.60558936  1.0
  Ga  Ga92  1  0.20186312  0.67598227  0.60558936  1.0
  Ga  Ga93  1  0.53519645  0.00931560  0.60558936  1.0
  Ga  Ga94  1  0.53519645  0.34264894  0.60558936  1.0
  Ga  Ga95  1  0.53519645  0.67598227  0.60558936  1.0
  Ga  Ga96  1  0.86852979  0.00931560  0.60558936  1.0
  Ga  Ga97  1  0.86852979  0.34264894  0.60558936  1.0
  Ga  Ga98  1  0.86852979  0.67598227  0.60558936  1.0
  Ga  Ga99  1  0.21297423  0.23153782  0.63892269  1.0
  Ga  Ga100  1  0.21297423  0.56487116  0.63892269  1.0
  Ga  Ga101  1  0.21297423  0.89820449  0.63892269  1.0
  Ga  Ga102  1  0.54630756  0.23153782  0.63892269  1.0
  Ga  Ga103  1  0.54630756  0.56487116  0.63892269  1.0
  Ga  Ga104  1  0.54630756  0.89820449  0.63892269  1.0
  Ga  Ga105  1  0.87964090  0.23153782  0.63892269  1.0
  Ga  Ga106  1  0.87964090  0.56487116  0.63892269  1.0
  Ga  Ga107  1  0.87964090  0.89820449  0.63892269  1.0
  Ni  Ni108  1  0.22103521  0.15768912  0.99441064  1.0
  Ni  Ni109  1  0.22103521  0.49102245  0.99441064  1.0
  Ni  Ni110  1  0.22103521  0.82435579  0.99441064  1.0
  Ni  Ni111  1  0.55436855  0.15768912  0.99441064  1.0
  Ni  Ni112  1  0.55436855  0.49102245  0.99441064  1.0
  Ni  Ni113  1  0.55436855  0.82435579  0.99441064  1.0
  Ni  Ni114  1  0.88770188  0.15768912  0.99441064  1.0
  Ni  Ni115  1  0.88770188  0.49102245  0.99441064  1.0
  Ni  Ni116  1  0.88770188  0.82435579  0.99441064  1.0
  Ni  Ni117  1  0.20992410  0.26880023  0.96107731  1.0
  Ni  Ni118  1  0.20992410  0.60213356  0.96107731  1.0
  Ni  Ni119  1  0.20992410  0.93546690  0.96107731  1.0
  Ni  Ni120  1  0.54325744  0.26880023  0.96107731  1.0
  Ni  Ni121  1  0.54325744  0.60213356  0.96107731  1.0
  Ni  Ni122  1  0.54325744  0.93546690  0.96107731  1.0
  Ni  Ni123  1  0.87659077  0.26880023  0.96107731  1.0
  Ni  Ni124  1  0.87659077  0.60213356  0.96107731  1.0
  Ni  Ni125  1  0.87659077  0.93546690  0.96107731  1.0
  Ni  Ni126  1  0.09380214  0.08316431  0.95010142  1.0
  Ni  Ni127  1  0.09380214  0.41649764  0.95010142  1.0
  Ni  Ni128  1  0.09380214  0.74983097  0.95010142  1.0
  Ni  Ni129  1  0.42713547  0.08316431  0.95010142  1.0
  Ni  Ni130  1  0.42713547  0.41649764  0.95010142  1.0
  Ni  Ni131  1  0.42713547  0.74983097  0.95010142  1.0
  Ni  Ni132  1  0.76046881  0.08316431  0.95010142  1.0
  Ni  Ni133  1  0.76046881  0.41649764  0.95010142  1.0
  Ni  Ni134  1  0.76046881  0.74983097  0.95010142  1.0
  Ni  Ni135  1  0.10491325  0.30538653  0.98343475  1.0
  Ni  Ni136  1  0.10491325  0.63871986  0.98343475  1.0
  Ni  Ni137  1  0.10491325  0.97205319  0.98343475  1.0
  Ni  Ni138  1  0.43824658  0.30538653  0.98343475  1.0
  Ni  Ni139  1  0.43824658  0.63871986  0.98343475  1.0
  Ni  Ni140  1  0.43824658  0.97205319  0.98343475  1.0
  Ni  Ni141  1  0.77157992  0.30538653  0.98343475  1.0
  Ni  Ni142  1  0.77157992  0.63871986  0.98343475  1.0
  Ni  Ni143  1  0.77157992  0.97205319  0.98343475  1.0
  Ni  Ni144  1  0.19881299  0.04657801  0.92774397  1.0
  Ni  Ni145  1  0.19881299  0.37991134  0.92774397  1.0
  Ni  Ni146  1  0.19881299  0.71324468  0.92774397  1.0
  Ni  Ni147  1  0.53214632  0.04657801  0.92774397  1.0
  Ni  Ni148  1  0.53214632  0.37991134  0.92774397  1.0
  Ni  Ni149  1  0.53214632  0.71324468  0.92774397  1.0
  Ni  Ni150  1  0.86547966  0.04657801  0.92774397  1.0
  Ni  Ni151  1  0.86547966  0.37991134  0.92774397  1.0
  Ni  Ni152  1  0.86547966  0.71324468  0.92774397  1.0
  Ni  Ni153  1  0.18770188  0.15768912  0.89441064  1.0
  Ni  Ni154  1  0.18770188  0.49102245  0.89441064  1.0
  Ni  Ni155  1  0.18770188  0.82435579  0.89441064  1.0
  Ni  Ni156  1  0.52103521  0.15768912  0.89441064  1.0
  Ni  Ni157  1  0.52103521  0.49102245  0.89441064  1.0
  Ni  Ni158  1  0.52103521  0.82435579  0.89441064  1.0
  Ni  Ni159  1  0.85436855  0.15768912  0.89441064  1.0
  Ni  Ni160  1  0.85436855  0.49102245  0.89441064  1.0
  Ni  Ni161  1  0.85436855  0.82435579  0.89441064  1.0
  Ni  Ni162  1  0.07157992  0.30538653  0.88343475  1.0
  Ni  Ni163  1  0.07157992  0.63871986  0.88343475  1.0
  Ni  Ni164  1  0.07157992  0.97205319  0.88343475  1.0
  Ni  Ni165  1  0.40491325  0.30538653  0.88343475  1.0
  Ni  Ni166  1  0.40491325  0.63871986  0.88343475  1.0
  Ni  Ni167  1  0.40491325  0.97205319  0.88343475  1.0
  Ni  Ni168  1  0.73824658  0.30538653  0.88343475  1.0
  Ni  Ni169  1  0.73824658  0.63871986  0.88343475  1.0
  Ni  Ni170  1  0.73824658  0.97205319  0.88343475  1.0
  Ni  Ni171  1  0.08269103  0.19427542  0.91676808  1.0
  Ni  Ni172  1  0.08269103  0.52760875  0.91676808  1.0
  Ni  Ni173  1  0.08269103  0.86094208  0.91676808  1.0
  Ni  Ni174  1  0.41602436  0.19427542  0.91676808  1.0
  Ni  Ni175  1  0.41602436  0.52760875  0.91676808  1.0
  Ni  Ni176  1  0.41602436  0.86094208  0.91676808  1.0
  Ni  Ni177  1  0.74935769  0.19427542  0.91676808  1.0
  Ni  Ni178  1  0.74935769  0.52760875  0.91676808  1.0
  Ni  Ni179  1  0.74935769  0.86094208  0.91676808  1.0
  Ni  Ni180  1  0.17659077  0.26880023  0.86107731  1.0
  Ni  Ni181  1  0.17659077  0.60213356  0.86107731  1.0
  Ni  Ni182  1  0.17659077  0.93546690  0.86107731  1.0
  Ni  Ni183  1  0.50992410  0.26880023  0.86107731  1.0
  Ni  Ni184  1  0.50992410  0.60213356  0.86107731  1.0
  Ni  Ni185  1  0.50992410  0.93546690  0.86107731  1.0
  Ni  Ni186  1  0.84325744  0.26880023  0.86107731  1.0
  Ni  Ni187  1  0.84325744  0.60213356  0.86107731  1.0
  Ni  Ni188  1  0.84325744  0.93546690  0.86107731  1.0
  Ni  Ni189  1  0.16547966  0.04657801  0.82774397  1.0
  Ni  Ni190  1  0.16547966  0.37991134  0.82774397  1.0
  Ni  Ni191  1  0.16547966  0.71324468  0.82774397  1.0
  Ni  Ni192  1  0.49881299  0.04657801  0.82774397  1.0
  Ni  Ni193  1  0.49881299  0.37991134  0.82774397  1.0
  Ni  Ni194  1  0.49881299  0.71324468  0.82774397  1.0
  Ni  Ni195  1  0.83214632  0.04657801  0.82774397  1.0
  Ni  Ni196  1  0.83214632  0.37991134  0.82774397  1.0
  Ni  Ni197  1  0.83214632  0.71324468  0.82774397  1.0
  Ni  Ni198  1  0.04935769  0.19427542  0.81676808  1.0
  Ni  Ni199  1  0.04935769  0.52760875  0.81676808  1.0
  Ni  Ni200  1  0.04935769  0.86094208  0.81676808  1.0
  Ni  Ni201  1  0.38269103  0.19427542  0.81676808  1.0
  Ni  Ni202  1  0.38269103  0.52760875  0.81676808  1.0
  Ni  Ni203  1  0.38269103  0.86094208  0.81676808  1.0
  Ni  Ni204  1  0.71602436  0.19427542  0.81676808  1.0
  Ni  Ni205  1  0.71602436  0.52760875  0.81676808  1.0
  Ni  Ni206  1  0.71602436  0.86094208  0.81676808  1.0
  Ni  Ni207  1  0.06046881  0.08316431  0.85010142  1.0
  Ni  Ni208  1  0.06046881  0.41649764  0.85010142  1.0
  Ni  Ni209  1  0.06046881  0.74983097  0.85010142  1.0
  Ni  Ni210  1  0.39380214  0.08316431  0.85010142  1.0
  Ni  Ni211  1  0.39380214  0.41649764  0.85010142  1.0
  Ni  Ni212  1  0.39380214  0.74983097  0.85010142  1.0
  Ni  Ni213  1  0.72713547  0.08316431  0.85010142  1.0
  Ni  Ni214  1  0.72713547  0.41649764  0.85010142  1.0
  Ni  Ni215  1  0.72713547  0.74983097  0.85010142  1.0
  Ni  Ni216  1  0.15436855  0.15768912  0.79441064  1.0
  Ni  Ni217  1  0.15436855  0.49102245  0.79441064  1.0
  Ni  Ni218  1  0.15436855  0.82435579  0.79441064  1.0
  Ni  Ni219  1  0.48770188  0.15768912  0.79441064  1.0
  Ni  Ni220  1  0.48770188  0.49102245  0.79441064  1.0
  Ni  Ni221  1  0.48770188  0.82435579  0.79441064  1.0
  Ni  Ni222  1  0.82103521  0.15768912  0.79441064  1.0
  Ni  Ni223  1  0.82103521  0.49102245  0.79441064  1.0
  Ni  Ni224  1  0.82103521  0.82435579  0.79441064  1.0
  Ni  Ni225  1  0.14325744  0.26880023  0.76107731  1.0
  Ni  Ni226  1  0.14325744  0.60213356  0.76107731  1.0
  Ni  Ni227  1  0.14325744  0.93546690  0.76107731  1.0
  Ni  Ni228  1  0.47659077  0.26880023  0.76107731  1.0
  Ni  Ni229  1  0.47659077  0.60213356  0.76107731  1.0
  Ni  Ni230  1  0.47659077  0.93546690  0.76107731  1.0
  Ni  Ni231  1  0.80992410  0.26880023  0.76107731  1.0
  Ni  Ni232  1  0.80992410  0.60213356  0.76107731  1.0
  Ni  Ni233  1  0.80992410  0.93546690  0.76107731  1.0
  Ni  Ni234  1  0.02713547  0.08316431  0.75010142  1.0
  Ni  Ni235  1  0.02713547  0.41649764  0.75010142  1.0
  Ni  Ni236  1  0.02713547  0.74983097  0.75010142  1.0
  Ni  Ni237  1  0.36046881  0.08316431  0.75010142  1.0
  Ni  Ni238  1  0.36046881  0.41649764  0.75010142  1.0
  Ni  Ni239  1  0.36046881  0.74983097  0.75010142  1.0
  Ni  Ni240  1  0.69380214  0.08316431  0.75010142  1.0
  Ni  Ni241  1  0.69380214  0.41649764  0.75010142  1.0
  Ni  Ni242  1  0.69380214  0.74983097  0.75010142  1.0
  Ni  Ni243  1  0.03824658  0.30538653  0.78343475  1.0
  Ni  Ni244  1  0.03824658  0.63871986  0.78343475  1.0
  Ni  Ni245  1  0.03824658  0.97205319  0.78343475  1.0
  Ni  Ni246  1  0.37157992  0.30538653  0.78343475  1.0
  Ni  Ni247  1  0.37157992  0.63871986  0.78343475  1.0
  Ni  Ni248  1  0.37157992  0.97205319  0.78343475  1.0
  Ni  Ni249  1  0.70491325  0.30538653  0.78343475  1.0
  Ni  Ni250  1  0.70491325  0.63871986  0.78343475  1.0
  Ni  Ni251  1  0.70491325  0.97205319  0.78343475  1.0
  Ni  Ni252  1  0.13214632  0.04657801  0.72774397  1.0
  Ni  Ni253  1  0.13214632  0.37991134  0.72774397  1.0
  Ni  Ni254  1  0.13214632  0.71324468  0.72774397  1.0
  Ni  Ni255  1  0.46547966  0.04657801  0.72774397  1.0
  Ni  Ni256  1  0.46547966  0.37991134  0.72774397  1.0
  Ni  Ni257  1  0.46547966  0.71324468  0.72774397  1.0
  Ni  Ni258  1  0.79881299  0.04657801  0.72774397  1.0
  Ni  Ni259  1  0.79881299  0.37991134  0.72774397  1.0
  Ni  Ni260  1  0.79881299  0.71324468  0.72774397  1.0
  Ni  Ni261  1  0.12103521  0.15768912  0.69441064  1.0
  Ni  Ni262  1  0.12103521  0.49102245  0.69441064  1.0
  Ni  Ni263  1  0.12103521  0.82435579  0.69441064  1.0
  Ni  Ni264  1  0.45436855  0.15768912  0.69441064  1.0
  Ni  Ni265  1  0.45436855  0.49102245  0.69441064  1.0
  Ni  Ni266  1  0.45436855  0.82435579  0.69441064  1.0
  Ni  Ni267  1  0.78770188  0.15768912  0.69441064  1.0
  Ni  Ni268  1  0.78770188  0.49102245  0.69441064  1.0
  Ni  Ni269  1  0.78770188  0.82435579  0.69441064  1.0
  Ni  Ni270  1  0.00491325  0.30538653  0.68343475  1.0
  Ni  Ni271  1  0.00491325  0.63871986  0.68343475  1.0
  Ni  Ni272  1  0.00491325  0.97205319  0.68343475  1.0
  Ni  Ni273  1  0.33824658  0.30538653  0.68343475  1.0
  Ni  Ni274  1  0.33824658  0.63871986  0.68343475  1.0
  Ni  Ni275  1  0.33824658  0.97205319  0.68343475  1.0
  Ni  Ni276  1  0.67157992  0.30538653  0.68343475  1.0
  Ni  Ni277  1  0.67157992  0.63871986  0.68343475  1.0
  Ni  Ni278  1  0.67157992  0.97205319  0.68343475  1.0
  Ni  Ni279  1  0.01602436  0.19427542  0.71676808  1.0
  Ni  Ni280  1  0.01602436  0.52760875  0.71676808  1.0
  Ni  Ni281  1  0.01602436  0.86094208  0.71676808  1.0
  Ni  Ni282  1  0.34935769  0.19427542  0.71676808  1.0
  Ni  Ni283  1  0.34935769  0.52760875  0.71676808  1.0
  Ni  Ni284  1  0.34935769  0.86094208  0.71676808  1.0
  Ni  Ni285  1  0.68269103  0.19427542  0.71676808  1.0
  Ni  Ni286  1  0.68269103  0.52760875  0.71676808  1.0
  Ni  Ni287  1  0.68269103  0.86094208  0.71676808  1.0
  Ni  Ni288  1  0.10992410  0.26880023  0.66107731  1.0
  Ni  Ni289  1  0.10992410  0.60213356  0.66107731  1.0
  Ni  Ni290  1  0.10992410  0.93546690  0.66107731  1.0
  Ni  Ni291  1  0.44325744  0.26880023  0.66107731  1.0
  Ni  Ni292  1  0.44325744  0.60213356  0.66107731  1.0
  Ni  Ni293  1  0.44325744  0.93546690  0.66107731  1.0
  Ni  Ni294  1  0.77659077  0.26880023  0.66107731  1.0
  Ni  Ni295  1  0.77659077  0.60213356  0.66107731  1.0
  Ni  Ni296  1  0.77659077  0.93546690  0.66107731  1.0
  Ni  Ni297  1  0.09881299  0.04657801  0.62774397  1.0
  Ni  Ni298  1  0.09881299  0.37991134  0.62774397  1.0
  Ni  Ni299  1  0.09881299  0.71324468  0.62774397  1.0
  Ni  Ni300  1  0.43214632  0.04657801  0.62774397  1.0
  Ni  Ni301  1  0.43214632  0.37991134  0.62774397  1.0
  Ni  Ni302  1  0.43214632  0.71324468  0.62774397  1.0
  Ni  Ni303  1  0.76547966  0.04657801  0.62774397  1.0
  Ni  Ni304  1  0.76547966  0.37991134  0.62774397  1.0
  Ni  Ni305  1  0.76547966  0.71324468  0.62774397  1.0
  Ni  Ni306  1  0.31602436  0.19427542  0.61676808  1.0
  Ni  Ni307  1  0.31602436  0.52760875  0.61676808  1.0
  Ni  Ni308  1  0.31602436  0.86094208  0.61676808  1.0
  Ni  Ni309  1  0.64935769  0.19427542  0.61676808  1.0
  Ni  Ni310  1  0.64935769  0.52760875  0.61676808  1.0
  Ni  Ni311  1  0.64935769  0.86094208  0.61676808  1.0
  Ni  Ni312  1  0.98269103  0.19427542  0.61676808  1.0
  Ni  Ni313  1  0.98269103  0.52760875  0.61676808  1.0
  Ni  Ni314  1  0.98269103  0.86094208  0.61676808  1.0
  Ni  Ni315  1  0.32713547  0.08316431  0.65010142  1.0
  Ni  Ni316  1  0.32713547  0.41649764  0.65010142  1.0
  Ni  Ni317  1  0.32713547  0.74983097  0.65010142  1.0
  Ni  Ni318  1  0.66046881  0.08316431  0.65010142  1.0
  Ni  Ni319  1  0.66046881  0.41649764  0.65010142  1.0
  Ni  Ni320  1  0.66046881  0.74983097  0.65010142  1.0
  Ni  Ni321  1  0.99380214  0.08316431  0.65010142  1.0
  Ni  Ni322  1  0.99380214  0.41649764  0.65010142  1.0
  Ni  Ni323  1  0.99380214  0.74983097  0.65010142  1.0
