# generated using pymatgen
data_GaNi2
_symmetry_space_group_name_H-M   'P 1'
_cell_length_a   15.07266300
_cell_length_b   32.11593482
_cell_length_c   40.46227460
_cell_angle_alpha   139.10660535
_cell_angle_beta   90.00000000
_cell_angle_gamma   90.00000000
_symmetry_Int_Tables_number   1
_chemical_formula_structural   GaNi2
_chemical_formula_sum   'Ga144 Ni288'
_cell_volume   12822.49261114
_cell_formula_units_Z   144
loop_
 _symmetry_equiv_pos_site_id
 _symmetry_equiv_pos_as_xyz
  1  'x, y, z'
loop_
 _atom_site_type_symbol
 _atom_site_label
 _atom_site_symmetry_multiplicity
 _atom_site_fract_x
 _atom_site_fract_y
 _atom_site_fract_z
 _atom_site_occupancy
  Ga  Ga0  1  0.08333333  0.11111111  0.05833333  1.0
  Ga  Ga1  1  0.08333333  0.44444444  0.05833333  1.0
  Ga  Ga2  1  0.08333333  0.77777778  0.05833333  1.0
  Ga  Ga3  1  0.41666667  0.11111111  0.05833333  1.0
  Ga  Ga4  1  0.41666667  0.44444444  0.05833333  1.0
  Ga  Ga5  1  0.41666667  0.77777778  0.05833333  1.0
  Ga  Ga6  1  0.75000000  0.11111111  0.05833333  1.0
  Ga  Ga7  1  0.75000000  0.44444444  0.05833333  1.0
  Ga  Ga8  1  0.75000000  0.77777778  0.05833333  1.0
  Ga  Ga9  1  0.08333333  0.27777778  0.00833333  1.0
  Ga  Ga10  1  0.08333333  0.61111111  0.00833333  1.0
  Ga  Ga11  1  0.08333333  0.94444444  0.00833333  1.0
  Ga  Ga12  1  0.41666667  0.27777778  0.00833333  1.0
  Ga  Ga13  1  0.41666667  0.61111111  0.00833333  1.0
  Ga  Ga14  1  0.41666667  0.94444444  0.00833333  1.0
  Ga  Ga15  1  0.75000000  0.27777778  0.00833333  1.0
  Ga  Ga16  1  0.75000000  0.61111111  0.00833333  1.0
  Ga  Ga17  1  0.75000000  0.94444444  0.00833333  1.0
  Ga  Ga18  1  0.25000000  0.05555556  0.07500000  1.0
  Ga  Ga19  1  0.25000000  0.38888889  0.07500000  1.0
  Ga  Ga20  1  0.25000000  0.72222222  0.07500000  1.0
  Ga  Ga21  1  0.58333333  0.05555556  0.07500000  1.0
  Ga  Ga22  1  0.58333333  0.38888889  0.07500000  1.0
  Ga  Ga23  1  0.58333333  0.72222222  0.07500000  1.0
  Ga  Ga24  1  0.91666667  0.05555556  0.07500000  1.0
  Ga  Ga25  1  0.91666667  0.38888889  0.07500000  1.0
  Ga  Ga26  1  0.91666667  0.72222222  0.07500000  1.0
  Ga  Ga27  1  0.25000000  0.22222222  0.02500000  1.0
  Ga  Ga28  1  0.25000000  0.55555556  0.02500000  1.0
  Ga  Ga29  1  0.25000000  0.88888889  0.02500000  1.0
  Ga  Ga30  1  0.58333333  0.22222222  0.02500000  1.0
  Ga  Ga31  1  0.58333333  0.55555556  0.02500000  1.0
  Ga  Ga32  1  0.58333333  0.88888889  0.02500000  1.0
  Ga  Ga33  1  0.91666667  0.22222222  0.02500000  1.0
  Ga  Ga34  1  0.91666667  0.55555556  0.02500000  1.0
  Ga  Ga35  1  0.91666667  0.88888889  0.02500000  1.0
  Ni  Ni36  1  0.16666667  0.16666667  0.04166667  1.0
  Ni  Ni37  1  0.16666667  0.50000000  0.04166667  1.0
  Ni  Ni38  1  0.16666667  0.83333333  0.04166667  1.0
  Ni  Ni39  1  0.50000000  0.16666667  0.04166667  1.0
  Ni  Ni40  1  0.50000000  0.50000000  0.04166667  1.0
  Ni  Ni41  1  0.50000000  0.83333333  0.04166667  1.0
  Ni  Ni42  1  0.83333333  0.16666667  0.04166667  1.0
  Ni  Ni43  1  0.83333333  0.50000000  0.04166667  1.0
  Ni  Ni44  1  0.83333333  0.83333333  0.04166667  1.0
  Ni  Ni45  1  0.16666667  0.00000000  0.09166667  1.0
  Ni  Ni46  1  0.16666667  0.33333333  0.09166667  1.0
  Ni  Ni47  1  0.16666667  0.66666667  0.09166667  1.0
  Ni  Ni48  1  0.50000000  0.00000000  0.09166667  1.0
  Ni  Ni49  1  0.50000000  0.33333333  0.09166667  1.0
  Ni  Ni50  1  0.50000000  0.66666667  0.09166667  1.0
  Ni  Ni51  1  0.83333333  0.00000000  0.09166667  1.0
  Ni  Ni52  1  0.83333333  0.33333333  0.09166667  1.0
  Ni  Ni53  1  0.83333333  0.66666667  0.09166667  1.0
  Ni  Ni54  1  0.08333333  0.05555556  0.07500000  1.0
  Ni  Ni55  1  0.08333333  0.38888889  0.07500000  1.0
  Ni  Ni56  1  0.08333333  0.72222222  0.07500000  1.0
  Ni  Ni57  1  0.41666667  0.05555556  0.07500000  1.0
  Ni  Ni58  1  0.41666667  0.38888889  0.07500000  1.0
  Ni  Ni59  1  0.41666667  0.72222222  0.07500000  1.0
  Ni  Ni60  1  0.75000000  0.05555556  0.07500000  1.0
  Ni  Ni61  1  0.75000000  0.38888889  0.07500000  1.0
  Ni  Ni62  1  0.75000000  0.72222222  0.07500000  1.0
  Ni  Ni63  1  0.08333333  0.22222222  0.02500000  1.0
  Ni  Ni64  1  0.08333333  0.55555556  0.02500000  1.0
  Ni  Ni65  1  0.08333333  0.88888889  0.02500000  1.0
  Ni  Ni66  1  0.41666667  0.22222222  0.02500000  1.0
  Ni  Ni67  1  0.41666667  0.55555556  0.02500000  1.0
  Ni  Ni68  1  0.41666667  0.88888889  0.02500000  1.0
  Ni  Ni69  1  0.75000000  0.22222222  0.02500000  1.0
  Ni  Ni70  1  0.75000000  0.55555556  0.02500000  1.0
  Ni  Ni71  1  0.75000000  0.88888889  0.02500000  1.0
  Ni  Ni72  1  0.25000000  0.11111111  0.05833333  1.0
  Ni  Ni73  1  0.25000000  0.44444444  0.05833333  1.0
  Ni  Ni74  1  0.25000000  0.77777778  0.05833333  1.0
  Ni  Ni75  1  0.58333333  0.11111111  0.05833333  1.0
  Ni  Ni76  1  0.58333333  0.44444444  0.05833333  1.0
  Ni  Ni77  1  0.58333333  0.77777778  0.05833333  1.0
  Ni  Ni78  1  0.91666667  0.11111111  0.05833333  1.0
  Ni  Ni79  1  0.91666667  0.44444444  0.05833333  1.0
  Ni  Ni80  1  0.91666667  0.77777778  0.05833333  1.0
  Ni  Ni81  1  0.25000000  0.27777778  0.00833333  1.0
  Ni  Ni82  1  0.25000000  0.61111111  0.00833333  1.0
  Ni  Ni83  1  0.25000000  0.94444444  0.00833333  1.0
  Ni  Ni84  1  0.58333333  0.27777778  0.00833333  1.0
  Ni  Ni85  1  0.58333333  0.61111111  0.00833333  1.0
  Ni  Ni86  1  0.58333333  0.94444444  0.00833333  1.0
  Ni  Ni87  1  0.91666667  0.27777778  0.00833333  1.0
  Ni  Ni88  1  0.91666667  0.61111111  0.00833333  1.0
  Ni  Ni89  1  0.91666667  0.94444444  0.00833333  1.0
  Ni  Ni90  1  0.00000000  0.16666667  0.04166667  1.0
  Ni  Ni91  1  0.00000000  0.50000000  0.04166667  1.0
  Ni  Ni92  1  0.00000000  0.83333333  0.04166667  1.0
  Ni  Ni93  1  0.33333333  0.16666667  0.04166667  1.0
  Ni  Ni94  1  0.33333333  0.50000000  0.04166667  1.0
  Ni  Ni95  1  0.33333333  0.83333333  0.04166667  1.0
  Ni  Ni96  1  0.66666667  0.16666667  0.04166667  1.0
  Ni  Ni97  1  0.66666667  0.50000000  0.04166667  1.0
  Ni  Ni98  1  0.66666667  0.83333333  0.04166667  1.0
  Ni  Ni99  1  0.00000000  0.00000000  0.09166667  1.0
  Ni  Ni100  1  0.00000000  0.33333333  0.09166667  1.0
  Ni  Ni101  1  0.00000000  0.66666667  0.09166667  1.0
  Ni  Ni102  1  0.33333333  0.00000000  0.09166667  1.0
  Ni  Ni103  1  0.33333333  0.33333333  0.09166667  1.0
  Ni  Ni104  1  0.33333333  0.66666667  0.09166667  1.0
  Ni  Ni105  1  0.66666667  0.00000000  0.09166667  1.0
  Ni  Ni106  1  0.66666667  0.33333333  0.09166667  1.0
  Ni  Ni107  1  0.66666667  0.66666667  0.09166667  1.0
  Ga  Ga108  1  0.08333333  0.11111111  0.15833333  1.0
  Ga  Ga109  1  0.08333333  0.44444444  0.15833333  1.0
  Ga  Ga110  1  0.08333333  0.77777778  0.15833333  1.0
  Ga  Ga111  1  0.41666667  0.11111111  0.15833333  1.0
  Ga  Ga112  1  0.41666667  0.44444444  0.15833333  1.0
  Ga  Ga113  1  0.41666667  0.77777778  0.15833333  1.0
  Ga  Ga114  1  0.75000000  0.11111111  0.15833333  1.0
  Ga  Ga115  1  0.75000000  0.44444444  0.15833333  1.0
  Ga  Ga116  1  0.75000000  0.77777778  0.15833333  1.0
  Ga  Ga117  1  0.08333333  0.27777778  0.10833333  1.0
  Ga  Ga118  1  0.08333333  0.61111111  0.10833333  1.0
  Ga  Ga119  1  0.08333333  0.94444444  0.10833333  1.0
  Ga  Ga120  1  0.41666667  0.27777778  0.10833333  1.0
  Ga  Ga121  1  0.41666667  0.61111111  0.10833333  1.0
  Ga  Ga122  1  0.41666667  0.94444444  0.10833333  1.0
  Ga  Ga123  1  0.75000000  0.27777778  0.10833333  1.0
  Ga  Ga124  1  0.75000000  0.61111111  0.10833333  1.0
  Ga  Ga125  1  0.75000000  0.94444444  0.10833333  1.0
  Ga  Ga126  1  0.25000000  0.05555556  0.17500000  1.0
  Ga  Ga127  1  0.25000000  0.38888889  0.17500000  1.0
  Ga  Ga128  1  0.25000000  0.72222222  0.17500000  1.0
  Ga  Ga129  1  0.58333333  0.05555556  0.17500000  1.0
  Ga  Ga130  1  0.58333333  0.38888889  0.17500000  1.0
  Ga  Ga131  1  0.58333333  0.72222222  0.17500000  1.0
  Ga  Ga132  1  0.91666667  0.05555556  0.17500000  1.0
  Ga  Ga133  1  0.91666667  0.38888889  0.17500000  1.0
  Ga  Ga134  1  0.91666667  0.72222222  0.17500000  1.0
  Ga  Ga135  1  0.25000000  0.22222222  0.12500000  1.0
  Ga  Ga136  1  0.25000000  0.55555556  0.12500000  1.0
  Ga  Ga137  1  0.25000000  0.88888889  0.12500000  1.0
  Ga  Ga138  1  0.58333333  0.22222222  0.12500000  1.0
  Ga  Ga139  1  0.58333333  0.55555556  0.12500000  1.0
  Ga  Ga140  1  0.58333333  0.88888889  0.12500000  1.0
  Ga  Ga141  1  0.91666667  0.22222222  0.12500000  1.0
  Ga  Ga142  1  0.91666667  0.55555556  0.12500000  1.0
  Ga  Ga143  1  0.91666667  0.88888889  0.12500000  1.0
  Ni  Ni144  1  0.16666667  0.16666667  0.14166667  1.0
  Ni  Ni145  1  0.16666667  0.50000000  0.14166667  1.0
  Ni  Ni146  1  0.16666667  0.83333333  0.14166667  1.0
  Ni  Ni147  1  0.50000000  0.16666667  0.14166667  1.0
  Ni  Ni148  1  0.50000000  0.50000000  0.14166667  1.0
  Ni  Ni149  1  0.50000000  0.83333333  0.14166667  1.0
  Ni  Ni150  1  0.83333333  0.16666667  0.14166667  1.0
  Ni  Ni151  1  0.83333333  0.50000000  0.14166667  1.0
  Ni  Ni152  1  0.83333333  0.83333333  0.14166667  1.0
  Ni  Ni153  1  0.16666667  0.00000000  0.19166667  1.0
  Ni  Ni154  1  0.16666667  0.33333333  0.19166667  1.0
  Ni  Ni155  1  0.16666667  0.66666667  0.19166667  1.0
  Ni  Ni156  1  0.50000000  0.00000000  0.19166667  1.0
  Ni  Ni157  1  0.50000000  0.33333333  0.19166667  1.0
  Ni  Ni158  1  0.50000000  0.66666667  0.19166667  1.0
  Ni  Ni159  1  0.83333333  0.00000000  0.19166667  1.0
  Ni  Ni160  1  0.83333333  0.33333333  0.19166667  1.0
  Ni  Ni161  1  0.83333333  0.66666667  0.19166667  1.0
  Ni  Ni162  1  0.08333333  0.05555556  0.17500000  1.0
  Ni  Ni163  1  0.08333333  0.38888889  0.17500000  1.0
  Ni  Ni164  1  0.08333333  0.72222222  0.17500000  1.0
  Ni  Ni165  1  0.41666667  0.05555556  0.17500000  1.0
  Ni  Ni166  1  0.41666667  0.38888889  0.17500000  1.0
  Ni  Ni167  1  0.41666667  0.72222222  0.17500000  1.0
  Ni  Ni168  1  0.75000000  0.05555556  0.17500000  1.0
  Ni  Ni169  1  0.75000000  0.38888889  0.17500000  1.0
  Ni  Ni170  1  0.75000000  0.72222222  0.17500000  1.0
  Ni  Ni171  1  0.08333333  0.22222222  0.12500000  1.0
  Ni  Ni172  1  0.08333333  0.55555556  0.12500000  1.0
  Ni  Ni173  1  0.08333333  0.88888889  0.12500000  1.0
  Ni  Ni174  1  0.41666667  0.22222222  0.12500000  1.0
  Ni  Ni175  1  0.41666667  0.55555556  0.12500000  1.0
  Ni  Ni176  1  0.41666667  0.88888889  0.12500000  1.0
  Ni  Ni177  1  0.75000000  0.22222222  0.12500000  1.0
  Ni  Ni178  1  0.75000000  0.55555556  0.12500000  1.0
  Ni  Ni179  1  0.75000000  0.88888889  0.12500000  1.0
  Ni  Ni180  1  0.25000000  0.11111111  0.15833333  1.0
  Ni  Ni181  1  0.25000000  0.44444444  0.15833333  1.0
  Ni  Ni182  1  0.25000000  0.77777778  0.15833333  1.0
  Ni  Ni183  1  0.58333333  0.11111111  0.15833333  1.0
  Ni  Ni184  1  0.58333333  0.44444444  0.15833333  1.0
  Ni  Ni185  1  0.58333333  0.77777778  0.15833333  1.0
  Ni  Ni186  1  0.91666667  0.11111111  0.15833333  1.0
  Ni  Ni187  1  0.91666667  0.44444444  0.15833333  1.0
  Ni  Ni188  1  0.91666667  0.77777778  0.15833333  1.0
  Ni  Ni189  1  0.25000000  0.27777778  0.10833333  1.0
  Ni  Ni190  1  0.25000000  0.61111111  0.10833333  1.0
  Ni  Ni191  1  0.25000000  0.94444444  0.10833333  1.0
  Ni  Ni192  1  0.58333333  0.27777778  0.10833333  1.0
  Ni  Ni193  1  0.58333333  0.61111111  0.10833333  1.0
  Ni  Ni194  1  0.58333333  0.94444444  0.10833333  1.0
  Ni  Ni195  1  0.91666667  0.27777778  0.10833333  1.0
  Ni  Ni196  1  0.91666667  0.61111111  0.10833333  1.0
  Ni  Ni197  1  0.91666667  0.94444444  0.10833333  1.0
  Ni  Ni198  1  0.00000000  0.16666667  0.14166667  1.0
  Ni  Ni199  1  0.00000000  0.50000000  0.14166667  1.0
  Ni  Ni200  1  0.00000000  0.83333333  0.14166667  1.0
  Ni  Ni201  1  0.33333333  0.16666667  0.14166667  1.0
  Ni  Ni202  1  0.33333333  0.50000000  0.14166667  1.0
  Ni  Ni203  1  0.33333333  0.83333333  0.14166667  1.0
  Ni  Ni204  1  0.66666667  0.16666667  0.14166667  1.0
  Ni  Ni205  1  0.66666667  0.50000000  0.14166667  1.0
  Ni  Ni206  1  0.66666667  0.83333333  0.14166667  1.0
  Ni  Ni207  1  0.00000000  0.00000000  0.19166667  1.0
  Ni  Ni208  1  0.00000000  0.33333333  0.19166667  1.0
  Ni  Ni209  1  0.00000000  0.66666667  0.19166667  1.0
  Ni  Ni210  1  0.33333333  0.00000000  0.19166667  1.0
  Ni  Ni211  1  0.33333333  0.33333333  0.19166667  1.0
  Ni  Ni212  1  0.33333333  0.66666667  0.19166667  1.0
  Ni  Ni213  1  0.66666667  0.00000000  0.19166667  1.0
  Ni  Ni214  1  0.66666667  0.33333333  0.19166667  1.0
  Ni  Ni215  1  0.66666667  0.66666667  0.19166667  1.0
  Ga  Ga216  1  0.08333333  0.11111111  0.25833333  1.0
  Ga  Ga217  1  0.08333333  0.44444444  0.25833333  1.0
  Ga  Ga218  1  0.08333333  0.77777778  0.25833333  1.0
  Ga  Ga219  1  0.41666667  0.11111111  0.25833333  1.0
  Ga  Ga220  1  0.41666667  0.44444444  0.25833333  1.0
  Ga  Ga221  1  0.41666667  0.77777778  0.25833333  1.0
  Ga  Ga222  1  0.75000000  0.11111111  0.25833333  1.0
  Ga  Ga223  1  0.75000000  0.44444444  0.25833333  1.0
  Ga  Ga224  1  0.75000000  0.77777778  0.25833333  1.0
  Ga  Ga225  1  0.08333333  0.27777778  0.20833333  1.0
  Ga  Ga226  1  0.08333333  0.61111111  0.20833333  1.0
  Ga  Ga227  1  0.08333333  0.94444444  0.20833333  1.0
  Ga  Ga228  1  0.41666667  0.27777778  0.20833333  1.0
  Ga  Ga229  1  0.41666667  0.61111111  0.20833333  1.0
  Ga  Ga230  1  0.41666667  0.94444444  0.20833333  1.0
  Ga  Ga231  1  0.75000000  0.27777778  0.20833333  1.0
  Ga  Ga232  1  0.75000000  0.61111111  0.20833333  1.0
  Ga  Ga233  1  0.75000000  0.94444444  0.20833333  1.0
  Ga  Ga234  1  0.25000000  0.05555556  0.27500000  1.0
  Ga  Ga235  1  0.25000000  0.38888889  0.27500000  1.0
  Ga  Ga236  1  0.25000000  0.72222222  0.27500000  1.0
  Ga  Ga237  1  0.58333333  0.05555556  0.27500000  1.0
  Ga  Ga238  1  0.58333333  0.38888889  0.27500000  1.0
  Ga  Ga239  1  0.58333333  0.72222222  0.27500000  1.0
  Ga  Ga240  1  0.91666667  0.05555556  0.27500000  1.0
  Ga  Ga241  1  0.91666667  0.38888889  0.27500000  1.0
  Ga  Ga242  1  0.91666667  0.72222222  0.27500000  1.0
  Ga  Ga243  1  0.25000000  0.22222222  0.22500000  1.0
  Ga  Ga244  1  0.25000000  0.55555556  0.22500000  1.0
  Ga  Ga245  1  0.25000000  0.88888889  0.22500000  1.0
  Ga  Ga246  1  0.58333333  0.22222222  0.22500000  1.0
  Ga  Ga247  1  0.58333333  0.55555556  0.22500000  1.0
  Ga  Ga248  1  0.58333333  0.88888889  0.22500000  1.0
  Ga  Ga249  1  0.91666667  0.22222222  0.22500000  1.0
  Ga  Ga250  1  0.91666667  0.55555556  0.22500000  1.0
  Ga  Ga251  1  0.91666667  0.88888889  0.22500000  1.0
  Ni  Ni252  1  0.16666667  0.16666667  0.24166667  1.0
  Ni  Ni253  1  0.16666667  0.50000000  0.24166667  1.0
  Ni  Ni254  1  0.16666667  0.83333333  0.24166667  1.0
  Ni  Ni255  1  0.50000000  0.16666667  0.24166667  1.0
  Ni  Ni256  1  0.50000000  0.50000000  0.24166667  1.0
  Ni  Ni257  1  0.50000000  0.83333333  0.24166667  1.0
  Ni  Ni258  1  0.83333333  0.16666667  0.24166667  1.0
  Ni  Ni259  1  0.83333333  0.50000000  0.24166667  1.0
  Ni  Ni260  1  0.83333333  0.83333333  0.24166667  1.0
  Ni  Ni261  1  0.16666667  0.00000000  0.29166667  1.0
  Ni  Ni262  1  0.16666667  0.33333333  0.29166667  1.0
  Ni  Ni263  1  0.16666667  0.66666667  0.29166667  1.0
  Ni  Ni264  1  0.50000000  0.00000000  0.29166667  1.0
  Ni  Ni265  1  0.50000000  0.33333333  0.29166667  1.0
  Ni  Ni266  1  0.50000000  0.66666667  0.29166667  1.0
  Ni  Ni267  1  0.83333333  0.00000000  0.29166667  1.0
  Ni  Ni268  1  0.83333333  0.33333333  0.29166667  1.0
  Ni  Ni269  1  0.83333333  0.66666667  0.29166667  1.0
  Ni  Ni270  1  0.08333333  0.05555556  0.27500000  1.0
  Ni  Ni271  1  0.08333333  0.38888889  0.27500000  1.0
  Ni  Ni272  1  0.08333333  0.72222222  0.27500000  1.0
  Ni  Ni273  1  0.41666667  0.05555556  0.27500000  1.0
  Ni  Ni274  1  0.41666667  0.38888889  0.27500000  1.0
  Ni  Ni275  1  0.41666667  0.72222222  0.27500000  1.0
  Ni  Ni276  1  0.75000000  0.05555556  0.27500000  1.0
  Ni  Ni277  1  0.75000000  0.38888889  0.27500000  1.0
  Ni  Ni278  1  0.75000000  0.72222222  0.27500000  1.0
  Ni  Ni279  1  0.08333333  0.22222222  0.22500000  1.0
  Ni  Ni280  1  0.08333333  0.55555556  0.22500000  1.0
  Ni  Ni281  1  0.08333333  0.88888889  0.22500000  1.0
  Ni  Ni282  1  0.41666667  0.22222222  0.22500000  1.0
  Ni  Ni283  1  0.41666667  0.55555556  0.22500000  1.0
  Ni  Ni284  1  0.41666667  0.88888889  0.22500000  1.0
  Ni  Ni285  1  0.75000000  0.22222222  0.22500000  1.0
  Ni  Ni286  1  0.75000000  0.55555556  0.22500000  1.0
  Ni  Ni287  1  0.75000000  0.88888889  0.22500000  1.0
  Ni  Ni288  1  0.25000000  0.11111111  0.25833333  1.0
  Ni  Ni289  1  0.25000000  0.44444444  0.25833333  1.0
  Ni  Ni290  1  0.25000000  0.77777778  0.25833333  1.0
  Ni  Ni291  1  0.58333333  0.11111111  0.25833333  1.0
  Ni  Ni292  1  0.58333333  0.44444444  0.25833333  1.0
  Ni  Ni293  1  0.58333333  0.77777778  0.25833333  1.0
  Ni  Ni294  1  0.91666667  0.11111111  0.25833333  1.0
  Ni  Ni295  1  0.91666667  0.44444444  0.25833333  1.0
  Ni  Ni296  1  0.91666667  0.77777778  0.25833333  1.0
  Ni  Ni297  1  0.25000000  0.27777778  0.20833333  1.0
  Ni  Ni298  1  0.25000000  0.61111111  0.20833333  1.0
  Ni  Ni299  1  0.25000000  0.94444444  0.20833333  1.0
  Ni  Ni300  1  0.58333333  0.27777778  0.20833333  1.0
  Ni  Ni301  1  0.58333333  0.61111111  0.20833333  1.0
  Ni  Ni302  1  0.58333333  0.94444444  0.20833333  1.0
  Ni  Ni303  1  0.91666667  0.27777778  0.20833333  1.0
  Ni  Ni304  1  0.91666667  0.61111111  0.20833333  1.0
  Ni  Ni305  1  0.91666667  0.94444444  0.20833333  1.0
  Ni  Ni306  1  0.00000000  0.16666667  0.24166667  1.0
  Ni  Ni307  1  0.00000000  0.50000000  0.24166667  1.0
  Ni  Ni308  1  0.00000000  0.83333333  0.24166667  1.0
  Ni  Ni309  1  0.33333333  0.16666667  0.24166667  1.0
  Ni  Ni310  1  0.33333333  0.50000000  0.24166667  1.0
  Ni  Ni311  1  0.33333333  0.83333333  0.24166667  1.0
  Ni  Ni312  1  0.66666667  0.16666667  0.24166667  1.0
  Ni  Ni313  1  0.66666667  0.50000000  0.24166667  1.0
  Ni  Ni314  1  0.66666667  0.83333333  0.24166667  1.0
  Ni  Ni315  1  0.00000000  0.00000000  0.29166667  1.0
  Ni  Ni316  1  0.00000000  0.33333333  0.29166667  1.0
  Ni  Ni317  1  0.00000000  0.66666667  0.29166667  1.0
  Ni  Ni318  1  0.33333333  0.00000000  0.29166667  1.0
  Ni  Ni319  1  0.33333333  0.33333333  0.29166667  1.0
  Ni  Ni320  1  0.33333333  0.66666667  0.29166667  1.0
  Ni  Ni321  1  0.66666667  0.00000000  0.29166667  1.0
  Ni  Ni322  1  0.66666667  0.33333333  0.29166667  1.0
  Ni  Ni323  1  0.66666667  0.66666667  0.29166667  1.0
  Ga  Ga324  1  0.08333333  0.11111111  0.35833333  1.0
  Ga  Ga325  1  0.08333333  0.44444444  0.35833333  1.0
  Ga  Ga326  1  0.08333333  0.77777778  0.35833333  1.0
  Ga  Ga327  1  0.41666667  0.11111111  0.35833333  1.0
  Ga  Ga328  1  0.41666667  0.44444444  0.35833333  1.0
  Ga  Ga329  1  0.41666667  0.77777778  0.35833333  1.0
  Ga  Ga330  1  0.75000000  0.11111111  0.35833333  1.0
  Ga  Ga331  1  0.75000000  0.44444444  0.35833333  1.0
  Ga  Ga332  1  0.75000000  0.77777778  0.35833333  1.0
  Ga  Ga333  1  0.08333333  0.27777778  0.30833333  1.0
  Ga  Ga334  1  0.08333333  0.61111111  0.30833333  1.0
  Ga  Ga335  1  0.08333333  0.94444444  0.30833333  1.0
  Ga  Ga336  1  0.41666667  0.27777778  0.30833333  1.0
  Ga  Ga337  1  0.41666667  0.61111111  0.30833333  1.0
  Ga  Ga338  1  0.41666667  0.94444444  0.30833333  1.0
  Ga  Ga339  1  0.75000000  0.27777778  0.30833333  1.0
  Ga  Ga340  1  0.75000000  0.61111111  0.30833333  1.0
  Ga  Ga341  1  0.75000000  0.94444444  0.30833333  1.0
  Ga  Ga342  1  0.25000000  0.05555556  0.37500000  1.0
  Ga  Ga343  1  0.25000000  0.38888889  0.37500000  1.0
  Ga  Ga344  1  0.25000000  0.72222222  0.37500000  1.0
  Ga  Ga345  1  0.58333333  0.05555556  0.37500000  1.0
  Ga  Ga346  1  0.58333333  0.38888889  0.37500000  1.0
  Ga  Ga347  1  0.58333333  0.72222222  0.37500000  1.0
  Ga  Ga348  1  0.91666667  0.05555556  0.37500000  1.0
  Ga  Ga349  1  0.91666667  0.38888889  0.37500000  1.0
  Ga  Ga350  1  0.91666667  0.72222222  0.37500000  1.0
  Ga  Ga351  1  0.25000000  0.22222222  0.32500000  1.0
  Ga  Ga352  1  0.25000000  0.55555556  0.32500000  1.0
  Ga  Ga353  1  0.25000000  0.88888889  0.32500000  1.0
  Ga  Ga354  1  0.58333333  0.22222222  0.32500000  1.0
  Ga  Ga355  1  0.58333333  0.55555556  0.32500000  1.0
  Ga  Ga356  1  0.58333333  0.88888889  0.32500000  1.0
  Ga  Ga357  1  0.91666667  0.22222222  0.32500000  1.0
  Ga  Ga358  1  0.91666667  0.55555556  0.32500000  1.0
  Ga  Ga359  1  0.91666667  0.88888889  0.32500000  1.0
  Ni  Ni360  1  0.16666667  0.16666667  0.34166667  1.0
  Ni  Ni361  1  0.16666667  0.50000000  0.34166667  1.0
  Ni  Ni362  1  0.16666667  0.83333333  0.34166667  1.0
  Ni  Ni363  1  0.50000000  0.16666667  0.34166667  1.0
  Ni  Ni364  1  0.50000000  0.50000000  0.34166667  1.0
  Ni  Ni365  1  0.50000000  0.83333333  0.34166667  1.0
  Ni  Ni366  1  0.83333333  0.16666667  0.34166667  1.0
  Ni  Ni367  1  0.83333333  0.50000000  0.34166667  1.0
  Ni  Ni368  1  0.83333333  0.83333333  0.34166667  1.0
  Ni  Ni369  1  0.16666667  0.00000000  0.39166667  1.0
  Ni  Ni370  1  0.16666667  0.33333333  0.39166667  1.0
  Ni  Ni371  1  0.16666667  0.66666667  0.39166667  1.0
  Ni  Ni372  1  0.50000000  0.00000000  0.39166667  1.0
  Ni  Ni373  1  0.50000000  0.33333333  0.39166667  1.0
  Ni  Ni374  1  0.50000000  0.66666667  0.39166667  1.0
  Ni  Ni375  1  0.83333333  0.00000000  0.39166667  1.0
  Ni  Ni376  1  0.83333333  0.33333333  0.39166667  1.0
  Ni  Ni377  1  0.83333333  0.66666667  0.39166667  1.0
  Ni  Ni378  1  0.08333333  0.05555556  0.37500000  1.0
  Ni  Ni379  1  0.08333333  0.38888889  0.37500000  1.0
  Ni  Ni380  1  0.08333333  0.72222222  0.37500000  1.0
  Ni  Ni381  1  0.41666667  0.05555556  0.37500000  1.0
  Ni  Ni382  1  0.41666667  0.38888889  0.37500000  1.0
  Ni  Ni383  1  0.41666667  0.72222222  0.37500000  1.0
  Ni  Ni384  1  0.75000000  0.05555556  0.37500000  1.0
  Ni  Ni385  1  0.75000000  0.38888889  0.37500000  1.0
  Ni  Ni386  1  0.75000000  0.72222222  0.37500000  1.0
  Ni  Ni387  1  0.08333333  0.22222222  0.32500000  1.0
  Ni  Ni388  1  0.08333333  0.55555556  0.32500000  1.0
  Ni  Ni389  1  0.08333333  0.88888889  0.32500000  1.0
  Ni  Ni390  1  0.41666667  0.22222222  0.32500000  1.0
  Ni  Ni391  1  0.41666667  0.55555556  0.32500000  1.0
  Ni  Ni392  1  0.41666667  0.88888889  0.32500000  1.0
  Ni  Ni393  1  0.75000000  0.22222222  0.32500000  1.0
  Ni  Ni394  1  0.75000000  0.55555556  0.32500000  1.0
  Ni  Ni395  1  0.75000000  0.88888889  0.32500000  1.0
  Ni  Ni396  1  0.25000000  0.11111111  0.35833333  1.0
  Ni  Ni397  1  0.25000000  0.44444444  0.35833333  1.0
  Ni  Ni398  1  0.25000000  0.77777778  0.35833333  1.0
  Ni  Ni399  1  0.58333333  0.11111111  0.35833333  1.0
  Ni  Ni400  1  0.58333333  0.44444444  0.35833333  1.0
  Ni  Ni401  1  0.58333333  0.77777778  0.35833333  1.0
  Ni  Ni402  1  0.91666667  0.11111111  0.35833333  1.0
  Ni  Ni403  1  0.91666667  0.44444444  0.35833333  1.0
  Ni  Ni404  1  0.91666667  0.77777778  0.35833333  1.0
  Ni  Ni405  1  0.25000000  0.27777778  0.30833333  1.0
  Ni  Ni406  1  0.25000000  0.61111111  0.30833333  1.0
  Ni  Ni407  1  0.25000000  0.94444444  0.30833333  1.0
  Ni  Ni408  1  0.58333333  0.27777778  0.30833333  1.0
  Ni  Ni409  1  0.58333333  0.61111111  0.30833333  1.0
  Ni  Ni410  1  0.58333333  0.94444444  0.30833333  1.0
  Ni  Ni411  1  0.91666667  0.27777778  0.30833333  1.0
  Ni  Ni412  1  0.91666667  0.61111111  0.30833333  1.0
  Ni  Ni413  1  0.91666667  0.94444444  0.30833333  1.0
  Ni  Ni414  1  0.00000000  0.16666667  0.34166667  1.0
  Ni  Ni415  1  0.00000000  0.50000000  0.34166667  1.0
  Ni  Ni416  1  0.00000000  0.83333333  0.34166667  1.0
  Ni  Ni417  1  0.33333333  0.16666667  0.34166667  1.0
  Ni  Ni418  1  0.33333333  0.50000000  0.34166667  1.0
  Ni  Ni419  1  0.33333333  0.83333333  0.34166667  1.0
  Ni  Ni420  1  0.66666667  0.16666667  0.34166667  1.0
  Ni  Ni421  1  0.66666667  0.50000000  0.34166667  1.0
  Ni  Ni422  1  0.66666667  0.83333333  0.34166667  1.0
  Ni  Ni423  1  0.00000000  0.00000000  0.39166667  1.0
  Ni  Ni424  1  0.00000000  0.33333333  0.39166667  1.0
  Ni  Ni425  1  0.00000000  0.66666667  0.39166667  1.0
  Ni  Ni426  1  0.33333333  0.00000000  0.39166667  1.0
  Ni  Ni427  1  0.33333333  0.33333333  0.39166667  1.0
  Ni  Ni428  1  0.33333333  0.66666667  0.39166667  1.0
  Ni  Ni429  1  0.66666667  0.00000000  0.39166667  1.0
  Ni  Ni430  1  0.66666667  0.33333333  0.39166667  1.0
  Ni  Ni431  1  0.66666667  0.66666667  0.39166667  1.0
