# generated using pymatgen
data_GaNi3
_symmetry_space_group_name_H-M   'P 1'
_cell_length_a   19.58168508
_cell_length_b   28.89795138
_cell_length_c   28.13300418
_cell_angle_alpha   97.76128199
_cell_angle_beta   92.36530049
_cell_angle_gamma   109.04537871
_symmetry_Int_Tables_number   1
_chemical_formula_structural   GaNi3
_chemical_formula_sum   'Ga144 Ni432'
_cell_volume   14848.33212890
_cell_formula_units_Z   144
loop_
 _symmetry_equiv_pos_site_id
 _symmetry_equiv_pos_as_xyz
  1  'x, y, z'
loop_
 _atom_site_type_symbol
 _atom_site_label
 _atom_site_symmetry_multiplicity
 _atom_site_fract_x
 _atom_site_fract_y
 _atom_site_fract_z
 _atom_site_occupancy
  Ga  Ga0  1  0.30246914  0.32407407  0.10648148  1.0
  Ga  Ga1  1  0.30246914  0.65740741  0.10648148  1.0
  Ga  Ga2  1  0.30246914  0.99074074  0.10648148  1.0
  Ga  Ga3  1  0.63580247  0.32407407  0.10648148  1.0
  Ga  Ga4  1  0.63580247  0.65740741  0.10648148  1.0
  Ga  Ga5  1  0.63580247  0.99074074  0.10648148  1.0
  Ga  Ga6  1  0.96913580  0.32407407  0.10648148  1.0
  Ga  Ga7  1  0.96913580  0.65740741  0.10648148  1.0
  Ga  Ga8  1  0.96913580  0.99074074  0.10648148  1.0
  Ga  Ga9  1  0.04320988  0.21296296  0.05092593  1.0
  Ga  Ga10  1  0.04320988  0.54629630  0.05092593  1.0
  Ga  Ga11  1  0.04320988  0.87962963  0.05092593  1.0
  Ga  Ga12  1  0.37654321  0.21296296  0.05092593  1.0
  Ga  Ga13  1  0.37654321  0.54629630  0.05092593  1.0
  Ga  Ga14  1  0.37654321  0.87962963  0.05092593  1.0
  Ga  Ga15  1  0.70987654  0.21296296  0.05092593  1.0
  Ga  Ga16  1  0.70987654  0.54629630  0.05092593  1.0
  Ga  Ga17  1  0.70987654  0.87962963  0.05092593  1.0
  Ga  Ga18  1  0.21604938  0.23148148  0.00462963  1.0
  Ga  Ga19  1  0.21604938  0.56481481  0.00462963  1.0
  Ga  Ga20  1  0.21604938  0.89814815  0.00462963  1.0
  Ga  Ga21  1  0.54938272  0.23148148  0.00462963  1.0
  Ga  Ga22  1  0.54938272  0.56481481  0.00462963  1.0
  Ga  Ga23  1  0.54938272  0.89814815  0.00462963  1.0
  Ga  Ga24  1  0.88271605  0.23148148  0.00462963  1.0
  Ga  Ga25  1  0.88271605  0.56481481  0.00462963  1.0
  Ga  Ga26  1  0.88271605  0.89814815  0.00462963  1.0
  Ga  Ga27  1  0.14197531  0.00925926  0.06018519  1.0
  Ga  Ga28  1  0.14197531  0.34259259  0.06018519  1.0
  Ga  Ga29  1  0.14197531  0.67592593  0.06018519  1.0
  Ga  Ga30  1  0.47530864  0.00925926  0.06018519  1.0
  Ga  Ga31  1  0.47530864  0.34259259  0.06018519  1.0
  Ga  Ga32  1  0.47530864  0.67592593  0.06018519  1.0
  Ga  Ga33  1  0.80864198  0.00925926  0.06018519  1.0
  Ga  Ga34  1  0.80864198  0.34259259  0.06018519  1.0
  Ga  Ga35  1  0.80864198  0.67592593  0.06018519  1.0
  Ga  Ga36  1  0.15432099  0.21296296  0.21759259  1.0
  Ga  Ga37  1  0.15432099  0.54629630  0.21759259  1.0
  Ga  Ga38  1  0.15432099  0.87962963  0.21759259  1.0
  Ga  Ga39  1  0.48765432  0.21296296  0.21759259  1.0
  Ga  Ga40  1  0.48765432  0.54629630  0.21759259  1.0
  Ga  Ga41  1  0.48765432  0.87962963  0.21759259  1.0
  Ga  Ga42  1  0.82098765  0.21296296  0.21759259  1.0
  Ga  Ga43  1  0.82098765  0.54629630  0.21759259  1.0
  Ga  Ga44  1  0.82098765  0.87962963  0.21759259  1.0
  Ga  Ga45  1  0.22839506  0.10185185  0.16203704  1.0
  Ga  Ga46  1  0.22839506  0.43518519  0.16203704  1.0
  Ga  Ga47  1  0.22839506  0.76851852  0.16203704  1.0
  Ga  Ga48  1  0.56172840  0.10185185  0.16203704  1.0
  Ga  Ga49  1  0.56172840  0.43518519  0.16203704  1.0
  Ga  Ga50  1  0.56172840  0.76851852  0.16203704  1.0
  Ga  Ga51  1  0.89506173  0.10185185  0.16203704  1.0
  Ga  Ga52  1  0.89506173  0.43518519  0.16203704  1.0
  Ga  Ga53  1  0.89506173  0.76851852  0.16203704  1.0
  Ga  Ga54  1  0.06790123  0.12037037  0.11574074  1.0
  Ga  Ga55  1  0.06790123  0.45370370  0.11574074  1.0
  Ga  Ga56  1  0.06790123  0.78703704  0.11574074  1.0
  Ga  Ga57  1  0.40123457  0.12037037  0.11574074  1.0
  Ga  Ga58  1  0.40123457  0.45370370  0.11574074  1.0
  Ga  Ga59  1  0.40123457  0.78703704  0.11574074  1.0
  Ga  Ga60  1  0.73456790  0.12037037  0.11574074  1.0
  Ga  Ga61  1  0.73456790  0.45370370  0.11574074  1.0
  Ga  Ga62  1  0.73456790  0.78703704  0.11574074  1.0
  Ga  Ga63  1  0.32716049  0.23148148  0.17129630  1.0
  Ga  Ga64  1  0.32716049  0.56481481  0.17129630  1.0
  Ga  Ga65  1  0.32716049  0.89814815  0.17129630  1.0
  Ga  Ga66  1  0.66049383  0.23148148  0.17129630  1.0
  Ga  Ga67  1  0.66049383  0.56481481  0.17129630  1.0
  Ga  Ga68  1  0.66049383  0.89814815  0.17129630  1.0
  Ga  Ga69  1  0.99382716  0.23148148  0.17129630  1.0
  Ga  Ga70  1  0.99382716  0.56481481  0.17129630  1.0
  Ga  Ga71  1  0.99382716  0.89814815  0.17129630  1.0
  Ga  Ga72  1  0.00617284  0.10185185  0.32870370  1.0
  Ga  Ga73  1  0.00617284  0.43518519  0.32870370  1.0
  Ga  Ga74  1  0.00617284  0.76851852  0.32870370  1.0
  Ga  Ga75  1  0.33950617  0.10185185  0.32870370  1.0
  Ga  Ga76  1  0.33950617  0.43518519  0.32870370  1.0
  Ga  Ga77  1  0.33950617  0.76851852  0.32870370  1.0
  Ga  Ga78  1  0.67283951  0.10185185  0.32870370  1.0
  Ga  Ga79  1  0.67283951  0.43518519  0.32870370  1.0
  Ga  Ga80  1  0.67283951  0.76851852  0.32870370  1.0
  Ga  Ga81  1  0.08024691  0.32407407  0.27314815  1.0
  Ga  Ga82  1  0.08024691  0.65740741  0.27314815  1.0
  Ga  Ga83  1  0.08024691  0.99074074  0.27314815  1.0
  Ga  Ga84  1  0.41358025  0.32407407  0.27314815  1.0
  Ga  Ga85  1  0.41358025  0.65740741  0.27314815  1.0
  Ga  Ga86  1  0.41358025  0.99074074  0.27314815  1.0
  Ga  Ga87  1  0.74691358  0.32407407  0.27314815  1.0
  Ga  Ga88  1  0.74691358  0.65740741  0.27314815  1.0
  Ga  Ga89  1  0.74691358  0.99074074  0.27314815  1.0
  Ga  Ga90  1  0.25308642  0.00925926  0.22685185  1.0
  Ga  Ga91  1  0.25308642  0.34259259  0.22685185  1.0
  Ga  Ga92  1  0.25308642  0.67592593  0.22685185  1.0
  Ga  Ga93  1  0.58641975  0.00925926  0.22685185  1.0
  Ga  Ga94  1  0.58641975  0.34259259  0.22685185  1.0
  Ga  Ga95  1  0.58641975  0.67592593  0.22685185  1.0
  Ga  Ga96  1  0.91975309  0.00925926  0.22685185  1.0
  Ga  Ga97  1  0.91975309  0.34259259  0.22685185  1.0
  Ga  Ga98  1  0.91975309  0.67592593  0.22685185  1.0
  Ga  Ga99  1  0.17901235  0.12037037  0.28240741  1.0
  Ga  Ga100  1  0.17901235  0.45370370  0.28240741  1.0
  Ga  Ga101  1  0.17901235  0.78703704  0.28240741  1.0
  Ga  Ga102  1  0.51234568  0.12037037  0.28240741  1.0
  Ga  Ga103  1  0.51234568  0.45370370  0.28240741  1.0
  Ga  Ga104  1  0.51234568  0.78703704  0.28240741  1.0
  Ga  Ga105  1  0.84567901  0.12037037  0.28240741  1.0
  Ga  Ga106  1  0.84567901  0.45370370  0.28240741  1.0
  Ga  Ga107  1  0.84567901  0.78703704  0.28240741  1.0
  Ga  Ga108  1  0.19135802  0.32407407  0.43981481  1.0
  Ga  Ga109  1  0.19135802  0.65740741  0.43981481  1.0
  Ga  Ga110  1  0.19135802  0.99074074  0.43981481  1.0
  Ga  Ga111  1  0.52469136  0.32407407  0.43981481  1.0
  Ga  Ga112  1  0.52469136  0.65740741  0.43981481  1.0
  Ga  Ga113  1  0.52469136  0.99074074  0.43981481  1.0
  Ga  Ga114  1  0.85802469  0.32407407  0.43981481  1.0
  Ga  Ga115  1  0.85802469  0.65740741  0.43981481  1.0
  Ga  Ga116  1  0.85802469  0.99074074  0.43981481  1.0
  Ga  Ga117  1  0.26543210  0.21296296  0.38425926  1.0
  Ga  Ga118  1  0.26543210  0.54629630  0.38425926  1.0
  Ga  Ga119  1  0.26543210  0.87962963  0.38425926  1.0
  Ga  Ga120  1  0.59876543  0.21296296  0.38425926  1.0
  Ga  Ga121  1  0.59876543  0.54629630  0.38425926  1.0
  Ga  Ga122  1  0.59876543  0.87962963  0.38425926  1.0
  Ga  Ga123  1  0.93209877  0.21296296  0.38425926  1.0
  Ga  Ga124  1  0.93209877  0.54629630  0.38425926  1.0
  Ga  Ga125  1  0.93209877  0.87962963  0.38425926  1.0
  Ga  Ga126  1  0.10493827  0.23148148  0.33796296  1.0
  Ga  Ga127  1  0.10493827  0.56481481  0.33796296  1.0
  Ga  Ga128  1  0.10493827  0.89814815  0.33796296  1.0
  Ga  Ga129  1  0.43827160  0.23148148  0.33796296  1.0
  Ga  Ga130  1  0.43827160  0.56481481  0.33796296  1.0
  Ga  Ga131  1  0.43827160  0.89814815  0.33796296  1.0
  Ga  Ga132  1  0.77160494  0.23148148  0.33796296  1.0
  Ga  Ga133  1  0.77160494  0.56481481  0.33796296  1.0
  Ga  Ga134  1  0.77160494  0.89814815  0.33796296  1.0
  Ga  Ga135  1  0.03086420  0.00925926  0.39351852  1.0
  Ga  Ga136  1  0.03086420  0.34259259  0.39351852  1.0
  Ga  Ga137  1  0.03086420  0.67592593  0.39351852  1.0
  Ga  Ga138  1  0.36419753  0.00925926  0.39351852  1.0
  Ga  Ga139  1  0.36419753  0.34259259  0.39351852  1.0
  Ga  Ga140  1  0.36419753  0.67592593  0.39351852  1.0
  Ga  Ga141  1  0.69753086  0.00925926  0.39351852  1.0
  Ga  Ga142  1  0.69753086  0.34259259  0.39351852  1.0
  Ga  Ga143  1  0.69753086  0.67592593  0.39351852  1.0
  Ni  Ni144  1  0.27168146  0.06504439  0.08738903  1.0
  Ni  Ni145  1  0.27168146  0.39837772  0.08738903  1.0
  Ni  Ni146  1  0.27168146  0.73171106  0.08738903  1.0
  Ni  Ni147  1  0.60501480  0.06504439  0.08738903  1.0
  Ni  Ni148  1  0.60501480  0.39837772  0.08738903  1.0
  Ni  Ni149  1  0.60501480  0.73171106  0.08738903  1.0
  Ni  Ni150  1  0.93834813  0.06504439  0.08738903  1.0
  Ni  Ni151  1  0.93834813  0.39837772  0.08738903  1.0
  Ni  Ni152  1  0.93834813  0.73171106  0.08738903  1.0
  Ni  Ni153  1  0.01242220  0.28726661  0.03183347  1.0
  Ni  Ni154  1  0.01242220  0.62059994  0.03183347  1.0
  Ni  Ni155  1  0.01242220  0.95393328  0.03183347  1.0
  Ni  Ni156  1  0.34575554  0.28726661  0.03183347  1.0
  Ni  Ni157  1  0.34575554  0.62059994  0.03183347  1.0
  Ni  Ni158  1  0.34575554  0.95393328  0.03183347  1.0
  Ni  Ni159  1  0.67908887  0.28726661  0.03183347  1.0
  Ni  Ni160  1  0.67908887  0.62059994  0.03183347  1.0
  Ni  Ni161  1  0.67908887  0.95393328  0.03183347  1.0
  Ni  Ni162  1  0.01150391  0.11991122  0.03252219  1.0
  Ni  Ni163  1  0.01150391  0.45324456  0.03252219  1.0
  Ni  Ni164  1  0.01150391  0.78657789  0.03252219  1.0
  Ni  Ni165  1  0.34483724  0.11991122  0.03252219  1.0
  Ni  Ni166  1  0.34483724  0.45324456  0.03252219  1.0
  Ni  Ni167  1  0.34483724  0.78657789  0.03252219  1.0
  Ni  Ni168  1  0.67817057  0.11991122  0.03252219  1.0
  Ni  Ni169  1  0.67817057  0.45324456  0.03252219  1.0
  Ni  Ni170  1  0.67817057  0.78657789  0.03252219  1.0
  Ni  Ni171  1  0.27076317  0.23102233  0.08807775  1.0
  Ni  Ni172  1  0.27076317  0.56435567  0.08807775  1.0
  Ni  Ni173  1  0.27076317  0.89768900  0.08807775  1.0
  Ni  Ni174  1  0.60409650  0.23102233  0.08807775  1.0
  Ni  Ni175  1  0.60409650  0.56435567  0.08807775  1.0
  Ni  Ni176  1  0.60409650  0.89768900  0.08807775  1.0
  Ni  Ni177  1  0.93742983  0.23102233  0.08807775  1.0
  Ni  Ni178  1  0.93742983  0.56435567  0.08807775  1.0
  Ni  Ni179  1  0.93742983  0.89768900  0.08807775  1.0
  Ni  Ni180  1  0.14274056  0.17615550  0.06064433  1.0
  Ni  Ni181  1  0.14274056  0.50948883  0.06064433  1.0
  Ni  Ni182  1  0.14274056  0.84282217  0.06064433  1.0
  Ni  Ni183  1  0.47607389  0.17615550  0.06064433  1.0
  Ni  Ni184  1  0.47607389  0.50948883  0.06064433  1.0
  Ni  Ni185  1  0.47607389  0.84282217  0.06064433  1.0
  Ni  Ni186  1  0.80940722  0.17615550  0.06064433  1.0
  Ni  Ni187  1  0.80940722  0.50948883  0.06064433  1.0
  Ni  Ni188  1  0.80940722  0.84282217  0.06064433  1.0
  Ni  Ni189  1  0.21681463  0.06504439  0.00508878  1.0
  Ni  Ni190  1  0.21681463  0.39837772  0.00508878  1.0
  Ni  Ni191  1  0.21681463  0.73171106  0.00508878  1.0
  Ni  Ni192  1  0.55014796  0.06504439  0.00508878  1.0
  Ni  Ni193  1  0.55014796  0.39837772  0.00508878  1.0
  Ni  Ni194  1  0.55014796  0.73171106  0.00508878  1.0
  Ni  Ni195  1  0.88348130  0.06504439  0.00508878  1.0
  Ni  Ni196  1  0.88348130  0.39837772  0.00508878  1.0
  Ni  Ni197  1  0.88348130  0.73171106  0.00508878  1.0
  Ni  Ni198  1  0.24683706  0.15717783  0.02372208  1.0
  Ni  Ni199  1  0.24683706  0.49051117  0.02372208  1.0
  Ni  Ni200  1  0.24683706  0.82384450  0.02372208  1.0
  Ni  Ni201  1  0.58017039  0.15717783  0.02372208  1.0
  Ni  Ni202  1  0.58017039  0.49051117  0.02372208  1.0
  Ni  Ni203  1  0.58017039  0.82384450  0.02372208  1.0
  Ni  Ni204  1  0.91350372  0.15717783  0.02372208  1.0
  Ni  Ni205  1  0.91350372  0.49051117  0.02372208  1.0
  Ni  Ni206  1  0.91350372  0.82384450  0.02372208  1.0
  Ni  Ni207  1  0.17276298  0.26828894  0.07927764  1.0
  Ni  Ni208  1  0.17276298  0.60162228  0.07927764  1.0
  Ni  Ni209  1  0.17276298  0.93495561  0.07927764  1.0
  Ni  Ni210  1  0.50609631  0.26828894  0.07927764  1.0
  Ni  Ni211  1  0.50609631  0.60162228  0.07927764  1.0
  Ni  Ni212  1  0.50609631  0.93495561  0.07927764  1.0
  Ni  Ni213  1  0.83942965  0.26828894  0.07927764  1.0
  Ni  Ni214  1  0.83942965  0.60162228  0.07927764  1.0
  Ni  Ni215  1  0.83942965  0.93495561  0.07927764  1.0
  Ni  Ni216  1  0.17368128  0.10231100  0.07858892  1.0
  Ni  Ni217  1  0.17368128  0.43564433  0.07858892  1.0
  Ni  Ni218  1  0.17368128  0.76897767  0.07858892  1.0
  Ni  Ni219  1  0.50701461  0.10231100  0.07858892  1.0
  Ni  Ni220  1  0.50701461  0.43564433  0.07858892  1.0
  Ni  Ni221  1  0.50701461  0.76897767  0.07858892  1.0
  Ni  Ni222  1  0.84034794  0.10231100  0.07858892  1.0
  Ni  Ni223  1  0.84034794  0.43564433  0.07858892  1.0
  Ni  Ni224  1  0.84034794  0.76897767  0.07858892  1.0
  Ni  Ni225  1  0.24775535  0.32453322  0.02303336  1.0
  Ni  Ni226  1  0.24775535  0.65786656  0.02303336  1.0
  Ni  Ni227  1  0.24775535  0.99119989  0.02303336  1.0
  Ni  Ni228  1  0.58108869  0.32453322  0.02303336  1.0
  Ni  Ni229  1  0.58108869  0.65786656  0.02303336  1.0
  Ni  Ni230  1  0.58108869  0.99119989  0.02303336  1.0
  Ni  Ni231  1  0.91442202  0.32453322  0.02303336  1.0
  Ni  Ni232  1  0.91442202  0.65786656  0.02303336  1.0
  Ni  Ni233  1  0.91442202  0.99119989  0.02303336  1.0
  Ni  Ni234  1  0.04244463  0.04606672  0.05046678  1.0
  Ni  Ni235  1  0.04244463  0.37940006  0.05046678  1.0
  Ni  Ni236  1  0.04244463  0.71273339  0.05046678  1.0
  Ni  Ni237  1  0.37577796  0.04606672  0.05046678  1.0
  Ni  Ni238  1  0.37577796  0.37940006  0.05046678  1.0
  Ni  Ni239  1  0.37577796  0.71273339  0.05046678  1.0
  Ni  Ni240  1  0.70911130  0.04606672  0.05046678  1.0
  Ni  Ni241  1  0.70911130  0.37940006  0.05046678  1.0
  Ni  Ni242  1  0.70911130  0.71273339  0.05046678  1.0
  Ni  Ni243  1  0.30170389  0.15717783  0.10602233  1.0
  Ni  Ni244  1  0.30170389  0.49051117  0.10602233  1.0
  Ni  Ni245  1  0.30170389  0.82384450  0.10602233  1.0
  Ni  Ni246  1  0.63503722  0.15717783  0.10602233  1.0
  Ni  Ni247  1  0.63503722  0.49051117  0.10602233  1.0
  Ni  Ni248  1  0.63503722  0.82384450  0.10602233  1.0
  Ni  Ni249  1  0.96837056  0.15717783  0.10602233  1.0
  Ni  Ni250  1  0.96837056  0.49051117  0.10602233  1.0
  Ni  Ni251  1  0.96837056  0.82384450  0.10602233  1.0
  Ni  Ni252  1  0.12353331  0.28726661  0.19850014  1.0
  Ni  Ni253  1  0.12353331  0.62059994  0.19850014  1.0
  Ni  Ni254  1  0.12353331  0.95393328  0.19850014  1.0
  Ni  Ni255  1  0.45686665  0.28726661  0.19850014  1.0
  Ni  Ni256  1  0.45686665  0.62059994  0.19850014  1.0
  Ni  Ni257  1  0.45686665  0.95393328  0.19850014  1.0
  Ni  Ni258  1  0.79019998  0.28726661  0.19850014  1.0
  Ni  Ni259  1  0.79019998  0.62059994  0.19850014  1.0
  Ni  Ni260  1  0.79019998  0.95393328  0.19850014  1.0
  Ni  Ni261  1  0.19760739  0.17615550  0.14294458  1.0
  Ni  Ni262  1  0.19760739  0.50948883  0.14294458  1.0
  Ni  Ni263  1  0.19760739  0.84282217  0.14294458  1.0
  Ni  Ni264  1  0.53094072  0.17615550  0.14294458  1.0
  Ni  Ni265  1  0.53094072  0.50948883  0.14294458  1.0
  Ni  Ni266  1  0.53094072  0.84282217  0.14294458  1.0
  Ni  Ni267  1  0.86427406  0.17615550  0.14294458  1.0
  Ni  Ni268  1  0.86427406  0.50948883  0.14294458  1.0
  Ni  Ni269  1  0.86427406  0.84282217  0.14294458  1.0
  Ni  Ni270  1  0.19668909  0.00880011  0.14363331  1.0
  Ni  Ni271  1  0.19668909  0.34213344  0.14363331  1.0
  Ni  Ni272  1  0.19668909  0.67546678  0.14363331  1.0
  Ni  Ni273  1  0.53002243  0.00880011  0.14363331  1.0
  Ni  Ni274  1  0.53002243  0.34213344  0.14363331  1.0
  Ni  Ni275  1  0.53002243  0.67546678  0.14363331  1.0
  Ni  Ni276  1  0.86335576  0.00880011  0.14363331  1.0
  Ni  Ni277  1  0.86335576  0.34213344  0.14363331  1.0
  Ni  Ni278  1  0.86335576  0.67546678  0.14363331  1.0
  Ni  Ni279  1  0.12261502  0.11991122  0.19918886  1.0
  Ni  Ni280  1  0.12261502  0.45324456  0.19918886  1.0
  Ni  Ni281  1  0.12261502  0.78657789  0.19918886  1.0
  Ni  Ni282  1  0.45594835  0.11991122  0.19918886  1.0
  Ni  Ni283  1  0.45594835  0.45324456  0.19918886  1.0
  Ni  Ni284  1  0.45594835  0.78657789  0.19918886  1.0
  Ni  Ni285  1  0.78928169  0.11991122  0.19918886  1.0
  Ni  Ni286  1  0.78928169  0.45324456  0.19918886  1.0
  Ni  Ni287  1  0.78928169  0.78657789  0.19918886  1.0
  Ni  Ni288  1  0.32792574  0.06504439  0.17175544  1.0
  Ni  Ni289  1  0.32792574  0.39837772  0.17175544  1.0
  Ni  Ni290  1  0.32792574  0.73171106  0.17175544  1.0
  Ni  Ni291  1  0.66125907  0.06504439  0.17175544  1.0
  Ni  Ni292  1  0.66125907  0.39837772  0.17175544  1.0
  Ni  Ni293  1  0.66125907  0.73171106  0.17175544  1.0
  Ni  Ni294  1  0.99459241  0.06504439  0.17175544  1.0
  Ni  Ni295  1  0.99459241  0.39837772  0.17175544  1.0
  Ni  Ni296  1  0.99459241  0.73171106  0.17175544  1.0
  Ni  Ni297  1  0.06866648  0.28726661  0.11619989  1.0
  Ni  Ni298  1  0.06866648  0.62059994  0.11619989  1.0
  Ni  Ni299  1  0.06866648  0.95393328  0.11619989  1.0
  Ni  Ni300  1  0.40199981  0.28726661  0.11619989  1.0
  Ni  Ni301  1  0.40199981  0.62059994  0.11619989  1.0
  Ni  Ni302  1  0.40199981  0.95393328  0.11619989  1.0
  Ni  Ni303  1  0.73533315  0.28726661  0.11619989  1.0
  Ni  Ni304  1  0.73533315  0.62059994  0.11619989  1.0
  Ni  Ni305  1  0.73533315  0.95393328  0.11619989  1.0
  Ni  Ni306  1  0.09868891  0.04606672  0.13483319  1.0
  Ni  Ni307  1  0.09868891  0.37940006  0.13483319  1.0
  Ni  Ni308  1  0.09868891  0.71273339  0.13483319  1.0
  Ni  Ni309  1  0.43202224  0.04606672  0.13483319  1.0
  Ni  Ni310  1  0.43202224  0.37940006  0.13483319  1.0
  Ni  Ni311  1  0.43202224  0.71273339  0.13483319  1.0
  Ni  Ni312  1  0.76535557  0.04606672  0.13483319  1.0
  Ni  Ni313  1  0.76535557  0.37940006  0.13483319  1.0
  Ni  Ni314  1  0.76535557  0.71273339  0.13483319  1.0
  Ni  Ni315  1  0.02461483  0.15717783  0.19038875  1.0
  Ni  Ni316  1  0.02461483  0.49051117  0.19038875  1.0
  Ni  Ni317  1  0.02461483  0.82384450  0.19038875  1.0
  Ni  Ni318  1  0.35794817  0.15717783  0.19038875  1.0
  Ni  Ni319  1  0.35794817  0.49051117  0.19038875  1.0
  Ni  Ni320  1  0.35794817  0.82384450  0.19038875  1.0
  Ni  Ni321  1  0.69128150  0.15717783  0.19038875  1.0
  Ni  Ni322  1  0.69128150  0.49051117  0.19038875  1.0
  Ni  Ni323  1  0.69128150  0.82384450  0.19038875  1.0
  Ni  Ni324  1  0.02553313  0.32453322  0.18970003  1.0
  Ni  Ni325  1  0.02553313  0.65786656  0.18970003  1.0
  Ni  Ni326  1  0.02553313  0.99119989  0.18970003  1.0
  Ni  Ni327  1  0.35886646  0.32453322  0.18970003  1.0
  Ni  Ni328  1  0.35886646  0.65786656  0.18970003  1.0
  Ni  Ni329  1  0.35886646  0.99119989  0.18970003  1.0
  Ni  Ni330  1  0.69219980  0.32453322  0.18970003  1.0
  Ni  Ni331  1  0.69219980  0.65786656  0.18970003  1.0
  Ni  Ni332  1  0.69219980  0.99119989  0.18970003  1.0
  Ni  Ni333  1  0.09960720  0.21342211  0.13414447  1.0
  Ni  Ni334  1  0.09960720  0.54675544  0.13414447  1.0
  Ni  Ni335  1  0.09960720  0.88008878  0.13414447  1.0
  Ni  Ni336  1  0.43294054  0.21342211  0.13414447  1.0
  Ni  Ni337  1  0.43294054  0.54675544  0.13414447  1.0
  Ni  Ni338  1  0.43294054  0.88008878  0.13414447  1.0
  Ni  Ni339  1  0.76627387  0.21342211  0.13414447  1.0
  Ni  Ni340  1  0.76627387  0.54675544  0.13414447  1.0
  Ni  Ni341  1  0.76627387  0.88008878  0.13414447  1.0
  Ni  Ni342  1  0.22762981  0.26828894  0.16157789  1.0
  Ni  Ni343  1  0.22762981  0.60162228  0.16157789  1.0
  Ni  Ni344  1  0.22762981  0.93495561  0.16157789  1.0
  Ni  Ni345  1  0.56096315  0.26828894  0.16157789  1.0
  Ni  Ni346  1  0.56096315  0.60162228  0.16157789  1.0
  Ni  Ni347  1  0.56096315  0.93495561  0.16157789  1.0
  Ni  Ni348  1  0.89429648  0.26828894  0.16157789  1.0
  Ni  Ni349  1  0.89429648  0.60162228  0.16157789  1.0
  Ni  Ni350  1  0.89429648  0.93495561  0.16157789  1.0
  Ni  Ni351  1  0.15355574  0.04606672  0.21713344  1.0
  Ni  Ni352  1  0.15355574  0.37940006  0.21713344  1.0
  Ni  Ni353  1  0.15355574  0.71273339  0.21713344  1.0
  Ni  Ni354  1  0.48688907  0.04606672  0.21713344  1.0
  Ni  Ni355  1  0.48688907  0.37940006  0.21713344  1.0
  Ni  Ni356  1  0.48688907  0.71273339  0.21713344  1.0
  Ni  Ni357  1  0.82022241  0.04606672  0.21713344  1.0
  Ni  Ni358  1  0.82022241  0.37940006  0.21713344  1.0
  Ni  Ni359  1  0.82022241  0.71273339  0.21713344  1.0
  Ni  Ni360  1  0.30871850  0.17615550  0.30961125  1.0
  Ni  Ni361  1  0.30871850  0.50948883  0.30961125  1.0
  Ni  Ni362  1  0.30871850  0.84282217  0.30961125  1.0
  Ni  Ni363  1  0.64205183  0.17615550  0.30961125  1.0
  Ni  Ni364  1  0.64205183  0.50948883  0.30961125  1.0
  Ni  Ni365  1  0.64205183  0.84282217  0.30961125  1.0
  Ni  Ni366  1  0.97538517  0.17615550  0.30961125  1.0
  Ni  Ni367  1  0.97538517  0.50948883  0.30961125  1.0
  Ni  Ni368  1  0.97538517  0.84282217  0.30961125  1.0
  Ni  Ni369  1  0.04945924  0.06504439  0.25405569  1.0
  Ni  Ni370  1  0.04945924  0.39837772  0.25405569  1.0
  Ni  Ni371  1  0.04945924  0.73171106  0.25405569  1.0
  Ni  Ni372  1  0.38279257  0.06504439  0.25405569  1.0
  Ni  Ni373  1  0.38279257  0.39837772  0.25405569  1.0
  Ni  Ni374  1  0.38279257  0.73171106  0.25405569  1.0
  Ni  Ni375  1  0.71612591  0.06504439  0.25405569  1.0
  Ni  Ni376  1  0.71612591  0.39837772  0.25405569  1.0
  Ni  Ni377  1  0.71612591  0.73171106  0.25405569  1.0
  Ni  Ni378  1  0.04854094  0.23102233  0.25474442  1.0
  Ni  Ni379  1  0.04854094  0.56435567  0.25474442  1.0
  Ni  Ni380  1  0.04854094  0.89768900  0.25474442  1.0
  Ni  Ni381  1  0.38187428  0.23102233  0.25474442  1.0
  Ni  Ni382  1  0.38187428  0.56435567  0.25474442  1.0
  Ni  Ni383  1  0.38187428  0.89768900  0.25474442  1.0
  Ni  Ni384  1  0.71520761  0.23102233  0.25474442  1.0
  Ni  Ni385  1  0.71520761  0.56435567  0.25474442  1.0
  Ni  Ni386  1  0.71520761  0.89768900  0.25474442  1.0
  Ni  Ni387  1  0.30780020  0.00880011  0.31029997  1.0
  Ni  Ni388  1  0.30780020  0.34213344  0.31029997  1.0
  Ni  Ni389  1  0.30780020  0.67546678  0.31029997  1.0
  Ni  Ni390  1  0.64113354  0.00880011  0.31029997  1.0
  Ni  Ni391  1  0.64113354  0.34213344  0.31029997  1.0
  Ni  Ni392  1  0.64113354  0.67546678  0.31029997  1.0
  Ni  Ni393  1  0.97446687  0.00880011  0.31029997  1.0
  Ni  Ni394  1  0.97446687  0.34213344  0.31029997  1.0
  Ni  Ni395  1  0.97446687  0.67546678  0.31029997  1.0
  Ni  Ni396  1  0.17977759  0.28726661  0.28286656  1.0
  Ni  Ni397  1  0.17977759  0.62059994  0.28286656  1.0
  Ni  Ni398  1  0.17977759  0.95393328  0.28286656  1.0
  Ni  Ni399  1  0.51311093  0.28726661  0.28286656  1.0
  Ni  Ni400  1  0.51311093  0.62059994  0.28286656  1.0
  Ni  Ni401  1  0.51311093  0.95393328  0.28286656  1.0
  Ni  Ni402  1  0.84644426  0.28726661  0.28286656  1.0
  Ni  Ni403  1  0.84644426  0.62059994  0.28286656  1.0
  Ni  Ni404  1  0.84644426  0.95393328  0.28286656  1.0
  Ni  Ni405  1  0.25385167  0.17615550  0.22731100  1.0
  Ni  Ni406  1  0.25385167  0.50948883  0.22731100  1.0
  Ni  Ni407  1  0.25385167  0.84282217  0.22731100  1.0
  Ni  Ni408  1  0.58718500  0.17615550  0.22731100  1.0
  Ni  Ni409  1  0.58718500  0.50948883  0.22731100  1.0
  Ni  Ni410  1  0.58718500  0.84282217  0.22731100  1.0
  Ni  Ni411  1  0.92051833  0.17615550  0.22731100  1.0
  Ni  Ni412  1  0.92051833  0.50948883  0.22731100  1.0
  Ni  Ni413  1  0.92051833  0.84282217  0.22731100  1.0
  Ni  Ni414  1  0.28387409  0.26828894  0.24594431  1.0
  Ni  Ni415  1  0.28387409  0.60162228  0.24594431  1.0
  Ni  Ni416  1  0.28387409  0.93495561  0.24594431  1.0
  Ni  Ni417  1  0.61720743  0.26828894  0.24594431  1.0
  Ni  Ni418  1  0.61720743  0.60162228  0.24594431  1.0
  Ni  Ni419  1  0.61720743  0.93495561  0.24594431  1.0
  Ni  Ni420  1  0.95054076  0.26828894  0.24594431  1.0
  Ni  Ni421  1  0.95054076  0.60162228  0.24594431  1.0
  Ni  Ni422  1  0.95054076  0.93495561  0.24594431  1.0
  Ni  Ni423  1  0.20980002  0.04606672  0.30149986  1.0
  Ni  Ni424  1  0.20980002  0.37940006  0.30149986  1.0
  Ni  Ni425  1  0.20980002  0.71273339  0.30149986  1.0
  Ni  Ni426  1  0.54313335  0.04606672  0.30149986  1.0
  Ni  Ni427  1  0.54313335  0.37940006  0.30149986  1.0
  Ni  Ni428  1  0.54313335  0.71273339  0.30149986  1.0
  Ni  Ni429  1  0.87646669  0.04606672  0.30149986  1.0
  Ni  Ni430  1  0.87646669  0.37940006  0.30149986  1.0
  Ni  Ni431  1  0.87646669  0.71273339  0.30149986  1.0
  Ni  Ni432  1  0.21071831  0.21342211  0.30081114  1.0
  Ni  Ni433  1  0.21071831  0.54675544  0.30081114  1.0
  Ni  Ni434  1  0.21071831  0.88008878  0.30081114  1.0
  Ni  Ni435  1  0.54405165  0.21342211  0.30081114  1.0
  Ni  Ni436  1  0.54405165  0.54675544  0.30081114  1.0
  Ni  Ni437  1  0.54405165  0.88008878  0.30081114  1.0
  Ni  Ni438  1  0.87738498  0.21342211  0.30081114  1.0
  Ni  Ni439  1  0.87738498  0.54675544  0.30081114  1.0
  Ni  Ni440  1  0.87738498  0.88008878  0.30081114  1.0
  Ni  Ni441  1  0.28479239  0.10231100  0.24525558  1.0
  Ni  Ni442  1  0.28479239  0.43564433  0.24525558  1.0
  Ni  Ni443  1  0.28479239  0.76897767  0.24525558  1.0
  Ni  Ni444  1  0.61812572  0.10231100  0.24525558  1.0
  Ni  Ni445  1  0.61812572  0.43564433  0.24525558  1.0
  Ni  Ni446  1  0.61812572  0.76897767  0.24525558  1.0
  Ni  Ni447  1  0.95145906  0.10231100  0.24525558  1.0
  Ni  Ni448  1  0.95145906  0.43564433  0.24525558  1.0
  Ni  Ni449  1  0.95145906  0.76897767  0.24525558  1.0
  Ni  Ni450  1  0.07948167  0.15717783  0.27268900  1.0
  Ni  Ni451  1  0.07948167  0.49051117  0.27268900  1.0
  Ni  Ni452  1  0.07948167  0.82384450  0.27268900  1.0
  Ni  Ni453  1  0.41281500  0.15717783  0.27268900  1.0
  Ni  Ni454  1  0.41281500  0.49051117  0.27268900  1.0
  Ni  Ni455  1  0.41281500  0.82384450  0.27268900  1.0
  Ni  Ni456  1  0.74614833  0.15717783  0.27268900  1.0
  Ni  Ni457  1  0.74614833  0.49051117  0.27268900  1.0
  Ni  Ni458  1  0.74614833  0.82384450  0.27268900  1.0
  Ni  Ni459  1  0.00540759  0.26828894  0.32824456  1.0
  Ni  Ni460  1  0.00540759  0.60162228  0.32824456  1.0
  Ni  Ni461  1  0.00540759  0.93495561  0.32824456  1.0
  Ni  Ni462  1  0.33874093  0.26828894  0.32824456  1.0
  Ni  Ni463  1  0.33874093  0.60162228  0.32824456  1.0
  Ni  Ni464  1  0.33874093  0.93495561  0.32824456  1.0
  Ni  Ni465  1  0.67207426  0.26828894  0.32824456  1.0
  Ni  Ni466  1  0.67207426  0.60162228  0.32824456  1.0
  Ni  Ni467  1  0.67207426  0.93495561  0.32824456  1.0
  Ni  Ni468  1  0.16057035  0.06504439  0.42072236  1.0
  Ni  Ni469  1  0.16057035  0.39837772  0.42072236  1.0
  Ni  Ni470  1  0.16057035  0.73171106  0.42072236  1.0
  Ni  Ni471  1  0.49390369  0.06504439  0.42072236  1.0
  Ni  Ni472  1  0.49390369  0.39837772  0.42072236  1.0
  Ni  Ni473  1  0.49390369  0.73171106  0.42072236  1.0
  Ni  Ni474  1  0.82723702  0.06504439  0.42072236  1.0
  Ni  Ni475  1  0.82723702  0.39837772  0.42072236  1.0
  Ni  Ni476  1  0.82723702  0.73171106  0.42072236  1.0
  Ni  Ni477  1  0.23464443  0.28726661  0.36516681  1.0
  Ni  Ni478  1  0.23464443  0.62059994  0.36516681  1.0
  Ni  Ni479  1  0.23464443  0.95393328  0.36516681  1.0
  Ni  Ni480  1  0.56797776  0.28726661  0.36516681  1.0
  Ni  Ni481  1  0.56797776  0.62059994  0.36516681  1.0
  Ni  Ni482  1  0.56797776  0.95393328  0.36516681  1.0
  Ni  Ni483  1  0.90131109  0.28726661  0.36516681  1.0
  Ni  Ni484  1  0.90131109  0.62059994  0.36516681  1.0
  Ni  Ni485  1  0.90131109  0.95393328  0.36516681  1.0
  Ni  Ni486  1  0.23372613  0.11991122  0.36585553  1.0
  Ni  Ni487  1  0.23372613  0.45324456  0.36585553  1.0
  Ni  Ni488  1  0.23372613  0.78657789  0.36585553  1.0
  Ni  Ni489  1  0.56705946  0.11991122  0.36585553  1.0
  Ni  Ni490  1  0.56705946  0.45324456  0.36585553  1.0
  Ni  Ni491  1  0.56705946  0.78657789  0.36585553  1.0
  Ni  Ni492  1  0.90039280  0.11991122  0.36585553  1.0
  Ni  Ni493  1  0.90039280  0.45324456  0.36585553  1.0
  Ni  Ni494  1  0.90039280  0.78657789  0.36585553  1.0
  Ni  Ni495  1  0.15965206  0.23102233  0.42141108  1.0
  Ni  Ni496  1  0.15965206  0.56435567  0.42141108  1.0
  Ni  Ni497  1  0.15965206  0.89768900  0.42141108  1.0
  Ni  Ni498  1  0.49298539  0.23102233  0.42141108  1.0
  Ni  Ni499  1  0.49298539  0.56435567  0.42141108  1.0
  Ni  Ni500  1  0.49298539  0.89768900  0.42141108  1.0
  Ni  Ni501  1  0.82631872  0.23102233  0.42141108  1.0
  Ni  Ni502  1  0.82631872  0.56435567  0.42141108  1.0
  Ni  Ni503  1  0.82631872  0.89768900  0.42141108  1.0
  Ni  Ni504  1  0.03162944  0.17615550  0.39397767  1.0
  Ni  Ni505  1  0.03162944  0.50948883  0.39397767  1.0
  Ni  Ni506  1  0.03162944  0.84282217  0.39397767  1.0
  Ni  Ni507  1  0.36496278  0.17615550  0.39397767  1.0
  Ni  Ni508  1  0.36496278  0.50948883  0.39397767  1.0
  Ni  Ni509  1  0.36496278  0.84282217  0.39397767  1.0
  Ni  Ni510  1  0.69829611  0.17615550  0.39397767  1.0
  Ni  Ni511  1  0.69829611  0.50948883  0.39397767  1.0
  Ni  Ni512  1  0.69829611  0.84282217  0.39397767  1.0
  Ni  Ni513  1  0.10570352  0.06504439  0.33842211  1.0
  Ni  Ni514  1  0.10570352  0.39837772  0.33842211  1.0
  Ni  Ni515  1  0.10570352  0.73171106  0.33842211  1.0
  Ni  Ni516  1  0.43903685  0.06504439  0.33842211  1.0
  Ni  Ni517  1  0.43903685  0.39837772  0.33842211  1.0
  Ni  Ni518  1  0.43903685  0.73171106  0.33842211  1.0
  Ni  Ni519  1  0.77237019  0.06504439  0.33842211  1.0
  Ni  Ni520  1  0.77237019  0.39837772  0.33842211  1.0
  Ni  Ni521  1  0.77237019  0.73171106  0.33842211  1.0
  Ni  Ni522  1  0.13572594  0.15717783  0.35705542  1.0
  Ni  Ni523  1  0.13572594  0.49051117  0.35705542  1.0
  Ni  Ni524  1  0.13572594  0.82384450  0.35705542  1.0
  Ni  Ni525  1  0.46905928  0.15717783  0.35705542  1.0
  Ni  Ni526  1  0.46905928  0.49051117  0.35705542  1.0
  Ni  Ni527  1  0.46905928  0.82384450  0.35705542  1.0
  Ni  Ni528  1  0.80239261  0.15717783  0.35705542  1.0
  Ni  Ni529  1  0.80239261  0.49051117  0.35705542  1.0
  Ni  Ni530  1  0.80239261  0.82384450  0.35705542  1.0
  Ni  Ni531  1  0.06165187  0.26828894  0.41261097  1.0
  Ni  Ni532  1  0.06165187  0.60162228  0.41261097  1.0
  Ni  Ni533  1  0.06165187  0.93495561  0.41261097  1.0
  Ni  Ni534  1  0.39498520  0.26828894  0.41261097  1.0
  Ni  Ni535  1  0.39498520  0.60162228  0.41261097  1.0
  Ni  Ni536  1  0.39498520  0.93495561  0.41261097  1.0
  Ni  Ni537  1  0.72831854  0.26828894  0.41261097  1.0
  Ni  Ni538  1  0.72831854  0.60162228  0.41261097  1.0
  Ni  Ni539  1  0.72831854  0.93495561  0.41261097  1.0
  Ni  Ni540  1  0.06257017  0.10231100  0.41192225  1.0
  Ni  Ni541  1  0.06257017  0.43564433  0.41192225  1.0
  Ni  Ni542  1  0.06257017  0.76897767  0.41192225  1.0
  Ni  Ni543  1  0.39590350  0.10231100  0.41192225  1.0
  Ni  Ni544  1  0.39590350  0.43564433  0.41192225  1.0
  Ni  Ni545  1  0.39590350  0.76897767  0.41192225  1.0
  Ni  Ni546  1  0.72923683  0.10231100  0.41192225  1.0
  Ni  Ni547  1  0.72923683  0.43564433  0.41192225  1.0
  Ni  Ni548  1  0.72923683  0.76897767  0.41192225  1.0
  Ni  Ni549  1  0.13664424  0.32453322  0.35636669  1.0
  Ni  Ni550  1  0.13664424  0.65786656  0.35636669  1.0
  Ni  Ni551  1  0.13664424  0.99119989  0.35636669  1.0
  Ni  Ni552  1  0.46997757  0.32453322  0.35636669  1.0
  Ni  Ni553  1  0.46997757  0.65786656  0.35636669  1.0
  Ni  Ni554  1  0.46997757  0.99119989  0.35636669  1.0
  Ni  Ni555  1  0.80331091  0.32453322  0.35636669  1.0
  Ni  Ni556  1  0.80331091  0.65786656  0.35636669  1.0
  Ni  Ni557  1  0.80331091  0.99119989  0.35636669  1.0
  Ni  Ni558  1  0.26466685  0.04606672  0.38380011  1.0
  Ni  Ni559  1  0.26466685  0.37940006  0.38380011  1.0
  Ni  Ni560  1  0.26466685  0.71273339  0.38380011  1.0
  Ni  Ni561  1  0.59800019  0.04606672  0.38380011  1.0
  Ni  Ni562  1  0.59800019  0.37940006  0.38380011  1.0
  Ni  Ni563  1  0.59800019  0.71273339  0.38380011  1.0
  Ni  Ni564  1  0.93133352  0.04606672  0.38380011  1.0
  Ni  Ni565  1  0.93133352  0.37940006  0.38380011  1.0
  Ni  Ni566  1  0.93133352  0.71273339  0.38380011  1.0
  Ni  Ni567  1  0.19059278  0.15717783  0.43935567  1.0
  Ni  Ni568  1  0.19059278  0.49051117  0.43935567  1.0
  Ni  Ni569  1  0.19059278  0.82384450  0.43935567  1.0
  Ni  Ni570  1  0.52392611  0.15717783  0.43935567  1.0
  Ni  Ni571  1  0.52392611  0.49051117  0.43935567  1.0
  Ni  Ni572  1  0.52392611  0.82384450  0.43935567  1.0
  Ni  Ni573  1  0.85725944  0.15717783  0.43935567  1.0
  Ni  Ni574  1  0.85725944  0.49051117  0.43935567  1.0
  Ni  Ni575  1  0.85725944  0.82384450  0.43935567  1.0
