# generated using pymatgen
data_GaNi3
_symmetry_space_group_name_H-M   'P 1'
_cell_length_a   11.04283800
_cell_length_b   31.21608069
_cell_length_c   29.44547292
_cell_angle_alpha   79.83478031
_cell_angle_beta   86.41642301
_cell_angle_gamma   79.81207062
_symmetry_Int_Tables_number   1
_chemical_formula_structural   GaNi3
_chemical_formula_sum   'Ga90 Ni270'
_cell_volume   9828.28291247
_cell_formula_units_Z   90
loop_
 _symmetry_equiv_pos_site_id
 _symmetry_equiv_pos_as_xyz
  1  'x, y, z'
loop_
 _atom_site_type_symbol
 _atom_site_label
 _atom_site_symmetry_multiplicity
 _atom_site_fract_x
 _atom_site_fract_y
 _atom_site_fract_z
 _atom_site_occupancy
  Ga  Ga0  1  0.11805556  0.13020833  0.96354167  1.0
  Ga  Ga1  1  0.11805556  0.46354167  0.96354167  1.0
  Ga  Ga2  1  0.11805556  0.79687500  0.96354167  1.0
  Ga  Ga3  1  0.45138889  0.13020833  0.96354167  1.0
  Ga  Ga4  1  0.45138889  0.46354167  0.96354167  1.0
  Ga  Ga5  1  0.45138889  0.79687500  0.96354167  1.0
  Ga  Ga6  1  0.78472222  0.13020833  0.96354167  1.0
  Ga  Ga7  1  0.78472222  0.46354167  0.96354167  1.0
  Ga  Ga8  1  0.78472222  0.79687500  0.96354167  1.0
  Ga  Ga9  1  0.22916667  0.25520833  0.92187500  1.0
  Ga  Ga10  1  0.22916667  0.58854167  0.92187500  1.0
  Ga  Ga11  1  0.22916667  0.92187500  0.92187500  1.0
  Ga  Ga12  1  0.56250000  0.25520833  0.92187500  1.0
  Ga  Ga13  1  0.56250000  0.58854167  0.92187500  1.0
  Ga  Ga14  1  0.56250000  0.92187500  0.92187500  1.0
  Ga  Ga15  1  0.89583333  0.25520833  0.92187500  1.0
  Ga  Ga16  1  0.89583333  0.58854167  0.92187500  1.0
  Ga  Ga17  1  0.89583333  0.92187500  0.92187500  1.0
  Ga  Ga18  1  0.00694444  0.04687500  0.88020833  1.0
  Ga  Ga19  1  0.00694444  0.38020833  0.88020833  1.0
  Ga  Ga20  1  0.00694444  0.71354167  0.88020833  1.0
  Ga  Ga21  1  0.34027778  0.04687500  0.88020833  1.0
  Ga  Ga22  1  0.34027778  0.38020833  0.88020833  1.0
  Ga  Ga23  1  0.34027778  0.71354167  0.88020833  1.0
  Ga  Ga24  1  0.67361111  0.04687500  0.88020833  1.0
  Ga  Ga25  1  0.67361111  0.38020833  0.88020833  1.0
  Ga  Ga26  1  0.67361111  0.71354167  0.88020833  1.0
  Ga  Ga27  1  0.11805556  0.17187500  0.83854167  1.0
  Ga  Ga28  1  0.11805556  0.50520833  0.83854167  1.0
  Ga  Ga29  1  0.11805556  0.83854167  0.83854167  1.0
  Ga  Ga30  1  0.45138889  0.17187500  0.83854167  1.0
  Ga  Ga31  1  0.45138889  0.50520833  0.83854167  1.0
  Ga  Ga32  1  0.45138889  0.83854167  0.83854167  1.0
  Ga  Ga33  1  0.78472222  0.17187500  0.83854167  1.0
  Ga  Ga34  1  0.78472222  0.50520833  0.83854167  1.0
  Ga  Ga35  1  0.78472222  0.83854167  0.83854167  1.0
  Ga  Ga36  1  0.22916667  0.29687500  0.79687500  1.0
  Ga  Ga37  1  0.22916667  0.63020833  0.79687500  1.0
  Ga  Ga38  1  0.22916667  0.96354167  0.79687500  1.0
  Ga  Ga39  1  0.56250000  0.29687500  0.79687500  1.0
  Ga  Ga40  1  0.56250000  0.63020833  0.79687500  1.0
  Ga  Ga41  1  0.56250000  0.96354167  0.79687500  1.0
  Ga  Ga42  1  0.89583333  0.29687500  0.79687500  1.0
  Ga  Ga43  1  0.89583333  0.63020833  0.79687500  1.0
  Ga  Ga44  1  0.89583333  0.96354167  0.79687500  1.0
  Ga  Ga45  1  0.00694444  0.08854167  0.75520833  1.0
  Ga  Ga46  1  0.00694444  0.42187500  0.75520833  1.0
  Ga  Ga47  1  0.00694444  0.75520833  0.75520833  1.0
  Ga  Ga48  1  0.34027778  0.08854167  0.75520833  1.0
  Ga  Ga49  1  0.34027778  0.42187500  0.75520833  1.0
  Ga  Ga50  1  0.34027778  0.75520833  0.75520833  1.0
  Ga  Ga51  1  0.67361111  0.08854167  0.75520833  1.0
  Ga  Ga52  1  0.67361111  0.42187500  0.75520833  1.0
  Ga  Ga53  1  0.67361111  0.75520833  0.75520833  1.0
  Ga  Ga54  1  0.11805556  0.21354167  0.71354167  1.0
  Ga  Ga55  1  0.11805556  0.54687500  0.71354167  1.0
  Ga  Ga56  1  0.11805556  0.88020833  0.71354167  1.0
  Ga  Ga57  1  0.45138889  0.21354167  0.71354167  1.0
  Ga  Ga58  1  0.45138889  0.54687500  0.71354167  1.0
  Ga  Ga59  1  0.45138889  0.88020833  0.71354167  1.0
  Ga  Ga60  1  0.78472222  0.21354167  0.71354167  1.0
  Ga  Ga61  1  0.78472222  0.54687500  0.71354167  1.0
  Ga  Ga62  1  0.78472222  0.88020833  0.71354167  1.0
  Ga  Ga63  1  0.22916667  0.00520833  0.67187500  1.0
  Ga  Ga64  1  0.22916667  0.33854167  0.67187500  1.0
  Ga  Ga65  1  0.22916667  0.67187500  0.67187500  1.0
  Ga  Ga66  1  0.56250000  0.00520833  0.67187500  1.0
  Ga  Ga67  1  0.56250000  0.33854167  0.67187500  1.0
  Ga  Ga68  1  0.56250000  0.67187500  0.67187500  1.0
  Ga  Ga69  1  0.89583333  0.00520833  0.67187500  1.0
  Ga  Ga70  1  0.89583333  0.33854167  0.67187500  1.0
  Ga  Ga71  1  0.89583333  0.67187500  0.67187500  1.0
  Ga  Ga72  1  0.00694444  0.13020833  0.63020833  1.0
  Ga  Ga73  1  0.00694444  0.46354167  0.63020833  1.0
  Ga  Ga74  1  0.00694444  0.79687500  0.63020833  1.0
  Ga  Ga75  1  0.34027778  0.13020833  0.63020833  1.0
  Ga  Ga76  1  0.34027778  0.46354167  0.63020833  1.0
  Ga  Ga77  1  0.34027778  0.79687500  0.63020833  1.0
  Ga  Ga78  1  0.67361111  0.13020833  0.63020833  1.0
  Ga  Ga79  1  0.67361111  0.46354167  0.63020833  1.0
  Ga  Ga80  1  0.67361111  0.79687500  0.63020833  1.0
  Ga  Ga81  1  0.11805556  0.25520833  0.58854167  1.0
  Ga  Ga82  1  0.11805556  0.58854167  0.58854167  1.0
  Ga  Ga83  1  0.11805556  0.92187500  0.58854167  1.0
  Ga  Ga84  1  0.45138889  0.25520833  0.58854167  1.0
  Ga  Ga85  1  0.45138889  0.58854167  0.58854167  1.0
  Ga  Ga86  1  0.45138889  0.92187500  0.58854167  1.0
  Ga  Ga87  1  0.78472222  0.25520833  0.58854167  1.0
  Ga  Ga88  1  0.78472222  0.58854167  0.58854167  1.0
  Ga  Ga89  1  0.78472222  0.92187500  0.58854167  1.0
  Ni  Ni90  1  0.31250000  0.07812500  0.95312500  1.0
  Ni  Ni91  1  0.31250000  0.41145833  0.95312500  1.0
  Ni  Ni92  1  0.31250000  0.74479167  0.95312500  1.0
  Ni  Ni93  1  0.64583333  0.07812500  0.95312500  1.0
  Ni  Ni94  1  0.64583333  0.41145833  0.95312500  1.0
  Ni  Ni95  1  0.64583333  0.74479167  0.95312500  1.0
  Ni  Ni96  1  0.97916667  0.07812500  0.95312500  1.0
  Ni  Ni97  1  0.97916667  0.41145833  0.95312500  1.0
  Ni  Ni98  1  0.97916667  0.74479167  0.95312500  1.0
  Ni  Ni99  1  0.20138889  0.28645833  0.99479167  1.0
  Ni  Ni100  1  0.20138889  0.61979167  0.99479167  1.0
  Ni  Ni101  1  0.20138889  0.95312500  0.99479167  1.0
  Ni  Ni102  1  0.53472222  0.28645833  0.99479167  1.0
  Ni  Ni103  1  0.53472222  0.61979167  0.99479167  1.0
  Ni  Ni104  1  0.53472222  0.95312500  0.99479167  1.0
  Ni  Ni105  1  0.86805556  0.28645833  0.99479167  1.0
  Ni  Ni106  1  0.86805556  0.61979167  0.99479167  1.0
  Ni  Ni107  1  0.86805556  0.95312500  0.99479167  1.0
  Ni  Ni108  1  0.25694444  0.18229167  0.97395833  1.0
  Ni  Ni109  1  0.25694444  0.51562500  0.97395833  1.0
  Ni  Ni110  1  0.25694444  0.84895833  0.97395833  1.0
  Ni  Ni111  1  0.59027778  0.18229167  0.97395833  1.0
  Ni  Ni112  1  0.59027778  0.51562500  0.97395833  1.0
  Ni  Ni113  1  0.59027778  0.84895833  0.97395833  1.0
  Ni  Ni114  1  0.92361111  0.18229167  0.97395833  1.0
  Ni  Ni115  1  0.92361111  0.51562500  0.97395833  1.0
  Ni  Ni116  1  0.92361111  0.84895833  0.97395833  1.0
  Ni  Ni117  1  0.03472222  0.30729167  0.93229167  1.0
  Ni  Ni118  1  0.03472222  0.64062500  0.93229167  1.0
  Ni  Ni119  1  0.03472222  0.97395833  0.93229167  1.0
  Ni  Ni120  1  0.36805556  0.30729167  0.93229167  1.0
  Ni  Ni121  1  0.36805556  0.64062500  0.93229167  1.0
  Ni  Ni122  1  0.36805556  0.97395833  0.93229167  1.0
  Ni  Ni123  1  0.70138889  0.30729167  0.93229167  1.0
  Ni  Ni124  1  0.70138889  0.64062500  0.93229167  1.0
  Ni  Ni125  1  0.70138889  0.97395833  0.93229167  1.0
  Ni  Ni126  1  0.06250000  0.23437500  0.98437500  1.0
  Ni  Ni127  1  0.06250000  0.56770833  0.98437500  1.0
  Ni  Ni128  1  0.06250000  0.90104167  0.98437500  1.0
  Ni  Ni129  1  0.39583333  0.23437500  0.98437500  1.0
  Ni  Ni130  1  0.39583333  0.56770833  0.98437500  1.0
  Ni  Ni131  1  0.39583333  0.90104167  0.98437500  1.0
  Ni  Ni132  1  0.72916667  0.23437500  0.98437500  1.0
  Ni  Ni133  1  0.72916667  0.56770833  0.98437500  1.0
  Ni  Ni134  1  0.72916667  0.90104167  0.98437500  1.0
  Ni  Ni135  1  0.17361111  0.02604167  0.94270833  1.0
  Ni  Ni136  1  0.17361111  0.35937500  0.94270833  1.0
  Ni  Ni137  1  0.17361111  0.69270833  0.94270833  1.0
  Ni  Ni138  1  0.50694444  0.02604167  0.94270833  1.0
  Ni  Ni139  1  0.50694444  0.35937500  0.94270833  1.0
  Ni  Ni140  1  0.50694444  0.69270833  0.94270833  1.0
  Ni  Ni141  1  0.84027778  0.02604167  0.94270833  1.0
  Ni  Ni142  1  0.84027778  0.35937500  0.94270833  1.0
  Ni  Ni143  1  0.84027778  0.69270833  0.94270833  1.0
  Ni  Ni144  1  0.20138889  0.32812500  0.86979167  1.0
  Ni  Ni145  1  0.20138889  0.66145833  0.86979167  1.0
  Ni  Ni146  1  0.20138889  0.99479167  0.86979167  1.0
  Ni  Ni147  1  0.53472222  0.32812500  0.86979167  1.0
  Ni  Ni148  1  0.53472222  0.66145833  0.86979167  1.0
  Ni  Ni149  1  0.53472222  0.99479167  0.86979167  1.0
  Ni  Ni150  1  0.86805556  0.32812500  0.86979167  1.0
  Ni  Ni151  1  0.86805556  0.66145833  0.86979167  1.0
  Ni  Ni152  1  0.86805556  0.99479167  0.86979167  1.0
  Ni  Ni153  1  0.09027778  0.20312500  0.91145833  1.0
  Ni  Ni154  1  0.09027778  0.53645833  0.91145833  1.0
  Ni  Ni155  1  0.09027778  0.86979167  0.91145833  1.0
  Ni  Ni156  1  0.42361111  0.20312500  0.91145833  1.0
  Ni  Ni157  1  0.42361111  0.53645833  0.91145833  1.0
  Ni  Ni158  1  0.42361111  0.86979167  0.91145833  1.0
  Ni  Ni159  1  0.75694444  0.20312500  0.91145833  1.0
  Ni  Ni160  1  0.75694444  0.53645833  0.91145833  1.0
  Ni  Ni161  1  0.75694444  0.86979167  0.91145833  1.0
  Ni  Ni162  1  0.14583333  0.09895833  0.89062500  1.0
  Ni  Ni163  1  0.14583333  0.43229167  0.89062500  1.0
  Ni  Ni164  1  0.14583333  0.76562500  0.89062500  1.0
  Ni  Ni165  1  0.47916667  0.09895833  0.89062500  1.0
  Ni  Ni166  1  0.47916667  0.43229167  0.89062500  1.0
  Ni  Ni167  1  0.47916667  0.76562500  0.89062500  1.0
  Ni  Ni168  1  0.81250000  0.09895833  0.89062500  1.0
  Ni  Ni169  1  0.81250000  0.43229167  0.89062500  1.0
  Ni  Ni170  1  0.81250000  0.76562500  0.89062500  1.0
  Ni  Ni171  1  0.25694444  0.22395833  0.84895833  1.0
  Ni  Ni172  1  0.25694444  0.55729167  0.84895833  1.0
  Ni  Ni173  1  0.25694444  0.89062500  0.84895833  1.0
  Ni  Ni174  1  0.59027778  0.22395833  0.84895833  1.0
  Ni  Ni175  1  0.59027778  0.55729167  0.84895833  1.0
  Ni  Ni176  1  0.59027778  0.89062500  0.84895833  1.0
  Ni  Ni177  1  0.92361111  0.22395833  0.84895833  1.0
  Ni  Ni178  1  0.92361111  0.55729167  0.84895833  1.0
  Ni  Ni179  1  0.92361111  0.89062500  0.84895833  1.0
  Ni  Ni180  1  0.28472222  0.15104167  0.90104167  1.0
  Ni  Ni181  1  0.28472222  0.48437500  0.90104167  1.0
  Ni  Ni182  1  0.28472222  0.81770833  0.90104167  1.0
  Ni  Ni183  1  0.61805556  0.15104167  0.90104167  1.0
  Ni  Ni184  1  0.61805556  0.48437500  0.90104167  1.0
  Ni  Ni185  1  0.61805556  0.81770833  0.90104167  1.0
  Ni  Ni186  1  0.95138889  0.15104167  0.90104167  1.0
  Ni  Ni187  1  0.95138889  0.48437500  0.90104167  1.0
  Ni  Ni188  1  0.95138889  0.81770833  0.90104167  1.0
  Ni  Ni189  1  0.06250000  0.27604167  0.85937500  1.0
  Ni  Ni190  1  0.06250000  0.60937500  0.85937500  1.0
  Ni  Ni191  1  0.06250000  0.94270833  0.85937500  1.0
  Ni  Ni192  1  0.39583333  0.27604167  0.85937500  1.0
  Ni  Ni193  1  0.39583333  0.60937500  0.85937500  1.0
  Ni  Ni194  1  0.39583333  0.94270833  0.85937500  1.0
  Ni  Ni195  1  0.72916667  0.27604167  0.85937500  1.0
  Ni  Ni196  1  0.72916667  0.60937500  0.85937500  1.0
  Ni  Ni197  1  0.72916667  0.94270833  0.85937500  1.0
  Ni  Ni198  1  0.09027778  0.24479167  0.78645833  1.0
  Ni  Ni199  1  0.09027778  0.57812500  0.78645833  1.0
  Ni  Ni200  1  0.09027778  0.91145833  0.78645833  1.0
  Ni  Ni201  1  0.42361111  0.24479167  0.78645833  1.0
  Ni  Ni202  1  0.42361111  0.57812500  0.78645833  1.0
  Ni  Ni203  1  0.42361111  0.91145833  0.78645833  1.0
  Ni  Ni204  1  0.75694444  0.24479167  0.78645833  1.0
  Ni  Ni205  1  0.75694444  0.57812500  0.78645833  1.0
  Ni  Ni206  1  0.75694444  0.91145833  0.78645833  1.0
  Ni  Ni207  1  0.31250000  0.11979167  0.82812500  1.0
  Ni  Ni208  1  0.31250000  0.45312500  0.82812500  1.0
  Ni  Ni209  1  0.31250000  0.78645833  0.82812500  1.0
  Ni  Ni210  1  0.64583333  0.11979167  0.82812500  1.0
  Ni  Ni211  1  0.64583333  0.45312500  0.82812500  1.0
  Ni  Ni212  1  0.64583333  0.78645833  0.82812500  1.0
  Ni  Ni213  1  0.97916667  0.11979167  0.82812500  1.0
  Ni  Ni214  1  0.97916667  0.45312500  0.82812500  1.0
  Ni  Ni215  1  0.97916667  0.78645833  0.82812500  1.0
  Ni  Ni216  1  0.03472222  0.01562500  0.80729167  1.0
  Ni  Ni217  1  0.03472222  0.34895833  0.80729167  1.0
  Ni  Ni218  1  0.03472222  0.68229167  0.80729167  1.0
  Ni  Ni219  1  0.36805556  0.01562500  0.80729167  1.0
  Ni  Ni220  1  0.36805556  0.34895833  0.80729167  1.0
  Ni  Ni221  1  0.36805556  0.68229167  0.80729167  1.0
  Ni  Ni222  1  0.70138889  0.01562500  0.80729167  1.0
  Ni  Ni223  1  0.70138889  0.34895833  0.80729167  1.0
  Ni  Ni224  1  0.70138889  0.68229167  0.80729167  1.0
  Ni  Ni225  1  0.14583333  0.14062500  0.76562500  1.0
  Ni  Ni226  1  0.14583333  0.47395833  0.76562500  1.0
  Ni  Ni227  1  0.14583333  0.80729167  0.76562500  1.0
  Ni  Ni228  1  0.47916667  0.14062500  0.76562500  1.0
  Ni  Ni229  1  0.47916667  0.47395833  0.76562500  1.0
  Ni  Ni230  1  0.47916667  0.80729167  0.76562500  1.0
  Ni  Ni231  1  0.81250000  0.14062500  0.76562500  1.0
  Ni  Ni232  1  0.81250000  0.47395833  0.76562500  1.0
  Ni  Ni233  1  0.81250000  0.80729167  0.76562500  1.0
  Ni  Ni234  1  0.17361111  0.06770833  0.81770833  1.0
  Ni  Ni235  1  0.17361111  0.40104167  0.81770833  1.0
  Ni  Ni236  1  0.17361111  0.73437500  0.81770833  1.0
  Ni  Ni237  1  0.50694444  0.06770833  0.81770833  1.0
  Ni  Ni238  1  0.50694444  0.40104167  0.81770833  1.0
  Ni  Ni239  1  0.50694444  0.73437500  0.81770833  1.0
  Ni  Ni240  1  0.84027778  0.06770833  0.81770833  1.0
  Ni  Ni241  1  0.84027778  0.40104167  0.81770833  1.0
  Ni  Ni242  1  0.84027778  0.73437500  0.81770833  1.0
  Ni  Ni243  1  0.28472222  0.19270833  0.77604167  1.0
  Ni  Ni244  1  0.28472222  0.52604167  0.77604167  1.0
  Ni  Ni245  1  0.28472222  0.85937500  0.77604167  1.0
  Ni  Ni246  1  0.61805556  0.19270833  0.77604167  1.0
  Ni  Ni247  1  0.61805556  0.52604167  0.77604167  1.0
  Ni  Ni248  1  0.61805556  0.85937500  0.77604167  1.0
  Ni  Ni249  1  0.95138889  0.19270833  0.77604167  1.0
  Ni  Ni250  1  0.95138889  0.52604167  0.77604167  1.0
  Ni  Ni251  1  0.95138889  0.85937500  0.77604167  1.0
  Ni  Ni252  1  0.31250000  0.16145833  0.70312500  1.0
  Ni  Ni253  1  0.31250000  0.49479167  0.70312500  1.0
  Ni  Ni254  1  0.31250000  0.82812500  0.70312500  1.0
  Ni  Ni255  1  0.64583333  0.16145833  0.70312500  1.0
  Ni  Ni256  1  0.64583333  0.49479167  0.70312500  1.0
  Ni  Ni257  1  0.64583333  0.82812500  0.70312500  1.0
  Ni  Ni258  1  0.97916667  0.16145833  0.70312500  1.0
  Ni  Ni259  1  0.97916667  0.49479167  0.70312500  1.0
  Ni  Ni260  1  0.97916667  0.82812500  0.70312500  1.0
  Ni  Ni261  1  0.20138889  0.03645833  0.74479167  1.0
  Ni  Ni262  1  0.20138889  0.36979167  0.74479167  1.0
  Ni  Ni263  1  0.20138889  0.70312500  0.74479167  1.0
  Ni  Ni264  1  0.53472222  0.03645833  0.74479167  1.0
  Ni  Ni265  1  0.53472222  0.36979167  0.74479167  1.0
  Ni  Ni266  1  0.53472222  0.70312500  0.74479167  1.0
  Ni  Ni267  1  0.86805556  0.03645833  0.74479167  1.0
  Ni  Ni268  1  0.86805556  0.36979167  0.74479167  1.0
  Ni  Ni269  1  0.86805556  0.70312500  0.74479167  1.0
  Ni  Ni270  1  0.25694444  0.26562500  0.72395833  1.0
  Ni  Ni271  1  0.25694444  0.59895833  0.72395833  1.0
  Ni  Ni272  1  0.25694444  0.93229167  0.72395833  1.0
  Ni  Ni273  1  0.59027778  0.26562500  0.72395833  1.0
  Ni  Ni274  1  0.59027778  0.59895833  0.72395833  1.0
  Ni  Ni275  1  0.59027778  0.93229167  0.72395833  1.0
  Ni  Ni276  1  0.92361111  0.26562500  0.72395833  1.0
  Ni  Ni277  1  0.92361111  0.59895833  0.72395833  1.0
  Ni  Ni278  1  0.92361111  0.93229167  0.72395833  1.0
  Ni  Ni279  1  0.03472222  0.05729167  0.68229167  1.0
  Ni  Ni280  1  0.03472222  0.39062500  0.68229167  1.0
  Ni  Ni281  1  0.03472222  0.72395833  0.68229167  1.0
  Ni  Ni282  1  0.36805556  0.05729167  0.68229167  1.0
  Ni  Ni283  1  0.36805556  0.39062500  0.68229167  1.0
  Ni  Ni284  1  0.36805556  0.72395833  0.68229167  1.0
  Ni  Ni285  1  0.70138889  0.05729167  0.68229167  1.0
  Ni  Ni286  1  0.70138889  0.39062500  0.68229167  1.0
  Ni  Ni287  1  0.70138889  0.72395833  0.68229167  1.0
  Ni  Ni288  1  0.06250000  0.31770833  0.73437500  1.0
  Ni  Ni289  1  0.06250000  0.65104167  0.73437500  1.0
  Ni  Ni290  1  0.06250000  0.98437500  0.73437500  1.0
  Ni  Ni291  1  0.39583333  0.31770833  0.73437500  1.0
  Ni  Ni292  1  0.39583333  0.65104167  0.73437500  1.0
  Ni  Ni293  1  0.39583333  0.98437500  0.73437500  1.0
  Ni  Ni294  1  0.72916667  0.31770833  0.73437500  1.0
  Ni  Ni295  1  0.72916667  0.65104167  0.73437500  1.0
  Ni  Ni296  1  0.72916667  0.98437500  0.73437500  1.0
  Ni  Ni297  1  0.17361111  0.10937500  0.69270833  1.0
  Ni  Ni298  1  0.17361111  0.44270833  0.69270833  1.0
  Ni  Ni299  1  0.17361111  0.77604167  0.69270833  1.0
  Ni  Ni300  1  0.50694444  0.10937500  0.69270833  1.0
  Ni  Ni301  1  0.50694444  0.44270833  0.69270833  1.0
  Ni  Ni302  1  0.50694444  0.77604167  0.69270833  1.0
  Ni  Ni303  1  0.84027778  0.10937500  0.69270833  1.0
  Ni  Ni304  1  0.84027778  0.44270833  0.69270833  1.0
  Ni  Ni305  1  0.84027778  0.77604167  0.69270833  1.0
  Ni  Ni306  1  0.20138889  0.07812500  0.61979167  1.0
  Ni  Ni307  1  0.20138889  0.41145833  0.61979167  1.0
  Ni  Ni308  1  0.20138889  0.74479167  0.61979167  1.0
  Ni  Ni309  1  0.53472222  0.07812500  0.61979167  1.0
  Ni  Ni310  1  0.53472222  0.41145833  0.61979167  1.0
  Ni  Ni311  1  0.53472222  0.74479167  0.61979167  1.0
  Ni  Ni312  1  0.86805556  0.07812500  0.61979167  1.0
  Ni  Ni313  1  0.86805556  0.41145833  0.61979167  1.0
  Ni  Ni314  1  0.86805556  0.74479167  0.61979167  1.0
  Ni  Ni315  1  0.09027778  0.28645833  0.66145833  1.0
  Ni  Ni316  1  0.09027778  0.61979167  0.66145833  1.0
  Ni  Ni317  1  0.09027778  0.95312500  0.66145833  1.0
  Ni  Ni318  1  0.42361111  0.28645833  0.66145833  1.0
  Ni  Ni319  1  0.42361111  0.61979167  0.66145833  1.0
  Ni  Ni320  1  0.42361111  0.95312500  0.66145833  1.0
  Ni  Ni321  1  0.75694444  0.28645833  0.66145833  1.0
  Ni  Ni322  1  0.75694444  0.61979167  0.66145833  1.0
  Ni  Ni323  1  0.75694444  0.95312500  0.66145833  1.0
  Ni  Ni324  1  0.14583333  0.18229167  0.64062500  1.0
  Ni  Ni325  1  0.14583333  0.51562500  0.64062500  1.0
  Ni  Ni326  1  0.14583333  0.84895833  0.64062500  1.0
  Ni  Ni327  1  0.47916667  0.18229167  0.64062500  1.0
  Ni  Ni328  1  0.47916667  0.51562500  0.64062500  1.0
  Ni  Ni329  1  0.47916667  0.84895833  0.64062500  1.0
  Ni  Ni330  1  0.81250000  0.18229167  0.64062500  1.0
  Ni  Ni331  1  0.81250000  0.51562500  0.64062500  1.0
  Ni  Ni332  1  0.81250000  0.84895833  0.64062500  1.0
  Ni  Ni333  1  0.25694444  0.30729167  0.59895833  1.0
  Ni  Ni334  1  0.25694444  0.64062500  0.59895833  1.0
  Ni  Ni335  1  0.25694444  0.97395833  0.59895833  1.0
  Ni  Ni336  1  0.59027778  0.30729167  0.59895833  1.0
  Ni  Ni337  1  0.59027778  0.64062500  0.59895833  1.0
  Ni  Ni338  1  0.59027778  0.97395833  0.59895833  1.0
  Ni  Ni339  1  0.92361111  0.30729167  0.59895833  1.0
  Ni  Ni340  1  0.92361111  0.64062500  0.59895833  1.0
  Ni  Ni341  1  0.92361111  0.97395833  0.59895833  1.0
  Ni  Ni342  1  0.28472222  0.23437500  0.65104167  1.0
  Ni  Ni343  1  0.28472222  0.56770833  0.65104167  1.0
  Ni  Ni344  1  0.28472222  0.90104167  0.65104167  1.0
  Ni  Ni345  1  0.61805556  0.23437500  0.65104167  1.0
  Ni  Ni346  1  0.61805556  0.56770833  0.65104167  1.0
  Ni  Ni347  1  0.61805556  0.90104167  0.65104167  1.0
  Ni  Ni348  1  0.95138889  0.23437500  0.65104167  1.0
  Ni  Ni349  1  0.95138889  0.56770833  0.65104167  1.0
  Ni  Ni350  1  0.95138889  0.90104167  0.65104167  1.0
  Ni  Ni351  1  0.06250000  0.02604167  0.60937500  1.0
  Ni  Ni352  1  0.06250000  0.35937500  0.60937500  1.0
  Ni  Ni353  1  0.06250000  0.69270833  0.60937500  1.0
  Ni  Ni354  1  0.39583333  0.02604167  0.60937500  1.0
  Ni  Ni355  1  0.39583333  0.35937500  0.60937500  1.0
  Ni  Ni356  1  0.39583333  0.69270833  0.60937500  1.0
  Ni  Ni357  1  0.72916667  0.02604167  0.60937500  1.0
  Ni  Ni358  1  0.72916667  0.35937500  0.60937500  1.0
  Ni  Ni359  1  0.72916667  0.69270833  0.60937500  1.0
