# generated using pymatgen
data_GaNi3
_symmetry_space_group_name_H-M   'P 1'
_cell_length_a   12.74633184
_cell_length_b   34.90461626
_cell_length_c   50.98532736
_cell_angle_alpha   145.22902731
_cell_angle_beta   75.55619024
_cell_angle_gamma   123.18527536
_symmetry_Int_Tables_number   1
_chemical_formula_structural   GaNi3
_chemical_formula_sum   'Ga90 Ni270'
_cell_volume   9828.28291247
_cell_formula_units_Z   90
loop_
 _symmetry_equiv_pos_site_id
 _symmetry_equiv_pos_as_xyz
  1  'x, y, z'
loop_
 _atom_site_type_symbol
 _atom_site_label
 _atom_site_symmetry_multiplicity
 _atom_site_fract_x
 _atom_site_fract_y
 _atom_site_fract_z
 _atom_site_occupancy
  Ga  Ga0  1  0.00000000  0.00000000  0.06250000  1.0
  Ga  Ga1  1  1.00000000  0.33333333  0.06250000  1.0
  Ga  Ga2  1  1.00000000  0.66666667  0.06250000  1.0
  Ga  Ga3  1  0.33333333  0.00000000  0.06250000  1.0
  Ga  Ga4  1  0.33333333  0.33333333  0.06250000  1.0
  Ga  Ga5  1  0.33333333  0.66666667  0.06250000  1.0
  Ga  Ga6  1  0.66666667  0.00000000  0.06250000  1.0
  Ga  Ga7  1  0.66666667  0.33333333  0.06250000  1.0
  Ga  Ga8  1  0.66666667  0.66666667  0.06250000  1.0
  Ga  Ga9  1  0.00000000  0.16666667  0.02083333  1.0
  Ga  Ga10  1  0.00000000  0.50000000  0.02083333  1.0
  Ga  Ga11  1  0.00000000  0.83333333  0.02083333  1.0
  Ga  Ga12  1  0.33333333  0.16666667  0.02083333  1.0
  Ga  Ga13  1  0.33333333  0.50000000  0.02083333  1.0
  Ga  Ga14  1  0.33333333  0.83333333  0.02083333  1.0
  Ga  Ga15  1  0.66666667  0.16666667  0.02083333  1.0
  Ga  Ga16  1  0.66666667  0.50000000  0.02083333  1.0
  Ga  Ga17  1  0.66666667  0.83333333  0.02083333  1.0
  Ni  Ni18  1  0.08333333  0.08333333  0.06250000  1.0
  Ni  Ni19  1  0.08333333  0.41666667  0.06250000  1.0
  Ni  Ni20  1  0.08333333  0.75000000  0.06250000  1.0
  Ni  Ni21  1  0.41666667  0.08333333  0.06250000  1.0
  Ni  Ni22  1  0.41666667  0.41666667  0.06250000  1.0
  Ni  Ni23  1  0.41666667  0.75000000  0.06250000  1.0
  Ni  Ni24  1  0.75000000  0.08333333  0.06250000  1.0
  Ni  Ni25  1  0.75000000  0.41666667  0.06250000  1.0
  Ni  Ni26  1  0.75000000  0.75000000  0.06250000  1.0
  Ni  Ni27  1  0.08333333  0.25000000  0.02083333  1.0
  Ni  Ni28  1  0.08333333  0.58333333  0.02083333  1.0
  Ni  Ni29  1  0.08333333  0.91666667  0.02083333  1.0
  Ni  Ni30  1  0.41666667  0.25000000  0.02083333  1.0
  Ni  Ni31  1  0.41666667  0.58333333  0.02083333  1.0
  Ni  Ni32  1  0.41666667  0.91666667  0.02083333  1.0
  Ni  Ni33  1  0.75000000  0.25000000  0.02083333  1.0
  Ni  Ni34  1  0.75000000  0.58333333  0.02083333  1.0
  Ni  Ni35  1  0.75000000  0.91666667  0.02083333  1.0
  Ni  Ni36  1  0.25000000  0.08333333  0.02083333  1.0
  Ni  Ni37  1  0.25000000  0.41666667  0.02083333  1.0
  Ni  Ni38  1  0.25000000  0.75000000  0.02083333  1.0
  Ni  Ni39  1  0.58333333  0.08333333  0.02083333  1.0
  Ni  Ni40  1  0.58333333  0.41666667  0.02083333  1.0
  Ni  Ni41  1  0.58333333  0.75000000  0.02083333  1.0
  Ni  Ni42  1  0.91666667  0.08333333  0.02083333  1.0
  Ni  Ni43  1  0.91666667  0.41666667  0.02083333  1.0
  Ni  Ni44  1  0.91666667  0.75000000  0.02083333  1.0
  Ni  Ni45  1  0.25000000  0.25000000  0.06250000  1.0
  Ni  Ni46  1  0.25000000  0.58333333  0.06250000  1.0
  Ni  Ni47  1  0.25000000  0.91666667  0.06250000  1.0
  Ni  Ni48  1  0.58333333  0.25000000  0.06250000  1.0
  Ni  Ni49  1  0.58333333  0.58333333  0.06250000  1.0
  Ni  Ni50  1  0.58333333  0.91666667  0.06250000  1.0
  Ni  Ni51  1  0.91666667  0.25000000  0.06250000  1.0
  Ni  Ni52  1  0.91666667  0.58333333  0.06250000  1.0
  Ni  Ni53  1  0.91666667  0.91666667  0.06250000  1.0
  Ni  Ni54  1  0.16666667  0.00000000  0.02083333  1.0
  Ni  Ni55  1  0.16666667  0.33333333  0.02083333  1.0
  Ni  Ni56  1  0.16666667  0.66666667  0.02083333  1.0
  Ni  Ni57  1  0.50000000  0.00000000  0.02083333  1.0
  Ni  Ni58  1  0.50000000  0.33333333  0.02083333  1.0
  Ni  Ni59  1  0.50000000  0.66666667  0.02083333  1.0
  Ni  Ni60  1  0.83333333  0.00000000  0.02083333  1.0
  Ni  Ni61  1  0.83333333  0.33333333  0.02083333  1.0
  Ni  Ni62  1  0.83333333  0.66666667  0.02083333  1.0
  Ni  Ni63  1  0.16666667  0.16666667  0.06250000  1.0
  Ni  Ni64  1  0.16666667  0.50000000  0.06250000  1.0
  Ni  Ni65  1  0.16666667  0.83333333  0.06250000  1.0
  Ni  Ni66  1  0.50000000  0.16666667  0.06250000  1.0
  Ni  Ni67  1  0.50000000  0.50000000  0.06250000  1.0
  Ni  Ni68  1  0.50000000  0.83333333  0.06250000  1.0
  Ni  Ni69  1  0.83333333  0.16666667  0.06250000  1.0
  Ni  Ni70  1  0.83333333  0.50000000  0.06250000  1.0
  Ni  Ni71  1  0.83333333  0.83333333  0.06250000  1.0
  Ga  Ga72  1  0.00000000  0.00000000  0.14583333  1.0
  Ga  Ga73  1  1.00000000  0.33333333  0.14583333  1.0
  Ga  Ga74  1  1.00000000  0.66666667  0.14583333  1.0
  Ga  Ga75  1  0.33333333  0.00000000  0.14583333  1.0
  Ga  Ga76  1  0.33333333  0.33333333  0.14583333  1.0
  Ga  Ga77  1  0.33333333  0.66666667  0.14583333  1.0
  Ga  Ga78  1  0.66666667  0.00000000  0.14583333  1.0
  Ga  Ga79  1  0.66666667  0.33333333  0.14583333  1.0
  Ga  Ga80  1  0.66666667  0.66666667  0.14583333  1.0
  Ga  Ga81  1  0.00000000  0.16666667  0.10416667  1.0
  Ga  Ga82  1  0.00000000  0.50000000  0.10416667  1.0
  Ga  Ga83  1  0.00000000  0.83333333  0.10416667  1.0
  Ga  Ga84  1  0.33333333  0.16666667  0.10416667  1.0
  Ga  Ga85  1  0.33333333  0.50000000  0.10416667  1.0
  Ga  Ga86  1  0.33333333  0.83333333  0.10416667  1.0
  Ga  Ga87  1  0.66666667  0.16666667  0.10416667  1.0
  Ga  Ga88  1  0.66666667  0.50000000  0.10416667  1.0
  Ga  Ga89  1  0.66666667  0.83333333  0.10416667  1.0
  Ni  Ni90  1  0.08333333  0.08333333  0.14583333  1.0
  Ni  Ni91  1  0.08333333  0.41666667  0.14583333  1.0
  Ni  Ni92  1  0.08333333  0.75000000  0.14583333  1.0
  Ni  Ni93  1  0.41666667  0.08333333  0.14583333  1.0
  Ni  Ni94  1  0.41666667  0.41666667  0.14583333  1.0
  Ni  Ni95  1  0.41666667  0.75000000  0.14583333  1.0
  Ni  Ni96  1  0.75000000  0.08333333  0.14583333  1.0
  Ni  Ni97  1  0.75000000  0.41666667  0.14583333  1.0
  Ni  Ni98  1  0.75000000  0.75000000  0.14583333  1.0
  Ni  Ni99  1  0.08333333  0.25000000  0.10416667  1.0
  Ni  Ni100  1  0.08333333  0.58333333  0.10416667  1.0
  Ni  Ni101  1  0.08333333  0.91666667  0.10416667  1.0
  Ni  Ni102  1  0.41666667  0.25000000  0.10416667  1.0
  Ni  Ni103  1  0.41666667  0.58333333  0.10416667  1.0
  Ni  Ni104  1  0.41666667  0.91666667  0.10416667  1.0
  Ni  Ni105  1  0.75000000  0.25000000  0.10416667  1.0
  Ni  Ni106  1  0.75000000  0.58333333  0.10416667  1.0
  Ni  Ni107  1  0.75000000  0.91666667  0.10416667  1.0
  Ni  Ni108  1  0.25000000  0.08333333  0.10416667  1.0
  Ni  Ni109  1  0.25000000  0.41666667  0.10416667  1.0
  Ni  Ni110  1  0.25000000  0.75000000  0.10416667  1.0
  Ni  Ni111  1  0.58333333  0.08333333  0.10416667  1.0
  Ni  Ni112  1  0.58333333  0.41666667  0.10416667  1.0
  Ni  Ni113  1  0.58333333  0.75000000  0.10416667  1.0
  Ni  Ni114  1  0.91666667  0.08333333  0.10416667  1.0
  Ni  Ni115  1  0.91666667  0.41666667  0.10416667  1.0
  Ni  Ni116  1  0.91666667  0.75000000  0.10416667  1.0
  Ni  Ni117  1  0.25000000  0.25000000  0.14583333  1.0
  Ni  Ni118  1  0.25000000  0.58333333  0.14583333  1.0
  Ni  Ni119  1  0.25000000  0.91666667  0.14583333  1.0
  Ni  Ni120  1  0.58333333  0.25000000  0.14583333  1.0
  Ni  Ni121  1  0.58333333  0.58333333  0.14583333  1.0
  Ni  Ni122  1  0.58333333  0.91666667  0.14583333  1.0
  Ni  Ni123  1  0.91666667  0.25000000  0.14583333  1.0
  Ni  Ni124  1  0.91666667  0.58333333  0.14583333  1.0
  Ni  Ni125  1  0.91666667  0.91666667  0.14583333  1.0
  Ni  Ni126  1  0.16666667  0.00000000  0.10416667  1.0
  Ni  Ni127  1  0.16666667  0.33333333  0.10416667  1.0
  Ni  Ni128  1  0.16666667  0.66666667  0.10416667  1.0
  Ni  Ni129  1  0.50000000  0.00000000  0.10416667  1.0
  Ni  Ni130  1  0.50000000  0.33333333  0.10416667  1.0
  Ni  Ni131  1  0.50000000  0.66666667  0.10416667  1.0
  Ni  Ni132  1  0.83333333  0.00000000  0.10416667  1.0
  Ni  Ni133  1  0.83333333  0.33333333  0.10416667  1.0
  Ni  Ni134  1  0.83333333  0.66666667  0.10416667  1.0
  Ni  Ni135  1  0.16666667  0.16666667  0.14583333  1.0
  Ni  Ni136  1  0.16666667  0.50000000  0.14583333  1.0
  Ni  Ni137  1  0.16666667  0.83333333  0.14583333  1.0
  Ni  Ni138  1  0.50000000  0.16666667  0.14583333  1.0
  Ni  Ni139  1  0.50000000  0.50000000  0.14583333  1.0
  Ni  Ni140  1  0.50000000  0.83333333  0.14583333  1.0
  Ni  Ni141  1  0.83333333  0.16666667  0.14583333  1.0
  Ni  Ni142  1  0.83333333  0.50000000  0.14583333  1.0
  Ni  Ni143  1  0.83333333  0.83333333  0.14583333  1.0
  Ga  Ga144  1  0.00000000  0.00000000  0.22916667  1.0
  Ga  Ga145  1  1.00000000  0.33333333  0.22916667  1.0
  Ga  Ga146  1  1.00000000  0.66666667  0.22916667  1.0
  Ga  Ga147  1  0.33333333  0.00000000  0.22916667  1.0
  Ga  Ga148  1  0.33333333  0.33333333  0.22916667  1.0
  Ga  Ga149  1  0.33333333  0.66666667  0.22916667  1.0
  Ga  Ga150  1  0.66666667  0.00000000  0.22916667  1.0
  Ga  Ga151  1  0.66666667  0.33333333  0.22916667  1.0
  Ga  Ga152  1  0.66666667  0.66666667  0.22916667  1.0
  Ga  Ga153  1  0.00000000  0.16666667  0.18750000  1.0
  Ga  Ga154  1  0.00000000  0.50000000  0.18750000  1.0
  Ga  Ga155  1  0.00000000  0.83333333  0.18750000  1.0
  Ga  Ga156  1  0.33333333  0.16666667  0.18750000  1.0
  Ga  Ga157  1  0.33333333  0.50000000  0.18750000  1.0
  Ga  Ga158  1  0.33333333  0.83333333  0.18750000  1.0
  Ga  Ga159  1  0.66666667  0.16666667  0.18750000  1.0
  Ga  Ga160  1  0.66666667  0.50000000  0.18750000  1.0
  Ga  Ga161  1  0.66666667  0.83333333  0.18750000  1.0
  Ni  Ni162  1  0.08333333  0.08333333  0.22916667  1.0
  Ni  Ni163  1  0.08333333  0.41666667  0.22916667  1.0
  Ni  Ni164  1  0.08333333  0.75000000  0.22916667  1.0
  Ni  Ni165  1  0.41666667  0.08333333  0.22916667  1.0
  Ni  Ni166  1  0.41666667  0.41666667  0.22916667  1.0
  Ni  Ni167  1  0.41666667  0.75000000  0.22916667  1.0
  Ni  Ni168  1  0.75000000  0.08333333  0.22916667  1.0
  Ni  Ni169  1  0.75000000  0.41666667  0.22916667  1.0
  Ni  Ni170  1  0.75000000  0.75000000  0.22916667  1.0
  Ni  Ni171  1  0.08333333  0.25000000  0.18750000  1.0
  Ni  Ni172  1  0.08333333  0.58333333  0.18750000  1.0
  Ni  Ni173  1  0.08333333  0.91666667  0.18750000  1.0
  Ni  Ni174  1  0.41666667  0.25000000  0.18750000  1.0
  Ni  Ni175  1  0.41666667  0.58333333  0.18750000  1.0
  Ni  Ni176  1  0.41666667  0.91666667  0.18750000  1.0
  Ni  Ni177  1  0.75000000  0.25000000  0.18750000  1.0
  Ni  Ni178  1  0.75000000  0.58333333  0.18750000  1.0
  Ni  Ni179  1  0.75000000  0.91666667  0.18750000  1.0
  Ni  Ni180  1  0.25000000  0.08333333  0.18750000  1.0
  Ni  Ni181  1  0.25000000  0.41666667  0.18750000  1.0
  Ni  Ni182  1  0.25000000  0.75000000  0.18750000  1.0
  Ni  Ni183  1  0.58333333  0.08333333  0.18750000  1.0
  Ni  Ni184  1  0.58333333  0.41666667  0.18750000  1.0
  Ni  Ni185  1  0.58333333  0.75000000  0.18750000  1.0
  Ni  Ni186  1  0.91666667  0.08333333  0.18750000  1.0
  Ni  Ni187  1  0.91666667  0.41666667  0.18750000  1.0
  Ni  Ni188  1  0.91666667  0.75000000  0.18750000  1.0
  Ni  Ni189  1  0.25000000  0.25000000  0.22916667  1.0
  Ni  Ni190  1  0.25000000  0.58333333  0.22916667  1.0
  Ni  Ni191  1  0.25000000  0.91666667  0.22916667  1.0
  Ni  Ni192  1  0.58333333  0.25000000  0.22916667  1.0
  Ni  Ni193  1  0.58333333  0.58333333  0.22916667  1.0
  Ni  Ni194  1  0.58333333  0.91666667  0.22916667  1.0
  Ni  Ni195  1  0.91666667  0.25000000  0.22916667  1.0
  Ni  Ni196  1  0.91666667  0.58333333  0.22916667  1.0
  Ni  Ni197  1  0.91666667  0.91666667  0.22916667  1.0
  Ni  Ni198  1  0.16666667  0.00000000  0.18750000  1.0
  Ni  Ni199  1  0.16666667  0.33333333  0.18750000  1.0
  Ni  Ni200  1  0.16666667  0.66666667  0.18750000  1.0
  Ni  Ni201  1  0.50000000  0.00000000  0.18750000  1.0
  Ni  Ni202  1  0.50000000  0.33333333  0.18750000  1.0
  Ni  Ni203  1  0.50000000  0.66666667  0.18750000  1.0
  Ni  Ni204  1  0.83333333  0.00000000  0.18750000  1.0
  Ni  Ni205  1  0.83333333  0.33333333  0.18750000  1.0
  Ni  Ni206  1  0.83333333  0.66666667  0.18750000  1.0
  Ni  Ni207  1  0.16666667  0.16666667  0.22916667  1.0
  Ni  Ni208  1  0.16666667  0.50000000  0.22916667  1.0
  Ni  Ni209  1  0.16666667  0.83333333  0.22916667  1.0
  Ni  Ni210  1  0.50000000  0.16666667  0.22916667  1.0
  Ni  Ni211  1  0.50000000  0.50000000  0.22916667  1.0
  Ni  Ni212  1  0.50000000  0.83333333  0.22916667  1.0
  Ni  Ni213  1  0.83333333  0.16666667  0.22916667  1.0
  Ni  Ni214  1  0.83333333  0.50000000  0.22916667  1.0
  Ni  Ni215  1  0.83333333  0.83333333  0.22916667  1.0
  Ga  Ga216  1  0.00000000  0.00000000  0.31250000  1.0
  Ga  Ga217  1  1.00000000  0.33333333  0.31250000  1.0
  Ga  Ga218  1  1.00000000  0.66666667  0.31250000  1.0
  Ga  Ga219  1  0.33333333  0.00000000  0.31250000  1.0
  Ga  Ga220  1  0.33333333  0.33333333  0.31250000  1.0
  Ga  Ga221  1  0.33333333  0.66666667  0.31250000  1.0
  Ga  Ga222  1  0.66666667  0.00000000  0.31250000  1.0
  Ga  Ga223  1  0.66666667  0.33333333  0.31250000  1.0
  Ga  Ga224  1  0.66666667  0.66666667  0.31250000  1.0
  Ga  Ga225  1  0.00000000  0.16666667  0.27083333  1.0
  Ga  Ga226  1  0.00000000  0.50000000  0.27083333  1.0
  Ga  Ga227  1  0.00000000  0.83333333  0.27083333  1.0
  Ga  Ga228  1  0.33333333  0.16666667  0.27083333  1.0
  Ga  Ga229  1  0.33333333  0.50000000  0.27083333  1.0
  Ga  Ga230  1  0.33333333  0.83333333  0.27083333  1.0
  Ga  Ga231  1  0.66666667  0.16666667  0.27083333  1.0
  Ga  Ga232  1  0.66666667  0.50000000  0.27083333  1.0
  Ga  Ga233  1  0.66666667  0.83333333  0.27083333  1.0
  Ni  Ni234  1  0.08333333  0.08333333  0.31250000  1.0
  Ni  Ni235  1  0.08333333  0.41666667  0.31250000  1.0
  Ni  Ni236  1  0.08333333  0.75000000  0.31250000  1.0
  Ni  Ni237  1  0.41666667  0.08333333  0.31250000  1.0
  Ni  Ni238  1  0.41666667  0.41666667  0.31250000  1.0
  Ni  Ni239  1  0.41666667  0.75000000  0.31250000  1.0
  Ni  Ni240  1  0.75000000  0.08333333  0.31250000  1.0
  Ni  Ni241  1  0.75000000  0.41666667  0.31250000  1.0
  Ni  Ni242  1  0.75000000  0.75000000  0.31250000  1.0
  Ni  Ni243  1  0.08333333  0.25000000  0.27083333  1.0
  Ni  Ni244  1  0.08333333  0.58333333  0.27083333  1.0
  Ni  Ni245  1  0.08333333  0.91666667  0.27083333  1.0
  Ni  Ni246  1  0.41666667  0.25000000  0.27083333  1.0
  Ni  Ni247  1  0.41666667  0.58333333  0.27083333  1.0
  Ni  Ni248  1  0.41666667  0.91666667  0.27083333  1.0
  Ni  Ni249  1  0.75000000  0.25000000  0.27083333  1.0
  Ni  Ni250  1  0.75000000  0.58333333  0.27083333  1.0
  Ni  Ni251  1  0.75000000  0.91666667  0.27083333  1.0
  Ni  Ni252  1  0.25000000  0.08333333  0.27083333  1.0
  Ni  Ni253  1  0.25000000  0.41666667  0.27083333  1.0
  Ni  Ni254  1  0.25000000  0.75000000  0.27083333  1.0
  Ni  Ni255  1  0.58333333  0.08333333  0.27083333  1.0
  Ni  Ni256  1  0.58333333  0.41666667  0.27083333  1.0
  Ni  Ni257  1  0.58333333  0.75000000  0.27083333  1.0
  Ni  Ni258  1  0.91666667  0.08333333  0.27083333  1.0
  Ni  Ni259  1  0.91666667  0.41666667  0.27083333  1.0
  Ni  Ni260  1  0.91666667  0.75000000  0.27083333  1.0
  Ni  Ni261  1  0.25000000  0.25000000  0.31250000  1.0
  Ni  Ni262  1  0.25000000  0.58333333  0.31250000  1.0
  Ni  Ni263  1  0.25000000  0.91666667  0.31250000  1.0
  Ni  Ni264  1  0.58333333  0.25000000  0.31250000  1.0
  Ni  Ni265  1  0.58333333  0.58333333  0.31250000  1.0
  Ni  Ni266  1  0.58333333  0.91666667  0.31250000  1.0
  Ni  Ni267  1  0.91666667  0.25000000  0.31250000  1.0
  Ni  Ni268  1  0.91666667  0.58333333  0.31250000  1.0
  Ni  Ni269  1  0.91666667  0.91666667  0.31250000  1.0
  Ni  Ni270  1  0.16666667  0.00000000  0.27083333  1.0
  Ni  Ni271  1  0.16666667  0.33333333  0.27083333  1.0
  Ni  Ni272  1  0.16666667  0.66666667  0.27083333  1.0
  Ni  Ni273  1  0.50000000  0.00000000  0.27083333  1.0
  Ni  Ni274  1  0.50000000  0.33333333  0.27083333  1.0
  Ni  Ni275  1  0.50000000  0.66666667  0.27083333  1.0
  Ni  Ni276  1  0.83333333  0.00000000  0.27083333  1.0
  Ni  Ni277  1  0.83333333  0.33333333  0.27083333  1.0
  Ni  Ni278  1  0.83333333  0.66666667  0.27083333  1.0
  Ni  Ni279  1  0.16666667  0.16666667  0.31250000  1.0
  Ni  Ni280  1  0.16666667  0.50000000  0.31250000  1.0
  Ni  Ni281  1  0.16666667  0.83333333  0.31250000  1.0
  Ni  Ni282  1  0.50000000  0.16666667  0.31250000  1.0
  Ni  Ni283  1  0.50000000  0.50000000  0.31250000  1.0
  Ni  Ni284  1  0.50000000  0.83333333  0.31250000  1.0
  Ni  Ni285  1  0.83333333  0.16666667  0.31250000  1.0
  Ni  Ni286  1  0.83333333  0.50000000  0.31250000  1.0
  Ni  Ni287  1  0.83333333  0.83333333  0.31250000  1.0
  Ga  Ga288  1  0.00000000  0.00000000  0.39583333  1.0
  Ga  Ga289  1  1.00000000  0.33333333  0.39583333  1.0
  Ga  Ga290  1  1.00000000  0.66666667  0.39583333  1.0
  Ga  Ga291  1  0.33333333  0.00000000  0.39583333  1.0
  Ga  Ga292  1  0.33333333  0.33333333  0.39583333  1.0
  Ga  Ga293  1  0.33333333  0.66666667  0.39583333  1.0
  Ga  Ga294  1  0.66666667  0.00000000  0.39583333  1.0
  Ga  Ga295  1  0.66666667  0.33333333  0.39583333  1.0
  Ga  Ga296  1  0.66666667  0.66666667  0.39583333  1.0
  Ga  Ga297  1  0.00000000  0.16666667  0.35416667  1.0
  Ga  Ga298  1  0.00000000  0.50000000  0.35416667  1.0
  Ga  Ga299  1  0.00000000  0.83333333  0.35416667  1.0
  Ga  Ga300  1  0.33333333  0.16666667  0.35416667  1.0
  Ga  Ga301  1  0.33333333  0.50000000  0.35416667  1.0
  Ga  Ga302  1  0.33333333  0.83333333  0.35416667  1.0
  Ga  Ga303  1  0.66666667  0.16666667  0.35416667  1.0
  Ga  Ga304  1  0.66666667  0.50000000  0.35416667  1.0
  Ga  Ga305  1  0.66666667  0.83333333  0.35416667  1.0
  Ni  Ni306  1  0.08333333  0.08333333  0.39583333  1.0
  Ni  Ni307  1  0.08333333  0.41666667  0.39583333  1.0
  Ni  Ni308  1  0.08333333  0.75000000  0.39583333  1.0
  Ni  Ni309  1  0.41666667  0.08333333  0.39583333  1.0
  Ni  Ni310  1  0.41666667  0.41666667  0.39583333  1.0
  Ni  Ni311  1  0.41666667  0.75000000  0.39583333  1.0
  Ni  Ni312  1  0.75000000  0.08333333  0.39583333  1.0
  Ni  Ni313  1  0.75000000  0.41666667  0.39583333  1.0
  Ni  Ni314  1  0.75000000  0.75000000  0.39583333  1.0
  Ni  Ni315  1  0.08333333  0.25000000  0.35416667  1.0
  Ni  Ni316  1  0.08333333  0.58333333  0.35416667  1.0
  Ni  Ni317  1  0.08333333  0.91666667  0.35416667  1.0
  Ni  Ni318  1  0.41666667  0.25000000  0.35416667  1.0
  Ni  Ni319  1  0.41666667  0.58333333  0.35416667  1.0
  Ni  Ni320  1  0.41666667  0.91666667  0.35416667  1.0
  Ni  Ni321  1  0.75000000  0.25000000  0.35416667  1.0
  Ni  Ni322  1  0.75000000  0.58333333  0.35416667  1.0
  Ni  Ni323  1  0.75000000  0.91666667  0.35416667  1.0
  Ni  Ni324  1  0.25000000  0.08333333  0.35416667  1.0
  Ni  Ni325  1  0.25000000  0.41666667  0.35416667  1.0
  Ni  Ni326  1  0.25000000  0.75000000  0.35416667  1.0
  Ni  Ni327  1  0.58333333  0.08333333  0.35416667  1.0
  Ni  Ni328  1  0.58333333  0.41666667  0.35416667  1.0
  Ni  Ni329  1  0.58333333  0.75000000  0.35416667  1.0
  Ni  Ni330  1  0.91666667  0.08333333  0.35416667  1.0
  Ni  Ni331  1  0.91666667  0.41666667  0.35416667  1.0
  Ni  Ni332  1  0.91666667  0.75000000  0.35416667  1.0
  Ni  Ni333  1  0.25000000  0.25000000  0.39583333  1.0
  Ni  Ni334  1  0.25000000  0.58333333  0.39583333  1.0
  Ni  Ni335  1  0.25000000  0.91666667  0.39583333  1.0
  Ni  Ni336  1  0.58333333  0.25000000  0.39583333  1.0
  Ni  Ni337  1  0.58333333  0.58333333  0.39583333  1.0
  Ni  Ni338  1  0.58333333  0.91666667  0.39583333  1.0
  Ni  Ni339  1  0.91666667  0.25000000  0.39583333  1.0
  Ni  Ni340  1  0.91666667  0.58333333  0.39583333  1.0
  Ni  Ni341  1  0.91666667  0.91666667  0.39583333  1.0
  Ni  Ni342  1  0.16666667  0.00000000  0.35416667  1.0
  Ni  Ni343  1  0.16666667  0.33333333  0.35416667  1.0
  Ni  Ni344  1  0.16666667  0.66666667  0.35416667  1.0
  Ni  Ni345  1  0.50000000  0.00000000  0.35416667  1.0
  Ni  Ni346  1  0.50000000  0.33333333  0.35416667  1.0
  Ni  Ni347  1  0.50000000  0.66666667  0.35416667  1.0
  Ni  Ni348  1  0.83333333  0.00000000  0.35416667  1.0
  Ni  Ni349  1  0.83333333  0.33333333  0.35416667  1.0
  Ni  Ni350  1  0.83333333  0.66666667  0.35416667  1.0
  Ni  Ni351  1  0.16666667  0.16666667  0.39583333  1.0
  Ni  Ni352  1  0.16666667  0.50000000  0.39583333  1.0
  Ni  Ni353  1  0.16666667  0.83333333  0.39583333  1.0
  Ni  Ni354  1  0.50000000  0.16666667  0.39583333  1.0
  Ni  Ni355  1  0.50000000  0.50000000  0.39583333  1.0
  Ni  Ni356  1  0.50000000  0.83333333  0.39583333  1.0
  Ni  Ni357  1  0.83333333  0.16666667  0.39583333  1.0
  Ni  Ni358  1  0.83333333  0.50000000  0.39583333  1.0
  Ni  Ni359  1  0.83333333  0.83333333  0.39583333  1.0
