# generated using pymatgen
data_GaNi2
_symmetry_space_group_name_H-M   'P 1'
_cell_length_a   8.11632729
_cell_length_b   17.51881500
_cell_length_c   32.46530916
_cell_angle_alpha   90.00000000
_cell_angle_beta   120.00000000
_cell_angle_gamma   90.00000000
_symmetry_Int_Tables_number   1
_chemical_formula_structural   GaNi2
_chemical_formula_sum   'Ga45 Ni90'
_cell_volume   3997.73914461
_cell_formula_units_Z   45
loop_
 _symmetry_equiv_pos_site_id
 _symmetry_equiv_pos_as_xyz
  1  'x, y, z'
loop_
 _atom_site_type_symbol
 _atom_site_label
 _atom_site_symmetry_multiplicity
 _atom_site_fract_x
 _atom_site_fract_y
 _atom_site_fract_z
 _atom_site_occupancy
  Ga  Ga0  1  0.00000000  0.00000000  0.06944444  1.0
  Ga  Ga1  1  0.00000000  0.33333333  0.06944444  1.0
  Ga  Ga2  1  0.00000000  0.66666667  0.06944444  1.0
  Ga  Ga3  1  0.33333333  0.00000000  0.06944444  1.0
  Ga  Ga4  1  0.33333333  0.33333333  0.06944444  1.0
  Ga  Ga5  1  0.33333333  0.66666667  0.06944444  1.0
  Ga  Ga6  1  0.66666667  0.00000000  0.06944444  1.0
  Ga  Ga7  1  0.66666667  0.33333333  0.06944444  1.0
  Ga  Ga8  1  0.66666667  0.66666667  0.06944444  1.0
  Ni  Ni9  1  0.11111111  0.22289833  0.04166667  1.0
  Ni  Ni10  1  0.11111111  0.55623167  0.04166667  1.0
  Ni  Ni11  1  0.11111111  0.88956500  0.04166667  1.0
  Ni  Ni12  1  0.44444444  0.22289833  0.04166667  1.0
  Ni  Ni13  1  0.44444444  0.55623167  0.04166667  1.0
  Ni  Ni14  1  0.44444444  0.88956500  0.04166667  1.0
  Ni  Ni15  1  0.77777778  0.22289833  0.04166667  1.0
  Ni  Ni16  1  0.77777778  0.55623167  0.04166667  1.0
  Ni  Ni17  1  0.77777778  0.88956500  0.04166667  1.0
  Ni  Ni18  1  0.22222222  0.11043500  0.01388889  1.0
  Ni  Ni19  1  0.22222222  0.44376833  0.01388889  1.0
  Ni  Ni20  1  0.22222222  0.77710167  0.01388889  1.0
  Ni  Ni21  1  0.55555556  0.11043500  0.01388889  1.0
  Ni  Ni22  1  0.55555556  0.44376833  0.01388889  1.0
  Ni  Ni23  1  0.55555556  0.77710167  0.01388889  1.0
  Ni  Ni24  1  0.88888889  0.11043500  0.01388889  1.0
  Ni  Ni25  1  0.88888889  0.44376833  0.01388889  1.0
  Ni  Ni26  1  0.88888889  0.77710167  0.01388889  1.0
  Ga  Ga27  1  0.00000000  0.00000000  0.15277778  1.0
  Ga  Ga28  1  0.00000000  0.33333333  0.15277778  1.0
  Ga  Ga29  1  0.00000000  0.66666667  0.15277778  1.0
  Ga  Ga30  1  0.33333333  0.00000000  0.15277778  1.0
  Ga  Ga31  1  0.33333333  0.33333333  0.15277778  1.0
  Ga  Ga32  1  0.33333333  0.66666667  0.15277778  1.0
  Ga  Ga33  1  0.66666667  0.00000000  0.15277778  1.0
  Ga  Ga34  1  0.66666667  0.33333333  0.15277778  1.0
  Ga  Ga35  1  0.66666667  0.66666667  0.15277778  1.0
  Ni  Ni36  1  0.11111111  0.22289833  0.12500000  1.0
  Ni  Ni37  1  0.11111111  0.55623167  0.12500000  1.0
  Ni  Ni38  1  0.11111111  0.88956500  0.12500000  1.0
  Ni  Ni39  1  0.44444444  0.22289833  0.12500000  1.0
  Ni  Ni40  1  0.44444444  0.55623167  0.12500000  1.0
  Ni  Ni41  1  0.44444444  0.88956500  0.12500000  1.0
  Ni  Ni42  1  0.77777778  0.22289833  0.12500000  1.0
  Ni  Ni43  1  0.77777778  0.55623167  0.12500000  1.0
  Ni  Ni44  1  0.77777778  0.88956500  0.12500000  1.0
  Ni  Ni45  1  0.22222222  0.11043500  0.09722222  1.0
  Ni  Ni46  1  0.22222222  0.44376833  0.09722222  1.0
  Ni  Ni47  1  0.22222222  0.77710167  0.09722222  1.0
  Ni  Ni48  1  0.55555556  0.11043500  0.09722222  1.0
  Ni  Ni49  1  0.55555556  0.44376833  0.09722222  1.0
  Ni  Ni50  1  0.55555556  0.77710167  0.09722222  1.0
  Ni  Ni51  1  0.88888889  0.11043500  0.09722222  1.0
  Ni  Ni52  1  0.88888889  0.44376833  0.09722222  1.0
  Ni  Ni53  1  0.88888889  0.77710167  0.09722222  1.0
  Ga  Ga54  1  0.00000000  0.00000000  0.23611111  1.0
  Ga  Ga55  1  0.00000000  0.33333333  0.23611111  1.0
  Ga  Ga56  1  0.00000000  0.66666667  0.23611111  1.0
  Ga  Ga57  1  0.33333333  0.00000000  0.23611111  1.0
  Ga  Ga58  1  0.33333333  0.33333333  0.23611111  1.0
  Ga  Ga59  1  0.33333333  0.66666667  0.23611111  1.0
  Ga  Ga60  1  0.66666667  0.00000000  0.23611111  1.0
  Ga  Ga61  1  0.66666667  0.33333333  0.23611111  1.0
  Ga  Ga62  1  0.66666667  0.66666667  0.23611111  1.0
  Ni  Ni63  1  0.11111111  0.22289833  0.20833333  1.0
  Ni  Ni64  1  0.11111111  0.55623167  0.20833333  1.0
  Ni  Ni65  1  0.11111111  0.88956500  0.20833333  1.0
  Ni  Ni66  1  0.44444444  0.22289833  0.20833333  1.0
  Ni  Ni67  1  0.44444444  0.55623167  0.20833333  1.0
  Ni  Ni68  1  0.44444444  0.88956500  0.20833333  1.0
  Ni  Ni69  1  0.77777778  0.22289833  0.20833333  1.0
  Ni  Ni70  1  0.77777778  0.55623167  0.20833333  1.0
  Ni  Ni71  1  0.77777778  0.88956500  0.20833333  1.0
  Ni  Ni72  1  0.22222222  0.11043500  0.18055556  1.0
  Ni  Ni73  1  0.22222222  0.44376833  0.18055556  1.0
  Ni  Ni74  1  0.22222222  0.77710167  0.18055556  1.0
  Ni  Ni75  1  0.55555556  0.11043500  0.18055556  1.0
  Ni  Ni76  1  0.55555556  0.44376833  0.18055556  1.0
  Ni  Ni77  1  0.55555556  0.77710167  0.18055556  1.0
  Ni  Ni78  1  0.88888889  0.11043500  0.18055556  1.0
  Ni  Ni79  1  0.88888889  0.44376833  0.18055556  1.0
  Ni  Ni80  1  0.88888889  0.77710167  0.18055556  1.0
  Ga  Ga81  1  0.00000000  0.00000000  0.31944444  1.0
  Ga  Ga82  1  0.00000000  0.33333333  0.31944444  1.0
  Ga  Ga83  1  0.00000000  0.66666667  0.31944444  1.0
  Ga  Ga84  1  0.33333333  0.00000000  0.31944444  1.0
  Ga  Ga85  1  0.33333333  0.33333333  0.31944444  1.0
  Ga  Ga86  1  0.33333333  0.66666667  0.31944444  1.0
  Ga  Ga87  1  0.66666667  0.00000000  0.31944444  1.0
  Ga  Ga88  1  0.66666667  0.33333333  0.31944444  1.0
  Ga  Ga89  1  0.66666667  0.66666667  0.31944444  1.0
  Ni  Ni90  1  0.11111111  0.22289833  0.29166667  1.0
  Ni  Ni91  1  0.11111111  0.55623167  0.29166667  1.0
  Ni  Ni92  1  0.11111111  0.88956500  0.29166667  1.0
  Ni  Ni93  1  0.44444444  0.22289833  0.29166667  1.0
  Ni  Ni94  1  0.44444444  0.55623167  0.29166667  1.0
  Ni  Ni95  1  0.44444444  0.88956500  0.29166667  1.0
  Ni  Ni96  1  0.77777778  0.22289833  0.29166667  1.0
  Ni  Ni97  1  0.77777778  0.55623167  0.29166667  1.0
  Ni  Ni98  1  0.77777778  0.88956500  0.29166667  1.0
  Ni  Ni99  1  0.22222222  0.11043500  0.26388889  1.0
  Ni  Ni100  1  0.22222222  0.44376833  0.26388889  1.0
  Ni  Ni101  1  0.22222222  0.77710167  0.26388889  1.0
  Ni  Ni102  1  0.55555556  0.11043500  0.26388889  1.0
  Ni  Ni103  1  0.55555556  0.44376833  0.26388889  1.0
  Ni  Ni104  1  0.55555556  0.77710167  0.26388889  1.0
  Ni  Ni105  1  0.88888889  0.11043500  0.26388889  1.0
  Ni  Ni106  1  0.88888889  0.44376833  0.26388889  1.0
  Ni  Ni107  1  0.88888889  0.77710167  0.26388889  1.0
  Ga  Ga108  1  0.00000000  0.00000000  0.40277778  1.0
  Ga  Ga109  1  0.00000000  0.33333333  0.40277778  1.0
  Ga  Ga110  1  0.00000000  0.66666667  0.40277778  1.0
  Ga  Ga111  1  0.33333333  0.00000000  0.40277778  1.0
  Ga  Ga112  1  0.33333333  0.33333333  0.40277778  1.0
  Ga  Ga113  1  0.33333333  0.66666667  0.40277778  1.0
  Ga  Ga114  1  0.66666667  0.00000000  0.40277778  1.0
  Ga  Ga115  1  0.66666667  0.33333333  0.40277778  1.0
  Ga  Ga116  1  0.66666667  0.66666667  0.40277778  1.0
  Ni  Ni117  1  0.11111111  0.22289833  0.37500000  1.0
  Ni  Ni118  1  0.11111111  0.55623167  0.37500000  1.0
  Ni  Ni119  1  0.11111111  0.88956500  0.37500000  1.0
  Ni  Ni120  1  0.44444444  0.22289833  0.37500000  1.0
  Ni  Ni121  1  0.44444444  0.55623167  0.37500000  1.0
  Ni  Ni122  1  0.44444444  0.88956500  0.37500000  1.0
  Ni  Ni123  1  0.77777778  0.22289833  0.37500000  1.0
  Ni  Ni124  1  0.77777778  0.55623167  0.37500000  1.0
  Ni  Ni125  1  0.77777778  0.88956500  0.37500000  1.0
  Ni  Ni126  1  0.22222222  0.11043500  0.34722222  1.0
  Ni  Ni127  1  0.22222222  0.44376833  0.34722222  1.0
  Ni  Ni128  1  0.22222222  0.77710167  0.34722222  1.0
  Ni  Ni129  1  0.55555556  0.11043500  0.34722222  1.0
  Ni  Ni130  1  0.55555556  0.44376833  0.34722222  1.0
  Ni  Ni131  1  0.55555556  0.77710167  0.34722222  1.0
  Ni  Ni132  1  0.88888889  0.11043500  0.34722222  1.0
  Ni  Ni133  1  0.88888889  0.44376833  0.34722222  1.0
  Ni  Ni134  1  0.88888889  0.77710167  0.34722222  1.0
