# generated using pymatgen
data_GaNi2
_symmetry_space_group_name_H-M   'P 1'
_cell_length_a   19.35284940
_cell_length_b   25.86944143
_cell_length_c   25.76332871
_cell_angle_alpha   96.16882680
_cell_angle_beta   90.23610277
_cell_angle_gamma   90.70541876
_symmetry_Int_Tables_number   1
_chemical_formula_structural   GaNi2
_chemical_formula_sum   'Ga144 Ni288'
_cell_volume   12822.49261114
_cell_formula_units_Z   144
loop_
 _symmetry_equiv_pos_site_id
 _symmetry_equiv_pos_as_xyz
  1  'x, y, z'
loop_
 _atom_site_type_symbol
 _atom_site_label
 _atom_site_symmetry_multiplicity
 _atom_site_fract_x
 _atom_site_fract_y
 _atom_site_fract_z
 _atom_site_occupancy
  Ga  Ga0  1  0.25138889  0.16180556  0.01875000  1.0
  Ga  Ga1  1  0.25138889  0.49513889  0.01875000  1.0
  Ga  Ga2  1  0.25138889  0.82847222  0.01875000  1.0
  Ga  Ga3  1  0.58472222  0.16180556  0.01875000  1.0
  Ga  Ga4  1  0.58472222  0.49513889  0.01875000  1.0
  Ga  Ga5  1  0.58472222  0.82847222  0.01875000  1.0
  Ga  Ga6  1  0.91805556  0.16180556  0.01875000  1.0
  Ga  Ga7  1  0.91805556  0.49513889  0.01875000  1.0
  Ga  Ga8  1  0.91805556  0.82847222  0.01875000  1.0
  Ga  Ga9  1  0.05138889  0.27847222  0.06875000  1.0
  Ga  Ga10  1  0.05138889  0.61180556  0.06875000  1.0
  Ga  Ga11  1  0.05138889  0.94513889  0.06875000  1.0
  Ga  Ga12  1  0.38472222  0.27847222  0.06875000  1.0
  Ga  Ga13  1  0.38472222  0.61180556  0.06875000  1.0
  Ga  Ga14  1  0.38472222  0.94513889  0.06875000  1.0
  Ga  Ga15  1  0.71805556  0.27847222  0.06875000  1.0
  Ga  Ga16  1  0.71805556  0.61180556  0.06875000  1.0
  Ga  Ga17  1  0.71805556  0.94513889  0.06875000  1.0
  Ga  Ga18  1  0.01805556  0.07569444  0.07708333  1.0
  Ga  Ga19  1  0.01805556  0.40902778  0.07708333  1.0
  Ga  Ga20  1  0.01805556  0.74236111  0.07708333  1.0
  Ga  Ga21  1  0.35138889  0.07569444  0.07708333  1.0
  Ga  Ga22  1  0.35138889  0.40902778  0.07708333  1.0
  Ga  Ga23  1  0.35138889  0.74236111  0.07708333  1.0
  Ga  Ga24  1  0.68472222  0.07569444  0.07708333  1.0
  Ga  Ga25  1  0.68472222  0.40902778  0.07708333  1.0
  Ga  Ga26  1  0.68472222  0.74236111  0.07708333  1.0
  Ga  Ga27  1  0.21805556  0.29236111  0.02708333  1.0
  Ga  Ga28  1  0.21805556  0.62569444  0.02708333  1.0
  Ga  Ga29  1  0.21805556  0.95902778  0.02708333  1.0
  Ga  Ga30  1  0.55138889  0.29236111  0.02708333  1.0
  Ga  Ga31  1  0.55138889  0.62569444  0.02708333  1.0
  Ga  Ga32  1  0.55138889  0.95902778  0.02708333  1.0
  Ga  Ga33  1  0.88472222  0.29236111  0.02708333  1.0
  Ga  Ga34  1  0.88472222  0.62569444  0.02708333  1.0
  Ga  Ga35  1  0.88472222  0.95902778  0.02708333  1.0
  Ga  Ga36  1  0.18472222  0.06180556  0.11875000  1.0
  Ga  Ga37  1  0.18472222  0.39513889  0.11875000  1.0
  Ga  Ga38  1  0.18472222  0.72847222  0.11875000  1.0
  Ga  Ga39  1  0.51805556  0.06180556  0.11875000  1.0
  Ga  Ga40  1  0.51805556  0.39513889  0.11875000  1.0
  Ga  Ga41  1  0.51805556  0.72847222  0.11875000  1.0
  Ga  Ga42  1  0.85138889  0.06180556  0.11875000  1.0
  Ga  Ga43  1  0.85138889  0.39513889  0.11875000  1.0
  Ga  Ga44  1  0.85138889  0.72847222  0.11875000  1.0
  Ga  Ga45  1  0.31805556  0.17847222  0.16875000  1.0
  Ga  Ga46  1  0.31805556  0.51180556  0.16875000  1.0
  Ga  Ga47  1  0.31805556  0.84513889  0.16875000  1.0
  Ga  Ga48  1  0.65138889  0.17847222  0.16875000  1.0
  Ga  Ga49  1  0.65138889  0.51180556  0.16875000  1.0
  Ga  Ga50  1  0.65138889  0.84513889  0.16875000  1.0
  Ga  Ga51  1  0.98472222  0.17847222  0.16875000  1.0
  Ga  Ga52  1  0.98472222  0.51180556  0.16875000  1.0
  Ga  Ga53  1  0.98472222  0.84513889  0.16875000  1.0
  Ga  Ga54  1  0.28472222  0.30902778  0.17708333  1.0
  Ga  Ga55  1  0.28472222  0.64236111  0.17708333  1.0
  Ga  Ga56  1  0.28472222  0.97569444  0.17708333  1.0
  Ga  Ga57  1  0.61805556  0.30902778  0.17708333  1.0
  Ga  Ga58  1  0.61805556  0.64236111  0.17708333  1.0
  Ga  Ga59  1  0.61805556  0.97569444  0.17708333  1.0
  Ga  Ga60  1  0.95138889  0.30902778  0.17708333  1.0
  Ga  Ga61  1  0.95138889  0.64236111  0.17708333  1.0
  Ga  Ga62  1  0.95138889  0.97569444  0.17708333  1.0
  Ga  Ga63  1  0.15138889  0.19236111  0.12708333  1.0
  Ga  Ga64  1  0.15138889  0.52569444  0.12708333  1.0
  Ga  Ga65  1  0.15138889  0.85902778  0.12708333  1.0
  Ga  Ga66  1  0.48472222  0.19236111  0.12708333  1.0
  Ga  Ga67  1  0.48472222  0.52569444  0.12708333  1.0
  Ga  Ga68  1  0.48472222  0.85902778  0.12708333  1.0
  Ga  Ga69  1  0.81805556  0.19236111  0.12708333  1.0
  Ga  Ga70  1  0.81805556  0.52569444  0.12708333  1.0
  Ga  Ga71  1  0.81805556  0.85902778  0.12708333  1.0
  Ga  Ga72  1  0.11805556  0.29513889  0.21875000  1.0
  Ga  Ga73  1  0.11805556  0.62847222  0.21875000  1.0
  Ga  Ga74  1  0.11805556  0.96180556  0.21875000  1.0
  Ga  Ga75  1  0.45138889  0.29513889  0.21875000  1.0
  Ga  Ga76  1  0.45138889  0.62847222  0.21875000  1.0
  Ga  Ga77  1  0.45138889  0.96180556  0.21875000  1.0
  Ga  Ga78  1  0.78472222  0.29513889  0.21875000  1.0
  Ga  Ga79  1  0.78472222  0.62847222  0.21875000  1.0
  Ga  Ga80  1  0.78472222  0.96180556  0.21875000  1.0
  Ga  Ga81  1  0.25138889  0.07847222  0.26875000  1.0
  Ga  Ga82  1  0.25138889  0.41180556  0.26875000  1.0
  Ga  Ga83  1  0.25138889  0.74513889  0.26875000  1.0
  Ga  Ga84  1  0.58472222  0.07847222  0.26875000  1.0
  Ga  Ga85  1  0.58472222  0.41180556  0.26875000  1.0
  Ga  Ga86  1  0.58472222  0.74513889  0.26875000  1.0
  Ga  Ga87  1  0.91805556  0.07847222  0.26875000  1.0
  Ga  Ga88  1  0.91805556  0.41180556  0.26875000  1.0
  Ga  Ga89  1  0.91805556  0.74513889  0.26875000  1.0
  Ga  Ga90  1  0.21805556  0.20902778  0.27708333  1.0
  Ga  Ga91  1  0.21805556  0.54236111  0.27708333  1.0
  Ga  Ga92  1  0.21805556  0.87569444  0.27708333  1.0
  Ga  Ga93  1  0.55138889  0.20902778  0.27708333  1.0
  Ga  Ga94  1  0.55138889  0.54236111  0.27708333  1.0
  Ga  Ga95  1  0.55138889  0.87569444  0.27708333  1.0
  Ga  Ga96  1  0.88472222  0.20902778  0.27708333  1.0
  Ga  Ga97  1  0.88472222  0.54236111  0.27708333  1.0
  Ga  Ga98  1  0.88472222  0.87569444  0.27708333  1.0
  Ga  Ga99  1  0.08472222  0.09236111  0.22708333  1.0
  Ga  Ga100  1  0.08472222  0.42569444  0.22708333  1.0
  Ga  Ga101  1  0.08472222  0.75902778  0.22708333  1.0
  Ga  Ga102  1  0.41805556  0.09236111  0.22708333  1.0
  Ga  Ga103  1  0.41805556  0.42569444  0.22708333  1.0
  Ga  Ga104  1  0.41805556  0.75902778  0.22708333  1.0
  Ga  Ga105  1  0.75138889  0.09236111  0.22708333  1.0
  Ga  Ga106  1  0.75138889  0.42569444  0.22708333  1.0
  Ga  Ga107  1  0.75138889  0.75902778  0.22708333  1.0
  Ga  Ga108  1  0.05138889  0.19513889  0.31875000  1.0
  Ga  Ga109  1  0.05138889  0.52847222  0.31875000  1.0
  Ga  Ga110  1  0.05138889  0.86180556  0.31875000  1.0
  Ga  Ga111  1  0.38472222  0.19513889  0.31875000  1.0
  Ga  Ga112  1  0.38472222  0.52847222  0.31875000  1.0
  Ga  Ga113  1  0.38472222  0.86180556  0.31875000  1.0
  Ga  Ga114  1  0.71805556  0.19513889  0.31875000  1.0
  Ga  Ga115  1  0.71805556  0.52847222  0.31875000  1.0
  Ga  Ga116  1  0.71805556  0.86180556  0.31875000  1.0
  Ga  Ga117  1  0.18472222  0.31180556  0.36875000  1.0
  Ga  Ga118  1  0.18472222  0.64513889  0.36875000  1.0
  Ga  Ga119  1  0.18472222  0.97847222  0.36875000  1.0
  Ga  Ga120  1  0.51805556  0.31180556  0.36875000  1.0
  Ga  Ga121  1  0.51805556  0.64513889  0.36875000  1.0
  Ga  Ga122  1  0.51805556  0.97847222  0.36875000  1.0
  Ga  Ga123  1  0.85138889  0.31180556  0.36875000  1.0
  Ga  Ga124  1  0.85138889  0.64513889  0.36875000  1.0
  Ga  Ga125  1  0.85138889  0.97847222  0.36875000  1.0
  Ga  Ga126  1  0.15138889  0.10902778  0.37708333  1.0
  Ga  Ga127  1  0.15138889  0.44236111  0.37708333  1.0
  Ga  Ga128  1  0.15138889  0.77569444  0.37708333  1.0
  Ga  Ga129  1  0.48472222  0.10902778  0.37708333  1.0
  Ga  Ga130  1  0.48472222  0.44236111  0.37708333  1.0
  Ga  Ga131  1  0.48472222  0.77569444  0.37708333  1.0
  Ga  Ga132  1  0.81805556  0.10902778  0.37708333  1.0
  Ga  Ga133  1  0.81805556  0.44236111  0.37708333  1.0
  Ga  Ga134  1  0.81805556  0.77569444  0.37708333  1.0
  Ga  Ga135  1  0.01805556  0.32569444  0.32708333  1.0
  Ga  Ga136  1  0.01805556  0.65902778  0.32708333  1.0
  Ga  Ga137  1  0.01805556  0.99236111  0.32708333  1.0
  Ga  Ga138  1  0.35138889  0.32569444  0.32708333  1.0
  Ga  Ga139  1  0.35138889  0.65902778  0.32708333  1.0
  Ga  Ga140  1  0.35138889  0.99236111  0.32708333  1.0
  Ga  Ga141  1  0.68472222  0.32569444  0.32708333  1.0
  Ga  Ga142  1  0.68472222  0.65902778  0.32708333  1.0
  Ga  Ga143  1  0.68472222  0.99236111  0.32708333  1.0
  Ni  Ni144  1  0.23472222  0.06041667  0.02291667  1.0
  Ni  Ni145  1  0.23472222  0.39375000  0.02291667  1.0
  Ni  Ni146  1  0.23472222  0.72708333  0.02291667  1.0
  Ni  Ni147  1  0.56805556  0.06041667  0.02291667  1.0
  Ni  Ni148  1  0.56805556  0.39375000  0.02291667  1.0
  Ni  Ni149  1  0.56805556  0.72708333  0.02291667  1.0
  Ni  Ni150  1  0.90138889  0.06041667  0.02291667  1.0
  Ni  Ni151  1  0.90138889  0.39375000  0.02291667  1.0
  Ni  Ni152  1  0.90138889  0.72708333  0.02291667  1.0
  Ni  Ni153  1  0.03472222  0.17708333  0.07291667  1.0
  Ni  Ni154  1  0.03472222  0.51041667  0.07291667  1.0
  Ni  Ni155  1  0.03472222  0.84375000  0.07291667  1.0
  Ni  Ni156  1  0.36805556  0.17708333  0.07291667  1.0
  Ni  Ni157  1  0.36805556  0.51041667  0.07291667  1.0
  Ni  Ni158  1  0.36805556  0.84375000  0.07291667  1.0
  Ni  Ni159  1  0.70138889  0.17708333  0.07291667  1.0
  Ni  Ni160  1  0.70138889  0.51041667  0.07291667  1.0
  Ni  Ni161  1  0.70138889  0.84375000  0.07291667  1.0
  Ni  Ni162  1  0.31805556  0.23402778  0.00208333  1.0
  Ni  Ni163  1  0.31805556  0.56736111  0.00208333  1.0
  Ni  Ni164  1  0.31805556  0.90069444  0.00208333  1.0
  Ni  Ni165  1  0.65138889  0.23402778  0.00208333  1.0
  Ni  Ni166  1  0.65138889  0.56736111  0.00208333  1.0
  Ni  Ni167  1  0.65138889  0.90069444  0.00208333  1.0
  Ni  Ni168  1  0.98472222  0.23402778  0.00208333  1.0
  Ni  Ni169  1  0.98472222  0.56736111  0.00208333  1.0
  Ni  Ni170  1  0.98472222  0.90069444  0.00208333  1.0
  Ni  Ni171  1  0.11805556  0.01736111  0.05208333  1.0
  Ni  Ni172  1  0.11805556  0.35069444  0.05208333  1.0
  Ni  Ni173  1  0.11805556  0.68402778  0.05208333  1.0
  Ni  Ni174  1  0.45138889  0.01736111  0.05208333  1.0
  Ni  Ni175  1  0.45138889  0.35069444  0.05208333  1.0
  Ni  Ni176  1  0.45138889  0.68402778  0.05208333  1.0
  Ni  Ni177  1  0.78472222  0.01736111  0.05208333  1.0
  Ni  Ni178  1  0.78472222  0.35069444  0.05208333  1.0
  Ni  Ni179  1  0.78472222  0.68402778  0.05208333  1.0
  Ni  Ni180  1  0.28472222  0.00347222  0.09375000  1.0
  Ni  Ni181  1  0.28472222  0.33680556  0.09375000  1.0
  Ni  Ni182  1  0.28472222  0.67013889  0.09375000  1.0
  Ni  Ni183  1  0.61805556  0.00347222  0.09375000  1.0
  Ni  Ni184  1  0.61805556  0.33680556  0.09375000  1.0
  Ni  Ni185  1  0.61805556  0.67013889  0.09375000  1.0
  Ni  Ni186  1  0.95138889  0.00347222  0.09375000  1.0
  Ni  Ni187  1  0.95138889  0.33680556  0.09375000  1.0
  Ni  Ni188  1  0.95138889  0.67013889  0.09375000  1.0
  Ni  Ni189  1  0.15138889  0.22013889  0.04375000  1.0
  Ni  Ni190  1  0.15138889  0.55347222  0.04375000  1.0
  Ni  Ni191  1  0.15138889  0.88680556  0.04375000  1.0
  Ni  Ni192  1  0.48472222  0.22013889  0.04375000  1.0
  Ni  Ni193  1  0.48472222  0.55347222  0.04375000  1.0
  Ni  Ni194  1  0.48472222  0.88680556  0.04375000  1.0
  Ni  Ni195  1  0.81805556  0.22013889  0.04375000  1.0
  Ni  Ni196  1  0.81805556  0.55347222  0.04375000  1.0
  Ni  Ni197  1  0.81805556  0.88680556  0.04375000  1.0
  Ni  Ni198  1  0.26805556  0.23541667  0.09791667  1.0
  Ni  Ni199  1  0.26805556  0.56875000  0.09791667  1.0
  Ni  Ni200  1  0.26805556  0.90208333  0.09791667  1.0
  Ni  Ni201  1  0.60138889  0.23541667  0.09791667  1.0
  Ni  Ni202  1  0.60138889  0.56875000  0.09791667  1.0
  Ni  Ni203  1  0.60138889  0.90208333  0.09791667  1.0
  Ni  Ni204  1  0.93472222  0.23541667  0.09791667  1.0
  Ni  Ni205  1  0.93472222  0.56875000  0.09791667  1.0
  Ni  Ni206  1  0.93472222  0.90208333  0.09791667  1.0
  Ni  Ni207  1  0.13472222  0.11875000  0.04791667  1.0
  Ni  Ni208  1  0.13472222  0.45208333  0.04791667  1.0
  Ni  Ni209  1  0.13472222  0.78541667  0.04791667  1.0
  Ni  Ni210  1  0.46805556  0.11875000  0.04791667  1.0
  Ni  Ni211  1  0.46805556  0.45208333  0.04791667  1.0
  Ni  Ni212  1  0.46805556  0.78541667  0.04791667  1.0
  Ni  Ni213  1  0.80138889  0.11875000  0.04791667  1.0
  Ni  Ni214  1  0.80138889  0.45208333  0.04791667  1.0
  Ni  Ni215  1  0.80138889  0.78541667  0.04791667  1.0
  Ni  Ni216  1  0.16805556  0.29375000  0.12291667  1.0
  Ni  Ni217  1  0.16805556  0.62708333  0.12291667  1.0
  Ni  Ni218  1  0.16805556  0.96041667  0.12291667  1.0
  Ni  Ni219  1  0.50138889  0.29375000  0.12291667  1.0
  Ni  Ni220  1  0.50138889  0.62708333  0.12291667  1.0
  Ni  Ni221  1  0.50138889  0.96041667  0.12291667  1.0
  Ni  Ni222  1  0.83472222  0.29375000  0.12291667  1.0
  Ni  Ni223  1  0.83472222  0.62708333  0.12291667  1.0
  Ni  Ni224  1  0.83472222  0.96041667  0.12291667  1.0
  Ni  Ni225  1  0.30138889  0.07708333  0.17291667  1.0
  Ni  Ni226  1  0.30138889  0.41041667  0.17291667  1.0
  Ni  Ni227  1  0.30138889  0.74375000  0.17291667  1.0
  Ni  Ni228  1  0.63472222  0.07708333  0.17291667  1.0
  Ni  Ni229  1  0.63472222  0.41041667  0.17291667  1.0
  Ni  Ni230  1  0.63472222  0.74375000  0.17291667  1.0
  Ni  Ni231  1  0.96805556  0.07708333  0.17291667  1.0
  Ni  Ni232  1  0.96805556  0.41041667  0.17291667  1.0
  Ni  Ni233  1  0.96805556  0.74375000  0.17291667  1.0
  Ni  Ni234  1  0.25138889  0.13402778  0.10208333  1.0
  Ni  Ni235  1  0.25138889  0.46736111  0.10208333  1.0
  Ni  Ni236  1  0.25138889  0.80069444  0.10208333  1.0
  Ni  Ni237  1  0.58472222  0.13402778  0.10208333  1.0
  Ni  Ni238  1  0.58472222  0.46736111  0.10208333  1.0
  Ni  Ni239  1  0.58472222  0.80069444  0.10208333  1.0
  Ni  Ni240  1  0.91805556  0.13402778  0.10208333  1.0
  Ni  Ni241  1  0.91805556  0.46736111  0.10208333  1.0
  Ni  Ni242  1  0.91805556  0.80069444  0.10208333  1.0
  Ni  Ni243  1  0.05138889  0.25069444  0.15208333  1.0
  Ni  Ni244  1  0.05138889  0.58402778  0.15208333  1.0
  Ni  Ni245  1  0.05138889  0.91736111  0.15208333  1.0
  Ni  Ni246  1  0.38472222  0.25069444  0.15208333  1.0
  Ni  Ni247  1  0.38472222  0.58402778  0.15208333  1.0
  Ni  Ni248  1  0.38472222  0.91736111  0.15208333  1.0
  Ni  Ni249  1  0.71805556  0.25069444  0.15208333  1.0
  Ni  Ni250  1  0.71805556  0.58402778  0.15208333  1.0
  Ni  Ni251  1  0.71805556  0.91736111  0.15208333  1.0
  Ni  Ni252  1  0.21805556  0.23680556  0.19375000  1.0
  Ni  Ni253  1  0.21805556  0.57013889  0.19375000  1.0
  Ni  Ni254  1  0.21805556  0.90347222  0.19375000  1.0
  Ni  Ni255  1  0.55138889  0.23680556  0.19375000  1.0
  Ni  Ni256  1  0.55138889  0.57013889  0.19375000  1.0
  Ni  Ni257  1  0.55138889  0.90347222  0.19375000  1.0
  Ni  Ni258  1  0.88472222  0.23680556  0.19375000  1.0
  Ni  Ni259  1  0.88472222  0.57013889  0.19375000  1.0
  Ni  Ni260  1  0.88472222  0.90347222  0.19375000  1.0
  Ni  Ni261  1  0.08472222  0.12013889  0.14375000  1.0
  Ni  Ni262  1  0.08472222  0.45347222  0.14375000  1.0
  Ni  Ni263  1  0.08472222  0.78680556  0.14375000  1.0
  Ni  Ni264  1  0.41805556  0.12013889  0.14375000  1.0
  Ni  Ni265  1  0.41805556  0.45347222  0.14375000  1.0
  Ni  Ni266  1  0.41805556  0.78680556  0.14375000  1.0
  Ni  Ni267  1  0.75138889  0.12013889  0.14375000  1.0
  Ni  Ni268  1  0.75138889  0.45347222  0.14375000  1.0
  Ni  Ni269  1  0.75138889  0.78680556  0.14375000  1.0
  Ni  Ni270  1  0.20138889  0.13541667  0.19791667  1.0
  Ni  Ni271  1  0.20138889  0.46875000  0.19791667  1.0
  Ni  Ni272  1  0.20138889  0.80208333  0.19791667  1.0
  Ni  Ni273  1  0.53472222  0.13541667  0.19791667  1.0
  Ni  Ni274  1  0.53472222  0.46875000  0.19791667  1.0
  Ni  Ni275  1  0.53472222  0.80208333  0.19791667  1.0
  Ni  Ni276  1  0.86805556  0.13541667  0.19791667  1.0
  Ni  Ni277  1  0.86805556  0.46875000  0.19791667  1.0
  Ni  Ni278  1  0.86805556  0.80208333  0.19791667  1.0
  Ni  Ni279  1  0.06805556  0.01875000  0.14791667  1.0
  Ni  Ni280  1  0.06805556  0.35208333  0.14791667  1.0
  Ni  Ni281  1  0.06805556  0.68541667  0.14791667  1.0
  Ni  Ni282  1  0.40138889  0.01875000  0.14791667  1.0
  Ni  Ni283  1  0.40138889  0.35208333  0.14791667  1.0
  Ni  Ni284  1  0.40138889  0.68541667  0.14791667  1.0
  Ni  Ni285  1  0.73472222  0.01875000  0.14791667  1.0
  Ni  Ni286  1  0.73472222  0.35208333  0.14791667  1.0
  Ni  Ni287  1  0.73472222  0.68541667  0.14791667  1.0
  Ni  Ni288  1  0.10138889  0.19375000  0.22291667  1.0
  Ni  Ni289  1  0.10138889  0.52708333  0.22291667  1.0
  Ni  Ni290  1  0.10138889  0.86041667  0.22291667  1.0
  Ni  Ni291  1  0.43472222  0.19375000  0.22291667  1.0
  Ni  Ni292  1  0.43472222  0.52708333  0.22291667  1.0
  Ni  Ni293  1  0.43472222  0.86041667  0.22291667  1.0
  Ni  Ni294  1  0.76805556  0.19375000  0.22291667  1.0
  Ni  Ni295  1  0.76805556  0.52708333  0.22291667  1.0
  Ni  Ni296  1  0.76805556  0.86041667  0.22291667  1.0
  Ni  Ni297  1  0.23472222  0.31041667  0.27291667  1.0
  Ni  Ni298  1  0.23472222  0.64375000  0.27291667  1.0
  Ni  Ni299  1  0.23472222  0.97708333  0.27291667  1.0
  Ni  Ni300  1  0.56805556  0.31041667  0.27291667  1.0
  Ni  Ni301  1  0.56805556  0.64375000  0.27291667  1.0
  Ni  Ni302  1  0.56805556  0.97708333  0.27291667  1.0
  Ni  Ni303  1  0.90138889  0.31041667  0.27291667  1.0
  Ni  Ni304  1  0.90138889  0.64375000  0.27291667  1.0
  Ni  Ni305  1  0.90138889  0.97708333  0.27291667  1.0
  Ni  Ni306  1  0.18472222  0.03402778  0.20208333  1.0
  Ni  Ni307  1  0.18472222  0.36736111  0.20208333  1.0
  Ni  Ni308  1  0.18472222  0.70069444  0.20208333  1.0
  Ni  Ni309  1  0.51805556  0.03402778  0.20208333  1.0
  Ni  Ni310  1  0.51805556  0.36736111  0.20208333  1.0
  Ni  Ni311  1  0.51805556  0.70069444  0.20208333  1.0
  Ni  Ni312  1  0.85138889  0.03402778  0.20208333  1.0
  Ni  Ni313  1  0.85138889  0.36736111  0.20208333  1.0
  Ni  Ni314  1  0.85138889  0.70069444  0.20208333  1.0
  Ni  Ni315  1  0.31805556  0.15069444  0.25208333  1.0
  Ni  Ni316  1  0.31805556  0.48402778  0.25208333  1.0
  Ni  Ni317  1  0.31805556  0.81736111  0.25208333  1.0
  Ni  Ni318  1  0.65138889  0.15069444  0.25208333  1.0
  Ni  Ni319  1  0.65138889  0.48402778  0.25208333  1.0
  Ni  Ni320  1  0.65138889  0.81736111  0.25208333  1.0
  Ni  Ni321  1  0.98472222  0.15069444  0.25208333  1.0
  Ni  Ni322  1  0.98472222  0.48402778  0.25208333  1.0
  Ni  Ni323  1  0.98472222  0.81736111  0.25208333  1.0
  Ni  Ni324  1  0.15138889  0.13680556  0.29375000  1.0
  Ni  Ni325  1  0.15138889  0.47013889  0.29375000  1.0
  Ni  Ni326  1  0.15138889  0.80347222  0.29375000  1.0
  Ni  Ni327  1  0.48472222  0.13680556  0.29375000  1.0
  Ni  Ni328  1  0.48472222  0.47013889  0.29375000  1.0
  Ni  Ni329  1  0.48472222  0.80347222  0.29375000  1.0
  Ni  Ni330  1  0.81805556  0.13680556  0.29375000  1.0
  Ni  Ni331  1  0.81805556  0.47013889  0.29375000  1.0
  Ni  Ni332  1  0.81805556  0.80347222  0.29375000  1.0
  Ni  Ni333  1  0.01805556  0.02013889  0.24375000  1.0
  Ni  Ni334  1  0.01805556  0.35347222  0.24375000  1.0
  Ni  Ni335  1  0.01805556  0.68680556  0.24375000  1.0
  Ni  Ni336  1  0.35138889  0.02013889  0.24375000  1.0
  Ni  Ni337  1  0.35138889  0.35347222  0.24375000  1.0
  Ni  Ni338  1  0.35138889  0.68680556  0.24375000  1.0
  Ni  Ni339  1  0.68472222  0.02013889  0.24375000  1.0
  Ni  Ni340  1  0.68472222  0.35347222  0.24375000  1.0
  Ni  Ni341  1  0.68472222  0.68680556  0.24375000  1.0
  Ni  Ni342  1  0.13472222  0.03541667  0.29791667  1.0
  Ni  Ni343  1  0.13472222  0.36875000  0.29791667  1.0
  Ni  Ni344  1  0.13472222  0.70208333  0.29791667  1.0
  Ni  Ni345  1  0.46805556  0.03541667  0.29791667  1.0
  Ni  Ni346  1  0.46805556  0.36875000  0.29791667  1.0
  Ni  Ni347  1  0.46805556  0.70208333  0.29791667  1.0
  Ni  Ni348  1  0.80138889  0.03541667  0.29791667  1.0
  Ni  Ni349  1  0.80138889  0.36875000  0.29791667  1.0
  Ni  Ni350  1  0.80138889  0.70208333  0.29791667  1.0
  Ni  Ni351  1  0.00138889  0.25208333  0.24791667  1.0
  Ni  Ni352  1  0.00138889  0.58541667  0.24791667  1.0
  Ni  Ni353  1  0.00138889  0.91875000  0.24791667  1.0
  Ni  Ni354  1  0.33472222  0.25208333  0.24791667  1.0
  Ni  Ni355  1  0.33472222  0.58541667  0.24791667  1.0
  Ni  Ni356  1  0.33472222  0.91875000  0.24791667  1.0
  Ni  Ni357  1  0.66805556  0.25208333  0.24791667  1.0
  Ni  Ni358  1  0.66805556  0.58541667  0.24791667  1.0
  Ni  Ni359  1  0.66805556  0.91875000  0.24791667  1.0
  Ni  Ni360  1  0.03472222  0.09375000  0.32291667  1.0
  Ni  Ni361  1  0.03472222  0.42708333  0.32291667  1.0
  Ni  Ni362  1  0.03472222  0.76041667  0.32291667  1.0
  Ni  Ni363  1  0.36805556  0.09375000  0.32291667  1.0
  Ni  Ni364  1  0.36805556  0.42708333  0.32291667  1.0
  Ni  Ni365  1  0.36805556  0.76041667  0.32291667  1.0
  Ni  Ni366  1  0.70138889  0.09375000  0.32291667  1.0
  Ni  Ni367  1  0.70138889  0.42708333  0.32291667  1.0
  Ni  Ni368  1  0.70138889  0.76041667  0.32291667  1.0
  Ni  Ni369  1  0.16805556  0.21041667  0.37291667  1.0
  Ni  Ni370  1  0.16805556  0.54375000  0.37291667  1.0
  Ni  Ni371  1  0.16805556  0.87708333  0.37291667  1.0
  Ni  Ni372  1  0.50138889  0.21041667  0.37291667  1.0
  Ni  Ni373  1  0.50138889  0.54375000  0.37291667  1.0
  Ni  Ni374  1  0.50138889  0.87708333  0.37291667  1.0
  Ni  Ni375  1  0.83472222  0.21041667  0.37291667  1.0
  Ni  Ni376  1  0.83472222  0.54375000  0.37291667  1.0
  Ni  Ni377  1  0.83472222  0.87708333  0.37291667  1.0
  Ni  Ni378  1  0.11805556  0.26736111  0.30208333  1.0
  Ni  Ni379  1  0.11805556  0.60069444  0.30208333  1.0
  Ni  Ni380  1  0.11805556  0.93402778  0.30208333  1.0
  Ni  Ni381  1  0.45138889  0.26736111  0.30208333  1.0
  Ni  Ni382  1  0.45138889  0.60069444  0.30208333  1.0
  Ni  Ni383  1  0.45138889  0.93402778  0.30208333  1.0
  Ni  Ni384  1  0.78472222  0.26736111  0.30208333  1.0
  Ni  Ni385  1  0.78472222  0.60069444  0.30208333  1.0
  Ni  Ni386  1  0.78472222  0.93402778  0.30208333  1.0
  Ni  Ni387  1  0.25138889  0.05069444  0.35208333  1.0
  Ni  Ni388  1  0.25138889  0.38402778  0.35208333  1.0
  Ni  Ni389  1  0.25138889  0.71736111  0.35208333  1.0
  Ni  Ni390  1  0.58472222  0.05069444  0.35208333  1.0
  Ni  Ni391  1  0.58472222  0.38402778  0.35208333  1.0
  Ni  Ni392  1  0.58472222  0.71736111  0.35208333  1.0
  Ni  Ni393  1  0.91805556  0.05069444  0.35208333  1.0
  Ni  Ni394  1  0.91805556  0.38402778  0.35208333  1.0
  Ni  Ni395  1  0.91805556  0.71736111  0.35208333  1.0
  Ni  Ni396  1  0.08472222  0.03680556  0.39375000  1.0
  Ni  Ni397  1  0.08472222  0.37013889  0.39375000  1.0
  Ni  Ni398  1  0.08472222  0.70347222  0.39375000  1.0
  Ni  Ni399  1  0.41805556  0.03680556  0.39375000  1.0
  Ni  Ni400  1  0.41805556  0.37013889  0.39375000  1.0
  Ni  Ni401  1  0.41805556  0.70347222  0.39375000  1.0
  Ni  Ni402  1  0.75138889  0.03680556  0.39375000  1.0
  Ni  Ni403  1  0.75138889  0.37013889  0.39375000  1.0
  Ni  Ni404  1  0.75138889  0.70347222  0.39375000  1.0
  Ni  Ni405  1  0.28472222  0.25347222  0.34375000  1.0
  Ni  Ni406  1  0.28472222  0.58680556  0.34375000  1.0
  Ni  Ni407  1  0.28472222  0.92013889  0.34375000  1.0
  Ni  Ni408  1  0.61805556  0.25347222  0.34375000  1.0
  Ni  Ni409  1  0.61805556  0.58680556  0.34375000  1.0
  Ni  Ni410  1  0.61805556  0.92013889  0.34375000  1.0
  Ni  Ni411  1  0.95138889  0.25347222  0.34375000  1.0
  Ni  Ni412  1  0.95138889  0.58680556  0.34375000  1.0
  Ni  Ni413  1  0.95138889  0.92013889  0.34375000  1.0
  Ni  Ni414  1  0.06805556  0.26875000  0.39791667  1.0
  Ni  Ni415  1  0.06805556  0.60208333  0.39791667  1.0
  Ni  Ni416  1  0.06805556  0.93541667  0.39791667  1.0
  Ni  Ni417  1  0.40138889  0.26875000  0.39791667  1.0
  Ni  Ni418  1  0.40138889  0.60208333  0.39791667  1.0
  Ni  Ni419  1  0.40138889  0.93541667  0.39791667  1.0
  Ni  Ni420  1  0.73472222  0.26875000  0.39791667  1.0
  Ni  Ni421  1  0.73472222  0.60208333  0.39791667  1.0
  Ni  Ni422  1  0.73472222  0.93541667  0.39791667  1.0
  Ni  Ni423  1  0.26805556  0.15208333  0.34791667  1.0
  Ni  Ni424  1  0.26805556  0.48541667  0.34791667  1.0
  Ni  Ni425  1  0.26805556  0.81875000  0.34791667  1.0
  Ni  Ni426  1  0.60138889  0.15208333  0.34791667  1.0
  Ni  Ni427  1  0.60138889  0.48541667  0.34791667  1.0
  Ni  Ni428  1  0.60138889  0.81875000  0.34791667  1.0
  Ni  Ni429  1  0.93472222  0.15208333  0.34791667  1.0
  Ni  Ni430  1  0.93472222  0.48541667  0.34791667  1.0
  Ni  Ni431  1  0.93472222  0.81875000  0.34791667  1.0
