# generated using pymatgen
data_GaNi2
_symmetry_space_group_name_H-M   'P 1'
_cell_length_a   14.05789124
_cell_length_b   19.30760595
_cell_length_c   54.10884860
_cell_angle_alpha   114.85791328
_cell_angle_beta   150.00000000
_cell_angle_gamma   68.65083304
_symmetry_Int_Tables_number   1
_chemical_formula_structural   GaNi2
_chemical_formula_sum   'Ga72 Ni144'
_cell_volume   6662.89857435
_cell_formula_units_Z   72
loop_
 _symmetry_equiv_pos_site_id
 _symmetry_equiv_pos_as_xyz
  1  'x, y, z'
loop_
 _atom_site_type_symbol
 _atom_site_label
 _atom_site_symmetry_multiplicity
 _atom_site_fract_x
 _atom_site_fract_y
 _atom_site_fract_z
 _atom_site_occupancy
  Ga  Ga0  1  0.00000000  0.00000000  0.04171737  1.0
  Ga  Ga1  1  0.00000000  0.33333333  0.04171737  1.0
  Ga  Ga2  1  0.00000000  0.66666667  0.04171737  1.0
  Ga  Ga3  1  0.33333333  0.00000000  0.04171737  1.0
  Ga  Ga4  1  0.33333333  0.33333333  0.04171737  1.0
  Ga  Ga5  1  0.33333333  0.66666667  0.04171737  1.0
  Ga  Ga6  1  0.66666667  0.00000000  0.04171737  1.0
  Ga  Ga7  1  0.66666667  0.33333333  0.04171738  1.0
  Ga  Ga8  1  0.66666667  0.66666667  0.04171738  1.0
  Ni  Ni9  1  0.11111111  0.22289833  0.02515213  1.0
  Ni  Ni10  1  0.11111111  0.55623167  0.02515213  1.0
  Ni  Ni11  1  0.11111111  0.88956500  0.02515213  1.0
  Ni  Ni12  1  0.44444444  0.22289833  0.02515212  1.0
  Ni  Ni13  1  0.44444444  0.55623167  0.02515213  1.0
  Ni  Ni14  1  0.44444444  0.88956500  0.02515213  1.0
  Ni  Ni15  1  0.77777778  0.22289833  0.02515212  1.0
  Ni  Ni16  1  0.77777778  0.55623167  0.02515213  1.0
  Ni  Ni17  1  0.77777778  0.88956500  0.02515213  1.0
  Ni  Ni18  1  0.22222222  0.11043500  0.00828263  1.0
  Ni  Ni19  1  0.22222222  0.44376833  0.00828263  1.0
  Ni  Ni20  1  0.22222222  0.77710167  0.00828263  1.0
  Ni  Ni21  1  0.55555556  0.11043500  0.00828263  1.0
  Ni  Ni22  1  0.55555556  0.44376833  0.00828263  1.0
  Ni  Ni23  1  0.55555556  0.77710167  0.00828262  1.0
  Ni  Ni24  1  0.88888889  0.11043500  0.00828263  1.0
  Ni  Ni25  1  0.88888889  0.44376833  0.00828262  1.0
  Ni  Ni26  1  0.88888889  0.77710167  0.00828263  1.0
  Ga  Ga27  1  0.00000000  0.00000000  0.09171737  1.0
  Ga  Ga28  1  0.00000000  0.33333333  0.09171737  1.0
  Ga  Ga29  1  0.00000000  0.66666667  0.09171737  1.0
  Ga  Ga30  1  0.33333333  0.00000000  0.09171737  1.0
  Ga  Ga31  1  0.33333333  0.33333333  0.09171737  1.0
  Ga  Ga32  1  0.33333333  0.66666667  0.09171737  1.0
  Ga  Ga33  1  0.66666667  0.00000000  0.09171737  1.0
  Ga  Ga34  1  0.66666667  0.33333333  0.09171738  1.0
  Ga  Ga35  1  0.66666667  0.66666667  0.09171737  1.0
  Ni  Ni36  1  0.11111111  0.22289833  0.07515213  1.0
  Ni  Ni37  1  0.11111111  0.55623167  0.07515213  1.0
  Ni  Ni38  1  0.11111111  0.88956500  0.07515213  1.0
  Ni  Ni39  1  0.44444444  0.22289833  0.07515213  1.0
  Ni  Ni40  1  0.44444444  0.55623167  0.07515213  1.0
  Ni  Ni41  1  0.44444444  0.88956500  0.07515213  1.0
  Ni  Ni42  1  0.77777778  0.22289833  0.07515213  1.0
  Ni  Ni43  1  0.77777778  0.55623167  0.07515213  1.0
  Ni  Ni44  1  0.77777778  0.88956500  0.07515213  1.0
  Ni  Ni45  1  0.22222222  0.11043500  0.05828263  1.0
  Ni  Ni46  1  0.22222222  0.44376833  0.05828263  1.0
  Ni  Ni47  1  0.22222222  0.77710167  0.05828263  1.0
  Ni  Ni48  1  0.55555556  0.11043500  0.05828263  1.0
  Ni  Ni49  1  0.55555556  0.44376833  0.05828263  1.0
  Ni  Ni50  1  0.55555556  0.77710167  0.05828262  1.0
  Ni  Ni51  1  0.88888889  0.11043500  0.05828263  1.0
  Ni  Ni52  1  0.88888889  0.44376833  0.05828263  1.0
  Ni  Ni53  1  0.88888889  0.77710167  0.05828263  1.0
  Ga  Ga54  1  0.00000000  0.00000000  0.14171737  1.0
  Ga  Ga55  1  0.00000000  0.33333333  0.14171737  1.0
  Ga  Ga56  1  0.00000000  0.66666667  0.14171737  1.0
  Ga  Ga57  1  0.33333333  0.00000000  0.14171737  1.0
  Ga  Ga58  1  0.33333333  0.33333333  0.14171737  1.0
  Ga  Ga59  1  0.33333333  0.66666667  0.14171737  1.0
  Ga  Ga60  1  0.66666667  0.00000000  0.14171737  1.0
  Ga  Ga61  1  0.66666667  0.33333333  0.14171737  1.0
  Ga  Ga62  1  0.66666667  0.66666667  0.14171737  1.0
  Ni  Ni63  1  0.11111111  0.22289833  0.12515213  1.0
  Ni  Ni64  1  0.11111111  0.55623167  0.12515213  1.0
  Ni  Ni65  1  0.11111111  0.88956500  0.12515213  1.0
  Ni  Ni66  1  0.44444444  0.22289833  0.12515213  1.0
  Ni  Ni67  1  0.44444444  0.55623167  0.12515213  1.0
  Ni  Ni68  1  0.44444444  0.88956500  0.12515213  1.0
  Ni  Ni69  1  0.77777778  0.22289833  0.12515213  1.0
  Ni  Ni70  1  0.77777778  0.55623167  0.12515213  1.0
  Ni  Ni71  1  0.77777778  0.88956500  0.12515213  1.0
  Ni  Ni72  1  0.22222222  0.11043500  0.10828263  1.0
  Ni  Ni73  1  0.22222222  0.44376833  0.10828263  1.0
  Ni  Ni74  1  0.22222222  0.77710167  0.10828263  1.0
  Ni  Ni75  1  0.55555556  0.11043500  0.10828263  1.0
  Ni  Ni76  1  0.55555556  0.44376833  0.10828263  1.0
  Ni  Ni77  1  0.55555556  0.77710167  0.10828262  1.0
  Ni  Ni78  1  0.88888889  0.11043500  0.10828263  1.0
  Ni  Ni79  1  0.88888889  0.44376833  0.10828263  1.0
  Ni  Ni80  1  0.88888889  0.77710167  0.10828263  1.0
  Ga  Ga81  1  0.00000000  0.00000000  0.19171737  1.0
  Ga  Ga82  1  0.00000000  0.33333333  0.19171737  1.0
  Ga  Ga83  1  0.00000000  0.66666667  0.19171737  1.0
  Ga  Ga84  1  0.33333333  0.00000000  0.19171737  1.0
  Ga  Ga85  1  0.33333333  0.33333333  0.19171737  1.0
  Ga  Ga86  1  0.33333333  0.66666667  0.19171737  1.0
  Ga  Ga87  1  0.66666667  0.00000000  0.19171737  1.0
  Ga  Ga88  1  0.66666667  0.33333333  0.19171737  1.0
  Ga  Ga89  1  0.66666667  0.66666667  0.19171737  1.0
  Ni  Ni90  1  0.11111111  0.22289833  0.17515212  1.0
  Ni  Ni91  1  0.11111111  0.55623167  0.17515213  1.0
  Ni  Ni92  1  0.11111111  0.88956500  0.17515213  1.0
  Ni  Ni93  1  0.44444444  0.22289833  0.17515212  1.0
  Ni  Ni94  1  0.44444444  0.55623167  0.17515213  1.0
  Ni  Ni95  1  0.44444444  0.88956500  0.17515212  1.0
  Ni  Ni96  1  0.77777778  0.22289833  0.17515212  1.0
  Ni  Ni97  1  0.77777778  0.55623167  0.17515213  1.0
  Ni  Ni98  1  0.77777778  0.88956500  0.17515213  1.0
  Ni  Ni99  1  0.22222222  0.11043500  0.15828263  1.0
  Ni  Ni100  1  0.22222222  0.44376833  0.15828263  1.0
  Ni  Ni101  1  0.22222222  0.77710167  0.15828263  1.0
  Ni  Ni102  1  0.55555556  0.11043500  0.15828263  1.0
  Ni  Ni103  1  0.55555556  0.44376833  0.15828263  1.0
  Ni  Ni104  1  0.55555556  0.77710167  0.15828262  1.0
  Ni  Ni105  1  0.88888889  0.11043500  0.15828263  1.0
  Ni  Ni106  1  0.88888889  0.44376833  0.15828263  1.0
  Ni  Ni107  1  0.88888889  0.77710167  0.15828263  1.0
  Ga  Ga108  1  0.00000000  0.00000000  0.24171738  1.0
  Ga  Ga109  1  0.00000000  0.33333333  0.24171738  1.0
  Ga  Ga110  1  0.00000000  0.66666667  0.24171737  1.0
  Ga  Ga111  1  0.33333333  0.00000000  0.24171738  1.0
  Ga  Ga112  1  0.33333333  0.33333333  0.24171738  1.0
  Ga  Ga113  1  0.33333333  0.66666667  0.24171737  1.0
  Ga  Ga114  1  0.66666667  0.00000000  0.24171738  1.0
  Ga  Ga115  1  0.66666667  0.33333333  0.24171738  1.0
  Ga  Ga116  1  0.66666667  0.66666667  0.24171737  1.0
  Ni  Ni117  1  0.11111111  0.22289833  0.22515213  1.0
  Ni  Ni118  1  0.11111111  0.55623167  0.22515213  1.0
  Ni  Ni119  1  0.11111111  0.88956500  0.22515213  1.0
  Ni  Ni120  1  0.44444444  0.22289833  0.22515213  1.0
  Ni  Ni121  1  0.44444444  0.55623167  0.22515213  1.0
  Ni  Ni122  1  0.44444444  0.88956500  0.22515213  1.0
  Ni  Ni123  1  0.77777778  0.22289833  0.22515213  1.0
  Ni  Ni124  1  0.77777778  0.55623167  0.22515213  1.0
  Ni  Ni125  1  0.77777778  0.88956500  0.22515213  1.0
  Ni  Ni126  1  0.22222222  0.11043500  0.20828263  1.0
  Ni  Ni127  1  0.22222222  0.44376833  0.20828263  1.0
  Ni  Ni128  1  0.22222222  0.77710167  0.20828263  1.0
  Ni  Ni129  1  0.55555556  0.11043500  0.20828263  1.0
  Ni  Ni130  1  0.55555556  0.44376833  0.20828263  1.0
  Ni  Ni131  1  0.55555556  0.77710167  0.20828262  1.0
  Ni  Ni132  1  0.88888889  0.11043500  0.20828263  1.0
  Ni  Ni133  1  0.88888889  0.44376833  0.20828263  1.0
  Ni  Ni134  1  0.88888889  0.77710167  0.20828263  1.0
  Ga  Ga135  1  0.00000000  0.00000000  0.29171738  1.0
  Ga  Ga136  1  0.00000000  0.33333333  0.29171738  1.0
  Ga  Ga137  1  0.00000000  0.66666667  0.29171738  1.0
  Ga  Ga138  1  0.33333333  0.00000000  0.29171738  1.0
  Ga  Ga139  1  0.33333333  0.33333333  0.29171737  1.0
  Ga  Ga140  1  0.33333333  0.66666667  0.29171737  1.0
  Ga  Ga141  1  0.66666667  0.00000000  0.29171738  1.0
  Ga  Ga142  1  0.66666667  0.33333333  0.29171738  1.0
  Ga  Ga143  1  0.66666667  0.66666667  0.29171738  1.0
  Ni  Ni144  1  0.11111111  0.22289833  0.27515213  1.0
  Ni  Ni145  1  0.11111111  0.55623167  0.27515213  1.0
  Ni  Ni146  1  0.11111111  0.88956500  0.27515213  1.0
  Ni  Ni147  1  0.44444444  0.22289833  0.27515213  1.0
  Ni  Ni148  1  0.44444444  0.55623167  0.27515213  1.0
  Ni  Ni149  1  0.44444444  0.88956500  0.27515213  1.0
  Ni  Ni150  1  0.77777778  0.22289833  0.27515213  1.0
  Ni  Ni151  1  0.77777778  0.55623167  0.27515213  1.0
  Ni  Ni152  1  0.77777778  0.88956500  0.27515213  1.0
  Ni  Ni153  1  0.22222222  0.11043500  0.25828262  1.0
  Ni  Ni154  1  0.22222222  0.44376833  0.25828262  1.0
  Ni  Ni155  1  0.22222222  0.77710167  0.25828262  1.0
  Ni  Ni156  1  0.55555556  0.11043500  0.25828262  1.0
  Ni  Ni157  1  0.55555556  0.44376833  0.25828262  1.0
  Ni  Ni158  1  0.55555556  0.77710167  0.25828262  1.0
  Ni  Ni159  1  0.88888889  0.11043500  0.25828262  1.0
  Ni  Ni160  1  0.88888889  0.44376833  0.25828262  1.0
  Ni  Ni161  1  0.88888889  0.77710167  0.25828263  1.0
  Ga  Ga162  1  0.00000000  0.00000000  0.34171737  1.0
  Ga  Ga163  1  0.00000000  0.33333333  0.34171737  1.0
  Ga  Ga164  1  0.00000000  0.66666667  0.34171737  1.0
  Ga  Ga165  1  0.33333333  0.00000000  0.34171737  1.0
  Ga  Ga166  1  0.33333333  0.33333333  0.34171737  1.0
  Ga  Ga167  1  0.33333333  0.66666667  0.34171737  1.0
  Ga  Ga168  1  0.66666667  0.00000000  0.34171737  1.0
  Ga  Ga169  1  0.66666667  0.33333333  0.34171737  1.0
  Ga  Ga170  1  0.66666667  0.66666667  0.34171737  1.0
  Ni  Ni171  1  0.11111111  0.22289833  0.32515212  1.0
  Ni  Ni172  1  0.11111111  0.55623167  0.32515213  1.0
  Ni  Ni173  1  0.11111111  0.88956500  0.32515213  1.0
  Ni  Ni174  1  0.44444444  0.22289833  0.32515213  1.0
  Ni  Ni175  1  0.44444444  0.55623167  0.32515213  1.0
  Ni  Ni176  1  0.44444444  0.88956500  0.32515213  1.0
  Ni  Ni177  1  0.77777778  0.22289833  0.32515213  1.0
  Ni  Ni178  1  0.77777778  0.55623167  0.32515213  1.0
  Ni  Ni179  1  0.77777778  0.88956500  0.32515213  1.0
  Ni  Ni180  1  0.22222222  0.11043500  0.30828262  1.0
  Ni  Ni181  1  0.22222222  0.44376833  0.30828262  1.0
  Ni  Ni182  1  0.22222222  0.77710167  0.30828262  1.0
  Ni  Ni183  1  0.55555556  0.11043500  0.30828262  1.0
  Ni  Ni184  1  0.55555556  0.44376833  0.30828263  1.0
  Ni  Ni185  1  0.55555556  0.77710167  0.30828262  1.0
  Ni  Ni186  1  0.88888889  0.11043500  0.30828262  1.0
  Ni  Ni187  1  0.88888889  0.44376833  0.30828262  1.0
  Ni  Ni188  1  0.88888889  0.77710167  0.30828263  1.0
  Ga  Ga189  1  0.00000000  0.00000000  0.39171737  1.0
  Ga  Ga190  1  0.00000000  0.33333333  0.39171737  1.0
  Ga  Ga191  1  0.00000000  0.66666667  0.39171738  1.0
  Ga  Ga192  1  0.33333333  0.00000000  0.39171737  1.0
  Ga  Ga193  1  0.33333333  0.33333333  0.39171737  1.0
  Ga  Ga194  1  0.33333333  0.66666667  0.39171737  1.0
  Ga  Ga195  1  0.66666667  0.00000000  0.39171737  1.0
  Ga  Ga196  1  0.66666667  0.33333333  0.39171738  1.0
  Ga  Ga197  1  0.66666667  0.66666667  0.39171737  1.0
  Ni  Ni198  1  0.11111111  0.22289833  0.37515213  1.0
  Ni  Ni199  1  0.11111111  0.55623167  0.37515213  1.0
  Ni  Ni200  1  0.11111111  0.88956500  0.37515213  1.0
  Ni  Ni201  1  0.44444444  0.22289833  0.37515213  1.0
  Ni  Ni202  1  0.44444444  0.55623167  0.37515213  1.0
  Ni  Ni203  1  0.44444444  0.88956500  0.37515213  1.0
  Ni  Ni204  1  0.77777778  0.22289833  0.37515213  1.0
  Ni  Ni205  1  0.77777778  0.55623167  0.37515213  1.0
  Ni  Ni206  1  0.77777778  0.88956500  0.37515213  1.0
  Ni  Ni207  1  0.22222222  0.11043500  0.35828262  1.0
  Ni  Ni208  1  0.22222222  0.44376833  0.35828262  1.0
  Ni  Ni209  1  0.22222222  0.77710167  0.35828262  1.0
  Ni  Ni210  1  0.55555556  0.11043500  0.35828262  1.0
  Ni  Ni211  1  0.55555556  0.44376833  0.35828262  1.0
  Ni  Ni212  1  0.55555556  0.77710167  0.35828262  1.0
  Ni  Ni213  1  0.88888889  0.11043500  0.35828262  1.0
  Ni  Ni214  1  0.88888889  0.44376833  0.35828262  1.0
  Ni  Ni215  1  0.88888889  0.77710167  0.35828263  1.0
