# generated using pymatgen
data_GaNi
_symmetry_space_group_name_H-M   'P 1'
_cell_length_a   12.36126457
_cell_length_b   15.13939538
_cell_length_c   28.54711770
_cell_angle_alpha   90.00000000
_cell_angle_beta   90.00000000
_cell_angle_gamma   90.00000000
_symmetry_Int_Tables_number   1
_chemical_formula_structural   GaNi
_chemical_formula_sum   'Ga90 Ni90'
_cell_volume   5342.36674897
_cell_formula_units_Z   90
loop_
 _symmetry_equiv_pos_site_id
 _symmetry_equiv_pos_as_xyz
  1  'x, y, z'
loop_
 _atom_site_type_symbol
 _atom_site_label
 _atom_site_symmetry_multiplicity
 _atom_site_fract_x
 _atom_site_fract_y
 _atom_site_fract_z
 _atom_site_occupancy
  Ga  Ga0  1  0.00000000  0.25000000  0.93750000  1.0
  Ga  Ga1  1  0.00000000  0.58333333  0.93750000  1.0
  Ga  Ga2  1  0.00000000  0.91666667  0.93750000  1.0
  Ga  Ga3  1  0.33333333  0.25000000  0.93750000  1.0
  Ga  Ga4  1  0.33333333  0.58333333  0.93750000  1.0
  Ga  Ga5  1  0.33333333  0.91666667  0.93750000  1.0
  Ga  Ga6  1  0.66666667  0.25000000  0.93750000  1.0
  Ga  Ga7  1  0.66666667  0.58333333  0.93750000  1.0
  Ga  Ga8  1  0.66666667  0.91666667  0.93750000  1.0
  Ga  Ga9  1  0.16666667  0.13888889  0.97916667  1.0
  Ga  Ga10  1  0.16666667  0.47222222  0.97916667  1.0
  Ga  Ga11  1  0.16666667  0.80555556  0.97916667  1.0
  Ga  Ga12  1  0.50000000  0.13888889  0.97916667  1.0
  Ga  Ga13  1  0.50000000  0.47222222  0.97916667  1.0
  Ga  Ga14  1  0.50000000  0.80555556  0.97916667  1.0
  Ga  Ga15  1  0.83333333  0.13888889  0.97916667  1.0
  Ga  Ga16  1  0.83333333  0.47222222  0.97916667  1.0
  Ga  Ga17  1  0.83333333  0.80555556  0.97916667  1.0
  Ga  Ga18  1  0.00000000  0.13888889  0.85416667  1.0
  Ga  Ga19  1  0.00000000  0.47222222  0.85416667  1.0
  Ga  Ga20  1  0.00000000  0.80555556  0.85416667  1.0
  Ga  Ga21  1  0.33333333  0.13888889  0.85416667  1.0
  Ga  Ga22  1  0.33333333  0.47222222  0.85416667  1.0
  Ga  Ga23  1  0.33333333  0.80555556  0.85416667  1.0
  Ga  Ga24  1  0.66666667  0.13888889  0.85416667  1.0
  Ga  Ga25  1  0.66666667  0.47222222  0.85416667  1.0
  Ga  Ga26  1  0.66666667  0.80555556  0.85416667  1.0
  Ga  Ga27  1  0.16666667  0.02777778  0.89583333  1.0
  Ga  Ga28  1  0.16666667  0.36111111  0.89583333  1.0
  Ga  Ga29  1  0.16666667  0.69444444  0.89583333  1.0
  Ga  Ga30  1  0.50000000  0.02777778  0.89583333  1.0
  Ga  Ga31  1  0.50000000  0.36111111  0.89583333  1.0
  Ga  Ga32  1  0.50000000  0.69444444  0.89583333  1.0
  Ga  Ga33  1  0.83333333  0.02777778  0.89583333  1.0
  Ga  Ga34  1  0.83333333  0.36111111  0.89583333  1.0
  Ga  Ga35  1  0.83333333  0.69444444  0.89583333  1.0
  Ga  Ga36  1  0.00000000  0.02777778  0.77083333  1.0
  Ga  Ga37  1  0.00000000  0.36111111  0.77083333  1.0
  Ga  Ga38  1  0.00000000  0.69444444  0.77083333  1.0
  Ga  Ga39  1  0.33333333  0.02777778  0.77083333  1.0
  Ga  Ga40  1  0.33333333  0.36111111  0.77083333  1.0
  Ga  Ga41  1  0.33333333  0.69444444  0.77083333  1.0
  Ga  Ga42  1  0.66666667  0.02777778  0.77083333  1.0
  Ga  Ga43  1  0.66666667  0.36111111  0.77083333  1.0
  Ga  Ga44  1  0.66666667  0.69444444  0.77083333  1.0
  Ga  Ga45  1  0.16666667  0.25000000  0.81250000  1.0
  Ga  Ga46  1  0.16666667  0.58333333  0.81250000  1.0
  Ga  Ga47  1  0.16666667  0.91666667  0.81250000  1.0
  Ga  Ga48  1  0.50000000  0.25000000  0.81250000  1.0
  Ga  Ga49  1  0.50000000  0.58333333  0.81250000  1.0
  Ga  Ga50  1  0.50000000  0.91666667  0.81250000  1.0
  Ga  Ga51  1  0.83333333  0.25000000  0.81250000  1.0
  Ga  Ga52  1  0.83333333  0.58333333  0.81250000  1.0
  Ga  Ga53  1  0.83333333  0.91666667  0.81250000  1.0
  Ga  Ga54  1  0.00000000  0.25000000  0.68750000  1.0
  Ga  Ga55  1  0.00000000  0.58333333  0.68750000  1.0
  Ga  Ga56  1  0.00000000  0.91666667  0.68750000  1.0
  Ga  Ga57  1  0.33333333  0.25000000  0.68750000  1.0
  Ga  Ga58  1  0.33333333  0.58333333  0.68750000  1.0
  Ga  Ga59  1  0.33333333  0.91666667  0.68750000  1.0
  Ga  Ga60  1  0.66666667  0.25000000  0.68750000  1.0
  Ga  Ga61  1  0.66666667  0.58333333  0.68750000  1.0
  Ga  Ga62  1  0.66666667  0.91666667  0.68750000  1.0
  Ga  Ga63  1  0.16666667  0.13888889  0.72916667  1.0
  Ga  Ga64  1  0.16666667  0.47222222  0.72916667  1.0
  Ga  Ga65  1  0.16666667  0.80555556  0.72916667  1.0
  Ga  Ga66  1  0.50000000  0.13888889  0.72916667  1.0
  Ga  Ga67  1  0.50000000  0.47222222  0.72916667  1.0
  Ga  Ga68  1  0.50000000  0.80555556  0.72916667  1.0
  Ga  Ga69  1  0.83333333  0.13888889  0.72916667  1.0
  Ga  Ga70  1  0.83333333  0.47222222  0.72916667  1.0
  Ga  Ga71  1  0.83333333  0.80555556  0.72916667  1.0
  Ga  Ga72  1  0.00000000  0.13888889  0.60416667  1.0
  Ga  Ga73  1  0.00000000  0.47222222  0.60416667  1.0
  Ga  Ga74  1  0.00000000  0.80555556  0.60416667  1.0
  Ga  Ga75  1  0.33333333  0.13888889  0.60416667  1.0
  Ga  Ga76  1  0.33333333  0.47222222  0.60416667  1.0
  Ga  Ga77  1  0.33333333  0.80555556  0.60416667  1.0
  Ga  Ga78  1  0.66666667  0.13888889  0.60416667  1.0
  Ga  Ga79  1  0.66666667  0.47222222  0.60416667  1.0
  Ga  Ga80  1  0.66666667  0.80555556  0.60416667  1.0
  Ga  Ga81  1  0.16666667  0.02777778  0.64583333  1.0
  Ga  Ga82  1  0.16666667  0.36111111  0.64583333  1.0
  Ga  Ga83  1  0.16666667  0.69444444  0.64583333  1.0
  Ga  Ga84  1  0.50000000  0.02777778  0.64583333  1.0
  Ga  Ga85  1  0.50000000  0.36111111  0.64583333  1.0
  Ga  Ga86  1  0.50000000  0.69444444  0.64583333  1.0
  Ga  Ga87  1  0.83333333  0.02777778  0.64583333  1.0
  Ga  Ga88  1  0.83333333  0.36111111  0.64583333  1.0
  Ga  Ga89  1  0.83333333  0.69444444  0.64583333  1.0
  Ni  Ni90  1  0.00000000  0.08333333  0.93750000  1.0
  Ni  Ni91  1  0.00000000  0.41666667  0.93750000  1.0
  Ni  Ni92  1  0.00000000  0.75000000  0.93750000  1.0
  Ni  Ni93  1  0.33333333  0.08333333  0.93750000  1.0
  Ni  Ni94  1  0.33333333  0.41666667  0.93750000  1.0
  Ni  Ni95  1  0.33333333  0.75000000  0.93750000  1.0
  Ni  Ni96  1  0.66666667  0.08333333  0.93750000  1.0
  Ni  Ni97  1  0.66666667  0.41666667  0.93750000  1.0
  Ni  Ni98  1  0.66666667  0.75000000  0.93750000  1.0
  Ni  Ni99  1  0.16666667  0.30555556  0.97916667  1.0
  Ni  Ni100  1  0.16666667  0.63888889  0.97916667  1.0
  Ni  Ni101  1  0.16666667  0.97222222  0.97916667  1.0
  Ni  Ni102  1  0.50000000  0.30555556  0.97916667  1.0
  Ni  Ni103  1  0.50000000  0.63888889  0.97916667  1.0
  Ni  Ni104  1  0.50000000  0.97222222  0.97916667  1.0
  Ni  Ni105  1  0.83333333  0.30555556  0.97916667  1.0
  Ni  Ni106  1  0.83333333  0.63888889  0.97916667  1.0
  Ni  Ni107  1  0.83333333  0.97222222  0.97916667  1.0
  Ni  Ni108  1  0.00000000  0.30555556  0.85416667  1.0
  Ni  Ni109  1  0.00000000  0.63888889  0.85416667  1.0
  Ni  Ni110  1  0.00000000  0.97222222  0.85416667  1.0
  Ni  Ni111  1  0.33333333  0.30555556  0.85416667  1.0
  Ni  Ni112  1  0.33333333  0.63888889  0.85416667  1.0
  Ni  Ni113  1  0.33333333  0.97222222  0.85416667  1.0
  Ni  Ni114  1  0.66666667  0.30555556  0.85416667  1.0
  Ni  Ni115  1  0.66666667  0.63888889  0.85416667  1.0
  Ni  Ni116  1  0.66666667  0.97222222  0.85416667  1.0
  Ni  Ni117  1  0.16666667  0.19444444  0.89583333  1.0
  Ni  Ni118  1  0.16666667  0.52777778  0.89583333  1.0
  Ni  Ni119  1  0.16666667  0.86111111  0.89583333  1.0
  Ni  Ni120  1  0.50000000  0.19444444  0.89583333  1.0
  Ni  Ni121  1  0.50000000  0.52777778  0.89583333  1.0
  Ni  Ni122  1  0.50000000  0.86111111  0.89583333  1.0
  Ni  Ni123  1  0.83333333  0.19444444  0.89583333  1.0
  Ni  Ni124  1  0.83333333  0.52777778  0.89583333  1.0
  Ni  Ni125  1  0.83333333  0.86111111  0.89583333  1.0
  Ni  Ni126  1  0.00000000  0.19444444  0.77083333  1.0
  Ni  Ni127  1  0.00000000  0.52777778  0.77083333  1.0
  Ni  Ni128  1  0.00000000  0.86111111  0.77083333  1.0
  Ni  Ni129  1  0.33333333  0.19444444  0.77083333  1.0
  Ni  Ni130  1  0.33333333  0.52777778  0.77083333  1.0
  Ni  Ni131  1  0.33333333  0.86111111  0.77083333  1.0
  Ni  Ni132  1  0.66666667  0.19444444  0.77083333  1.0
  Ni  Ni133  1  0.66666667  0.52777778  0.77083333  1.0
  Ni  Ni134  1  0.66666667  0.86111111  0.77083333  1.0
  Ni  Ni135  1  0.16666667  0.08333333  0.81250000  1.0
  Ni  Ni136  1  0.16666667  0.41666667  0.81250000  1.0
  Ni  Ni137  1  0.16666667  0.75000000  0.81250000  1.0
  Ni  Ni138  1  0.50000000  0.08333333  0.81250000  1.0
  Ni  Ni139  1  0.50000000  0.41666667  0.81250000  1.0
  Ni  Ni140  1  0.50000000  0.75000000  0.81250000  1.0
  Ni  Ni141  1  0.83333333  0.08333333  0.81250000  1.0
  Ni  Ni142  1  0.83333333  0.41666667  0.81250000  1.0
  Ni  Ni143  1  0.83333333  0.75000000  0.81250000  1.0
  Ni  Ni144  1  0.00000000  0.08333333  0.68750000  1.0
  Ni  Ni145  1  0.00000000  0.41666667  0.68750000  1.0
  Ni  Ni146  1  0.00000000  0.75000000  0.68750000  1.0
  Ni  Ni147  1  0.33333333  0.08333333  0.68750000  1.0
  Ni  Ni148  1  0.33333333  0.41666667  0.68750000  1.0
  Ni  Ni149  1  0.33333333  0.75000000  0.68750000  1.0
  Ni  Ni150  1  0.66666667  0.08333333  0.68750000  1.0
  Ni  Ni151  1  0.66666667  0.41666667  0.68750000  1.0
  Ni  Ni152  1  0.66666667  0.75000000  0.68750000  1.0
  Ni  Ni153  1  0.16666667  0.30555556  0.72916667  1.0
  Ni  Ni154  1  0.16666667  0.63888889  0.72916667  1.0
  Ni  Ni155  1  0.16666667  0.97222222  0.72916667  1.0
  Ni  Ni156  1  0.50000000  0.30555556  0.72916667  1.0
  Ni  Ni157  1  0.50000000  0.63888889  0.72916667  1.0
  Ni  Ni158  1  0.50000000  0.97222222  0.72916667  1.0
  Ni  Ni159  1  0.83333333  0.30555556  0.72916667  1.0
  Ni  Ni160  1  0.83333333  0.63888889  0.72916667  1.0
  Ni  Ni161  1  0.83333333  0.97222222  0.72916667  1.0
  Ni  Ni162  1  0.00000000  0.30555556  0.60416667  1.0
  Ni  Ni163  1  0.00000000  0.63888889  0.60416667  1.0
  Ni  Ni164  1  0.00000000  0.97222222  0.60416667  1.0
  Ni  Ni165  1  0.33333333  0.30555556  0.60416667  1.0
  Ni  Ni166  1  0.33333333  0.63888889  0.60416667  1.0
  Ni  Ni167  1  0.33333333  0.97222222  0.60416667  1.0
  Ni  Ni168  1  0.66666667  0.30555556  0.60416667  1.0
  Ni  Ni169  1  0.66666667  0.63888889  0.60416667  1.0
  Ni  Ni170  1  0.66666667  0.97222222  0.60416667  1.0
  Ni  Ni171  1  0.16666667  0.19444444  0.64583333  1.0
  Ni  Ni172  1  0.16666667  0.52777778  0.64583333  1.0
  Ni  Ni173  1  0.16666667  0.86111111  0.64583333  1.0
  Ni  Ni174  1  0.50000000  0.19444444  0.64583333  1.0
  Ni  Ni175  1  0.50000000  0.52777778  0.64583333  1.0
  Ni  Ni176  1  0.50000000  0.86111111  0.64583333  1.0
  Ni  Ni177  1  0.83333333  0.19444444  0.64583333  1.0
  Ni  Ni178  1  0.83333333  0.52777778  0.64583333  1.0
  Ni  Ni179  1  0.83333333  0.86111111  0.64583333  1.0
