# generated using pymatgen
data_GaNi3
_symmetry_space_group_name_H-M   'P 1'
_cell_length_a   12.74633184
_cell_length_b   22.97676283
_cell_length_c   72.22921376
_cell_angle_alpha   25.66935622
_cell_angle_beta   128.66128756
_cell_angle_gamma   119.00796789
_symmetry_Int_Tables_number   1
_chemical_formula_structural   GaNi3
_chemical_formula_sum   'Ga63 Ni189'
_cell_volume   6961.70039633
_cell_formula_units_Z   63
loop_
 _symmetry_equiv_pos_site_id
 _symmetry_equiv_pos_as_xyz
  1  'x, y, z'
loop_
 _atom_site_type_symbol
 _atom_site_label
 _atom_site_symmetry_multiplicity
 _atom_site_fract_x
 _atom_site_fract_y
 _atom_site_fract_z
 _atom_site_occupancy
  Ga  Ga0  1  0.00000000  0.00000000  0.05147059  1.0
  Ga  Ga1  1  0.00000000  0.33333333  0.05147059  1.0
  Ga  Ga2  1  0.00000000  0.66666667  0.05147059  1.0
  Ga  Ga3  1  0.33333333  0.00000000  0.05147059  1.0
  Ga  Ga4  1  0.33333333  0.33333333  0.05147059  1.0
  Ga  Ga5  1  0.33333333  0.66666667  0.05147059  1.0
  Ga  Ga6  1  0.66666667  0.00000000  0.05147059  1.0
  Ga  Ga7  1  0.66666667  0.33333333  0.05147059  1.0
  Ga  Ga8  1  0.66666667  0.66666667  0.05147059  1.0
  Ni  Ni9  1  0.08333333  0.08333333  0.00735294  1.0
  Ni  Ni10  1  0.08333333  0.41666667  0.00735294  1.0
  Ni  Ni11  1  0.08333333  0.75000000  0.00735294  1.0
  Ni  Ni12  1  0.41666667  0.08333333  0.00735294  1.0
  Ni  Ni13  1  0.41666667  0.41666667  0.00735294  1.0
  Ni  Ni14  1  0.41666667  0.75000000  0.00735294  1.0
  Ni  Ni15  1  0.75000000  0.08333333  0.00735294  1.0
  Ni  Ni16  1  0.75000000  0.41666667  0.00735294  1.0
  Ni  Ni17  1  0.75000000  0.75000000  0.00735294  1.0
  Ni  Ni18  1  0.25000000  0.25000000  0.03676471  1.0
  Ni  Ni19  1  0.25000000  0.58333333  0.03676471  1.0
  Ni  Ni20  1  0.25000000  0.91666667  0.03676471  1.0
  Ni  Ni21  1  0.58333333  0.25000000  0.03676471  1.0
  Ni  Ni22  1  0.58333333  0.58333333  0.03676471  1.0
  Ni  Ni23  1  0.58333333  0.91666667  0.03676471  1.0
  Ni  Ni24  1  0.91666667  0.25000000  0.03676471  1.0
  Ni  Ni25  1  0.91666667  0.58333333  0.03676471  1.0
  Ni  Ni26  1  0.91666667  0.91666667  0.03676471  1.0
  Ni  Ni27  1  0.16666667  0.16666667  0.02205882  1.0
  Ni  Ni28  1  0.16666667  0.50000000  0.02205882  1.0
  Ni  Ni29  1  0.16666667  0.83333333  0.02205882  1.0
  Ni  Ni30  1  0.50000000  0.16666667  0.02205882  1.0
  Ni  Ni31  1  0.50000000  0.50000000  0.02205882  1.0
  Ni  Ni32  1  0.50000000  0.83333333  0.02205882  1.0
  Ni  Ni33  1  0.83333333  0.16666667  0.02205882  1.0
  Ni  Ni34  1  0.83333333  0.50000000  0.02205882  1.0
  Ni  Ni35  1  0.83333333  0.83333333  0.02205882  1.0
  Ga  Ga36  1  0.00000000  0.00000000  0.11029412  1.0
  Ga  Ga37  1  0.00000000  0.33333333  0.11029412  1.0
  Ga  Ga38  1  0.00000000  0.66666667  0.11029412  1.0
  Ga  Ga39  1  0.33333333  0.00000000  0.11029412  1.0
  Ga  Ga40  1  0.33333333  0.33333333  0.11029412  1.0
  Ga  Ga41  1  0.33333333  0.66666667  0.11029412  1.0
  Ga  Ga42  1  0.66666667  0.00000000  0.11029412  1.0
  Ga  Ga43  1  0.66666667  0.33333333  0.11029412  1.0
  Ga  Ga44  1  0.66666667  0.66666667  0.11029412  1.0
  Ni  Ni45  1  0.08333333  0.08333333  0.06617647  1.0
  Ni  Ni46  1  0.08333333  0.41666667  0.06617647  1.0
  Ni  Ni47  1  0.08333333  0.75000000  0.06617647  1.0
  Ni  Ni48  1  0.41666667  0.08333333  0.06617647  1.0
  Ni  Ni49  1  0.41666667  0.41666667  0.06617647  1.0
  Ni  Ni50  1  0.41666667  0.75000000  0.06617647  1.0
  Ni  Ni51  1  0.75000000  0.08333333  0.06617647  1.0
  Ni  Ni52  1  0.75000000  0.41666667  0.06617647  1.0
  Ni  Ni53  1  0.75000000  0.75000000  0.06617647  1.0
  Ni  Ni54  1  0.25000000  0.25000000  0.09558824  1.0
  Ni  Ni55  1  0.25000000  0.58333333  0.09558824  1.0
  Ni  Ni56  1  0.25000000  0.91666667  0.09558824  1.0
  Ni  Ni57  1  0.58333333  0.25000000  0.09558824  1.0
  Ni  Ni58  1  0.58333333  0.58333333  0.09558824  1.0
  Ni  Ni59  1  0.58333333  0.91666667  0.09558824  1.0
  Ni  Ni60  1  0.91666667  0.25000000  0.09558824  1.0
  Ni  Ni61  1  0.91666667  0.58333333  0.09558824  1.0
  Ni  Ni62  1  0.91666667  0.91666667  0.09558824  1.0
  Ni  Ni63  1  0.16666667  0.16666667  0.08088235  1.0
  Ni  Ni64  1  0.16666667  0.50000000  0.08088235  1.0
  Ni  Ni65  1  0.16666667  0.83333333  0.08088235  1.0
  Ni  Ni66  1  0.50000000  0.16666667  0.08088235  1.0
  Ni  Ni67  1  0.50000000  0.50000000  0.08088235  1.0
  Ni  Ni68  1  0.50000000  0.83333333  0.08088235  1.0
  Ni  Ni69  1  0.83333333  0.16666667  0.08088235  1.0
  Ni  Ni70  1  0.83333333  0.50000000  0.08088235  1.0
  Ni  Ni71  1  0.83333333  0.83333333  0.08088235  1.0
  Ga  Ga72  1  0.00000000  0.00000000  0.16911765  1.0
  Ga  Ga73  1  0.00000000  0.33333333  0.16911765  1.0
  Ga  Ga74  1  0.00000000  0.66666667  0.16911765  1.0
  Ga  Ga75  1  0.33333333  0.00000000  0.16911765  1.0
  Ga  Ga76  1  0.33333333  0.33333333  0.16911765  1.0
  Ga  Ga77  1  0.33333333  0.66666667  0.16911765  1.0
  Ga  Ga78  1  0.66666667  0.00000000  0.16911765  1.0
  Ga  Ga79  1  0.66666667  0.33333333  0.16911765  1.0
  Ga  Ga80  1  0.66666667  0.66666667  0.16911765  1.0
  Ni  Ni81  1  0.08333333  0.08333333  0.12500000  1.0
  Ni  Ni82  1  0.08333333  0.41666667  0.12500000  1.0
  Ni  Ni83  1  0.08333333  0.75000000  0.12500000  1.0
  Ni  Ni84  1  0.41666667  0.08333333  0.12500000  1.0
  Ni  Ni85  1  0.41666667  0.41666667  0.12500000  1.0
  Ni  Ni86  1  0.41666667  0.75000000  0.12500000  1.0
  Ni  Ni87  1  0.75000000  0.08333333  0.12500000  1.0
  Ni  Ni88  1  0.75000000  0.41666667  0.12500000  1.0
  Ni  Ni89  1  0.75000000  0.75000000  0.12500000  1.0
  Ni  Ni90  1  0.25000000  0.25000000  0.15441176  1.0
  Ni  Ni91  1  0.25000000  0.58333333  0.15441176  1.0
  Ni  Ni92  1  0.25000000  0.91666667  0.15441176  1.0
  Ni  Ni93  1  0.58333333  0.25000000  0.15441176  1.0
  Ni  Ni94  1  0.58333333  0.58333333  0.15441176  1.0
  Ni  Ni95  1  0.58333333  0.91666667  0.15441176  1.0
  Ni  Ni96  1  0.91666667  0.25000000  0.15441176  1.0
  Ni  Ni97  1  0.91666667  0.58333333  0.15441176  1.0
  Ni  Ni98  1  0.91666667  0.91666667  0.15441176  1.0
  Ni  Ni99  1  0.16666667  0.16666667  0.13970588  1.0
  Ni  Ni100  1  0.16666667  0.50000000  0.13970588  1.0
  Ni  Ni101  1  0.16666667  0.83333333  0.13970588  1.0
  Ni  Ni102  1  0.50000000  0.16666667  0.13970588  1.0
  Ni  Ni103  1  0.50000000  0.50000000  0.13970588  1.0
  Ni  Ni104  1  0.50000000  0.83333333  0.13970588  1.0
  Ni  Ni105  1  0.83333333  0.16666667  0.13970588  1.0
  Ni  Ni106  1  0.83333333  0.50000000  0.13970588  1.0
  Ni  Ni107  1  0.83333333  0.83333333  0.13970588  1.0
  Ga  Ga108  1  0.00000000  0.00000000  0.22794118  1.0
  Ga  Ga109  1  0.00000000  0.33333333  0.22794118  1.0
  Ga  Ga110  1  0.00000000  0.66666667  0.22794118  1.0
  Ga  Ga111  1  0.33333333  0.00000000  0.22794118  1.0
  Ga  Ga112  1  0.33333333  0.33333333  0.22794118  1.0
  Ga  Ga113  1  0.33333333  0.66666667  0.22794118  1.0
  Ga  Ga114  1  0.66666667  0.00000000  0.22794118  1.0
  Ga  Ga115  1  0.66666667  0.33333333  0.22794118  1.0
  Ga  Ga116  1  0.66666667  0.66666667  0.22794118  1.0
  Ni  Ni117  1  0.08333333  0.08333333  0.18382353  1.0
  Ni  Ni118  1  0.08333333  0.41666667  0.18382353  1.0
  Ni  Ni119  1  0.08333333  0.75000000  0.18382353  1.0
  Ni  Ni120  1  0.41666667  0.08333333  0.18382353  1.0
  Ni  Ni121  1  0.41666667  0.41666667  0.18382353  1.0
  Ni  Ni122  1  0.41666667  0.75000000  0.18382353  1.0
  Ni  Ni123  1  0.75000000  0.08333333  0.18382353  1.0
  Ni  Ni124  1  0.75000000  0.41666667  0.18382353  1.0
  Ni  Ni125  1  0.75000000  0.75000000  0.18382353  1.0
  Ni  Ni126  1  0.25000000  0.25000000  0.21323529  1.0
  Ni  Ni127  1  0.25000000  0.58333333  0.21323529  1.0
  Ni  Ni128  1  0.25000000  0.91666667  0.21323529  1.0
  Ni  Ni129  1  0.58333333  0.25000000  0.21323529  1.0
  Ni  Ni130  1  0.58333333  0.58333333  0.21323529  1.0
  Ni  Ni131  1  0.58333333  0.91666667  0.21323529  1.0
  Ni  Ni132  1  0.91666667  0.25000000  0.21323529  1.0
  Ni  Ni133  1  0.91666667  0.58333333  0.21323529  1.0
  Ni  Ni134  1  0.91666667  0.91666667  0.21323529  1.0
  Ni  Ni135  1  0.16666667  0.16666667  0.19852941  1.0
  Ni  Ni136  1  0.16666667  0.50000000  0.19852941  1.0
  Ni  Ni137  1  0.16666667  0.83333333  0.19852941  1.0
  Ni  Ni138  1  0.50000000  0.16666667  0.19852941  1.0
  Ni  Ni139  1  0.50000000  0.50000000  0.19852941  1.0
  Ni  Ni140  1  0.50000000  0.83333333  0.19852941  1.0
  Ni  Ni141  1  0.83333333  0.16666667  0.19852941  1.0
  Ni  Ni142  1  0.83333333  0.50000000  0.19852941  1.0
  Ni  Ni143  1  0.83333333  0.83333333  0.19852941  1.0
  Ga  Ga144  1  0.00000000  0.00000000  0.28676471  1.0
  Ga  Ga145  1  0.00000000  0.33333333  0.28676471  1.0
  Ga  Ga146  1  0.00000000  0.66666667  0.28676471  1.0
  Ga  Ga147  1  0.33333333  0.00000000  0.28676471  1.0
  Ga  Ga148  1  0.33333333  0.33333333  0.28676471  1.0
  Ga  Ga149  1  0.33333333  0.66666667  0.28676471  1.0
  Ga  Ga150  1  0.66666667  0.00000000  0.28676471  1.0
  Ga  Ga151  1  0.66666667  0.33333333  0.28676471  1.0
  Ga  Ga152  1  0.66666667  0.66666667  0.28676471  1.0
  Ni  Ni153  1  0.08333333  0.08333333  0.24264706  1.0
  Ni  Ni154  1  0.08333333  0.41666667  0.24264706  1.0
  Ni  Ni155  1  0.08333333  0.75000000  0.24264706  1.0
  Ni  Ni156  1  0.41666667  0.08333333  0.24264706  1.0
  Ni  Ni157  1  0.41666667  0.41666667  0.24264706  1.0
  Ni  Ni158  1  0.41666667  0.75000000  0.24264706  1.0
  Ni  Ni159  1  0.75000000  0.08333333  0.24264706  1.0
  Ni  Ni160  1  0.75000000  0.41666667  0.24264706  1.0
  Ni  Ni161  1  0.75000000  0.75000000  0.24264706  1.0
  Ni  Ni162  1  0.25000000  0.25000000  0.27205882  1.0
  Ni  Ni163  1  0.25000000  0.58333333  0.27205882  1.0
  Ni  Ni164  1  0.25000000  0.91666667  0.27205882  1.0
  Ni  Ni165  1  0.58333333  0.25000000  0.27205882  1.0
  Ni  Ni166  1  0.58333333  0.58333333  0.27205882  1.0
  Ni  Ni167  1  0.58333333  0.91666667  0.27205882  1.0
  Ni  Ni168  1  0.91666667  0.25000000  0.27205882  1.0
  Ni  Ni169  1  0.91666667  0.58333333  0.27205882  1.0
  Ni  Ni170  1  0.91666667  0.91666667  0.27205882  1.0
  Ni  Ni171  1  0.16666667  0.16666667  0.25735294  1.0
  Ni  Ni172  1  0.16666667  0.50000000  0.25735294  1.0
  Ni  Ni173  1  0.16666667  0.83333333  0.25735294  1.0
  Ni  Ni174  1  0.50000000  0.16666667  0.25735294  1.0
  Ni  Ni175  1  0.50000000  0.50000000  0.25735294  1.0
  Ni  Ni176  1  0.50000000  0.83333333  0.25735294  1.0
  Ni  Ni177  1  0.83333333  0.16666667  0.25735294  1.0
  Ni  Ni178  1  0.83333333  0.50000000  0.25735294  1.0
  Ni  Ni179  1  0.83333333  0.83333333  0.25735294  1.0
  Ga  Ga180  1  0.00000000  0.00000000  0.34558824  1.0
  Ga  Ga181  1  0.00000000  0.33333333  0.34558824  1.0
  Ga  Ga182  1  0.00000000  0.66666667  0.34558824  1.0
  Ga  Ga183  1  0.33333333  0.00000000  0.34558824  1.0
  Ga  Ga184  1  0.33333333  0.33333333  0.34558824  1.0
  Ga  Ga185  1  0.33333333  0.66666667  0.34558824  1.0
  Ga  Ga186  1  0.66666667  0.00000000  0.34558824  1.0
  Ga  Ga187  1  0.66666667  0.33333333  0.34558824  1.0
  Ga  Ga188  1  0.66666667  0.66666667  0.34558824  1.0
  Ni  Ni189  1  0.08333333  0.08333333  0.30147059  1.0
  Ni  Ni190  1  0.08333333  0.41666667  0.30147059  1.0
  Ni  Ni191  1  0.08333333  0.75000000  0.30147059  1.0
  Ni  Ni192  1  0.41666667  0.08333333  0.30147059  1.0
  Ni  Ni193  1  0.41666667  0.41666667  0.30147059  1.0
  Ni  Ni194  1  0.41666667  0.75000000  0.30147059  1.0
  Ni  Ni195  1  0.75000000  0.08333333  0.30147059  1.0
  Ni  Ni196  1  0.75000000  0.41666667  0.30147059  1.0
  Ni  Ni197  1  0.75000000  0.75000000  0.30147059  1.0
  Ni  Ni198  1  0.25000000  0.25000000  0.33088235  1.0
  Ni  Ni199  1  0.25000000  0.58333333  0.33088235  1.0
  Ni  Ni200  1  0.25000000  0.91666667  0.33088235  1.0
  Ni  Ni201  1  0.58333333  0.25000000  0.33088235  1.0
  Ni  Ni202  1  0.58333333  0.58333333  0.33088235  1.0
  Ni  Ni203  1  0.58333333  0.91666667  0.33088235  1.0
  Ni  Ni204  1  0.91666667  0.25000000  0.33088235  1.0
  Ni  Ni205  1  0.91666667  0.58333333  0.33088235  1.0
  Ni  Ni206  1  0.91666667  0.91666667  0.33088235  1.0
  Ni  Ni207  1  0.16666667  0.16666667  0.31617647  1.0
  Ni  Ni208  1  0.16666667  0.50000000  0.31617647  1.0
  Ni  Ni209  1  0.16666667  0.83333333  0.31617647  1.0
  Ni  Ni210  1  0.50000000  0.16666667  0.31617647  1.0
  Ni  Ni211  1  0.50000000  0.50000000  0.31617647  1.0
  Ni  Ni212  1  0.50000000  0.83333333  0.31617647  1.0
  Ni  Ni213  1  0.83333333  0.16666667  0.31617647  1.0
  Ni  Ni214  1  0.83333333  0.50000000  0.31617647  1.0
  Ni  Ni215  1  0.83333333  0.83333333  0.31617647  1.0
  Ga  Ga216  1  0.00000000  0.00000000  0.40441176  1.0
  Ga  Ga217  1  0.00000000  0.33333333  0.40441176  1.0
  Ga  Ga218  1  0.00000000  0.66666667  0.40441176  1.0
  Ga  Ga219  1  0.33333333  0.00000000  0.40441176  1.0
  Ga  Ga220  1  0.33333333  0.33333333  0.40441176  1.0
  Ga  Ga221  1  0.33333333  0.66666667  0.40441176  1.0
  Ga  Ga222  1  0.66666667  0.00000000  0.40441176  1.0
  Ga  Ga223  1  0.66666667  0.33333333  0.40441176  1.0
  Ga  Ga224  1  0.66666667  0.66666667  0.40441176  1.0
  Ni  Ni225  1  0.08333333  0.08333333  0.36029412  1.0
  Ni  Ni226  1  0.08333333  0.41666667  0.36029412  1.0
  Ni  Ni227  1  0.08333333  0.75000000  0.36029412  1.0
  Ni  Ni228  1  0.41666667  0.08333333  0.36029412  1.0
  Ni  Ni229  1  0.41666667  0.41666667  0.36029412  1.0
  Ni  Ni230  1  0.41666667  0.75000000  0.36029412  1.0
  Ni  Ni231  1  0.75000000  0.08333333  0.36029412  1.0
  Ni  Ni232  1  0.75000000  0.41666667  0.36029412  1.0
  Ni  Ni233  1  0.75000000  0.75000000  0.36029412  1.0
  Ni  Ni234  1  0.25000000  0.25000000  0.38970588  1.0
  Ni  Ni235  1  0.25000000  0.58333333  0.38970588  1.0
  Ni  Ni236  1  0.25000000  0.91666667  0.38970588  1.0
  Ni  Ni237  1  0.58333333  0.25000000  0.38970588  1.0
  Ni  Ni238  1  0.58333333  0.58333333  0.38970588  1.0
  Ni  Ni239  1  0.58333333  0.91666667  0.38970588  1.0
  Ni  Ni240  1  0.91666667  0.25000000  0.38970588  1.0
  Ni  Ni241  1  0.91666667  0.58333333  0.38970588  1.0
  Ni  Ni242  1  0.91666667  0.91666667  0.38970588  1.0
  Ni  Ni243  1  0.16666667  0.16666667  0.37500000  1.0
  Ni  Ni244  1  0.16666667  0.50000000  0.37500000  1.0
  Ni  Ni245  1  0.16666667  0.83333333  0.37500000  1.0
  Ni  Ni246  1  0.50000000  0.16666667  0.37500000  1.0
  Ni  Ni247  1  0.50000000  0.50000000  0.37500000  1.0
  Ni  Ni248  1  0.50000000  0.83333333  0.37500000  1.0
  Ni  Ni249  1  0.83333333  0.16666667  0.37500000  1.0
  Ni  Ni250  1  0.83333333  0.50000000  0.37500000  1.0
  Ni  Ni251  1  0.83333333  0.83333333  0.37500000  1.0
