# generated using pymatgen
data_GaNi3
_symmetry_space_group_name_H-M   'P 1'
_cell_length_a   15.26082096
_cell_length_b   12.26987100
_cell_length_c   35.60858224
_cell_angle_alpha   90.00000000
_cell_angle_beta   120.00000000
_cell_angle_gamma   90.00000000
_symmetry_Int_Tables_number   1
_chemical_formula_structural   GaNi3
_chemical_formula_sum   'Ga54 Ni162'
_cell_volume   5774.35138346
_cell_formula_units_Z   54
loop_
 _symmetry_equiv_pos_site_id
 _symmetry_equiv_pos_as_xyz
  1  'x, y, z'
loop_
 _atom_site_type_symbol
 _atom_site_label
 _atom_site_symmetry_multiplicity
 _atom_site_fract_x
 _atom_site_fract_y
 _atom_site_fract_z
 _atom_site_occupancy
  Ga  Ga0  1  0.11111111  0.08333333  0.09523810  1.0
  Ga  Ga1  1  0.11111111  0.41666667  0.09523810  1.0
  Ga  Ga2  1  0.11111111  0.75000000  0.09523810  1.0
  Ga  Ga3  1  0.44444444  0.08333333  0.09523810  1.0
  Ga  Ga4  1  0.44444444  0.41666667  0.09523810  1.0
  Ga  Ga5  1  0.44444444  0.75000000  0.09523810  1.0
  Ga  Ga6  1  0.77777778  0.08333333  0.09523810  1.0
  Ga  Ga7  1  0.77777778  0.41666667  0.09523810  1.0
  Ga  Ga8  1  0.77777778  0.75000000  0.09523810  1.0
  Ga  Ga9  1  0.22222222  0.25000000  0.04761905  1.0
  Ga  Ga10  1  0.22222222  0.58333333  0.04761905  1.0
  Ga  Ga11  1  0.22222222  0.91666667  0.04761905  1.0
  Ga  Ga12  1  0.55555556  0.25000000  0.04761905  1.0
  Ga  Ga13  1  0.55555556  0.58333333  0.04761905  1.0
  Ga  Ga14  1  0.55555556  0.91666667  0.04761905  1.0
  Ga  Ga15  1  0.88888889  0.25000000  0.04761905  1.0
  Ga  Ga16  1  0.88888889  0.58333333  0.04761905  1.0
  Ga  Ga17  1  0.88888889  0.91666667  0.04761905  1.0
  Ni  Ni18  1  0.05486683  0.25000000  0.04702871  1.0
  Ni  Ni19  1  0.05486683  0.58333333  0.04702871  1.0
  Ni  Ni20  1  0.05486683  0.91666667  0.04702871  1.0
  Ni  Ni21  1  0.38820017  0.25000000  0.04702871  1.0
  Ni  Ni22  1  0.38820017  0.58333333  0.04702871  1.0
  Ni  Ni23  1  0.38820017  0.91666667  0.04702871  1.0
  Ni  Ni24  1  0.72153350  0.25000000  0.04702871  1.0
  Ni  Ni25  1  0.72153350  0.58333333  0.04702871  1.0
  Ni  Ni26  1  0.72153350  0.91666667  0.04702871  1.0
  Ni  Ni27  1  0.05486683  0.25000000  0.11934279  1.0
  Ni  Ni28  1  0.05486683  0.58333333  0.11934279  1.0
  Ni  Ni29  1  0.05486683  0.91666667  0.11934279  1.0
  Ni  Ni30  1  0.38820017  0.25000000  0.11934279  1.0
  Ni  Ni31  1  0.38820017  0.58333333  0.11934279  1.0
  Ni  Ni32  1  0.38820017  0.91666667  0.11934279  1.0
  Ni  Ni33  1  0.72153350  0.25000000  0.11934279  1.0
  Ni  Ni34  1  0.72153350  0.58333333  0.11934279  1.0
  Ni  Ni35  1  0.72153350  0.91666667  0.11934279  1.0
  Ni  Ni36  1  0.22359967  0.25000000  0.11934279  1.0
  Ni  Ni37  1  0.22359967  0.58333333  0.11934279  1.0
  Ni  Ni38  1  0.22359967  0.91666667  0.11934279  1.0
  Ni  Ni39  1  0.55693300  0.25000000  0.11934279  1.0
  Ni  Ni40  1  0.55693300  0.58333333  0.11934279  1.0
  Ni  Ni41  1  0.55693300  0.91666667  0.11934279  1.0
  Ni  Ni42  1  0.89026633  0.25000000  0.11934279  1.0
  Ni  Ni43  1  0.89026633  0.58333333  0.11934279  1.0
  Ni  Ni44  1  0.89026633  0.91666667  0.11934279  1.0
  Ni  Ni45  1  0.27846650  0.08333333  0.09582843  1.0
  Ni  Ni46  1  0.27846650  0.41666667  0.09582843  1.0
  Ni  Ni47  1  0.27846650  0.75000000  0.09582843  1.0
  Ni  Ni48  1  0.61179983  0.08333333  0.09582843  1.0
  Ni  Ni49  1  0.61179983  0.41666667  0.09582843  1.0
  Ni  Ni50  1  0.61179983  0.75000000  0.09582843  1.0
  Ni  Ni51  1  0.94513317  0.08333333  0.09582843  1.0
  Ni  Ni52  1  0.94513317  0.41666667  0.09582843  1.0
  Ni  Ni53  1  0.94513317  0.75000000  0.09582843  1.0
  Ni  Ni54  1  0.27846650  0.08333333  0.02351436  1.0
  Ni  Ni55  1  0.27846650  0.41666667  0.02351436  1.0
  Ni  Ni56  1  0.27846650  0.75000000  0.02351436  1.0
  Ni  Ni57  1  0.61179983  0.08333333  0.02351436  1.0
  Ni  Ni58  1  0.61179983  0.41666667  0.02351436  1.0
  Ni  Ni59  1  0.61179983  0.75000000  0.02351436  1.0
  Ni  Ni60  1  0.94513317  0.08333333  0.02351436  1.0
  Ni  Ni61  1  0.94513317  0.41666667  0.02351436  1.0
  Ni  Ni62  1  0.94513317  0.75000000  0.02351436  1.0
  Ni  Ni63  1  0.10973367  0.08333333  0.02351436  1.0
  Ni  Ni64  1  0.10973367  0.41666667  0.02351436  1.0
  Ni  Ni65  1  0.10973367  0.75000000  0.02351436  1.0
  Ni  Ni66  1  0.44306700  0.08333333  0.02351436  1.0
  Ni  Ni67  1  0.44306700  0.41666667  0.02351436  1.0
  Ni  Ni68  1  0.44306700  0.75000000  0.02351436  1.0
  Ni  Ni69  1  0.77640033  0.08333333  0.02351436  1.0
  Ni  Ni70  1  0.77640033  0.41666667  0.02351436  1.0
  Ni  Ni71  1  0.77640033  0.75000000  0.02351436  1.0
  Ga  Ga72  1  0.11111111  0.08333333  0.23809524  1.0
  Ga  Ga73  1  0.11111111  0.41666667  0.23809524  1.0
  Ga  Ga74  1  0.11111111  0.75000000  0.23809524  1.0
  Ga  Ga75  1  0.44444444  0.08333333  0.23809524  1.0
  Ga  Ga76  1  0.44444444  0.41666667  0.23809524  1.0
  Ga  Ga77  1  0.44444444  0.75000000  0.23809524  1.0
  Ga  Ga78  1  0.77777778  0.08333333  0.23809524  1.0
  Ga  Ga79  1  0.77777778  0.41666667  0.23809524  1.0
  Ga  Ga80  1  0.77777778  0.75000000  0.23809524  1.0
  Ga  Ga81  1  0.22222222  0.25000000  0.19047619  1.0
  Ga  Ga82  1  0.22222222  0.58333333  0.19047619  1.0
  Ga  Ga83  1  0.22222222  0.91666667  0.19047619  1.0
  Ga  Ga84  1  0.55555556  0.25000000  0.19047619  1.0
  Ga  Ga85  1  0.55555556  0.58333333  0.19047619  1.0
  Ga  Ga86  1  0.55555556  0.91666667  0.19047619  1.0
  Ga  Ga87  1  0.88888889  0.25000000  0.19047619  1.0
  Ga  Ga88  1  0.88888889  0.58333333  0.19047619  1.0
  Ga  Ga89  1  0.88888889  0.91666667  0.19047619  1.0
  Ni  Ni90  1  0.05486683  0.25000000  0.18988586  1.0
  Ni  Ni91  1  0.05486683  0.58333333  0.18988586  1.0
  Ni  Ni92  1  0.05486683  0.91666667  0.18988586  1.0
  Ni  Ni93  1  0.38820017  0.25000000  0.18988586  1.0
  Ni  Ni94  1  0.38820017  0.58333333  0.18988586  1.0
  Ni  Ni95  1  0.38820017  0.91666667  0.18988586  1.0
  Ni  Ni96  1  0.72153350  0.25000000  0.18988586  1.0
  Ni  Ni97  1  0.72153350  0.58333333  0.18988586  1.0
  Ni  Ni98  1  0.72153350  0.91666667  0.18988586  1.0
  Ni  Ni99  1  0.05486683  0.25000000  0.26219993  1.0
  Ni  Ni100  1  0.05486683  0.58333333  0.26219993  1.0
  Ni  Ni101  1  0.05486683  0.91666667  0.26219993  1.0
  Ni  Ni102  1  0.38820017  0.25000000  0.26219993  1.0
  Ni  Ni103  1  0.38820017  0.58333333  0.26219993  1.0
  Ni  Ni104  1  0.38820017  0.91666667  0.26219993  1.0
  Ni  Ni105  1  0.72153350  0.25000000  0.26219993  1.0
  Ni  Ni106  1  0.72153350  0.58333333  0.26219993  1.0
  Ni  Ni107  1  0.72153350  0.91666667  0.26219993  1.0
  Ni  Ni108  1  0.22359967  0.25000000  0.26219993  1.0
  Ni  Ni109  1  0.22359967  0.58333333  0.26219993  1.0
  Ni  Ni110  1  0.22359967  0.91666667  0.26219993  1.0
  Ni  Ni111  1  0.55693300  0.25000000  0.26219993  1.0
  Ni  Ni112  1  0.55693300  0.58333333  0.26219993  1.0
  Ni  Ni113  1  0.55693300  0.91666667  0.26219993  1.0
  Ni  Ni114  1  0.89026633  0.25000000  0.26219993  1.0
  Ni  Ni115  1  0.89026633  0.58333333  0.26219993  1.0
  Ni  Ni116  1  0.89026633  0.91666667  0.26219993  1.0
  Ni  Ni117  1  0.27846650  0.08333333  0.23868557  1.0
  Ni  Ni118  1  0.27846650  0.41666667  0.23868557  1.0
  Ni  Ni119  1  0.27846650  0.75000000  0.23868557  1.0
  Ni  Ni120  1  0.61179983  0.08333333  0.23868557  1.0
  Ni  Ni121  1  0.61179983  0.41666667  0.23868557  1.0
  Ni  Ni122  1  0.61179983  0.75000000  0.23868557  1.0
  Ni  Ni123  1  0.94513317  0.08333333  0.23868557  1.0
  Ni  Ni124  1  0.94513317  0.41666667  0.23868557  1.0
  Ni  Ni125  1  0.94513317  0.75000000  0.23868557  1.0
  Ni  Ni126  1  0.27846650  0.08333333  0.16637150  1.0
  Ni  Ni127  1  0.27846650  0.41666667  0.16637150  1.0
  Ni  Ni128  1  0.27846650  0.75000000  0.16637150  1.0
  Ni  Ni129  1  0.61179983  0.08333333  0.16637150  1.0
  Ni  Ni130  1  0.61179983  0.41666667  0.16637150  1.0
  Ni  Ni131  1  0.61179983  0.75000000  0.16637150  1.0
  Ni  Ni132  1  0.94513317  0.08333333  0.16637150  1.0
  Ni  Ni133  1  0.94513317  0.41666667  0.16637150  1.0
  Ni  Ni134  1  0.94513317  0.75000000  0.16637150  1.0
  Ni  Ni135  1  0.10973367  0.08333333  0.16637150  1.0
  Ni  Ni136  1  0.10973367  0.41666667  0.16637150  1.0
  Ni  Ni137  1  0.10973367  0.75000000  0.16637150  1.0
  Ni  Ni138  1  0.44306700  0.08333333  0.16637150  1.0
  Ni  Ni139  1  0.44306700  0.41666667  0.16637150  1.0
  Ni  Ni140  1  0.44306700  0.75000000  0.16637150  1.0
  Ni  Ni141  1  0.77640033  0.08333333  0.16637150  1.0
  Ni  Ni142  1  0.77640033  0.41666667  0.16637150  1.0
  Ni  Ni143  1  0.77640033  0.75000000  0.16637150  1.0
  Ga  Ga144  1  0.11111111  0.08333333  0.38095238  1.0
  Ga  Ga145  1  0.11111111  0.41666667  0.38095238  1.0
  Ga  Ga146  1  0.11111111  0.75000000  0.38095238  1.0
  Ga  Ga147  1  0.44444444  0.08333333  0.38095238  1.0
  Ga  Ga148  1  0.44444444  0.41666667  0.38095238  1.0
  Ga  Ga149  1  0.44444444  0.75000000  0.38095238  1.0
  Ga  Ga150  1  0.77777778  0.08333333  0.38095238  1.0
  Ga  Ga151  1  0.77777778  0.41666667  0.38095238  1.0
  Ga  Ga152  1  0.77777778  0.75000000  0.38095238  1.0
  Ga  Ga153  1  0.22222222  0.25000000  0.33333333  1.0
  Ga  Ga154  1  0.22222222  0.58333333  0.33333333  1.0
  Ga  Ga155  1  0.22222222  0.91666667  0.33333333  1.0
  Ga  Ga156  1  0.55555556  0.25000000  0.33333333  1.0
  Ga  Ga157  1  0.55555556  0.58333333  0.33333333  1.0
  Ga  Ga158  1  0.55555556  0.91666667  0.33333333  1.0
  Ga  Ga159  1  0.88888889  0.25000000  0.33333333  1.0
  Ga  Ga160  1  0.88888889  0.58333333  0.33333333  1.0
  Ga  Ga161  1  0.88888889  0.91666667  0.33333333  1.0
  Ni  Ni162  1  0.05486683  0.25000000  0.33274300  1.0
  Ni  Ni163  1  0.05486683  0.58333333  0.33274300  1.0
  Ni  Ni164  1  0.05486683  0.91666667  0.33274300  1.0
  Ni  Ni165  1  0.38820017  0.25000000  0.33274300  1.0
  Ni  Ni166  1  0.38820017  0.58333333  0.33274300  1.0
  Ni  Ni167  1  0.38820017  0.91666667  0.33274300  1.0
  Ni  Ni168  1  0.72153350  0.25000000  0.33274300  1.0
  Ni  Ni169  1  0.72153350  0.58333333  0.33274300  1.0
  Ni  Ni170  1  0.72153350  0.91666667  0.33274300  1.0
  Ni  Ni171  1  0.05486683  0.25000000  0.40505707  1.0
  Ni  Ni172  1  0.05486683  0.58333333  0.40505707  1.0
  Ni  Ni173  1  0.05486683  0.91666667  0.40505707  1.0
  Ni  Ni174  1  0.38820017  0.25000000  0.40505707  1.0
  Ni  Ni175  1  0.38820017  0.58333333  0.40505707  1.0
  Ni  Ni176  1  0.38820017  0.91666667  0.40505707  1.0
  Ni  Ni177  1  0.72153350  0.25000000  0.40505707  1.0
  Ni  Ni178  1  0.72153350  0.58333333  0.40505707  1.0
  Ni  Ni179  1  0.72153350  0.91666667  0.40505707  1.0
  Ni  Ni180  1  0.22359967  0.25000000  0.40505707  1.0
  Ni  Ni181  1  0.22359967  0.58333333  0.40505707  1.0
  Ni  Ni182  1  0.22359967  0.91666667  0.40505707  1.0
  Ni  Ni183  1  0.55693300  0.25000000  0.40505707  1.0
  Ni  Ni184  1  0.55693300  0.58333333  0.40505707  1.0
  Ni  Ni185  1  0.55693300  0.91666667  0.40505707  1.0
  Ni  Ni186  1  0.89026633  0.25000000  0.40505707  1.0
  Ni  Ni187  1  0.89026633  0.58333333  0.40505707  1.0
  Ni  Ni188  1  0.89026633  0.91666667  0.40505707  1.0
  Ni  Ni189  1  0.27846650  0.08333333  0.38154271  1.0
  Ni  Ni190  1  0.27846650  0.41666667  0.38154271  1.0
  Ni  Ni191  1  0.27846650  0.75000000  0.38154271  1.0
  Ni  Ni192  1  0.61179983  0.08333333  0.38154271  1.0
  Ni  Ni193  1  0.61179983  0.41666667  0.38154271  1.0
  Ni  Ni194  1  0.61179983  0.75000000  0.38154271  1.0
  Ni  Ni195  1  0.94513317  0.08333333  0.38154271  1.0
  Ni  Ni196  1  0.94513317  0.41666667  0.38154271  1.0
  Ni  Ni197  1  0.94513317  0.75000000  0.38154271  1.0
  Ni  Ni198  1  0.27846650  0.08333333  0.30922864  1.0
  Ni  Ni199  1  0.27846650  0.41666667  0.30922864  1.0
  Ni  Ni200  1  0.27846650  0.75000000  0.30922864  1.0
  Ni  Ni201  1  0.61179983  0.08333333  0.30922864  1.0
  Ni  Ni202  1  0.61179983  0.41666667  0.30922864  1.0
  Ni  Ni203  1  0.61179983  0.75000000  0.30922864  1.0
  Ni  Ni204  1  0.94513317  0.08333333  0.30922864  1.0
  Ni  Ni205  1  0.94513317  0.41666667  0.30922864  1.0
  Ni  Ni206  1  0.94513317  0.75000000  0.30922864  1.0
  Ni  Ni207  1  0.10973367  0.08333333  0.30922864  1.0
  Ni  Ni208  1  0.10973367  0.41666667  0.30922864  1.0
  Ni  Ni209  1  0.10973367  0.75000000  0.30922864  1.0
  Ni  Ni210  1  0.44306700  0.08333333  0.30922864  1.0
  Ni  Ni211  1  0.44306700  0.41666667  0.30922864  1.0
  Ni  Ni212  1  0.44306700  0.75000000  0.30922864  1.0
  Ni  Ni213  1  0.77640033  0.08333333  0.30922864  1.0
  Ni  Ni214  1  0.77640033  0.41666667  0.30922864  1.0
  Ni  Ni215  1  0.77640033  0.75000000  0.30922864  1.0
