# generated using pymatgen
data_GaNi3
_symmetry_space_group_name_H-M   'P 1'
_cell_length_a   15.26082096
_cell_length_b   32.89559788
_cell_length_c   32.71965600
_cell_angle_alpha   68.09959660
_cell_angle_beta   90.00000000
_cell_angle_gamma   62.35985739
_symmetry_Int_Tables_number   1
_chemical_formula_structural   GaNi3
_chemical_formula_sum   'Ga108 Ni324'
_cell_volume   13198.51744791
_cell_formula_units_Z   108
loop_
 _symmetry_equiv_pos_site_id
 _symmetry_equiv_pos_as_xyz
  1  'x, y, z'
loop_
 _atom_site_type_symbol
 _atom_site_label
 _atom_site_symmetry_multiplicity
 _atom_site_fract_x
 _atom_site_fract_y
 _atom_site_fract_z
 _atom_site_occupancy
  Ga  Ga0  1  0.11111111  0.05555556  0.01041667  1.0
  Ga  Ga1  1  0.11111111  0.38888889  0.01041667  1.0
  Ga  Ga2  1  0.11111111  0.72222222  0.01041667  1.0
  Ga  Ga3  1  0.44444444  0.05555556  0.01041667  1.0
  Ga  Ga4  1  0.44444444  0.38888889  0.01041667  1.0
  Ga  Ga5  1  0.44444444  0.72222222  0.01041667  1.0
  Ga  Ga6  1  0.77777778  0.05555556  0.01041667  1.0
  Ga  Ga7  1  0.77777778  0.38888889  0.01041667  1.0
  Ga  Ga8  1  0.77777778  0.72222222  0.01041667  1.0
  Ga  Ga9  1  0.11111111  0.22222222  0.07291667  1.0
  Ga  Ga10  1  0.11111111  0.55555556  0.07291667  1.0
  Ga  Ga11  1  0.11111111  0.88888889  0.07291667  1.0
  Ga  Ga12  1  0.44444444  0.22222222  0.07291667  1.0
  Ga  Ga13  1  0.44444444  0.55555556  0.07291667  1.0
  Ga  Ga14  1  0.44444444  0.88888889  0.07291667  1.0
  Ga  Ga15  1  0.77777778  0.22222222  0.07291667  1.0
  Ga  Ga16  1  0.77777778  0.55555556  0.07291667  1.0
  Ga  Ga17  1  0.77777778  0.88888889  0.07291667  1.0
  Ga  Ga18  1  0.22222222  0.11111111  0.05208333  1.0
  Ga  Ga19  1  0.22222222  0.44444444  0.05208333  1.0
  Ga  Ga20  1  0.22222222  0.77777778  0.05208333  1.0
  Ga  Ga21  1  0.55555556  0.11111111  0.05208333  1.0
  Ga  Ga22  1  0.55555556  0.44444444  0.05208333  1.0
  Ga  Ga23  1  0.55555556  0.77777778  0.05208333  1.0
  Ga  Ga24  1  0.88888889  0.11111111  0.05208333  1.0
  Ga  Ga25  1  0.88888889  0.44444444  0.05208333  1.0
  Ga  Ga26  1  0.88888889  0.77777778  0.05208333  1.0
  Ga  Ga27  1  0.22222222  0.27777778  0.11458333  1.0
  Ga  Ga28  1  0.22222222  0.61111111  0.11458333  1.0
  Ga  Ga29  1  0.22222222  0.94444444  0.11458333  1.0
  Ga  Ga30  1  0.55555556  0.27777778  0.11458333  1.0
  Ga  Ga31  1  0.55555556  0.61111111  0.11458333  1.0
  Ga  Ga32  1  0.55555556  0.94444444  0.11458333  1.0
  Ga  Ga33  1  0.88888889  0.27777778  0.11458333  1.0
  Ga  Ga34  1  0.88888889  0.61111111  0.11458333  1.0
  Ga  Ga35  1  0.88888889  0.94444444  0.11458333  1.0
  Ni  Ni36  1  0.05486683  0.11179983  0.05182506  1.0
  Ni  Ni37  1  0.05486683  0.44513317  0.05182506  1.0
  Ni  Ni38  1  0.05486683  0.77846650  0.05182506  1.0
  Ni  Ni39  1  0.38820017  0.11179983  0.05182506  1.0
  Ni  Ni40  1  0.38820017  0.44513317  0.05182506  1.0
  Ni  Ni41  1  0.38820017  0.77846650  0.05182506  1.0
  Ni  Ni42  1  0.72153350  0.11179983  0.05182506  1.0
  Ni  Ni43  1  0.72153350  0.44513317  0.05182506  1.0
  Ni  Ni44  1  0.72153350  0.77846650  0.05182506  1.0
  Ni  Ni45  1  0.05486683  0.27846650  0.11432506  1.0
  Ni  Ni46  1  0.05486683  0.61179983  0.11432506  1.0
  Ni  Ni47  1  0.05486683  0.94513317  0.11432506  1.0
  Ni  Ni48  1  0.38820017  0.27846650  0.11432506  1.0
  Ni  Ni49  1  0.38820017  0.61179983  0.11432506  1.0
  Ni  Ni50  1  0.38820017  0.94513317  0.11432506  1.0
  Ni  Ni51  1  0.72153350  0.27846650  0.11432506  1.0
  Ni  Ni52  1  0.72153350  0.61179983  0.11432506  1.0
  Ni  Ni53  1  0.72153350  0.94513317  0.11432506  1.0
  Ni  Ni54  1  0.05486683  0.02743342  0.08346247  1.0
  Ni  Ni55  1  0.05486683  0.36076675  0.08346247  1.0
  Ni  Ni56  1  0.05486683  0.69410008  0.08346247  1.0
  Ni  Ni57  1  0.38820017  0.02743342  0.08346247  1.0
  Ni  Ni58  1  0.38820017  0.36076675  0.08346247  1.0
  Ni  Ni59  1  0.38820017  0.69410008  0.08346247  1.0
  Ni  Ni60  1  0.72153350  0.02743342  0.08346247  1.0
  Ni  Ni61  1  0.72153350  0.36076675  0.08346247  1.0
  Ni  Ni62  1  0.72153350  0.69410008  0.08346247  1.0
  Ni  Ni63  1  0.05486683  0.19410008  0.02096247  1.0
  Ni  Ni64  1  0.05486683  0.52743342  0.02096247  1.0
  Ni  Ni65  1  0.05486683  0.86076675  0.02096247  1.0
  Ni  Ni66  1  0.38820017  0.19410008  0.02096247  1.0
  Ni  Ni67  1  0.38820017  0.52743342  0.02096247  1.0
  Ni  Ni68  1  0.38820017  0.86076675  0.02096247  1.0
  Ni  Ni69  1  0.72153350  0.19410008  0.02096247  1.0
  Ni  Ni70  1  0.72153350  0.52743342  0.02096247  1.0
  Ni  Ni71  1  0.72153350  0.86076675  0.02096247  1.0
  Ni  Ni72  1  0.22359967  0.02743342  0.08346247  1.0
  Ni  Ni73  1  0.22359967  0.36076675  0.08346247  1.0
  Ni  Ni74  1  0.22359967  0.69410008  0.08346247  1.0
  Ni  Ni75  1  0.55693300  0.02743342  0.08346247  1.0
  Ni  Ni76  1  0.55693300  0.36076675  0.08346247  1.0
  Ni  Ni77  1  0.55693300  0.69410008  0.08346247  1.0
  Ni  Ni78  1  0.89026633  0.02743342  0.08346247  1.0
  Ni  Ni79  1  0.89026633  0.36076675  0.08346247  1.0
  Ni  Ni80  1  0.89026633  0.69410008  0.08346247  1.0
  Ni  Ni81  1  0.22359967  0.19410008  0.02096247  1.0
  Ni  Ni82  1  0.22359967  0.52743342  0.02096247  1.0
  Ni  Ni83  1  0.22359967  0.86076675  0.02096247  1.0
  Ni  Ni84  1  0.55693300  0.19410008  0.02096247  1.0
  Ni  Ni85  1  0.55693300  0.52743342  0.02096247  1.0
  Ni  Ni86  1  0.55693300  0.86076675  0.02096247  1.0
  Ni  Ni87  1  0.89026633  0.19410008  0.02096247  1.0
  Ni  Ni88  1  0.89026633  0.52743342  0.02096247  1.0
  Ni  Ni89  1  0.89026633  0.86076675  0.02096247  1.0
  Ni  Ni90  1  0.27846650  0.05486683  0.01067494  1.0
  Ni  Ni91  1  0.27846650  0.38820017  0.01067494  1.0
  Ni  Ni92  1  0.27846650  0.72153350  0.01067494  1.0
  Ni  Ni93  1  0.61179983  0.05486683  0.01067494  1.0
  Ni  Ni94  1  0.61179983  0.38820017  0.01067494  1.0
  Ni  Ni95  1  0.61179983  0.72153350  0.01067494  1.0
  Ni  Ni96  1  0.94513317  0.05486683  0.01067494  1.0
  Ni  Ni97  1  0.94513317  0.38820017  0.01067494  1.0
  Ni  Ni98  1  0.94513317  0.72153350  0.01067494  1.0
  Ni  Ni99  1  0.27846650  0.22153350  0.07317494  1.0
  Ni  Ni100  1  0.27846650  0.55486683  0.07317494  1.0
  Ni  Ni101  1  0.27846650  0.88820017  0.07317494  1.0
  Ni  Ni102  1  0.61179983  0.22153350  0.07317494  1.0
  Ni  Ni103  1  0.61179983  0.55486683  0.07317494  1.0
  Ni  Ni104  1  0.61179983  0.88820017  0.07317494  1.0
  Ni  Ni105  1  0.94513317  0.22153350  0.07317494  1.0
  Ni  Ni106  1  0.94513317  0.55486683  0.07317494  1.0
  Ni  Ni107  1  0.94513317  0.88820017  0.07317494  1.0
  Ni  Ni108  1  0.27846650  0.13923325  0.10403753  1.0
  Ni  Ni109  1  0.27846650  0.47256658  0.10403753  1.0
  Ni  Ni110  1  0.27846650  0.80589992  0.10403753  1.0
  Ni  Ni111  1  0.61179983  0.13923325  0.10403753  1.0
  Ni  Ni112  1  0.61179983  0.47256658  0.10403753  1.0
  Ni  Ni113  1  0.61179983  0.80589992  0.10403753  1.0
  Ni  Ni114  1  0.94513317  0.13923325  0.10403753  1.0
  Ni  Ni115  1  0.94513317  0.47256658  0.10403753  1.0
  Ni  Ni116  1  0.94513317  0.80589992  0.10403753  1.0
  Ni  Ni117  1  0.27846650  0.30589992  0.04153753  1.0
  Ni  Ni118  1  0.27846650  0.63923325  0.04153753  1.0
  Ni  Ni119  1  0.27846650  0.97256658  0.04153753  1.0
  Ni  Ni120  1  0.61179983  0.30589992  0.04153753  1.0
  Ni  Ni121  1  0.61179983  0.63923325  0.04153753  1.0
  Ni  Ni122  1  0.61179983  0.97256658  0.04153753  1.0
  Ni  Ni123  1  0.94513317  0.30589992  0.04153753  1.0
  Ni  Ni124  1  0.94513317  0.63923325  0.04153753  1.0
  Ni  Ni125  1  0.94513317  0.97256658  0.04153753  1.0
  Ni  Ni126  1  0.10973367  0.13923325  0.10403753  1.0
  Ni  Ni127  1  0.10973367  0.47256658  0.10403753  1.0
  Ni  Ni128  1  0.10973367  0.80589992  0.10403753  1.0
  Ni  Ni129  1  0.44306700  0.13923325  0.10403753  1.0
  Ni  Ni130  1  0.44306700  0.47256658  0.10403753  1.0
  Ni  Ni131  1  0.44306700  0.80589992  0.10403753  1.0
  Ni  Ni132  1  0.77640033  0.13923325  0.10403753  1.0
  Ni  Ni133  1  0.77640033  0.47256658  0.10403753  1.0
  Ni  Ni134  1  0.77640033  0.80589992  0.10403753  1.0
  Ni  Ni135  1  0.10973367  0.30589992  0.04153753  1.0
  Ni  Ni136  1  0.10973367  0.63923325  0.04153753  1.0
  Ni  Ni137  1  0.10973367  0.97256658  0.04153753  1.0
  Ni  Ni138  1  0.44306700  0.30589992  0.04153753  1.0
  Ni  Ni139  1  0.44306700  0.63923325  0.04153753  1.0
  Ni  Ni140  1  0.44306700  0.97256658  0.04153753  1.0
  Ni  Ni141  1  0.77640033  0.30589992  0.04153753  1.0
  Ni  Ni142  1  0.77640033  0.63923325  0.04153753  1.0
  Ni  Ni143  1  0.77640033  0.97256658  0.04153753  1.0
  Ga  Ga144  1  0.11111111  0.05555556  0.13541667  1.0
  Ga  Ga145  1  0.11111111  0.38888889  0.13541667  1.0
  Ga  Ga146  1  0.11111111  0.72222222  0.13541667  1.0
  Ga  Ga147  1  0.44444444  0.05555556  0.13541667  1.0
  Ga  Ga148  1  0.44444444  0.38888889  0.13541667  1.0
  Ga  Ga149  1  0.44444444  0.72222222  0.13541667  1.0
  Ga  Ga150  1  0.77777778  0.05555556  0.13541667  1.0
  Ga  Ga151  1  0.77777778  0.38888889  0.13541667  1.0
  Ga  Ga152  1  0.77777778  0.72222222  0.13541667  1.0
  Ga  Ga153  1  0.11111111  0.22222222  0.19791667  1.0
  Ga  Ga154  1  0.11111111  0.55555556  0.19791667  1.0
  Ga  Ga155  1  0.11111111  0.88888889  0.19791667  1.0
  Ga  Ga156  1  0.44444444  0.22222222  0.19791667  1.0
  Ga  Ga157  1  0.44444444  0.55555556  0.19791667  1.0
  Ga  Ga158  1  0.44444444  0.88888889  0.19791667  1.0
  Ga  Ga159  1  0.77777778  0.22222222  0.19791667  1.0
  Ga  Ga160  1  0.77777778  0.55555556  0.19791667  1.0
  Ga  Ga161  1  0.77777778  0.88888889  0.19791667  1.0
  Ga  Ga162  1  0.22222222  0.11111111  0.17708333  1.0
  Ga  Ga163  1  0.22222222  0.44444444  0.17708333  1.0
  Ga  Ga164  1  0.22222222  0.77777778  0.17708333  1.0
  Ga  Ga165  1  0.55555556  0.11111111  0.17708333  1.0
  Ga  Ga166  1  0.55555556  0.44444444  0.17708333  1.0
  Ga  Ga167  1  0.55555556  0.77777778  0.17708333  1.0
  Ga  Ga168  1  0.88888889  0.11111111  0.17708333  1.0
  Ga  Ga169  1  0.88888889  0.44444444  0.17708333  1.0
  Ga  Ga170  1  0.88888889  0.77777778  0.17708333  1.0
  Ga  Ga171  1  0.22222222  0.27777778  0.23958333  1.0
  Ga  Ga172  1  0.22222222  0.61111111  0.23958333  1.0
  Ga  Ga173  1  0.22222222  0.94444444  0.23958333  1.0
  Ga  Ga174  1  0.55555556  0.27777778  0.23958333  1.0
  Ga  Ga175  1  0.55555556  0.61111111  0.23958333  1.0
  Ga  Ga176  1  0.55555556  0.94444444  0.23958333  1.0
  Ga  Ga177  1  0.88888889  0.27777778  0.23958333  1.0
  Ga  Ga178  1  0.88888889  0.61111111  0.23958333  1.0
  Ga  Ga179  1  0.88888889  0.94444444  0.23958333  1.0
  Ni  Ni180  1  0.05486683  0.11179983  0.17682506  1.0
  Ni  Ni181  1  0.05486683  0.44513317  0.17682506  1.0
  Ni  Ni182  1  0.05486683  0.77846650  0.17682506  1.0
  Ni  Ni183  1  0.38820017  0.11179983  0.17682506  1.0
  Ni  Ni184  1  0.38820017  0.44513317  0.17682506  1.0
  Ni  Ni185  1  0.38820017  0.77846650  0.17682506  1.0
  Ni  Ni186  1  0.72153350  0.11179983  0.17682506  1.0
  Ni  Ni187  1  0.72153350  0.44513317  0.17682506  1.0
  Ni  Ni188  1  0.72153350  0.77846650  0.17682506  1.0
  Ni  Ni189  1  0.05486683  0.27846650  0.23932506  1.0
  Ni  Ni190  1  0.05486683  0.61179983  0.23932506  1.0
  Ni  Ni191  1  0.05486683  0.94513317  0.23932506  1.0
  Ni  Ni192  1  0.38820017  0.27846650  0.23932506  1.0
  Ni  Ni193  1  0.38820017  0.61179983  0.23932506  1.0
  Ni  Ni194  1  0.38820017  0.94513317  0.23932506  1.0
  Ni  Ni195  1  0.72153350  0.27846650  0.23932506  1.0
  Ni  Ni196  1  0.72153350  0.61179983  0.23932506  1.0
  Ni  Ni197  1  0.72153350  0.94513317  0.23932506  1.0
  Ni  Ni198  1  0.05486683  0.02743342  0.20846247  1.0
  Ni  Ni199  1  0.05486683  0.36076675  0.20846247  1.0
  Ni  Ni200  1  0.05486683  0.69410008  0.20846247  1.0
  Ni  Ni201  1  0.38820017  0.02743342  0.20846247  1.0
  Ni  Ni202  1  0.38820017  0.36076675  0.20846247  1.0
  Ni  Ni203  1  0.38820017  0.69410008  0.20846247  1.0
  Ni  Ni204  1  0.72153350  0.02743342  0.20846247  1.0
  Ni  Ni205  1  0.72153350  0.36076675  0.20846247  1.0
  Ni  Ni206  1  0.72153350  0.69410008  0.20846247  1.0
  Ni  Ni207  1  0.05486683  0.19410008  0.14596247  1.0
  Ni  Ni208  1  0.05486683  0.52743342  0.14596247  1.0
  Ni  Ni209  1  0.05486683  0.86076675  0.14596247  1.0
  Ni  Ni210  1  0.38820017  0.19410008  0.14596247  1.0
  Ni  Ni211  1  0.38820017  0.52743342  0.14596247  1.0
  Ni  Ni212  1  0.38820017  0.86076675  0.14596247  1.0
  Ni  Ni213  1  0.72153350  0.19410008  0.14596247  1.0
  Ni  Ni214  1  0.72153350  0.52743342  0.14596247  1.0
  Ni  Ni215  1  0.72153350  0.86076675  0.14596247  1.0
  Ni  Ni216  1  0.22359967  0.02743342  0.20846247  1.0
  Ni  Ni217  1  0.22359967  0.36076675  0.20846247  1.0
  Ni  Ni218  1  0.22359967  0.69410008  0.20846247  1.0
  Ni  Ni219  1  0.55693300  0.02743342  0.20846247  1.0
  Ni  Ni220  1  0.55693300  0.36076675  0.20846247  1.0
  Ni  Ni221  1  0.55693300  0.69410008  0.20846247  1.0
  Ni  Ni222  1  0.89026633  0.02743342  0.20846247  1.0
  Ni  Ni223  1  0.89026633  0.36076675  0.20846247  1.0
  Ni  Ni224  1  0.89026633  0.69410008  0.20846247  1.0
  Ni  Ni225  1  0.22359967  0.19410008  0.14596247  1.0
  Ni  Ni226  1  0.22359967  0.52743342  0.14596247  1.0
  Ni  Ni227  1  0.22359967  0.86076675  0.14596247  1.0
  Ni  Ni228  1  0.55693300  0.19410008  0.14596247  1.0
  Ni  Ni229  1  0.55693300  0.52743342  0.14596247  1.0
  Ni  Ni230  1  0.55693300  0.86076675  0.14596247  1.0
  Ni  Ni231  1  0.89026633  0.19410008  0.14596247  1.0
  Ni  Ni232  1  0.89026633  0.52743342  0.14596247  1.0
  Ni  Ni233  1  0.89026633  0.86076675  0.14596247  1.0
  Ni  Ni234  1  0.27846650  0.05486683  0.13567494  1.0
  Ni  Ni235  1  0.27846650  0.38820017  0.13567494  1.0
  Ni  Ni236  1  0.27846650  0.72153350  0.13567494  1.0
  Ni  Ni237  1  0.61179983  0.05486683  0.13567494  1.0
  Ni  Ni238  1  0.61179983  0.38820017  0.13567494  1.0
  Ni  Ni239  1  0.61179983  0.72153350  0.13567494  1.0
  Ni  Ni240  1  0.94513317  0.05486683  0.13567494  1.0
  Ni  Ni241  1  0.94513317  0.38820017  0.13567494  1.0
  Ni  Ni242  1  0.94513317  0.72153350  0.13567494  1.0
  Ni  Ni243  1  0.27846650  0.22153350  0.19817494  1.0
  Ni  Ni244  1  0.27846650  0.55486683  0.19817494  1.0
  Ni  Ni245  1  0.27846650  0.88820017  0.19817494  1.0
  Ni  Ni246  1  0.61179983  0.22153350  0.19817494  1.0
  Ni  Ni247  1  0.61179983  0.55486683  0.19817494  1.0
  Ni  Ni248  1  0.61179983  0.88820017  0.19817494  1.0
  Ni  Ni249  1  0.94513317  0.22153350  0.19817494  1.0
  Ni  Ni250  1  0.94513317  0.55486683  0.19817494  1.0
  Ni  Ni251  1  0.94513317  0.88820017  0.19817494  1.0
  Ni  Ni252  1  0.27846650  0.13923325  0.22903753  1.0
  Ni  Ni253  1  0.27846650  0.47256658  0.22903753  1.0
  Ni  Ni254  1  0.27846650  0.80589992  0.22903753  1.0
  Ni  Ni255  1  0.61179983  0.13923325  0.22903753  1.0
  Ni  Ni256  1  0.61179983  0.47256658  0.22903753  1.0
  Ni  Ni257  1  0.61179983  0.80589992  0.22903753  1.0
  Ni  Ni258  1  0.94513317  0.13923325  0.22903753  1.0
  Ni  Ni259  1  0.94513317  0.47256658  0.22903753  1.0
  Ni  Ni260  1  0.94513317  0.80589992  0.22903753  1.0
  Ni  Ni261  1  0.27846650  0.30589992  0.16653753  1.0
  Ni  Ni262  1  0.27846650  0.63923325  0.16653753  1.0
  Ni  Ni263  1  0.27846650  0.97256658  0.16653753  1.0
  Ni  Ni264  1  0.61179983  0.30589992  0.16653753  1.0
  Ni  Ni265  1  0.61179983  0.63923325  0.16653753  1.0
  Ni  Ni266  1  0.61179983  0.97256658  0.16653753  1.0
  Ni  Ni267  1  0.94513317  0.30589992  0.16653753  1.0
  Ni  Ni268  1  0.94513317  0.63923325  0.16653753  1.0
  Ni  Ni269  1  0.94513317  0.97256658  0.16653753  1.0
  Ni  Ni270  1  0.10973367  0.13923325  0.22903753  1.0
  Ni  Ni271  1  0.10973367  0.47256658  0.22903753  1.0
  Ni  Ni272  1  0.10973367  0.80589992  0.22903753  1.0
  Ni  Ni273  1  0.44306700  0.13923325  0.22903753  1.0
  Ni  Ni274  1  0.44306700  0.47256658  0.22903753  1.0
  Ni  Ni275  1  0.44306700  0.80589992  0.22903753  1.0
  Ni  Ni276  1  0.77640033  0.13923325  0.22903753  1.0
  Ni  Ni277  1  0.77640033  0.47256658  0.22903753  1.0
  Ni  Ni278  1  0.77640033  0.80589992  0.22903753  1.0
  Ni  Ni279  1  0.10973367  0.30589992  0.16653753  1.0
  Ni  Ni280  1  0.10973367  0.63923325  0.16653753  1.0
  Ni  Ni281  1  0.10973367  0.97256658  0.16653753  1.0
  Ni  Ni282  1  0.44306700  0.30589992  0.16653753  1.0
  Ni  Ni283  1  0.44306700  0.63923325  0.16653753  1.0
  Ni  Ni284  1  0.44306700  0.97256658  0.16653753  1.0
  Ni  Ni285  1  0.77640033  0.30589992  0.16653753  1.0
  Ni  Ni286  1  0.77640033  0.63923325  0.16653753  1.0
  Ni  Ni287  1  0.77640033  0.97256658  0.16653753  1.0
  Ga  Ga288  1  0.11111111  0.05555556  0.26041667  1.0
  Ga  Ga289  1  0.11111111  0.38888889  0.26041667  1.0
  Ga  Ga290  1  0.11111111  0.72222222  0.26041667  1.0
  Ga  Ga291  1  0.44444444  0.05555556  0.26041667  1.0
  Ga  Ga292  1  0.44444444  0.38888889  0.26041667  1.0
  Ga  Ga293  1  0.44444444  0.72222222  0.26041667  1.0
  Ga  Ga294  1  0.77777778  0.05555556  0.26041667  1.0
  Ga  Ga295  1  0.77777778  0.38888889  0.26041667  1.0
  Ga  Ga296  1  0.77777778  0.72222222  0.26041667  1.0
  Ga  Ga297  1  0.11111111  0.22222222  0.32291667  1.0
  Ga  Ga298  1  0.11111111  0.55555556  0.32291667  1.0
  Ga  Ga299  1  0.11111111  0.88888889  0.32291667  1.0
  Ga  Ga300  1  0.44444444  0.22222222  0.32291667  1.0
  Ga  Ga301  1  0.44444444  0.55555556  0.32291667  1.0
  Ga  Ga302  1  0.44444444  0.88888889  0.32291667  1.0
  Ga  Ga303  1  0.77777778  0.22222222  0.32291667  1.0
  Ga  Ga304  1  0.77777778  0.55555556  0.32291667  1.0
  Ga  Ga305  1  0.77777778  0.88888889  0.32291667  1.0
  Ga  Ga306  1  0.22222222  0.11111111  0.30208333  1.0
  Ga  Ga307  1  0.22222222  0.44444444  0.30208333  1.0
  Ga  Ga308  1  0.22222222  0.77777778  0.30208333  1.0
  Ga  Ga309  1  0.55555556  0.11111111  0.30208333  1.0
  Ga  Ga310  1  0.55555556  0.44444444  0.30208333  1.0
  Ga  Ga311  1  0.55555556  0.77777778  0.30208333  1.0
  Ga  Ga312  1  0.88888889  0.11111111  0.30208333  1.0
  Ga  Ga313  1  0.88888889  0.44444444  0.30208333  1.0
  Ga  Ga314  1  0.88888889  0.77777778  0.30208333  1.0
  Ga  Ga315  1  0.22222222  0.27777778  0.36458333  1.0
  Ga  Ga316  1  0.22222222  0.61111111  0.36458333  1.0
  Ga  Ga317  1  0.22222222  0.94444444  0.36458333  1.0
  Ga  Ga318  1  0.55555556  0.27777778  0.36458333  1.0
  Ga  Ga319  1  0.55555556  0.61111111  0.36458333  1.0
  Ga  Ga320  1  0.55555556  0.94444444  0.36458333  1.0
  Ga  Ga321  1  0.88888889  0.27777778  0.36458333  1.0
  Ga  Ga322  1  0.88888889  0.61111111  0.36458333  1.0
  Ga  Ga323  1  0.88888889  0.94444444  0.36458333  1.0
  Ni  Ni324  1  0.05486683  0.11179983  0.30182506  1.0
  Ni  Ni325  1  0.05486683  0.44513317  0.30182506  1.0
  Ni  Ni326  1  0.05486683  0.77846650  0.30182506  1.0
  Ni  Ni327  1  0.38820017  0.11179983  0.30182506  1.0
  Ni  Ni328  1  0.38820017  0.44513317  0.30182506  1.0
  Ni  Ni329  1  0.38820017  0.77846650  0.30182506  1.0
  Ni  Ni330  1  0.72153350  0.11179983  0.30182506  1.0
  Ni  Ni331  1  0.72153350  0.44513317  0.30182506  1.0
  Ni  Ni332  1  0.72153350  0.77846650  0.30182506  1.0
  Ni  Ni333  1  0.05486683  0.27846650  0.36432506  1.0
  Ni  Ni334  1  0.05486683  0.61179983  0.36432506  1.0
  Ni  Ni335  1  0.05486683  0.94513317  0.36432506  1.0
  Ni  Ni336  1  0.38820017  0.27846650  0.36432506  1.0
  Ni  Ni337  1  0.38820017  0.61179983  0.36432506  1.0
  Ni  Ni338  1  0.38820017  0.94513317  0.36432506  1.0
  Ni  Ni339  1  0.72153350  0.27846650  0.36432506  1.0
  Ni  Ni340  1  0.72153350  0.61179983  0.36432506  1.0
  Ni  Ni341  1  0.72153350  0.94513317  0.36432506  1.0
  Ni  Ni342  1  0.05486683  0.02743342  0.33346247  1.0
  Ni  Ni343  1  0.05486683  0.36076675  0.33346247  1.0
  Ni  Ni344  1  0.05486683  0.69410008  0.33346247  1.0
  Ni  Ni345  1  0.38820017  0.02743342  0.33346247  1.0
  Ni  Ni346  1  0.38820017  0.36076675  0.33346247  1.0
  Ni  Ni347  1  0.38820017  0.69410008  0.33346247  1.0
  Ni  Ni348  1  0.72153350  0.02743342  0.33346247  1.0
  Ni  Ni349  1  0.72153350  0.36076675  0.33346247  1.0
  Ni  Ni350  1  0.72153350  0.69410008  0.33346247  1.0
  Ni  Ni351  1  0.05486683  0.19410008  0.27096247  1.0
  Ni  Ni352  1  0.05486683  0.52743342  0.27096247  1.0
  Ni  Ni353  1  0.05486683  0.86076675  0.27096247  1.0
  Ni  Ni354  1  0.38820017  0.19410008  0.27096247  1.0
  Ni  Ni355  1  0.38820017  0.52743342  0.27096247  1.0
  Ni  Ni356  1  0.38820017  0.86076675  0.27096247  1.0
  Ni  Ni357  1  0.72153350  0.19410008  0.27096247  1.0
  Ni  Ni358  1  0.72153350  0.52743342  0.27096247  1.0
  Ni  Ni359  1  0.72153350  0.86076675  0.27096247  1.0
  Ni  Ni360  1  0.22359967  0.02743342  0.33346247  1.0
  Ni  Ni361  1  0.22359967  0.36076675  0.33346247  1.0
  Ni  Ni362  1  0.22359967  0.69410008  0.33346247  1.0
  Ni  Ni363  1  0.55693300  0.02743342  0.33346247  1.0
  Ni  Ni364  1  0.55693300  0.36076675  0.33346247  1.0
  Ni  Ni365  1  0.55693300  0.69410008  0.33346247  1.0
  Ni  Ni366  1  0.89026633  0.02743342  0.33346247  1.0
  Ni  Ni367  1  0.89026633  0.36076675  0.33346247  1.0
  Ni  Ni368  1  0.89026633  0.69410008  0.33346247  1.0
  Ni  Ni369  1  0.22359967  0.19410008  0.27096247  1.0
  Ni  Ni370  1  0.22359967  0.52743342  0.27096247  1.0
  Ni  Ni371  1  0.22359967  0.86076675  0.27096247  1.0
  Ni  Ni372  1  0.55693300  0.19410008  0.27096247  1.0
  Ni  Ni373  1  0.55693300  0.52743342  0.27096247  1.0
  Ni  Ni374  1  0.55693300  0.86076675  0.27096247  1.0
  Ni  Ni375  1  0.89026633  0.19410008  0.27096247  1.0
  Ni  Ni376  1  0.89026633  0.52743342  0.27096247  1.0
  Ni  Ni377  1  0.89026633  0.86076675  0.27096247  1.0
  Ni  Ni378  1  0.27846650  0.05486683  0.26067494  1.0
  Ni  Ni379  1  0.27846650  0.38820017  0.26067494  1.0
  Ni  Ni380  1  0.27846650  0.72153350  0.26067494  1.0
  Ni  Ni381  1  0.61179983  0.05486683  0.26067494  1.0
  Ni  Ni382  1  0.61179983  0.38820017  0.26067494  1.0
  Ni  Ni383  1  0.61179983  0.72153350  0.26067494  1.0
  Ni  Ni384  1  0.94513317  0.05486683  0.26067494  1.0
  Ni  Ni385  1  0.94513317  0.38820017  0.26067494  1.0
  Ni  Ni386  1  0.94513317  0.72153350  0.26067494  1.0
  Ni  Ni387  1  0.27846650  0.22153350  0.32317494  1.0
  Ni  Ni388  1  0.27846650  0.55486683  0.32317494  1.0
  Ni  Ni389  1  0.27846650  0.88820017  0.32317494  1.0
  Ni  Ni390  1  0.61179983  0.22153350  0.32317494  1.0
  Ni  Ni391  1  0.61179983  0.55486683  0.32317494  1.0
  Ni  Ni392  1  0.61179983  0.88820017  0.32317494  1.0
  Ni  Ni393  1  0.94513317  0.22153350  0.32317494  1.0
  Ni  Ni394  1  0.94513317  0.55486683  0.32317494  1.0
  Ni  Ni395  1  0.94513317  0.88820017  0.32317494  1.0
  Ni  Ni396  1  0.27846650  0.13923325  0.35403753  1.0
  Ni  Ni397  1  0.27846650  0.47256658  0.35403753  1.0
  Ni  Ni398  1  0.27846650  0.80589992  0.35403753  1.0
  Ni  Ni399  1  0.61179983  0.13923325  0.35403753  1.0
  Ni  Ni400  1  0.61179983  0.47256658  0.35403753  1.0
  Ni  Ni401  1  0.61179983  0.80589992  0.35403753  1.0
  Ni  Ni402  1  0.94513317  0.13923325  0.35403753  1.0
  Ni  Ni403  1  0.94513317  0.47256658  0.35403753  1.0
  Ni  Ni404  1  0.94513317  0.80589992  0.35403753  1.0
  Ni  Ni405  1  0.27846650  0.30589992  0.29153753  1.0
  Ni  Ni406  1  0.27846650  0.63923325  0.29153753  1.0
  Ni  Ni407  1  0.27846650  0.97256658  0.29153753  1.0
  Ni  Ni408  1  0.61179983  0.30589992  0.29153753  1.0
  Ni  Ni409  1  0.61179983  0.63923325  0.29153753  1.0
  Ni  Ni410  1  0.61179983  0.97256658  0.29153753  1.0
  Ni  Ni411  1  0.94513317  0.30589992  0.29153753  1.0
  Ni  Ni412  1  0.94513317  0.63923325  0.29153753  1.0
  Ni  Ni413  1  0.94513317  0.97256658  0.29153753  1.0
  Ni  Ni414  1  0.10973367  0.13923325  0.35403753  1.0
  Ni  Ni415  1  0.10973367  0.47256658  0.35403753  1.0
  Ni  Ni416  1  0.10973367  0.80589992  0.35403753  1.0
  Ni  Ni417  1  0.44306700  0.13923325  0.35403753  1.0
  Ni  Ni418  1  0.44306700  0.47256658  0.35403753  1.0
  Ni  Ni419  1  0.44306700  0.80589992  0.35403753  1.0
  Ni  Ni420  1  0.77640033  0.13923325  0.35403753  1.0
  Ni  Ni421  1  0.77640033  0.47256658  0.35403753  1.0
  Ni  Ni422  1  0.77640033  0.80589992  0.35403753  1.0
  Ni  Ni423  1  0.10973367  0.30589992  0.29153753  1.0
  Ni  Ni424  1  0.10973367  0.63923325  0.29153753  1.0
  Ni  Ni425  1  0.10973367  0.97256658  0.29153753  1.0
  Ni  Ni426  1  0.44306700  0.30589992  0.29153753  1.0
  Ni  Ni427  1  0.44306700  0.63923325  0.29153753  1.0
  Ni  Ni428  1  0.44306700  0.97256658  0.29153753  1.0
  Ni  Ni429  1  0.77640033  0.30589992  0.29153753  1.0
  Ni  Ni430  1  0.77640033  0.63923325  0.29153753  1.0
  Ni  Ni431  1  0.77640033  0.97256658  0.29153753  1.0
