# generated using pymatgen
data_GaNi
_symmetry_space_group_name_H-M   'P 1'
_cell_length_a   8.74073400
_cell_length_b   8.74073400
_cell_length_c   29.13578000
_cell_angle_alpha   90.00000000
_cell_angle_beta   90.00000000
_cell_angle_gamma   90.00000000
_symmetry_Int_Tables_number   1
_chemical_formula_structural   GaNi
_chemical_formula_sum   'Ga36 Ni36'
_cell_volume   2225.98614541
_cell_formula_units_Z   36
loop_
 _symmetry_equiv_pos_site_id
 _symmetry_equiv_pos_as_xyz
  1  'x, y, z'
loop_
 _atom_site_type_symbol
 _atom_site_label
 _atom_site_symmetry_multiplicity
 _atom_site_fract_x
 _atom_site_fract_y
 _atom_site_fract_z
 _atom_site_occupancy
  Ga  Ga0  1  0.00000000  0.00000000  0.07500000  1.0
  Ga  Ga1  1  0.00000000  0.33333333  0.07500000  1.0
  Ga  Ga2  1  0.00000000  0.66666667  0.07500000  1.0
  Ga  Ga3  1  0.33333333  0.00000000  0.07500000  1.0
  Ga  Ga4  1  0.33333333  0.33333333  0.07500000  1.0
  Ga  Ga5  1  0.33333333  0.66666667  0.07500000  1.0
  Ga  Ga6  1  0.66666667  0.00000000  0.07500000  1.0
  Ga  Ga7  1  0.66666667  0.33333333  0.07500000  1.0
  Ga  Ga8  1  0.66666667  0.66666667  0.07500000  1.0
  Ni  Ni9  1  0.16666667  0.16666667  0.02500000  1.0
  Ni  Ni10  1  0.16666667  0.50000000  0.02500000  1.0
  Ni  Ni11  1  0.16666667  0.83333333  0.02500000  1.0
  Ni  Ni12  1  0.50000000  0.16666667  0.02500000  1.0
  Ni  Ni13  1  0.50000000  0.50000000  0.02500000  1.0
  Ni  Ni14  1  0.50000000  0.83333333  0.02500000  1.0
  Ni  Ni15  1  0.83333333  0.16666667  0.02500000  1.0
  Ni  Ni16  1  0.83333333  0.50000000  0.02500000  1.0
  Ni  Ni17  1  0.83333333  0.83333333  0.02500000  1.0
  Ga  Ga18  1  0.00000000  0.00000000  0.17500000  1.0
  Ga  Ga19  1  0.00000000  0.33333333  0.17500000  1.0
  Ga  Ga20  1  0.00000000  0.66666667  0.17500000  1.0
  Ga  Ga21  1  0.33333333  0.00000000  0.17500000  1.0
  Ga  Ga22  1  0.33333333  0.33333333  0.17500000  1.0
  Ga  Ga23  1  0.33333333  0.66666667  0.17500000  1.0
  Ga  Ga24  1  0.66666667  0.00000000  0.17500000  1.0
  Ga  Ga25  1  0.66666667  0.33333333  0.17500000  1.0
  Ga  Ga26  1  0.66666667  0.66666667  0.17500000  1.0
  Ni  Ni27  1  0.16666667  0.16666667  0.12500000  1.0
  Ni  Ni28  1  0.16666667  0.50000000  0.12500000  1.0
  Ni  Ni29  1  0.16666667  0.83333333  0.12500000  1.0
  Ni  Ni30  1  0.50000000  0.16666667  0.12500000  1.0
  Ni  Ni31  1  0.50000000  0.50000000  0.12500000  1.0
  Ni  Ni32  1  0.50000000  0.83333333  0.12500000  1.0
  Ni  Ni33  1  0.83333333  0.16666667  0.12500000  1.0
  Ni  Ni34  1  0.83333333  0.50000000  0.12500000  1.0
  Ni  Ni35  1  0.83333333  0.83333333  0.12500000  1.0
  Ga  Ga36  1  0.00000000  0.00000000  0.27500000  1.0
  Ga  Ga37  1  0.00000000  0.33333333  0.27500000  1.0
  Ga  Ga38  1  0.00000000  0.66666667  0.27500000  1.0
  Ga  Ga39  1  0.33333333  0.00000000  0.27500000  1.0
  Ga  Ga40  1  0.33333333  0.33333333  0.27500000  1.0
  Ga  Ga41  1  0.33333333  0.66666667  0.27500000  1.0
  Ga  Ga42  1  0.66666667  0.00000000  0.27500000  1.0
  Ga  Ga43  1  0.66666667  0.33333333  0.27500000  1.0
  Ga  Ga44  1  0.66666667  0.66666667  0.27500000  1.0
  Ni  Ni45  1  0.16666667  0.16666667  0.22500000  1.0
  Ni  Ni46  1  0.16666667  0.50000000  0.22500000  1.0
  Ni  Ni47  1  0.16666667  0.83333333  0.22500000  1.0
  Ni  Ni48  1  0.50000000  0.16666667  0.22500000  1.0
  Ni  Ni49  1  0.50000000  0.50000000  0.22500000  1.0
  Ni  Ni50  1  0.50000000  0.83333333  0.22500000  1.0
  Ni  Ni51  1  0.83333333  0.16666667  0.22500000  1.0
  Ni  Ni52  1  0.83333333  0.50000000  0.22500000  1.0
  Ni  Ni53  1  0.83333333  0.83333333  0.22500000  1.0
  Ga  Ga54  1  0.00000000  0.00000000  0.37500000  1.0
  Ga  Ga55  1  0.00000000  0.33333333  0.37500000  1.0
  Ga  Ga56  1  0.00000000  0.66666667  0.37500000  1.0
  Ga  Ga57  1  0.33333333  0.00000000  0.37500000  1.0
  Ga  Ga58  1  0.33333333  0.33333333  0.37500000  1.0
  Ga  Ga59  1  0.33333333  0.66666667  0.37500000  1.0
  Ga  Ga60  1  0.66666667  0.00000000  0.37500000  1.0
  Ga  Ga61  1  0.66666667  0.33333333  0.37500000  1.0
  Ga  Ga62  1  0.66666667  0.66666667  0.37500000  1.0
  Ni  Ni63  1  0.16666667  0.16666667  0.32500000  1.0
  Ni  Ni64  1  0.16666667  0.50000000  0.32500000  1.0
  Ni  Ni65  1  0.16666667  0.83333333  0.32500000  1.0
  Ni  Ni66  1  0.50000000  0.16666667  0.32500000  1.0
  Ni  Ni67  1  0.50000000  0.50000000  0.32500000  1.0
  Ni  Ni68  1  0.50000000  0.83333333  0.32500000  1.0
  Ni  Ni69  1  0.83333333  0.16666667  0.32500000  1.0
  Ni  Ni70  1  0.83333333  0.50000000  0.32500000  1.0
  Ni  Ni71  1  0.83333333  0.83333333  0.32500000  1.0
