# generated using pymatgen
data_GaNi2
_symmetry_space_group_name_H-M   'P 1'
_cell_length_a   14.05789124
_cell_length_b   19.30760595
_cell_length_c   32.46530916
_cell_angle_alpha   65.14208672
_cell_angle_beta   90.00000000
_cell_angle_gamma   90.00000000
_symmetry_Int_Tables_number   1
_chemical_formula_structural   GaNi2
_chemical_formula_sum   'Ga90 Ni180'
_cell_volume   7995.47828922
_cell_formula_units_Z   90
loop_
 _symmetry_equiv_pos_site_id
 _symmetry_equiv_pos_as_xyz
  1  'x, y, z'
loop_
 _atom_site_type_symbol
 _atom_site_label
 _atom_site_symmetry_multiplicity
 _atom_site_fract_x
 _atom_site_fract_y
 _atom_site_fract_z
 _atom_site_occupancy
  Ga  Ga0  1  0.16666667  0.00000000  0.03463771  1.0
  Ga  Ga1  1  0.16666667  0.33333333  0.03463771  1.0
  Ga  Ga2  1  0.16666667  0.66666667  0.03463771  1.0
  Ga  Ga3  1  0.50000000  0.00000000  0.03463771  1.0
  Ga  Ga4  1  0.50000000  0.33333333  0.03463771  1.0
  Ga  Ga5  1  0.50000000  0.66666667  0.03463771  1.0
  Ga  Ga6  1  0.83333333  0.00000000  0.03463771  1.0
  Ga  Ga7  1  0.83333333  0.33333333  0.03463771  1.0
  Ga  Ga8  1  0.83333333  0.66666667  0.03463771  1.0
  Ga  Ga9  1  0.00000000  0.00000000  0.07630437  1.0
  Ga  Ga10  1  0.00000000  0.33333333  0.07630437  1.0
  Ga  Ga11  1  0.00000000  0.66666667  0.07630438  1.0
  Ga  Ga12  1  0.33333333  0.00000000  0.07630437  1.0
  Ga  Ga13  1  0.33333333  0.33333333  0.07630438  1.0
  Ga  Ga14  1  0.33333333  0.66666667  0.07630438  1.0
  Ga  Ga15  1  0.66666667  0.00000000  0.07630437  1.0
  Ga  Ga16  1  0.66666667  0.33333333  0.07630438  1.0
  Ga  Ga17  1  0.66666667  0.66666667  0.07630437  1.0
  Ni  Ni18  1  0.11111111  0.22289833  0.02057979  1.0
  Ni  Ni19  1  0.11111111  0.55623167  0.02057979  1.0
  Ni  Ni20  1  0.11111111  0.88956500  0.02057979  1.0
  Ni  Ni21  1  0.44444444  0.22289833  0.02057979  1.0
  Ni  Ni22  1  0.44444444  0.55623167  0.02057979  1.0
  Ni  Ni23  1  0.44444444  0.88956500  0.02057979  1.0
  Ni  Ni24  1  0.77777778  0.22289833  0.02057979  1.0
  Ni  Ni25  1  0.77777778  0.55623167  0.02057979  1.0
  Ni  Ni26  1  0.77777778  0.88956500  0.02057979  1.0
  Ni  Ni27  1  0.27777778  0.22289833  0.06224646  1.0
  Ni  Ni28  1  0.27777778  0.55623167  0.06224646  1.0
  Ni  Ni29  1  0.27777778  0.88956500  0.06224646  1.0
  Ni  Ni30  1  0.61111111  0.22289833  0.06224646  1.0
  Ni  Ni31  1  0.61111111  0.55623167  0.06224646  1.0
  Ni  Ni32  1  0.61111111  0.88956500  0.06224646  1.0
  Ni  Ni33  1  0.94444444  0.22289833  0.06224646  1.0
  Ni  Ni34  1  0.94444444  0.55623167  0.06224646  1.0
  Ni  Ni35  1  0.94444444  0.88956500  0.06224646  1.0
  Ni  Ni36  1  0.05555556  0.11043500  0.00702896  1.0
  Ni  Ni37  1  0.05555556  0.44376833  0.00702896  1.0
  Ni  Ni38  1  0.05555556  0.77710167  0.00702896  1.0
  Ni  Ni39  1  0.38888889  0.11043500  0.00702896  1.0
  Ni  Ni40  1  0.38888889  0.44376833  0.00702896  1.0
  Ni  Ni41  1  0.38888889  0.77710167  0.00702896  1.0
  Ni  Ni42  1  0.72222222  0.11043500  0.00702896  1.0
  Ni  Ni43  1  0.72222222  0.44376833  0.00702896  1.0
  Ni  Ni44  1  0.72222222  0.77710167  0.00702896  1.0
  Ni  Ni45  1  0.22222222  0.11043500  0.04869563  1.0
  Ni  Ni46  1  0.22222222  0.44376833  0.04869563  1.0
  Ni  Ni47  1  0.22222222  0.77710167  0.04869563  1.0
  Ni  Ni48  1  0.55555556  0.11043500  0.04869563  1.0
  Ni  Ni49  1  0.55555556  0.44376833  0.04869563  1.0
  Ni  Ni50  1  0.55555556  0.77710167  0.04869562  1.0
  Ni  Ni51  1  0.88888889  0.11043500  0.04869563  1.0
  Ni  Ni52  1  0.88888889  0.44376833  0.04869563  1.0
  Ni  Ni53  1  0.88888889  0.77710167  0.04869563  1.0
  Ga  Ga54  1  0.16666667  0.00000000  0.11797104  1.0
  Ga  Ga55  1  0.16666667  0.33333333  0.11797104  1.0
  Ga  Ga56  1  0.16666667  0.66666667  0.11797104  1.0
  Ga  Ga57  1  0.50000000  0.00000000  0.11797104  1.0
  Ga  Ga58  1  0.50000000  0.33333333  0.11797104  1.0
  Ga  Ga59  1  0.50000000  0.66666667  0.11797104  1.0
  Ga  Ga60  1  0.83333333  0.00000000  0.11797104  1.0
  Ga  Ga61  1  0.83333333  0.33333333  0.11797104  1.0
  Ga  Ga62  1  0.83333333  0.66666667  0.11797104  1.0
  Ga  Ga63  1  0.00000000  0.00000000  0.15963771  1.0
  Ga  Ga64  1  0.00000000  0.33333333  0.15963771  1.0
  Ga  Ga65  1  0.00000000  0.66666667  0.15963771  1.0
  Ga  Ga66  1  0.33333333  0.00000000  0.15963771  1.0
  Ga  Ga67  1  0.33333333  0.33333333  0.15963771  1.0
  Ga  Ga68  1  0.33333333  0.66666667  0.15963771  1.0
  Ga  Ga69  1  0.66666667  0.00000000  0.15963771  1.0
  Ga  Ga70  1  0.66666667  0.33333333  0.15963771  1.0
  Ga  Ga71  1  0.66666667  0.66666667  0.15963771  1.0
  Ni  Ni72  1  0.11111111  0.22289833  0.10391312  1.0
  Ni  Ni73  1  0.11111111  0.55623167  0.10391313  1.0
  Ni  Ni74  1  0.11111111  0.88956500  0.10391313  1.0
  Ni  Ni75  1  0.44444444  0.22289833  0.10391312  1.0
  Ni  Ni76  1  0.44444444  0.55623167  0.10391313  1.0
  Ni  Ni77  1  0.44444444  0.88956500  0.10391313  1.0
  Ni  Ni78  1  0.77777778  0.22289833  0.10391313  1.0
  Ni  Ni79  1  0.77777778  0.55623167  0.10391312  1.0
  Ni  Ni80  1  0.77777778  0.88956500  0.10391313  1.0
  Ni  Ni81  1  0.27777778  0.22289833  0.14557979  1.0
  Ni  Ni82  1  0.27777778  0.55623167  0.14557979  1.0
  Ni  Ni83  1  0.27777778  0.88956500  0.14557979  1.0
  Ni  Ni84  1  0.61111111  0.22289833  0.14557979  1.0
  Ni  Ni85  1  0.61111111  0.55623167  0.14557979  1.0
  Ni  Ni86  1  0.61111111  0.88956500  0.14557979  1.0
  Ni  Ni87  1  0.94444444  0.22289833  0.14557979  1.0
  Ni  Ni88  1  0.94444444  0.55623167  0.14557979  1.0
  Ni  Ni89  1  0.94444444  0.88956500  0.14557979  1.0
  Ni  Ni90  1  0.05555556  0.11043500  0.09036229  1.0
  Ni  Ni91  1  0.05555556  0.44376833  0.09036229  1.0
  Ni  Ni92  1  0.05555556  0.77710167  0.09036229  1.0
  Ni  Ni93  1  0.38888889  0.11043500  0.09036229  1.0
  Ni  Ni94  1  0.38888889  0.44376833  0.09036229  1.0
  Ni  Ni95  1  0.38888889  0.77710167  0.09036229  1.0
  Ni  Ni96  1  0.72222222  0.11043500  0.09036229  1.0
  Ni  Ni97  1  0.72222222  0.44376833  0.09036229  1.0
  Ni  Ni98  1  0.72222222  0.77710167  0.09036229  1.0
  Ni  Ni99  1  0.22222222  0.11043500  0.13202896  1.0
  Ni  Ni100  1  0.22222222  0.44376833  0.13202896  1.0
  Ni  Ni101  1  0.22222222  0.77710167  0.13202896  1.0
  Ni  Ni102  1  0.55555556  0.11043500  0.13202896  1.0
  Ni  Ni103  1  0.55555556  0.44376833  0.13202896  1.0
  Ni  Ni104  1  0.55555556  0.77710167  0.13202896  1.0
  Ni  Ni105  1  0.88888889  0.11043500  0.13202896  1.0
  Ni  Ni106  1  0.88888889  0.44376833  0.13202896  1.0
  Ni  Ni107  1  0.88888889  0.77710167  0.13202896  1.0
  Ga  Ga108  1  0.16666667  0.00000000  0.20130438  1.0
  Ga  Ga109  1  0.16666667  0.33333333  0.20130438  1.0
  Ga  Ga110  1  0.16666667  0.66666667  0.20130438  1.0
  Ga  Ga111  1  0.50000000  0.00000000  0.20130438  1.0
  Ga  Ga112  1  0.50000000  0.33333333  0.20130438  1.0
  Ga  Ga113  1  0.50000000  0.66666667  0.20130438  1.0
  Ga  Ga114  1  0.83333333  0.00000000  0.20130438  1.0
  Ga  Ga115  1  0.83333333  0.33333333  0.20130437  1.0
  Ga  Ga116  1  0.83333333  0.66666667  0.20130437  1.0
  Ga  Ga117  1  0.00000000  0.00000000  0.24297104  1.0
  Ga  Ga118  1  0.00000000  0.33333333  0.24297104  1.0
  Ga  Ga119  1  0.00000000  0.66666667  0.24297104  1.0
  Ga  Ga120  1  0.33333333  0.00000000  0.24297104  1.0
  Ga  Ga121  1  0.33333333  0.33333333  0.24297104  1.0
  Ga  Ga122  1  0.33333333  0.66666667  0.24297104  1.0
  Ga  Ga123  1  0.66666667  0.00000000  0.24297104  1.0
  Ga  Ga124  1  0.66666667  0.33333333  0.24297104  1.0
  Ga  Ga125  1  0.66666667  0.66666667  0.24297104  1.0
  Ni  Ni126  1  0.11111111  0.22289833  0.18724646  1.0
  Ni  Ni127  1  0.11111111  0.55623167  0.18724646  1.0
  Ni  Ni128  1  0.11111111  0.88956500  0.18724646  1.0
  Ni  Ni129  1  0.44444444  0.22289833  0.18724646  1.0
  Ni  Ni130  1  0.44444444  0.55623167  0.18724646  1.0
  Ni  Ni131  1  0.44444444  0.88956500  0.18724646  1.0
  Ni  Ni132  1  0.77777778  0.22289833  0.18724646  1.0
  Ni  Ni133  1  0.77777778  0.55623167  0.18724646  1.0
  Ni  Ni134  1  0.77777778  0.88956500  0.18724646  1.0
  Ni  Ni135  1  0.27777778  0.22289833  0.22891312  1.0
  Ni  Ni136  1  0.27777778  0.55623167  0.22891312  1.0
  Ni  Ni137  1  0.27777778  0.88956500  0.22891313  1.0
  Ni  Ni138  1  0.61111111  0.22289833  0.22891312  1.0
  Ni  Ni139  1  0.61111111  0.55623167  0.22891312  1.0
  Ni  Ni140  1  0.61111111  0.88956500  0.22891313  1.0
  Ni  Ni141  1  0.94444444  0.22289833  0.22891312  1.0
  Ni  Ni142  1  0.94444444  0.55623167  0.22891312  1.0
  Ni  Ni143  1  0.94444444  0.88956500  0.22891313  1.0
  Ni  Ni144  1  0.05555556  0.11043500  0.17369562  1.0
  Ni  Ni145  1  0.05555556  0.44376833  0.17369562  1.0
  Ni  Ni146  1  0.05555556  0.77710167  0.17369562  1.0
  Ni  Ni147  1  0.38888889  0.11043500  0.17369562  1.0
  Ni  Ni148  1  0.38888889  0.44376833  0.17369562  1.0
  Ni  Ni149  1  0.38888889  0.77710167  0.17369562  1.0
  Ni  Ni150  1  0.72222222  0.11043500  0.17369562  1.0
  Ni  Ni151  1  0.72222222  0.44376833  0.17369562  1.0
  Ni  Ni152  1  0.72222222  0.77710167  0.17369562  1.0
  Ni  Ni153  1  0.22222222  0.11043500  0.21536229  1.0
  Ni  Ni154  1  0.22222222  0.44376833  0.21536229  1.0
  Ni  Ni155  1  0.22222222  0.77710167  0.21536229  1.0
  Ni  Ni156  1  0.55555556  0.11043500  0.21536229  1.0
  Ni  Ni157  1  0.55555556  0.44376833  0.21536229  1.0
  Ni  Ni158  1  0.55555556  0.77710167  0.21536229  1.0
  Ni  Ni159  1  0.88888889  0.11043500  0.21536229  1.0
  Ni  Ni160  1  0.88888889  0.44376833  0.21536229  1.0
  Ni  Ni161  1  0.88888889  0.77710167  0.21536229  1.0
  Ga  Ga162  1  0.16666667  0.00000000  0.28463771  1.0
  Ga  Ga163  1  0.16666667  0.33333333  0.28463771  1.0
  Ga  Ga164  1  0.16666667  0.66666667  0.28463771  1.0
  Ga  Ga165  1  0.50000000  0.00000000  0.28463771  1.0
  Ga  Ga166  1  0.50000000  0.33333333  0.28463771  1.0
  Ga  Ga167  1  0.50000000  0.66666667  0.28463771  1.0
  Ga  Ga168  1  0.83333333  0.00000000  0.28463771  1.0
  Ga  Ga169  1  0.83333333  0.33333333  0.28463771  1.0
  Ga  Ga170  1  0.83333333  0.66666667  0.28463771  1.0
  Ga  Ga171  1  0.00000000  0.00000000  0.32630437  1.0
  Ga  Ga172  1  0.00000000  0.33333333  0.32630437  1.0
  Ga  Ga173  1  0.00000000  0.66666667  0.32630437  1.0
  Ga  Ga174  1  0.33333333  0.00000000  0.32630437  1.0
  Ga  Ga175  1  0.33333333  0.33333333  0.32630437  1.0
  Ga  Ga176  1  0.33333333  0.66666667  0.32630437  1.0
  Ga  Ga177  1  0.66666667  0.00000000  0.32630437  1.0
  Ga  Ga178  1  0.66666667  0.33333333  0.32630437  1.0
  Ga  Ga179  1  0.66666667  0.66666667  0.32630437  1.0
  Ni  Ni180  1  0.11111111  0.22289833  0.27057979  1.0
  Ni  Ni181  1  0.11111111  0.55623167  0.27057979  1.0
  Ni  Ni182  1  0.11111111  0.88956500  0.27057979  1.0
  Ni  Ni183  1  0.44444444  0.22289833  0.27057979  1.0
  Ni  Ni184  1  0.44444444  0.55623167  0.27057979  1.0
  Ni  Ni185  1  0.44444444  0.88956500  0.27057979  1.0
  Ni  Ni186  1  0.77777778  0.22289833  0.27057979  1.0
  Ni  Ni187  1  0.77777778  0.55623167  0.27057979  1.0
  Ni  Ni188  1  0.77777778  0.88956500  0.27057979  1.0
  Ni  Ni189  1  0.27777778  0.22289833  0.31224646  1.0
  Ni  Ni190  1  0.27777778  0.55623167  0.31224646  1.0
  Ni  Ni191  1  0.27777778  0.88956500  0.31224646  1.0
  Ni  Ni192  1  0.61111111  0.22289833  0.31224646  1.0
  Ni  Ni193  1  0.61111111  0.55623167  0.31224646  1.0
  Ni  Ni194  1  0.61111111  0.88956500  0.31224646  1.0
  Ni  Ni195  1  0.94444444  0.22289833  0.31224646  1.0
  Ni  Ni196  1  0.94444444  0.55623167  0.31224646  1.0
  Ni  Ni197  1  0.94444444  0.88956500  0.31224646  1.0
  Ni  Ni198  1  0.05555556  0.11043500  0.25702896  1.0
  Ni  Ni199  1  0.05555556  0.44376833  0.25702896  1.0
  Ni  Ni200  1  0.05555556  0.77710167  0.25702896  1.0
  Ni  Ni201  1  0.38888889  0.11043500  0.25702896  1.0
  Ni  Ni202  1  0.38888889  0.44376833  0.25702896  1.0
  Ni  Ni203  1  0.38888889  0.77710167  0.25702896  1.0
  Ni  Ni204  1  0.72222222  0.11043500  0.25702896  1.0
  Ni  Ni205  1  0.72222222  0.44376833  0.25702896  1.0
  Ni  Ni206  1  0.72222222  0.77710167  0.25702896  1.0
  Ni  Ni207  1  0.22222222  0.11043500  0.29869563  1.0
  Ni  Ni208  1  0.22222222  0.44376833  0.29869563  1.0
  Ni  Ni209  1  0.22222222  0.77710167  0.29869563  1.0
  Ni  Ni210  1  0.55555556  0.11043500  0.29869563  1.0
  Ni  Ni211  1  0.55555556  0.44376833  0.29869563  1.0
  Ni  Ni212  1  0.55555556  0.77710167  0.29869563  1.0
  Ni  Ni213  1  0.88888889  0.11043500  0.29869563  1.0
  Ni  Ni214  1  0.88888889  0.44376833  0.29869563  1.0
  Ni  Ni215  1  0.88888889  0.77710167  0.29869563  1.0
  Ga  Ga216  1  0.16666667  0.00000000  0.36797104  1.0
  Ga  Ga217  1  0.16666667  0.33333333  0.36797104  1.0
  Ga  Ga218  1  0.16666667  0.66666667  0.36797104  1.0
  Ga  Ga219  1  0.50000000  0.00000000  0.36797104  1.0
  Ga  Ga220  1  0.50000000  0.33333333  0.36797104  1.0
  Ga  Ga221  1  0.50000000  0.66666667  0.36797104  1.0
  Ga  Ga222  1  0.83333333  0.00000000  0.36797104  1.0
  Ga  Ga223  1  0.83333333  0.33333333  0.36797104  1.0
  Ga  Ga224  1  0.83333333  0.66666667  0.36797104  1.0
  Ga  Ga225  1  0.00000000  0.00000000  0.40963771  1.0
  Ga  Ga226  1  0.00000000  0.33333333  0.40963771  1.0
  Ga  Ga227  1  0.00000000  0.66666667  0.40963771  1.0
  Ga  Ga228  1  0.33333333  0.00000000  0.40963771  1.0
  Ga  Ga229  1  0.33333333  0.33333333  0.40963771  1.0
  Ga  Ga230  1  0.33333333  0.66666667  0.40963771  1.0
  Ga  Ga231  1  0.66666667  0.00000000  0.40963771  1.0
  Ga  Ga232  1  0.66666667  0.33333333  0.40963771  1.0
  Ga  Ga233  1  0.66666667  0.66666667  0.40963771  1.0
  Ni  Ni234  1  0.11111111  0.22289833  0.35391312  1.0
  Ni  Ni235  1  0.11111111  0.55623167  0.35391313  1.0
  Ni  Ni236  1  0.11111111  0.88956500  0.35391313  1.0
  Ni  Ni237  1  0.44444444  0.22289833  0.35391312  1.0
  Ni  Ni238  1  0.44444444  0.55623167  0.35391313  1.0
  Ni  Ni239  1  0.44444444  0.88956500  0.35391313  1.0
  Ni  Ni240  1  0.77777778  0.22289833  0.35391312  1.0
  Ni  Ni241  1  0.77777778  0.55623167  0.35391312  1.0
  Ni  Ni242  1  0.77777778  0.88956500  0.35391312  1.0
  Ni  Ni243  1  0.27777778  0.22289833  0.39557979  1.0
  Ni  Ni244  1  0.27777778  0.55623167  0.39557979  1.0
  Ni  Ni245  1  0.27777778  0.88956500  0.39557979  1.0
  Ni  Ni246  1  0.61111111  0.22289833  0.39557979  1.0
  Ni  Ni247  1  0.61111111  0.55623167  0.39557979  1.0
  Ni  Ni248  1  0.61111111  0.88956500  0.39557979  1.0
  Ni  Ni249  1  0.94444444  0.22289833  0.39557979  1.0
  Ni  Ni250  1  0.94444444  0.55623167  0.39557979  1.0
  Ni  Ni251  1  0.94444444  0.88956500  0.39557979  1.0
  Ni  Ni252  1  0.05555556  0.11043500  0.34036229  1.0
  Ni  Ni253  1  0.05555556  0.44376833  0.34036229  1.0
  Ni  Ni254  1  0.05555556  0.77710167  0.34036229  1.0
  Ni  Ni255  1  0.38888889  0.11043500  0.34036229  1.0
  Ni  Ni256  1  0.38888889  0.44376833  0.34036229  1.0
  Ni  Ni257  1  0.38888889  0.77710167  0.34036229  1.0
  Ni  Ni258  1  0.72222222  0.11043500  0.34036229  1.0
  Ni  Ni259  1  0.72222222  0.44376833  0.34036229  1.0
  Ni  Ni260  1  0.72222222  0.77710167  0.34036229  1.0
  Ni  Ni261  1  0.22222222  0.11043500  0.38202896  1.0
  Ni  Ni262  1  0.22222222  0.44376833  0.38202896  1.0
  Ni  Ni263  1  0.22222222  0.77710167  0.38202896  1.0
  Ni  Ni264  1  0.55555556  0.11043500  0.38202896  1.0
  Ni  Ni265  1  0.55555556  0.44376833  0.38202896  1.0
  Ni  Ni266  1  0.55555556  0.77710167  0.38202896  1.0
  Ni  Ni267  1  0.88888889  0.11043500  0.38202896  1.0
  Ni  Ni268  1  0.88888889  0.44376833  0.38202896  1.0
  Ni  Ni269  1  0.88888889  0.77710167  0.38202896  1.0
