# generated using pymatgen
data_GaNi2
_symmetry_space_group_name_H-M   'P 1'
_cell_length_a   12.13868238
_cell_length_b   15.07266300
_cell_length_c   32.36981968
_cell_angle_alpha   90.00000000
_cell_angle_beta   120.00000000
_cell_angle_gamma   90.00000000
_symmetry_Int_Tables_number   1
_chemical_formula_structural   GaNi2
_chemical_formula_sum   'Ga54 Ni108'
_cell_volume   5128.99704446
_cell_formula_units_Z   54
loop_
 _symmetry_equiv_pos_site_id
 _symmetry_equiv_pos_as_xyz
  1  'x, y, z'
loop_
 _atom_site_type_symbol
 _atom_site_label
 _atom_site_symmetry_multiplicity
 _atom_site_fract_x
 _atom_site_fract_y
 _atom_site_fract_z
 _atom_site_occupancy
  Ga  Ga0  1  0.11111111  0.25000000  0.06250000  1.0
  Ga  Ga1  1  0.11111111  0.58333333  0.06250000  1.0
  Ga  Ga2  1  0.11111111  0.91666667  0.06250000  1.0
  Ga  Ga3  1  0.44444444  0.25000000  0.06250000  1.0
  Ga  Ga4  1  0.44444444  0.58333333  0.06250000  1.0
  Ga  Ga5  1  0.44444444  0.91666667  0.06250000  1.0
  Ga  Ga6  1  0.77777778  0.25000000  0.06250000  1.0
  Ga  Ga7  1  0.77777778  0.58333333  0.06250000  1.0
  Ga  Ga8  1  0.77777778  0.91666667  0.06250000  1.0
  Ga  Ga9  1  0.22222222  0.08333333  0.02083333  1.0
  Ga  Ga10  1  0.22222222  0.41666667  0.02083333  1.0
  Ga  Ga11  1  0.22222222  0.75000000  0.02083333  1.0
  Ga  Ga12  1  0.55555556  0.08333333  0.02083333  1.0
  Ga  Ga13  1  0.55555556  0.41666667  0.02083333  1.0
  Ga  Ga14  1  0.55555556  0.75000000  0.02083333  1.0
  Ga  Ga15  1  0.88888889  0.08333333  0.02083333  1.0
  Ga  Ga16  1  0.88888889  0.41666667  0.02083333  1.0
  Ga  Ga17  1  0.88888889  0.75000000  0.02083333  1.0
  Ni  Ni18  1  0.00000000  0.16666667  0.10416667  1.0
  Ni  Ni19  1  0.00000000  0.50000000  0.10416667  1.0
  Ni  Ni20  1  0.00000000  0.83333333  0.10416667  1.0
  Ni  Ni21  1  0.33333333  0.16666667  0.10416667  1.0
  Ni  Ni22  1  0.33333333  0.50000000  0.10416667  1.0
  Ni  Ni23  1  0.33333333  0.83333333  0.10416667  1.0
  Ni  Ni24  1  0.66666667  0.16666667  0.10416667  1.0
  Ni  Ni25  1  0.66666667  0.50000000  0.10416667  1.0
  Ni  Ni26  1  0.66666667  0.83333333  0.10416667  1.0
  Ni  Ni27  1  0.22222222  0.25000000  0.02083333  1.0
  Ni  Ni28  1  0.22222222  0.58333333  0.02083333  1.0
  Ni  Ni29  1  0.22222222  0.91666667  0.02083333  1.0
  Ni  Ni30  1  0.55555556  0.25000000  0.02083333  1.0
  Ni  Ni31  1  0.55555556  0.58333333  0.02083333  1.0
  Ni  Ni32  1  0.55555556  0.91666667  0.02083333  1.0
  Ni  Ni33  1  0.88888889  0.25000000  0.02083333  1.0
  Ni  Ni34  1  0.88888889  0.58333333  0.02083333  1.0
  Ni  Ni35  1  0.88888889  0.91666667  0.02083333  1.0
  Ni  Ni36  1  0.11111111  0.08333333  0.06250000  1.0
  Ni  Ni37  1  0.11111111  0.41666667  0.06250000  1.0
  Ni  Ni38  1  0.11111111  0.75000000  0.06250000  1.0
  Ni  Ni39  1  0.44444444  0.08333333  0.06250000  1.0
  Ni  Ni40  1  0.44444444  0.41666667  0.06250000  1.0
  Ni  Ni41  1  0.44444444  0.75000000  0.06250000  1.0
  Ni  Ni42  1  0.77777778  0.08333333  0.06250000  1.0
  Ni  Ni43  1  0.77777778  0.41666667  0.06250000  1.0
  Ni  Ni44  1  0.77777778  0.75000000  0.06250000  1.0
  Ni  Ni45  1  0.00000000  0.00000000  0.10416667  1.0
  Ni  Ni46  1  0.00000000  0.33333333  0.10416667  1.0
  Ni  Ni47  1  0.00000000  0.66666667  0.10416667  1.0
  Ni  Ni48  1  0.33333333  0.00000000  0.10416667  1.0
  Ni  Ni49  1  0.33333333  0.33333333  0.10416667  1.0
  Ni  Ni50  1  0.33333333  0.66666667  0.10416667  1.0
  Ni  Ni51  1  0.66666667  0.00000000  0.10416667  1.0
  Ni  Ni52  1  0.66666667  0.33333333  0.10416667  1.0
  Ni  Ni53  1  0.66666667  0.66666667  0.10416667  1.0
  Ga  Ga54  1  0.11111111  0.25000000  0.18750000  1.0
  Ga  Ga55  1  0.11111111  0.58333333  0.18750000  1.0
  Ga  Ga56  1  0.11111111  0.91666667  0.18750000  1.0
  Ga  Ga57  1  0.44444444  0.25000000  0.18750000  1.0
  Ga  Ga58  1  0.44444444  0.58333333  0.18750000  1.0
  Ga  Ga59  1  0.44444444  0.91666667  0.18750000  1.0
  Ga  Ga60  1  0.77777778  0.25000000  0.18750000  1.0
  Ga  Ga61  1  0.77777778  0.58333333  0.18750000  1.0
  Ga  Ga62  1  0.77777778  0.91666667  0.18750000  1.0
  Ga  Ga63  1  0.22222222  0.08333333  0.14583333  1.0
  Ga  Ga64  1  0.22222222  0.41666667  0.14583333  1.0
  Ga  Ga65  1  0.22222222  0.75000000  0.14583333  1.0
  Ga  Ga66  1  0.55555556  0.08333333  0.14583333  1.0
  Ga  Ga67  1  0.55555556  0.41666667  0.14583333  1.0
  Ga  Ga68  1  0.55555556  0.75000000  0.14583333  1.0
  Ga  Ga69  1  0.88888889  0.08333333  0.14583333  1.0
  Ga  Ga70  1  0.88888889  0.41666667  0.14583333  1.0
  Ga  Ga71  1  0.88888889  0.75000000  0.14583333  1.0
  Ni  Ni72  1  0.00000000  0.16666667  0.22916667  1.0
  Ni  Ni73  1  0.00000000  0.50000000  0.22916667  1.0
  Ni  Ni74  1  0.00000000  0.83333333  0.22916667  1.0
  Ni  Ni75  1  0.33333333  0.16666667  0.22916667  1.0
  Ni  Ni76  1  0.33333333  0.50000000  0.22916667  1.0
  Ni  Ni77  1  0.33333333  0.83333333  0.22916667  1.0
  Ni  Ni78  1  0.66666667  0.16666667  0.22916667  1.0
  Ni  Ni79  1  0.66666667  0.50000000  0.22916667  1.0
  Ni  Ni80  1  0.66666667  0.83333333  0.22916667  1.0
  Ni  Ni81  1  0.22222222  0.25000000  0.14583333  1.0
  Ni  Ni82  1  0.22222222  0.58333333  0.14583333  1.0
  Ni  Ni83  1  0.22222222  0.91666667  0.14583333  1.0
  Ni  Ni84  1  0.55555556  0.25000000  0.14583333  1.0
  Ni  Ni85  1  0.55555556  0.58333333  0.14583333  1.0
  Ni  Ni86  1  0.55555556  0.91666667  0.14583333  1.0
  Ni  Ni87  1  0.88888889  0.25000000  0.14583333  1.0
  Ni  Ni88  1  0.88888889  0.58333333  0.14583333  1.0
  Ni  Ni89  1  0.88888889  0.91666667  0.14583333  1.0
  Ni  Ni90  1  0.11111111  0.08333333  0.18750000  1.0
  Ni  Ni91  1  0.11111111  0.41666667  0.18750000  1.0
  Ni  Ni92  1  0.11111111  0.75000000  0.18750000  1.0
  Ni  Ni93  1  0.44444444  0.08333333  0.18750000  1.0
  Ni  Ni94  1  0.44444444  0.41666667  0.18750000  1.0
  Ni  Ni95  1  0.44444444  0.75000000  0.18750000  1.0
  Ni  Ni96  1  0.77777778  0.08333333  0.18750000  1.0
  Ni  Ni97  1  0.77777778  0.41666667  0.18750000  1.0
  Ni  Ni98  1  0.77777778  0.75000000  0.18750000  1.0
  Ni  Ni99  1  0.00000000  0.00000000  0.22916667  1.0
  Ni  Ni100  1  0.00000000  0.33333333  0.22916667  1.0
  Ni  Ni101  1  0.00000000  0.66666667  0.22916667  1.0
  Ni  Ni102  1  0.33333333  0.00000000  0.22916667  1.0
  Ni  Ni103  1  0.33333333  0.33333333  0.22916667  1.0
  Ni  Ni104  1  0.33333333  0.66666667  0.22916667  1.0
  Ni  Ni105  1  0.66666667  0.00000000  0.22916667  1.0
  Ni  Ni106  1  0.66666667  0.33333333  0.22916667  1.0
  Ni  Ni107  1  0.66666667  0.66666667  0.22916667  1.0
  Ga  Ga108  1  0.11111111  0.25000000  0.31250000  1.0
  Ga  Ga109  1  0.11111111  0.58333333  0.31250000  1.0
  Ga  Ga110  1  0.11111111  0.91666667  0.31250000  1.0
  Ga  Ga111  1  0.44444444  0.25000000  0.31250000  1.0
  Ga  Ga112  1  0.44444444  0.58333333  0.31250000  1.0
  Ga  Ga113  1  0.44444444  0.91666667  0.31250000  1.0
  Ga  Ga114  1  0.77777778  0.25000000  0.31250000  1.0
  Ga  Ga115  1  0.77777778  0.58333333  0.31250000  1.0
  Ga  Ga116  1  0.77777778  0.91666667  0.31250000  1.0
  Ga  Ga117  1  0.22222222  0.08333333  0.27083333  1.0
  Ga  Ga118  1  0.22222222  0.41666667  0.27083333  1.0
  Ga  Ga119  1  0.22222222  0.75000000  0.27083333  1.0
  Ga  Ga120  1  0.55555556  0.08333333  0.27083333  1.0
  Ga  Ga121  1  0.55555556  0.41666667  0.27083333  1.0
  Ga  Ga122  1  0.55555556  0.75000000  0.27083333  1.0
  Ga  Ga123  1  0.88888889  0.08333333  0.27083333  1.0
  Ga  Ga124  1  0.88888889  0.41666667  0.27083333  1.0
  Ga  Ga125  1  0.88888889  0.75000000  0.27083333  1.0
  Ni  Ni126  1  0.00000000  0.16666667  0.35416667  1.0
  Ni  Ni127  1  0.00000000  0.50000000  0.35416667  1.0
  Ni  Ni128  1  0.00000000  0.83333333  0.35416667  1.0
  Ni  Ni129  1  0.33333333  0.16666667  0.35416667  1.0
  Ni  Ni130  1  0.33333333  0.50000000  0.35416667  1.0
  Ni  Ni131  1  0.33333333  0.83333333  0.35416667  1.0
  Ni  Ni132  1  0.66666667  0.16666667  0.35416667  1.0
  Ni  Ni133  1  0.66666667  0.50000000  0.35416667  1.0
  Ni  Ni134  1  0.66666667  0.83333333  0.35416667  1.0
  Ni  Ni135  1  0.22222222  0.25000000  0.27083333  1.0
  Ni  Ni136  1  0.22222222  0.58333333  0.27083333  1.0
  Ni  Ni137  1  0.22222222  0.91666667  0.27083333  1.0
  Ni  Ni138  1  0.55555556  0.25000000  0.27083333  1.0
  Ni  Ni139  1  0.55555556  0.58333333  0.27083333  1.0
  Ni  Ni140  1  0.55555556  0.91666667  0.27083333  1.0
  Ni  Ni141  1  0.88888889  0.25000000  0.27083333  1.0
  Ni  Ni142  1  0.88888889  0.58333333  0.27083333  1.0
  Ni  Ni143  1  0.88888889  0.91666667  0.27083333  1.0
  Ni  Ni144  1  0.11111111  0.08333333  0.31250000  1.0
  Ni  Ni145  1  0.11111111  0.41666667  0.31250000  1.0
  Ni  Ni146  1  0.11111111  0.75000000  0.31250000  1.0
  Ni  Ni147  1  0.44444444  0.08333333  0.31250000  1.0
  Ni  Ni148  1  0.44444444  0.41666667  0.31250000  1.0
  Ni  Ni149  1  0.44444444  0.75000000  0.31250000  1.0
  Ni  Ni150  1  0.77777778  0.08333333  0.31250000  1.0
  Ni  Ni151  1  0.77777778  0.41666667  0.31250000  1.0
  Ni  Ni152  1  0.77777778  0.75000000  0.31250000  1.0
  Ni  Ni153  1  0.00000000  0.00000000  0.35416667  1.0
  Ni  Ni154  1  0.00000000  0.33333333  0.35416667  1.0
  Ni  Ni155  1  0.00000000  0.66666667  0.35416667  1.0
  Ni  Ni156  1  0.33333333  0.00000000  0.35416667  1.0
  Ni  Ni157  1  0.33333333  0.33333333  0.35416667  1.0
  Ni  Ni158  1  0.33333333  0.66666667  0.35416667  1.0
  Ni  Ni159  1  0.66666667  0.00000000  0.35416667  1.0
  Ni  Ni160  1  0.66666667  0.33333333  0.35416667  1.0
  Ni  Ni161  1  0.66666667  0.66666667  0.35416667  1.0
