# generated using pymatgen
data_GaNi2
_symmetry_space_group_name_H-M   'P 1'
_cell_length_a   8.11632729
_cell_length_b   8.11632729
_cell_length_c   29.19802500
_cell_angle_alpha   90.00000000
_cell_angle_beta   90.00000000
_cell_angle_gamma   120.00000000
_symmetry_Int_Tables_number   1
_chemical_formula_structural   GaNi2
_chemical_formula_sum   'Ga18 Ni36'
_cell_volume   1665.72464359
_cell_formula_units_Z   18
loop_
 _symmetry_equiv_pos_site_id
 _symmetry_equiv_pos_as_xyz
  1  'x, y, z'
loop_
 _atom_site_type_symbol
 _atom_site_label
 _atom_site_symmetry_multiplicity
 _atom_site_fract_x
 _atom_site_fract_y
 _atom_site_fract_z
 _atom_site_occupancy
  Ga  Ga0  1  0.00000000  0.00000000  0.16686950  1.0
  Ga  Ga1  1  0.00000000  0.33333333  0.16686950  1.0
  Ga  Ga2  1  0.00000000  0.66666667  0.16686950  1.0
  Ga  Ga3  1  0.33333333  0.00000000  0.16686950  1.0
  Ga  Ga4  1  0.33333333  0.33333333  0.16686950  1.0
  Ga  Ga5  1  0.33333333  0.66666667  0.16686950  1.0
  Ga  Ga6  1  0.66666667  0.00000000  0.16686950  1.0
  Ga  Ga7  1  0.66666667  0.33333333  0.16686950  1.0
  Ga  Ga8  1  0.66666667  0.66666667  0.16686950  1.0
  Ni  Ni9  1  0.22222222  0.11111111  0.10060850  1.0
  Ni  Ni10  1  0.22222222  0.44444444  0.10060850  1.0
  Ni  Ni11  1  0.22222222  0.77777778  0.10060850  1.0
  Ni  Ni12  1  0.55555556  0.11111111  0.10060850  1.0
  Ni  Ni13  1  0.55555556  0.44444444  0.10060850  1.0
  Ni  Ni14  1  0.55555556  0.77777778  0.10060850  1.0
  Ni  Ni15  1  0.88888889  0.11111111  0.10060850  1.0
  Ni  Ni16  1  0.88888889  0.44444444  0.10060850  1.0
  Ni  Ni17  1  0.88888889  0.77777778  0.10060850  1.0
  Ni  Ni18  1  0.11111111  0.22222222  0.03313050  1.0
  Ni  Ni19  1  0.11111111  0.55555556  0.03313050  1.0
  Ni  Ni20  1  0.11111111  0.88888889  0.03313050  1.0
  Ni  Ni21  1  0.44444444  0.22222222  0.03313050  1.0
  Ni  Ni22  1  0.44444444  0.55555556  0.03313050  1.0
  Ni  Ni23  1  0.44444444  0.88888889  0.03313050  1.0
  Ni  Ni24  1  0.77777778  0.22222222  0.03313050  1.0
  Ni  Ni25  1  0.77777778  0.55555556  0.03313050  1.0
  Ni  Ni26  1  0.77777778  0.88888889  0.03313050  1.0
  Ga  Ga27  1  0.00000000  0.00000000  0.36686950  1.0
  Ga  Ga28  1  0.00000000  0.33333333  0.36686950  1.0
  Ga  Ga29  1  0.00000000  0.66666667  0.36686950  1.0
  Ga  Ga30  1  0.33333333  0.00000000  0.36686950  1.0
  Ga  Ga31  1  0.33333333  0.33333333  0.36686950  1.0
  Ga  Ga32  1  0.33333333  0.66666667  0.36686950  1.0
  Ga  Ga33  1  0.66666667  0.00000000  0.36686950  1.0
  Ga  Ga34  1  0.66666667  0.33333333  0.36686950  1.0
  Ga  Ga35  1  0.66666667  0.66666667  0.36686950  1.0
  Ni  Ni36  1  0.22222222  0.11111111  0.30060850  1.0
  Ni  Ni37  1  0.22222222  0.44444444  0.30060850  1.0
  Ni  Ni38  1  0.22222222  0.77777778  0.30060850  1.0
  Ni  Ni39  1  0.55555556  0.11111111  0.30060850  1.0
  Ni  Ni40  1  0.55555556  0.44444444  0.30060850  1.0
  Ni  Ni41  1  0.55555556  0.77777778  0.30060850  1.0
  Ni  Ni42  1  0.88888889  0.11111111  0.30060850  1.0
  Ni  Ni43  1  0.88888889  0.44444444  0.30060850  1.0
  Ni  Ni44  1  0.88888889  0.77777778  0.30060850  1.0
  Ni  Ni45  1  0.11111111  0.22222222  0.23313050  1.0
  Ni  Ni46  1  0.11111111  0.55555556  0.23313050  1.0
  Ni  Ni47  1  0.11111111  0.88888889  0.23313050  1.0
  Ni  Ni48  1  0.44444444  0.22222222  0.23313050  1.0
  Ni  Ni49  1  0.44444444  0.55555556  0.23313050  1.0
  Ni  Ni50  1  0.44444444  0.88888889  0.23313050  1.0
  Ni  Ni51  1  0.77777778  0.22222222  0.23313050  1.0
  Ni  Ni52  1  0.77777778  0.55555556  0.23313050  1.0
  Ni  Ni53  1  0.77777778  0.88888889  0.23313050  1.0
