# generated using pymatgen
data_Hf2Ni
_symmetry_space_group_name_H-M   'P 1'
_cell_length_a   19.22699399
_cell_length_b   31.39701918
_cell_length_c   26.93125836
_cell_angle_alpha   91.38425283
_cell_angle_beta   90.00000001
_cell_angle_gamma   107.82985525
_symmetry_Int_Tables_number   1
_chemical_formula_structural   Hf2Ni
_chemical_formula_sum   'Hf216 Ni108'
_cell_volume   15471.76384993
_cell_formula_units_Z   108
loop_
 _symmetry_equiv_pos_site_id
 _symmetry_equiv_pos_as_xyz
  1  'x, y, z'
loop_
 _atom_site_type_symbol
 _atom_site_label
 _atom_site_symmetry_multiplicity
 _atom_site_fract_x
 _atom_site_fract_y
 _atom_site_fract_z
 _atom_site_occupancy
  Hf  Hf0  1  0.00935062  0.24254792  0.07276437  1.0
  Hf  Hf1  1  0.00935062  0.57588125  0.07276437  1.0
  Hf  Hf2  1  0.00935062  0.90921458  0.07276437  1.0
  Hf  Hf3  1  0.34268396  0.24254792  0.07276437  1.0
  Hf  Hf4  1  0.34268396  0.57588125  0.07276437  1.0
  Hf  Hf5  1  0.34268396  0.90921458  0.07276437  1.0
  Hf  Hf6  1  0.67601729  0.24254792  0.07276437  1.0
  Hf  Hf7  1  0.67601729  0.57588125  0.07276437  1.0
  Hf  Hf8  1  0.67601729  0.90921458  0.07276437  1.0
  Hf  Hf9  1  0.23851729  0.03421458  0.01026438  1.0
  Hf  Hf10  1  0.23851729  0.36754792  0.01026438  1.0
  Hf  Hf11  1  0.23851729  0.70088125  0.01026437  1.0
  Hf  Hf12  1  0.57185062  0.03421458  0.01026438  1.0
  Hf  Hf13  1  0.57185062  0.36754792  0.01026438  1.0
  Hf  Hf14  1  0.57185062  0.70088125  0.01026437  1.0
  Hf  Hf15  1  0.90518396  0.03421458  0.01026438  1.0
  Hf  Hf16  1  0.90518396  0.36754792  0.01026438  1.0
  Hf  Hf17  1  0.90518396  0.70088125  0.01026437  1.0
  Hf  Hf18  1  0.11861396  0.01338125  0.10401437  1.0
  Hf  Hf19  1  0.11861396  0.34671458  0.10401437  1.0
  Hf  Hf20  1  0.11861396  0.68004792  0.10401437  1.0
  Hf  Hf21  1  0.45194729  0.01338125  0.10401437  1.0
  Hf  Hf22  1  0.45194729  0.34671458  0.10401437  1.0
  Hf  Hf23  1  0.45194729  0.68004792  0.10401437  1.0
  Hf  Hf24  1  0.78528063  0.01338125  0.10401437  1.0
  Hf  Hf25  1  0.78528063  0.34671458  0.10401437  1.0
  Hf  Hf26  1  0.78528062  0.68004792  0.10401437  1.0
  Hf  Hf27  1  0.01444729  0.13838125  0.04151437  1.0
  Hf  Hf28  1  0.01444729  0.47171458  0.04151437  1.0
  Hf  Hf29  1  0.01444729  0.80504792  0.04151437  1.0
  Hf  Hf30  1  0.34778062  0.13838125  0.04151437  1.0
  Hf  Hf31  1  0.34778063  0.47171458  0.04151437  1.0
  Hf  Hf32  1  0.34778063  0.80504792  0.04151437  1.0
  Hf  Hf33  1  0.68111396  0.13838125  0.04151437  1.0
  Hf  Hf34  1  0.68111396  0.47171458  0.04151437  1.0
  Hf  Hf35  1  0.68111396  0.80504792  0.04151437  1.0
  Hf  Hf36  1  0.19898271  0.17411875  0.05223562  1.0
  Hf  Hf37  1  0.19898271  0.50745208  0.05223562  1.0
  Hf  Hf38  1  0.19898271  0.84078542  0.05223562  1.0
  Hf  Hf39  1  0.53231604  0.17411875  0.05223562  1.0
  Hf  Hf40  1  0.53231604  0.50745208  0.05223562  1.0
  Hf  Hf41  1  0.53231604  0.84078542  0.05223562  1.0
  Hf  Hf42  1  0.86564938  0.17411875  0.05223562  1.0
  Hf  Hf43  1  0.86564937  0.50745208  0.05223562  1.0
  Hf  Hf44  1  0.86564938  0.84078542  0.05223562  1.0
  Hf  Hf45  1  0.30314938  0.04911875  0.11473562  1.0
  Hf  Hf46  1  0.30314938  0.38245208  0.11473562  1.0
  Hf  Hf47  1  0.30314938  0.71578542  0.11473562  1.0
  Hf  Hf48  1  0.63648271  0.04911875  0.11473562  1.0
  Hf  Hf49  1  0.63648271  0.38245208  0.11473562  1.0
  Hf  Hf50  1  0.63648271  0.71578542  0.11473562  1.0
  Hf  Hf51  1  0.96981604  0.04911875  0.11473562  1.0
  Hf  Hf52  1  0.96981604  0.38245208  0.11473562  1.0
  Hf  Hf53  1  0.96981604  0.71578542  0.11473562  1.0
  Hf  Hf54  1  0.08971938  0.06995208  0.02098562  1.0
  Hf  Hf55  1  0.08971938  0.40328542  0.02098562  1.0
  Hf  Hf56  1  0.08971938  0.73661875  0.02098562  1.0
  Hf  Hf57  1  0.42305271  0.06995208  0.02098562  1.0
  Hf  Hf58  1  0.42305271  0.40328542  0.02098562  1.0
  Hf  Hf59  1  0.42305271  0.73661875  0.02098562  1.0
  Hf  Hf60  1  0.75638604  0.06995208  0.02098562  1.0
  Hf  Hf61  1  0.75638604  0.40328542  0.02098562  1.0
  Hf  Hf62  1  0.75638604  0.73661875  0.02098562  1.0
  Hf  Hf63  1  0.19388604  0.27828542  0.08348562  1.0
  Hf  Hf64  1  0.19388604  0.61161875  0.08348562  1.0
  Hf  Hf65  1  0.19388604  0.94495208  0.08348562  1.0
  Hf  Hf66  1  0.52721938  0.27828542  0.08348562  1.0
  Hf  Hf67  1  0.52721938  0.61161875  0.08348562  1.0
  Hf  Hf68  1  0.52721938  0.94495208  0.08348562  1.0
  Hf  Hf69  1  0.86055271  0.27828542  0.08348562  1.0
  Hf  Hf70  1  0.86055271  0.61161875  0.08348562  1.0
  Hf  Hf71  1  0.86055271  0.94495208  0.08348562  1.0
  Hf  Hf72  1  0.21768396  0.32588125  0.19776437  1.0
  Hf  Hf73  1  0.21768396  0.65921458  0.19776437  1.0
  Hf  Hf74  1  0.21768396  0.99254792  0.19776437  1.0
  Hf  Hf75  1  0.55101729  0.32588125  0.19776437  1.0
  Hf  Hf76  1  0.55101729  0.65921458  0.19776437  1.0
  Hf  Hf77  1  0.55101729  0.99254792  0.19776437  1.0
  Hf  Hf78  1  0.88435063  0.32588125  0.19776437  1.0
  Hf  Hf79  1  0.88435063  0.65921458  0.19776437  1.0
  Hf  Hf80  1  0.88435062  0.99254792  0.19776437  1.0
  Hf  Hf81  1  0.11351729  0.11754792  0.13526437  1.0
  Hf  Hf82  1  0.11351729  0.45088125  0.13526437  1.0
  Hf  Hf83  1  0.11351729  0.78421458  0.13526437  1.0
  Hf  Hf84  1  0.44685062  0.11754792  0.13526437  1.0
  Hf  Hf85  1  0.44685062  0.45088125  0.13526437  1.0
  Hf  Hf86  1  0.44685062  0.78421458  0.13526437  1.0
  Hf  Hf87  1  0.78018396  0.11754792  0.13526437  1.0
  Hf  Hf88  1  0.78018396  0.45088125  0.13526437  1.0
  Hf  Hf89  1  0.78018396  0.78421458  0.13526437  1.0
  Hf  Hf90  1  0.32694729  0.09671458  0.22901437  1.0
  Hf  Hf91  1  0.32694729  0.43004792  0.22901437  1.0
  Hf  Hf92  1  0.32694729  0.76338125  0.22901437  1.0
  Hf  Hf93  1  0.66028063  0.09671458  0.22901437  1.0
  Hf  Hf94  1  0.66028063  0.43004792  0.22901437  1.0
  Hf  Hf95  1  0.66028063  0.76338125  0.22901437  1.0
  Hf  Hf96  1  0.99361396  0.09671458  0.22901437  1.0
  Hf  Hf97  1  0.99361396  0.43004792  0.22901437  1.0
  Hf  Hf98  1  0.99361396  0.76338125  0.22901437  1.0
  Hf  Hf99  1  0.22278063  0.22171458  0.16651437  1.0
  Hf  Hf100  1  0.22278063  0.55504792  0.16651437  1.0
  Hf  Hf101  1  0.22278063  0.88838125  0.16651437  1.0
  Hf  Hf102  1  0.55611396  0.22171458  0.16651437  1.0
  Hf  Hf103  1  0.55611396  0.55504792  0.16651437  1.0
  Hf  Hf104  1  0.55611396  0.88838125  0.16651437  1.0
  Hf  Hf105  1  0.88944729  0.22171458  0.16651437  1.0
  Hf  Hf106  1  0.88944729  0.55504792  0.16651437  1.0
  Hf  Hf107  1  0.88944729  0.88838125  0.16651437  1.0
  Hf  Hf108  1  0.07398271  0.25745208  0.17723562  1.0
  Hf  Hf109  1  0.07398271  0.59078542  0.17723562  1.0
  Hf  Hf110  1  0.07398271  0.92411875  0.17723562  1.0
  Hf  Hf111  1  0.40731604  0.25745208  0.17723562  1.0
  Hf  Hf112  1  0.40731604  0.59078542  0.17723562  1.0
  Hf  Hf113  1  0.40731604  0.92411875  0.17723562  1.0
  Hf  Hf114  1  0.74064938  0.25745208  0.17723562  1.0
  Hf  Hf115  1  0.74064938  0.59078542  0.17723562  1.0
  Hf  Hf116  1  0.74064938  0.92411875  0.17723562  1.0
  Hf  Hf117  1  0.17814937  0.13245208  0.23973562  1.0
  Hf  Hf118  1  0.17814937  0.46578542  0.23973562  1.0
  Hf  Hf119  1  0.17814938  0.79911875  0.23973562  1.0
  Hf  Hf120  1  0.51148271  0.13245208  0.23973562  1.0
  Hf  Hf121  1  0.51148271  0.46578542  0.23973562  1.0
  Hf  Hf122  1  0.51148271  0.79911875  0.23973562  1.0
  Hf  Hf123  1  0.84481604  0.13245208  0.23973562  1.0
  Hf  Hf124  1  0.84481604  0.46578542  0.23973562  1.0
  Hf  Hf125  1  0.84481604  0.79911875  0.23973562  1.0
  Hf  Hf126  1  0.29805271  0.15328542  0.14598562  1.0
  Hf  Hf127  1  0.29805271  0.48661875  0.14598562  1.0
  Hf  Hf128  1  0.29805271  0.81995208  0.14598562  1.0
  Hf  Hf129  1  0.63138604  0.15328542  0.14598562  1.0
  Hf  Hf130  1  0.63138604  0.48661875  0.14598562  1.0
  Hf  Hf131  1  0.63138604  0.81995208  0.14598562  1.0
  Hf  Hf132  1  0.96471937  0.15328542  0.14598562  1.0
  Hf  Hf133  1  0.96471938  0.48661875  0.14598562  1.0
  Hf  Hf134  1  0.96471938  0.81995208  0.14598562  1.0
  Hf  Hf135  1  0.06888604  0.02828542  0.20848562  1.0
  Hf  Hf136  1  0.06888604  0.36161875  0.20848562  1.0
  Hf  Hf137  1  0.06888604  0.69495208  0.20848562  1.0
  Hf  Hf138  1  0.40221938  0.02828542  0.20848562  1.0
  Hf  Hf139  1  0.40221938  0.36161875  0.20848562  1.0
  Hf  Hf140  1  0.40221938  0.69495208  0.20848562  1.0
  Hf  Hf141  1  0.73555271  0.02828542  0.20848562  1.0
  Hf  Hf142  1  0.73555271  0.36161875  0.20848562  1.0
  Hf  Hf143  1  0.73555271  0.69495208  0.20848562  1.0
  Hf  Hf144  1  0.09268396  0.07588125  0.32276437  1.0
  Hf  Hf145  1  0.09268396  0.40921458  0.32276438  1.0
  Hf  Hf146  1  0.09268396  0.74254792  0.32276437  1.0
  Hf  Hf147  1  0.42601729  0.07588125  0.32276438  1.0
  Hf  Hf148  1  0.42601729  0.40921458  0.32276437  1.0
  Hf  Hf149  1  0.42601729  0.74254792  0.32276437  1.0
  Hf  Hf150  1  0.75935063  0.07588125  0.32276437  1.0
  Hf  Hf151  1  0.75935062  0.40921458  0.32276437  1.0
  Hf  Hf152  1  0.75935062  0.74254792  0.32276437  1.0
  Hf  Hf153  1  0.32185063  0.20088125  0.26026437  1.0
  Hf  Hf154  1  0.32185063  0.53421458  0.26026437  1.0
  Hf  Hf155  1  0.32185063  0.86754792  0.26026437  1.0
  Hf  Hf156  1  0.65518396  0.20088125  0.26026437  1.0
  Hf  Hf157  1  0.65518396  0.53421458  0.26026437  1.0
  Hf  Hf158  1  0.65518396  0.86754792  0.26026437  1.0
  Hf  Hf159  1  0.98851729  0.20088125  0.26026437  1.0
  Hf  Hf160  1  0.98851729  0.53421458  0.26026437  1.0
  Hf  Hf161  1  0.98851729  0.86754792  0.26026437  1.0
  Hf  Hf162  1  0.20194729  0.18004792  0.35401437  1.0
  Hf  Hf163  1  0.20194729  0.51338125  0.35401437  1.0
  Hf  Hf164  1  0.20194729  0.84671458  0.35401437  1.0
  Hf  Hf165  1  0.53528063  0.18004792  0.35401437  1.0
  Hf  Hf166  1  0.53528063  0.51338125  0.35401437  1.0
  Hf  Hf167  1  0.53528063  0.84671458  0.35401437  1.0
  Hf  Hf168  1  0.86861396  0.18004792  0.35401437  1.0
  Hf  Hf169  1  0.86861396  0.51338125  0.35401437  1.0
  Hf  Hf170  1  0.86861396  0.84671458  0.35401437  1.0
  Hf  Hf171  1  0.09778063  0.30504792  0.29151437  1.0
  Hf  Hf172  1  0.09778063  0.63838125  0.29151437  1.0
  Hf  Hf173  1  0.09778063  0.97171458  0.29151437  1.0
  Hf  Hf174  1  0.43111396  0.30504792  0.29151437  1.0
  Hf  Hf175  1  0.43111396  0.63838125  0.29151437  1.0
  Hf  Hf176  1  0.43111396  0.97171458  0.29151437  1.0
  Hf  Hf177  1  0.76444729  0.30504792  0.29151437  1.0
  Hf  Hf178  1  0.76444729  0.63838125  0.29151437  1.0
  Hf  Hf179  1  0.76444729  0.97171458  0.29151437  1.0
  Hf  Hf180  1  0.28231604  0.00745208  0.30223562  1.0
  Hf  Hf181  1  0.28231604  0.34078542  0.30223562  1.0
  Hf  Hf182  1  0.28231604  0.67411875  0.30223563  1.0
  Hf  Hf183  1  0.61564938  0.00745208  0.30223562  1.0
  Hf  Hf184  1  0.61564938  0.34078542  0.30223563  1.0
  Hf  Hf185  1  0.61564937  0.67411875  0.30223562  1.0
  Hf  Hf186  1  0.94898271  0.00745208  0.30223562  1.0
  Hf  Hf187  1  0.94898271  0.34078542  0.30223562  1.0
  Hf  Hf188  1  0.94898271  0.67411875  0.30223562  1.0
  Hf  Hf189  1  0.05314937  0.21578542  0.36473562  1.0
  Hf  Hf190  1  0.05314937  0.54911875  0.36473562  1.0
  Hf  Hf191  1  0.05314937  0.88245208  0.36473562  1.0
  Hf  Hf192  1  0.38648271  0.21578542  0.36473562  1.0
  Hf  Hf193  1  0.38648271  0.54911875  0.36473562  1.0
  Hf  Hf194  1  0.38648271  0.88245208  0.36473562  1.0
  Hf  Hf195  1  0.71981604  0.21578542  0.36473562  1.0
  Hf  Hf196  1  0.71981604  0.54911875  0.36473562  1.0
  Hf  Hf197  1  0.71981604  0.88245208  0.36473562  1.0
  Hf  Hf198  1  0.17305271  0.23661875  0.27098562  1.0
  Hf  Hf199  1  0.17305271  0.56995208  0.27098562  1.0
  Hf  Hf200  1  0.17305271  0.90328542  0.27098562  1.0
  Hf  Hf201  1  0.50638604  0.23661875  0.27098563  1.0
  Hf  Hf202  1  0.50638604  0.56995208  0.27098562  1.0
  Hf  Hf203  1  0.50638604  0.90328542  0.27098562  1.0
  Hf  Hf204  1  0.83971938  0.23661875  0.27098562  1.0
  Hf  Hf205  1  0.83971938  0.56995208  0.27098562  1.0
  Hf  Hf206  1  0.83971938  0.90328542  0.27098562  1.0
  Hf  Hf207  1  0.27721938  0.11161875  0.33348562  1.0
  Hf  Hf208  1  0.27721938  0.44495208  0.33348562  1.0
  Hf  Hf209  1  0.27721938  0.77828542  0.33348562  1.0
  Hf  Hf210  1  0.61055271  0.11161875  0.33348562  1.0
  Hf  Hf211  1  0.61055271  0.44495208  0.33348562  1.0
  Hf  Hf212  1  0.61055271  0.77828542  0.33348562  1.0
  Hf  Hf213  1  0.94388604  0.11161875  0.33348562  1.0
  Hf  Hf214  1  0.94388604  0.44495208  0.33348562  1.0
  Hf  Hf215  1  0.94388604  0.77828542  0.33348562  1.0
  Ni  Ni216  1  0.32812500  0.32291667  0.04687500  1.0
  Ni  Ni217  1  0.32812500  0.65625000  0.04687500  1.0
  Ni  Ni218  1  0.32812500  0.98958333  0.04687500  1.0
  Ni  Ni219  1  0.66145833  0.32291667  0.04687500  1.0
  Ni  Ni220  1  0.66145833  0.65625000  0.04687500  1.0
  Ni  Ni221  1  0.66145833  0.98958333  0.04687500  1.0
  Ni  Ni222  1  0.99479167  0.32291667  0.04687500  1.0
  Ni  Ni223  1  0.99479167  0.65625000  0.04687500  1.0
  Ni  Ni224  1  0.99479167  0.98958333  0.04687500  1.0
  Ni  Ni225  1  0.09895833  0.19791667  0.10937500  1.0
  Ni  Ni226  1  0.09895833  0.53125000  0.10937500  1.0
  Ni  Ni227  1  0.09895833  0.86458333  0.10937500  1.0
  Ni  Ni228  1  0.43229167  0.19791667  0.10937500  1.0
  Ni  Ni229  1  0.43229167  0.53125000  0.10937500  1.0
  Ni  Ni230  1  0.43229167  0.86458333  0.10937500  1.0
  Ni  Ni231  1  0.76562500  0.19791667  0.10937500  1.0
  Ni  Ni232  1  0.76562500  0.53125000  0.10937500  1.0
  Ni  Ni233  1  0.76562500  0.86458333  0.10937500  1.0
  Ni  Ni234  1  0.10937500  0.21875000  0.01562500  1.0
  Ni  Ni235  1  0.10937500  0.55208333  0.01562500  1.0
  Ni  Ni236  1  0.10937500  0.88541667  0.01562500  1.0
  Ni  Ni237  1  0.44270833  0.21875000  0.01562500  1.0
  Ni  Ni238  1  0.44270833  0.55208333  0.01562500  1.0
  Ni  Ni239  1  0.44270833  0.88541667  0.01562500  1.0
  Ni  Ni240  1  0.77604167  0.21875000  0.01562500  1.0
  Ni  Ni241  1  0.77604167  0.55208333  0.01562500  1.0
  Ni  Ni242  1  0.77604167  0.88541667  0.01562500  1.0
  Ni  Ni243  1  0.21354167  0.09375000  0.07812500  1.0
  Ni  Ni244  1  0.21354167  0.42708333  0.07812500  1.0
  Ni  Ni245  1  0.21354167  0.76041667  0.07812500  1.0
  Ni  Ni246  1  0.54687500  0.09375000  0.07812500  1.0
  Ni  Ni247  1  0.54687500  0.42708333  0.07812500  1.0
  Ni  Ni248  1  0.54687500  0.76041667  0.07812500  1.0
  Ni  Ni249  1  0.88020833  0.09375000  0.07812500  1.0
  Ni  Ni250  1  0.88020833  0.42708333  0.07812500  1.0
  Ni  Ni251  1  0.88020833  0.76041667  0.07812500  1.0
  Ni  Ni252  1  0.20312500  0.07291667  0.17187500  1.0
  Ni  Ni253  1  0.20312500  0.40625000  0.17187500  1.0
  Ni  Ni254  1  0.20312500  0.73958333  0.17187500  1.0
  Ni  Ni255  1  0.53645833  0.07291667  0.17187500  1.0
  Ni  Ni256  1  0.53645833  0.40625000  0.17187500  1.0
  Ni  Ni257  1  0.53645833  0.73958333  0.17187500  1.0
  Ni  Ni258  1  0.86979167  0.07291667  0.17187500  1.0
  Ni  Ni259  1  0.86979167  0.40625000  0.17187500  1.0
  Ni  Ni260  1  0.86979167  0.73958333  0.17187500  1.0
  Ni  Ni261  1  0.30729167  0.28125000  0.23437500  1.0
  Ni  Ni262  1  0.30729167  0.61458333  0.23437500  1.0
  Ni  Ni263  1  0.30729167  0.94791667  0.23437500  1.0
  Ni  Ni264  1  0.64062500  0.28125000  0.23437500  1.0
  Ni  Ni265  1  0.64062500  0.61458333  0.23437500  1.0
  Ni  Ni266  1  0.64062500  0.94791667  0.23437500  1.0
  Ni  Ni267  1  0.97395833  0.28125000  0.23437500  1.0
  Ni  Ni268  1  0.97395833  0.61458333  0.23437500  1.0
  Ni  Ni269  1  0.97395833  0.94791667  0.23437500  1.0
  Ni  Ni270  1  0.31770833  0.30208333  0.14062500  1.0
  Ni  Ni271  1  0.31770833  0.63541667  0.14062500  1.0
  Ni  Ni272  1  0.31770833  0.96875000  0.14062500  1.0
  Ni  Ni273  1  0.65104167  0.30208333  0.14062500  1.0
  Ni  Ni274  1  0.65104167  0.63541667  0.14062500  1.0
  Ni  Ni275  1  0.65104167  0.96875000  0.14062500  1.0
  Ni  Ni276  1  0.98437500  0.30208333  0.14062500  1.0
  Ni  Ni277  1  0.98437500  0.63541667  0.14062500  1.0
  Ni  Ni278  1  0.98437500  0.96875000  0.14062500  1.0
  Ni  Ni279  1  0.08854167  0.17708333  0.20312500  1.0
  Ni  Ni280  1  0.08854167  0.51041667  0.20312500  1.0
  Ni  Ni281  1  0.08854167  0.84375000  0.20312500  1.0
  Ni  Ni282  1  0.42187500  0.17708333  0.20312500  1.0
  Ni  Ni283  1  0.42187500  0.51041667  0.20312500  1.0
  Ni  Ni284  1  0.42187500  0.84375000  0.20312500  1.0
  Ni  Ni285  1  0.75520833  0.17708333  0.20312500  1.0
  Ni  Ni286  1  0.75520833  0.51041667  0.20312500  1.0
  Ni  Ni287  1  0.75520833  0.84375000  0.20312500  1.0
  Ni  Ni288  1  0.07812500  0.15625000  0.29687500  1.0
  Ni  Ni289  1  0.07812500  0.48958333  0.29687500  1.0
  Ni  Ni290  1  0.07812500  0.82291667  0.29687500  1.0
  Ni  Ni291  1  0.41145833  0.15625000  0.29687500  1.0
  Ni  Ni292  1  0.41145833  0.48958333  0.29687500  1.0
  Ni  Ni293  1  0.41145833  0.82291667  0.29687500  1.0
  Ni  Ni294  1  0.74479167  0.15625000  0.29687500  1.0
  Ni  Ni295  1  0.74479167  0.48958333  0.29687500  1.0
  Ni  Ni296  1  0.74479167  0.82291667  0.29687500  1.0
  Ni  Ni297  1  0.18229167  0.03125000  0.35937500  1.0
  Ni  Ni298  1  0.18229167  0.36458333  0.35937500  1.0
  Ni  Ni299  1  0.18229167  0.69791667  0.35937500  1.0
  Ni  Ni300  1  0.51562500  0.03125000  0.35937500  1.0
  Ni  Ni301  1  0.51562500  0.36458333  0.35937500  1.0
  Ni  Ni302  1  0.51562500  0.69791667  0.35937500  1.0
  Ni  Ni303  1  0.84895833  0.03125000  0.35937500  1.0
  Ni  Ni304  1  0.84895833  0.36458333  0.35937500  1.0
  Ni  Ni305  1  0.84895833  0.69791667  0.35937500  1.0
  Ni  Ni306  1  0.19270833  0.05208333  0.26562500  1.0
  Ni  Ni307  1  0.19270833  0.38541667  0.26562500  1.0
  Ni  Ni308  1  0.19270833  0.71875000  0.26562500  1.0
  Ni  Ni309  1  0.52604167  0.05208333  0.26562500  1.0
  Ni  Ni310  1  0.52604167  0.38541667  0.26562500  1.0
  Ni  Ni311  1  0.52604167  0.71875000  0.26562500  1.0
  Ni  Ni312  1  0.85937500  0.05208333  0.26562500  1.0
  Ni  Ni313  1  0.85937500  0.38541667  0.26562500  1.0
  Ni  Ni314  1  0.85937500  0.71875000  0.26562500  1.0
  Ni  Ni315  1  0.29687500  0.26041667  0.32812500  1.0
  Ni  Ni316  1  0.29687500  0.59375000  0.32812500  1.0
  Ni  Ni317  1  0.29687500  0.92708333  0.32812500  1.0
  Ni  Ni318  1  0.63020833  0.26041667  0.32812500  1.0
  Ni  Ni319  1  0.63020833  0.59375000  0.32812500  1.0
  Ni  Ni320  1  0.63020833  0.92708333  0.32812500  1.0
  Ni  Ni321  1  0.96354167  0.26041667  0.32812500  1.0
  Ni  Ni322  1  0.96354167  0.59375000  0.32812500  1.0
  Ni  Ni323  1  0.96354167  0.92708333  0.32812500  1.0
