# generated using pymatgen
data_Hf2Ni7
_symmetry_space_group_name_H-M   'P 1'
_cell_length_a   24.26108721
_cell_length_b   21.86473206
_cell_length_c   32.92262981
_cell_angle_alpha   58.16307968
_cell_angle_beta   90.72395819
_cell_angle_gamma   102.33974774
_symmetry_Int_Tables_number   1
_chemical_formula_structural   Hf2Ni7
_chemical_formula_sum   'Hf108 Ni378'
_cell_volume   14388.20019274
_cell_formula_units_Z   54
loop_
 _symmetry_equiv_pos_site_id
 _symmetry_equiv_pos_as_xyz
  1  'x, y, z'
loop_
 _atom_site_type_symbol
 _atom_site_label
 _atom_site_symmetry_multiplicity
 _atom_site_fract_x
 _atom_site_fract_y
 _atom_site_fract_z
 _atom_site_occupancy
  Hf  Hf0  1  0.31568883  0.07642267  0.08671118  1.0
  Hf  Hf1  1  0.31568883  0.40975600  0.08671118  1.0
  Hf  Hf2  1  0.31568883  0.74308933  0.08671118  1.0
  Hf  Hf3  1  0.64902217  0.07642267  0.08671118  1.0
  Hf  Hf4  1  0.64902217  0.40975600  0.08671118  1.0
  Hf  Hf5  1  0.64902217  0.74308933  0.08671118  1.0
  Hf  Hf6  1  0.98235550  0.07642267  0.08671118  1.0
  Hf  Hf7  1  0.98235550  0.40975600  0.08671118  1.0
  Hf  Hf8  1  0.98235550  0.74308933  0.08671118  1.0
  Hf  Hf9  1  0.14902217  0.07642267  0.01528261  1.0
  Hf  Hf10  1  0.14902217  0.40975600  0.01528261  1.0
  Hf  Hf11  1  0.14902217  0.74308933  0.01528261  1.0
  Hf  Hf12  1  0.48235550  0.07642267  0.01528261  1.0
  Hf  Hf13  1  0.48235550  0.40975600  0.01528261  1.0
  Hf  Hf14  1  0.48235550  0.74308933  0.01528261  1.0
  Hf  Hf15  1  0.81568883  0.07642267  0.01528261  1.0
  Hf  Hf16  1  0.81568883  0.40975600  0.01528261  1.0
  Hf  Hf17  1  0.81568883  0.74308933  0.01528261  1.0
  Hf  Hf18  1  0.18431117  0.25691067  0.09591161  1.0
  Hf  Hf19  1  0.18431117  0.59024400  0.09591161  1.0
  Hf  Hf20  1  0.18431117  0.92357733  0.09591161  1.0
  Hf  Hf21  1  0.51764450  0.25691067  0.09591161  1.0
  Hf  Hf22  1  0.51764450  0.59024400  0.09591161  1.0
  Hf  Hf23  1  0.51764450  0.92357733  0.09591161  1.0
  Hf  Hf24  1  0.85097783  0.25691067  0.09591161  1.0
  Hf  Hf25  1  0.85097783  0.59024400  0.09591161  1.0
  Hf  Hf26  1  0.85097783  0.92357733  0.09591161  1.0
  Hf  Hf27  1  0.01764450  0.25691067  0.02448304  1.0
  Hf  Hf28  1  0.01764450  0.59024400  0.02448304  1.0
  Hf  Hf29  1  0.01764450  0.92357733  0.02448304  1.0
  Hf  Hf30  1  0.35097783  0.25691067  0.02448304  1.0
  Hf  Hf31  1  0.35097783  0.59024400  0.02448304  1.0
  Hf  Hf32  1  0.35097783  0.92357733  0.02448304  1.0
  Hf  Hf33  1  0.68431117  0.25691067  0.02448304  1.0
  Hf  Hf34  1  0.68431117  0.59024400  0.02448304  1.0
  Hf  Hf35  1  0.68431117  0.92357733  0.02448304  1.0
  Ni  Ni36  1  0.16666667  0.16666667  0.05559711  1.0
  Ni  Ni37  1  0.16666667  0.50000000  0.05559711  1.0
  Ni  Ni38  1  0.16666667  0.83333333  0.05559711  1.0
  Ni  Ni39  1  0.50000000  0.16666667  0.05559711  1.0
  Ni  Ni40  1  0.50000000  0.50000000  0.05559711  1.0
  Ni  Ni41  1  0.50000000  0.83333333  0.05559711  1.0
  Ni  Ni42  1  0.83333333  0.16666667  0.05559711  1.0
  Ni  Ni43  1  0.83333333  0.50000000  0.05559711  1.0
  Ni  Ni44  1  0.83333333  0.83333333  0.05559711  1.0
  Ni  Ni45  1  0.00000000  0.16666667  0.12702568  1.0
  Ni  Ni46  1  0.00000000  0.50000000  0.12702568  1.0
  Ni  Ni47  1  0.00000000  0.83333333  0.12702568  1.0
  Ni  Ni48  1  0.33333333  0.16666667  0.12702568  1.0
  Ni  Ni49  1  0.33333333  0.50000000  0.12702568  1.0
  Ni  Ni50  1  0.33333333  0.83333333  0.12702568  1.0
  Ni  Ni51  1  0.66666667  0.16666667  0.12702568  1.0
  Ni  Ni52  1  0.66666667  0.50000000  0.12702568  1.0
  Ni  Ni53  1  0.66666667  0.83333333  0.12702568  1.0
  Ni  Ni54  1  0.25000000  0.16666667  0.09131139  1.0
  Ni  Ni55  1  0.25000000  0.50000000  0.09131139  1.0
  Ni  Ni56  1  0.25000000  0.83333333  0.09131139  1.0
  Ni  Ni57  1  0.58333333  0.16666667  0.09131139  1.0
  Ni  Ni58  1  0.58333333  0.50000000  0.09131139  1.0
  Ni  Ni59  1  0.58333333  0.83333333  0.09131139  1.0
  Ni  Ni60  1  0.91666667  0.16666667  0.09131139  1.0
  Ni  Ni61  1  0.91666667  0.50000000  0.09131139  1.0
  Ni  Ni62  1  0.91666667  0.83333333  0.09131139  1.0
  Ni  Ni63  1  0.08333333  0.16666667  0.01988282  1.0
  Ni  Ni64  1  0.08333333  0.50000000  0.01988282  1.0
  Ni  Ni65  1  0.08333333  0.83333333  0.01988282  1.0
  Ni  Ni66  1  0.41666667  0.16666667  0.01988282  1.0
  Ni  Ni67  1  0.41666667  0.50000000  0.01988282  1.0
  Ni  Ni68  1  0.41666667  0.83333333  0.01988282  1.0
  Ni  Ni69  1  0.75000000  0.16666667  0.01988282  1.0
  Ni  Ni70  1  0.75000000  0.50000000  0.01988282  1.0
  Ni  Ni71  1  0.75000000  0.83333333  0.01988282  1.0
  Ni  Ni72  1  0.25620700  0.05173667  0.02467054  1.0
  Ni  Ni73  1  0.25620700  0.38507000  0.02467054  1.0
  Ni  Ni74  1  0.25620700  0.71840333  0.02467054  1.0
  Ni  Ni75  1  0.58954033  0.05173667  0.02467054  1.0
  Ni  Ni76  1  0.58954033  0.38507000  0.02467054  1.0
  Ni  Ni77  1  0.58954033  0.71840333  0.02467054  1.0
  Ni  Ni78  1  0.92287367  0.05173667  0.02467054  1.0
  Ni  Ni79  1  0.92287367  0.38507000  0.02467054  1.0
  Ni  Ni80  1  0.92287367  0.71840333  0.02467054  1.0
  Ni  Ni81  1  0.08954033  0.05173667  0.09609911  1.0
  Ni  Ni82  1  0.08954033  0.38507000  0.09609911  1.0
  Ni  Ni83  1  0.08954033  0.71840333  0.09609911  1.0
  Ni  Ni84  1  0.42287367  0.05173667  0.09609911  1.0
  Ni  Ni85  1  0.42287367  0.38507000  0.09609911  1.0
  Ni  Ni86  1  0.42287367  0.71840333  0.09609911  1.0
  Ni  Ni87  1  0.75620700  0.05173667  0.09609911  1.0
  Ni  Ni88  1  0.75620700  0.38507000  0.09609911  1.0
  Ni  Ni89  1  0.75620700  0.71840333  0.09609911  1.0
  Ni  Ni90  1  0.24379300  0.28159667  0.01509511  1.0
  Ni  Ni91  1  0.24379300  0.61493000  0.01509511  1.0
  Ni  Ni92  1  0.24379300  0.94826333  0.01509511  1.0
  Ni  Ni93  1  0.57712633  0.28159667  0.01509511  1.0
  Ni  Ni94  1  0.57712633  0.61493000  0.01509511  1.0
  Ni  Ni95  1  0.57712633  0.94826333  0.01509511  1.0
  Ni  Ni96  1  0.91045967  0.28159667  0.01509511  1.0
  Ni  Ni97  1  0.91045967  0.61493000  0.01509511  1.0
  Ni  Ni98  1  0.91045967  0.94826333  0.01509511  1.0
  Ni  Ni99  1  0.07712633  0.28159667  0.08652368  1.0
  Ni  Ni100  1  0.07712633  0.61493000  0.08652368  1.0
  Ni  Ni101  1  0.07712633  0.94826333  0.08652368  1.0
  Ni  Ni102  1  0.41045967  0.28159667  0.08652368  1.0
  Ni  Ni103  1  0.41045967  0.61493000  0.08652368  1.0
  Ni  Ni104  1  0.41045967  0.94826333  0.08652368  1.0
  Ni  Ni105  1  0.74379300  0.28159667  0.08652368  1.0
  Ni  Ni106  1  0.74379300  0.61493000  0.08652368  1.0
  Ni  Ni107  1  0.74379300  0.94826333  0.08652368  1.0
  Ni  Ni108  1  0.29877583  0.28159667  0.08726004  1.0
  Ni  Ni109  1  0.29877583  0.61493000  0.08726004  1.0
  Ni  Ni110  1  0.29877583  0.94826333  0.08726004  1.0
  Ni  Ni111  1  0.63210917  0.28159667  0.08726004  1.0
  Ni  Ni112  1  0.63210917  0.61493000  0.08726004  1.0
  Ni  Ni113  1  0.63210917  0.94826333  0.08726004  1.0
  Ni  Ni114  1  0.96544250  0.28159667  0.08726004  1.0
  Ni  Ni115  1  0.96544250  0.61493000  0.08726004  1.0
  Ni  Ni116  1  0.96544250  0.94826333  0.08726004  1.0
  Ni  Ni117  1  0.13210917  0.28159667  0.01583146  1.0
  Ni  Ni118  1  0.13210917  0.61493000  0.01583146  1.0
  Ni  Ni119  1  0.13210917  0.94826333  0.01583146  1.0
  Ni  Ni120  1  0.46544250  0.28159667  0.01583146  1.0
  Ni  Ni121  1  0.46544250  0.61493000  0.01583146  1.0
  Ni  Ni122  1  0.46544250  0.94826333  0.01583146  1.0
  Ni  Ni123  1  0.79877583  0.28159667  0.01583146  1.0
  Ni  Ni124  1  0.79877583  0.61493000  0.01583146  1.0
  Ni  Ni125  1  0.79877583  0.94826333  0.01583146  1.0
  Ni  Ni126  1  0.20122417  0.05173667  0.09536275  1.0
  Ni  Ni127  1  0.20122417  0.38507000  0.09536275  1.0
  Ni  Ni128  1  0.20122417  0.71840333  0.09536275  1.0
  Ni  Ni129  1  0.53455750  0.05173667  0.09536275  1.0
  Ni  Ni130  1  0.53455750  0.38507000  0.09536275  1.0
  Ni  Ni131  1  0.53455750  0.71840333  0.09536275  1.0
  Ni  Ni132  1  0.86789083  0.05173667  0.09536275  1.0
  Ni  Ni133  1  0.86789083  0.38507000  0.09536275  1.0
  Ni  Ni134  1  0.86789083  0.71840333  0.09536275  1.0
  Ni  Ni135  1  0.03455750  0.05173667  0.02393418  1.0
  Ni  Ni136  1  0.03455750  0.38507000  0.02393418  1.0
  Ni  Ni137  1  0.03455750  0.71840333  0.02393418  1.0
  Ni  Ni138  1  0.36789083  0.05173667  0.02393418  1.0
  Ni  Ni139  1  0.36789083  0.38507000  0.02393418  1.0
  Ni  Ni140  1  0.36789083  0.71840333  0.02393418  1.0
  Ni  Ni141  1  0.70122417  0.05173667  0.02393418  1.0
  Ni  Ni142  1  0.70122417  0.38507000  0.02393418  1.0
  Ni  Ni143  1  0.70122417  0.71840333  0.02393418  1.0
  Ni  Ni144  1  0.25000000  0.16666667  0.01988282  1.0
  Ni  Ni145  1  0.25000000  0.50000000  0.01988282  1.0
  Ni  Ni146  1  0.25000000  0.83333333  0.01988282  1.0
  Ni  Ni147  1  0.58333333  0.16666667  0.01988282  1.0
  Ni  Ni148  1  0.58333333  0.50000000  0.01988282  1.0
  Ni  Ni149  1  0.58333333  0.83333333  0.01988282  1.0
  Ni  Ni150  1  0.91666667  0.16666667  0.01988282  1.0
  Ni  Ni151  1  0.91666667  0.50000000  0.01988282  1.0
  Ni  Ni152  1  0.91666667  0.83333333  0.01988282  1.0
  Ni  Ni153  1  0.08333333  0.16666667  0.09131139  1.0
  Ni  Ni154  1  0.08333333  0.50000000  0.09131139  1.0
  Ni  Ni155  1  0.08333333  0.83333333  0.09131139  1.0
  Ni  Ni156  1  0.41666667  0.16666667  0.09131139  1.0
  Ni  Ni157  1  0.41666667  0.50000000  0.09131139  1.0
  Ni  Ni158  1  0.41666667  0.83333333  0.09131139  1.0
  Ni  Ni159  1  0.75000000  0.16666667  0.09131139  1.0
  Ni  Ni160  1  0.75000000  0.50000000  0.09131139  1.0
  Ni  Ni161  1  0.75000000  0.83333333  0.09131139  1.0
  Hf  Hf162  1  0.31568883  0.07642267  0.22956832  1.0
  Hf  Hf163  1  0.31568883  0.40975600  0.22956832  1.0
  Hf  Hf164  1  0.31568883  0.74308933  0.22956832  1.0
  Hf  Hf165  1  0.64902217  0.07642267  0.22956832  1.0
  Hf  Hf166  1  0.64902217  0.40975600  0.22956832  1.0
  Hf  Hf167  1  0.64902217  0.74308933  0.22956832  1.0
  Hf  Hf168  1  0.98235550  0.07642267  0.22956832  1.0
  Hf  Hf169  1  0.98235550  0.40975600  0.22956832  1.0
  Hf  Hf170  1  0.98235550  0.74308933  0.22956832  1.0
  Hf  Hf171  1  0.14902217  0.07642267  0.15813975  1.0
  Hf  Hf172  1  0.14902217  0.40975600  0.15813975  1.0
  Hf  Hf173  1  0.14902217  0.74308933  0.15813975  1.0
  Hf  Hf174  1  0.48235550  0.07642267  0.15813975  1.0
  Hf  Hf175  1  0.48235550  0.40975600  0.15813975  1.0
  Hf  Hf176  1  0.48235550  0.74308933  0.15813975  1.0
  Hf  Hf177  1  0.81568883  0.07642267  0.15813975  1.0
  Hf  Hf178  1  0.81568883  0.40975600  0.15813975  1.0
  Hf  Hf179  1  0.81568883  0.74308933  0.15813975  1.0
  Hf  Hf180  1  0.18431117  0.25691067  0.23876875  1.0
  Hf  Hf181  1  0.18431117  0.59024400  0.23876875  1.0
  Hf  Hf182  1  0.18431117  0.92357733  0.23876875  1.0
  Hf  Hf183  1  0.51764450  0.25691067  0.23876875  1.0
  Hf  Hf184  1  0.51764450  0.59024400  0.23876875  1.0
  Hf  Hf185  1  0.51764450  0.92357733  0.23876875  1.0
  Hf  Hf186  1  0.85097783  0.25691067  0.23876875  1.0
  Hf  Hf187  1  0.85097783  0.59024400  0.23876875  1.0
  Hf  Hf188  1  0.85097783  0.92357733  0.23876875  1.0
  Hf  Hf189  1  0.01764450  0.25691067  0.16734018  1.0
  Hf  Hf190  1  0.01764450  0.59024400  0.16734018  1.0
  Hf  Hf191  1  0.01764450  0.92357733  0.16734018  1.0
  Hf  Hf192  1  0.35097783  0.25691067  0.16734018  1.0
  Hf  Hf193  1  0.35097783  0.59024400  0.16734018  1.0
  Hf  Hf194  1  0.35097783  0.92357733  0.16734018  1.0
  Hf  Hf195  1  0.68431117  0.25691067  0.16734018  1.0
  Hf  Hf196  1  0.68431117  0.59024400  0.16734018  1.0
  Hf  Hf197  1  0.68431117  0.92357733  0.16734018  1.0
  Ni  Ni198  1  0.16666667  0.16666667  0.19845425  1.0
  Ni  Ni199  1  0.16666667  0.50000000  0.19845425  1.0
  Ni  Ni200  1  0.16666667  0.83333333  0.19845425  1.0
  Ni  Ni201  1  0.50000000  0.16666667  0.19845425  1.0
  Ni  Ni202  1  0.50000000  0.50000000  0.19845425  1.0
  Ni  Ni203  1  0.50000000  0.83333333  0.19845425  1.0
  Ni  Ni204  1  0.83333333  0.16666667  0.19845425  1.0
  Ni  Ni205  1  0.83333333  0.50000000  0.19845425  1.0
  Ni  Ni206  1  0.83333333  0.83333333  0.19845425  1.0
  Ni  Ni207  1  0.00000000  0.16666667  0.26988282  1.0
  Ni  Ni208  1  0.00000000  0.50000000  0.26988282  1.0
  Ni  Ni209  1  0.00000000  0.83333333  0.26988282  1.0
  Ni  Ni210  1  0.33333333  0.16666667  0.26988282  1.0
  Ni  Ni211  1  0.33333333  0.50000000  0.26988282  1.0
  Ni  Ni212  1  0.33333333  0.83333333  0.26988282  1.0
  Ni  Ni213  1  0.66666667  0.16666667  0.26988282  1.0
  Ni  Ni214  1  0.66666667  0.50000000  0.26988282  1.0
  Ni  Ni215  1  0.66666667  0.83333333  0.26988282  1.0
  Ni  Ni216  1  0.25000000  0.16666667  0.23416854  1.0
  Ni  Ni217  1  0.25000000  0.50000000  0.23416854  1.0
  Ni  Ni218  1  0.25000000  0.83333333  0.23416854  1.0
  Ni  Ni219  1  0.58333333  0.16666667  0.23416854  1.0
  Ni  Ni220  1  0.58333333  0.50000000  0.23416854  1.0
  Ni  Ni221  1  0.58333333  0.83333333  0.23416854  1.0
  Ni  Ni222  1  0.91666667  0.16666667  0.23416854  1.0
  Ni  Ni223  1  0.91666667  0.50000000  0.23416854  1.0
  Ni  Ni224  1  0.91666667  0.83333333  0.23416854  1.0
  Ni  Ni225  1  0.08333333  0.16666667  0.16273996  1.0
  Ni  Ni226  1  0.08333333  0.50000000  0.16273996  1.0
  Ni  Ni227  1  0.08333333  0.83333333  0.16273996  1.0
  Ni  Ni228  1  0.41666667  0.16666667  0.16273996  1.0
  Ni  Ni229  1  0.41666667  0.50000000  0.16273996  1.0
  Ni  Ni230  1  0.41666667  0.83333333  0.16273996  1.0
  Ni  Ni231  1  0.75000000  0.16666667  0.16273996  1.0
  Ni  Ni232  1  0.75000000  0.50000000  0.16273996  1.0
  Ni  Ni233  1  0.75000000  0.83333333  0.16273996  1.0
  Ni  Ni234  1  0.25620700  0.05173667  0.16752768  1.0
  Ni  Ni235  1  0.25620700  0.38507000  0.16752768  1.0
  Ni  Ni236  1  0.25620700  0.71840333  0.16752768  1.0
  Ni  Ni237  1  0.58954033  0.05173667  0.16752768  1.0
  Ni  Ni238  1  0.58954033  0.38507000  0.16752768  1.0
  Ni  Ni239  1  0.58954033  0.71840333  0.16752768  1.0
  Ni  Ni240  1  0.92287367  0.05173667  0.16752768  1.0
  Ni  Ni241  1  0.92287367  0.38507000  0.16752768  1.0
  Ni  Ni242  1  0.92287367  0.71840333  0.16752768  1.0
  Ni  Ni243  1  0.08954033  0.05173667  0.23895625  1.0
  Ni  Ni244  1  0.08954033  0.38507000  0.23895625  1.0
  Ni  Ni245  1  0.08954033  0.71840333  0.23895625  1.0
  Ni  Ni246  1  0.42287367  0.05173667  0.23895625  1.0
  Ni  Ni247  1  0.42287367  0.38507000  0.23895625  1.0
  Ni  Ni248  1  0.42287367  0.71840333  0.23895625  1.0
  Ni  Ni249  1  0.75620700  0.05173667  0.23895625  1.0
  Ni  Ni250  1  0.75620700  0.38507000  0.23895625  1.0
  Ni  Ni251  1  0.75620700  0.71840333  0.23895625  1.0
  Ni  Ni252  1  0.24379300  0.28159667  0.15795225  1.0
  Ni  Ni253  1  0.24379300  0.61493000  0.15795225  1.0
  Ni  Ni254  1  0.24379300  0.94826333  0.15795225  1.0
  Ni  Ni255  1  0.57712633  0.28159667  0.15795225  1.0
  Ni  Ni256  1  0.57712633  0.61493000  0.15795225  1.0
  Ni  Ni257  1  0.57712633  0.94826333  0.15795225  1.0
  Ni  Ni258  1  0.91045967  0.28159667  0.15795225  1.0
  Ni  Ni259  1  0.91045967  0.61493000  0.15795225  1.0
  Ni  Ni260  1  0.91045967  0.94826333  0.15795225  1.0
  Ni  Ni261  1  0.07712633  0.28159667  0.22938082  1.0
  Ni  Ni262  1  0.07712633  0.61493000  0.22938082  1.0
  Ni  Ni263  1  0.07712633  0.94826333  0.22938082  1.0
  Ni  Ni264  1  0.41045967  0.28159667  0.22938082  1.0
  Ni  Ni265  1  0.41045967  0.61493000  0.22938082  1.0
  Ni  Ni266  1  0.41045967  0.94826333  0.22938082  1.0
  Ni  Ni267  1  0.74379300  0.28159667  0.22938082  1.0
  Ni  Ni268  1  0.74379300  0.61493000  0.22938082  1.0
  Ni  Ni269  1  0.74379300  0.94826333  0.22938082  1.0
  Ni  Ni270  1  0.29877583  0.28159667  0.23011718  1.0
  Ni  Ni271  1  0.29877583  0.61493000  0.23011718  1.0
  Ni  Ni272  1  0.29877583  0.94826333  0.23011718  1.0
  Ni  Ni273  1  0.63210917  0.28159667  0.23011718  1.0
  Ni  Ni274  1  0.63210917  0.61493000  0.23011718  1.0
  Ni  Ni275  1  0.63210917  0.94826333  0.23011718  1.0
  Ni  Ni276  1  0.96544250  0.28159667  0.23011718  1.0
  Ni  Ni277  1  0.96544250  0.61493000  0.23011718  1.0
  Ni  Ni278  1  0.96544250  0.94826333  0.23011718  1.0
  Ni  Ni279  1  0.13210917  0.28159667  0.15868861  1.0
  Ni  Ni280  1  0.13210917  0.61493000  0.15868861  1.0
  Ni  Ni281  1  0.13210917  0.94826333  0.15868861  1.0
  Ni  Ni282  1  0.46544250  0.28159667  0.15868861  1.0
  Ni  Ni283  1  0.46544250  0.61493000  0.15868861  1.0
  Ni  Ni284  1  0.46544250  0.94826333  0.15868861  1.0
  Ni  Ni285  1  0.79877583  0.28159667  0.15868861  1.0
  Ni  Ni286  1  0.79877583  0.61493000  0.15868861  1.0
  Ni  Ni287  1  0.79877583  0.94826333  0.15868861  1.0
  Ni  Ni288  1  0.20122417  0.05173667  0.23821989  1.0
  Ni  Ni289  1  0.20122417  0.38507000  0.23821989  1.0
  Ni  Ni290  1  0.20122417  0.71840333  0.23821989  1.0
  Ni  Ni291  1  0.53455750  0.05173667  0.23821989  1.0
  Ni  Ni292  1  0.53455750  0.38507000  0.23821989  1.0
  Ni  Ni293  1  0.53455750  0.71840333  0.23821989  1.0
  Ni  Ni294  1  0.86789083  0.05173667  0.23821989  1.0
  Ni  Ni295  1  0.86789083  0.38507000  0.23821989  1.0
  Ni  Ni296  1  0.86789083  0.71840333  0.23821989  1.0
  Ni  Ni297  1  0.03455750  0.05173667  0.16679132  1.0
  Ni  Ni298  1  0.03455750  0.38507000  0.16679132  1.0
  Ni  Ni299  1  0.03455750  0.71840333  0.16679132  1.0
  Ni  Ni300  1  0.36789083  0.05173667  0.16679132  1.0
  Ni  Ni301  1  0.36789083  0.38507000  0.16679132  1.0
  Ni  Ni302  1  0.36789083  0.71840333  0.16679132  1.0
  Ni  Ni303  1  0.70122417  0.05173667  0.16679132  1.0
  Ni  Ni304  1  0.70122417  0.38507000  0.16679132  1.0
  Ni  Ni305  1  0.70122417  0.71840333  0.16679132  1.0
  Ni  Ni306  1  0.25000000  0.16666667  0.16273996  1.0
  Ni  Ni307  1  0.25000000  0.50000000  0.16273996  1.0
  Ni  Ni308  1  0.25000000  0.83333333  0.16273996  1.0
  Ni  Ni309  1  0.58333333  0.16666667  0.16273996  1.0
  Ni  Ni310  1  0.58333333  0.50000000  0.16273996  1.0
  Ni  Ni311  1  0.58333333  0.83333333  0.16273996  1.0
  Ni  Ni312  1  0.91666667  0.16666667  0.16273996  1.0
  Ni  Ni313  1  0.91666667  0.50000000  0.16273996  1.0
  Ni  Ni314  1  0.91666667  0.83333333  0.16273996  1.0
  Ni  Ni315  1  0.08333333  0.16666667  0.23416854  1.0
  Ni  Ni316  1  0.08333333  0.50000000  0.23416854  1.0
  Ni  Ni317  1  0.08333333  0.83333333  0.23416854  1.0
  Ni  Ni318  1  0.41666667  0.16666667  0.23416854  1.0
  Ni  Ni319  1  0.41666667  0.50000000  0.23416854  1.0
  Ni  Ni320  1  0.41666667  0.83333333  0.23416854  1.0
  Ni  Ni321  1  0.75000000  0.16666667  0.23416854  1.0
  Ni  Ni322  1  0.75000000  0.50000000  0.23416854  1.0
  Ni  Ni323  1  0.75000000  0.83333333  0.23416854  1.0
  Hf  Hf324  1  0.31568883  0.07642267  0.37242546  1.0
  Hf  Hf325  1  0.31568883  0.40975600  0.37242546  1.0
  Hf  Hf326  1  0.31568883  0.74308933  0.37242546  1.0
  Hf  Hf327  1  0.64902217  0.07642267  0.37242546  1.0
  Hf  Hf328  1  0.64902217  0.40975600  0.37242546  1.0
  Hf  Hf329  1  0.64902217  0.74308933  0.37242546  1.0
  Hf  Hf330  1  0.98235550  0.07642267  0.37242546  1.0
  Hf  Hf331  1  0.98235550  0.40975600  0.37242546  1.0
  Hf  Hf332  1  0.98235550  0.74308933  0.37242546  1.0
  Hf  Hf333  1  0.14902217  0.07642267  0.30099689  1.0
  Hf  Hf334  1  0.14902217  0.40975600  0.30099689  1.0
  Hf  Hf335  1  0.14902217  0.74308933  0.30099689  1.0
  Hf  Hf336  1  0.48235550  0.07642267  0.30099689  1.0
  Hf  Hf337  1  0.48235550  0.40975600  0.30099689  1.0
  Hf  Hf338  1  0.48235550  0.74308933  0.30099689  1.0
  Hf  Hf339  1  0.81568883  0.07642267  0.30099689  1.0
  Hf  Hf340  1  0.81568883  0.40975600  0.30099689  1.0
  Hf  Hf341  1  0.81568883  0.74308933  0.30099689  1.0
  Hf  Hf342  1  0.18431117  0.25691067  0.38162589  1.0
  Hf  Hf343  1  0.18431117  0.59024400  0.38162589  1.0
  Hf  Hf344  1  0.18431117  0.92357733  0.38162589  1.0
  Hf  Hf345  1  0.51764450  0.25691067  0.38162589  1.0
  Hf  Hf346  1  0.51764450  0.59024400  0.38162589  1.0
  Hf  Hf347  1  0.51764450  0.92357733  0.38162589  1.0
  Hf  Hf348  1  0.85097783  0.25691067  0.38162589  1.0
  Hf  Hf349  1  0.85097783  0.59024400  0.38162589  1.0
  Hf  Hf350  1  0.85097783  0.92357733  0.38162589  1.0
  Hf  Hf351  1  0.01764450  0.25691067  0.31019732  1.0
  Hf  Hf352  1  0.01764450  0.59024400  0.31019732  1.0
  Hf  Hf353  1  0.01764450  0.92357733  0.31019732  1.0
  Hf  Hf354  1  0.35097783  0.25691067  0.31019732  1.0
  Hf  Hf355  1  0.35097783  0.59024400  0.31019732  1.0
  Hf  Hf356  1  0.35097783  0.92357733  0.31019732  1.0
  Hf  Hf357  1  0.68431117  0.25691067  0.31019732  1.0
  Hf  Hf358  1  0.68431117  0.59024400  0.31019732  1.0
  Hf  Hf359  1  0.68431117  0.92357733  0.31019732  1.0
  Ni  Ni360  1  0.16666667  0.16666667  0.34131139  1.0
  Ni  Ni361  1  0.16666667  0.50000000  0.34131139  1.0
  Ni  Ni362  1  0.16666667  0.83333333  0.34131139  1.0
  Ni  Ni363  1  0.50000000  0.16666667  0.34131139  1.0
  Ni  Ni364  1  0.50000000  0.50000000  0.34131139  1.0
  Ni  Ni365  1  0.50000000  0.83333333  0.34131139  1.0
  Ni  Ni366  1  0.83333333  0.16666667  0.34131139  1.0
  Ni  Ni367  1  0.83333333  0.50000000  0.34131139  1.0
  Ni  Ni368  1  0.83333333  0.83333333  0.34131139  1.0
  Ni  Ni369  1  0.00000000  0.16666667  0.41273996  1.0
  Ni  Ni370  1  0.00000000  0.50000000  0.41273996  1.0
  Ni  Ni371  1  0.00000000  0.83333333  0.41273996  1.0
  Ni  Ni372  1  0.33333333  0.16666667  0.41273996  1.0
  Ni  Ni373  1  0.33333333  0.50000000  0.41273996  1.0
  Ni  Ni374  1  0.33333333  0.83333333  0.41273996  1.0
  Ni  Ni375  1  0.66666667  0.16666667  0.41273996  1.0
  Ni  Ni376  1  0.66666667  0.50000000  0.41273996  1.0
  Ni  Ni377  1  0.66666667  0.83333333  0.41273996  1.0
  Ni  Ni378  1  0.25000000  0.16666667  0.37702568  1.0
  Ni  Ni379  1  0.25000000  0.50000000  0.37702568  1.0
  Ni  Ni380  1  0.25000000  0.83333333  0.37702568  1.0
  Ni  Ni381  1  0.58333333  0.16666667  0.37702568  1.0
  Ni  Ni382  1  0.58333333  0.50000000  0.37702568  1.0
  Ni  Ni383  1  0.58333333  0.83333333  0.37702568  1.0
  Ni  Ni384  1  0.91666667  0.16666667  0.37702568  1.0
  Ni  Ni385  1  0.91666667  0.50000000  0.37702568  1.0
  Ni  Ni386  1  0.91666667  0.83333333  0.37702568  1.0
  Ni  Ni387  1  0.08333333  0.16666667  0.30559711  1.0
  Ni  Ni388  1  0.08333333  0.50000000  0.30559711  1.0
  Ni  Ni389  1  0.08333333  0.83333333  0.30559711  1.0
  Ni  Ni390  1  0.41666667  0.16666667  0.30559711  1.0
  Ni  Ni391  1  0.41666667  0.50000000  0.30559711  1.0
  Ni  Ni392  1  0.41666667  0.83333333  0.30559711  1.0
  Ni  Ni393  1  0.75000000  0.16666667  0.30559711  1.0
  Ni  Ni394  1  0.75000000  0.50000000  0.30559711  1.0
  Ni  Ni395  1  0.75000000  0.83333333  0.30559711  1.0
  Ni  Ni396  1  0.25620700  0.05173667  0.31038482  1.0
  Ni  Ni397  1  0.25620700  0.38507000  0.31038482  1.0
  Ni  Ni398  1  0.25620700  0.71840333  0.31038482  1.0
  Ni  Ni399  1  0.58954033  0.05173667  0.31038482  1.0
  Ni  Ni400  1  0.58954033  0.38507000  0.31038482  1.0
  Ni  Ni401  1  0.58954033  0.71840333  0.31038482  1.0
  Ni  Ni402  1  0.92287367  0.05173667  0.31038482  1.0
  Ni  Ni403  1  0.92287367  0.38507000  0.31038482  1.0
  Ni  Ni404  1  0.92287367  0.71840333  0.31038482  1.0
  Ni  Ni405  1  0.08954033  0.05173667  0.38181339  1.0
  Ni  Ni406  1  0.08954033  0.38507000  0.38181339  1.0
  Ni  Ni407  1  0.08954033  0.71840333  0.38181339  1.0
  Ni  Ni408  1  0.42287367  0.05173667  0.38181339  1.0
  Ni  Ni409  1  0.42287367  0.38507000  0.38181339  1.0
  Ni  Ni410  1  0.42287367  0.71840333  0.38181339  1.0
  Ni  Ni411  1  0.75620700  0.05173667  0.38181339  1.0
  Ni  Ni412  1  0.75620700  0.38507000  0.38181339  1.0
  Ni  Ni413  1  0.75620700  0.71840333  0.38181339  1.0
  Ni  Ni414  1  0.24379300  0.28159667  0.30080939  1.0
  Ni  Ni415  1  0.24379300  0.61493000  0.30080939  1.0
  Ni  Ni416  1  0.24379300  0.94826333  0.30080939  1.0
  Ni  Ni417  1  0.57712633  0.28159667  0.30080939  1.0
  Ni  Ni418  1  0.57712633  0.61493000  0.30080939  1.0
  Ni  Ni419  1  0.57712633  0.94826333  0.30080939  1.0
  Ni  Ni420  1  0.91045967  0.28159667  0.30080939  1.0
  Ni  Ni421  1  0.91045967  0.61493000  0.30080939  1.0
  Ni  Ni422  1  0.91045967  0.94826333  0.30080939  1.0
  Ni  Ni423  1  0.07712633  0.28159667  0.37223796  1.0
  Ni  Ni424  1  0.07712633  0.61493000  0.37223796  1.0
  Ni  Ni425  1  0.07712633  0.94826333  0.37223796  1.0
  Ni  Ni426  1  0.41045967  0.28159667  0.37223796  1.0
  Ni  Ni427  1  0.41045967  0.61493000  0.37223796  1.0
  Ni  Ni428  1  0.41045967  0.94826333  0.37223796  1.0
  Ni  Ni429  1  0.74379300  0.28159667  0.37223796  1.0
  Ni  Ni430  1  0.74379300  0.61493000  0.37223796  1.0
  Ni  Ni431  1  0.74379300  0.94826333  0.37223796  1.0
  Ni  Ni432  1  0.29877583  0.28159667  0.37297432  1.0
  Ni  Ni433  1  0.29877583  0.61493000  0.37297432  1.0
  Ni  Ni434  1  0.29877583  0.94826333  0.37297432  1.0
  Ni  Ni435  1  0.63210917  0.28159667  0.37297432  1.0
  Ni  Ni436  1  0.63210917  0.61493000  0.37297432  1.0
  Ni  Ni437  1  0.63210917  0.94826333  0.37297432  1.0
  Ni  Ni438  1  0.96544250  0.28159667  0.37297432  1.0
  Ni  Ni439  1  0.96544250  0.61493000  0.37297432  1.0
  Ni  Ni440  1  0.96544250  0.94826333  0.37297432  1.0
  Ni  Ni441  1  0.13210917  0.28159667  0.30154575  1.0
  Ni  Ni442  1  0.13210917  0.61493000  0.30154575  1.0
  Ni  Ni443  1  0.13210917  0.94826333  0.30154575  1.0
  Ni  Ni444  1  0.46544250  0.28159667  0.30154575  1.0
  Ni  Ni445  1  0.46544250  0.61493000  0.30154575  1.0
  Ni  Ni446  1  0.46544250  0.94826333  0.30154575  1.0
  Ni  Ni447  1  0.79877583  0.28159667  0.30154575  1.0
  Ni  Ni448  1  0.79877583  0.61493000  0.30154575  1.0
  Ni  Ni449  1  0.79877583  0.94826333  0.30154575  1.0
  Ni  Ni450  1  0.20122417  0.05173667  0.38107704  1.0
  Ni  Ni451  1  0.20122417  0.38507000  0.38107704  1.0
  Ni  Ni452  1  0.20122417  0.71840333  0.38107704  1.0
  Ni  Ni453  1  0.53455750  0.05173667  0.38107704  1.0
  Ni  Ni454  1  0.53455750  0.38507000  0.38107704  1.0
  Ni  Ni455  1  0.53455750  0.71840333  0.38107704  1.0
  Ni  Ni456  1  0.86789083  0.05173667  0.38107704  1.0
  Ni  Ni457  1  0.86789083  0.38507000  0.38107704  1.0
  Ni  Ni458  1  0.86789083  0.71840333  0.38107704  1.0
  Ni  Ni459  1  0.03455750  0.05173667  0.30964846  1.0
  Ni  Ni460  1  0.03455750  0.38507000  0.30964846  1.0
  Ni  Ni461  1  0.03455750  0.71840333  0.30964846  1.0
  Ni  Ni462  1  0.36789083  0.05173667  0.30964846  1.0
  Ni  Ni463  1  0.36789083  0.38507000  0.30964846  1.0
  Ni  Ni464  1  0.36789083  0.71840333  0.30964846  1.0
  Ni  Ni465  1  0.70122417  0.05173667  0.30964846  1.0
  Ni  Ni466  1  0.70122417  0.38507000  0.30964846  1.0
  Ni  Ni467  1  0.70122417  0.71840333  0.30964846  1.0
  Ni  Ni468  1  0.25000000  0.16666667  0.30559711  1.0
  Ni  Ni469  1  0.25000000  0.50000000  0.30559711  1.0
  Ni  Ni470  1  0.25000000  0.83333333  0.30559711  1.0
  Ni  Ni471  1  0.58333333  0.16666667  0.30559711  1.0
  Ni  Ni472  1  0.58333333  0.50000000  0.30559711  1.0
  Ni  Ni473  1  0.58333333  0.83333333  0.30559711  1.0
  Ni  Ni474  1  0.91666667  0.16666667  0.30559711  1.0
  Ni  Ni475  1  0.91666667  0.50000000  0.30559711  1.0
  Ni  Ni476  1  0.91666667  0.83333333  0.30559711  1.0
  Ni  Ni477  1  0.08333333  0.16666667  0.37702568  1.0
  Ni  Ni478  1  0.08333333  0.50000000  0.37702568  1.0
  Ni  Ni479  1  0.08333333  0.83333333  0.37702568  1.0
  Ni  Ni480  1  0.41666667  0.16666667  0.37702568  1.0
  Ni  Ni481  1  0.41666667  0.50000000  0.37702568  1.0
  Ni  Ni482  1  0.41666667  0.83333333  0.37702568  1.0
  Ni  Ni483  1  0.75000000  0.16666667  0.37702568  1.0
  Ni  Ni484  1  0.75000000  0.50000000  0.37702568  1.0
  Ni  Ni485  1  0.75000000  0.83333333  0.37702568  1.0
