# generated using pymatgen
data_Hf2Ni
_symmetry_space_group_name_H-M   'P 1'
_cell_length_a   15.69453000
_cell_length_b   24.81925804
_cell_length_c   47.09314125
_cell_angle_alpha   142.23575603
_cell_angle_beta   119.99329111
_cell_angle_gamma   50.77607007
_symmetry_Int_Tables_number   1
_chemical_formula_structural   Hf2Ni
_chemical_formula_sum   'Hf144 Ni72'
_cell_volume   8702.86716558
_cell_formula_units_Z   72
loop_
 _symmetry_equiv_pos_site_id
 _symmetry_equiv_pos_as_xyz
  1  'x, y, z'
loop_
 _atom_site_type_symbol
 _atom_site_label
 _atom_site_symmetry_multiplicity
 _atom_site_fract_x
 _atom_site_fract_y
 _atom_site_fract_z
 _atom_site_occupancy
  Hf  Hf0  1  0.11192333  0.27615333  0.01824778  1.0
  Hf  Hf1  1  0.11192333  0.60948667  0.01824778  1.0
  Hf  Hf2  1  0.11192333  0.94282000  0.01824778  1.0
  Hf  Hf3  1  0.44525667  0.27615333  0.01824778  1.0
  Hf  Hf4  1  0.44525667  0.60948667  0.01824778  1.0
  Hf  Hf5  1  0.44525667  0.94282000  0.01824778  1.0
  Hf  Hf6  1  0.77859000  0.27615333  0.01824778  1.0
  Hf  Hf7  1  0.77859000  0.60948667  0.01824778  1.0
  Hf  Hf8  1  0.77859000  0.94282000  0.01824778  1.0
  Hf  Hf9  1  0.05474333  0.16666667  0.01824778  1.0
  Hf  Hf10  1  0.05474333  0.50000000  0.01824778  1.0
  Hf  Hf11  1  0.05474333  0.83333333  0.01824778  1.0
  Hf  Hf12  1  0.38807667  0.16666667  0.01824778  1.0
  Hf  Hf13  1  0.38807667  0.50000000  0.01824778  1.0
  Hf  Hf14  1  0.38807667  0.83333333  0.01824778  1.0
  Hf  Hf15  1  0.72141000  0.16666667  0.01824778  1.0
  Hf  Hf16  1  0.72141000  0.50000000  0.01824778  1.0
  Hf  Hf17  1  0.72141000  0.83333333  0.01824778  1.0
  Hf  Hf18  1  0.22141000  0.05718000  0.05636778  1.0
  Hf  Hf19  1  0.22141000  0.39051333  0.05636778  1.0
  Hf  Hf20  1  0.22141000  0.72384667  0.05636778  1.0
  Hf  Hf21  1  0.55474333  0.05718000  0.05636778  1.0
  Hf  Hf22  1  0.55474333  0.39051333  0.05636778  1.0
  Hf  Hf23  1  0.55474333  0.72384667  0.05636778  1.0
  Hf  Hf24  1  0.88807667  0.05718000  0.05636778  1.0
  Hf  Hf25  1  0.88807667  0.39051333  0.05636778  1.0
  Hf  Hf26  1  0.88807667  0.72384667  0.05636778  1.0
  Hf  Hf27  1  0.27859000  0.16666667  0.05636778  1.0
  Hf  Hf28  1  0.27859000  0.50000000  0.05636778  1.0
  Hf  Hf29  1  0.27859000  0.83333333  0.05636778  1.0
  Hf  Hf30  1  0.61192333  0.16666667  0.05636778  1.0
  Hf  Hf31  1  0.61192333  0.50000000  0.05636778  1.0
  Hf  Hf32  1  0.61192333  0.83333333  0.05636778  1.0
  Hf  Hf33  1  0.94525667  0.16666667  0.05636778  1.0
  Hf  Hf34  1  0.94525667  0.50000000  0.05636778  1.0
  Hf  Hf35  1  0.94525667  0.83333333  0.05636778  1.0
  Ni  Ni36  1  0.08333333  0.33333333  0.09286333  1.0
  Ni  Ni37  1  0.08333333  0.66666667  0.09286333  1.0
  Ni  Ni38  1  0.08333333  1.00000000  0.09286333  1.0
  Ni  Ni39  1  0.41666667  0.33333333  0.09286333  1.0
  Ni  Ni40  1  0.41666667  0.66666667  0.09286333  1.0
  Ni  Ni41  1  0.41666667  1.00000000  0.09286333  1.0
  Ni  Ni42  1  0.75000000  0.33333333  0.09286333  1.0
  Ni  Ni43  1  0.75000000  0.66666667  0.09286333  1.0
  Ni  Ni44  1  0.75000000  1.00000000  0.09286333  1.0
  Ni  Ni45  1  0.25000000  0.00000000  0.09286333  1.0
  Ni  Ni46  1  0.25000000  0.33333333  0.09286333  1.0
  Ni  Ni47  1  0.25000000  0.66666667  0.09286333  1.0
  Ni  Ni48  1  0.58333333  0.00000000  0.09286333  1.0
  Ni  Ni49  1  0.58333333  0.33333333  0.09286333  1.0
  Ni  Ni50  1  0.58333333  0.66666667  0.09286333  1.0
  Ni  Ni51  1  0.91666667  0.00000000  0.09286333  1.0
  Ni  Ni52  1  0.91666667  0.33333333  0.09286333  1.0
  Ni  Ni53  1  0.91666667  0.66666667  0.09286333  1.0
  Hf  Hf54  1  0.11192333  0.27615333  0.12935889  1.0
  Hf  Hf55  1  0.11192333  0.60948667  0.12935889  1.0
  Hf  Hf56  1  0.11192333  0.94282000  0.12935889  1.0
  Hf  Hf57  1  0.44525667  0.27615333  0.12935889  1.0
  Hf  Hf58  1  0.44525667  0.60948667  0.12935889  1.0
  Hf  Hf59  1  0.44525667  0.94282000  0.12935889  1.0
  Hf  Hf60  1  0.77859000  0.27615333  0.12935889  1.0
  Hf  Hf61  1  0.77859000  0.60948667  0.12935889  1.0
  Hf  Hf62  1  0.77859000  0.94282000  0.12935889  1.0
  Hf  Hf63  1  0.05474333  0.16666667  0.12935889  1.0
  Hf  Hf64  1  0.05474333  0.50000000  0.12935889  1.0
  Hf  Hf65  1  0.05474333  0.83333333  0.12935889  1.0
  Hf  Hf66  1  0.38807667  0.16666667  0.12935889  1.0
  Hf  Hf67  1  0.38807667  0.50000000  0.12935889  1.0
  Hf  Hf68  1  0.38807667  0.83333333  0.12935889  1.0
  Hf  Hf69  1  0.72141000  0.16666667  0.12935889  1.0
  Hf  Hf70  1  0.72141000  0.50000000  0.12935889  1.0
  Hf  Hf71  1  0.72141000  0.83333333  0.12935889  1.0
  Hf  Hf72  1  0.22141000  0.05718000  0.16747889  1.0
  Hf  Hf73  1  0.22141000  0.39051333  0.16747889  1.0
  Hf  Hf74  1  0.22141000  0.72384667  0.16747889  1.0
  Hf  Hf75  1  0.55474333  0.05718000  0.16747889  1.0
  Hf  Hf76  1  0.55474333  0.39051333  0.16747889  1.0
  Hf  Hf77  1  0.55474333  0.72384667  0.16747889  1.0
  Hf  Hf78  1  0.88807667  0.05718000  0.16747889  1.0
  Hf  Hf79  1  0.88807667  0.39051333  0.16747889  1.0
  Hf  Hf80  1  0.88807667  0.72384667  0.16747889  1.0
  Hf  Hf81  1  0.27859000  0.16666667  0.16747889  1.0
  Hf  Hf82  1  0.27859000  0.50000000  0.16747889  1.0
  Hf  Hf83  1  0.27859000  0.83333333  0.16747889  1.0
  Hf  Hf84  1  0.61192333  0.16666667  0.16747889  1.0
  Hf  Hf85  1  0.61192333  0.50000000  0.16747889  1.0
  Hf  Hf86  1  0.61192333  0.83333333  0.16747889  1.0
  Hf  Hf87  1  0.94525667  0.16666667  0.16747889  1.0
  Hf  Hf88  1  0.94525667  0.50000000  0.16747889  1.0
  Hf  Hf89  1  0.94525667  0.83333333  0.16747889  1.0
  Ni  Ni90  1  0.08333333  0.33333333  0.20397444  1.0
  Ni  Ni91  1  0.08333333  0.66666667  0.20397444  1.0
  Ni  Ni92  1  0.08333333  1.00000000  0.20397444  1.0
  Ni  Ni93  1  0.41666667  0.33333333  0.20397444  1.0
  Ni  Ni94  1  0.41666667  0.66666667  0.20397444  1.0
  Ni  Ni95  1  0.41666667  1.00000000  0.20397444  1.0
  Ni  Ni96  1  0.75000000  0.33333333  0.20397444  1.0
  Ni  Ni97  1  0.75000000  0.66666667  0.20397444  1.0
  Ni  Ni98  1  0.75000000  1.00000000  0.20397444  1.0
  Ni  Ni99  1  0.25000000  0.00000000  0.20397444  1.0
  Ni  Ni100  1  0.25000000  0.33333333  0.20397444  1.0
  Ni  Ni101  1  0.25000000  0.66666667  0.20397444  1.0
  Ni  Ni102  1  0.58333333  0.00000000  0.20397444  1.0
  Ni  Ni103  1  0.58333333  0.33333333  0.20397444  1.0
  Ni  Ni104  1  0.58333333  0.66666667  0.20397444  1.0
  Ni  Ni105  1  0.91666667  0.00000000  0.20397444  1.0
  Ni  Ni106  1  0.91666667  0.33333333  0.20397444  1.0
  Ni  Ni107  1  0.91666667  0.66666667  0.20397444  1.0
  Hf  Hf108  1  0.11192333  0.27615333  0.24047000  1.0
  Hf  Hf109  1  0.11192333  0.60948667  0.24047000  1.0
  Hf  Hf110  1  0.11192333  0.94282000  0.24047000  1.0
  Hf  Hf111  1  0.44525667  0.27615333  0.24047000  1.0
  Hf  Hf112  1  0.44525667  0.60948667  0.24047000  1.0
  Hf  Hf113  1  0.44525667  0.94282000  0.24047000  1.0
  Hf  Hf114  1  0.77859000  0.27615333  0.24047000  1.0
  Hf  Hf115  1  0.77859000  0.60948667  0.24047000  1.0
  Hf  Hf116  1  0.77859000  0.94282000  0.24047000  1.0
  Hf  Hf117  1  0.05474333  0.16666667  0.24047000  1.0
  Hf  Hf118  1  0.05474333  0.50000000  0.24047000  1.0
  Hf  Hf119  1  0.05474333  0.83333333  0.24047000  1.0
  Hf  Hf120  1  0.38807667  0.16666667  0.24047000  1.0
  Hf  Hf121  1  0.38807667  0.50000000  0.24047000  1.0
  Hf  Hf122  1  0.38807667  0.83333333  0.24047000  1.0
  Hf  Hf123  1  0.72141000  0.16666667  0.24047000  1.0
  Hf  Hf124  1  0.72141000  0.50000000  0.24047000  1.0
  Hf  Hf125  1  0.72141000  0.83333333  0.24047000  1.0
  Hf  Hf126  1  0.22141000  0.05718000  0.27859000  1.0
  Hf  Hf127  1  0.22141000  0.39051333  0.27859000  1.0
  Hf  Hf128  1  0.22141000  0.72384667  0.27859000  1.0
  Hf  Hf129  1  0.55474333  0.05718000  0.27859000  1.0
  Hf  Hf130  1  0.55474333  0.39051333  0.27859000  1.0
  Hf  Hf131  1  0.55474333  0.72384667  0.27859000  1.0
  Hf  Hf132  1  0.88807667  0.05718000  0.27859000  1.0
  Hf  Hf133  1  0.88807667  0.39051333  0.27859000  1.0
  Hf  Hf134  1  0.88807667  0.72384667  0.27859000  1.0
  Hf  Hf135  1  0.27859000  0.16666667  0.27859000  1.0
  Hf  Hf136  1  0.27859000  0.50000000  0.27859000  1.0
  Hf  Hf137  1  0.27859000  0.83333333  0.27859000  1.0
  Hf  Hf138  1  0.61192333  0.16666667  0.27859000  1.0
  Hf  Hf139  1  0.61192333  0.50000000  0.27859000  1.0
  Hf  Hf140  1  0.61192333  0.83333333  0.27859000  1.0
  Hf  Hf141  1  0.94525667  0.16666667  0.27859000  1.0
  Hf  Hf142  1  0.94525667  0.50000000  0.27859000  1.0
  Hf  Hf143  1  0.94525667  0.83333333  0.27859000  1.0
  Ni  Ni144  1  0.08333333  0.33333333  0.31508556  1.0
  Ni  Ni145  1  0.08333333  0.66666667  0.31508556  1.0
  Ni  Ni146  1  0.08333333  1.00000000  0.31508556  1.0
  Ni  Ni147  1  0.41666667  0.33333333  0.31508556  1.0
  Ni  Ni148  1  0.41666667  0.66666667  0.31508556  1.0
  Ni  Ni149  1  0.41666667  1.00000000  0.31508556  1.0
  Ni  Ni150  1  0.75000000  0.33333333  0.31508556  1.0
  Ni  Ni151  1  0.75000000  0.66666667  0.31508556  1.0
  Ni  Ni152  1  0.75000000  1.00000000  0.31508556  1.0
  Ni  Ni153  1  0.25000000  0.00000000  0.31508556  1.0
  Ni  Ni154  1  0.25000000  0.33333333  0.31508556  1.0
  Ni  Ni155  1  0.25000000  0.66666667  0.31508556  1.0
  Ni  Ni156  1  0.58333333  0.00000000  0.31508556  1.0
  Ni  Ni157  1  0.58333333  0.33333333  0.31508556  1.0
  Ni  Ni158  1  0.58333333  0.66666667  0.31508556  1.0
  Ni  Ni159  1  0.91666667  0.00000000  0.31508556  1.0
  Ni  Ni160  1  0.91666667  0.33333333  0.31508556  1.0
  Ni  Ni161  1  0.91666667  0.66666667  0.31508556  1.0
  Hf  Hf162  1  0.11192333  0.27615333  0.35158111  1.0
  Hf  Hf163  1  0.11192333  0.60948667  0.35158111  1.0
  Hf  Hf164  1  0.11192333  0.94282000  0.35158111  1.0
  Hf  Hf165  1  0.44525667  0.27615333  0.35158111  1.0
  Hf  Hf166  1  0.44525667  0.60948667  0.35158111  1.0
  Hf  Hf167  1  0.44525667  0.94282000  0.35158111  1.0
  Hf  Hf168  1  0.77859000  0.27615333  0.35158111  1.0
  Hf  Hf169  1  0.77859000  0.60948667  0.35158111  1.0
  Hf  Hf170  1  0.77859000  0.94282000  0.35158111  1.0
  Hf  Hf171  1  0.05474333  0.16666667  0.35158111  1.0
  Hf  Hf172  1  0.05474333  0.50000000  0.35158111  1.0
  Hf  Hf173  1  0.05474333  0.83333333  0.35158111  1.0
  Hf  Hf174  1  0.38807667  0.16666667  0.35158111  1.0
  Hf  Hf175  1  0.38807667  0.50000000  0.35158111  1.0
  Hf  Hf176  1  0.38807667  0.83333333  0.35158111  1.0
  Hf  Hf177  1  0.72141000  0.16666667  0.35158111  1.0
  Hf  Hf178  1  0.72141000  0.50000000  0.35158111  1.0
  Hf  Hf179  1  0.72141000  0.83333333  0.35158111  1.0
  Hf  Hf180  1  0.22141000  0.05718000  0.38970111  1.0
  Hf  Hf181  1  0.22141000  0.39051333  0.38970111  1.0
  Hf  Hf182  1  0.22141000  0.72384667  0.38970111  1.0
  Hf  Hf183  1  0.55474333  0.05718000  0.38970111  1.0
  Hf  Hf184  1  0.55474333  0.39051333  0.38970111  1.0
  Hf  Hf185  1  0.55474333  0.72384667  0.38970111  1.0
  Hf  Hf186  1  0.88807667  0.05718000  0.38970111  1.0
  Hf  Hf187  1  0.88807667  0.39051333  0.38970111  1.0
  Hf  Hf188  1  0.88807667  0.72384667  0.38970111  1.0
  Hf  Hf189  1  0.27859000  0.16666667  0.38970111  1.0
  Hf  Hf190  1  0.27859000  0.50000000  0.38970111  1.0
  Hf  Hf191  1  0.27859000  0.83333333  0.38970111  1.0
  Hf  Hf192  1  0.61192333  0.16666667  0.38970111  1.0
  Hf  Hf193  1  0.61192333  0.50000000  0.38970111  1.0
  Hf  Hf194  1  0.61192333  0.83333333  0.38970111  1.0
  Hf  Hf195  1  0.94525667  0.16666667  0.38970111  1.0
  Hf  Hf196  1  0.94525667  0.50000000  0.38970111  1.0
  Hf  Hf197  1  0.94525667  0.83333333  0.38970111  1.0
  Ni  Ni198  1  0.08333333  0.33333333  0.42619667  1.0
  Ni  Ni199  1  0.08333333  0.66666667  0.42619667  1.0
  Ni  Ni200  1  0.08333333  1.00000000  0.42619667  1.0
  Ni  Ni201  1  0.41666667  0.33333333  0.42619667  1.0
  Ni  Ni202  1  0.41666667  0.66666667  0.42619667  1.0
  Ni  Ni203  1  0.41666667  1.00000000  0.42619667  1.0
  Ni  Ni204  1  0.75000000  0.33333333  0.42619667  1.0
  Ni  Ni205  1  0.75000000  0.66666667  0.42619667  1.0
  Ni  Ni206  1  0.75000000  1.00000000  0.42619667  1.0
  Ni  Ni207  1  0.25000000  0.00000000  0.42619667  1.0
  Ni  Ni208  1  0.25000000  0.33333333  0.42619667  1.0
  Ni  Ni209  1  0.25000000  0.66666667  0.42619667  1.0
  Ni  Ni210  1  0.58333333  0.00000000  0.42619667  1.0
  Ni  Ni211  1  0.58333333  0.33333333  0.42619667  1.0
  Ni  Ni212  1  0.58333333  0.66666667  0.42619667  1.0
  Ni  Ni213  1  0.91666667  0.00000000  0.42619667  1.0
  Ni  Ni214  1  0.91666667  0.33333333  0.42619667  1.0
  Ni  Ni215  1  0.91666667  0.66666667  0.42619667  1.0
