# generated using pymatgen
data_Hf2Ni7
_symmetry_space_group_name_H-M   'P 1'
_cell_length_a   24.96901424
_cell_length_b   30.87477099
_cell_length_c   27.23025631
_cell_angle_alpha   96.08122056
_cell_angle_beta   96.88130840
_cell_angle_gamma   96.49730810
_symmetry_Int_Tables_number   1
_chemical_formula_structural   Hf2Ni7
_chemical_formula_sum   'Hf144 Ni504'
_cell_volume   20554.57170391
_cell_formula_units_Z   72
loop_
 _symmetry_equiv_pos_site_id
 _symmetry_equiv_pos_as_xyz
  1  'x, y, z'
loop_
 _atom_site_type_symbol
 _atom_site_label
 _atom_site_symmetry_multiplicity
 _atom_site_fract_x
 _atom_site_fract_y
 _atom_site_fract_z
 _atom_site_occupancy
  Hf  Hf0  1  0.25112570  0.20330623  0.04290480  1.0
  Hf  Hf1  1  0.25112570  0.53663957  0.04290480  1.0
  Hf  Hf2  1  0.25112570  0.86997290  0.04290480  1.0
  Hf  Hf3  1  0.58445903  0.20330623  0.04290480  1.0
  Hf  Hf4  1  0.58445903  0.53663957  0.04290480  1.0
  Hf  Hf5  1  0.58445903  0.86997290  0.04290480  1.0
  Hf  Hf6  1  0.91779237  0.20330623  0.04290480  1.0
  Hf  Hf7  1  0.91779237  0.53663957  0.04290480  1.0
  Hf  Hf8  1  0.91779237  0.86997290  0.04290480  1.0
  Hf  Hf9  1  0.11779237  0.10330623  0.09290480  1.0
  Hf  Hf10  1  0.11779237  0.43663957  0.09290480  1.0
  Hf  Hf11  1  0.11779237  0.76997290  0.09290480  1.0
  Hf  Hf12  1  0.45112570  0.10330623  0.09290480  1.0
  Hf  Hf13  1  0.45112570  0.43663957  0.09290480  1.0
  Hf  Hf14  1  0.45112570  0.76997290  0.09290480  1.0
  Hf  Hf15  1  0.78445903  0.10330623  0.09290480  1.0
  Hf  Hf16  1  0.78445903  0.43663957  0.09290480  1.0
  Hf  Hf17  1  0.78445903  0.76997290  0.09290480  1.0
  Hf  Hf18  1  0.14530290  0.25621763  0.05173810  1.0
  Hf  Hf19  1  0.14530290  0.58955097  0.05173810  1.0
  Hf  Hf20  1  0.14530290  0.92288430  0.05173810  1.0
  Hf  Hf21  1  0.47863623  0.25621763  0.05173810  1.0
  Hf  Hf22  1  0.47863623  0.58955097  0.05173810  1.0
  Hf  Hf23  1  0.47863623  0.92288430  0.05173810  1.0
  Hf  Hf24  1  0.81196957  0.25621763  0.05173810  1.0
  Hf  Hf25  1  0.81196957  0.58955097  0.05173810  1.0
  Hf  Hf26  1  0.81196957  0.92288430  0.05173810  1.0
  Hf  Hf27  1  0.27863623  0.02288430  0.00173810  1.0
  Hf  Hf28  1  0.27863623  0.35621763  0.00173810  1.0
  Hf  Hf29  1  0.27863623  0.68955097  0.00173810  1.0
  Hf  Hf30  1  0.61196957  0.02288430  0.00173810  1.0
  Hf  Hf31  1  0.61196957  0.35621763  0.00173810  1.0
  Hf  Hf32  1  0.61196957  0.68955097  0.00173810  1.0
  Hf  Hf33  1  0.94530290  0.02288430  0.00173810  1.0
  Hf  Hf34  1  0.94530290  0.35621763  0.00173810  1.0
  Hf  Hf35  1  0.94530290  0.68955097  0.00173810  1.0
  Hf  Hf36  1  0.31779237  0.00330623  0.14290480  1.0
  Hf  Hf37  1  0.31779237  0.33663957  0.14290480  1.0
  Hf  Hf38  1  0.31779237  0.66997290  0.14290480  1.0
  Hf  Hf39  1  0.65112570  0.00330623  0.14290480  1.0
  Hf  Hf40  1  0.65112570  0.33663957  0.14290480  1.0
  Hf  Hf41  1  0.65112570  0.66997290  0.14290480  1.0
  Hf  Hf42  1  0.98445903  0.00330623  0.14290480  1.0
  Hf  Hf43  1  0.98445903  0.33663957  0.14290480  1.0
  Hf  Hf44  1  0.98445903  0.66997290  0.14290480  1.0
  Hf  Hf45  1  0.18445903  0.23663957  0.19290480  1.0
  Hf  Hf46  1  0.18445903  0.56997290  0.19290480  1.0
  Hf  Hf47  1  0.18445903  0.90330623  0.19290480  1.0
  Hf  Hf48  1  0.51779237  0.23663957  0.19290480  1.0
  Hf  Hf49  1  0.51779237  0.56997290  0.19290480  1.0
  Hf  Hf50  1  0.51779237  0.90330623  0.19290480  1.0
  Hf  Hf51  1  0.85112570  0.23663957  0.19290480  1.0
  Hf  Hf52  1  0.85112570  0.56997290  0.19290480  1.0
  Hf  Hf53  1  0.85112570  0.90330623  0.19290480  1.0
  Hf  Hf54  1  0.21196957  0.05621763  0.15173810  1.0
  Hf  Hf55  1  0.21196957  0.38955097  0.15173810  1.0
  Hf  Hf56  1  0.21196957  0.72288430  0.15173810  1.0
  Hf  Hf57  1  0.54530290  0.05621763  0.15173810  1.0
  Hf  Hf58  1  0.54530290  0.38955097  0.15173810  1.0
  Hf  Hf59  1  0.54530290  0.72288430  0.15173810  1.0
  Hf  Hf60  1  0.87863623  0.05621763  0.15173810  1.0
  Hf  Hf61  1  0.87863623  0.38955097  0.15173810  1.0
  Hf  Hf62  1  0.87863623  0.72288430  0.15173810  1.0
  Hf  Hf63  1  0.01196957  0.15621763  0.10173810  1.0
  Hf  Hf64  1  0.01196957  0.48955097  0.10173810  1.0
  Hf  Hf65  1  0.01196957  0.82288430  0.10173810  1.0
  Hf  Hf66  1  0.34530290  0.15621763  0.10173810  1.0
  Hf  Hf67  1  0.34530290  0.48955097  0.10173810  1.0
  Hf  Hf68  1  0.34530290  0.82288430  0.10173810  1.0
  Hf  Hf69  1  0.67863623  0.15621763  0.10173810  1.0
  Hf  Hf70  1  0.67863623  0.48955097  0.10173810  1.0
  Hf  Hf71  1  0.67863623  0.82288430  0.10173810  1.0
  Hf  Hf72  1  0.05112570  0.13663957  0.24290480  1.0
  Hf  Hf73  1  0.05112570  0.46997290  0.24290480  1.0
  Hf  Hf74  1  0.05112570  0.80330623  0.24290480  1.0
  Hf  Hf75  1  0.38445903  0.13663957  0.24290480  1.0
  Hf  Hf76  1  0.38445903  0.46997290  0.24290480  1.0
  Hf  Hf77  1  0.38445903  0.80330623  0.24290480  1.0
  Hf  Hf78  1  0.71779237  0.13663957  0.24290480  1.0
  Hf  Hf79  1  0.71779237  0.46997290  0.24290480  1.0
  Hf  Hf80  1  0.71779237  0.80330623  0.24290480  1.0
  Hf  Hf81  1  0.25112570  0.03663957  0.29290480  1.0
  Hf  Hf82  1  0.25112570  0.36997290  0.29290480  1.0
  Hf  Hf83  1  0.25112570  0.70330623  0.29290480  1.0
  Hf  Hf84  1  0.58445903  0.03663957  0.29290480  1.0
  Hf  Hf85  1  0.58445903  0.36997290  0.29290480  1.0
  Hf  Hf86  1  0.58445903  0.70330623  0.29290480  1.0
  Hf  Hf87  1  0.91779237  0.03663957  0.29290480  1.0
  Hf  Hf88  1  0.91779237  0.36997290  0.29290480  1.0
  Hf  Hf89  1  0.91779237  0.70330623  0.29290480  1.0
  Hf  Hf90  1  0.27863623  0.18955097  0.25173810  1.0
  Hf  Hf91  1  0.27863623  0.52288430  0.25173810  1.0
  Hf  Hf92  1  0.27863623  0.85621763  0.25173810  1.0
  Hf  Hf93  1  0.61196957  0.18955097  0.25173810  1.0
  Hf  Hf94  1  0.61196957  0.52288430  0.25173810  1.0
  Hf  Hf95  1  0.61196957  0.85621763  0.25173810  1.0
  Hf  Hf96  1  0.94530290  0.18955097  0.25173810  1.0
  Hf  Hf97  1  0.94530290  0.52288430  0.25173810  1.0
  Hf  Hf98  1  0.94530290  0.85621763  0.25173810  1.0
  Hf  Hf99  1  0.07863623  0.28955097  0.20173810  1.0
  Hf  Hf100  1  0.07863623  0.62288430  0.20173810  1.0
  Hf  Hf101  1  0.07863623  0.95621763  0.20173810  1.0
  Hf  Hf102  1  0.41196957  0.28955097  0.20173810  1.0
  Hf  Hf103  1  0.41196957  0.62288430  0.20173810  1.0
  Hf  Hf104  1  0.41196957  0.95621763  0.20173810  1.0
  Hf  Hf105  1  0.74530290  0.28955097  0.20173810  1.0
  Hf  Hf106  1  0.74530290  0.62288430  0.20173810  1.0
  Hf  Hf107  1  0.74530290  0.95621763  0.20173810  1.0
  Hf  Hf108  1  0.11779237  0.26997290  0.34290480  1.0
  Hf  Hf109  1  0.11779237  0.60330623  0.34290480  1.0
  Hf  Hf110  1  0.11779237  0.93663957  0.34290480  1.0
  Hf  Hf111  1  0.45112570  0.26997290  0.34290480  1.0
  Hf  Hf112  1  0.45112570  0.60330623  0.34290480  1.0
  Hf  Hf113  1  0.45112570  0.93663957  0.34290480  1.0
  Hf  Hf114  1  0.78445903  0.26997290  0.34290480  1.0
  Hf  Hf115  1  0.78445903  0.60330623  0.34290480  1.0
  Hf  Hf116  1  0.78445903  0.93663957  0.34290480  1.0
  Hf  Hf117  1  0.31779237  0.16997290  0.39290480  1.0
  Hf  Hf118  1  0.31779237  0.50330623  0.39290480  1.0
  Hf  Hf119  1  0.31779237  0.83663957  0.39290480  1.0
  Hf  Hf120  1  0.65112570  0.16997290  0.39290480  1.0
  Hf  Hf121  1  0.65112570  0.50330623  0.39290480  1.0
  Hf  Hf122  1  0.65112570  0.83663957  0.39290480  1.0
  Hf  Hf123  1  0.98445903  0.16997290  0.39290480  1.0
  Hf  Hf124  1  0.98445903  0.50330623  0.39290480  1.0
  Hf  Hf125  1  0.98445903  0.83663957  0.39290480  1.0
  Hf  Hf126  1  0.01196957  0.32288430  0.35173810  1.0
  Hf  Hf127  1  0.01196957  0.65621763  0.35173810  1.0
  Hf  Hf128  1  0.01196957  0.98955097  0.35173810  1.0
  Hf  Hf129  1  0.34530290  0.32288430  0.35173810  1.0
  Hf  Hf130  1  0.34530290  0.65621763  0.35173810  1.0
  Hf  Hf131  1  0.34530290  0.98955097  0.35173810  1.0
  Hf  Hf132  1  0.67863623  0.32288430  0.35173810  1.0
  Hf  Hf133  1  0.67863623  0.65621763  0.35173810  1.0
  Hf  Hf134  1  0.67863623  0.98955097  0.35173810  1.0
  Hf  Hf135  1  0.14530290  0.08955097  0.30173810  1.0
  Hf  Hf136  1  0.14530290  0.42288430  0.30173810  1.0
  Hf  Hf137  1  0.14530290  0.75621763  0.30173810  1.0
  Hf  Hf138  1  0.47863623  0.08955097  0.30173810  1.0
  Hf  Hf139  1  0.47863623  0.42288430  0.30173810  1.0
  Hf  Hf140  1  0.47863623  0.75621763  0.30173810  1.0
  Hf  Hf141  1  0.81196957  0.08955097  0.30173810  1.0
  Hf  Hf142  1  0.81196957  0.42288430  0.30173810  1.0
  Hf  Hf143  1  0.81196957  0.75621763  0.30173810  1.0
  Ni  Ni144  1  0.13154763  0.01309527  0.07232145  1.0
  Ni  Ni145  1  0.13154763  0.34642860  0.07232145  1.0
  Ni  Ni146  1  0.13154763  0.67976193  0.07232145  1.0
  Ni  Ni147  1  0.46488097  0.01309527  0.07232145  1.0
  Ni  Ni148  1  0.46488097  0.34642860  0.07232145  1.0
  Ni  Ni149  1  0.46488097  0.67976193  0.07232145  1.0
  Ni  Ni150  1  0.79821430  0.01309527  0.07232145  1.0
  Ni  Ni151  1  0.79821430  0.34642860  0.07232145  1.0
  Ni  Ni152  1  0.79821430  0.67976193  0.07232145  1.0
  Ni  Ni153  1  0.26488097  0.11309527  0.02232145  1.0
  Ni  Ni154  1  0.26488097  0.44642860  0.02232145  1.0
  Ni  Ni155  1  0.26488097  0.77976193  0.02232145  1.0
  Ni  Ni156  1  0.59821430  0.11309527  0.02232145  1.0
  Ni  Ni157  1  0.59821430  0.44642860  0.02232145  1.0
  Ni  Ni158  1  0.59821430  0.77976193  0.02232145  1.0
  Ni  Ni159  1  0.93154763  0.11309527  0.02232145  1.0
  Ni  Ni160  1  0.93154763  0.44642860  0.02232145  1.0
  Ni  Ni161  1  0.93154763  0.77976193  0.02232145  1.0
  Ni  Ni162  1  0.03154763  0.22976193  0.04732145  1.0
  Ni  Ni163  1  0.03154763  0.56309527  0.04732145  1.0
  Ni  Ni164  1  0.03154763  0.89642860  0.04732145  1.0
  Ni  Ni165  1  0.36488097  0.22976193  0.04732145  1.0
  Ni  Ni166  1  0.36488097  0.56309527  0.04732145  1.0
  Ni  Ni167  1  0.36488097  0.89642860  0.04732145  1.0
  Ni  Ni168  1  0.69821430  0.22976193  0.04732145  1.0
  Ni  Ni169  1  0.69821430  0.56309527  0.04732145  1.0
  Ni  Ni170  1  0.69821430  0.89642860  0.04732145  1.0
  Ni  Ni171  1  0.23154763  0.12976193  0.09732145  1.0
  Ni  Ni172  1  0.23154763  0.46309527  0.09732145  1.0
  Ni  Ni173  1  0.23154763  0.79642860  0.09732145  1.0
  Ni  Ni174  1  0.56488097  0.12976193  0.09732145  1.0
  Ni  Ni175  1  0.56488097  0.46309527  0.09732145  1.0
  Ni  Ni176  1  0.56488097  0.79642860  0.09732145  1.0
  Ni  Ni177  1  0.89821430  0.12976193  0.09732145  1.0
  Ni  Ni178  1  0.89821430  0.46309527  0.09732145  1.0
  Ni  Ni179  1  0.89821430  0.79642860  0.09732145  1.0
  Ni  Ni180  1  0.30478037  0.28816273  0.05267855  1.0
  Ni  Ni181  1  0.30478037  0.62149607  0.05267855  1.0
  Ni  Ni182  1  0.30478037  0.95482940  0.05267855  1.0
  Ni  Ni183  1  0.63811370  0.28816273  0.05267855  1.0
  Ni  Ni184  1  0.63811370  0.62149607  0.05267855  1.0
  Ni  Ni185  1  0.63811370  0.95482940  0.05267855  1.0
  Ni  Ni186  1  0.97144703  0.28816273  0.05267855  1.0
  Ni  Ni187  1  0.97144703  0.62149607  0.05267855  1.0
  Ni  Ni188  1  0.97144703  0.95482940  0.05267855  1.0
  Ni  Ni189  1  0.10478037  0.05482940  0.00267855  1.0
  Ni  Ni190  1  0.10478037  0.38816273  0.00267855  1.0
  Ni  Ni191  1  0.10478037  0.72149607  0.00267855  1.0
  Ni  Ni192  1  0.43811370  0.05482940  0.00267855  1.0
  Ni  Ni193  1  0.43811370  0.38816273  0.00267855  1.0
  Ni  Ni194  1  0.43811370  0.72149607  0.00267855  1.0
  Ni  Ni195  1  0.77144703  0.05482940  0.00267855  1.0
  Ni  Ni196  1  0.77144703  0.38816273  0.00267855  1.0
  Ni  Ni197  1  0.77144703  0.72149607  0.00267855  1.0
  Ni  Ni198  1  0.09164823  0.17136113  0.04196435  1.0
  Ni  Ni199  1  0.09164823  0.50469447  0.04196435  1.0
  Ni  Ni200  1  0.09164823  0.83802780  0.04196435  1.0
  Ni  Ni201  1  0.42498157  0.17136113  0.04196435  1.0
  Ni  Ni202  1  0.42498157  0.50469447  0.04196435  1.0
  Ni  Ni203  1  0.42498157  0.83802780  0.04196435  1.0
  Ni  Ni204  1  0.75831490  0.17136113  0.04196435  1.0
  Ni  Ni205  1  0.75831490  0.50469447  0.04196435  1.0
  Ni  Ni206  1  0.75831490  0.83802780  0.04196435  1.0
  Ni  Ni207  1  0.29164823  0.07136113  0.09196435  1.0
  Ni  Ni208  1  0.29164823  0.40469447  0.09196435  1.0
  Ni  Ni209  1  0.29164823  0.73802780  0.09196435  1.0
  Ni  Ni210  1  0.62498157  0.07136113  0.09196435  1.0
  Ni  Ni211  1  0.62498157  0.40469447  0.09196435  1.0
  Ni  Ni212  1  0.62498157  0.73802780  0.09196435  1.0
  Ni  Ni213  1  0.95831490  0.07136113  0.09196435  1.0
  Ni  Ni214  1  0.95831490  0.40469447  0.09196435  1.0
  Ni  Ni215  1  0.95831490  0.73802780  0.09196435  1.0
  Ni  Ni216  1  0.02566883  0.09438517  0.02546950  1.0
  Ni  Ni217  1  0.02566883  0.42771850  0.02546950  1.0
  Ni  Ni218  1  0.02566883  0.76105183  0.02546950  1.0
  Ni  Ni219  1  0.35900217  0.09438517  0.02546950  1.0
  Ni  Ni220  1  0.35900217  0.42771850  0.02546950  1.0
  Ni  Ni221  1  0.35900217  0.76105183  0.02546950  1.0
  Ni  Ni222  1  0.69233550  0.09438517  0.02546950  1.0
  Ni  Ni223  1  0.69233550  0.42771850  0.02546950  1.0
  Ni  Ni224  1  0.69233550  0.76105183  0.02546950  1.0
  Ni  Ni225  1  0.22566883  0.32771850  0.07546950  1.0
  Ni  Ni226  1  0.22566883  0.66105183  0.07546950  1.0
  Ni  Ni227  1  0.22566883  0.99438517  0.07546950  1.0
  Ni  Ni228  1  0.55900217  0.32771850  0.07546950  1.0
  Ni  Ni229  1  0.55900217  0.66105183  0.07546950  1.0
  Ni  Ni230  1  0.55900217  0.99438517  0.07546950  1.0
  Ni  Ni231  1  0.89233550  0.32771850  0.07546950  1.0
  Ni  Ni232  1  0.89233550  0.66105183  0.07546950  1.0
  Ni  Ni233  1  0.89233550  0.99438517  0.07546950  1.0
  Ni  Ni234  1  0.03742643  0.03180537  0.06917340  1.0
  Ni  Ni235  1  0.03742643  0.36513870  0.06917340  1.0
  Ni  Ni236  1  0.03742643  0.69847203  0.06917340  1.0
  Ni  Ni237  1  0.37075977  0.03180537  0.06917340  1.0
  Ni  Ni238  1  0.37075977  0.36513870  0.06917340  1.0
  Ni  Ni239  1  0.37075977  0.69847203  0.06917340  1.0
  Ni  Ni240  1  0.70409310  0.03180537  0.06917340  1.0
  Ni  Ni241  1  0.70409310  0.36513870  0.06917340  1.0
  Ni  Ni242  1  0.70409310  0.69847203  0.06917340  1.0
  Ni  Ni243  1  0.17075977  0.13180537  0.01917340  1.0
  Ni  Ni244  1  0.17075977  0.46513870  0.01917340  1.0
  Ni  Ni245  1  0.17075977  0.79847203  0.01917340  1.0
  Ni  Ni246  1  0.50409310  0.13180537  0.01917340  1.0
  Ni  Ni247  1  0.50409310  0.46513870  0.01917340  1.0
  Ni  Ni248  1  0.50409310  0.79847203  0.01917340  1.0
  Ni  Ni249  1  0.83742643  0.13180537  0.01917340  1.0
  Ni  Ni250  1  0.83742643  0.46513870  0.01917340  1.0
  Ni  Ni251  1  0.83742643  0.79847203  0.01917340  1.0
  Ni  Ni252  1  0.06488097  0.29642860  0.09732145  1.0
  Ni  Ni253  1  0.06488097  0.62976193  0.09732145  1.0
  Ni  Ni254  1  0.06488097  0.96309527  0.09732145  1.0
  Ni  Ni255  1  0.39821430  0.29642860  0.09732145  1.0
  Ni  Ni256  1  0.39821430  0.62976193  0.09732145  1.0
  Ni  Ni257  1  0.39821430  0.96309527  0.09732145  1.0
  Ni  Ni258  1  0.73154763  0.29642860  0.09732145  1.0
  Ni  Ni259  1  0.73154763  0.62976193  0.09732145  1.0
  Ni  Ni260  1  0.73154763  0.96309527  0.09732145  1.0
  Ni  Ni261  1  0.19821430  0.06309527  0.04732145  1.0
  Ni  Ni262  1  0.19821430  0.39642860  0.04732145  1.0
  Ni  Ni263  1  0.19821430  0.72976193  0.04732145  1.0
  Ni  Ni264  1  0.53154763  0.06309527  0.04732145  1.0
  Ni  Ni265  1  0.53154763  0.39642860  0.04732145  1.0
  Ni  Ni266  1  0.53154763  0.72976193  0.04732145  1.0
  Ni  Ni267  1  0.86488097  0.06309527  0.04732145  1.0
  Ni  Ni268  1  0.86488097  0.39642860  0.04732145  1.0
  Ni  Ni269  1  0.86488097  0.72976193  0.04732145  1.0
  Ni  Ni270  1  0.19821430  0.14642860  0.17232145  1.0
  Ni  Ni271  1  0.19821430  0.47976193  0.17232145  1.0
  Ni  Ni272  1  0.19821430  0.81309527  0.17232145  1.0
  Ni  Ni273  1  0.53154763  0.14642860  0.17232145  1.0
  Ni  Ni274  1  0.53154763  0.47976193  0.17232145  1.0
  Ni  Ni275  1  0.53154763  0.81309527  0.17232145  1.0
  Ni  Ni276  1  0.86488097  0.14642860  0.17232145  1.0
  Ni  Ni277  1  0.86488097  0.47976193  0.17232145  1.0
  Ni  Ni278  1  0.86488097  0.81309527  0.17232145  1.0
  Ni  Ni279  1  0.33154763  0.24642860  0.12232145  1.0
  Ni  Ni280  1  0.33154763  0.57976193  0.12232145  1.0
  Ni  Ni281  1  0.33154763  0.91309527  0.12232145  1.0
  Ni  Ni282  1  0.66488097  0.24642860  0.12232145  1.0
  Ni  Ni283  1  0.66488097  0.57976193  0.12232145  1.0
  Ni  Ni284  1  0.66488097  0.91309527  0.12232145  1.0
  Ni  Ni285  1  0.99821430  0.24642860  0.12232145  1.0
  Ni  Ni286  1  0.99821430  0.57976193  0.12232145  1.0
  Ni  Ni287  1  0.99821430  0.91309527  0.12232145  1.0
  Ni  Ni288  1  0.09821430  0.02976193  0.14732145  1.0
  Ni  Ni289  1  0.09821430  0.36309527  0.14732145  1.0
  Ni  Ni290  1  0.09821430  0.69642860  0.14732145  1.0
  Ni  Ni291  1  0.43154763  0.02976193  0.14732145  1.0
  Ni  Ni292  1  0.43154763  0.36309527  0.14732145  1.0
  Ni  Ni293  1  0.43154763  0.69642860  0.14732145  1.0
  Ni  Ni294  1  0.76488097  0.02976193  0.14732145  1.0
  Ni  Ni295  1  0.76488097  0.36309527  0.14732145  1.0
  Ni  Ni296  1  0.76488097  0.69642860  0.14732145  1.0
  Ni  Ni297  1  0.29821430  0.26309527  0.19732145  1.0
  Ni  Ni298  1  0.29821430  0.59642860  0.19732145  1.0
  Ni  Ni299  1  0.29821430  0.92976193  0.19732145  1.0
  Ni  Ni300  1  0.63154763  0.26309527  0.19732145  1.0
  Ni  Ni301  1  0.63154763  0.59642860  0.19732145  1.0
  Ni  Ni302  1  0.63154763  0.92976193  0.19732145  1.0
  Ni  Ni303  1  0.96488097  0.26309527  0.19732145  1.0
  Ni  Ni304  1  0.96488097  0.59642860  0.19732145  1.0
  Ni  Ni305  1  0.96488097  0.92976193  0.19732145  1.0
  Ni  Ni306  1  0.03811370  0.08816273  0.15267855  1.0
  Ni  Ni307  1  0.03811370  0.42149607  0.15267855  1.0
  Ni  Ni308  1  0.03811370  0.75482940  0.15267855  1.0
  Ni  Ni309  1  0.37144703  0.08816273  0.15267855  1.0
  Ni  Ni310  1  0.37144703  0.42149607  0.15267855  1.0
  Ni  Ni311  1  0.37144703  0.75482940  0.15267855  1.0
  Ni  Ni312  1  0.70478037  0.08816273  0.15267855  1.0
  Ni  Ni313  1  0.70478037  0.42149607  0.15267855  1.0
  Ni  Ni314  1  0.70478037  0.75482940  0.15267855  1.0
  Ni  Ni315  1  0.17144703  0.18816273  0.10267855  1.0
  Ni  Ni316  1  0.17144703  0.52149607  0.10267855  1.0
  Ni  Ni317  1  0.17144703  0.85482940  0.10267855  1.0
  Ni  Ni318  1  0.50478037  0.18816273  0.10267855  1.0
  Ni  Ni319  1  0.50478037  0.52149607  0.10267855  1.0
  Ni  Ni320  1  0.50478037  0.85482940  0.10267855  1.0
  Ni  Ni321  1  0.83811370  0.18816273  0.10267855  1.0
  Ni  Ni322  1  0.83811370  0.52149607  0.10267855  1.0
  Ni  Ni323  1  0.83811370  0.85482940  0.10267855  1.0
  Ni  Ni324  1  0.15831490  0.30469447  0.14196435  1.0
  Ni  Ni325  1  0.15831490  0.63802780  0.14196435  1.0
  Ni  Ni326  1  0.15831490  0.97136113  0.14196435  1.0
  Ni  Ni327  1  0.49164823  0.30469447  0.14196435  1.0
  Ni  Ni328  1  0.49164823  0.63802780  0.14196435  1.0
  Ni  Ni329  1  0.49164823  0.97136113  0.14196435  1.0
  Ni  Ni330  1  0.82498157  0.30469447  0.14196435  1.0
  Ni  Ni331  1  0.82498157  0.63802780  0.14196435  1.0
  Ni  Ni332  1  0.82498157  0.97136113  0.14196435  1.0
  Ni  Ni333  1  0.02498157  0.20469447  0.19196435  1.0
  Ni  Ni334  1  0.02498157  0.53802780  0.19196435  1.0
  Ni  Ni335  1  0.02498157  0.87136113  0.19196435  1.0
  Ni  Ni336  1  0.35831490  0.20469447  0.19196435  1.0
  Ni  Ni337  1  0.35831490  0.53802780  0.19196435  1.0
  Ni  Ni338  1  0.35831490  0.87136113  0.19196435  1.0
  Ni  Ni339  1  0.69164823  0.20469447  0.19196435  1.0
  Ni  Ni340  1  0.69164823  0.53802780  0.19196435  1.0
  Ni  Ni341  1  0.69164823  0.87136113  0.19196435  1.0
  Ni  Ni342  1  0.09233550  0.22771850  0.12546950  1.0
  Ni  Ni343  1  0.09233550  0.56105183  0.12546950  1.0
  Ni  Ni344  1  0.09233550  0.89438517  0.12546950  1.0
  Ni  Ni345  1  0.42566883  0.22771850  0.12546950  1.0
  Ni  Ni346  1  0.42566883  0.56105183  0.12546950  1.0
  Ni  Ni347  1  0.42566883  0.89438517  0.12546950  1.0
  Ni  Ni348  1  0.75900217  0.22771850  0.12546950  1.0
  Ni  Ni349  1  0.75900217  0.56105183  0.12546950  1.0
  Ni  Ni350  1  0.75900217  0.89438517  0.12546950  1.0
  Ni  Ni351  1  0.29233550  0.12771850  0.17546950  1.0
  Ni  Ni352  1  0.29233550  0.46105183  0.17546950  1.0
  Ni  Ni353  1  0.29233550  0.79438517  0.17546950  1.0
  Ni  Ni354  1  0.62566883  0.12771850  0.17546950  1.0
  Ni  Ni355  1  0.62566883  0.46105183  0.17546950  1.0
  Ni  Ni356  1  0.62566883  0.79438517  0.17546950  1.0
  Ni  Ni357  1  0.95900217  0.12771850  0.17546950  1.0
  Ni  Ni358  1  0.95900217  0.46105183  0.17546950  1.0
  Ni  Ni359  1  0.95900217  0.79438517  0.17546950  1.0
  Ni  Ni360  1  0.10409310  0.16513870  0.16917340  1.0
  Ni  Ni361  1  0.10409310  0.49847203  0.16917340  1.0
  Ni  Ni362  1  0.10409310  0.83180537  0.16917340  1.0
  Ni  Ni363  1  0.43742643  0.16513870  0.16917340  1.0
  Ni  Ni364  1  0.43742643  0.49847203  0.16917340  1.0
  Ni  Ni365  1  0.43742643  0.83180537  0.16917340  1.0
  Ni  Ni366  1  0.77075977  0.16513870  0.16917340  1.0
  Ni  Ni367  1  0.77075977  0.49847203  0.16917340  1.0
  Ni  Ni368  1  0.77075977  0.83180537  0.16917340  1.0
  Ni  Ni369  1  0.23742643  0.26513870  0.11917340  1.0
  Ni  Ni370  1  0.23742643  0.59847203  0.11917340  1.0
  Ni  Ni371  1  0.23742643  0.93180537  0.11917340  1.0
  Ni  Ni372  1  0.57075977  0.26513870  0.11917340  1.0
  Ni  Ni373  1  0.57075977  0.59847203  0.11917340  1.0
  Ni  Ni374  1  0.57075977  0.93180537  0.11917340  1.0
  Ni  Ni375  1  0.90409310  0.26513870  0.11917340  1.0
  Ni  Ni376  1  0.90409310  0.59847203  0.11917340  1.0
  Ni  Ni377  1  0.90409310  0.93180537  0.11917340  1.0
  Ni  Ni378  1  0.13154763  0.09642860  0.19732145  1.0
  Ni  Ni379  1  0.13154763  0.42976193  0.19732145  1.0
  Ni  Ni380  1  0.13154763  0.76309527  0.19732145  1.0
  Ni  Ni381  1  0.46488097  0.09642860  0.19732145  1.0
  Ni  Ni382  1  0.46488097  0.42976193  0.19732145  1.0
  Ni  Ni383  1  0.46488097  0.76309527  0.19732145  1.0
  Ni  Ni384  1  0.79821430  0.09642860  0.19732145  1.0
  Ni  Ni385  1  0.79821430  0.42976193  0.19732145  1.0
  Ni  Ni386  1  0.79821430  0.76309527  0.19732145  1.0
  Ni  Ni387  1  0.26488097  0.19642860  0.14732145  1.0
  Ni  Ni388  1  0.26488097  0.52976193  0.14732145  1.0
  Ni  Ni389  1  0.26488097  0.86309527  0.14732145  1.0
  Ni  Ni390  1  0.59821430  0.19642860  0.14732145  1.0
  Ni  Ni391  1  0.59821430  0.52976193  0.14732145  1.0
  Ni  Ni392  1  0.59821430  0.86309527  0.14732145  1.0
  Ni  Ni393  1  0.93154763  0.19642860  0.14732145  1.0
  Ni  Ni394  1  0.93154763  0.52976193  0.14732145  1.0
  Ni  Ni395  1  0.93154763  0.86309527  0.14732145  1.0
  Ni  Ni396  1  0.26488097  0.27976193  0.27232145  1.0
  Ni  Ni397  1  0.26488097  0.61309527  0.27232145  1.0
  Ni  Ni398  1  0.26488097  0.94642860  0.27232145  1.0
  Ni  Ni399  1  0.59821430  0.27976193  0.27232145  1.0
  Ni  Ni400  1  0.59821430  0.61309527  0.27232145  1.0
  Ni  Ni401  1  0.59821430  0.94642860  0.27232145  1.0
  Ni  Ni402  1  0.93154763  0.27976193  0.27232145  1.0
  Ni  Ni403  1  0.93154763  0.61309527  0.27232145  1.0
  Ni  Ni404  1  0.93154763  0.94642860  0.27232145  1.0
  Ni  Ni405  1  0.06488097  0.04642860  0.22232145  1.0
  Ni  Ni406  1  0.06488097  0.37976193  0.22232145  1.0
  Ni  Ni407  1  0.06488097  0.71309527  0.22232145  1.0
  Ni  Ni408  1  0.39821430  0.04642860  0.22232145  1.0
  Ni  Ni409  1  0.39821430  0.37976193  0.22232145  1.0
  Ni  Ni410  1  0.39821430  0.71309527  0.22232145  1.0
  Ni  Ni411  1  0.73154763  0.04642860  0.22232145  1.0
  Ni  Ni412  1  0.73154763  0.37976193  0.22232145  1.0
  Ni  Ni413  1  0.73154763  0.71309527  0.22232145  1.0
  Ni  Ni414  1  0.16488097  0.16309527  0.24732145  1.0
  Ni  Ni415  1  0.16488097  0.49642860  0.24732145  1.0
  Ni  Ni416  1  0.16488097  0.82976193  0.24732145  1.0
  Ni  Ni417  1  0.49821430  0.16309527  0.24732145  1.0
  Ni  Ni418  1  0.49821430  0.49642860  0.24732145  1.0
  Ni  Ni419  1  0.49821430  0.82976193  0.24732145  1.0
  Ni  Ni420  1  0.83154763  0.16309527  0.24732145  1.0
  Ni  Ni421  1  0.83154763  0.49642860  0.24732145  1.0
  Ni  Ni422  1  0.83154763  0.82976193  0.24732145  1.0
  Ni  Ni423  1  0.03154763  0.06309527  0.29732145  1.0
  Ni  Ni424  1  0.03154763  0.39642860  0.29732145  1.0
  Ni  Ni425  1  0.03154763  0.72976193  0.29732145  1.0
  Ni  Ni426  1  0.36488097  0.06309527  0.29732145  1.0
  Ni  Ni427  1  0.36488097  0.39642860  0.29732145  1.0
  Ni  Ni428  1  0.36488097  0.72976193  0.29732145  1.0
  Ni  Ni429  1  0.69821430  0.06309527  0.29732145  1.0
  Ni  Ni430  1  0.69821430  0.39642860  0.29732145  1.0
  Ni  Ni431  1  0.69821430  0.72976193  0.29732145  1.0
  Ni  Ni432  1  0.10478037  0.22149607  0.25267855  1.0
  Ni  Ni433  1  0.10478037  0.55482940  0.25267855  1.0
  Ni  Ni434  1  0.10478037  0.88816273  0.25267855  1.0
  Ni  Ni435  1  0.43811370  0.22149607  0.25267855  1.0
  Ni  Ni436  1  0.43811370  0.55482940  0.25267855  1.0
  Ni  Ni437  1  0.43811370  0.88816273  0.25267855  1.0
  Ni  Ni438  1  0.77144703  0.22149607  0.25267855  1.0
  Ni  Ni439  1  0.77144703  0.55482940  0.25267855  1.0
  Ni  Ni440  1  0.77144703  0.88816273  0.25267855  1.0
  Ni  Ni441  1  0.23811370  0.32149607  0.20267855  1.0
  Ni  Ni442  1  0.23811370  0.65482940  0.20267855  1.0
  Ni  Ni443  1  0.23811370  0.98816273  0.20267855  1.0
  Ni  Ni444  1  0.57144703  0.32149607  0.20267855  1.0
  Ni  Ni445  1  0.57144703  0.65482940  0.20267855  1.0
  Ni  Ni446  1  0.57144703  0.98816273  0.20267855  1.0
  Ni  Ni447  1  0.90478037  0.32149607  0.20267855  1.0
  Ni  Ni448  1  0.90478037  0.65482940  0.20267855  1.0
  Ni  Ni449  1  0.90478037  0.98816273  0.20267855  1.0
  Ni  Ni450  1  0.22498157  0.10469447  0.24196435  1.0
  Ni  Ni451  1  0.22498157  0.43802780  0.24196435  1.0
  Ni  Ni452  1  0.22498157  0.77136113  0.24196435  1.0
  Ni  Ni453  1  0.55831490  0.10469447  0.24196435  1.0
  Ni  Ni454  1  0.55831490  0.43802780  0.24196435  1.0
  Ni  Ni455  1  0.55831490  0.77136113  0.24196435  1.0
  Ni  Ni456  1  0.89164823  0.10469447  0.24196435  1.0
  Ni  Ni457  1  0.89164823  0.43802780  0.24196435  1.0
  Ni  Ni458  1  0.89164823  0.77136113  0.24196435  1.0
  Ni  Ni459  1  0.09164823  0.00469447  0.29196435  1.0
  Ni  Ni460  1  0.09164823  0.33802780  0.29196435  1.0
  Ni  Ni461  1  0.09164823  0.67136113  0.29196435  1.0
  Ni  Ni462  1  0.42498157  0.00469447  0.29196435  1.0
  Ni  Ni463  1  0.42498157  0.33802780  0.29196435  1.0
  Ni  Ni464  1  0.42498157  0.67136113  0.29196435  1.0
  Ni  Ni465  1  0.75831490  0.00469447  0.29196435  1.0
  Ni  Ni466  1  0.75831490  0.33802780  0.29196435  1.0
  Ni  Ni467  1  0.75831490  0.67136113  0.29196435  1.0
  Ni  Ni468  1  0.15900217  0.02771850  0.22546950  1.0
  Ni  Ni469  1  0.15900217  0.36105183  0.22546950  1.0
  Ni  Ni470  1  0.15900217  0.69438517  0.22546950  1.0
  Ni  Ni471  1  0.49233550  0.02771850  0.22546950  1.0
  Ni  Ni472  1  0.49233550  0.36105183  0.22546950  1.0
  Ni  Ni473  1  0.49233550  0.69438517  0.22546950  1.0
  Ni  Ni474  1  0.82566883  0.02771850  0.22546950  1.0
  Ni  Ni475  1  0.82566883  0.36105183  0.22546950  1.0
  Ni  Ni476  1  0.82566883  0.69438517  0.22546950  1.0
  Ni  Ni477  1  0.02566883  0.26105183  0.27546950  1.0
  Ni  Ni478  1  0.02566883  0.59438517  0.27546950  1.0
  Ni  Ni479  1  0.02566883  0.92771850  0.27546950  1.0
  Ni  Ni480  1  0.35900217  0.26105183  0.27546950  1.0
  Ni  Ni481  1  0.35900217  0.59438517  0.27546950  1.0
  Ni  Ni482  1  0.35900217  0.92771850  0.27546950  1.0
  Ni  Ni483  1  0.69233550  0.26105183  0.27546950  1.0
  Ni  Ni484  1  0.69233550  0.59438517  0.27546950  1.0
  Ni  Ni485  1  0.69233550  0.92771850  0.27546950  1.0
  Ni  Ni486  1  0.17075977  0.29847203  0.26917340  1.0
  Ni  Ni487  1  0.17075977  0.63180537  0.26917340  1.0
  Ni  Ni488  1  0.17075977  0.96513870  0.26917340  1.0
  Ni  Ni489  1  0.50409310  0.29847203  0.26917340  1.0
  Ni  Ni490  1  0.50409310  0.63180537  0.26917340  1.0
  Ni  Ni491  1  0.50409310  0.96513870  0.26917340  1.0
  Ni  Ni492  1  0.83742643  0.29847203  0.26917340  1.0
  Ni  Ni493  1  0.83742643  0.63180537  0.26917340  1.0
  Ni  Ni494  1  0.83742643  0.96513870  0.26917340  1.0
  Ni  Ni495  1  0.30409310  0.06513870  0.21917340  1.0
  Ni  Ni496  1  0.30409310  0.39847203  0.21917340  1.0
  Ni  Ni497  1  0.30409310  0.73180537  0.21917340  1.0
  Ni  Ni498  1  0.63742643  0.06513870  0.21917340  1.0
  Ni  Ni499  1  0.63742643  0.39847203  0.21917340  1.0
  Ni  Ni500  1  0.63742643  0.73180537  0.21917340  1.0
  Ni  Ni501  1  0.97075977  0.06513870  0.21917340  1.0
  Ni  Ni502  1  0.97075977  0.39847203  0.21917340  1.0
  Ni  Ni503  1  0.97075977  0.73180537  0.21917340  1.0
  Ni  Ni504  1  0.19821430  0.22976193  0.29732145  1.0
  Ni  Ni505  1  0.19821430  0.56309527  0.29732145  1.0
  Ni  Ni506  1  0.19821430  0.89642860  0.29732145  1.0
  Ni  Ni507  1  0.53154763  0.22976193  0.29732145  1.0
  Ni  Ni508  1  0.53154763  0.56309527  0.29732145  1.0
  Ni  Ni509  1  0.53154763  0.89642860  0.29732145  1.0
  Ni  Ni510  1  0.86488097  0.22976193  0.29732145  1.0
  Ni  Ni511  1  0.86488097  0.56309527  0.29732145  1.0
  Ni  Ni512  1  0.86488097  0.89642860  0.29732145  1.0
  Ni  Ni513  1  0.33154763  0.32976193  0.24732145  1.0
  Ni  Ni514  1  0.33154763  0.66309527  0.24732145  1.0
  Ni  Ni515  1  0.33154763  0.99642860  0.24732145  1.0
  Ni  Ni516  1  0.66488097  0.32976193  0.24732145  1.0
  Ni  Ni517  1  0.66488097  0.66309527  0.24732145  1.0
  Ni  Ni518  1  0.66488097  0.99642860  0.24732145  1.0
  Ni  Ni519  1  0.99821430  0.32976193  0.24732145  1.0
  Ni  Ni520  1  0.99821430  0.66309527  0.24732145  1.0
  Ni  Ni521  1  0.99821430  0.99642860  0.24732145  1.0
  Ni  Ni522  1  0.33154763  0.07976193  0.37232145  1.0
  Ni  Ni523  1  0.33154763  0.41309527  0.37232145  1.0
  Ni  Ni524  1  0.33154763  0.74642860  0.37232145  1.0
  Ni  Ni525  1  0.66488097  0.07976193  0.37232145  1.0
  Ni  Ni526  1  0.66488097  0.41309527  0.37232145  1.0
  Ni  Ni527  1  0.66488097  0.74642860  0.37232145  1.0
  Ni  Ni528  1  0.99821430  0.07976193  0.37232145  1.0
  Ni  Ni529  1  0.99821430  0.41309527  0.37232145  1.0
  Ni  Ni530  1  0.99821430  0.74642860  0.37232145  1.0
  Ni  Ni531  1  0.13154763  0.17976193  0.32232145  1.0
  Ni  Ni532  1  0.13154763  0.51309527  0.32232145  1.0
  Ni  Ni533  1  0.13154763  0.84642860  0.32232145  1.0
  Ni  Ni534  1  0.46488097  0.17976193  0.32232145  1.0
  Ni  Ni535  1  0.46488097  0.51309527  0.32232145  1.0
  Ni  Ni536  1  0.46488097  0.84642860  0.32232145  1.0
  Ni  Ni537  1  0.79821430  0.17976193  0.32232145  1.0
  Ni  Ni538  1  0.79821430  0.51309527  0.32232145  1.0
  Ni  Ni539  1  0.79821430  0.84642860  0.32232145  1.0
  Ni  Ni540  1  0.23154763  0.29642860  0.34732145  1.0
  Ni  Ni541  1  0.23154763  0.62976193  0.34732145  1.0
  Ni  Ni542  1  0.23154763  0.96309527  0.34732145  1.0
  Ni  Ni543  1  0.56488097  0.29642860  0.34732145  1.0
  Ni  Ni544  1  0.56488097  0.62976193  0.34732145  1.0
  Ni  Ni545  1  0.56488097  0.96309527  0.34732145  1.0
  Ni  Ni546  1  0.89821430  0.29642860  0.34732145  1.0
  Ni  Ni547  1  0.89821430  0.62976193  0.34732145  1.0
  Ni  Ni548  1  0.89821430  0.96309527  0.34732145  1.0
  Ni  Ni549  1  0.09821430  0.19642860  0.39732145  1.0
  Ni  Ni550  1  0.09821430  0.52976193  0.39732145  1.0
  Ni  Ni551  1  0.09821430  0.86309527  0.39732145  1.0
  Ni  Ni552  1  0.43154763  0.19642860  0.39732145  1.0
  Ni  Ni553  1  0.43154763  0.52976193  0.39732145  1.0
  Ni  Ni554  1  0.43154763  0.86309527  0.39732145  1.0
  Ni  Ni555  1  0.76488097  0.19642860  0.39732145  1.0
  Ni  Ni556  1  0.76488097  0.52976193  0.39732145  1.0
  Ni  Ni557  1  0.76488097  0.86309527  0.39732145  1.0
  Ni  Ni558  1  0.17144703  0.02149607  0.35267855  1.0
  Ni  Ni559  1  0.17144703  0.35482940  0.35267855  1.0
  Ni  Ni560  1  0.17144703  0.68816273  0.35267855  1.0
  Ni  Ni561  1  0.50478037  0.02149607  0.35267855  1.0
  Ni  Ni562  1  0.50478037  0.35482940  0.35267855  1.0
  Ni  Ni563  1  0.50478037  0.68816273  0.35267855  1.0
  Ni  Ni564  1  0.83811370  0.02149607  0.35267855  1.0
  Ni  Ni565  1  0.83811370  0.35482940  0.35267855  1.0
  Ni  Ni566  1  0.83811370  0.68816273  0.35267855  1.0
  Ni  Ni567  1  0.30478037  0.12149607  0.30267855  1.0
  Ni  Ni568  1  0.30478037  0.45482940  0.30267855  1.0
  Ni  Ni569  1  0.30478037  0.78816273  0.30267855  1.0
  Ni  Ni570  1  0.63811370  0.12149607  0.30267855  1.0
  Ni  Ni571  1  0.63811370  0.45482940  0.30267855  1.0
  Ni  Ni572  1  0.63811370  0.78816273  0.30267855  1.0
  Ni  Ni573  1  0.97144703  0.12149607  0.30267855  1.0
  Ni  Ni574  1  0.97144703  0.45482940  0.30267855  1.0
  Ni  Ni575  1  0.97144703  0.78816273  0.30267855  1.0
  Ni  Ni576  1  0.29164823  0.23802780  0.34196435  1.0
  Ni  Ni577  1  0.29164823  0.57136113  0.34196435  1.0
  Ni  Ni578  1  0.29164823  0.90469447  0.34196435  1.0
  Ni  Ni579  1  0.62498157  0.23802780  0.34196435  1.0
  Ni  Ni580  1  0.62498157  0.57136113  0.34196435  1.0
  Ni  Ni581  1  0.62498157  0.90469447  0.34196435  1.0
  Ni  Ni582  1  0.95831490  0.23802780  0.34196435  1.0
  Ni  Ni583  1  0.95831490  0.57136113  0.34196435  1.0
  Ni  Ni584  1  0.95831490  0.90469447  0.34196435  1.0
  Ni  Ni585  1  0.15831490  0.13802780  0.39196435  1.0
  Ni  Ni586  1  0.15831490  0.47136113  0.39196435  1.0
  Ni  Ni587  1  0.15831490  0.80469447  0.39196435  1.0
  Ni  Ni588  1  0.49164823  0.13802780  0.39196435  1.0
  Ni  Ni589  1  0.49164823  0.47136113  0.39196435  1.0
  Ni  Ni590  1  0.49164823  0.80469447  0.39196435  1.0
  Ni  Ni591  1  0.82498157  0.13802780  0.39196435  1.0
  Ni  Ni592  1  0.82498157  0.47136113  0.39196435  1.0
  Ni  Ni593  1  0.82498157  0.80469447  0.39196435  1.0
  Ni  Ni594  1  0.22566883  0.16105183  0.32546950  1.0
  Ni  Ni595  1  0.22566883  0.49438517  0.32546950  1.0
  Ni  Ni596  1  0.22566883  0.82771850  0.32546950  1.0
  Ni  Ni597  1  0.55900217  0.16105183  0.32546950  1.0
  Ni  Ni598  1  0.55900217  0.49438517  0.32546950  1.0
  Ni  Ni599  1  0.55900217  0.82771850  0.32546950  1.0
  Ni  Ni600  1  0.89233550  0.16105183  0.32546950  1.0
  Ni  Ni601  1  0.89233550  0.49438517  0.32546950  1.0
  Ni  Ni602  1  0.89233550  0.82771850  0.32546950  1.0
  Ni  Ni603  1  0.09233550  0.06105183  0.37546950  1.0
  Ni  Ni604  1  0.09233550  0.39438517  0.37546950  1.0
  Ni  Ni605  1  0.09233550  0.72771850  0.37546950  1.0
  Ni  Ni606  1  0.42566883  0.06105183  0.37546950  1.0
  Ni  Ni607  1  0.42566883  0.39438517  0.37546950  1.0
  Ni  Ni608  1  0.42566883  0.72771850  0.37546950  1.0
  Ni  Ni609  1  0.75900217  0.06105183  0.37546950  1.0
  Ni  Ni610  1  0.75900217  0.39438517  0.37546950  1.0
  Ni  Ni611  1  0.75900217  0.72771850  0.37546950  1.0
  Ni  Ni612  1  0.23742643  0.09847203  0.36917340  1.0
  Ni  Ni613  1  0.23742643  0.43180537  0.36917340  1.0
  Ni  Ni614  1  0.23742643  0.76513870  0.36917340  1.0
  Ni  Ni615  1  0.57075977  0.09847203  0.36917340  1.0
  Ni  Ni616  1  0.57075977  0.43180537  0.36917340  1.0
  Ni  Ni617  1  0.57075977  0.76513870  0.36917340  1.0
  Ni  Ni618  1  0.90409310  0.09847203  0.36917340  1.0
  Ni  Ni619  1  0.90409310  0.43180537  0.36917340  1.0
  Ni  Ni620  1  0.90409310  0.76513870  0.36917340  1.0
  Ni  Ni621  1  0.03742643  0.19847203  0.31917340  1.0
  Ni  Ni622  1  0.03742643  0.53180537  0.31917340  1.0
  Ni  Ni623  1  0.03742643  0.86513870  0.31917340  1.0
  Ni  Ni624  1  0.37075977  0.19847203  0.31917340  1.0
  Ni  Ni625  1  0.37075977  0.53180537  0.31917340  1.0
  Ni  Ni626  1  0.37075977  0.86513870  0.31917340  1.0
  Ni  Ni627  1  0.70409310  0.19847203  0.31917340  1.0
  Ni  Ni628  1  0.70409310  0.53180537  0.31917340  1.0
  Ni  Ni629  1  0.70409310  0.86513870  0.31917340  1.0
  Ni  Ni630  1  0.26488097  0.02976193  0.39732145  1.0
  Ni  Ni631  1  0.26488097  0.36309527  0.39732145  1.0
  Ni  Ni632  1  0.26488097  0.69642860  0.39732145  1.0
  Ni  Ni633  1  0.59821430  0.02976193  0.39732145  1.0
  Ni  Ni634  1  0.59821430  0.36309527  0.39732145  1.0
  Ni  Ni635  1  0.59821430  0.69642860  0.39732145  1.0
  Ni  Ni636  1  0.93154763  0.02976193  0.39732145  1.0
  Ni  Ni637  1  0.93154763  0.36309527  0.39732145  1.0
  Ni  Ni638  1  0.93154763  0.69642860  0.39732145  1.0
  Ni  Ni639  1  0.06488097  0.12976193  0.34732145  1.0
  Ni  Ni640  1  0.06488097  0.46309527  0.34732145  1.0
  Ni  Ni641  1  0.06488097  0.79642860  0.34732145  1.0
  Ni  Ni642  1  0.39821430  0.12976193  0.34732145  1.0
  Ni  Ni643  1  0.39821430  0.46309527  0.34732145  1.0
  Ni  Ni644  1  0.39821430  0.79642860  0.34732145  1.0
  Ni  Ni645  1  0.73154763  0.12976193  0.34732145  1.0
  Ni  Ni646  1  0.73154763  0.46309527  0.34732145  1.0
  Ni  Ni647  1  0.73154763  0.79642860  0.34732145  1.0
