# generated using pymatgen
data_Hf2Ni7
_symmetry_space_group_name_H-M   'P 1'
_cell_length_a   14.10969849
_cell_length_b   14.10969849
_cell_length_c   31.25502175
_cell_angle_alpha   82.10468876
_cell_angle_beta   97.89531124
_cell_angle_gamma   59.27868241
_symmetry_Int_Tables_number   1
_chemical_formula_structural   Hf2Ni7
_chemical_formula_sum   'Hf36 Ni126'
_cell_volume   5138.64292598
_cell_formula_units_Z   18
loop_
 _symmetry_equiv_pos_site_id
 _symmetry_equiv_pos_as_xyz
  1  'x, y, z'
loop_
 _atom_site_type_symbol
 _atom_site_label
 _atom_site_symmetry_multiplicity
 _atom_site_fract_x
 _atom_site_fract_y
 _atom_site_fract_z
 _atom_site_occupancy
  Hf  Hf0  1  0.03528900  0.29804433  0.15414640  1.0
  Hf  Hf1  1  0.03528900  0.63137767  0.15414640  1.0
  Hf  Hf2  1  0.03528900  0.96471100  0.15414640  1.0
  Hf  Hf3  1  0.36862233  0.29804433  0.15414640  1.0
  Hf  Hf4  1  0.36862233  0.63137767  0.15414640  1.0
  Hf  Hf5  1  0.36862233  0.96471100  0.15414640  1.0
  Hf  Hf6  1  0.70195567  0.29804433  0.15414640  1.0
  Hf  Hf7  1  0.70195567  0.63137767  0.15414640  1.0
  Hf  Hf8  1  0.70195567  0.96471100  0.15414640  1.0
  Hf  Hf9  1  0.29804433  0.03528900  0.04585360  1.0
  Hf  Hf10  1  0.29804433  0.36862233  0.04585360  1.0
  Hf  Hf11  1  0.29804433  0.70195567  0.04585360  1.0
  Hf  Hf12  1  0.63137767  0.03528900  0.04585360  1.0
  Hf  Hf13  1  0.63137767  0.36862233  0.04585360  1.0
  Hf  Hf14  1  0.63137767  0.70195567  0.04585360  1.0
  Hf  Hf15  1  0.96471100  0.03528900  0.04585360  1.0
  Hf  Hf16  1  0.96471100  0.36862233  0.04585360  1.0
  Hf  Hf17  1  0.96471100  0.70195567  0.04585360  1.0
  Ni  Ni18  1  0.16666667  0.00000000  0.10000000  1.0
  Ni  Ni19  1  0.16666667  0.33333333  0.10000000  1.0
  Ni  Ni20  1  0.16666667  0.66666667  0.10000000  1.0
  Ni  Ni21  1  0.50000000  0.00000000  0.10000000  1.0
  Ni  Ni22  1  0.50000000  0.33333333  0.10000000  1.0
  Ni  Ni23  1  0.50000000  0.66666667  0.10000000  1.0
  Ni  Ni24  1  0.83333333  0.00000000  0.10000000  1.0
  Ni  Ni25  1  0.83333333  0.33333333  0.10000000  1.0
  Ni  Ni26  1  0.83333333  0.66666667  0.10000000  1.0
  Ni  Ni27  1  0.00000000  0.16666667  0.10000000  1.0
  Ni  Ni28  1  0.00000000  0.50000000  0.10000000  1.0
  Ni  Ni29  1  0.00000000  0.83333333  0.10000000  1.0
  Ni  Ni30  1  0.33333333  0.16666667  0.10000000  1.0
  Ni  Ni31  1  0.33333333  0.50000000  0.10000000  1.0
  Ni  Ni32  1  0.33333333  0.83333333  0.10000000  1.0
  Ni  Ni33  1  0.66666667  0.16666667  0.10000000  1.0
  Ni  Ni34  1  0.66666667  0.50000000  0.10000000  1.0
  Ni  Ni35  1  0.66666667  0.83333333  0.10000000  1.0
  Ni  Ni36  1  0.26421833  0.17908067  0.16895800  1.0
  Ni  Ni37  1  0.26421833  0.51241400  0.16895800  1.0
  Ni  Ni38  1  0.26421833  0.84574733  0.16895800  1.0
  Ni  Ni39  1  0.59755167  0.17908067  0.16895800  1.0
  Ni  Ni40  1  0.59755167  0.51241400  0.16895800  1.0
  Ni  Ni41  1  0.59755167  0.84574733  0.16895800  1.0
  Ni  Ni42  1  0.93088500  0.17908067  0.16895800  1.0
  Ni  Ni43  1  0.93088500  0.51241400  0.16895800  1.0
  Ni  Ni44  1  0.93088500  0.84574733  0.16895800  1.0
  Ni  Ni45  1  0.06911500  0.15425267  0.03104200  1.0
  Ni  Ni46  1  0.06911500  0.48758600  0.03104200  1.0
  Ni  Ni47  1  0.06911500  0.82091933  0.03104200  1.0
  Ni  Ni48  1  0.40244833  0.15425267  0.03104200  1.0
  Ni  Ni49  1  0.40244833  0.48758600  0.03104200  1.0
  Ni  Ni50  1  0.40244833  0.82091933  0.03104200  1.0
  Ni  Ni51  1  0.73578167  0.15425267  0.03104200  1.0
  Ni  Ni52  1  0.73578167  0.48758600  0.03104200  1.0
  Ni  Ni53  1  0.73578167  0.82091933  0.03104200  1.0
  Ni  Ni54  1  0.17908067  0.26421833  0.03104200  1.0
  Ni  Ni55  1  0.17908067  0.59755167  0.03104200  1.0
  Ni  Ni56  1  0.17908067  0.93088500  0.03104200  1.0
  Ni  Ni57  1  0.51241400  0.26421833  0.03104200  1.0
  Ni  Ni58  1  0.51241400  0.59755167  0.03104200  1.0
  Ni  Ni59  1  0.51241400  0.93088500  0.03104200  1.0
  Ni  Ni60  1  0.84574733  0.26421833  0.03104200  1.0
  Ni  Ni61  1  0.84574733  0.59755167  0.03104200  1.0
  Ni  Ni62  1  0.84574733  0.93088500  0.03104200  1.0
  Ni  Ni63  1  0.15425267  0.06911500  0.16895800  1.0
  Ni  Ni64  1  0.15425267  0.40244833  0.16895800  1.0
  Ni  Ni65  1  0.15425267  0.73578167  0.16895800  1.0
  Ni  Ni66  1  0.48758600  0.06911500  0.16895800  1.0
  Ni  Ni67  1  0.48758600  0.40244833  0.16895800  1.0
  Ni  Ni68  1  0.48758600  0.73578167  0.16895800  1.0
  Ni  Ni69  1  0.82091933  0.06911500  0.16895800  1.0
  Ni  Ni70  1  0.82091933  0.40244833  0.16895800  1.0
  Ni  Ni71  1  0.82091933  0.73578167  0.16895800  1.0
  Ni  Ni72  1  0.16666667  0.16666667  0.10000000  1.0
  Ni  Ni73  1  0.16666667  0.50000000  0.10000000  1.0
  Ni  Ni74  1  0.16666667  0.83333333  0.10000000  1.0
  Ni  Ni75  1  0.50000000  0.16666667  0.10000000  1.0
  Ni  Ni76  1  0.50000000  0.50000000  0.10000000  1.0
  Ni  Ni77  1  0.50000000  0.83333333  0.10000000  1.0
  Ni  Ni78  1  0.83333333  0.16666667  0.10000000  1.0
  Ni  Ni79  1  0.83333333  0.50000000  0.10000000  1.0
  Ni  Ni80  1  0.83333333  0.83333333  0.10000000  1.0
  Hf  Hf81  1  0.03528900  0.29804433  0.35414640  1.0
  Hf  Hf82  1  0.03528900  0.63137767  0.35414640  1.0
  Hf  Hf83  1  0.03528900  0.96471100  0.35414640  1.0
  Hf  Hf84  1  0.36862233  0.29804433  0.35414640  1.0
  Hf  Hf85  1  0.36862233  0.63137767  0.35414640  1.0
  Hf  Hf86  1  0.36862233  0.96471100  0.35414640  1.0
  Hf  Hf87  1  0.70195567  0.29804433  0.35414640  1.0
  Hf  Hf88  1  0.70195567  0.63137767  0.35414640  1.0
  Hf  Hf89  1  0.70195567  0.96471100  0.35414640  1.0
  Hf  Hf90  1  0.29804433  0.03528900  0.24585360  1.0
  Hf  Hf91  1  0.29804433  0.36862233  0.24585360  1.0
  Hf  Hf92  1  0.29804433  0.70195567  0.24585360  1.0
  Hf  Hf93  1  0.63137767  0.03528900  0.24585360  1.0
  Hf  Hf94  1  0.63137767  0.36862233  0.24585360  1.0
  Hf  Hf95  1  0.63137767  0.70195567  0.24585360  1.0
  Hf  Hf96  1  0.96471100  0.03528900  0.24585360  1.0
  Hf  Hf97  1  0.96471100  0.36862233  0.24585360  1.0
  Hf  Hf98  1  0.96471100  0.70195567  0.24585360  1.0
  Ni  Ni99  1  0.16666667  0.00000000  0.30000000  1.0
  Ni  Ni100  1  0.16666667  0.33333333  0.30000000  1.0
  Ni  Ni101  1  0.16666667  0.66666667  0.30000000  1.0
  Ni  Ni102  1  0.50000000  0.00000000  0.30000000  1.0
  Ni  Ni103  1  0.50000000  0.33333333  0.30000000  1.0
  Ni  Ni104  1  0.50000000  0.66666667  0.30000000  1.0
  Ni  Ni105  1  0.83333333  0.00000000  0.30000000  1.0
  Ni  Ni106  1  0.83333333  0.33333333  0.30000000  1.0
  Ni  Ni107  1  0.83333333  0.66666667  0.30000000  1.0
  Ni  Ni108  1  0.00000000  0.16666667  0.30000000  1.0
  Ni  Ni109  1  0.00000000  0.50000000  0.30000000  1.0
  Ni  Ni110  1  0.00000000  0.83333333  0.30000000  1.0
  Ni  Ni111  1  0.33333333  0.16666667  0.30000000  1.0
  Ni  Ni112  1  0.33333333  0.50000000  0.30000000  1.0
  Ni  Ni113  1  0.33333333  0.83333333  0.30000000  1.0
  Ni  Ni114  1  0.66666667  0.16666667  0.30000000  1.0
  Ni  Ni115  1  0.66666667  0.50000000  0.30000000  1.0
  Ni  Ni116  1  0.66666667  0.83333333  0.30000000  1.0
  Ni  Ni117  1  0.26421833  0.17908067  0.36895800  1.0
  Ni  Ni118  1  0.26421833  0.51241400  0.36895800  1.0
  Ni  Ni119  1  0.26421833  0.84574733  0.36895800  1.0
  Ni  Ni120  1  0.59755167  0.17908067  0.36895800  1.0
  Ni  Ni121  1  0.59755167  0.51241400  0.36895800  1.0
  Ni  Ni122  1  0.59755167  0.84574733  0.36895800  1.0
  Ni  Ni123  1  0.93088500  0.17908067  0.36895800  1.0
  Ni  Ni124  1  0.93088500  0.51241400  0.36895800  1.0
  Ni  Ni125  1  0.93088500  0.84574733  0.36895800  1.0
  Ni  Ni126  1  0.06911500  0.15425267  0.23104200  1.0
  Ni  Ni127  1  0.06911500  0.48758600  0.23104200  1.0
  Ni  Ni128  1  0.06911500  0.82091933  0.23104200  1.0
  Ni  Ni129  1  0.40244833  0.15425267  0.23104200  1.0
  Ni  Ni130  1  0.40244833  0.48758600  0.23104200  1.0
  Ni  Ni131  1  0.40244833  0.82091933  0.23104200  1.0
  Ni  Ni132  1  0.73578167  0.15425267  0.23104200  1.0
  Ni  Ni133  1  0.73578167  0.48758600  0.23104200  1.0
  Ni  Ni134  1  0.73578167  0.82091933  0.23104200  1.0
  Ni  Ni135  1  0.17908067  0.26421833  0.23104200  1.0
  Ni  Ni136  1  0.17908067  0.59755167  0.23104200  1.0
  Ni  Ni137  1  0.17908067  0.93088500  0.23104200  1.0
  Ni  Ni138  1  0.51241400  0.26421833  0.23104200  1.0
  Ni  Ni139  1  0.51241400  0.59755167  0.23104200  1.0
  Ni  Ni140  1  0.51241400  0.93088500  0.23104200  1.0
  Ni  Ni141  1  0.84574733  0.26421833  0.23104200  1.0
  Ni  Ni142  1  0.84574733  0.59755167  0.23104200  1.0
  Ni  Ni143  1  0.84574733  0.93088500  0.23104200  1.0
  Ni  Ni144  1  0.15425267  0.06911500  0.36895800  1.0
  Ni  Ni145  1  0.15425267  0.40244833  0.36895800  1.0
  Ni  Ni146  1  0.15425267  0.73578167  0.36895800  1.0
  Ni  Ni147  1  0.48758600  0.06911500  0.36895800  1.0
  Ni  Ni148  1  0.48758600  0.40244833  0.36895800  1.0
  Ni  Ni149  1  0.48758600  0.73578167  0.36895800  1.0
  Ni  Ni150  1  0.82091933  0.06911500  0.36895800  1.0
  Ni  Ni151  1  0.82091933  0.40244833  0.36895800  1.0
  Ni  Ni152  1  0.82091933  0.73578167  0.36895800  1.0
  Ni  Ni153  1  0.16666667  0.16666667  0.30000000  1.0
  Ni  Ni154  1  0.16666667  0.50000000  0.30000000  1.0
  Ni  Ni155  1  0.16666667  0.83333333  0.30000000  1.0
  Ni  Ni156  1  0.50000000  0.16666667  0.30000000  1.0
  Ni  Ni157  1  0.50000000  0.50000000  0.30000000  1.0
  Ni  Ni158  1  0.50000000  0.83333333  0.30000000  1.0
  Ni  Ni159  1  0.83333333  0.16666667  0.30000000  1.0
  Ni  Ni160  1  0.83333333  0.50000000  0.30000000  1.0
  Ni  Ni161  1  0.83333333  0.83333333  0.30000000  1.0
