# generated using pymatgen
data_Hf2Ni7
_symmetry_space_group_name_H-M   'P 1'
_cell_length_a   21.86473206
_cell_length_b   30.87477099
_cell_length_c   27.91117200
_cell_angle_alpha   99.71276655
_cell_angle_beta   94.64052095
_cell_angle_gamma   91.23426669
_symmetry_Int_Tables_number   1
_chemical_formula_structural   Hf2Ni7
_chemical_formula_sum   'Hf144 Ni504'
_cell_volume   18499.11453352
_cell_formula_units_Z   72
loop_
 _symmetry_equiv_pos_site_id
 _symmetry_equiv_pos_as_xyz
  1  'x, y, z'
loop_
 _atom_site_type_symbol
 _atom_site_label
 _atom_site_symmetry_multiplicity
 _atom_site_fract_x
 _atom_site_fract_y
 _atom_site_fract_z
 _atom_site_occupancy
  Hf  Hf0  1  0.04743125  0.30434192  0.02686442  1.0
  Hf  Hf1  1  0.04743125  0.63767525  0.02686442  1.0
  Hf  Hf2  1  0.04743125  0.97100858  0.02686442  1.0
  Hf  Hf3  1  0.38076458  0.30434192  0.02686442  1.0
  Hf  Hf4  1  0.38076458  0.63767525  0.02686442  1.0
  Hf  Hf5  1  0.38076458  0.97100858  0.02686442  1.0
  Hf  Hf6  1  0.71409792  0.30434192  0.02686442  1.0
  Hf  Hf7  1  0.71409792  0.63767525  0.02686442  1.0
  Hf  Hf8  1  0.71409792  0.97100858  0.02686442  1.0
  Hf  Hf9  1  0.26965347  0.19323081  0.08241997  1.0
  Hf  Hf10  1  0.26965347  0.52656414  0.08241997  1.0
  Hf  Hf11  1  0.26965347  0.85989747  0.08241997  1.0
  Hf  Hf12  1  0.60298681  0.19323081  0.08241997  1.0
  Hf  Hf13  1  0.60298681  0.52656414  0.08241997  1.0
  Hf  Hf14  1  0.60298681  0.85989747  0.08241997  1.0
  Hf  Hf15  1  0.93632014  0.19323081  0.08241997  1.0
  Hf  Hf16  1  0.93632014  0.52656414  0.08241997  1.0
  Hf  Hf17  1  0.93632014  0.85989747  0.08241997  1.0
  Hf  Hf18  1  0.05664547  0.13306814  0.07721231  1.0
  Hf  Hf19  1  0.05664547  0.46640147  0.07721231  1.0
  Hf  Hf20  1  0.05664547  0.79973481  0.07721231  1.0
  Hf  Hf21  1  0.38997881  0.13306814  0.07721231  1.0
  Hf  Hf22  1  0.38997881  0.46640147  0.07721231  1.0
  Hf  Hf23  1  0.38997881  0.79973481  0.07721231  1.0
  Hf  Hf24  1  0.72331214  0.13306814  0.07721231  1.0
  Hf  Hf25  1  0.72331214  0.46640147  0.07721231  1.0
  Hf  Hf26  1  0.72331214  0.79973481  0.07721231  1.0
  Hf  Hf27  1  0.16775658  0.24417925  0.02165675  1.0
  Hf  Hf28  1  0.16775658  0.57751258  0.02165675  1.0
  Hf  Hf29  1  0.16775658  0.91084592  0.02165675  1.0
  Hf  Hf30  1  0.50108992  0.24417925  0.02165675  1.0
  Hf  Hf31  1  0.50108992  0.57751258  0.02165675  1.0
  Hf  Hf32  1  0.50108992  0.91084592  0.02165675  1.0
  Hf  Hf33  1  0.83442325  0.24417925  0.02165675  1.0
  Hf  Hf34  1  0.83442325  0.57751258  0.02165675  1.0
  Hf  Hf35  1  0.83442325  0.91084592  0.02165675  1.0
  Hf  Hf36  1  0.15854236  0.08211969  0.13797553  1.0
  Hf  Hf37  1  0.15854236  0.41545303  0.13797553  1.0
  Hf  Hf38  1  0.15854236  0.74878636  0.13797553  1.0
  Hf  Hf39  1  0.49187569  0.08211969  0.13797553  1.0
  Hf  Hf40  1  0.49187569  0.41545303  0.13797553  1.0
  Hf  Hf41  1  0.49187569  0.74878636  0.13797553  1.0
  Hf  Hf42  1  0.82520903  0.08211969  0.13797553  1.0
  Hf  Hf43  1  0.82520903  0.41545303  0.13797553  1.0
  Hf  Hf44  1  0.82520903  0.74878636  0.13797553  1.0
  Hf  Hf45  1  0.04743125  0.30434192  0.19353108  1.0
  Hf  Hf46  1  0.04743125  0.63767525  0.19353108  1.0
  Hf  Hf47  1  0.04743125  0.97100858  0.19353108  1.0
  Hf  Hf48  1  0.38076458  0.30434192  0.19353108  1.0
  Hf  Hf49  1  0.38076458  0.63767525  0.19353108  1.0
  Hf  Hf50  1  0.38076458  0.97100858  0.19353108  1.0
  Hf  Hf51  1  0.71409792  0.30434192  0.19353108  1.0
  Hf  Hf52  1  0.71409792  0.63767525  0.19353108  1.0
  Hf  Hf53  1  0.71409792  0.97100858  0.19353108  1.0
  Hf  Hf54  1  0.16775658  0.24417925  0.18832342  1.0
  Hf  Hf55  1  0.16775658  0.57751258  0.18832342  1.0
  Hf  Hf56  1  0.16775658  0.91084592  0.18832342  1.0
  Hf  Hf57  1  0.50108992  0.24417925  0.18832342  1.0
  Hf  Hf58  1  0.50108992  0.57751258  0.18832342  1.0
  Hf  Hf59  1  0.50108992  0.91084592  0.18832342  1.0
  Hf  Hf60  1  0.83442325  0.24417925  0.18832342  1.0
  Hf  Hf61  1  0.83442325  0.57751258  0.18832342  1.0
  Hf  Hf62  1  0.83442325  0.91084592  0.18832342  1.0
  Hf  Hf63  1  0.27886769  0.02195703  0.13276786  1.0
  Hf  Hf64  1  0.27886769  0.35529036  0.13276786  1.0
  Hf  Hf65  1  0.27886769  0.68862369  0.13276786  1.0
  Hf  Hf66  1  0.61220103  0.02195703  0.13276786  1.0
  Hf  Hf67  1  0.61220103  0.35529036  0.13276786  1.0
  Hf  Hf68  1  0.61220103  0.68862369  0.13276786  1.0
  Hf  Hf69  1  0.94553436  0.02195703  0.13276786  1.0
  Hf  Hf70  1  0.94553436  0.35529036  0.13276786  1.0
  Hf  Hf71  1  0.94553436  0.68862369  0.13276786  1.0
  Hf  Hf72  1  0.26965347  0.19323081  0.24908664  1.0
  Hf  Hf73  1  0.26965347  0.52656414  0.24908664  1.0
  Hf  Hf74  1  0.26965347  0.85989747  0.24908664  1.0
  Hf  Hf75  1  0.60298681  0.19323081  0.24908664  1.0
  Hf  Hf76  1  0.60298681  0.52656414  0.24908664  1.0
  Hf  Hf77  1  0.60298681  0.85989747  0.24908664  1.0
  Hf  Hf78  1  0.93632014  0.19323081  0.24908664  1.0
  Hf  Hf79  1  0.93632014  0.52656414  0.24908664  1.0
  Hf  Hf80  1  0.93632014  0.85989747  0.24908664  1.0
  Hf  Hf81  1  0.15854236  0.08211969  0.30464219  1.0
  Hf  Hf82  1  0.15854236  0.41545303  0.30464219  1.0
  Hf  Hf83  1  0.15854236  0.74878636  0.30464219  1.0
  Hf  Hf84  1  0.49187569  0.08211969  0.30464219  1.0
  Hf  Hf85  1  0.49187569  0.41545303  0.30464219  1.0
  Hf  Hf86  1  0.49187569  0.74878636  0.30464219  1.0
  Hf  Hf87  1  0.82520903  0.08211969  0.30464219  1.0
  Hf  Hf88  1  0.82520903  0.41545303  0.30464219  1.0
  Hf  Hf89  1  0.82520903  0.74878636  0.30464219  1.0
  Hf  Hf90  1  0.27886769  0.02195703  0.29943453  1.0
  Hf  Hf91  1  0.27886769  0.35529036  0.29943453  1.0
  Hf  Hf92  1  0.27886769  0.68862369  0.29943453  1.0
  Hf  Hf93  1  0.61220103  0.02195703  0.29943453  1.0
  Hf  Hf94  1  0.61220103  0.35529036  0.29943453  1.0
  Hf  Hf95  1  0.61220103  0.68862369  0.29943453  1.0
  Hf  Hf96  1  0.94553436  0.02195703  0.29943453  1.0
  Hf  Hf97  1  0.94553436  0.35529036  0.29943453  1.0
  Hf  Hf98  1  0.94553436  0.68862369  0.29943453  1.0
  Hf  Hf99  1  0.05664547  0.13306814  0.24387897  1.0
  Hf  Hf100  1  0.05664547  0.46640147  0.24387897  1.0
  Hf  Hf101  1  0.05664547  0.79973481  0.24387897  1.0
  Hf  Hf102  1  0.38997881  0.13306814  0.24387897  1.0
  Hf  Hf103  1  0.38997881  0.46640147  0.24387897  1.0
  Hf  Hf104  1  0.38997881  0.79973481  0.24387897  1.0
  Hf  Hf105  1  0.72331214  0.13306814  0.24387897  1.0
  Hf  Hf106  1  0.72331214  0.46640147  0.24387897  1.0
  Hf  Hf107  1  0.72331214  0.79973481  0.24387897  1.0
  Hf  Hf108  1  0.04743125  0.30434192  0.36019775  1.0
  Hf  Hf109  1  0.04743125  0.63767525  0.36019775  1.0
  Hf  Hf110  1  0.04743125  0.97100858  0.36019775  1.0
  Hf  Hf111  1  0.38076458  0.30434192  0.36019775  1.0
  Hf  Hf112  1  0.38076458  0.63767525  0.36019775  1.0
  Hf  Hf113  1  0.38076458  0.97100858  0.36019775  1.0
  Hf  Hf114  1  0.71409792  0.30434192  0.36019775  1.0
  Hf  Hf115  1  0.71409792  0.63767525  0.36019775  1.0
  Hf  Hf116  1  0.71409792  0.97100858  0.36019775  1.0
  Hf  Hf117  1  0.26965347  0.19323081  0.41575331  1.0
  Hf  Hf118  1  0.26965347  0.52656414  0.41575331  1.0
  Hf  Hf119  1  0.26965347  0.85989747  0.41575331  1.0
  Hf  Hf120  1  0.60298681  0.19323081  0.41575331  1.0
  Hf  Hf121  1  0.60298681  0.52656414  0.41575331  1.0
  Hf  Hf122  1  0.60298681  0.85989747  0.41575331  1.0
  Hf  Hf123  1  0.93632014  0.19323081  0.41575331  1.0
  Hf  Hf124  1  0.93632014  0.52656414  0.41575331  1.0
  Hf  Hf125  1  0.93632014  0.85989747  0.41575331  1.0
  Hf  Hf126  1  0.05664547  0.13306814  0.41054564  1.0
  Hf  Hf127  1  0.05664547  0.46640147  0.41054564  1.0
  Hf  Hf128  1  0.05664547  0.79973481  0.41054564  1.0
  Hf  Hf129  1  0.38997881  0.13306814  0.41054564  1.0
  Hf  Hf130  1  0.38997881  0.46640147  0.41054564  1.0
  Hf  Hf131  1  0.38997881  0.79973481  0.41054564  1.0
  Hf  Hf132  1  0.72331214  0.13306814  0.41054564  1.0
  Hf  Hf133  1  0.72331214  0.46640147  0.41054564  1.0
  Hf  Hf134  1  0.72331214  0.79973481  0.41054564  1.0
  Hf  Hf135  1  0.16775658  0.24417925  0.35499008  1.0
  Hf  Hf136  1  0.16775658  0.57751258  0.35499008  1.0
  Hf  Hf137  1  0.16775658  0.91084592  0.35499008  1.0
  Hf  Hf138  1  0.50108992  0.24417925  0.35499008  1.0
  Hf  Hf139  1  0.50108992  0.57751258  0.35499008  1.0
  Hf  Hf140  1  0.50108992  0.91084592  0.35499008  1.0
  Hf  Hf141  1  0.83442325  0.24417925  0.35499008  1.0
  Hf  Hf142  1  0.83442325  0.57751258  0.35499008  1.0
  Hf  Hf143  1  0.83442325  0.91084592  0.35499008  1.0
  Ni  Ni144  1  0.27426058  0.10759392  0.02426058  1.0
  Ni  Ni145  1  0.27426058  0.44092725  0.02426058  1.0
  Ni  Ni146  1  0.27426058  0.77426058  0.02426058  1.0
  Ni  Ni147  1  0.60759392  0.10759392  0.02426058  1.0
  Ni  Ni148  1  0.60759392  0.44092725  0.02426058  1.0
  Ni  Ni149  1  0.60759392  0.77426058  0.02426058  1.0
  Ni  Ni150  1  0.94092725  0.10759392  0.02426058  1.0
  Ni  Ni151  1  0.94092725  0.44092725  0.02426058  1.0
  Ni  Ni152  1  0.94092725  0.77426058  0.02426058  1.0
  Ni  Ni153  1  0.16314947  0.32981614  0.07981614  1.0
  Ni  Ni154  1  0.16314947  0.66314947  0.07981614  1.0
  Ni  Ni155  1  0.16314947  0.99648281  0.07981614  1.0
  Ni  Ni156  1  0.49648281  0.32981614  0.07981614  1.0
  Ni  Ni157  1  0.49648281  0.66314947  0.07981614  1.0
  Ni  Ni158  1  0.49648281  0.99648281  0.07981614  1.0
  Ni  Ni159  1  0.82981614  0.32981614  0.07981614  1.0
  Ni  Ni160  1  0.82981614  0.66314947  0.07981614  1.0
  Ni  Ni161  1  0.82981614  0.99648281  0.07981614  1.0
  Ni  Ni162  1  0.05203836  0.21870503  0.05203836  1.0
  Ni  Ni163  1  0.05203836  0.55203836  0.05203836  1.0
  Ni  Ni164  1  0.05203836  0.88537169  0.05203836  1.0
  Ni  Ni165  1  0.38537169  0.21870503  0.05203836  1.0
  Ni  Ni166  1  0.38537169  0.55203836  0.05203836  1.0
  Ni  Ni167  1  0.38537169  0.88537169  0.05203836  1.0
  Ni  Ni168  1  0.71870503  0.21870503  0.05203836  1.0
  Ni  Ni169  1  0.71870503  0.55203836  0.05203836  1.0
  Ni  Ni170  1  0.71870503  0.88537169  0.05203836  1.0
  Ni  Ni171  1  0.27426058  0.10759392  0.10759392  1.0
  Ni  Ni172  1  0.27426058  0.44092725  0.10759392  1.0
  Ni  Ni173  1  0.27426058  0.77426058  0.10759392  1.0
  Ni  Ni174  1  0.60759392  0.10759392  0.10759392  1.0
  Ni  Ni175  1  0.60759392  0.44092725  0.10759392  1.0
  Ni  Ni176  1  0.60759392  0.77426058  0.10759392  1.0
  Ni  Ni177  1  0.94092725  0.10759392  0.10759392  1.0
  Ni  Ni178  1  0.94092725  0.44092725  0.10759392  1.0
  Ni  Ni179  1  0.94092725  0.77426058  0.10759392  1.0
  Ni  Ni180  1  0.28985136  0.23811469  0.00777603  1.0
  Ni  Ni181  1  0.28985136  0.57144803  0.00777603  1.0
  Ni  Ni182  1  0.28985136  0.90478136  0.00777603  1.0
  Ni  Ni183  1  0.62318469  0.23811469  0.00777603  1.0
  Ni  Ni184  1  0.62318469  0.57144803  0.00777603  1.0
  Ni  Ni185  1  0.62318469  0.90478136  0.00777603  1.0
  Ni  Ni186  1  0.95651803  0.23811469  0.00777603  1.0
  Ni  Ni187  1  0.95651803  0.57144803  0.00777603  1.0
  Ni  Ni188  1  0.95651803  0.90478136  0.00777603  1.0
  Ni  Ni189  1  0.17874025  0.12700358  0.06333158  1.0
  Ni  Ni190  1  0.17874025  0.46033692  0.06333158  1.0
  Ni  Ni191  1  0.17874025  0.79367025  0.06333158  1.0
  Ni  Ni192  1  0.51207358  0.12700358  0.06333158  1.0
  Ni  Ni193  1  0.51207358  0.46033692  0.06333158  1.0
  Ni  Ni194  1  0.51207358  0.79367025  0.06333158  1.0
  Ni  Ni195  1  0.84540692  0.12700358  0.06333158  1.0
  Ni  Ni196  1  0.84540692  0.46033692  0.06333158  1.0
  Ni  Ni197  1  0.84540692  0.79367025  0.06333158  1.0
  Ni  Ni198  1  0.14755869  0.19929536  0.09630069  1.0
  Ni  Ni199  1  0.14755869  0.53262869  0.09630069  1.0
  Ni  Ni200  1  0.14755869  0.86596203  0.09630069  1.0
  Ni  Ni201  1  0.48089203  0.19929536  0.09630069  1.0
  Ni  Ni202  1  0.48089203  0.53262869  0.09630069  1.0
  Ni  Ni203  1  0.48089203  0.86596203  0.09630069  1.0
  Ni  Ni204  1  0.81422536  0.19929536  0.09630069  1.0
  Ni  Ni205  1  0.81422536  0.53262869  0.09630069  1.0
  Ni  Ni206  1  0.81422536  0.86596203  0.09630069  1.0
  Ni  Ni207  1  0.25866981  0.31040647  0.04074514  1.0
  Ni  Ni208  1  0.25866981  0.64373981  0.04074514  1.0
  Ni  Ni209  1  0.25866981  0.97707314  0.04074514  1.0
  Ni  Ni210  1  0.59200314  0.31040647  0.04074514  1.0
  Ni  Ni211  1  0.59200314  0.64373981  0.04074514  1.0
  Ni  Ni212  1  0.59200314  0.97707314  0.04074514  1.0
  Ni  Ni213  1  0.92533647  0.31040647  0.04074514  1.0
  Ni  Ni214  1  0.92533647  0.64373981  0.04074514  1.0
  Ni  Ni215  1  0.92533647  0.97707314  0.04074514  1.0
  Ni  Ni216  1  0.10975803  0.16149469  0.00351719  1.0
  Ni  Ni217  1  0.10975803  0.49482803  0.00351719  1.0
  Ni  Ni218  1  0.10975803  0.82816136  0.00351719  1.0
  Ni  Ni219  1  0.44309136  0.16149469  0.00351719  1.0
  Ni  Ni220  1  0.44309136  0.49482803  0.00351719  1.0
  Ni  Ni221  1  0.44309136  0.82816136  0.00351719  1.0
  Ni  Ni222  1  0.77642469  0.16149469  0.00351719  1.0
  Ni  Ni223  1  0.77642469  0.49482803  0.00351719  1.0
  Ni  Ni224  1  0.77642469  0.82816136  0.00351719  1.0
  Ni  Ni225  1  0.33198025  0.05038358  0.05907275  1.0
  Ni  Ni226  1  0.33198025  0.38371692  0.05907275  1.0
  Ni  Ni227  1  0.33198025  0.71705025  0.05907275  1.0
  Ni  Ni228  1  0.66531358  0.05038358  0.05907275  1.0
  Ni  Ni229  1  0.66531358  0.38371692  0.05907275  1.0
  Ni  Ni230  1  0.66531358  0.71705025  0.05907275  1.0
  Ni  Ni231  1  0.99864692  0.05038358  0.05907275  1.0
  Ni  Ni232  1  0.99864692  0.38371692  0.05907275  1.0
  Ni  Ni233  1  0.99864692  0.71705025  0.05907275  1.0
  Ni  Ni234  1  0.32765203  0.27591536  0.10055953  1.0
  Ni  Ni235  1  0.32765203  0.60924869  0.10055953  1.0
  Ni  Ni236  1  0.32765203  0.94258203  0.10055953  1.0
  Ni  Ni237  1  0.66098536  0.27591536  0.10055953  1.0
  Ni  Ni238  1  0.66098536  0.60924869  0.10055953  1.0
  Ni  Ni239  1  0.66098536  0.94258203  0.10055953  1.0
  Ni  Ni240  1  0.99431869  0.27591536  0.10055953  1.0
  Ni  Ni241  1  0.99431869  0.60924869  0.10055953  1.0
  Ni  Ni242  1  0.99431869  0.94258203  0.10055953  1.0
  Ni  Ni243  1  0.10542981  0.05369314  0.04500397  1.0
  Ni  Ni244  1  0.10542981  0.38702647  0.04500397  1.0
  Ni  Ni245  1  0.10542981  0.72035981  0.04500397  1.0
  Ni  Ni246  1  0.43876314  0.05369314  0.04500397  1.0
  Ni  Ni247  1  0.43876314  0.38702647  0.04500397  1.0
  Ni  Ni248  1  0.43876314  0.72035981  0.04500397  1.0
  Ni  Ni249  1  0.77209647  0.05369314  0.04500397  1.0
  Ni  Ni250  1  0.77209647  0.38702647  0.04500397  1.0
  Ni  Ni251  1  0.77209647  0.72035981  0.04500397  1.0
  Ni  Ni252  1  0.10759392  0.27426058  0.10759392  1.0
  Ni  Ni253  1  0.10759392  0.60759392  0.10759392  1.0
  Ni  Ni254  1  0.10759392  0.94092725  0.10759392  1.0
  Ni  Ni255  1  0.44092725  0.27426058  0.10759392  1.0
  Ni  Ni256  1  0.44092725  0.60759392  0.10759392  1.0
  Ni  Ni257  1  0.44092725  0.94092725  0.10759392  1.0
  Ni  Ni258  1  0.77426058  0.27426058  0.10759392  1.0
  Ni  Ni259  1  0.77426058  0.60759392  0.10759392  1.0
  Ni  Ni260  1  0.77426058  0.94092725  0.10759392  1.0
  Ni  Ni261  1  0.21870503  0.05203836  0.05203836  1.0
  Ni  Ni262  1  0.21870503  0.38537169  0.05203836  1.0
  Ni  Ni263  1  0.21870503  0.71870503  0.05203836  1.0
  Ni  Ni264  1  0.55203836  0.05203836  0.05203836  1.0
  Ni  Ni265  1  0.55203836  0.38537169  0.05203836  1.0
  Ni  Ni266  1  0.55203836  0.71870503  0.05203836  1.0
  Ni  Ni267  1  0.88537169  0.05203836  0.05203836  1.0
  Ni  Ni268  1  0.88537169  0.38537169  0.05203836  1.0
  Ni  Ni269  1  0.88537169  0.71870503  0.05203836  1.0
  Ni  Ni270  1  0.05203836  0.21870503  0.13537169  1.0
  Ni  Ni271  1  0.05203836  0.55203836  0.13537169  1.0
  Ni  Ni272  1  0.05203836  0.88537169  0.13537169  1.0
  Ni  Ni273  1  0.38537169  0.21870503  0.13537169  1.0
  Ni  Ni274  1  0.38537169  0.55203836  0.13537169  1.0
  Ni  Ni275  1  0.38537169  0.88537169  0.13537169  1.0
  Ni  Ni276  1  0.71870503  0.21870503  0.13537169  1.0
  Ni  Ni277  1  0.71870503  0.55203836  0.13537169  1.0
  Ni  Ni278  1  0.71870503  0.88537169  0.13537169  1.0
  Ni  Ni279  1  0.27426058  0.10759392  0.19092725  1.0
  Ni  Ni280  1  0.27426058  0.44092725  0.19092725  1.0
  Ni  Ni281  1  0.27426058  0.77426058  0.19092725  1.0
  Ni  Ni282  1  0.60759392  0.10759392  0.19092725  1.0
  Ni  Ni283  1  0.60759392  0.44092725  0.19092725  1.0
  Ni  Ni284  1  0.60759392  0.77426058  0.19092725  1.0
  Ni  Ni285  1  0.94092725  0.10759392  0.19092725  1.0
  Ni  Ni286  1  0.94092725  0.44092725  0.19092725  1.0
  Ni  Ni287  1  0.94092725  0.77426058  0.19092725  1.0
  Ni  Ni288  1  0.16314947  0.32981614  0.16314947  1.0
  Ni  Ni289  1  0.16314947  0.66314947  0.16314947  1.0
  Ni  Ni290  1  0.16314947  0.99648281  0.16314947  1.0
  Ni  Ni291  1  0.49648281  0.32981614  0.16314947  1.0
  Ni  Ni292  1  0.49648281  0.66314947  0.16314947  1.0
  Ni  Ni293  1  0.49648281  0.99648281  0.16314947  1.0
  Ni  Ni294  1  0.82981614  0.32981614  0.16314947  1.0
  Ni  Ni295  1  0.82981614  0.66314947  0.16314947  1.0
  Ni  Ni296  1  0.82981614  0.99648281  0.16314947  1.0
  Ni  Ni297  1  0.05203836  0.21870503  0.21870503  1.0
  Ni  Ni298  1  0.05203836  0.55203836  0.21870503  1.0
  Ni  Ni299  1  0.05203836  0.88537169  0.21870503  1.0
  Ni  Ni300  1  0.38537169  0.21870503  0.21870503  1.0
  Ni  Ni301  1  0.38537169  0.55203836  0.21870503  1.0
  Ni  Ni302  1  0.38537169  0.88537169  0.21870503  1.0
  Ni  Ni303  1  0.71870503  0.21870503  0.21870503  1.0
  Ni  Ni304  1  0.71870503  0.55203836  0.21870503  1.0
  Ni  Ni305  1  0.71870503  0.88537169  0.21870503  1.0
  Ni  Ni306  1  0.06762914  0.01589247  0.11888714  1.0
  Ni  Ni307  1  0.06762914  0.34922581  0.11888714  1.0
  Ni  Ni308  1  0.06762914  0.68255914  0.11888714  1.0
  Ni  Ni309  1  0.40096247  0.01589247  0.11888714  1.0
  Ni  Ni310  1  0.40096247  0.34922581  0.11888714  1.0
  Ni  Ni311  1  0.40096247  0.68255914  0.11888714  1.0
  Ni  Ni312  1  0.73429581  0.01589247  0.11888714  1.0
  Ni  Ni313  1  0.73429581  0.34922581  0.11888714  1.0
  Ni  Ni314  1  0.73429581  0.68255914  0.11888714  1.0
  Ni  Ni315  1  0.28985136  0.23811469  0.17444269  1.0
  Ni  Ni316  1  0.28985136  0.57144803  0.17444269  1.0
  Ni  Ni317  1  0.28985136  0.90478136  0.17444269  1.0
  Ni  Ni318  1  0.62318469  0.23811469  0.17444269  1.0
  Ni  Ni319  1  0.62318469  0.57144803  0.17444269  1.0
  Ni  Ni320  1  0.62318469  0.90478136  0.17444269  1.0
  Ni  Ni321  1  0.95651803  0.23811469  0.17444269  1.0
  Ni  Ni322  1  0.95651803  0.57144803  0.17444269  1.0
  Ni  Ni323  1  0.95651803  0.90478136  0.17444269  1.0
  Ni  Ni324  1  0.25866981  0.31040647  0.20741181  1.0
  Ni  Ni325  1  0.25866981  0.64373981  0.20741181  1.0
  Ni  Ni326  1  0.25866981  0.97707314  0.20741181  1.0
  Ni  Ni327  1  0.59200314  0.31040647  0.20741181  1.0
  Ni  Ni328  1  0.59200314  0.64373981  0.20741181  1.0
  Ni  Ni329  1  0.59200314  0.97707314  0.20741181  1.0
  Ni  Ni330  1  0.92533647  0.31040647  0.20741181  1.0
  Ni  Ni331  1  0.92533647  0.64373981  0.20741181  1.0
  Ni  Ni332  1  0.92533647  0.97707314  0.20741181  1.0
  Ni  Ni333  1  0.03644758  0.08818425  0.15185625  1.0
  Ni  Ni334  1  0.03644758  0.42151758  0.15185625  1.0
  Ni  Ni335  1  0.03644758  0.75485092  0.15185625  1.0
  Ni  Ni336  1  0.36978092  0.08818425  0.15185625  1.0
  Ni  Ni337  1  0.36978092  0.42151758  0.15185625  1.0
  Ni  Ni338  1  0.36978092  0.75485092  0.15185625  1.0
  Ni  Ni339  1  0.70311425  0.08818425  0.15185625  1.0
  Ni  Ni340  1  0.70311425  0.42151758  0.15185625  1.0
  Ni  Ni341  1  0.70311425  0.75485092  0.15185625  1.0
  Ni  Ni342  1  0.22086914  0.27260581  0.11462831  1.0
  Ni  Ni343  1  0.22086914  0.60593914  0.11462831  1.0
  Ni  Ni344  1  0.22086914  0.93927247  0.11462831  1.0
  Ni  Ni345  1  0.55420247  0.27260581  0.11462831  1.0
  Ni  Ni346  1  0.55420247  0.60593914  0.11462831  1.0
  Ni  Ni347  1  0.55420247  0.93927247  0.11462831  1.0
  Ni  Ni348  1  0.88753581  0.27260581  0.11462831  1.0
  Ni  Ni349  1  0.88753581  0.60593914  0.11462831  1.0
  Ni  Ni350  1  0.88753581  0.93927247  0.11462831  1.0
  Ni  Ni351  1  0.10975803  0.16149469  0.17018386  1.0
  Ni  Ni352  1  0.10975803  0.49482803  0.17018386  1.0
  Ni  Ni353  1  0.10975803  0.82816136  0.17018386  1.0
  Ni  Ni354  1  0.44309136  0.16149469  0.17018386  1.0
  Ni  Ni355  1  0.44309136  0.49482803  0.17018386  1.0
  Ni  Ni356  1  0.44309136  0.82816136  0.17018386  1.0
  Ni  Ni357  1  0.77642469  0.16149469  0.17018386  1.0
  Ni  Ni358  1  0.77642469  0.49482803  0.17018386  1.0
  Ni  Ni359  1  0.77642469  0.82816136  0.17018386  1.0
  Ni  Ni360  1  0.10542981  0.05369314  0.21167064  1.0
  Ni  Ni361  1  0.10542981  0.38702647  0.21167064  1.0
  Ni  Ni362  1  0.10542981  0.72035981  0.21167064  1.0
  Ni  Ni363  1  0.43876314  0.05369314  0.21167064  1.0
  Ni  Ni364  1  0.43876314  0.38702647  0.21167064  1.0
  Ni  Ni365  1  0.43876314  0.72035981  0.21167064  1.0
  Ni  Ni366  1  0.77209647  0.05369314  0.21167064  1.0
  Ni  Ni367  1  0.77209647  0.38702647  0.21167064  1.0
  Ni  Ni368  1  0.77209647  0.72035981  0.21167064  1.0
  Ni  Ni369  1  0.21654092  0.16480425  0.15611508  1.0
  Ni  Ni370  1  0.21654092  0.49813758  0.15611508  1.0
  Ni  Ni371  1  0.21654092  0.83147092  0.15611508  1.0
  Ni  Ni372  1  0.54987425  0.16480425  0.15611508  1.0
  Ni  Ni373  1  0.54987425  0.49813758  0.15611508  1.0
  Ni  Ni374  1  0.54987425  0.83147092  0.15611508  1.0
  Ni  Ni375  1  0.88320758  0.16480425  0.15611508  1.0
  Ni  Ni376  1  0.88320758  0.49813758  0.15611508  1.0
  Ni  Ni377  1  0.88320758  0.83147092  0.15611508  1.0
  Ni  Ni378  1  0.21870503  0.05203836  0.21870503  1.0
  Ni  Ni379  1  0.21870503  0.38537169  0.21870503  1.0
  Ni  Ni380  1  0.21870503  0.71870503  0.21870503  1.0
  Ni  Ni381  1  0.55203836  0.05203836  0.21870503  1.0
  Ni  Ni382  1  0.55203836  0.38537169  0.21870503  1.0
  Ni  Ni383  1  0.55203836  0.71870503  0.21870503  1.0
  Ni  Ni384  1  0.88537169  0.05203836  0.21870503  1.0
  Ni  Ni385  1  0.88537169  0.38537169  0.21870503  1.0
  Ni  Ni386  1  0.88537169  0.71870503  0.21870503  1.0
  Ni  Ni387  1  0.32981614  0.16314947  0.16314947  1.0
  Ni  Ni388  1  0.32981614  0.49648281  0.16314947  1.0
  Ni  Ni389  1  0.32981614  0.82981614  0.16314947  1.0
  Ni  Ni390  1  0.66314947  0.16314947  0.16314947  1.0
  Ni  Ni391  1  0.66314947  0.49648281  0.16314947  1.0
  Ni  Ni392  1  0.66314947  0.82981614  0.16314947  1.0
  Ni  Ni393  1  0.99648281  0.16314947  0.16314947  1.0
  Ni  Ni394  1  0.99648281  0.49648281  0.16314947  1.0
  Ni  Ni395  1  0.99648281  0.82981614  0.16314947  1.0
  Ni  Ni396  1  0.16314947  0.32981614  0.24648281  1.0
  Ni  Ni397  1  0.16314947  0.66314947  0.24648281  1.0
  Ni  Ni398  1  0.16314947  0.99648281  0.24648281  1.0
  Ni  Ni399  1  0.49648281  0.32981614  0.24648281  1.0
  Ni  Ni400  1  0.49648281  0.66314947  0.24648281  1.0
  Ni  Ni401  1  0.49648281  0.99648281  0.24648281  1.0
  Ni  Ni402  1  0.82981614  0.32981614  0.24648281  1.0
  Ni  Ni403  1  0.82981614  0.66314947  0.24648281  1.0
  Ni  Ni404  1  0.82981614  0.99648281  0.24648281  1.0
  Ni  Ni405  1  0.05203836  0.21870503  0.30203836  1.0
  Ni  Ni406  1  0.05203836  0.55203836  0.30203836  1.0
  Ni  Ni407  1  0.05203836  0.88537169  0.30203836  1.0
  Ni  Ni408  1  0.38537169  0.21870503  0.30203836  1.0
  Ni  Ni409  1  0.38537169  0.55203836  0.30203836  1.0
  Ni  Ni410  1  0.38537169  0.88537169  0.30203836  1.0
  Ni  Ni411  1  0.71870503  0.21870503  0.30203836  1.0
  Ni  Ni412  1  0.71870503  0.55203836  0.30203836  1.0
  Ni  Ni413  1  0.71870503  0.88537169  0.30203836  1.0
  Ni  Ni414  1  0.27426058  0.10759392  0.27426058  1.0
  Ni  Ni415  1  0.27426058  0.44092725  0.27426058  1.0
  Ni  Ni416  1  0.27426058  0.77426058  0.27426058  1.0
  Ni  Ni417  1  0.60759392  0.10759392  0.27426058  1.0
  Ni  Ni418  1  0.60759392  0.44092725  0.27426058  1.0
  Ni  Ni419  1  0.60759392  0.77426058  0.27426058  1.0
  Ni  Ni420  1  0.94092725  0.10759392  0.27426058  1.0
  Ni  Ni421  1  0.94092725  0.44092725  0.27426058  1.0
  Ni  Ni422  1  0.94092725  0.77426058  0.27426058  1.0
  Ni  Ni423  1  0.16314947  0.32981614  0.32981614  1.0
  Ni  Ni424  1  0.16314947  0.66314947  0.32981614  1.0
  Ni  Ni425  1  0.16314947  0.99648281  0.32981614  1.0
  Ni  Ni426  1  0.49648281  0.32981614  0.32981614  1.0
  Ni  Ni427  1  0.49648281  0.66314947  0.32981614  1.0
  Ni  Ni428  1  0.49648281  0.99648281  0.32981614  1.0
  Ni  Ni429  1  0.82981614  0.32981614  0.32981614  1.0
  Ni  Ni430  1  0.82981614  0.66314947  0.32981614  1.0
  Ni  Ni431  1  0.82981614  0.99648281  0.32981614  1.0
  Ni  Ni432  1  0.17874025  0.12700358  0.22999825  1.0
  Ni  Ni433  1  0.17874025  0.46033692  0.22999825  1.0
  Ni  Ni434  1  0.17874025  0.79367025  0.22999825  1.0
  Ni  Ni435  1  0.51207358  0.12700358  0.22999825  1.0
  Ni  Ni436  1  0.51207358  0.46033692  0.22999825  1.0
  Ni  Ni437  1  0.51207358  0.79367025  0.22999825  1.0
  Ni  Ni438  1  0.84540692  0.12700358  0.22999825  1.0
  Ni  Ni439  1  0.84540692  0.46033692  0.22999825  1.0
  Ni  Ni440  1  0.84540692  0.79367025  0.22999825  1.0
  Ni  Ni441  1  0.06762914  0.01589247  0.28555381  1.0
  Ni  Ni442  1  0.06762914  0.34922581  0.28555381  1.0
  Ni  Ni443  1  0.06762914  0.68255914  0.28555381  1.0
  Ni  Ni444  1  0.40096247  0.01589247  0.28555381  1.0
  Ni  Ni445  1  0.40096247  0.34922581  0.28555381  1.0
  Ni  Ni446  1  0.40096247  0.68255914  0.28555381  1.0
  Ni  Ni447  1  0.73429581  0.01589247  0.28555381  1.0
  Ni  Ni448  1  0.73429581  0.34922581  0.28555381  1.0
  Ni  Ni449  1  0.73429581  0.68255914  0.28555381  1.0
  Ni  Ni450  1  0.03644758  0.08818425  0.31852292  1.0
  Ni  Ni451  1  0.03644758  0.42151758  0.31852292  1.0
  Ni  Ni452  1  0.03644758  0.75485092  0.31852292  1.0
  Ni  Ni453  1  0.36978092  0.08818425  0.31852292  1.0
  Ni  Ni454  1  0.36978092  0.42151758  0.31852292  1.0
  Ni  Ni455  1  0.36978092  0.75485092  0.31852292  1.0
  Ni  Ni456  1  0.70311425  0.08818425  0.31852292  1.0
  Ni  Ni457  1  0.70311425  0.42151758  0.31852292  1.0
  Ni  Ni458  1  0.70311425  0.75485092  0.31852292  1.0
  Ni  Ni459  1  0.14755869  0.19929536  0.26296736  1.0
  Ni  Ni460  1  0.14755869  0.53262869  0.26296736  1.0
  Ni  Ni461  1  0.14755869  0.86596203  0.26296736  1.0
  Ni  Ni462  1  0.48089203  0.19929536  0.26296736  1.0
  Ni  Ni463  1  0.48089203  0.53262869  0.26296736  1.0
  Ni  Ni464  1  0.48089203  0.86596203  0.26296736  1.0
  Ni  Ni465  1  0.81422536  0.19929536  0.26296736  1.0
  Ni  Ni466  1  0.81422536  0.53262869  0.26296736  1.0
  Ni  Ni467  1  0.81422536  0.86596203  0.26296736  1.0
  Ni  Ni468  1  0.33198025  0.05038358  0.22573942  1.0
  Ni  Ni469  1  0.33198025  0.38371692  0.22573942  1.0
  Ni  Ni470  1  0.33198025  0.71705025  0.22573942  1.0
  Ni  Ni471  1  0.66531358  0.05038358  0.22573942  1.0
  Ni  Ni472  1  0.66531358  0.38371692  0.22573942  1.0
  Ni  Ni473  1  0.66531358  0.71705025  0.22573942  1.0
  Ni  Ni474  1  0.99864692  0.05038358  0.22573942  1.0
  Ni  Ni475  1  0.99864692  0.38371692  0.22573942  1.0
  Ni  Ni476  1  0.99864692  0.71705025  0.22573942  1.0
  Ni  Ni477  1  0.22086914  0.27260581  0.28129497  1.0
  Ni  Ni478  1  0.22086914  0.60593914  0.28129497  1.0
  Ni  Ni479  1  0.22086914  0.93927247  0.28129497  1.0
  Ni  Ni480  1  0.55420247  0.27260581  0.28129497  1.0
  Ni  Ni481  1  0.55420247  0.60593914  0.28129497  1.0
  Ni  Ni482  1  0.55420247  0.93927247  0.28129497  1.0
  Ni  Ni483  1  0.88753581  0.27260581  0.28129497  1.0
  Ni  Ni484  1  0.88753581  0.60593914  0.28129497  1.0
  Ni  Ni485  1  0.88753581  0.93927247  0.28129497  1.0
  Ni  Ni486  1  0.21654092  0.16480425  0.32278175  1.0
  Ni  Ni487  1  0.21654092  0.49813758  0.32278175  1.0
  Ni  Ni488  1  0.21654092  0.83147092  0.32278175  1.0
  Ni  Ni489  1  0.54987425  0.16480425  0.32278175  1.0
  Ni  Ni490  1  0.54987425  0.49813758  0.32278175  1.0
  Ni  Ni491  1  0.54987425  0.83147092  0.32278175  1.0
  Ni  Ni492  1  0.88320758  0.16480425  0.32278175  1.0
  Ni  Ni493  1  0.88320758  0.49813758  0.32278175  1.0
  Ni  Ni494  1  0.88320758  0.83147092  0.32278175  1.0
  Ni  Ni495  1  0.32765203  0.27591536  0.26722619  1.0
  Ni  Ni496  1  0.32765203  0.60924869  0.26722619  1.0
  Ni  Ni497  1  0.32765203  0.94258203  0.26722619  1.0
  Ni  Ni498  1  0.66098536  0.27591536  0.26722619  1.0
  Ni  Ni499  1  0.66098536  0.60924869  0.26722619  1.0
  Ni  Ni500  1  0.66098536  0.94258203  0.26722619  1.0
  Ni  Ni501  1  0.99431869  0.27591536  0.26722619  1.0
  Ni  Ni502  1  0.99431869  0.60924869  0.26722619  1.0
  Ni  Ni503  1  0.99431869  0.94258203  0.26722619  1.0
  Ni  Ni504  1  0.32981614  0.16314947  0.32981614  1.0
  Ni  Ni505  1  0.32981614  0.49648281  0.32981614  1.0
  Ni  Ni506  1  0.32981614  0.82981614  0.32981614  1.0
  Ni  Ni507  1  0.66314947  0.16314947  0.32981614  1.0
  Ni  Ni508  1  0.66314947  0.49648281  0.32981614  1.0
  Ni  Ni509  1  0.66314947  0.82981614  0.32981614  1.0
  Ni  Ni510  1  0.99648281  0.16314947  0.32981614  1.0
  Ni  Ni511  1  0.99648281  0.49648281  0.32981614  1.0
  Ni  Ni512  1  0.99648281  0.82981614  0.32981614  1.0
  Ni  Ni513  1  0.10759392  0.27426058  0.27426058  1.0
  Ni  Ni514  1  0.10759392  0.60759392  0.27426058  1.0
  Ni  Ni515  1  0.10759392  0.94092725  0.27426058  1.0
  Ni  Ni516  1  0.44092725  0.27426058  0.27426058  1.0
  Ni  Ni517  1  0.44092725  0.60759392  0.27426058  1.0
  Ni  Ni518  1  0.44092725  0.94092725  0.27426058  1.0
  Ni  Ni519  1  0.77426058  0.27426058  0.27426058  1.0
  Ni  Ni520  1  0.77426058  0.60759392  0.27426058  1.0
  Ni  Ni521  1  0.77426058  0.94092725  0.27426058  1.0
  Ni  Ni522  1  0.27426058  0.10759392  0.35759392  1.0
  Ni  Ni523  1  0.27426058  0.44092725  0.35759392  1.0
  Ni  Ni524  1  0.27426058  0.77426058  0.35759392  1.0
  Ni  Ni525  1  0.60759392  0.10759392  0.35759392  1.0
  Ni  Ni526  1  0.60759392  0.44092725  0.35759392  1.0
  Ni  Ni527  1  0.60759392  0.77426058  0.35759392  1.0
  Ni  Ni528  1  0.94092725  0.10759392  0.35759392  1.0
  Ni  Ni529  1  0.94092725  0.44092725  0.35759392  1.0
  Ni  Ni530  1  0.94092725  0.77426058  0.35759392  1.0
  Ni  Ni531  1  0.16314947  0.32981614  0.41314947  1.0
  Ni  Ni532  1  0.16314947  0.66314947  0.41314947  1.0
  Ni  Ni533  1  0.16314947  0.99648281  0.41314947  1.0
  Ni  Ni534  1  0.49648281  0.32981614  0.41314947  1.0
  Ni  Ni535  1  0.49648281  0.66314947  0.41314947  1.0
  Ni  Ni536  1  0.49648281  0.99648281  0.41314947  1.0
  Ni  Ni537  1  0.82981614  0.32981614  0.41314947  1.0
  Ni  Ni538  1  0.82981614  0.66314947  0.41314947  1.0
  Ni  Ni539  1  0.82981614  0.99648281  0.41314947  1.0
  Ni  Ni540  1  0.05203836  0.21870503  0.38537169  1.0
  Ni  Ni541  1  0.05203836  0.55203836  0.38537169  1.0
  Ni  Ni542  1  0.05203836  0.88537169  0.38537169  1.0
  Ni  Ni543  1  0.38537169  0.21870503  0.38537169  1.0
  Ni  Ni544  1  0.38537169  0.55203836  0.38537169  1.0
  Ni  Ni545  1  0.38537169  0.88537169  0.38537169  1.0
  Ni  Ni546  1  0.71870503  0.21870503  0.38537169  1.0
  Ni  Ni547  1  0.71870503  0.55203836  0.38537169  1.0
  Ni  Ni548  1  0.71870503  0.88537169  0.38537169  1.0
  Ni  Ni549  1  0.27426058  0.10759392  0.44092725  1.0
  Ni  Ni550  1  0.27426058  0.44092725  0.44092725  1.0
  Ni  Ni551  1  0.27426058  0.77426058  0.44092725  1.0
  Ni  Ni552  1  0.60759392  0.10759392  0.44092725  1.0
  Ni  Ni553  1  0.60759392  0.44092725  0.44092725  1.0
  Ni  Ni554  1  0.60759392  0.77426058  0.44092725  1.0
  Ni  Ni555  1  0.94092725  0.10759392  0.44092725  1.0
  Ni  Ni556  1  0.94092725  0.44092725  0.44092725  1.0
  Ni  Ni557  1  0.94092725  0.77426058  0.44092725  1.0
  Ni  Ni558  1  0.28985136  0.23811469  0.34110936  1.0
  Ni  Ni559  1  0.28985136  0.57144803  0.34110936  1.0
  Ni  Ni560  1  0.28985136  0.90478136  0.34110936  1.0
  Ni  Ni561  1  0.62318469  0.23811469  0.34110936  1.0
  Ni  Ni562  1  0.62318469  0.57144803  0.34110936  1.0
  Ni  Ni563  1  0.62318469  0.90478136  0.34110936  1.0
  Ni  Ni564  1  0.95651803  0.23811469  0.34110936  1.0
  Ni  Ni565  1  0.95651803  0.57144803  0.34110936  1.0
  Ni  Ni566  1  0.95651803  0.90478136  0.34110936  1.0
  Ni  Ni567  1  0.17874025  0.12700358  0.39666492  1.0
  Ni  Ni568  1  0.17874025  0.46033692  0.39666492  1.0
  Ni  Ni569  1  0.17874025  0.79367025  0.39666492  1.0
  Ni  Ni570  1  0.51207358  0.12700358  0.39666492  1.0
  Ni  Ni571  1  0.51207358  0.46033692  0.39666492  1.0
  Ni  Ni572  1  0.51207358  0.79367025  0.39666492  1.0
  Ni  Ni573  1  0.84540692  0.12700358  0.39666492  1.0
  Ni  Ni574  1  0.84540692  0.46033692  0.39666492  1.0
  Ni  Ni575  1  0.84540692  0.79367025  0.39666492  1.0
  Ni  Ni576  1  0.14755869  0.19929536  0.42963403  1.0
  Ni  Ni577  1  0.14755869  0.53262869  0.42963403  1.0
  Ni  Ni578  1  0.14755869  0.86596203  0.42963403  1.0
  Ni  Ni579  1  0.48089203  0.19929536  0.42963403  1.0
  Ni  Ni580  1  0.48089203  0.53262869  0.42963403  1.0
  Ni  Ni581  1  0.48089203  0.86596203  0.42963403  1.0
  Ni  Ni582  1  0.81422536  0.19929536  0.42963403  1.0
  Ni  Ni583  1  0.81422536  0.53262869  0.42963403  1.0
  Ni  Ni584  1  0.81422536  0.86596203  0.42963403  1.0
  Ni  Ni585  1  0.25866981  0.31040647  0.37407847  1.0
  Ni  Ni586  1  0.25866981  0.64373981  0.37407847  1.0
  Ni  Ni587  1  0.25866981  0.97707314  0.37407847  1.0
  Ni  Ni588  1  0.59200314  0.31040647  0.37407847  1.0
  Ni  Ni589  1  0.59200314  0.64373981  0.37407847  1.0
  Ni  Ni590  1  0.59200314  0.97707314  0.37407847  1.0
  Ni  Ni591  1  0.92533647  0.31040647  0.37407847  1.0
  Ni  Ni592  1  0.92533647  0.64373981  0.37407847  1.0
  Ni  Ni593  1  0.92533647  0.97707314  0.37407847  1.0
  Ni  Ni594  1  0.10975803  0.16149469  0.33685053  1.0
  Ni  Ni595  1  0.10975803  0.49482803  0.33685053  1.0
  Ni  Ni596  1  0.10975803  0.82816136  0.33685053  1.0
  Ni  Ni597  1  0.44309136  0.16149469  0.33685053  1.0
  Ni  Ni598  1  0.44309136  0.49482803  0.33685053  1.0
  Ni  Ni599  1  0.44309136  0.82816136  0.33685053  1.0
  Ni  Ni600  1  0.77642469  0.16149469  0.33685053  1.0
  Ni  Ni601  1  0.77642469  0.49482803  0.33685053  1.0
  Ni  Ni602  1  0.77642469  0.82816136  0.33685053  1.0
  Ni  Ni603  1  0.33198025  0.05038358  0.39240608  1.0
  Ni  Ni604  1  0.33198025  0.38371692  0.39240608  1.0
  Ni  Ni605  1  0.33198025  0.71705025  0.39240608  1.0
  Ni  Ni606  1  0.66531358  0.05038358  0.39240608  1.0
  Ni  Ni607  1  0.66531358  0.38371692  0.39240608  1.0
  Ni  Ni608  1  0.66531358  0.71705025  0.39240608  1.0
  Ni  Ni609  1  0.99864692  0.05038358  0.39240608  1.0
  Ni  Ni610  1  0.99864692  0.38371692  0.39240608  1.0
  Ni  Ni611  1  0.99864692  0.71705025  0.39240608  1.0
  Ni  Ni612  1  0.32765203  0.27591536  0.43389286  1.0
  Ni  Ni613  1  0.32765203  0.60924869  0.43389286  1.0
  Ni  Ni614  1  0.32765203  0.94258203  0.43389286  1.0
  Ni  Ni615  1  0.66098536  0.27591536  0.43389286  1.0
  Ni  Ni616  1  0.66098536  0.60924869  0.43389286  1.0
  Ni  Ni617  1  0.66098536  0.94258203  0.43389286  1.0
  Ni  Ni618  1  0.99431869  0.27591536  0.43389286  1.0
  Ni  Ni619  1  0.99431869  0.60924869  0.43389286  1.0
  Ni  Ni620  1  0.99431869  0.94258203  0.43389286  1.0
  Ni  Ni621  1  0.10542981  0.05369314  0.37833731  1.0
  Ni  Ni622  1  0.10542981  0.38702647  0.37833731  1.0
  Ni  Ni623  1  0.10542981  0.72035981  0.37833731  1.0
  Ni  Ni624  1  0.43876314  0.05369314  0.37833731  1.0
  Ni  Ni625  1  0.43876314  0.38702647  0.37833731  1.0
  Ni  Ni626  1  0.43876314  0.72035981  0.37833731  1.0
  Ni  Ni627  1  0.77209647  0.05369314  0.37833731  1.0
  Ni  Ni628  1  0.77209647  0.38702647  0.37833731  1.0
  Ni  Ni629  1  0.77209647  0.72035981  0.37833731  1.0
  Ni  Ni630  1  0.10759392  0.27426058  0.44092725  1.0
  Ni  Ni631  1  0.10759392  0.60759392  0.44092725  1.0
  Ni  Ni632  1  0.10759392  0.94092725  0.44092725  1.0
  Ni  Ni633  1  0.44092725  0.27426058  0.44092725  1.0
  Ni  Ni634  1  0.44092725  0.60759392  0.44092725  1.0
  Ni  Ni635  1  0.44092725  0.94092725  0.44092725  1.0
  Ni  Ni636  1  0.77426058  0.27426058  0.44092725  1.0
  Ni  Ni637  1  0.77426058  0.60759392  0.44092725  1.0
  Ni  Ni638  1  0.77426058  0.94092725  0.44092725  1.0
  Ni  Ni639  1  0.21870503  0.05203836  0.38537169  1.0
  Ni  Ni640  1  0.21870503  0.38537169  0.38537169  1.0
  Ni  Ni641  1  0.21870503  0.71870503  0.38537169  1.0
  Ni  Ni642  1  0.55203836  0.05203836  0.38537169  1.0
  Ni  Ni643  1  0.55203836  0.38537169  0.38537169  1.0
  Ni  Ni644  1  0.55203836  0.71870503  0.38537169  1.0
  Ni  Ni645  1  0.88537169  0.05203836  0.38537169  1.0
  Ni  Ni646  1  0.88537169  0.38537169  0.38537169  1.0
  Ni  Ni647  1  0.88537169  0.71870503  0.38537169  1.0
