# generated using pymatgen
data_Hf2Ni
_symmetry_space_group_name_H-M   'P 1'
_cell_length_a   41.53465311
_cell_length_b   24.81925804
_cell_length_c   68.02342625
_cell_angle_alpha   142.23575603
_cell_angle_beta   139.11618931
_cell_angle_gamma   65.26361446
_symmetry_Int_Tables_number   1
_chemical_formula_structural   Hf2Ni
_chemical_formula_sum   'Hf360 Ni180'
_cell_volume   25141.61625613
_cell_formula_units_Z   180
loop_
 _symmetry_equiv_pos_site_id
 _symmetry_equiv_pos_as_xyz
  1  'x, y, z'
loop_
 _atom_site_type_symbol
 _atom_site_label
 _atom_site_symmetry_multiplicity
 _atom_site_fract_x
 _atom_site_fract_y
 _atom_site_fract_z
 _atom_site_occupancy
  Hf  Hf0  1  0.11070500  0.16666667  0.04369096  1.0
  Hf  Hf1  1  0.11070500  0.50000000  0.04369096  1.0
  Hf  Hf2  1  0.11070500  0.83333333  0.04369096  1.0
  Hf  Hf3  1  0.44403833  0.16666667  0.04369096  1.0
  Hf  Hf4  1  0.44403833  0.50000000  0.04369096  1.0
  Hf  Hf5  1  0.44403833  0.83333333  0.04369096  1.0
  Hf  Hf6  1  0.77737167  0.16666667  0.04369096  1.0
  Hf  Hf7  1  0.77737167  0.50000000  0.04369096  1.0
  Hf  Hf8  1  0.77737167  0.83333333  0.04369096  1.0
  Hf  Hf9  1  0.27737167  0.16666667  0.00522942  1.0
  Hf  Hf10  1  0.27737167  0.50000000  0.00522942  1.0
  Hf  Hf11  1  0.27737167  0.83333333  0.00522942  1.0
  Hf  Hf12  1  0.61070500  0.16666667  0.00522942  1.0
  Hf  Hf13  1  0.61070500  0.50000000  0.00522942  1.0
  Hf  Hf14  1  0.61070500  0.83333333  0.00522942  1.0
  Hf  Hf15  1  0.94403833  0.16666667  0.00522942  1.0
  Hf  Hf16  1  0.94403833  0.50000000  0.00522942  1.0
  Hf  Hf17  1  0.94403833  0.83333333  0.00522942  1.0
  Hf  Hf18  1  0.13929500  0.05718000  0.06348404  1.0
  Hf  Hf19  1  0.13929500  0.39051333  0.06348404  1.0
  Hf  Hf20  1  0.13929500  0.72384667  0.06348404  1.0
  Hf  Hf21  1  0.47262833  0.05718000  0.06348404  1.0
  Hf  Hf22  1  0.47262833  0.39051333  0.06348404  1.0
  Hf  Hf23  1  0.47262833  0.72384667  0.06348404  1.0
  Hf  Hf24  1  0.80596167  0.05718000  0.06348404  1.0
  Hf  Hf25  1  0.80596167  0.39051333  0.06348404  1.0
  Hf  Hf26  1  0.80596167  0.72384667  0.06348404  1.0
  Hf  Hf27  1  0.30596167  0.05718000  0.02502250  1.0
  Hf  Hf28  1  0.30596167  0.39051333  0.02502250  1.0
  Hf  Hf29  1  0.30596167  0.72384667  0.02502250  1.0
  Hf  Hf30  1  0.63929500  0.05718000  0.02502250  1.0
  Hf  Hf31  1  0.63929500  0.39051333  0.02502250  1.0
  Hf  Hf32  1  0.63929500  0.72384667  0.02502250  1.0
  Hf  Hf33  1  0.97262833  0.05718000  0.02502250  1.0
  Hf  Hf34  1  0.97262833  0.39051333  0.02502250  1.0
  Hf  Hf35  1  0.97262833  0.72384667  0.02502250  1.0
  Hf  Hf36  1  0.05596167  0.16666667  0.05632404  1.0
  Hf  Hf37  1  0.05596167  0.50000000  0.05632404  1.0
  Hf  Hf38  1  0.05596167  0.83333333  0.05632404  1.0
  Hf  Hf39  1  0.38929500  0.16666667  0.05632404  1.0
  Hf  Hf40  1  0.38929500  0.50000000  0.05632404  1.0
  Hf  Hf41  1  0.38929500  0.83333333  0.05632404  1.0
  Hf  Hf42  1  0.72262833  0.16666667  0.05632404  1.0
  Hf  Hf43  1  0.72262833  0.50000000  0.05632404  1.0
  Hf  Hf44  1  0.72262833  0.83333333  0.05632404  1.0
  Hf  Hf45  1  0.22262833  0.16666667  0.01786250  1.0
  Hf  Hf46  1  0.22262833  0.50000000  0.01786250  1.0
  Hf  Hf47  1  0.22262833  0.83333333  0.01786250  1.0
  Hf  Hf48  1  0.55596167  0.16666667  0.01786250  1.0
  Hf  Hf49  1  0.55596167  0.50000000  0.01786250  1.0
  Hf  Hf50  1  0.55596167  0.83333333  0.01786250  1.0
  Hf  Hf51  1  0.88929500  0.16666667  0.01786250  1.0
  Hf  Hf52  1  0.88929500  0.50000000  0.01786250  1.0
  Hf  Hf53  1  0.88929500  0.83333333  0.01786250  1.0
  Hf  Hf54  1  0.02737167  0.27615333  0.03653096  1.0
  Hf  Hf55  1  0.02737167  0.60948667  0.03653096  1.0
  Hf  Hf56  1  0.02737167  0.94282000  0.03653096  1.0
  Hf  Hf57  1  0.36070500  0.27615333  0.03653096  1.0
  Hf  Hf58  1  0.36070500  0.60948667  0.03653096  1.0
  Hf  Hf59  1  0.36070500  0.94282000  0.03653096  1.0
  Hf  Hf60  1  0.69403833  0.27615333  0.03653096  1.0
  Hf  Hf61  1  0.69403833  0.60948667  0.03653096  1.0
  Hf  Hf62  1  0.69403833  0.94282000  0.03653096  1.0
  Hf  Hf63  1  0.19403833  0.27615333  0.07499250  1.0
  Hf  Hf64  1  0.19403833  0.60948667  0.07499250  1.0
  Hf  Hf65  1  0.19403833  0.94282000  0.07499250  1.0
  Hf  Hf66  1  0.52737167  0.27615333  0.07499250  1.0
  Hf  Hf67  1  0.52737167  0.60948667  0.07499250  1.0
  Hf  Hf68  1  0.52737167  0.94282000  0.07499250  1.0
  Hf  Hf69  1  0.86070500  0.27615333  0.07499250  1.0
  Hf  Hf70  1  0.86070500  0.60948667  0.07499250  1.0
  Hf  Hf71  1  0.86070500  0.94282000  0.07499250  1.0
  Ni  Ni72  1  0.12500000  0.33333333  0.00193058  1.0
  Ni  Ni73  1  0.12500000  0.66666667  0.00193058  1.0
  Ni  Ni74  1  0.12500000  1.00000000  0.00193058  1.0
  Ni  Ni75  1  0.45833333  0.33333333  0.00193058  1.0
  Ni  Ni76  1  0.45833333  0.66666667  0.00193058  1.0
  Ni  Ni77  1  0.45833333  1.00000000  0.00193058  1.0
  Ni  Ni78  1  0.79166667  0.33333333  0.00193058  1.0
  Ni  Ni79  1  0.79166667  0.66666667  0.00193058  1.0
  Ni  Ni80  1  0.79166667  1.00000000  0.00193058  1.0
  Ni  Ni81  1  0.29166667  0.33333333  0.04039212  1.0
  Ni  Ni82  1  0.29166667  0.66666667  0.04039212  1.0
  Ni  Ni83  1  0.29166667  1.00000000  0.04039212  1.0
  Ni  Ni84  1  0.62500000  0.33333333  0.04039212  1.0
  Ni  Ni85  1  0.62500000  0.66666667  0.04039212  1.0
  Ni  Ni86  1  0.62500000  1.00000000  0.04039212  1.0
  Ni  Ni87  1  0.95833333  0.33333333  0.04039212  1.0
  Ni  Ni88  1  0.95833333  0.66666667  0.04039212  1.0
  Ni  Ni89  1  0.95833333  1.00000000  0.04039212  1.0
  Ni  Ni90  1  0.04166667  0.00000000  0.02116135  1.0
  Ni  Ni91  1  0.04166667  0.33333333  0.02116135  1.0
  Ni  Ni92  1  0.04166667  0.66666667  0.02116135  1.0
  Ni  Ni93  1  0.37500000  0.00000000  0.02116135  1.0
  Ni  Ni94  1  0.37500000  0.33333333  0.02116135  1.0
  Ni  Ni95  1  0.37500000  0.66666667  0.02116135  1.0
  Ni  Ni96  1  0.70833333  0.00000000  0.02116135  1.0
  Ni  Ni97  1  0.70833333  0.33333333  0.02116135  1.0
  Ni  Ni98  1  0.70833333  0.66666667  0.02116135  1.0
  Ni  Ni99  1  0.20833333  0.33333333  0.05962288  1.0
  Ni  Ni100  1  0.20833333  0.66666667  0.05962288  1.0
  Ni  Ni101  1  0.20833333  1.00000000  0.05962288  1.0
  Ni  Ni102  1  0.54166667  0.33333333  0.05962288  1.0
  Ni  Ni103  1  0.54166667  0.66666667  0.05962288  1.0
  Ni  Ni104  1  0.54166667  1.00000000  0.05962288  1.0
  Ni  Ni105  1  0.87500000  0.33333333  0.05962288  1.0
  Ni  Ni106  1  0.87500000  0.66666667  0.05962288  1.0
  Ni  Ni107  1  0.87500000  1.00000000  0.05962288  1.0
  Hf  Hf108  1  0.11070500  0.16666667  0.12061404  1.0
  Hf  Hf109  1  0.11070500  0.50000000  0.12061404  1.0
  Hf  Hf110  1  0.11070500  0.83333333  0.12061404  1.0
  Hf  Hf111  1  0.44403833  0.16666667  0.12061404  1.0
  Hf  Hf112  1  0.44403833  0.50000000  0.12061404  1.0
  Hf  Hf113  1  0.44403833  0.83333333  0.12061404  1.0
  Hf  Hf114  1  0.77737167  0.16666667  0.12061404  1.0
  Hf  Hf115  1  0.77737167  0.50000000  0.12061404  1.0
  Hf  Hf116  1  0.77737167  0.83333333  0.12061404  1.0
  Hf  Hf117  1  0.27737167  0.16666667  0.08215250  1.0
  Hf  Hf118  1  0.27737167  0.50000000  0.08215250  1.0
  Hf  Hf119  1  0.27737167  0.83333333  0.08215250  1.0
  Hf  Hf120  1  0.61070500  0.16666667  0.08215250  1.0
  Hf  Hf121  1  0.61070500  0.50000000  0.08215250  1.0
  Hf  Hf122  1  0.61070500  0.83333333  0.08215250  1.0
  Hf  Hf123  1  0.94403833  0.16666667  0.08215250  1.0
  Hf  Hf124  1  0.94403833  0.50000000  0.08215250  1.0
  Hf  Hf125  1  0.94403833  0.83333333  0.08215250  1.0
  Hf  Hf126  1  0.13929500  0.05718000  0.14040712  1.0
  Hf  Hf127  1  0.13929500  0.39051333  0.14040712  1.0
  Hf  Hf128  1  0.13929500  0.72384667  0.14040712  1.0
  Hf  Hf129  1  0.47262833  0.05718000  0.14040712  1.0
  Hf  Hf130  1  0.47262833  0.39051333  0.14040712  1.0
  Hf  Hf131  1  0.47262833  0.72384667  0.14040712  1.0
  Hf  Hf132  1  0.80596167  0.05718000  0.14040712  1.0
  Hf  Hf133  1  0.80596167  0.39051333  0.14040712  1.0
  Hf  Hf134  1  0.80596167  0.72384667  0.14040712  1.0
  Hf  Hf135  1  0.30596167  0.05718000  0.10194558  1.0
  Hf  Hf136  1  0.30596167  0.39051333  0.10194558  1.0
  Hf  Hf137  1  0.30596167  0.72384667  0.10194558  1.0
  Hf  Hf138  1  0.63929500  0.05718000  0.10194558  1.0
  Hf  Hf139  1  0.63929500  0.39051333  0.10194558  1.0
  Hf  Hf140  1  0.63929500  0.72384667  0.10194558  1.0
  Hf  Hf141  1  0.97262833  0.05718000  0.10194558  1.0
  Hf  Hf142  1  0.97262833  0.39051333  0.10194558  1.0
  Hf  Hf143  1  0.97262833  0.72384667  0.10194558  1.0
  Hf  Hf144  1  0.05596167  0.16666667  0.13324712  1.0
  Hf  Hf145  1  0.05596167  0.50000000  0.13324712  1.0
  Hf  Hf146  1  0.05596167  0.83333333  0.13324712  1.0
  Hf  Hf147  1  0.38929500  0.16666667  0.13324712  1.0
  Hf  Hf148  1  0.38929500  0.50000000  0.13324712  1.0
  Hf  Hf149  1  0.38929500  0.83333333  0.13324712  1.0
  Hf  Hf150  1  0.72262833  0.16666667  0.13324712  1.0
  Hf  Hf151  1  0.72262833  0.50000000  0.13324712  1.0
  Hf  Hf152  1  0.72262833  0.83333333  0.13324712  1.0
  Hf  Hf153  1  0.22262833  0.16666667  0.09478558  1.0
  Hf  Hf154  1  0.22262833  0.50000000  0.09478558  1.0
  Hf  Hf155  1  0.22262833  0.83333333  0.09478558  1.0
  Hf  Hf156  1  0.55596167  0.16666667  0.09478558  1.0
  Hf  Hf157  1  0.55596167  0.50000000  0.09478558  1.0
  Hf  Hf158  1  0.55596167  0.83333333  0.09478558  1.0
  Hf  Hf159  1  0.88929500  0.16666667  0.09478558  1.0
  Hf  Hf160  1  0.88929500  0.50000000  0.09478558  1.0
  Hf  Hf161  1  0.88929500  0.83333333  0.09478558  1.0
  Hf  Hf162  1  0.02737167  0.27615333  0.11345404  1.0
  Hf  Hf163  1  0.02737167  0.60948667  0.11345404  1.0
  Hf  Hf164  1  0.02737167  0.94282000  0.11345404  1.0
  Hf  Hf165  1  0.36070500  0.27615333  0.11345404  1.0
  Hf  Hf166  1  0.36070500  0.60948667  0.11345404  1.0
  Hf  Hf167  1  0.36070500  0.94282000  0.11345404  1.0
  Hf  Hf168  1  0.69403833  0.27615333  0.11345404  1.0
  Hf  Hf169  1  0.69403833  0.60948667  0.11345404  1.0
  Hf  Hf170  1  0.69403833  0.94282000  0.11345404  1.0
  Hf  Hf171  1  0.19403833  0.27615333  0.15191558  1.0
  Hf  Hf172  1  0.19403833  0.60948667  0.15191558  1.0
  Hf  Hf173  1  0.19403833  0.94282000  0.15191558  1.0
  Hf  Hf174  1  0.52737167  0.27615333  0.15191558  1.0
  Hf  Hf175  1  0.52737167  0.60948667  0.15191558  1.0
  Hf  Hf176  1  0.52737167  0.94282000  0.15191558  1.0
  Hf  Hf177  1  0.86070500  0.27615333  0.15191558  1.0
  Hf  Hf178  1  0.86070500  0.60948667  0.15191558  1.0
  Hf  Hf179  1  0.86070500  0.94282000  0.15191558  1.0
  Ni  Ni180  1  0.12500000  0.33333333  0.07885365  1.0
  Ni  Ni181  1  0.12500000  0.66666667  0.07885365  1.0
  Ni  Ni182  1  0.12500000  1.00000000  0.07885365  1.0
  Ni  Ni183  1  0.45833333  0.33333333  0.07885365  1.0
  Ni  Ni184  1  0.45833333  0.66666667  0.07885365  1.0
  Ni  Ni185  1  0.45833333  1.00000000  0.07885365  1.0
  Ni  Ni186  1  0.79166667  0.33333333  0.07885365  1.0
  Ni  Ni187  1  0.79166667  0.66666667  0.07885365  1.0
  Ni  Ni188  1  0.79166667  1.00000000  0.07885365  1.0
  Ni  Ni189  1  0.29166667  0.33333333  0.11731519  1.0
  Ni  Ni190  1  0.29166667  0.66666667  0.11731519  1.0
  Ni  Ni191  1  0.29166667  1.00000000  0.11731519  1.0
  Ni  Ni192  1  0.62500000  0.33333333  0.11731519  1.0
  Ni  Ni193  1  0.62500000  0.66666667  0.11731519  1.0
  Ni  Ni194  1  0.62500000  1.00000000  0.11731519  1.0
  Ni  Ni195  1  0.95833333  0.33333333  0.11731519  1.0
  Ni  Ni196  1  0.95833333  0.66666667  0.11731519  1.0
  Ni  Ni197  1  0.95833333  1.00000000  0.11731519  1.0
  Ni  Ni198  1  0.04166667  0.00000000  0.09808442  1.0
  Ni  Ni199  1  0.04166667  0.33333333  0.09808442  1.0
  Ni  Ni200  1  0.04166667  0.66666667  0.09808442  1.0
  Ni  Ni201  1  0.37500000  0.00000000  0.09808442  1.0
  Ni  Ni202  1  0.37500000  0.33333333  0.09808442  1.0
  Ni  Ni203  1  0.37500000  0.66666667  0.09808442  1.0
  Ni  Ni204  1  0.70833333  0.00000000  0.09808442  1.0
  Ni  Ni205  1  0.70833333  0.33333333  0.09808442  1.0
  Ni  Ni206  1  0.70833333  0.66666667  0.09808442  1.0
  Ni  Ni207  1  0.20833333  0.33333333  0.13654596  1.0
  Ni  Ni208  1  0.20833333  0.66666667  0.13654596  1.0
  Ni  Ni209  1  0.20833333  1.00000000  0.13654596  1.0
  Ni  Ni210  1  0.54166667  0.33333333  0.13654596  1.0
  Ni  Ni211  1  0.54166667  0.66666667  0.13654596  1.0
  Ni  Ni212  1  0.54166667  1.00000000  0.13654596  1.0
  Ni  Ni213  1  0.87500000  0.33333333  0.13654596  1.0
  Ni  Ni214  1  0.87500000  0.66666667  0.13654596  1.0
  Ni  Ni215  1  0.87500000  1.00000000  0.13654596  1.0
  Hf  Hf216  1  0.11070500  0.16666667  0.19753712  1.0
  Hf  Hf217  1  0.11070500  0.50000000  0.19753712  1.0
  Hf  Hf218  1  0.11070500  0.83333333  0.19753712  1.0
  Hf  Hf219  1  0.44403833  0.16666667  0.19753712  1.0
  Hf  Hf220  1  0.44403833  0.50000000  0.19753712  1.0
  Hf  Hf221  1  0.44403833  0.83333333  0.19753712  1.0
  Hf  Hf222  1  0.77737167  0.16666667  0.19753712  1.0
  Hf  Hf223  1  0.77737167  0.50000000  0.19753712  1.0
  Hf  Hf224  1  0.77737167  0.83333333  0.19753712  1.0
  Hf  Hf225  1  0.27737167  0.16666667  0.15907558  1.0
  Hf  Hf226  1  0.27737167  0.50000000  0.15907558  1.0
  Hf  Hf227  1  0.27737167  0.83333333  0.15907558  1.0
  Hf  Hf228  1  0.61070500  0.16666667  0.15907558  1.0
  Hf  Hf229  1  0.61070500  0.50000000  0.15907558  1.0
  Hf  Hf230  1  0.61070500  0.83333333  0.15907558  1.0
  Hf  Hf231  1  0.94403833  0.16666667  0.15907558  1.0
  Hf  Hf232  1  0.94403833  0.50000000  0.15907558  1.0
  Hf  Hf233  1  0.94403833  0.83333333  0.15907558  1.0
  Hf  Hf234  1  0.13929500  0.05718000  0.21733019  1.0
  Hf  Hf235  1  0.13929500  0.39051333  0.21733019  1.0
  Hf  Hf236  1  0.13929500  0.72384667  0.21733019  1.0
  Hf  Hf237  1  0.47262833  0.05718000  0.21733019  1.0
  Hf  Hf238  1  0.47262833  0.39051333  0.21733019  1.0
  Hf  Hf239  1  0.47262833  0.72384667  0.21733019  1.0
  Hf  Hf240  1  0.80596167  0.05718000  0.21733019  1.0
  Hf  Hf241  1  0.80596167  0.39051333  0.21733019  1.0
  Hf  Hf242  1  0.80596167  0.72384667  0.21733019  1.0
  Hf  Hf243  1  0.30596167  0.05718000  0.17886865  1.0
  Hf  Hf244  1  0.30596167  0.39051333  0.17886865  1.0
  Hf  Hf245  1  0.30596167  0.72384667  0.17886865  1.0
  Hf  Hf246  1  0.63929500  0.05718000  0.17886865  1.0
  Hf  Hf247  1  0.63929500  0.39051333  0.17886865  1.0
  Hf  Hf248  1  0.63929500  0.72384667  0.17886865  1.0
  Hf  Hf249  1  0.97262833  0.05718000  0.17886865  1.0
  Hf  Hf250  1  0.97262833  0.39051333  0.17886865  1.0
  Hf  Hf251  1  0.97262833  0.72384667  0.17886865  1.0
  Hf  Hf252  1  0.05596167  0.16666667  0.21017019  1.0
  Hf  Hf253  1  0.05596167  0.50000000  0.21017019  1.0
  Hf  Hf254  1  0.05596167  0.83333333  0.21017019  1.0
  Hf  Hf255  1  0.38929500  0.16666667  0.21017019  1.0
  Hf  Hf256  1  0.38929500  0.50000000  0.21017019  1.0
  Hf  Hf257  1  0.38929500  0.83333333  0.21017019  1.0
  Hf  Hf258  1  0.72262833  0.16666667  0.21017019  1.0
  Hf  Hf259  1  0.72262833  0.50000000  0.21017019  1.0
  Hf  Hf260  1  0.72262833  0.83333333  0.21017019  1.0
  Hf  Hf261  1  0.22262833  0.16666667  0.17170865  1.0
  Hf  Hf262  1  0.22262833  0.50000000  0.17170865  1.0
  Hf  Hf263  1  0.22262833  0.83333333  0.17170865  1.0
  Hf  Hf264  1  0.55596167  0.16666667  0.17170865  1.0
  Hf  Hf265  1  0.55596167  0.50000000  0.17170865  1.0
  Hf  Hf266  1  0.55596167  0.83333333  0.17170865  1.0
  Hf  Hf267  1  0.88929500  0.16666667  0.17170865  1.0
  Hf  Hf268  1  0.88929500  0.50000000  0.17170865  1.0
  Hf  Hf269  1  0.88929500  0.83333333  0.17170865  1.0
  Hf  Hf270  1  0.02737167  0.27615333  0.19037712  1.0
  Hf  Hf271  1  0.02737167  0.60948667  0.19037712  1.0
  Hf  Hf272  1  0.02737167  0.94282000  0.19037712  1.0
  Hf  Hf273  1  0.36070500  0.27615333  0.19037712  1.0
  Hf  Hf274  1  0.36070500  0.60948667  0.19037712  1.0
  Hf  Hf275  1  0.36070500  0.94282000  0.19037712  1.0
  Hf  Hf276  1  0.69403833  0.27615333  0.19037712  1.0
  Hf  Hf277  1  0.69403833  0.60948667  0.19037712  1.0
  Hf  Hf278  1  0.69403833  0.94282000  0.19037712  1.0
  Hf  Hf279  1  0.19403833  0.27615333  0.22883865  1.0
  Hf  Hf280  1  0.19403833  0.60948667  0.22883865  1.0
  Hf  Hf281  1  0.19403833  0.94282000  0.22883865  1.0
  Hf  Hf282  1  0.52737167  0.27615333  0.22883865  1.0
  Hf  Hf283  1  0.52737167  0.60948667  0.22883865  1.0
  Hf  Hf284  1  0.52737167  0.94282000  0.22883865  1.0
  Hf  Hf285  1  0.86070500  0.27615333  0.22883865  1.0
  Hf  Hf286  1  0.86070500  0.60948667  0.22883865  1.0
  Hf  Hf287  1  0.86070500  0.94282000  0.22883865  1.0
  Ni  Ni288  1  0.12500000  0.33333333  0.15577673  1.0
  Ni  Ni289  1  0.12500000  0.66666667  0.15577673  1.0
  Ni  Ni290  1  0.12500000  1.00000000  0.15577673  1.0
  Ni  Ni291  1  0.45833333  0.33333333  0.15577673  1.0
  Ni  Ni292  1  0.45833333  0.66666667  0.15577673  1.0
  Ni  Ni293  1  0.45833333  1.00000000  0.15577673  1.0
  Ni  Ni294  1  0.79166667  0.33333333  0.15577673  1.0
  Ni  Ni295  1  0.79166667  0.66666667  0.15577673  1.0
  Ni  Ni296  1  0.79166667  1.00000000  0.15577673  1.0
  Ni  Ni297  1  0.29166667  0.33333333  0.19423827  1.0
  Ni  Ni298  1  0.29166667  0.66666667  0.19423827  1.0
  Ni  Ni299  1  0.29166667  1.00000000  0.19423827  1.0
  Ni  Ni300  1  0.62500000  0.33333333  0.19423827  1.0
  Ni  Ni301  1  0.62500000  0.66666667  0.19423827  1.0
  Ni  Ni302  1  0.62500000  1.00000000  0.19423827  1.0
  Ni  Ni303  1  0.95833333  0.33333333  0.19423827  1.0
  Ni  Ni304  1  0.95833333  0.66666667  0.19423827  1.0
  Ni  Ni305  1  0.95833333  1.00000000  0.19423827  1.0
  Ni  Ni306  1  0.04166667  0.00000000  0.17500750  1.0
  Ni  Ni307  1  0.04166667  0.33333333  0.17500750  1.0
  Ni  Ni308  1  0.04166667  0.66666667  0.17500750  1.0
  Ni  Ni309  1  0.37500000  0.00000000  0.17500750  1.0
  Ni  Ni310  1  0.37500000  0.33333333  0.17500750  1.0
  Ni  Ni311  1  0.37500000  0.66666667  0.17500750  1.0
  Ni  Ni312  1  0.70833333  0.00000000  0.17500750  1.0
  Ni  Ni313  1  0.70833333  0.33333333  0.17500750  1.0
  Ni  Ni314  1  0.70833333  0.66666667  0.17500750  1.0
  Ni  Ni315  1  0.20833333  0.33333333  0.21346904  1.0
  Ni  Ni316  1  0.20833333  0.66666667  0.21346904  1.0
  Ni  Ni317  1  0.20833333  1.00000000  0.21346904  1.0
  Ni  Ni318  1  0.54166667  0.33333333  0.21346904  1.0
  Ni  Ni319  1  0.54166667  0.66666667  0.21346904  1.0
  Ni  Ni320  1  0.54166667  1.00000000  0.21346904  1.0
  Ni  Ni321  1  0.87500000  0.33333333  0.21346904  1.0
  Ni  Ni322  1  0.87500000  0.66666667  0.21346904  1.0
  Ni  Ni323  1  0.87500000  1.00000000  0.21346904  1.0
  Hf  Hf324  1  0.11070500  0.16666667  0.27446019  1.0
  Hf  Hf325  1  0.11070500  0.50000000  0.27446019  1.0
  Hf  Hf326  1  0.11070500  0.83333333  0.27446019  1.0
  Hf  Hf327  1  0.44403833  0.16666667  0.27446019  1.0
  Hf  Hf328  1  0.44403833  0.50000000  0.27446019  1.0
  Hf  Hf329  1  0.44403833  0.83333333  0.27446019  1.0
  Hf  Hf330  1  0.77737167  0.16666667  0.27446019  1.0
  Hf  Hf331  1  0.77737167  0.50000000  0.27446019  1.0
  Hf  Hf332  1  0.77737167  0.83333333  0.27446019  1.0
  Hf  Hf333  1  0.27737167  0.16666667  0.23599865  1.0
  Hf  Hf334  1  0.27737167  0.50000000  0.23599865  1.0
  Hf  Hf335  1  0.27737167  0.83333333  0.23599865  1.0
  Hf  Hf336  1  0.61070500  0.16666667  0.23599865  1.0
  Hf  Hf337  1  0.61070500  0.50000000  0.23599865  1.0
  Hf  Hf338  1  0.61070500  0.83333333  0.23599865  1.0
  Hf  Hf339  1  0.94403833  0.16666667  0.23599865  1.0
  Hf  Hf340  1  0.94403833  0.50000000  0.23599865  1.0
  Hf  Hf341  1  0.94403833  0.83333333  0.23599865  1.0
  Hf  Hf342  1  0.13929500  0.05718000  0.29425327  1.0
  Hf  Hf343  1  0.13929500  0.39051333  0.29425327  1.0
  Hf  Hf344  1  0.13929500  0.72384667  0.29425327  1.0
  Hf  Hf345  1  0.47262833  0.05718000  0.29425327  1.0
  Hf  Hf346  1  0.47262833  0.39051333  0.29425327  1.0
  Hf  Hf347  1  0.47262833  0.72384667  0.29425327  1.0
  Hf  Hf348  1  0.80596167  0.05718000  0.29425327  1.0
  Hf  Hf349  1  0.80596167  0.39051333  0.29425327  1.0
  Hf  Hf350  1  0.80596167  0.72384667  0.29425327  1.0
  Hf  Hf351  1  0.30596167  0.05718000  0.25579173  1.0
  Hf  Hf352  1  0.30596167  0.39051333  0.25579173  1.0
  Hf  Hf353  1  0.30596167  0.72384667  0.25579173  1.0
  Hf  Hf354  1  0.63929500  0.05718000  0.25579173  1.0
  Hf  Hf355  1  0.63929500  0.39051333  0.25579173  1.0
  Hf  Hf356  1  0.63929500  0.72384667  0.25579173  1.0
  Hf  Hf357  1  0.97262833  0.05718000  0.25579173  1.0
  Hf  Hf358  1  0.97262833  0.39051333  0.25579173  1.0
  Hf  Hf359  1  0.97262833  0.72384667  0.25579173  1.0
  Hf  Hf360  1  0.05596167  0.16666667  0.28709327  1.0
  Hf  Hf361  1  0.05596167  0.50000000  0.28709327  1.0
  Hf  Hf362  1  0.05596167  0.83333333  0.28709327  1.0
  Hf  Hf363  1  0.38929500  0.16666667  0.28709327  1.0
  Hf  Hf364  1  0.38929500  0.50000000  0.28709327  1.0
  Hf  Hf365  1  0.38929500  0.83333333  0.28709327  1.0
  Hf  Hf366  1  0.72262833  0.16666667  0.28709327  1.0
  Hf  Hf367  1  0.72262833  0.50000000  0.28709327  1.0
  Hf  Hf368  1  0.72262833  0.83333333  0.28709327  1.0
  Hf  Hf369  1  0.22262833  0.16666667  0.24863173  1.0
  Hf  Hf370  1  0.22262833  0.50000000  0.24863173  1.0
  Hf  Hf371  1  0.22262833  0.83333333  0.24863173  1.0
  Hf  Hf372  1  0.55596167  0.16666667  0.24863173  1.0
  Hf  Hf373  1  0.55596167  0.50000000  0.24863173  1.0
  Hf  Hf374  1  0.55596167  0.83333333  0.24863173  1.0
  Hf  Hf375  1  0.88929500  0.16666667  0.24863173  1.0
  Hf  Hf376  1  0.88929500  0.50000000  0.24863173  1.0
  Hf  Hf377  1  0.88929500  0.83333333  0.24863173  1.0
  Hf  Hf378  1  0.02737167  0.27615333  0.26730019  1.0
  Hf  Hf379  1  0.02737167  0.60948667  0.26730019  1.0
  Hf  Hf380  1  0.02737167  0.94282000  0.26730019  1.0
  Hf  Hf381  1  0.36070500  0.27615333  0.26730019  1.0
  Hf  Hf382  1  0.36070500  0.60948667  0.26730019  1.0
  Hf  Hf383  1  0.36070500  0.94282000  0.26730019  1.0
  Hf  Hf384  1  0.69403833  0.27615333  0.26730019  1.0
  Hf  Hf385  1  0.69403833  0.60948667  0.26730019  1.0
  Hf  Hf386  1  0.69403833  0.94282000  0.26730019  1.0
  Hf  Hf387  1  0.19403833  0.27615333  0.30576173  1.0
  Hf  Hf388  1  0.19403833  0.60948667  0.30576173  1.0
  Hf  Hf389  1  0.19403833  0.94282000  0.30576173  1.0
  Hf  Hf390  1  0.52737167  0.27615333  0.30576173  1.0
  Hf  Hf391  1  0.52737167  0.60948667  0.30576173  1.0
  Hf  Hf392  1  0.52737167  0.94282000  0.30576173  1.0
  Hf  Hf393  1  0.86070500  0.27615333  0.30576173  1.0
  Hf  Hf394  1  0.86070500  0.60948667  0.30576173  1.0
  Hf  Hf395  1  0.86070500  0.94282000  0.30576173  1.0
  Ni  Ni396  1  0.12500000  0.33333333  0.23269981  1.0
  Ni  Ni397  1  0.12500000  0.66666667  0.23269981  1.0
  Ni  Ni398  1  0.12500000  1.00000000  0.23269981  1.0
  Ni  Ni399  1  0.45833333  0.33333333  0.23269981  1.0
  Ni  Ni400  1  0.45833333  0.66666667  0.23269981  1.0
  Ni  Ni401  1  0.45833333  1.00000000  0.23269981  1.0
  Ni  Ni402  1  0.79166667  0.33333333  0.23269981  1.0
  Ni  Ni403  1  0.79166667  0.66666667  0.23269981  1.0
  Ni  Ni404  1  0.79166667  1.00000000  0.23269981  1.0
  Ni  Ni405  1  0.29166667  0.33333333  0.27116135  1.0
  Ni  Ni406  1  0.29166667  0.66666667  0.27116135  1.0
  Ni  Ni407  1  0.29166667  1.00000000  0.27116135  1.0
  Ni  Ni408  1  0.62500000  0.33333333  0.27116135  1.0
  Ni  Ni409  1  0.62500000  0.66666667  0.27116135  1.0
  Ni  Ni410  1  0.62500000  1.00000000  0.27116135  1.0
  Ni  Ni411  1  0.95833333  0.33333333  0.27116135  1.0
  Ni  Ni412  1  0.95833333  0.66666667  0.27116135  1.0
  Ni  Ni413  1  0.95833333  1.00000000  0.27116135  1.0
  Ni  Ni414  1  0.04166667  0.00000000  0.25193058  1.0
  Ni  Ni415  1  0.04166667  0.33333333  0.25193058  1.0
  Ni  Ni416  1  0.04166667  0.66666667  0.25193058  1.0
  Ni  Ni417  1  0.37500000  0.00000000  0.25193058  1.0
  Ni  Ni418  1  0.37500000  0.33333333  0.25193058  1.0
  Ni  Ni419  1  0.37500000  0.66666667  0.25193058  1.0
  Ni  Ni420  1  0.70833333  0.00000000  0.25193058  1.0
  Ni  Ni421  1  0.70833333  0.33333333  0.25193058  1.0
  Ni  Ni422  1  0.70833333  0.66666667  0.25193058  1.0
  Ni  Ni423  1  0.20833333  0.33333333  0.29039212  1.0
  Ni  Ni424  1  0.20833333  0.66666667  0.29039212  1.0
  Ni  Ni425  1  0.20833333  1.00000000  0.29039212  1.0
  Ni  Ni426  1  0.54166667  0.33333333  0.29039212  1.0
  Ni  Ni427  1  0.54166667  0.66666667  0.29039212  1.0
  Ni  Ni428  1  0.54166667  1.00000000  0.29039212  1.0
  Ni  Ni429  1  0.87500000  0.33333333  0.29039212  1.0
  Ni  Ni430  1  0.87500000  0.66666667  0.29039212  1.0
  Ni  Ni431  1  0.87500000  1.00000000  0.29039212  1.0
  Hf  Hf432  1  0.11070500  0.16666667  0.35138327  1.0
  Hf  Hf433  1  0.11070500  0.50000000  0.35138327  1.0
  Hf  Hf434  1  0.11070500  0.83333333  0.35138327  1.0
  Hf  Hf435  1  0.44403833  0.16666667  0.35138327  1.0
  Hf  Hf436  1  0.44403833  0.50000000  0.35138327  1.0
  Hf  Hf437  1  0.44403833  0.83333333  0.35138327  1.0
  Hf  Hf438  1  0.77737167  0.16666667  0.35138327  1.0
  Hf  Hf439  1  0.77737167  0.50000000  0.35138327  1.0
  Hf  Hf440  1  0.77737167  0.83333333  0.35138327  1.0
  Hf  Hf441  1  0.27737167  0.16666667  0.31292173  1.0
  Hf  Hf442  1  0.27737167  0.50000000  0.31292173  1.0
  Hf  Hf443  1  0.27737167  0.83333333  0.31292173  1.0
  Hf  Hf444  1  0.61070500  0.16666667  0.31292173  1.0
  Hf  Hf445  1  0.61070500  0.50000000  0.31292173  1.0
  Hf  Hf446  1  0.61070500  0.83333333  0.31292173  1.0
  Hf  Hf447  1  0.94403833  0.16666667  0.31292173  1.0
  Hf  Hf448  1  0.94403833  0.50000000  0.31292173  1.0
  Hf  Hf449  1  0.94403833  0.83333333  0.31292173  1.0
  Hf  Hf450  1  0.13929500  0.05718000  0.37117635  1.0
  Hf  Hf451  1  0.13929500  0.39051333  0.37117635  1.0
  Hf  Hf452  1  0.13929500  0.72384667  0.37117635  1.0
  Hf  Hf453  1  0.47262833  0.05718000  0.37117635  1.0
  Hf  Hf454  1  0.47262833  0.39051333  0.37117635  1.0
  Hf  Hf455  1  0.47262833  0.72384667  0.37117635  1.0
  Hf  Hf456  1  0.80596167  0.05718000  0.37117635  1.0
  Hf  Hf457  1  0.80596167  0.39051333  0.37117635  1.0
  Hf  Hf458  1  0.80596167  0.72384667  0.37117635  1.0
  Hf  Hf459  1  0.30596167  0.05718000  0.33271481  1.0
  Hf  Hf460  1  0.30596167  0.39051333  0.33271481  1.0
  Hf  Hf461  1  0.30596167  0.72384667  0.33271481  1.0
  Hf  Hf462  1  0.63929500  0.05718000  0.33271481  1.0
  Hf  Hf463  1  0.63929500  0.39051333  0.33271481  1.0
  Hf  Hf464  1  0.63929500  0.72384667  0.33271481  1.0
  Hf  Hf465  1  0.97262833  0.05718000  0.33271481  1.0
  Hf  Hf466  1  0.97262833  0.39051333  0.33271481  1.0
  Hf  Hf467  1  0.97262833  0.72384667  0.33271481  1.0
  Hf  Hf468  1  0.05596167  0.16666667  0.36401635  1.0
  Hf  Hf469  1  0.05596167  0.50000000  0.36401635  1.0
  Hf  Hf470  1  0.05596167  0.83333333  0.36401635  1.0
  Hf  Hf471  1  0.38929500  0.16666667  0.36401635  1.0
  Hf  Hf472  1  0.38929500  0.50000000  0.36401635  1.0
  Hf  Hf473  1  0.38929500  0.83333333  0.36401635  1.0
  Hf  Hf474  1  0.72262833  0.16666667  0.36401635  1.0
  Hf  Hf475  1  0.72262833  0.50000000  0.36401635  1.0
  Hf  Hf476  1  0.72262833  0.83333333  0.36401635  1.0
  Hf  Hf477  1  0.22262833  0.16666667  0.32555481  1.0
  Hf  Hf478  1  0.22262833  0.50000000  0.32555481  1.0
  Hf  Hf479  1  0.22262833  0.83333333  0.32555481  1.0
  Hf  Hf480  1  0.55596167  0.16666667  0.32555481  1.0
  Hf  Hf481  1  0.55596167  0.50000000  0.32555481  1.0
  Hf  Hf482  1  0.55596167  0.83333333  0.32555481  1.0
  Hf  Hf483  1  0.88929500  0.16666667  0.32555481  1.0
  Hf  Hf484  1  0.88929500  0.50000000  0.32555481  1.0
  Hf  Hf485  1  0.88929500  0.83333333  0.32555481  1.0
  Hf  Hf486  1  0.02737167  0.27615333  0.34422327  1.0
  Hf  Hf487  1  0.02737167  0.60948667  0.34422327  1.0
  Hf  Hf488  1  0.02737167  0.94282000  0.34422327  1.0
  Hf  Hf489  1  0.36070500  0.27615333  0.34422327  1.0
  Hf  Hf490  1  0.36070500  0.60948667  0.34422327  1.0
  Hf  Hf491  1  0.36070500  0.94282000  0.34422327  1.0
  Hf  Hf492  1  0.69403833  0.27615333  0.34422327  1.0
  Hf  Hf493  1  0.69403833  0.60948667  0.34422327  1.0
  Hf  Hf494  1  0.69403833  0.94282000  0.34422327  1.0
  Hf  Hf495  1  0.19403833  0.27615333  0.38268481  1.0
  Hf  Hf496  1  0.19403833  0.60948667  0.38268481  1.0
  Hf  Hf497  1  0.19403833  0.94282000  0.38268481  1.0
  Hf  Hf498  1  0.52737167  0.27615333  0.38268481  1.0
  Hf  Hf499  1  0.52737167  0.60948667  0.38268481  1.0
  Hf  Hf500  1  0.52737167  0.94282000  0.38268481  1.0
  Hf  Hf501  1  0.86070500  0.27615333  0.38268481  1.0
  Hf  Hf502  1  0.86070500  0.60948667  0.38268481  1.0
  Hf  Hf503  1  0.86070500  0.94282000  0.38268481  1.0
  Ni  Ni504  1  0.12500000  0.33333333  0.30962288  1.0
  Ni  Ni505  1  0.12500000  0.66666667  0.30962288  1.0
  Ni  Ni506  1  0.12500000  1.00000000  0.30962288  1.0
  Ni  Ni507  1  0.45833333  0.33333333  0.30962288  1.0
  Ni  Ni508  1  0.45833333  0.66666667  0.30962288  1.0
  Ni  Ni509  1  0.45833333  1.00000000  0.30962288  1.0
  Ni  Ni510  1  0.79166667  0.33333333  0.30962288  1.0
  Ni  Ni511  1  0.79166667  0.66666667  0.30962288  1.0
  Ni  Ni512  1  0.79166667  1.00000000  0.30962288  1.0
  Ni  Ni513  1  0.29166667  0.33333333  0.34808442  1.0
  Ni  Ni514  1  0.29166667  0.66666667  0.34808442  1.0
  Ni  Ni515  1  0.29166667  1.00000000  0.34808442  1.0
  Ni  Ni516  1  0.62500000  0.33333333  0.34808442  1.0
  Ni  Ni517  1  0.62500000  0.66666667  0.34808442  1.0
  Ni  Ni518  1  0.62500000  1.00000000  0.34808442  1.0
  Ni  Ni519  1  0.95833333  0.33333333  0.34808442  1.0
  Ni  Ni520  1  0.95833333  0.66666667  0.34808442  1.0
  Ni  Ni521  1  0.95833333  1.00000000  0.34808442  1.0
  Ni  Ni522  1  0.04166667  0.00000000  0.32885365  1.0
  Ni  Ni523  1  0.04166667  0.33333333  0.32885365  1.0
  Ni  Ni524  1  0.04166667  0.66666667  0.32885365  1.0
  Ni  Ni525  1  0.37500000  0.00000000  0.32885365  1.0
  Ni  Ni526  1  0.37500000  0.33333333  0.32885365  1.0
  Ni  Ni527  1  0.37500000  0.66666667  0.32885365  1.0
  Ni  Ni528  1  0.70833333  0.00000000  0.32885365  1.0
  Ni  Ni529  1  0.70833333  0.33333333  0.32885365  1.0
  Ni  Ni530  1  0.70833333  0.66666667  0.32885365  1.0
  Ni  Ni531  1  0.20833333  0.33333333  0.36731519  1.0
  Ni  Ni532  1  0.20833333  0.66666667  0.36731519  1.0
  Ni  Ni533  1  0.20833333  1.00000000  0.36731519  1.0
  Ni  Ni534  1  0.54166667  0.33333333  0.36731519  1.0
  Ni  Ni535  1  0.54166667  0.66666667  0.36731519  1.0
  Ni  Ni536  1  0.54166667  1.00000000  0.36731519  1.0
  Ni  Ni537  1  0.87500000  0.33333333  0.36731519  1.0
  Ni  Ni538  1  0.87500000  0.66666667  0.36731519  1.0
  Ni  Ni539  1  0.87500000  1.00000000  0.36731519  1.0
