# generated using pymatgen
data_Hf2Ni
_symmetry_space_group_name_H-M   'P 1'
_cell_length_a   15.69771375
_cell_length_b   38.45008916
_cell_length_c   41.86057000
_cell_angle_alpha   52.24325624
_cell_angle_beta   104.47151206
_cell_angle_gamma   72.15737511
_symmetry_Int_Tables_number   1
_chemical_formula_structural   Hf2Ni
_chemical_formula_sum   'Hf216 Ni108'
_cell_volume   15471.76384993
_cell_formula_units_Z   108
loop_
 _symmetry_equiv_pos_site_id
 _symmetry_equiv_pos_as_xyz
  1  'x, y, z'
loop_
 _atom_site_type_symbol
 _atom_site_label
 _atom_site_symmetry_multiplicity
 _atom_site_fract_x
 _atom_site_fract_y
 _atom_site_fract_z
 _atom_site_occupancy
  Hf  Hf0  1  0.22141000  0.02737167  0.05223562  1.0
  Hf  Hf1  1  0.22141000  0.36070500  0.05223563  1.0
  Hf  Hf2  1  0.22141000  0.69403833  0.05223563  1.0
  Hf  Hf3  1  0.55474333  0.02737167  0.05223562  1.0
  Hf  Hf4  1  0.55474333  0.36070500  0.05223563  1.0
  Hf  Hf5  1  0.55474333  0.69403833  0.05223563  1.0
  Hf  Hf6  1  0.88807667  0.02737167  0.05223562  1.0
  Hf  Hf7  1  0.88807667  0.36070500  0.05223563  1.0
  Hf  Hf8  1  0.88807667  0.69403833  0.05223563  1.0
  Hf  Hf9  1  0.22141000  0.19403833  0.11473562  1.0
  Hf  Hf10  1  0.22141000  0.52737167  0.11473562  1.0
  Hf  Hf11  1  0.22141000  0.86070500  0.11473562  1.0
  Hf  Hf12  1  0.55474333  0.19403833  0.11473562  1.0
  Hf  Hf13  1  0.55474333  0.52737167  0.11473563  1.0
  Hf  Hf14  1  0.55474333  0.86070500  0.11473563  1.0
  Hf  Hf15  1  0.88807667  0.19403833  0.11473562  1.0
  Hf  Hf16  1  0.88807667  0.52737167  0.11473563  1.0
  Hf  Hf17  1  0.88807667  0.86070500  0.11473562  1.0
  Hf  Hf18  1  0.27859000  0.11070500  0.10492812  1.0
  Hf  Hf19  1  0.27859000  0.44403833  0.10492813  1.0
  Hf  Hf20  1  0.27859000  0.77737167  0.10492813  1.0
  Hf  Hf21  1  0.61192333  0.11070500  0.10492812  1.0
  Hf  Hf22  1  0.61192333  0.44403833  0.10492813  1.0
  Hf  Hf23  1  0.61192333  0.77737167  0.10492813  1.0
  Hf  Hf24  1  0.94525667  0.11070500  0.10492812  1.0
  Hf  Hf25  1  0.94525667  0.44403833  0.10492813  1.0
  Hf  Hf26  1  0.94525667  0.77737167  0.10492813  1.0
  Hf  Hf27  1  0.27859000  0.27737167  0.04242812  1.0
  Hf  Hf28  1  0.27859000  0.61070500  0.04242812  1.0
  Hf  Hf29  1  0.27859000  0.94403833  0.04242813  1.0
  Hf  Hf30  1  0.61192333  0.27737167  0.04242812  1.0
  Hf  Hf31  1  0.61192333  0.61070500  0.04242812  1.0
  Hf  Hf32  1  0.61192333  0.94403833  0.04242813  1.0
  Hf  Hf33  1  0.94525667  0.27737167  0.04242812  1.0
  Hf  Hf34  1  0.94525667  0.61070500  0.04242812  1.0
  Hf  Hf35  1  0.94525667  0.94403833  0.04242813  1.0
  Hf  Hf36  1  0.11192333  0.13929500  0.01026437  1.0
  Hf  Hf37  1  0.11192333  0.47262833  0.01026438  1.0
  Hf  Hf38  1  0.11192333  0.80596167  0.01026438  1.0
  Hf  Hf39  1  0.44525667  0.13929500  0.01026437  1.0
  Hf  Hf40  1  0.44525667  0.47262833  0.01026438  1.0
  Hf  Hf41  1  0.44525667  0.80596167  0.01026438  1.0
  Hf  Hf42  1  0.77859000  0.13929500  0.01026437  1.0
  Hf  Hf43  1  0.77859000  0.47262833  0.01026438  1.0
  Hf  Hf44  1  0.77859000  0.80596167  0.01026438  1.0
  Hf  Hf45  1  0.11192333  0.30596167  0.07276437  1.0
  Hf  Hf46  1  0.11192333  0.63929500  0.07276437  1.0
  Hf  Hf47  1  0.11192333  0.97262833  0.07276437  1.0
  Hf  Hf48  1  0.44525667  0.30596167  0.07276437  1.0
  Hf  Hf49  1  0.44525667  0.63929500  0.07276438  1.0
  Hf  Hf50  1  0.44525667  0.97262833  0.07276437  1.0
  Hf  Hf51  1  0.77859000  0.30596167  0.07276437  1.0
  Hf  Hf52  1  0.77859000  0.63929500  0.07276437  1.0
  Hf  Hf53  1  0.77859000  0.97262833  0.07276438  1.0
  Hf  Hf54  1  0.05474333  0.05596167  0.08257187  1.0
  Hf  Hf55  1  0.05474333  0.38929500  0.08257188  1.0
  Hf  Hf56  1  0.05474333  0.72262833  0.08257187  1.0
  Hf  Hf57  1  0.38807667  0.05596167  0.08257187  1.0
  Hf  Hf58  1  0.38807667  0.38929500  0.08257188  1.0
  Hf  Hf59  1  0.38807667  0.72262833  0.08257188  1.0
  Hf  Hf60  1  0.72141000  0.05596167  0.08257187  1.0
  Hf  Hf61  1  0.72141000  0.38929500  0.08257187  1.0
  Hf  Hf62  1  0.72141000  0.72262833  0.08257187  1.0
  Hf  Hf63  1  0.05474333  0.22262833  0.02007188  1.0
  Hf  Hf64  1  0.05474333  0.55596167  0.02007188  1.0
  Hf  Hf65  1  0.05474333  0.88929500  0.02007188  1.0
  Hf  Hf66  1  0.38807667  0.22262833  0.02007187  1.0
  Hf  Hf67  1  0.38807667  0.55596167  0.02007188  1.0
  Hf  Hf68  1  0.38807667  0.88929500  0.02007188  1.0
  Hf  Hf69  1  0.72141000  0.22262833  0.02007188  1.0
  Hf  Hf70  1  0.72141000  0.55596167  0.02007188  1.0
  Hf  Hf71  1  0.72141000  0.88929500  0.02007188  1.0
  Ni  Ni72  1  0.25000000  0.04166667  0.10937500  1.0
  Ni  Ni73  1  0.25000000  0.37500000  0.10937500  1.0
  Ni  Ni74  1  0.25000000  0.70833333  0.10937500  1.0
  Ni  Ni75  1  0.58333333  0.04166667  0.10937500  1.0
  Ni  Ni76  1  0.58333333  0.37500000  0.10937500  1.0
  Ni  Ni77  1  0.58333333  0.70833333  0.10937500  1.0
  Ni  Ni78  1  0.91666667  0.04166667  0.10937500  1.0
  Ni  Ni79  1  0.91666667  0.37500000  0.10937500  1.0
  Ni  Ni80  1  0.91666667  0.70833333  0.10937500  1.0
  Ni  Ni81  1  0.25000000  0.20833333  0.04687500  1.0
  Ni  Ni82  1  0.25000000  0.54166667  0.04687500  1.0
  Ni  Ni83  1  0.25000000  0.87500000  0.04687500  1.0
  Ni  Ni84  1  0.58333333  0.20833333  0.04687500  1.0
  Ni  Ni85  1  0.58333333  0.54166667  0.04687500  1.0
  Ni  Ni86  1  0.58333333  0.87500000  0.04687500  1.0
  Ni  Ni87  1  0.91666667  0.20833333  0.04687500  1.0
  Ni  Ni88  1  0.91666667  0.54166667  0.04687500  1.0
  Ni  Ni89  1  0.91666667  0.87500000  0.04687500  1.0
  Ni  Ni90  1  0.08333333  0.12500000  0.07812500  1.0
  Ni  Ni91  1  0.08333333  0.45833333  0.07812500  1.0
  Ni  Ni92  1  0.08333333  0.79166667  0.07812500  1.0
  Ni  Ni93  1  0.41666667  0.12500000  0.07812500  1.0
  Ni  Ni94  1  0.41666667  0.45833333  0.07812500  1.0
  Ni  Ni95  1  0.41666667  0.79166667  0.07812500  1.0
  Ni  Ni96  1  0.75000000  0.12500000  0.07812500  1.0
  Ni  Ni97  1  0.75000000  0.45833333  0.07812500  1.0
  Ni  Ni98  1  0.75000000  0.79166667  0.07812500  1.0
  Ni  Ni99  1  0.08333333  0.29166667  0.01562500  1.0
  Ni  Ni100  1  0.08333333  0.62500000  0.01562500  1.0
  Ni  Ni101  1  0.08333333  0.95833333  0.01562500  1.0
  Ni  Ni102  1  0.41666667  0.29166667  0.01562500  1.0
  Ni  Ni103  1  0.41666667  0.62500000  0.01562500  1.0
  Ni  Ni104  1  0.41666667  0.95833333  0.01562500  1.0
  Ni  Ni105  1  0.75000000  0.29166667  0.01562500  1.0
  Ni  Ni106  1  0.75000000  0.62500000  0.01562500  1.0
  Ni  Ni107  1  0.75000000  0.95833333  0.01562500  1.0
  Hf  Hf108  1  0.22141000  0.02737167  0.17723563  1.0
  Hf  Hf109  1  0.22141000  0.36070500  0.17723562  1.0
  Hf  Hf110  1  0.22141000  0.69403833  0.17723563  1.0
  Hf  Hf111  1  0.55474333  0.02737167  0.17723563  1.0
  Hf  Hf112  1  0.55474333  0.36070500  0.17723563  1.0
  Hf  Hf113  1  0.55474333  0.69403833  0.17723563  1.0
  Hf  Hf114  1  0.88807667  0.02737167  0.17723563  1.0
  Hf  Hf115  1  0.88807667  0.36070500  0.17723563  1.0
  Hf  Hf116  1  0.88807667  0.69403833  0.17723563  1.0
  Hf  Hf117  1  0.22141000  0.19403833  0.23973563  1.0
  Hf  Hf118  1  0.22141000  0.52737167  0.23973563  1.0
  Hf  Hf119  1  0.22141000  0.86070500  0.23973563  1.0
  Hf  Hf120  1  0.55474333  0.19403833  0.23973562  1.0
  Hf  Hf121  1  0.55474333  0.52737167  0.23973563  1.0
  Hf  Hf122  1  0.55474333  0.86070500  0.23973563  1.0
  Hf  Hf123  1  0.88807667  0.19403833  0.23973562  1.0
  Hf  Hf124  1  0.88807667  0.52737167  0.23973563  1.0
  Hf  Hf125  1  0.88807667  0.86070500  0.23973562  1.0
  Hf  Hf126  1  0.27859000  0.11070500  0.22992813  1.0
  Hf  Hf127  1  0.27859000  0.44403833  0.22992813  1.0
  Hf  Hf128  1  0.27859000  0.77737167  0.22992813  1.0
  Hf  Hf129  1  0.61192333  0.11070500  0.22992813  1.0
  Hf  Hf130  1  0.61192333  0.44403833  0.22992813  1.0
  Hf  Hf131  1  0.61192333  0.77737167  0.22992813  1.0
  Hf  Hf132  1  0.94525667  0.11070500  0.22992813  1.0
  Hf  Hf133  1  0.94525667  0.44403833  0.22992813  1.0
  Hf  Hf134  1  0.94525667  0.77737167  0.22992813  1.0
  Hf  Hf135  1  0.27859000  0.27737167  0.16742812  1.0
  Hf  Hf136  1  0.27859000  0.61070500  0.16742813  1.0
  Hf  Hf137  1  0.27859000  0.94403833  0.16742813  1.0
  Hf  Hf138  1  0.61192333  0.27737167  0.16742812  1.0
  Hf  Hf139  1  0.61192333  0.61070500  0.16742813  1.0
  Hf  Hf140  1  0.61192333  0.94403833  0.16742812  1.0
  Hf  Hf141  1  0.94525667  0.27737167  0.16742812  1.0
  Hf  Hf142  1  0.94525667  0.61070500  0.16742812  1.0
  Hf  Hf143  1  0.94525667  0.94403833  0.16742813  1.0
  Hf  Hf144  1  0.11192333  0.13929500  0.13526437  1.0
  Hf  Hf145  1  0.11192333  0.47262833  0.13526437  1.0
  Hf  Hf146  1  0.11192333  0.80596167  0.13526438  1.0
  Hf  Hf147  1  0.44525667  0.13929500  0.13526437  1.0
  Hf  Hf148  1  0.44525667  0.47262833  0.13526438  1.0
  Hf  Hf149  1  0.44525667  0.80596167  0.13526438  1.0
  Hf  Hf150  1  0.77859000  0.13929500  0.13526437  1.0
  Hf  Hf151  1  0.77859000  0.47262833  0.13526438  1.0
  Hf  Hf152  1  0.77859000  0.80596167  0.13526438  1.0
  Hf  Hf153  1  0.11192333  0.30596167  0.19776437  1.0
  Hf  Hf154  1  0.11192333  0.63929500  0.19776437  1.0
  Hf  Hf155  1  0.11192333  0.97262833  0.19776437  1.0
  Hf  Hf156  1  0.44525667  0.30596167  0.19776437  1.0
  Hf  Hf157  1  0.44525667  0.63929500  0.19776437  1.0
  Hf  Hf158  1  0.44525667  0.97262833  0.19776438  1.0
  Hf  Hf159  1  0.77859000  0.30596167  0.19776437  1.0
  Hf  Hf160  1  0.77859000  0.63929500  0.19776437  1.0
  Hf  Hf161  1  0.77859000  0.97262833  0.19776438  1.0
  Hf  Hf162  1  0.05474333  0.05596167  0.20757187  1.0
  Hf  Hf163  1  0.05474333  0.38929500  0.20757187  1.0
  Hf  Hf164  1  0.05474333  0.72262833  0.20757188  1.0
  Hf  Hf165  1  0.38807667  0.05596167  0.20757187  1.0
  Hf  Hf166  1  0.38807667  0.38929500  0.20757188  1.0
  Hf  Hf167  1  0.38807667  0.72262833  0.20757188  1.0
  Hf  Hf168  1  0.72141000  0.05596167  0.20757187  1.0
  Hf  Hf169  1  0.72141000  0.38929500  0.20757187  1.0
  Hf  Hf170  1  0.72141000  0.72262833  0.20757188  1.0
  Hf  Hf171  1  0.05474333  0.22262833  0.14507188  1.0
  Hf  Hf172  1  0.05474333  0.55596167  0.14507188  1.0
  Hf  Hf173  1  0.05474333  0.88929500  0.14507188  1.0
  Hf  Hf174  1  0.38807667  0.22262833  0.14507188  1.0
  Hf  Hf175  1  0.38807667  0.55596167  0.14507188  1.0
  Hf  Hf176  1  0.38807667  0.88929500  0.14507188  1.0
  Hf  Hf177  1  0.72141000  0.22262833  0.14507188  1.0
  Hf  Hf178  1  0.72141000  0.55596167  0.14507188  1.0
  Hf  Hf179  1  0.72141000  0.88929500  0.14507188  1.0
  Ni  Ni180  1  0.25000000  0.04166667  0.23437500  1.0
  Ni  Ni181  1  0.25000000  0.37500000  0.23437500  1.0
  Ni  Ni182  1  0.25000000  0.70833333  0.23437500  1.0
  Ni  Ni183  1  0.58333333  0.04166667  0.23437500  1.0
  Ni  Ni184  1  0.58333333  0.37500000  0.23437500  1.0
  Ni  Ni185  1  0.58333333  0.70833333  0.23437500  1.0
  Ni  Ni186  1  0.91666667  0.04166667  0.23437500  1.0
  Ni  Ni187  1  0.91666667  0.37500000  0.23437500  1.0
  Ni  Ni188  1  0.91666667  0.70833333  0.23437500  1.0
  Ni  Ni189  1  0.25000000  0.20833333  0.17187500  1.0
  Ni  Ni190  1  0.25000000  0.54166667  0.17187500  1.0
  Ni  Ni191  1  0.25000000  0.87500000  0.17187500  1.0
  Ni  Ni192  1  0.58333333  0.20833333  0.17187500  1.0
  Ni  Ni193  1  0.58333333  0.54166667  0.17187500  1.0
  Ni  Ni194  1  0.58333333  0.87500000  0.17187500  1.0
  Ni  Ni195  1  0.91666667  0.20833333  0.17187500  1.0
  Ni  Ni196  1  0.91666667  0.54166667  0.17187500  1.0
  Ni  Ni197  1  0.91666667  0.87500000  0.17187500  1.0
  Ni  Ni198  1  0.08333333  0.12500000  0.20312500  1.0
  Ni  Ni199  1  0.08333333  0.45833333  0.20312500  1.0
  Ni  Ni200  1  0.08333333  0.79166667  0.20312500  1.0
  Ni  Ni201  1  0.41666667  0.12500000  0.20312500  1.0
  Ni  Ni202  1  0.41666667  0.45833333  0.20312500  1.0
  Ni  Ni203  1  0.41666667  0.79166667  0.20312500  1.0
  Ni  Ni204  1  0.75000000  0.12500000  0.20312500  1.0
  Ni  Ni205  1  0.75000000  0.45833333  0.20312500  1.0
  Ni  Ni206  1  0.75000000  0.79166667  0.20312500  1.0
  Ni  Ni207  1  0.08333333  0.29166667  0.14062500  1.0
  Ni  Ni208  1  0.08333333  0.62500000  0.14062500  1.0
  Ni  Ni209  1  0.08333333  0.95833333  0.14062500  1.0
  Ni  Ni210  1  0.41666667  0.29166667  0.14062500  1.0
  Ni  Ni211  1  0.41666667  0.62500000  0.14062500  1.0
  Ni  Ni212  1  0.41666667  0.95833333  0.14062500  1.0
  Ni  Ni213  1  0.75000000  0.29166667  0.14062500  1.0
  Ni  Ni214  1  0.75000000  0.62500000  0.14062500  1.0
  Ni  Ni215  1  0.75000000  0.95833333  0.14062500  1.0
  Hf  Hf216  1  0.22141000  0.02737167  0.30223562  1.0
  Hf  Hf217  1  0.22141000  0.36070500  0.30223563  1.0
  Hf  Hf218  1  0.22141000  0.69403833  0.30223563  1.0
  Hf  Hf219  1  0.55474333  0.02737167  0.30223562  1.0
  Hf  Hf220  1  0.55474333  0.36070500  0.30223563  1.0
  Hf  Hf221  1  0.55474333  0.69403833  0.30223563  1.0
  Hf  Hf222  1  0.88807667  0.02737167  0.30223562  1.0
  Hf  Hf223  1  0.88807667  0.36070500  0.30223563  1.0
  Hf  Hf224  1  0.88807667  0.69403833  0.30223563  1.0
  Hf  Hf225  1  0.22141000  0.19403833  0.36473563  1.0
  Hf  Hf226  1  0.22141000  0.52737167  0.36473563  1.0
  Hf  Hf227  1  0.22141000  0.86070500  0.36473563  1.0
  Hf  Hf228  1  0.55474333  0.19403833  0.36473563  1.0
  Hf  Hf229  1  0.55474333  0.52737167  0.36473563  1.0
  Hf  Hf230  1  0.55474333  0.86070500  0.36473563  1.0
  Hf  Hf231  1  0.88807667  0.19403833  0.36473563  1.0
  Hf  Hf232  1  0.88807667  0.52737167  0.36473563  1.0
  Hf  Hf233  1  0.88807667  0.86070500  0.36473563  1.0
  Hf  Hf234  1  0.27859000  0.11070500  0.35492813  1.0
  Hf  Hf235  1  0.27859000  0.44403833  0.35492813  1.0
  Hf  Hf236  1  0.27859000  0.77737167  0.35492813  1.0
  Hf  Hf237  1  0.61192333  0.11070500  0.35492813  1.0
  Hf  Hf238  1  0.61192333  0.44403833  0.35492813  1.0
  Hf  Hf239  1  0.61192333  0.77737167  0.35492813  1.0
  Hf  Hf240  1  0.94525667  0.11070500  0.35492813  1.0
  Hf  Hf241  1  0.94525667  0.44403833  0.35492813  1.0
  Hf  Hf242  1  0.94525667  0.77737167  0.35492813  1.0
  Hf  Hf243  1  0.27859000  0.27737167  0.29242812  1.0
  Hf  Hf244  1  0.27859000  0.61070500  0.29242812  1.0
  Hf  Hf245  1  0.27859000  0.94403833  0.29242812  1.0
  Hf  Hf246  1  0.61192333  0.27737167  0.29242812  1.0
  Hf  Hf247  1  0.61192333  0.61070500  0.29242812  1.0
  Hf  Hf248  1  0.61192333  0.94403833  0.29242812  1.0
  Hf  Hf249  1  0.94525667  0.27737167  0.29242812  1.0
  Hf  Hf250  1  0.94525667  0.61070500  0.29242812  1.0
  Hf  Hf251  1  0.94525667  0.94403833  0.29242813  1.0
  Hf  Hf252  1  0.11192333  0.13929500  0.26026437  1.0
  Hf  Hf253  1  0.11192333  0.47262833  0.26026437  1.0
  Hf  Hf254  1  0.11192333  0.80596167  0.26026438  1.0
  Hf  Hf255  1  0.44525667  0.13929500  0.26026437  1.0
  Hf  Hf256  1  0.44525667  0.47262833  0.26026437  1.0
  Hf  Hf257  1  0.44525667  0.80596167  0.26026437  1.0
  Hf  Hf258  1  0.77859000  0.13929500  0.26026437  1.0
  Hf  Hf259  1  0.77859000  0.47262833  0.26026437  1.0
  Hf  Hf260  1  0.77859000  0.80596167  0.26026438  1.0
  Hf  Hf261  1  0.11192333  0.30596167  0.32276437  1.0
  Hf  Hf262  1  0.11192333  0.63929500  0.32276437  1.0
  Hf  Hf263  1  0.11192333  0.97262833  0.32276437  1.0
  Hf  Hf264  1  0.44525667  0.30596167  0.32276437  1.0
  Hf  Hf265  1  0.44525667  0.63929500  0.32276437  1.0
  Hf  Hf266  1  0.44525667  0.97262833  0.32276437  1.0
  Hf  Hf267  1  0.77859000  0.30596167  0.32276437  1.0
  Hf  Hf268  1  0.77859000  0.63929500  0.32276437  1.0
  Hf  Hf269  1  0.77859000  0.97262833  0.32276438  1.0
  Hf  Hf270  1  0.05474333  0.05596167  0.33257187  1.0
  Hf  Hf271  1  0.05474333  0.38929500  0.33257187  1.0
  Hf  Hf272  1  0.05474333  0.72262833  0.33257187  1.0
  Hf  Hf273  1  0.38807667  0.05596167  0.33257187  1.0
  Hf  Hf274  1  0.38807667  0.38929500  0.33257188  1.0
  Hf  Hf275  1  0.38807667  0.72262833  0.33257187  1.0
  Hf  Hf276  1  0.72141000  0.05596167  0.33257187  1.0
  Hf  Hf277  1  0.72141000  0.38929500  0.33257188  1.0
  Hf  Hf278  1  0.72141000  0.72262833  0.33257188  1.0
  Hf  Hf279  1  0.05474333  0.22262833  0.27007187  1.0
  Hf  Hf280  1  0.05474333  0.55596167  0.27007188  1.0
  Hf  Hf281  1  0.05474333  0.88929500  0.27007188  1.0
  Hf  Hf282  1  0.38807667  0.22262833  0.27007187  1.0
  Hf  Hf283  1  0.38807667  0.55596167  0.27007188  1.0
  Hf  Hf284  1  0.38807667  0.88929500  0.27007188  1.0
  Hf  Hf285  1  0.72141000  0.22262833  0.27007187  1.0
  Hf  Hf286  1  0.72141000  0.55596167  0.27007188  1.0
  Hf  Hf287  1  0.72141000  0.88929500  0.27007188  1.0
  Ni  Ni288  1  0.25000000  0.04166667  0.35937500  1.0
  Ni  Ni289  1  0.25000000  0.37500000  0.35937500  1.0
  Ni  Ni290  1  0.25000000  0.70833333  0.35937500  1.0
  Ni  Ni291  1  0.58333333  0.04166667  0.35937500  1.0
  Ni  Ni292  1  0.58333333  0.37500000  0.35937500  1.0
  Ni  Ni293  1  0.58333333  0.70833333  0.35937500  1.0
  Ni  Ni294  1  0.91666667  0.04166667  0.35937500  1.0
  Ni  Ni295  1  0.91666667  0.37500000  0.35937500  1.0
  Ni  Ni296  1  0.91666667  0.70833333  0.35937500  1.0
  Ni  Ni297  1  0.25000000  0.20833333  0.29687500  1.0
  Ni  Ni298  1  0.25000000  0.54166667  0.29687500  1.0
  Ni  Ni299  1  0.25000000  0.87500000  0.29687500  1.0
  Ni  Ni300  1  0.58333333  0.20833333  0.29687500  1.0
  Ni  Ni301  1  0.58333333  0.54166667  0.29687500  1.0
  Ni  Ni302  1  0.58333333  0.87500000  0.29687500  1.0
  Ni  Ni303  1  0.91666667  0.20833333  0.29687500  1.0
  Ni  Ni304  1  0.91666667  0.54166667  0.29687500  1.0
  Ni  Ni305  1  0.91666667  0.87500000  0.29687500  1.0
  Ni  Ni306  1  0.08333333  0.12500000  0.32812500  1.0
  Ni  Ni307  1  0.08333333  0.45833333  0.32812500  1.0
  Ni  Ni308  1  0.08333333  0.79166667  0.32812500  1.0
  Ni  Ni309  1  0.41666667  0.12500000  0.32812500  1.0
  Ni  Ni310  1  0.41666667  0.45833333  0.32812500  1.0
  Ni  Ni311  1  0.41666667  0.79166667  0.32812500  1.0
  Ni  Ni312  1  0.75000000  0.12500000  0.32812500  1.0
  Ni  Ni313  1  0.75000000  0.45833333  0.32812500  1.0
  Ni  Ni314  1  0.75000000  0.79166667  0.32812500  1.0
  Ni  Ni315  1  0.08333333  0.29166667  0.26562500  1.0
  Ni  Ni316  1  0.08333333  0.62500000  0.26562500  1.0
  Ni  Ni317  1  0.08333333  0.95833333  0.26562500  1.0
  Ni  Ni318  1  0.41666667  0.29166667  0.26562500  1.0
  Ni  Ni319  1  0.41666667  0.62500000  0.26562500  1.0
  Ni  Ni320  1  0.41666667  0.95833333  0.26562500  1.0
  Ni  Ni321  1  0.75000000  0.29166667  0.26562500  1.0
  Ni  Ni322  1  0.75000000  0.62500000  0.26562500  1.0
  Ni  Ni323  1  0.75000000  0.95833333  0.26562500  1.0
