# generated using pymatgen
data_Hf2Ni
_symmetry_space_group_name_H-M   'P 1'
_cell_length_a   27.19107567
_cell_length_b   38.45008916
_cell_length_c   73.25599750
_cell_angle_alpha   127.75674376
_cell_angle_beta   150.00670888
_cell_angle_gamma   69.29299304
_symmetry_Int_Tables_number   1
_chemical_formula_structural   Hf2Ni
_chemical_formula_sum   'Hf432 Ni216'
_cell_volume   27075.58673737
_cell_formula_units_Z   216
loop_
 _symmetry_equiv_pos_site_id
 _symmetry_equiv_pos_as_xyz
  1  'x, y, z'
loop_
 _atom_site_type_symbol
 _atom_site_label
 _atom_site_symmetry_multiplicity
 _atom_site_fract_x
 _atom_site_fract_y
 _atom_site_fract_z
 _atom_site_occupancy
  Hf  Hf0  1  0.22141000  0.08333333  0.04490393  1.0
  Hf  Hf1  1  0.22141000  0.41666667  0.04490393  1.0
  Hf  Hf2  1  0.22141000  0.75000000  0.04490393  1.0
  Hf  Hf3  1  0.55474333  0.08333333  0.04490393  1.0
  Hf  Hf4  1  0.55474333  0.41666667  0.04490393  1.0
  Hf  Hf5  1  0.55474333  0.75000000  0.04490393  1.0
  Hf  Hf6  1  0.88807667  0.08333333  0.04490393  1.0
  Hf  Hf7  1  0.88807667  0.41666667  0.04490393  1.0
  Hf  Hf8  1  0.88807667  0.75000000  0.04490393  1.0
  Hf  Hf9  1  0.22141000  0.25000000  0.00918964  1.0
  Hf  Hf10  1  0.22141000  0.58333333  0.00918964  1.0
  Hf  Hf11  1  0.22141000  0.91666667  0.00918964  1.0
  Hf  Hf12  1  0.55474333  0.25000000  0.00918964  1.0
  Hf  Hf13  1  0.55474333  0.58333333  0.00918964  1.0
  Hf  Hf14  1  0.55474333  0.91666667  0.00918964  1.0
  Hf  Hf15  1  0.88807667  0.25000000  0.00918964  1.0
  Hf  Hf16  1  0.88807667  0.58333333  0.00918964  1.0
  Hf  Hf17  1  0.88807667  0.91666667  0.00918964  1.0
  Hf  Hf18  1  0.27859000  0.02859000  0.00971179  1.0
  Hf  Hf19  1  0.27859000  0.36192333  0.00971179  1.0
  Hf  Hf20  1  0.27859000  0.69525667  0.00971179  1.0
  Hf  Hf21  1  0.61192333  0.02859000  0.00971179  1.0
  Hf  Hf22  1  0.61192333  0.36192333  0.00971179  1.0
  Hf  Hf23  1  0.61192333  0.69525667  0.00971179  1.0
  Hf  Hf24  1  0.94525667  0.02859000  0.00971179  1.0
  Hf  Hf25  1  0.94525667  0.36192333  0.00971179  1.0
  Hf  Hf26  1  0.94525667  0.69525667  0.00971179  1.0
  Hf  Hf27  1  0.27859000  0.19525667  0.04542607  1.0
  Hf  Hf28  1  0.27859000  0.52859000  0.04542607  1.0
  Hf  Hf29  1  0.27859000  0.86192333  0.04542607  1.0
  Hf  Hf30  1  0.61192333  0.19525667  0.04542607  1.0
  Hf  Hf31  1  0.61192333  0.52859000  0.04542607  1.0
  Hf  Hf32  1  0.61192333  0.86192333  0.04542607  1.0
  Hf  Hf33  1  0.94525667  0.19525667  0.04542607  1.0
  Hf  Hf34  1  0.94525667  0.52859000  0.04542607  1.0
  Hf  Hf35  1  0.94525667  0.86192333  0.04542607  1.0
  Hf  Hf36  1  0.11192333  0.08333333  0.04490393  1.0
  Hf  Hf37  1  0.11192333  0.41666667  0.04490393  1.0
  Hf  Hf38  1  0.11192333  0.75000000  0.04490393  1.0
  Hf  Hf39  1  0.44525667  0.08333333  0.04490393  1.0
  Hf  Hf40  1  0.44525667  0.41666667  0.04490393  1.0
  Hf  Hf41  1  0.44525667  0.75000000  0.04490393  1.0
  Hf  Hf42  1  0.77859000  0.08333333  0.04490393  1.0
  Hf  Hf43  1  0.77859000  0.41666667  0.04490393  1.0
  Hf  Hf44  1  0.77859000  0.75000000  0.04490393  1.0
  Hf  Hf45  1  0.11192333  0.25000000  0.00918964  1.0
  Hf  Hf46  1  0.11192333  0.58333333  0.00918964  1.0
  Hf  Hf47  1  0.11192333  0.91666667  0.00918964  1.0
  Hf  Hf48  1  0.44525667  0.25000000  0.00918964  1.0
  Hf  Hf49  1  0.44525667  0.58333333  0.00918964  1.0
  Hf  Hf50  1  0.44525667  0.91666667  0.00918964  1.0
  Hf  Hf51  1  0.77859000  0.25000000  0.00918964  1.0
  Hf  Hf52  1  0.77859000  0.58333333  0.00918964  1.0
  Hf  Hf53  1  0.77859000  0.91666667  0.00918964  1.0
  Hf  Hf54  1  0.05474333  0.13807667  0.00866750  1.0
  Hf  Hf55  1  0.05474333  0.47141000  0.00866750  1.0
  Hf  Hf56  1  0.05474333  0.80474333  0.00866750  1.0
  Hf  Hf57  1  0.38807667  0.13807667  0.00866750  1.0
  Hf  Hf58  1  0.38807667  0.47141000  0.00866750  1.0
  Hf  Hf59  1  0.38807667  0.80474333  0.00866750  1.0
  Hf  Hf60  1  0.72141000  0.13807667  0.00866750  1.0
  Hf  Hf61  1  0.72141000  0.47141000  0.00866750  1.0
  Hf  Hf62  1  0.72141000  0.80474333  0.00866750  1.0
  Hf  Hf63  1  0.05474333  0.30474333  0.04438179  1.0
  Hf  Hf64  1  0.05474333  0.63807667  0.04438179  1.0
  Hf  Hf65  1  0.05474333  0.97141000  0.04438179  1.0
  Hf  Hf66  1  0.38807667  0.30474333  0.04438179  1.0
  Hf  Hf67  1  0.38807667  0.63807667  0.04438179  1.0
  Hf  Hf68  1  0.38807667  0.97141000  0.04438179  1.0
  Hf  Hf69  1  0.72141000  0.30474333  0.04438179  1.0
  Hf  Hf70  1  0.72141000  0.63807667  0.04438179  1.0
  Hf  Hf71  1  0.72141000  0.97141000  0.04438179  1.0
  Ni  Ni72  1  0.25000000  0.33333333  0.02704679  1.0
  Ni  Ni73  1  0.25000000  0.66666667  0.02704679  1.0
  Ni  Ni74  1  0.25000000  1.00000000  0.02704679  1.0
  Ni  Ni75  1  0.58333333  0.33333333  0.02704679  1.0
  Ni  Ni76  1  0.58333333  0.66666667  0.02704679  1.0
  Ni  Ni77  1  0.58333333  1.00000000  0.02704679  1.0
  Ni  Ni78  1  0.91666667  0.33333333  0.02704679  1.0
  Ni  Ni79  1  0.91666667  0.66666667  0.02704679  1.0
  Ni  Ni80  1  0.91666667  1.00000000  0.02704679  1.0
  Ni  Ni81  1  0.25000000  0.16666667  0.06276107  1.0
  Ni  Ni82  1  0.25000000  0.50000000  0.06276107  1.0
  Ni  Ni83  1  0.25000000  0.83333333  0.06276107  1.0
  Ni  Ni84  1  0.58333333  0.16666667  0.06276107  1.0
  Ni  Ni85  1  0.58333333  0.50000000  0.06276107  1.0
  Ni  Ni86  1  0.58333333  0.83333333  0.06276107  1.0
  Ni  Ni87  1  0.91666667  0.16666667  0.06276107  1.0
  Ni  Ni88  1  0.91666667  0.50000000  0.06276107  1.0
  Ni  Ni89  1  0.91666667  0.83333333  0.06276107  1.0
  Ni  Ni90  1  0.08333333  0.00000000  0.02704679  1.0
  Ni  Ni91  1  0.08333333  0.33333333  0.02704679  1.0
  Ni  Ni92  1  0.08333333  0.66666667  0.02704679  1.0
  Ni  Ni93  1  0.41666667  0.00000000  0.02704679  1.0
  Ni  Ni94  1  0.41666667  0.33333333  0.02704679  1.0
  Ni  Ni95  1  0.41666667  0.66666667  0.02704679  1.0
  Ni  Ni96  1  0.75000000  0.00000000  0.02704679  1.0
  Ni  Ni97  1  0.75000000  0.33333333  0.02704679  1.0
  Ni  Ni98  1  0.75000000  0.66666667  0.02704679  1.0
  Ni  Ni99  1  0.08333333  0.16666667  0.06276107  1.0
  Ni  Ni100  1  0.08333333  0.50000000  0.06276107  1.0
  Ni  Ni101  1  0.08333333  0.83333333  0.06276107  1.0
  Ni  Ni102  1  0.41666667  0.16666667  0.06276107  1.0
  Ni  Ni103  1  0.41666667  0.50000000  0.06276107  1.0
  Ni  Ni104  1  0.41666667  0.83333333  0.06276107  1.0
  Ni  Ni105  1  0.75000000  0.16666667  0.06276107  1.0
  Ni  Ni106  1  0.75000000  0.50000000  0.06276107  1.0
  Ni  Ni107  1  0.75000000  0.83333333  0.06276107  1.0
  Hf  Hf108  1  0.22141000  0.08333333  0.11633250  1.0
  Hf  Hf109  1  0.22141000  0.41666667  0.11633250  1.0
  Hf  Hf110  1  0.22141000  0.75000000  0.11633250  1.0
  Hf  Hf111  1  0.55474333  0.08333333  0.11633250  1.0
  Hf  Hf112  1  0.55474333  0.41666667  0.11633250  1.0
  Hf  Hf113  1  0.55474333  0.75000000  0.11633250  1.0
  Hf  Hf114  1  0.88807667  0.08333333  0.11633250  1.0
  Hf  Hf115  1  0.88807667  0.41666667  0.11633250  1.0
  Hf  Hf116  1  0.88807667  0.75000000  0.11633250  1.0
  Hf  Hf117  1  0.22141000  0.25000000  0.08061821  1.0
  Hf  Hf118  1  0.22141000  0.58333333  0.08061821  1.0
  Hf  Hf119  1  0.22141000  0.91666667  0.08061821  1.0
  Hf  Hf120  1  0.55474333  0.25000000  0.08061821  1.0
  Hf  Hf121  1  0.55474333  0.58333333  0.08061821  1.0
  Hf  Hf122  1  0.55474333  0.91666667  0.08061821  1.0
  Hf  Hf123  1  0.88807667  0.25000000  0.08061821  1.0
  Hf  Hf124  1  0.88807667  0.58333333  0.08061821  1.0
  Hf  Hf125  1  0.88807667  0.91666667  0.08061821  1.0
  Hf  Hf126  1  0.27859000  0.02859000  0.08114036  1.0
  Hf  Hf127  1  0.27859000  0.36192333  0.08114036  1.0
  Hf  Hf128  1  0.27859000  0.69525667  0.08114036  1.0
  Hf  Hf129  1  0.61192333  0.02859000  0.08114036  1.0
  Hf  Hf130  1  0.61192333  0.36192333  0.08114036  1.0
  Hf  Hf131  1  0.61192333  0.69525667  0.08114036  1.0
  Hf  Hf132  1  0.94525667  0.02859000  0.08114036  1.0
  Hf  Hf133  1  0.94525667  0.36192333  0.08114036  1.0
  Hf  Hf134  1  0.94525667  0.69525667  0.08114036  1.0
  Hf  Hf135  1  0.27859000  0.19525667  0.11685464  1.0
  Hf  Hf136  1  0.27859000  0.52859000  0.11685464  1.0
  Hf  Hf137  1  0.27859000  0.86192333  0.11685464  1.0
  Hf  Hf138  1  0.61192333  0.19525667  0.11685464  1.0
  Hf  Hf139  1  0.61192333  0.52859000  0.11685464  1.0
  Hf  Hf140  1  0.61192333  0.86192333  0.11685464  1.0
  Hf  Hf141  1  0.94525667  0.19525667  0.11685464  1.0
  Hf  Hf142  1  0.94525667  0.52859000  0.11685464  1.0
  Hf  Hf143  1  0.94525667  0.86192333  0.11685464  1.0
  Hf  Hf144  1  0.11192333  0.08333333  0.11633250  1.0
  Hf  Hf145  1  0.11192333  0.41666667  0.11633250  1.0
  Hf  Hf146  1  0.11192333  0.75000000  0.11633250  1.0
  Hf  Hf147  1  0.44525667  0.08333333  0.11633250  1.0
  Hf  Hf148  1  0.44525667  0.41666667  0.11633250  1.0
  Hf  Hf149  1  0.44525667  0.75000000  0.11633250  1.0
  Hf  Hf150  1  0.77859000  0.08333333  0.11633250  1.0
  Hf  Hf151  1  0.77859000  0.41666667  0.11633250  1.0
  Hf  Hf152  1  0.77859000  0.75000000  0.11633250  1.0
  Hf  Hf153  1  0.11192333  0.25000000  0.08061821  1.0
  Hf  Hf154  1  0.11192333  0.58333333  0.08061821  1.0
  Hf  Hf155  1  0.11192333  0.91666667  0.08061821  1.0
  Hf  Hf156  1  0.44525667  0.25000000  0.08061821  1.0
  Hf  Hf157  1  0.44525667  0.58333333  0.08061821  1.0
  Hf  Hf158  1  0.44525667  0.91666667  0.08061821  1.0
  Hf  Hf159  1  0.77859000  0.25000000  0.08061821  1.0
  Hf  Hf160  1  0.77859000  0.58333333  0.08061821  1.0
  Hf  Hf161  1  0.77859000  0.91666667  0.08061821  1.0
  Hf  Hf162  1  0.05474333  0.13807667  0.08009607  1.0
  Hf  Hf163  1  0.05474333  0.47141000  0.08009607  1.0
  Hf  Hf164  1  0.05474333  0.80474333  0.08009607  1.0
  Hf  Hf165  1  0.38807667  0.13807667  0.08009607  1.0
  Hf  Hf166  1  0.38807667  0.47141000  0.08009607  1.0
  Hf  Hf167  1  0.38807667  0.80474333  0.08009607  1.0
  Hf  Hf168  1  0.72141000  0.13807667  0.08009607  1.0
  Hf  Hf169  1  0.72141000  0.47141000  0.08009607  1.0
  Hf  Hf170  1  0.72141000  0.80474333  0.08009607  1.0
  Hf  Hf171  1  0.05474333  0.30474333  0.11581036  1.0
  Hf  Hf172  1  0.05474333  0.63807667  0.11581036  1.0
  Hf  Hf173  1  0.05474333  0.97141000  0.11581036  1.0
  Hf  Hf174  1  0.38807667  0.30474333  0.11581036  1.0
  Hf  Hf175  1  0.38807667  0.63807667  0.11581036  1.0
  Hf  Hf176  1  0.38807667  0.97141000  0.11581036  1.0
  Hf  Hf177  1  0.72141000  0.30474333  0.11581036  1.0
  Hf  Hf178  1  0.72141000  0.63807667  0.11581036  1.0
  Hf  Hf179  1  0.72141000  0.97141000  0.11581036  1.0
  Ni  Ni180  1  0.25000000  0.33333333  0.09847536  1.0
  Ni  Ni181  1  0.25000000  0.66666667  0.09847536  1.0
  Ni  Ni182  1  0.25000000  1.00000000  0.09847536  1.0
  Ni  Ni183  1  0.58333333  0.33333333  0.09847536  1.0
  Ni  Ni184  1  0.58333333  0.66666667  0.09847536  1.0
  Ni  Ni185  1  0.58333333  1.00000000  0.09847536  1.0
  Ni  Ni186  1  0.91666667  0.33333333  0.09847536  1.0
  Ni  Ni187  1  0.91666667  0.66666667  0.09847536  1.0
  Ni  Ni188  1  0.91666667  1.00000000  0.09847536  1.0
  Ni  Ni189  1  0.25000000  0.16666667  0.13418964  1.0
  Ni  Ni190  1  0.25000000  0.50000000  0.13418964  1.0
  Ni  Ni191  1  0.25000000  0.83333333  0.13418964  1.0
  Ni  Ni192  1  0.58333333  0.16666667  0.13418964  1.0
  Ni  Ni193  1  0.58333333  0.50000000  0.13418964  1.0
  Ni  Ni194  1  0.58333333  0.83333333  0.13418964  1.0
  Ni  Ni195  1  0.91666667  0.16666667  0.13418964  1.0
  Ni  Ni196  1  0.91666667  0.50000000  0.13418964  1.0
  Ni  Ni197  1  0.91666667  0.83333333  0.13418964  1.0
  Ni  Ni198  1  0.08333333  0.00000000  0.09847536  1.0
  Ni  Ni199  1  0.08333333  0.33333333  0.09847536  1.0
  Ni  Ni200  1  0.08333333  0.66666667  0.09847536  1.0
  Ni  Ni201  1  0.41666667  0.00000000  0.09847536  1.0
  Ni  Ni202  1  0.41666667  0.33333333  0.09847536  1.0
  Ni  Ni203  1  0.41666667  0.66666667  0.09847536  1.0
  Ni  Ni204  1  0.75000000  0.00000000  0.09847536  1.0
  Ni  Ni205  1  0.75000000  0.33333333  0.09847536  1.0
  Ni  Ni206  1  0.75000000  0.66666667  0.09847536  1.0
  Ni  Ni207  1  0.08333333  0.16666667  0.13418964  1.0
  Ni  Ni208  1  0.08333333  0.50000000  0.13418964  1.0
  Ni  Ni209  1  0.08333333  0.83333333  0.13418964  1.0
  Ni  Ni210  1  0.41666667  0.16666667  0.13418964  1.0
  Ni  Ni211  1  0.41666667  0.50000000  0.13418964  1.0
  Ni  Ni212  1  0.41666667  0.83333333  0.13418964  1.0
  Ni  Ni213  1  0.75000000  0.16666667  0.13418964  1.0
  Ni  Ni214  1  0.75000000  0.50000000  0.13418964  1.0
  Ni  Ni215  1  0.75000000  0.83333333  0.13418964  1.0
  Hf  Hf216  1  0.22141000  0.08333333  0.18776107  1.0
  Hf  Hf217  1  0.22141000  0.41666667  0.18776107  1.0
  Hf  Hf218  1  0.22141000  0.75000000  0.18776107  1.0
  Hf  Hf219  1  0.55474333  0.08333333  0.18776107  1.0
  Hf  Hf220  1  0.55474333  0.41666667  0.18776107  1.0
  Hf  Hf221  1  0.55474333  0.75000000  0.18776107  1.0
  Hf  Hf222  1  0.88807667  0.08333333  0.18776107  1.0
  Hf  Hf223  1  0.88807667  0.41666667  0.18776107  1.0
  Hf  Hf224  1  0.88807667  0.75000000  0.18776107  1.0
  Hf  Hf225  1  0.22141000  0.25000000  0.15204679  1.0
  Hf  Hf226  1  0.22141000  0.58333333  0.15204679  1.0
  Hf  Hf227  1  0.22141000  0.91666667  0.15204679  1.0
  Hf  Hf228  1  0.55474333  0.25000000  0.15204679  1.0
  Hf  Hf229  1  0.55474333  0.58333333  0.15204679  1.0
  Hf  Hf230  1  0.55474333  0.91666667  0.15204679  1.0
  Hf  Hf231  1  0.88807667  0.25000000  0.15204679  1.0
  Hf  Hf232  1  0.88807667  0.58333333  0.15204679  1.0
  Hf  Hf233  1  0.88807667  0.91666667  0.15204679  1.0
  Hf  Hf234  1  0.27859000  0.02859000  0.15256893  1.0
  Hf  Hf235  1  0.27859000  0.36192333  0.15256893  1.0
  Hf  Hf236  1  0.27859000  0.69525667  0.15256893  1.0
  Hf  Hf237  1  0.61192333  0.02859000  0.15256893  1.0
  Hf  Hf238  1  0.61192333  0.36192333  0.15256893  1.0
  Hf  Hf239  1  0.61192333  0.69525667  0.15256893  1.0
  Hf  Hf240  1  0.94525667  0.02859000  0.15256893  1.0
  Hf  Hf241  1  0.94525667  0.36192333  0.15256893  1.0
  Hf  Hf242  1  0.94525667  0.69525667  0.15256893  1.0
  Hf  Hf243  1  0.27859000  0.19525667  0.18828321  1.0
  Hf  Hf244  1  0.27859000  0.52859000  0.18828321  1.0
  Hf  Hf245  1  0.27859000  0.86192333  0.18828321  1.0
  Hf  Hf246  1  0.61192333  0.19525667  0.18828321  1.0
  Hf  Hf247  1  0.61192333  0.52859000  0.18828321  1.0
  Hf  Hf248  1  0.61192333  0.86192333  0.18828321  1.0
  Hf  Hf249  1  0.94525667  0.19525667  0.18828321  1.0
  Hf  Hf250  1  0.94525667  0.52859000  0.18828321  1.0
  Hf  Hf251  1  0.94525667  0.86192333  0.18828321  1.0
  Hf  Hf252  1  0.11192333  0.08333333  0.18776107  1.0
  Hf  Hf253  1  0.11192333  0.41666667  0.18776107  1.0
  Hf  Hf254  1  0.11192333  0.75000000  0.18776107  1.0
  Hf  Hf255  1  0.44525667  0.08333333  0.18776107  1.0
  Hf  Hf256  1  0.44525667  0.41666667  0.18776107  1.0
  Hf  Hf257  1  0.44525667  0.75000000  0.18776107  1.0
  Hf  Hf258  1  0.77859000  0.08333333  0.18776107  1.0
  Hf  Hf259  1  0.77859000  0.41666667  0.18776107  1.0
  Hf  Hf260  1  0.77859000  0.75000000  0.18776107  1.0
  Hf  Hf261  1  0.11192333  0.25000000  0.15204679  1.0
  Hf  Hf262  1  0.11192333  0.58333333  0.15204679  1.0
  Hf  Hf263  1  0.11192333  0.91666667  0.15204679  1.0
  Hf  Hf264  1  0.44525667  0.25000000  0.15204679  1.0
  Hf  Hf265  1  0.44525667  0.58333333  0.15204679  1.0
  Hf  Hf266  1  0.44525667  0.91666667  0.15204679  1.0
  Hf  Hf267  1  0.77859000  0.25000000  0.15204679  1.0
  Hf  Hf268  1  0.77859000  0.58333333  0.15204679  1.0
  Hf  Hf269  1  0.77859000  0.91666667  0.15204679  1.0
  Hf  Hf270  1  0.05474333  0.13807667  0.15152464  1.0
  Hf  Hf271  1  0.05474333  0.47141000  0.15152464  1.0
  Hf  Hf272  1  0.05474333  0.80474333  0.15152464  1.0
  Hf  Hf273  1  0.38807667  0.13807667  0.15152464  1.0
  Hf  Hf274  1  0.38807667  0.47141000  0.15152464  1.0
  Hf  Hf275  1  0.38807667  0.80474333  0.15152464  1.0
  Hf  Hf276  1  0.72141000  0.13807667  0.15152464  1.0
  Hf  Hf277  1  0.72141000  0.47141000  0.15152464  1.0
  Hf  Hf278  1  0.72141000  0.80474333  0.15152464  1.0
  Hf  Hf279  1  0.05474333  0.30474333  0.18723893  1.0
  Hf  Hf280  1  0.05474333  0.63807667  0.18723893  1.0
  Hf  Hf281  1  0.05474333  0.97141000  0.18723893  1.0
  Hf  Hf282  1  0.38807667  0.30474333  0.18723893  1.0
  Hf  Hf283  1  0.38807667  0.63807667  0.18723893  1.0
  Hf  Hf284  1  0.38807667  0.97141000  0.18723893  1.0
  Hf  Hf285  1  0.72141000  0.30474333  0.18723893  1.0
  Hf  Hf286  1  0.72141000  0.63807667  0.18723893  1.0
  Hf  Hf287  1  0.72141000  0.97141000  0.18723893  1.0
  Ni  Ni288  1  0.25000000  0.33333333  0.16990393  1.0
  Ni  Ni289  1  0.25000000  0.66666667  0.16990393  1.0
  Ni  Ni290  1  0.25000000  1.00000000  0.16990393  1.0
  Ni  Ni291  1  0.58333333  0.33333333  0.16990393  1.0
  Ni  Ni292  1  0.58333333  0.66666667  0.16990393  1.0
  Ni  Ni293  1  0.58333333  1.00000000  0.16990393  1.0
  Ni  Ni294  1  0.91666667  0.33333333  0.16990393  1.0
  Ni  Ni295  1  0.91666667  0.66666667  0.16990393  1.0
  Ni  Ni296  1  0.91666667  1.00000000  0.16990393  1.0
  Ni  Ni297  1  0.25000000  0.16666667  0.20561821  1.0
  Ni  Ni298  1  0.25000000  0.50000000  0.20561821  1.0
  Ni  Ni299  1  0.25000000  0.83333333  0.20561821  1.0
  Ni  Ni300  1  0.58333333  0.16666667  0.20561821  1.0
  Ni  Ni301  1  0.58333333  0.50000000  0.20561821  1.0
  Ni  Ni302  1  0.58333333  0.83333333  0.20561821  1.0
  Ni  Ni303  1  0.91666667  0.16666667  0.20561821  1.0
  Ni  Ni304  1  0.91666667  0.50000000  0.20561821  1.0
  Ni  Ni305  1  0.91666667  0.83333333  0.20561821  1.0
  Ni  Ni306  1  0.08333333  0.00000000  0.16990393  1.0
  Ni  Ni307  1  0.08333333  0.33333333  0.16990393  1.0
  Ni  Ni308  1  0.08333333  0.66666667  0.16990393  1.0
  Ni  Ni309  1  0.41666667  0.00000000  0.16990393  1.0
  Ni  Ni310  1  0.41666667  0.33333333  0.16990393  1.0
  Ni  Ni311  1  0.41666667  0.66666667  0.16990393  1.0
  Ni  Ni312  1  0.75000000  0.00000000  0.16990393  1.0
  Ni  Ni313  1  0.75000000  0.33333333  0.16990393  1.0
  Ni  Ni314  1  0.75000000  0.66666667  0.16990393  1.0
  Ni  Ni315  1  0.08333333  0.16666667  0.20561821  1.0
  Ni  Ni316  1  0.08333333  0.50000000  0.20561821  1.0
  Ni  Ni317  1  0.08333333  0.83333333  0.20561821  1.0
  Ni  Ni318  1  0.41666667  0.16666667  0.20561821  1.0
  Ni  Ni319  1  0.41666667  0.50000000  0.20561821  1.0
  Ni  Ni320  1  0.41666667  0.83333333  0.20561821  1.0
  Ni  Ni321  1  0.75000000  0.16666667  0.20561821  1.0
  Ni  Ni322  1  0.75000000  0.50000000  0.20561821  1.0
  Ni  Ni323  1  0.75000000  0.83333333  0.20561821  1.0
  Hf  Hf324  1  0.22141000  0.08333333  0.25918964  1.0
  Hf  Hf325  1  0.22141000  0.41666667  0.25918964  1.0
  Hf  Hf326  1  0.22141000  0.75000000  0.25918964  1.0
  Hf  Hf327  1  0.55474333  0.08333333  0.25918964  1.0
  Hf  Hf328  1  0.55474333  0.41666667  0.25918964  1.0
  Hf  Hf329  1  0.55474333  0.75000000  0.25918964  1.0
  Hf  Hf330  1  0.88807667  0.08333333  0.25918964  1.0
  Hf  Hf331  1  0.88807667  0.41666667  0.25918964  1.0
  Hf  Hf332  1  0.88807667  0.75000000  0.25918964  1.0
  Hf  Hf333  1  0.22141000  0.25000000  0.22347536  1.0
  Hf  Hf334  1  0.22141000  0.58333333  0.22347536  1.0
  Hf  Hf335  1  0.22141000  0.91666667  0.22347536  1.0
  Hf  Hf336  1  0.55474333  0.25000000  0.22347536  1.0
  Hf  Hf337  1  0.55474333  0.58333333  0.22347536  1.0
  Hf  Hf338  1  0.55474333  0.91666667  0.22347536  1.0
  Hf  Hf339  1  0.88807667  0.25000000  0.22347536  1.0
  Hf  Hf340  1  0.88807667  0.58333333  0.22347536  1.0
  Hf  Hf341  1  0.88807667  0.91666667  0.22347536  1.0
  Hf  Hf342  1  0.27859000  0.02859000  0.22399750  1.0
  Hf  Hf343  1  0.27859000  0.36192333  0.22399750  1.0
  Hf  Hf344  1  0.27859000  0.69525667  0.22399750  1.0
  Hf  Hf345  1  0.61192333  0.02859000  0.22399750  1.0
  Hf  Hf346  1  0.61192333  0.36192333  0.22399750  1.0
  Hf  Hf347  1  0.61192333  0.69525667  0.22399750  1.0
  Hf  Hf348  1  0.94525667  0.02859000  0.22399750  1.0
  Hf  Hf349  1  0.94525667  0.36192333  0.22399750  1.0
  Hf  Hf350  1  0.94525667  0.69525667  0.22399750  1.0
  Hf  Hf351  1  0.27859000  0.19525667  0.25971179  1.0
  Hf  Hf352  1  0.27859000  0.52859000  0.25971179  1.0
  Hf  Hf353  1  0.27859000  0.86192333  0.25971179  1.0
  Hf  Hf354  1  0.61192333  0.19525667  0.25971179  1.0
  Hf  Hf355  1  0.61192333  0.52859000  0.25971179  1.0
  Hf  Hf356  1  0.61192333  0.86192333  0.25971179  1.0
  Hf  Hf357  1  0.94525667  0.19525667  0.25971179  1.0
  Hf  Hf358  1  0.94525667  0.52859000  0.25971179  1.0
  Hf  Hf359  1  0.94525667  0.86192333  0.25971179  1.0
  Hf  Hf360  1  0.11192333  0.08333333  0.25918964  1.0
  Hf  Hf361  1  0.11192333  0.41666667  0.25918964  1.0
  Hf  Hf362  1  0.11192333  0.75000000  0.25918964  1.0
  Hf  Hf363  1  0.44525667  0.08333333  0.25918964  1.0
  Hf  Hf364  1  0.44525667  0.41666667  0.25918964  1.0
  Hf  Hf365  1  0.44525667  0.75000000  0.25918964  1.0
  Hf  Hf366  1  0.77859000  0.08333333  0.25918964  1.0
  Hf  Hf367  1  0.77859000  0.41666667  0.25918964  1.0
  Hf  Hf368  1  0.77859000  0.75000000  0.25918964  1.0
  Hf  Hf369  1  0.11192333  0.25000000  0.22347536  1.0
  Hf  Hf370  1  0.11192333  0.58333333  0.22347536  1.0
  Hf  Hf371  1  0.11192333  0.91666667  0.22347536  1.0
  Hf  Hf372  1  0.44525667  0.25000000  0.22347536  1.0
  Hf  Hf373  1  0.44525667  0.58333333  0.22347536  1.0
  Hf  Hf374  1  0.44525667  0.91666667  0.22347536  1.0
  Hf  Hf375  1  0.77859000  0.25000000  0.22347536  1.0
  Hf  Hf376  1  0.77859000  0.58333333  0.22347536  1.0
  Hf  Hf377  1  0.77859000  0.91666667  0.22347536  1.0
  Hf  Hf378  1  0.05474333  0.13807667  0.22295321  1.0
  Hf  Hf379  1  0.05474333  0.47141000  0.22295321  1.0
  Hf  Hf380  1  0.05474333  0.80474333  0.22295321  1.0
  Hf  Hf381  1  0.38807667  0.13807667  0.22295321  1.0
  Hf  Hf382  1  0.38807667  0.47141000  0.22295321  1.0
  Hf  Hf383  1  0.38807667  0.80474333  0.22295321  1.0
  Hf  Hf384  1  0.72141000  0.13807667  0.22295321  1.0
  Hf  Hf385  1  0.72141000  0.47141000  0.22295321  1.0
  Hf  Hf386  1  0.72141000  0.80474333  0.22295321  1.0
  Hf  Hf387  1  0.05474333  0.30474333  0.25866750  1.0
  Hf  Hf388  1  0.05474333  0.63807667  0.25866750  1.0
  Hf  Hf389  1  0.05474333  0.97141000  0.25866750  1.0
  Hf  Hf390  1  0.38807667  0.30474333  0.25866750  1.0
  Hf  Hf391  1  0.38807667  0.63807667  0.25866750  1.0
  Hf  Hf392  1  0.38807667  0.97141000  0.25866750  1.0
  Hf  Hf393  1  0.72141000  0.30474333  0.25866750  1.0
  Hf  Hf394  1  0.72141000  0.63807667  0.25866750  1.0
  Hf  Hf395  1  0.72141000  0.97141000  0.25866750  1.0
  Ni  Ni396  1  0.25000000  0.33333333  0.24133250  1.0
  Ni  Ni397  1  0.25000000  0.66666667  0.24133250  1.0
  Ni  Ni398  1  0.25000000  1.00000000  0.24133250  1.0
  Ni  Ni399  1  0.58333333  0.33333333  0.24133250  1.0
  Ni  Ni400  1  0.58333333  0.66666667  0.24133250  1.0
  Ni  Ni401  1  0.58333333  1.00000000  0.24133250  1.0
  Ni  Ni402  1  0.91666667  0.33333333  0.24133250  1.0
  Ni  Ni403  1  0.91666667  0.66666667  0.24133250  1.0
  Ni  Ni404  1  0.91666667  1.00000000  0.24133250  1.0
  Ni  Ni405  1  0.25000000  0.16666667  0.27704679  1.0
  Ni  Ni406  1  0.25000000  0.50000000  0.27704679  1.0
  Ni  Ni407  1  0.25000000  0.83333333  0.27704679  1.0
  Ni  Ni408  1  0.58333333  0.16666667  0.27704679  1.0
  Ni  Ni409  1  0.58333333  0.50000000  0.27704679  1.0
  Ni  Ni410  1  0.58333333  0.83333333  0.27704679  1.0
  Ni  Ni411  1  0.91666667  0.16666667  0.27704679  1.0
  Ni  Ni412  1  0.91666667  0.50000000  0.27704679  1.0
  Ni  Ni413  1  0.91666667  0.83333333  0.27704679  1.0
  Ni  Ni414  1  0.08333333  0.00000000  0.24133250  1.0
  Ni  Ni415  1  0.08333333  0.33333333  0.24133250  1.0
  Ni  Ni416  1  0.08333333  0.66666667  0.24133250  1.0
  Ni  Ni417  1  0.41666667  0.00000000  0.24133250  1.0
  Ni  Ni418  1  0.41666667  0.33333333  0.24133250  1.0
  Ni  Ni419  1  0.41666667  0.66666667  0.24133250  1.0
  Ni  Ni420  1  0.75000000  0.00000000  0.24133250  1.0
  Ni  Ni421  1  0.75000000  0.33333333  0.24133250  1.0
  Ni  Ni422  1  0.75000000  0.66666667  0.24133250  1.0
  Ni  Ni423  1  0.08333333  0.16666667  0.27704679  1.0
  Ni  Ni424  1  0.08333333  0.50000000  0.27704679  1.0
  Ni  Ni425  1  0.08333333  0.83333333  0.27704679  1.0
  Ni  Ni426  1  0.41666667  0.16666667  0.27704679  1.0
  Ni  Ni427  1  0.41666667  0.50000000  0.27704679  1.0
  Ni  Ni428  1  0.41666667  0.83333333  0.27704679  1.0
  Ni  Ni429  1  0.75000000  0.16666667  0.27704679  1.0
  Ni  Ni430  1  0.75000000  0.50000000  0.27704679  1.0
  Ni  Ni431  1  0.75000000  0.83333333  0.27704679  1.0
  Hf  Hf432  1  0.22141000  0.08333333  0.33061821  1.0
  Hf  Hf433  1  0.22141000  0.41666667  0.33061821  1.0
  Hf  Hf434  1  0.22141000  0.75000000  0.33061821  1.0
  Hf  Hf435  1  0.55474333  0.08333333  0.33061821  1.0
  Hf  Hf436  1  0.55474333  0.41666667  0.33061821  1.0
  Hf  Hf437  1  0.55474333  0.75000000  0.33061821  1.0
  Hf  Hf438  1  0.88807667  0.08333333  0.33061821  1.0
  Hf  Hf439  1  0.88807667  0.41666667  0.33061821  1.0
  Hf  Hf440  1  0.88807667  0.75000000  0.33061821  1.0
  Hf  Hf441  1  0.22141000  0.25000000  0.29490393  1.0
  Hf  Hf442  1  0.22141000  0.58333333  0.29490393  1.0
  Hf  Hf443  1  0.22141000  0.91666667  0.29490393  1.0
  Hf  Hf444  1  0.55474333  0.25000000  0.29490393  1.0
  Hf  Hf445  1  0.55474333  0.58333333  0.29490393  1.0
  Hf  Hf446  1  0.55474333  0.91666667  0.29490393  1.0
  Hf  Hf447  1  0.88807667  0.25000000  0.29490393  1.0
  Hf  Hf448  1  0.88807667  0.58333333  0.29490393  1.0
  Hf  Hf449  1  0.88807667  0.91666667  0.29490393  1.0
  Hf  Hf450  1  0.27859000  0.02859000  0.29542607  1.0
  Hf  Hf451  1  0.27859000  0.36192333  0.29542607  1.0
  Hf  Hf452  1  0.27859000  0.69525667  0.29542607  1.0
  Hf  Hf453  1  0.61192333  0.02859000  0.29542607  1.0
  Hf  Hf454  1  0.61192333  0.36192333  0.29542607  1.0
  Hf  Hf455  1  0.61192333  0.69525667  0.29542607  1.0
  Hf  Hf456  1  0.94525667  0.02859000  0.29542607  1.0
  Hf  Hf457  1  0.94525667  0.36192333  0.29542607  1.0
  Hf  Hf458  1  0.94525667  0.69525667  0.29542607  1.0
  Hf  Hf459  1  0.27859000  0.19525667  0.33114036  1.0
  Hf  Hf460  1  0.27859000  0.52859000  0.33114036  1.0
  Hf  Hf461  1  0.27859000  0.86192333  0.33114036  1.0
  Hf  Hf462  1  0.61192333  0.19525667  0.33114036  1.0
  Hf  Hf463  1  0.61192333  0.52859000  0.33114036  1.0
  Hf  Hf464  1  0.61192333  0.86192333  0.33114036  1.0
  Hf  Hf465  1  0.94525667  0.19525667  0.33114036  1.0
  Hf  Hf466  1  0.94525667  0.52859000  0.33114036  1.0
  Hf  Hf467  1  0.94525667  0.86192333  0.33114036  1.0
  Hf  Hf468  1  0.11192333  0.08333333  0.33061821  1.0
  Hf  Hf469  1  0.11192333  0.41666667  0.33061821  1.0
  Hf  Hf470  1  0.11192333  0.75000000  0.33061821  1.0
  Hf  Hf471  1  0.44525667  0.08333333  0.33061821  1.0
  Hf  Hf472  1  0.44525667  0.41666667  0.33061821  1.0
  Hf  Hf473  1  0.44525667  0.75000000  0.33061821  1.0
  Hf  Hf474  1  0.77859000  0.08333333  0.33061821  1.0
  Hf  Hf475  1  0.77859000  0.41666667  0.33061821  1.0
  Hf  Hf476  1  0.77859000  0.75000000  0.33061821  1.0
  Hf  Hf477  1  0.11192333  0.25000000  0.29490393  1.0
  Hf  Hf478  1  0.11192333  0.58333333  0.29490393  1.0
  Hf  Hf479  1  0.11192333  0.91666667  0.29490393  1.0
  Hf  Hf480  1  0.44525667  0.25000000  0.29490393  1.0
  Hf  Hf481  1  0.44525667  0.58333333  0.29490393  1.0
  Hf  Hf482  1  0.44525667  0.91666667  0.29490393  1.0
  Hf  Hf483  1  0.77859000  0.25000000  0.29490393  1.0
  Hf  Hf484  1  0.77859000  0.58333333  0.29490393  1.0
  Hf  Hf485  1  0.77859000  0.91666667  0.29490393  1.0
  Hf  Hf486  1  0.05474333  0.13807667  0.29438179  1.0
  Hf  Hf487  1  0.05474333  0.47141000  0.29438179  1.0
  Hf  Hf488  1  0.05474333  0.80474333  0.29438179  1.0
  Hf  Hf489  1  0.38807667  0.13807667  0.29438179  1.0
  Hf  Hf490  1  0.38807667  0.47141000  0.29438179  1.0
  Hf  Hf491  1  0.38807667  0.80474333  0.29438179  1.0
  Hf  Hf492  1  0.72141000  0.13807667  0.29438179  1.0
  Hf  Hf493  1  0.72141000  0.47141000  0.29438179  1.0
  Hf  Hf494  1  0.72141000  0.80474333  0.29438179  1.0
  Hf  Hf495  1  0.05474333  0.30474333  0.33009607  1.0
  Hf  Hf496  1  0.05474333  0.63807667  0.33009607  1.0
  Hf  Hf497  1  0.05474333  0.97141000  0.33009607  1.0
  Hf  Hf498  1  0.38807667  0.30474333  0.33009607  1.0
  Hf  Hf499  1  0.38807667  0.63807667  0.33009607  1.0
  Hf  Hf500  1  0.38807667  0.97141000  0.33009607  1.0
  Hf  Hf501  1  0.72141000  0.30474333  0.33009607  1.0
  Hf  Hf502  1  0.72141000  0.63807667  0.33009607  1.0
  Hf  Hf503  1  0.72141000  0.97141000  0.33009607  1.0
  Ni  Ni504  1  0.25000000  0.33333333  0.31276107  1.0
  Ni  Ni505  1  0.25000000  0.66666667  0.31276107  1.0
  Ni  Ni506  1  0.25000000  1.00000000  0.31276107  1.0
  Ni  Ni507  1  0.58333333  0.33333333  0.31276107  1.0
  Ni  Ni508  1  0.58333333  0.66666667  0.31276107  1.0
  Ni  Ni509  1  0.58333333  1.00000000  0.31276107  1.0
  Ni  Ni510  1  0.91666667  0.33333333  0.31276107  1.0
  Ni  Ni511  1  0.91666667  0.66666667  0.31276107  1.0
  Ni  Ni512  1  0.91666667  1.00000000  0.31276107  1.0
  Ni  Ni513  1  0.25000000  0.16666667  0.34847536  1.0
  Ni  Ni514  1  0.25000000  0.50000000  0.34847536  1.0
  Ni  Ni515  1  0.25000000  0.83333333  0.34847536  1.0
  Ni  Ni516  1  0.58333333  0.16666667  0.34847536  1.0
  Ni  Ni517  1  0.58333333  0.50000000  0.34847536  1.0
  Ni  Ni518  1  0.58333333  0.83333333  0.34847536  1.0
  Ni  Ni519  1  0.91666667  0.16666667  0.34847536  1.0
  Ni  Ni520  1  0.91666667  0.50000000  0.34847536  1.0
  Ni  Ni521  1  0.91666667  0.83333333  0.34847536  1.0
  Ni  Ni522  1  0.08333333  0.00000000  0.31276107  1.0
  Ni  Ni523  1  0.08333333  0.33333333  0.31276107  1.0
  Ni  Ni524  1  0.08333333  0.66666667  0.31276107  1.0
  Ni  Ni525  1  0.41666667  0.00000000  0.31276107  1.0
  Ni  Ni526  1  0.41666667  0.33333333  0.31276107  1.0
  Ni  Ni527  1  0.41666667  0.66666667  0.31276107  1.0
  Ni  Ni528  1  0.75000000  0.00000000  0.31276107  1.0
  Ni  Ni529  1  0.75000000  0.33333333  0.31276107  1.0
  Ni  Ni530  1  0.75000000  0.66666667  0.31276107  1.0
  Ni  Ni531  1  0.08333333  0.16666667  0.34847536  1.0
  Ni  Ni532  1  0.08333333  0.50000000  0.34847536  1.0
  Ni  Ni533  1  0.08333333  0.83333333  0.34847536  1.0
  Ni  Ni534  1  0.41666667  0.16666667  0.34847536  1.0
  Ni  Ni535  1  0.41666667  0.50000000  0.34847536  1.0
  Ni  Ni536  1  0.41666667  0.83333333  0.34847536  1.0
  Ni  Ni537  1  0.75000000  0.16666667  0.34847536  1.0
  Ni  Ni538  1  0.75000000  0.50000000  0.34847536  1.0
  Ni  Ni539  1  0.75000000  0.83333333  0.34847536  1.0
  Hf  Hf540  1  0.22141000  0.08333333  0.40204679  1.0
  Hf  Hf541  1  0.22141000  0.41666667  0.40204679  1.0
  Hf  Hf542  1  0.22141000  0.75000000  0.40204679  1.0
  Hf  Hf543  1  0.55474333  0.08333333  0.40204679  1.0
  Hf  Hf544  1  0.55474333  0.41666667  0.40204679  1.0
  Hf  Hf545  1  0.55474333  0.75000000  0.40204679  1.0
  Hf  Hf546  1  0.88807667  0.08333333  0.40204679  1.0
  Hf  Hf547  1  0.88807667  0.41666667  0.40204679  1.0
  Hf  Hf548  1  0.88807667  0.75000000  0.40204679  1.0
  Hf  Hf549  1  0.22141000  0.25000000  0.36633250  1.0
  Hf  Hf550  1  0.22141000  0.58333333  0.36633250  1.0
  Hf  Hf551  1  0.22141000  0.91666667  0.36633250  1.0
  Hf  Hf552  1  0.55474333  0.25000000  0.36633250  1.0
  Hf  Hf553  1  0.55474333  0.58333333  0.36633250  1.0
  Hf  Hf554  1  0.55474333  0.91666667  0.36633250  1.0
  Hf  Hf555  1  0.88807667  0.25000000  0.36633250  1.0
  Hf  Hf556  1  0.88807667  0.58333333  0.36633250  1.0
  Hf  Hf557  1  0.88807667  0.91666667  0.36633250  1.0
  Hf  Hf558  1  0.27859000  0.02859000  0.36685464  1.0
  Hf  Hf559  1  0.27859000  0.36192333  0.36685464  1.0
  Hf  Hf560  1  0.27859000  0.69525667  0.36685464  1.0
  Hf  Hf561  1  0.61192333  0.02859000  0.36685464  1.0
  Hf  Hf562  1  0.61192333  0.36192333  0.36685464  1.0
  Hf  Hf563  1  0.61192333  0.69525667  0.36685464  1.0
  Hf  Hf564  1  0.94525667  0.02859000  0.36685464  1.0
  Hf  Hf565  1  0.94525667  0.36192333  0.36685464  1.0
  Hf  Hf566  1  0.94525667  0.69525667  0.36685464  1.0
  Hf  Hf567  1  0.27859000  0.19525667  0.40256893  1.0
  Hf  Hf568  1  0.27859000  0.52859000  0.40256893  1.0
  Hf  Hf569  1  0.27859000  0.86192333  0.40256893  1.0
  Hf  Hf570  1  0.61192333  0.19525667  0.40256893  1.0
  Hf  Hf571  1  0.61192333  0.52859000  0.40256893  1.0
  Hf  Hf572  1  0.61192333  0.86192333  0.40256893  1.0
  Hf  Hf573  1  0.94525667  0.19525667  0.40256893  1.0
  Hf  Hf574  1  0.94525667  0.52859000  0.40256893  1.0
  Hf  Hf575  1  0.94525667  0.86192333  0.40256893  1.0
  Hf  Hf576  1  0.11192333  0.08333333  0.40204679  1.0
  Hf  Hf577  1  0.11192333  0.41666667  0.40204679  1.0
  Hf  Hf578  1  0.11192333  0.75000000  0.40204679  1.0
  Hf  Hf579  1  0.44525667  0.08333333  0.40204679  1.0
  Hf  Hf580  1  0.44525667  0.41666667  0.40204679  1.0
  Hf  Hf581  1  0.44525667  0.75000000  0.40204679  1.0
  Hf  Hf582  1  0.77859000  0.08333333  0.40204679  1.0
  Hf  Hf583  1  0.77859000  0.41666667  0.40204679  1.0
  Hf  Hf584  1  0.77859000  0.75000000  0.40204679  1.0
  Hf  Hf585  1  0.11192333  0.25000000  0.36633250  1.0
  Hf  Hf586  1  0.11192333  0.58333333  0.36633250  1.0
  Hf  Hf587  1  0.11192333  0.91666667  0.36633250  1.0
  Hf  Hf588  1  0.44525667  0.25000000  0.36633250  1.0
  Hf  Hf589  1  0.44525667  0.58333333  0.36633250  1.0
  Hf  Hf590  1  0.44525667  0.91666667  0.36633250  1.0
  Hf  Hf591  1  0.77859000  0.25000000  0.36633250  1.0
  Hf  Hf592  1  0.77859000  0.58333333  0.36633250  1.0
  Hf  Hf593  1  0.77859000  0.91666667  0.36633250  1.0
  Hf  Hf594  1  0.05474333  0.13807667  0.36581036  1.0
  Hf  Hf595  1  0.05474333  0.47141000  0.36581036  1.0
  Hf  Hf596  1  0.05474333  0.80474333  0.36581036  1.0
  Hf  Hf597  1  0.38807667  0.13807667  0.36581036  1.0
  Hf  Hf598  1  0.38807667  0.47141000  0.36581036  1.0
  Hf  Hf599  1  0.38807667  0.80474333  0.36581036  1.0
  Hf  Hf600  1  0.72141000  0.13807667  0.36581036  1.0
  Hf  Hf601  1  0.72141000  0.47141000  0.36581036  1.0
  Hf  Hf602  1  0.72141000  0.80474333  0.36581036  1.0
  Hf  Hf603  1  0.05474333  0.30474333  0.40152464  1.0
  Hf  Hf604  1  0.05474333  0.63807667  0.40152464  1.0
  Hf  Hf605  1  0.05474333  0.97141000  0.40152464  1.0
  Hf  Hf606  1  0.38807667  0.30474333  0.40152464  1.0
  Hf  Hf607  1  0.38807667  0.63807667  0.40152464  1.0
  Hf  Hf608  1  0.38807667  0.97141000  0.40152464  1.0
  Hf  Hf609  1  0.72141000  0.30474333  0.40152464  1.0
  Hf  Hf610  1  0.72141000  0.63807667  0.40152464  1.0
  Hf  Hf611  1  0.72141000  0.97141000  0.40152464  1.0
  Ni  Ni612  1  0.25000000  0.33333333  0.38418964  1.0
  Ni  Ni613  1  0.25000000  0.66666667  0.38418964  1.0
  Ni  Ni614  1  0.25000000  1.00000000  0.38418964  1.0
  Ni  Ni615  1  0.58333333  0.33333333  0.38418964  1.0
  Ni  Ni616  1  0.58333333  0.66666667  0.38418964  1.0
  Ni  Ni617  1  0.58333333  1.00000000  0.38418964  1.0
  Ni  Ni618  1  0.91666667  0.33333333  0.38418964  1.0
  Ni  Ni619  1  0.91666667  0.66666667  0.38418964  1.0
  Ni  Ni620  1  0.91666667  1.00000000  0.38418964  1.0
  Ni  Ni621  1  0.25000000  0.16666667  0.41990393  1.0
  Ni  Ni622  1  0.25000000  0.50000000  0.41990393  1.0
  Ni  Ni623  1  0.25000000  0.83333333  0.41990393  1.0
  Ni  Ni624  1  0.58333333  0.16666667  0.41990393  1.0
  Ni  Ni625  1  0.58333333  0.50000000  0.41990393  1.0
  Ni  Ni626  1  0.58333333  0.83333333  0.41990393  1.0
  Ni  Ni627  1  0.91666667  0.16666667  0.41990393  1.0
  Ni  Ni628  1  0.91666667  0.50000000  0.41990393  1.0
  Ni  Ni629  1  0.91666667  0.83333333  0.41990393  1.0
  Ni  Ni630  1  0.08333333  0.00000000  0.38418964  1.0
  Ni  Ni631  1  0.08333333  0.33333333  0.38418964  1.0
  Ni  Ni632  1  0.08333333  0.66666667  0.38418964  1.0
  Ni  Ni633  1  0.41666667  0.00000000  0.38418964  1.0
  Ni  Ni634  1  0.41666667  0.33333333  0.38418964  1.0
  Ni  Ni635  1  0.41666667  0.66666667  0.38418964  1.0
  Ni  Ni636  1  0.75000000  0.00000000  0.38418964  1.0
  Ni  Ni637  1  0.75000000  0.33333333  0.38418964  1.0
  Ni  Ni638  1  0.75000000  0.66666667  0.38418964  1.0
  Ni  Ni639  1  0.08333333  0.16666667  0.41990393  1.0
  Ni  Ni640  1  0.08333333  0.50000000  0.41990393  1.0
  Ni  Ni641  1  0.08333333  0.83333333  0.41990393  1.0
  Ni  Ni642  1  0.41666667  0.16666667  0.41990393  1.0
  Ni  Ni643  1  0.41666667  0.50000000  0.41990393  1.0
  Ni  Ni644  1  0.41666667  0.83333333  0.41990393  1.0
  Ni  Ni645  1  0.75000000  0.16666667  0.41990393  1.0
  Ni  Ni646  1  0.75000000  0.50000000  0.41990393  1.0
  Ni  Ni647  1  0.75000000  0.83333333  0.41990393  1.0
