# generated using pymatgen
data_Hf2Ni7
_symmetry_space_group_name_H-M   'P 1'
_cell_length_a   14.10969849
_cell_length_b   24.96901424
_cell_length_c   47.03232830
_cell_angle_alpha   131.93255558
_cell_angle_beta   59.27868241
_cell_angle_gamma   100.69119250
_symmetry_Int_Tables_number   1
_chemical_formula_structural   Hf2Ni7
_chemical_formula_sum   'Hf72 Ni252'
_cell_volume   10277.28585195
_cell_formula_units_Z   36
loop_
 _symmetry_equiv_pos_site_id
 _symmetry_equiv_pos_as_xyz
  1  'x, y, z'
loop_
 _atom_site_type_symbol
 _atom_site_label
 _atom_site_symmetry_multiplicity
 _atom_site_fract_x
 _atom_site_fract_y
 _atom_site_fract_z
 _atom_site_occupancy
  Hf  Hf0  1  0.29804433  0.25691067  0.08148985  1.0
  Hf  Hf1  1  0.29804433  0.59024400  0.08148985  1.0
  Hf  Hf2  1  0.29804433  0.92357733  0.08148985  1.0
  Hf  Hf3  1  0.63137767  0.25691067  0.08148985  1.0
  Hf  Hf4  1  0.63137767  0.59024400  0.08148985  1.0
  Hf  Hf5  1  0.63137767  0.92357733  0.08148985  1.0
  Hf  Hf6  1  0.96471100  0.25691067  0.08148985  1.0
  Hf  Hf7  1  0.96471100  0.59024400  0.08148985  1.0
  Hf  Hf8  1  0.96471100  0.92357733  0.08148985  1.0
  Hf  Hf9  1  0.03528900  0.07642267  0.00617005  1.0
  Hf  Hf10  1  0.03528900  0.40975600  0.00617005  1.0
  Hf  Hf11  1  0.03528900  0.74308933  0.00617005  1.0
  Hf  Hf12  1  0.36862233  0.07642267  0.00617005  1.0
  Hf  Hf13  1  0.36862233  0.40975600  0.00617005  1.0
  Hf  Hf14  1  0.36862233  0.74308933  0.00617005  1.0
  Hf  Hf15  1  0.70195567  0.07642267  0.00617005  1.0
  Hf  Hf16  1  0.70195567  0.40975600  0.00617005  1.0
  Hf  Hf17  1  0.70195567  0.74308933  0.00617005  1.0
  Ni  Ni18  1  0.00000000  0.16666667  0.09382995  1.0
  Ni  Ni19  1  0.00000000  0.50000000  0.09382995  1.0
  Ni  Ni20  1  0.00000000  0.83333333  0.09382995  1.0
  Ni  Ni21  1  0.33333333  0.16666667  0.09382995  1.0
  Ni  Ni22  1  0.33333333  0.50000000  0.09382995  1.0
  Ni  Ni23  1  0.33333333  0.83333333  0.09382995  1.0
  Ni  Ni24  1  0.66666667  0.16666667  0.09382995  1.0
  Ni  Ni25  1  0.66666667  0.50000000  0.09382995  1.0
  Ni  Ni26  1  0.66666667  0.83333333  0.09382995  1.0
  Ni  Ni27  1  0.16666667  0.16666667  0.04382995  1.0
  Ni  Ni28  1  0.16666667  0.50000000  0.04382995  1.0
  Ni  Ni29  1  0.16666667  0.83333333  0.04382995  1.0
  Ni  Ni30  1  0.50000000  0.16666667  0.04382995  1.0
  Ni  Ni31  1  0.50000000  0.50000000  0.04382995  1.0
  Ni  Ni32  1  0.50000000  0.83333333  0.04382995  1.0
  Ni  Ni33  1  0.83333333  0.16666667  0.04382995  1.0
  Ni  Ni34  1  0.83333333  0.50000000  0.04382995  1.0
  Ni  Ni35  1  0.83333333  0.83333333  0.04382995  1.0
  Ni  Ni36  1  0.17908067  0.28159667  0.05757445  1.0
  Ni  Ni37  1  0.17908067  0.61493000  0.05757445  1.0
  Ni  Ni38  1  0.17908067  0.94826333  0.05757445  1.0
  Ni  Ni39  1  0.51241400  0.28159667  0.05757445  1.0
  Ni  Ni40  1  0.51241400  0.61493000  0.05757445  1.0
  Ni  Ni41  1  0.51241400  0.94826333  0.05757445  1.0
  Ni  Ni42  1  0.84574733  0.28159667  0.05757445  1.0
  Ni  Ni43  1  0.84574733  0.61493000  0.05757445  1.0
  Ni  Ni44  1  0.84574733  0.94826333  0.05757445  1.0
  Ni  Ni45  1  0.15425267  0.05173667  0.03008545  1.0
  Ni  Ni46  1  0.15425267  0.38507000  0.03008545  1.0
  Ni  Ni47  1  0.15425267  0.71840333  0.03008545  1.0
  Ni  Ni48  1  0.48758600  0.05173667  0.03008545  1.0
  Ni  Ni49  1  0.48758600  0.38507000  0.03008545  1.0
  Ni  Ni50  1  0.48758600  0.71840333  0.03008545  1.0
  Ni  Ni51  1  0.82091933  0.05173667  0.03008545  1.0
  Ni  Ni52  1  0.82091933  0.38507000  0.03008545  1.0
  Ni  Ni53  1  0.82091933  0.71840333  0.03008545  1.0
  Ni  Ni54  1  0.26421833  0.05173667  0.06307515  1.0
  Ni  Ni55  1  0.26421833  0.38507000  0.06307515  1.0
  Ni  Ni56  1  0.26421833  0.71840333  0.06307515  1.0
  Ni  Ni57  1  0.59755167  0.05173667  0.06307515  1.0
  Ni  Ni58  1  0.59755167  0.38507000  0.06307515  1.0
  Ni  Ni59  1  0.59755167  0.71840333  0.06307515  1.0
  Ni  Ni60  1  0.93088500  0.05173667  0.06307515  1.0
  Ni  Ni61  1  0.93088500  0.38507000  0.06307515  1.0
  Ni  Ni62  1  0.93088500  0.71840333  0.06307515  1.0
  Ni  Ni63  1  0.06911500  0.28159667  0.02458475  1.0
  Ni  Ni64  1  0.06911500  0.61493000  0.02458475  1.0
  Ni  Ni65  1  0.06911500  0.94826333  0.02458475  1.0
  Ni  Ni66  1  0.40244833  0.28159667  0.02458475  1.0
  Ni  Ni67  1  0.40244833  0.61493000  0.02458475  1.0
  Ni  Ni68  1  0.40244833  0.94826333  0.02458475  1.0
  Ni  Ni69  1  0.73578167  0.28159667  0.02458475  1.0
  Ni  Ni70  1  0.73578167  0.61493000  0.02458475  1.0
  Ni  Ni71  1  0.73578167  0.94826333  0.02458475  1.0
  Ni  Ni72  1  0.16666667  0.16666667  0.09382995  1.0
  Ni  Ni73  1  0.16666667  0.50000000  0.09382995  1.0
  Ni  Ni74  1  0.16666667  0.83333333  0.09382995  1.0
  Ni  Ni75  1  0.50000000  0.16666667  0.09382995  1.0
  Ni  Ni76  1  0.50000000  0.50000000  0.09382995  1.0
  Ni  Ni77  1  0.50000000  0.83333333  0.09382995  1.0
  Ni  Ni78  1  0.83333333  0.16666667  0.09382995  1.0
  Ni  Ni79  1  0.83333333  0.50000000  0.09382995  1.0
  Ni  Ni80  1  0.83333333  0.83333333  0.09382995  1.0
  Hf  Hf81  1  0.29804433  0.25691067  0.18148985  1.0
  Hf  Hf82  1  0.29804433  0.59024400  0.18148985  1.0
  Hf  Hf83  1  0.29804433  0.92357733  0.18148985  1.0
  Hf  Hf84  1  0.63137767  0.25691067  0.18148985  1.0
  Hf  Hf85  1  0.63137767  0.59024400  0.18148985  1.0
  Hf  Hf86  1  0.63137767  0.92357733  0.18148985  1.0
  Hf  Hf87  1  0.96471100  0.25691067  0.18148985  1.0
  Hf  Hf88  1  0.96471100  0.59024400  0.18148985  1.0
  Hf  Hf89  1  0.96471100  0.92357733  0.18148985  1.0
  Hf  Hf90  1  0.03528900  0.07642267  0.10617005  1.0
  Hf  Hf91  1  0.03528900  0.40975600  0.10617005  1.0
  Hf  Hf92  1  0.03528900  0.74308933  0.10617005  1.0
  Hf  Hf93  1  0.36862233  0.07642267  0.10617005  1.0
  Hf  Hf94  1  0.36862233  0.40975600  0.10617005  1.0
  Hf  Hf95  1  0.36862233  0.74308933  0.10617005  1.0
  Hf  Hf96  1  0.70195567  0.07642267  0.10617005  1.0
  Hf  Hf97  1  0.70195567  0.40975600  0.10617005  1.0
  Hf  Hf98  1  0.70195567  0.74308933  0.10617005  1.0
  Ni  Ni99  1  0.00000000  0.16666667  0.19382995  1.0
  Ni  Ni100  1  0.00000000  0.50000000  0.19382995  1.0
  Ni  Ni101  1  0.00000000  0.83333333  0.19382995  1.0
  Ni  Ni102  1  0.33333333  0.16666667  0.19382995  1.0
  Ni  Ni103  1  0.33333333  0.50000000  0.19382995  1.0
  Ni  Ni104  1  0.33333333  0.83333333  0.19382995  1.0
  Ni  Ni105  1  0.66666667  0.16666667  0.19382995  1.0
  Ni  Ni106  1  0.66666667  0.50000000  0.19382995  1.0
  Ni  Ni107  1  0.66666667  0.83333333  0.19382995  1.0
  Ni  Ni108  1  0.16666667  0.16666667  0.14382995  1.0
  Ni  Ni109  1  0.16666667  0.50000000  0.14382995  1.0
  Ni  Ni110  1  0.16666667  0.83333333  0.14382995  1.0
  Ni  Ni111  1  0.50000000  0.16666667  0.14382995  1.0
  Ni  Ni112  1  0.50000000  0.50000000  0.14382995  1.0
  Ni  Ni113  1  0.50000000  0.83333333  0.14382995  1.0
  Ni  Ni114  1  0.83333333  0.16666667  0.14382995  1.0
  Ni  Ni115  1  0.83333333  0.50000000  0.14382995  1.0
  Ni  Ni116  1  0.83333333  0.83333333  0.14382995  1.0
  Ni  Ni117  1  0.17908067  0.28159667  0.15757445  1.0
  Ni  Ni118  1  0.17908067  0.61493000  0.15757445  1.0
  Ni  Ni119  1  0.17908067  0.94826333  0.15757445  1.0
  Ni  Ni120  1  0.51241400  0.28159667  0.15757445  1.0
  Ni  Ni121  1  0.51241400  0.61493000  0.15757445  1.0
  Ni  Ni122  1  0.51241400  0.94826333  0.15757445  1.0
  Ni  Ni123  1  0.84574733  0.28159667  0.15757445  1.0
  Ni  Ni124  1  0.84574733  0.61493000  0.15757445  1.0
  Ni  Ni125  1  0.84574733  0.94826333  0.15757445  1.0
  Ni  Ni126  1  0.15425267  0.05173667  0.13008545  1.0
  Ni  Ni127  1  0.15425267  0.38507000  0.13008545  1.0
  Ni  Ni128  1  0.15425267  0.71840333  0.13008545  1.0
  Ni  Ni129  1  0.48758600  0.05173667  0.13008545  1.0
  Ni  Ni130  1  0.48758600  0.38507000  0.13008545  1.0
  Ni  Ni131  1  0.48758600  0.71840333  0.13008545  1.0
  Ni  Ni132  1  0.82091933  0.05173667  0.13008545  1.0
  Ni  Ni133  1  0.82091933  0.38507000  0.13008545  1.0
  Ni  Ni134  1  0.82091933  0.71840333  0.13008545  1.0
  Ni  Ni135  1  0.26421833  0.05173667  0.16307515  1.0
  Ni  Ni136  1  0.26421833  0.38507000  0.16307515  1.0
  Ni  Ni137  1  0.26421833  0.71840333  0.16307515  1.0
  Ni  Ni138  1  0.59755167  0.05173667  0.16307515  1.0
  Ni  Ni139  1  0.59755167  0.38507000  0.16307515  1.0
  Ni  Ni140  1  0.59755167  0.71840333  0.16307515  1.0
  Ni  Ni141  1  0.93088500  0.05173667  0.16307515  1.0
  Ni  Ni142  1  0.93088500  0.38507000  0.16307515  1.0
  Ni  Ni143  1  0.93088500  0.71840333  0.16307515  1.0
  Ni  Ni144  1  0.06911500  0.28159667  0.12458475  1.0
  Ni  Ni145  1  0.06911500  0.61493000  0.12458475  1.0
  Ni  Ni146  1  0.06911500  0.94826333  0.12458475  1.0
  Ni  Ni147  1  0.40244833  0.28159667  0.12458475  1.0
  Ni  Ni148  1  0.40244833  0.61493000  0.12458475  1.0
  Ni  Ni149  1  0.40244833  0.94826333  0.12458475  1.0
  Ni  Ni150  1  0.73578167  0.28159667  0.12458475  1.0
  Ni  Ni151  1  0.73578167  0.61493000  0.12458475  1.0
  Ni  Ni152  1  0.73578167  0.94826333  0.12458475  1.0
  Ni  Ni153  1  0.16666667  0.16666667  0.19382995  1.0
  Ni  Ni154  1  0.16666667  0.50000000  0.19382995  1.0
  Ni  Ni155  1  0.16666667  0.83333333  0.19382995  1.0
  Ni  Ni156  1  0.50000000  0.16666667  0.19382995  1.0
  Ni  Ni157  1  0.50000000  0.50000000  0.19382995  1.0
  Ni  Ni158  1  0.50000000  0.83333333  0.19382995  1.0
  Ni  Ni159  1  0.83333333  0.16666667  0.19382995  1.0
  Ni  Ni160  1  0.83333333  0.50000000  0.19382995  1.0
  Ni  Ni161  1  0.83333333  0.83333333  0.19382995  1.0
  Hf  Hf162  1  0.29804433  0.25691067  0.28148985  1.0
  Hf  Hf163  1  0.29804433  0.59024400  0.28148985  1.0
  Hf  Hf164  1  0.29804433  0.92357733  0.28148985  1.0
  Hf  Hf165  1  0.63137767  0.25691067  0.28148985  1.0
  Hf  Hf166  1  0.63137767  0.59024400  0.28148985  1.0
  Hf  Hf167  1  0.63137767  0.92357733  0.28148985  1.0
  Hf  Hf168  1  0.96471100  0.25691067  0.28148985  1.0
  Hf  Hf169  1  0.96471100  0.59024400  0.28148985  1.0
  Hf  Hf170  1  0.96471100  0.92357733  0.28148985  1.0
  Hf  Hf171  1  0.03528900  0.07642267  0.20617005  1.0
  Hf  Hf172  1  0.03528900  0.40975600  0.20617005  1.0
  Hf  Hf173  1  0.03528900  0.74308933  0.20617005  1.0
  Hf  Hf174  1  0.36862233  0.07642267  0.20617005  1.0
  Hf  Hf175  1  0.36862233  0.40975600  0.20617005  1.0
  Hf  Hf176  1  0.36862233  0.74308933  0.20617005  1.0
  Hf  Hf177  1  0.70195567  0.07642267  0.20617005  1.0
  Hf  Hf178  1  0.70195567  0.40975600  0.20617005  1.0
  Hf  Hf179  1  0.70195567  0.74308933  0.20617005  1.0
  Ni  Ni180  1  0.00000000  0.16666667  0.29382995  1.0
  Ni  Ni181  1  0.00000000  0.50000000  0.29382995  1.0
  Ni  Ni182  1  0.00000000  0.83333333  0.29382995  1.0
  Ni  Ni183  1  0.33333333  0.16666667  0.29382995  1.0
  Ni  Ni184  1  0.33333333  0.50000000  0.29382995  1.0
  Ni  Ni185  1  0.33333333  0.83333333  0.29382995  1.0
  Ni  Ni186  1  0.66666667  0.16666667  0.29382995  1.0
  Ni  Ni187  1  0.66666667  0.50000000  0.29382995  1.0
  Ni  Ni188  1  0.66666667  0.83333333  0.29382995  1.0
  Ni  Ni189  1  0.16666667  0.16666667  0.24382995  1.0
  Ni  Ni190  1  0.16666667  0.50000000  0.24382995  1.0
  Ni  Ni191  1  0.16666667  0.83333333  0.24382995  1.0
  Ni  Ni192  1  0.50000000  0.16666667  0.24382995  1.0
  Ni  Ni193  1  0.50000000  0.50000000  0.24382995  1.0
  Ni  Ni194  1  0.50000000  0.83333333  0.24382995  1.0
  Ni  Ni195  1  0.83333333  0.16666667  0.24382995  1.0
  Ni  Ni196  1  0.83333333  0.50000000  0.24382995  1.0
  Ni  Ni197  1  0.83333333  0.83333333  0.24382995  1.0
  Ni  Ni198  1  0.17908067  0.28159667  0.25757445  1.0
  Ni  Ni199  1  0.17908067  0.61493000  0.25757445  1.0
  Ni  Ni200  1  0.17908067  0.94826333  0.25757445  1.0
  Ni  Ni201  1  0.51241400  0.28159667  0.25757445  1.0
  Ni  Ni202  1  0.51241400  0.61493000  0.25757445  1.0
  Ni  Ni203  1  0.51241400  0.94826333  0.25757445  1.0
  Ni  Ni204  1  0.84574733  0.28159667  0.25757445  1.0
  Ni  Ni205  1  0.84574733  0.61493000  0.25757445  1.0
  Ni  Ni206  1  0.84574733  0.94826333  0.25757445  1.0
  Ni  Ni207  1  0.15425267  0.05173667  0.23008545  1.0
  Ni  Ni208  1  0.15425267  0.38507000  0.23008545  1.0
  Ni  Ni209  1  0.15425267  0.71840333  0.23008545  1.0
  Ni  Ni210  1  0.48758600  0.05173667  0.23008545  1.0
  Ni  Ni211  1  0.48758600  0.38507000  0.23008545  1.0
  Ni  Ni212  1  0.48758600  0.71840333  0.23008545  1.0
  Ni  Ni213  1  0.82091933  0.05173667  0.23008545  1.0
  Ni  Ni214  1  0.82091933  0.38507000  0.23008545  1.0
  Ni  Ni215  1  0.82091933  0.71840333  0.23008545  1.0
  Ni  Ni216  1  0.26421833  0.05173667  0.26307515  1.0
  Ni  Ni217  1  0.26421833  0.38507000  0.26307515  1.0
  Ni  Ni218  1  0.26421833  0.71840333  0.26307515  1.0
  Ni  Ni219  1  0.59755167  0.05173667  0.26307515  1.0
  Ni  Ni220  1  0.59755167  0.38507000  0.26307515  1.0
  Ni  Ni221  1  0.59755167  0.71840333  0.26307515  1.0
  Ni  Ni222  1  0.93088500  0.05173667  0.26307515  1.0
  Ni  Ni223  1  0.93088500  0.38507000  0.26307515  1.0
  Ni  Ni224  1  0.93088500  0.71840333  0.26307515  1.0
  Ni  Ni225  1  0.06911500  0.28159667  0.22458475  1.0
  Ni  Ni226  1  0.06911500  0.61493000  0.22458475  1.0
  Ni  Ni227  1  0.06911500  0.94826333  0.22458475  1.0
  Ni  Ni228  1  0.40244833  0.28159667  0.22458475  1.0
  Ni  Ni229  1  0.40244833  0.61493000  0.22458475  1.0
  Ni  Ni230  1  0.40244833  0.94826333  0.22458475  1.0
  Ni  Ni231  1  0.73578167  0.28159667  0.22458475  1.0
  Ni  Ni232  1  0.73578167  0.61493000  0.22458475  1.0
  Ni  Ni233  1  0.73578167  0.94826333  0.22458475  1.0
  Ni  Ni234  1  0.16666667  0.16666667  0.29382995  1.0
  Ni  Ni235  1  0.16666667  0.50000000  0.29382995  1.0
  Ni  Ni236  1  0.16666667  0.83333333  0.29382995  1.0
  Ni  Ni237  1  0.50000000  0.16666667  0.29382995  1.0
  Ni  Ni238  1  0.50000000  0.50000000  0.29382995  1.0
  Ni  Ni239  1  0.50000000  0.83333333  0.29382995  1.0
  Ni  Ni240  1  0.83333333  0.16666667  0.29382995  1.0
  Ni  Ni241  1  0.83333333  0.50000000  0.29382995  1.0
  Ni  Ni242  1  0.83333333  0.83333333  0.29382995  1.0
  Hf  Hf243  1  0.29804433  0.25691067  0.38148985  1.0
  Hf  Hf244  1  0.29804433  0.59024400  0.38148985  1.0
  Hf  Hf245  1  0.29804433  0.92357733  0.38148985  1.0
  Hf  Hf246  1  0.63137767  0.25691067  0.38148985  1.0
  Hf  Hf247  1  0.63137767  0.59024400  0.38148985  1.0
  Hf  Hf248  1  0.63137767  0.92357733  0.38148985  1.0
  Hf  Hf249  1  0.96471100  0.25691067  0.38148985  1.0
  Hf  Hf250  1  0.96471100  0.59024400  0.38148985  1.0
  Hf  Hf251  1  0.96471100  0.92357733  0.38148985  1.0
  Hf  Hf252  1  0.03528900  0.07642267  0.30617005  1.0
  Hf  Hf253  1  0.03528900  0.40975600  0.30617005  1.0
  Hf  Hf254  1  0.03528900  0.74308933  0.30617005  1.0
  Hf  Hf255  1  0.36862233  0.07642267  0.30617005  1.0
  Hf  Hf256  1  0.36862233  0.40975600  0.30617005  1.0
  Hf  Hf257  1  0.36862233  0.74308933  0.30617005  1.0
  Hf  Hf258  1  0.70195567  0.07642267  0.30617005  1.0
  Hf  Hf259  1  0.70195567  0.40975600  0.30617005  1.0
  Hf  Hf260  1  0.70195567  0.74308933  0.30617005  1.0
  Ni  Ni261  1  0.00000000  0.16666667  0.39382995  1.0
  Ni  Ni262  1  0.00000000  0.50000000  0.39382995  1.0
  Ni  Ni263  1  0.00000000  0.83333333  0.39382995  1.0
  Ni  Ni264  1  0.33333333  0.16666667  0.39382995  1.0
  Ni  Ni265  1  0.33333333  0.50000000  0.39382995  1.0
  Ni  Ni266  1  0.33333333  0.83333333  0.39382995  1.0
  Ni  Ni267  1  0.66666667  0.16666667  0.39382995  1.0
  Ni  Ni268  1  0.66666667  0.50000000  0.39382995  1.0
  Ni  Ni269  1  0.66666667  0.83333333  0.39382995  1.0
  Ni  Ni270  1  0.16666667  0.16666667  0.34382995  1.0
  Ni  Ni271  1  0.16666667  0.50000000  0.34382995  1.0
  Ni  Ni272  1  0.16666667  0.83333333  0.34382995  1.0
  Ni  Ni273  1  0.50000000  0.16666667  0.34382995  1.0
  Ni  Ni274  1  0.50000000  0.50000000  0.34382995  1.0
  Ni  Ni275  1  0.50000000  0.83333333  0.34382995  1.0
  Ni  Ni276  1  0.83333333  0.16666667  0.34382995  1.0
  Ni  Ni277  1  0.83333333  0.50000000  0.34382995  1.0
  Ni  Ni278  1  0.83333333  0.83333333  0.34382995  1.0
  Ni  Ni279  1  0.17908067  0.28159667  0.35757445  1.0
  Ni  Ni280  1  0.17908067  0.61493000  0.35757445  1.0
  Ni  Ni281  1  0.17908067  0.94826333  0.35757445  1.0
  Ni  Ni282  1  0.51241400  0.28159667  0.35757445  1.0
  Ni  Ni283  1  0.51241400  0.61493000  0.35757445  1.0
  Ni  Ni284  1  0.51241400  0.94826333  0.35757445  1.0
  Ni  Ni285  1  0.84574733  0.28159667  0.35757445  1.0
  Ni  Ni286  1  0.84574733  0.61493000  0.35757445  1.0
  Ni  Ni287  1  0.84574733  0.94826333  0.35757445  1.0
  Ni  Ni288  1  0.15425267  0.05173667  0.33008545  1.0
  Ni  Ni289  1  0.15425267  0.38507000  0.33008545  1.0
  Ni  Ni290  1  0.15425267  0.71840333  0.33008545  1.0
  Ni  Ni291  1  0.48758600  0.05173667  0.33008545  1.0
  Ni  Ni292  1  0.48758600  0.38507000  0.33008545  1.0
  Ni  Ni293  1  0.48758600  0.71840333  0.33008545  1.0
  Ni  Ni294  1  0.82091933  0.05173667  0.33008545  1.0
  Ni  Ni295  1  0.82091933  0.38507000  0.33008545  1.0
  Ni  Ni296  1  0.82091933  0.71840333  0.33008545  1.0
  Ni  Ni297  1  0.26421833  0.05173667  0.36307515  1.0
  Ni  Ni298  1  0.26421833  0.38507000  0.36307515  1.0
  Ni  Ni299  1  0.26421833  0.71840333  0.36307515  1.0
  Ni  Ni300  1  0.59755167  0.05173667  0.36307515  1.0
  Ni  Ni301  1  0.59755167  0.38507000  0.36307515  1.0
  Ni  Ni302  1  0.59755167  0.71840333  0.36307515  1.0
  Ni  Ni303  1  0.93088500  0.05173667  0.36307515  1.0
  Ni  Ni304  1  0.93088500  0.38507000  0.36307515  1.0
  Ni  Ni305  1  0.93088500  0.71840333  0.36307515  1.0
  Ni  Ni306  1  0.06911500  0.28159667  0.32458475  1.0
  Ni  Ni307  1  0.06911500  0.61493000  0.32458475  1.0
  Ni  Ni308  1  0.06911500  0.94826333  0.32458475  1.0
  Ni  Ni309  1  0.40244833  0.28159667  0.32458475  1.0
  Ni  Ni310  1  0.40244833  0.61493000  0.32458475  1.0
  Ni  Ni311  1  0.40244833  0.94826333  0.32458475  1.0
  Ni  Ni312  1  0.73578167  0.28159667  0.32458475  1.0
  Ni  Ni313  1  0.73578167  0.61493000  0.32458475  1.0
  Ni  Ni314  1  0.73578167  0.94826333  0.32458475  1.0
  Ni  Ni315  1  0.16666667  0.16666667  0.39382995  1.0
  Ni  Ni316  1  0.16666667  0.50000000  0.39382995  1.0
  Ni  Ni317  1  0.16666667  0.83333333  0.39382995  1.0
  Ni  Ni318  1  0.50000000  0.16666667  0.39382995  1.0
  Ni  Ni319  1  0.50000000  0.50000000  0.39382995  1.0
  Ni  Ni320  1  0.50000000  0.83333333  0.39382995  1.0
  Ni  Ni321  1  0.83333333  0.16666667  0.39382995  1.0
  Ni  Ni322  1  0.83333333  0.50000000  0.39382995  1.0
  Ni  Ni323  1  0.83333333  0.83333333  0.39382995  1.0
