# generated using pymatgen
data_Hf2Ni7
_symmetry_space_group_name_H-M   'P 1'
_cell_length_a   24.52704600
_cell_length_b   21.86473206
_cell_length_c   56.43879396
_cell_angle_alpha   116.58232035
_cell_angle_beta   150.36065880
_cell_angle_gamma   55.88322098
_symmetry_Int_Tables_number   1
_chemical_formula_structural   Hf2Ni7
_chemical_formula_sum   'Hf90 Ni315'
_cell_volume   12332.74302235
_cell_formula_units_Z   45
loop_
 _symmetry_equiv_pos_site_id
 _symmetry_equiv_pos_as_xyz
  1  'x, y, z'
loop_
 _atom_site_type_symbol
 _atom_site_label
 _atom_site_symmetry_multiplicity
 _atom_site_fract_x
 _atom_site_fract_y
 _atom_site_fract_z
 _atom_site_occupancy
  Hf  Hf0  1  0.11171167  0.25691067  0.01964088  1.0
  Hf  Hf1  1  0.11171167  0.59024400  0.01964088  1.0
  Hf  Hf2  1  0.11171167  0.92357733  0.01964088  1.0
  Hf  Hf3  1  0.44504500  0.25691067  0.01964088  1.0
  Hf  Hf4  1  0.44504500  0.59024400  0.01964088  1.0
  Hf  Hf5  1  0.44504500  0.92357733  0.01964088  1.0
  Hf  Hf6  1  0.77837833  0.25691067  0.01964088  1.0
  Hf  Hf7  1  0.77837833  0.59024400  0.01964088  1.0
  Hf  Hf8  1  0.77837833  0.92357733  0.01964088  1.0
  Hf  Hf9  1  0.22162167  0.07642267  0.02947388  1.0
  Hf  Hf10  1  0.22162167  0.40975600  0.02947388  1.0
  Hf  Hf11  1  0.22162167  0.74308933  0.02947387  1.0
  Hf  Hf12  1  0.55495500  0.07642267  0.02947388  1.0
  Hf  Hf13  1  0.55495500  0.40975600  0.02947387  1.0
  Hf  Hf14  1  0.55495500  0.74308933  0.02947387  1.0
  Hf  Hf15  1  0.88828833  0.07642267  0.02947388  1.0
  Hf  Hf16  1  0.88828833  0.40975600  0.02947388  1.0
  Hf  Hf17  1  0.88828833  0.74308933  0.02947388  1.0
  Ni  Ni18  1  0.00000000  0.16666667  0.06622404  1.0
  Ni  Ni19  1  0.00000000  0.50000000  0.06622404  1.0
  Ni  Ni20  1  0.00000000  0.83333333  0.06622404  1.0
  Ni  Ni21  1  0.33333333  0.16666667  0.06622404  1.0
  Ni  Ni22  1  0.33333333  0.50000000  0.06622404  1.0
  Ni  Ni23  1  0.33333333  0.83333333  0.06622404  1.0
  Ni  Ni24  1  0.66666667  0.16666667  0.06622404  1.0
  Ni  Ni25  1  0.66666667  0.50000000  0.06622404  1.0
  Ni  Ni26  1  0.66666667  0.83333333  0.06622404  1.0
  Ni  Ni27  1  0.16666667  0.16666667  0.06622404  1.0
  Ni  Ni28  1  0.16666667  0.50000000  0.06622404  1.0
  Ni  Ni29  1  0.16666667  0.83333333  0.06622404  1.0
  Ni  Ni30  1  0.50000000  0.16666667  0.06622404  1.0
  Ni  Ni31  1  0.50000000  0.50000000  0.06622404  1.0
  Ni  Ni32  1  0.50000000  0.83333333  0.06622404  1.0
  Ni  Ni33  1  0.83333333  0.16666667  0.06622404  1.0
  Ni  Ni34  1  0.83333333  0.50000000  0.06622404  1.0
  Ni  Ni35  1  0.83333333  0.83333333  0.06622404  1.0
  Ni  Ni36  1  0.31595500  0.28159667  0.01710929  1.0
  Ni  Ni37  1  0.31595500  0.61493000  0.01710929  1.0
  Ni  Ni38  1  0.31595500  0.94826333  0.01710929  1.0
  Ni  Ni39  1  0.64928833  0.28159667  0.01710929  1.0
  Ni  Ni40  1  0.64928833  0.61493000  0.01710929  1.0
  Ni  Ni41  1  0.64928833  0.94826333  0.01710929  1.0
  Ni  Ni42  1  0.98262167  0.28159667  0.01710929  1.0
  Ni  Ni43  1  0.98262167  0.61493000  0.01710929  1.0
  Ni  Ni44  1  0.98262167  0.94826333  0.01710929  1.0
  Ni  Ni45  1  0.01737833  0.05173667  0.03200546  1.0
  Ni  Ni46  1  0.01737833  0.38507000  0.03200546  1.0
  Ni  Ni47  1  0.01737833  0.71840333  0.03200546  1.0
  Ni  Ni48  1  0.35071167  0.05173667  0.03200546  1.0
  Ni  Ni49  1  0.35071167  0.38507000  0.03200546  1.0
  Ni  Ni50  1  0.35071167  0.71840333  0.03200546  1.0
  Ni  Ni51  1  0.68404500  0.05173667  0.03200546  1.0
  Ni  Ni52  1  0.68404500  0.38507000  0.03200546  1.0
  Ni  Ni53  1  0.68404500  0.71840333  0.03200546  1.0
  Ni  Ni54  1  0.12734400  0.05173667  0.03200546  1.0
  Ni  Ni55  1  0.12734400  0.38507000  0.03200546  1.0
  Ni  Ni56  1  0.12734400  0.71840333  0.03200546  1.0
  Ni  Ni57  1  0.46067733  0.05173667  0.03200546  1.0
  Ni  Ni58  1  0.46067733  0.38507000  0.03200546  1.0
  Ni  Ni59  1  0.46067733  0.71840333  0.03200546  1.0
  Ni  Ni60  1  0.79401067  0.05173667  0.03200546  1.0
  Ni  Ni61  1  0.79401067  0.38507000  0.03200546  1.0
  Ni  Ni62  1  0.79401067  0.71840333  0.03200546  1.0
  Ni  Ni63  1  0.20598933  0.28159667  0.01710929  1.0
  Ni  Ni64  1  0.20598933  0.61493000  0.01710929  1.0
  Ni  Ni65  1  0.20598933  0.94826333  0.01710929  1.0
  Ni  Ni66  1  0.53932267  0.28159667  0.01710929  1.0
  Ni  Ni67  1  0.53932267  0.61493000  0.01710929  1.0
  Ni  Ni68  1  0.53932267  0.94826333  0.01710929  1.0
  Ni  Ni69  1  0.87265600  0.28159667  0.01710929  1.0
  Ni  Ni70  1  0.87265600  0.61493000  0.01710929  1.0
  Ni  Ni71  1  0.87265600  0.94826333  0.01710929  1.0
  Ni  Ni72  1  0.33333333  0.16666667  0.02455737  1.0
  Ni  Ni73  1  0.33333333  0.50000000  0.02455738  1.0
  Ni  Ni74  1  0.33333333  0.83333333  0.02455737  1.0
  Ni  Ni75  1  0.66666667  0.16666667  0.02455737  1.0
  Ni  Ni76  1  0.66666667  0.50000000  0.02455737  1.0
  Ni  Ni77  1  0.66666667  0.83333333  0.02455737  1.0
  Ni  Ni78  1  1.00000000  0.16666667  0.02455737  1.0
  Ni  Ni79  1  1.00000000  0.50000000  0.02455737  1.0
  Ni  Ni80  1  1.00000000  0.83333333  0.02455737  1.0
  Hf  Hf81  1  0.11171167  0.25691067  0.10297421  1.0
  Hf  Hf82  1  0.11171167  0.59024400  0.10297421  1.0
  Hf  Hf83  1  0.11171167  0.92357733  0.10297421  1.0
  Hf  Hf84  1  0.44504500  0.25691067  0.10297421  1.0
  Hf  Hf85  1  0.44504500  0.59024400  0.10297421  1.0
  Hf  Hf86  1  0.44504500  0.92357733  0.10297421  1.0
  Hf  Hf87  1  0.77837833  0.25691067  0.10297421  1.0
  Hf  Hf88  1  0.77837833  0.59024400  0.10297421  1.0
  Hf  Hf89  1  0.77837833  0.92357733  0.10297421  1.0
  Hf  Hf90  1  0.22162167  0.07642267  0.11280721  1.0
  Hf  Hf91  1  0.22162167  0.40975600  0.11280721  1.0
  Hf  Hf92  1  0.22162167  0.74308933  0.11280721  1.0
  Hf  Hf93  1  0.55495500  0.07642267  0.11280721  1.0
  Hf  Hf94  1  0.55495500  0.40975600  0.11280721  1.0
  Hf  Hf95  1  0.55495500  0.74308933  0.11280721  1.0
  Hf  Hf96  1  0.88828833  0.07642267  0.11280721  1.0
  Hf  Hf97  1  0.88828833  0.40975600  0.11280721  1.0
  Hf  Hf98  1  0.88828833  0.74308933  0.11280721  1.0
  Ni  Ni99  1  0.00000000  0.16666667  0.14955737  1.0
  Ni  Ni100  1  0.00000000  0.50000000  0.14955737  1.0
  Ni  Ni101  1  0.00000000  0.83333333  0.14955737  1.0
  Ni  Ni102  1  0.33333333  0.16666667  0.14955737  1.0
  Ni  Ni103  1  0.33333333  0.50000000  0.14955738  1.0
  Ni  Ni104  1  0.33333333  0.83333333  0.14955738  1.0
  Ni  Ni105  1  0.66666667  0.16666667  0.14955737  1.0
  Ni  Ni106  1  0.66666667  0.50000000  0.14955737  1.0
  Ni  Ni107  1  0.66666667  0.83333333  0.14955738  1.0
  Ni  Ni108  1  0.16666667  0.16666667  0.14955737  1.0
  Ni  Ni109  1  0.16666667  0.50000000  0.14955737  1.0
  Ni  Ni110  1  0.16666667  0.83333333  0.14955738  1.0
  Ni  Ni111  1  0.50000000  0.16666667  0.14955737  1.0
  Ni  Ni112  1  0.50000000  0.50000000  0.14955737  1.0
  Ni  Ni113  1  0.50000000  0.83333333  0.14955738  1.0
  Ni  Ni114  1  0.83333333  0.16666667  0.14955737  1.0
  Ni  Ni115  1  0.83333333  0.50000000  0.14955738  1.0
  Ni  Ni116  1  0.83333333  0.83333333  0.14955737  1.0
  Ni  Ni117  1  0.31595500  0.28159667  0.10044262  1.0
  Ni  Ni118  1  0.31595500  0.61493000  0.10044263  1.0
  Ni  Ni119  1  0.31595500  0.94826333  0.10044262  1.0
  Ni  Ni120  1  0.64928833  0.28159667  0.10044263  1.0
  Ni  Ni121  1  0.64928833  0.61493000  0.10044263  1.0
  Ni  Ni122  1  0.64928833  0.94826333  0.10044263  1.0
  Ni  Ni123  1  0.98262167  0.28159667  0.10044263  1.0
  Ni  Ni124  1  0.98262167  0.61493000  0.10044263  1.0
  Ni  Ni125  1  0.98262167  0.94826333  0.10044263  1.0
  Ni  Ni126  1  0.01737833  0.05173667  0.11533879  1.0
  Ni  Ni127  1  0.01737833  0.38507000  0.11533879  1.0
  Ni  Ni128  1  0.01737833  0.71840333  0.11533879  1.0
  Ni  Ni129  1  0.35071167  0.05173667  0.11533879  1.0
  Ni  Ni130  1  0.35071167  0.38507000  0.11533879  1.0
  Ni  Ni131  1  0.35071167  0.71840333  0.11533879  1.0
  Ni  Ni132  1  0.68404500  0.05173667  0.11533879  1.0
  Ni  Ni133  1  0.68404500  0.38507000  0.11533879  1.0
  Ni  Ni134  1  0.68404500  0.71840333  0.11533879  1.0
  Ni  Ni135  1  0.12734400  0.05173667  0.11533879  1.0
  Ni  Ni136  1  0.12734400  0.38507000  0.11533879  1.0
  Ni  Ni137  1  0.12734400  0.71840333  0.11533879  1.0
  Ni  Ni138  1  0.46067733  0.05173667  0.11533879  1.0
  Ni  Ni139  1  0.46067733  0.38507000  0.11533879  1.0
  Ni  Ni140  1  0.46067733  0.71840333  0.11533879  1.0
  Ni  Ni141  1  0.79401067  0.05173667  0.11533879  1.0
  Ni  Ni142  1  0.79401067  0.38507000  0.11533879  1.0
  Ni  Ni143  1  0.79401067  0.71840333  0.11533879  1.0
  Ni  Ni144  1  0.20598933  0.28159667  0.10044263  1.0
  Ni  Ni145  1  0.20598933  0.61493000  0.10044263  1.0
  Ni  Ni146  1  0.20598933  0.94826333  0.10044263  1.0
  Ni  Ni147  1  0.53932267  0.28159667  0.10044263  1.0
  Ni  Ni148  1  0.53932267  0.61493000  0.10044263  1.0
  Ni  Ni149  1  0.53932267  0.94826333  0.10044262  1.0
  Ni  Ni150  1  0.87265600  0.28159667  0.10044263  1.0
  Ni  Ni151  1  0.87265600  0.61493000  0.10044263  1.0
  Ni  Ni152  1  0.87265600  0.94826333  0.10044262  1.0
  Ni  Ni153  1  0.33333333  0.16666667  0.10789071  1.0
  Ni  Ni154  1  0.33333333  0.50000000  0.10789071  1.0
  Ni  Ni155  1  0.33333333  0.83333333  0.10789071  1.0
  Ni  Ni156  1  0.66666667  0.16666667  0.10789071  1.0
  Ni  Ni157  1  0.66666667  0.50000000  0.10789071  1.0
  Ni  Ni158  1  0.66666667  0.83333333  0.10789071  1.0
  Ni  Ni159  1  1.00000000  0.16666667  0.10789071  1.0
  Ni  Ni160  1  1.00000000  0.50000000  0.10789071  1.0
  Ni  Ni161  1  1.00000000  0.83333333  0.10789071  1.0
  Hf  Hf162  1  0.11171167  0.25691067  0.18630754  1.0
  Hf  Hf163  1  0.11171167  0.59024400  0.18630754  1.0
  Hf  Hf164  1  0.11171167  0.92357733  0.18630754  1.0
  Hf  Hf165  1  0.44504500  0.25691067  0.18630754  1.0
  Hf  Hf166  1  0.44504500  0.59024400  0.18630754  1.0
  Hf  Hf167  1  0.44504500  0.92357733  0.18630754  1.0
  Hf  Hf168  1  0.77837833  0.25691067  0.18630754  1.0
  Hf  Hf169  1  0.77837833  0.59024400  0.18630754  1.0
  Hf  Hf170  1  0.77837833  0.92357733  0.18630754  1.0
  Hf  Hf171  1  0.22162167  0.07642267  0.19614054  1.0
  Hf  Hf172  1  0.22162167  0.40975600  0.19614054  1.0
  Hf  Hf173  1  0.22162167  0.74308933  0.19614054  1.0
  Hf  Hf174  1  0.55495500  0.07642267  0.19614054  1.0
  Hf  Hf175  1  0.55495500  0.40975600  0.19614054  1.0
  Hf  Hf176  1  0.55495500  0.74308933  0.19614054  1.0
  Hf  Hf177  1  0.88828833  0.07642267  0.19614054  1.0
  Hf  Hf178  1  0.88828833  0.40975600  0.19614054  1.0
  Hf  Hf179  1  0.88828833  0.74308933  0.19614054  1.0
  Ni  Ni180  1  0.00000000  0.16666667  0.23289071  1.0
  Ni  Ni181  1  0.00000000  0.50000000  0.23289071  1.0
  Ni  Ni182  1  0.00000000  0.83333333  0.23289071  1.0
  Ni  Ni183  1  0.33333333  0.16666667  0.23289071  1.0
  Ni  Ni184  1  0.33333333  0.50000000  0.23289071  1.0
  Ni  Ni185  1  0.33333333  0.83333333  0.23289071  1.0
  Ni  Ni186  1  0.66666667  0.16666667  0.23289071  1.0
  Ni  Ni187  1  0.66666667  0.50000000  0.23289071  1.0
  Ni  Ni188  1  0.66666667  0.83333333  0.23289071  1.0
  Ni  Ni189  1  0.16666667  0.16666667  0.23289071  1.0
  Ni  Ni190  1  0.16666667  0.50000000  0.23289071  1.0
  Ni  Ni191  1  0.16666667  0.83333333  0.23289071  1.0
  Ni  Ni192  1  0.50000000  0.16666667  0.23289071  1.0
  Ni  Ni193  1  0.50000000  0.50000000  0.23289071  1.0
  Ni  Ni194  1  0.50000000  0.83333333  0.23289071  1.0
  Ni  Ni195  1  0.83333333  0.16666667  0.23289071  1.0
  Ni  Ni196  1  0.83333333  0.50000000  0.23289071  1.0
  Ni  Ni197  1  0.83333333  0.83333333  0.23289071  1.0
  Ni  Ni198  1  0.31595500  0.28159667  0.18377596  1.0
  Ni  Ni199  1  0.31595500  0.61493000  0.18377596  1.0
  Ni  Ni200  1  0.31595500  0.94826333  0.18377596  1.0
  Ni  Ni201  1  0.64928833  0.28159667  0.18377596  1.0
  Ni  Ni202  1  0.64928833  0.61493000  0.18377596  1.0
  Ni  Ni203  1  0.64928833  0.94826333  0.18377596  1.0
  Ni  Ni204  1  0.98262167  0.28159667  0.18377596  1.0
  Ni  Ni205  1  0.98262167  0.61493000  0.18377596  1.0
  Ni  Ni206  1  0.98262167  0.94826333  0.18377596  1.0
  Ni  Ni207  1  0.01737833  0.05173667  0.19867213  1.0
  Ni  Ni208  1  0.01737833  0.38507000  0.19867213  1.0
  Ni  Ni209  1  0.01737833  0.71840333  0.19867213  1.0
  Ni  Ni210  1  0.35071167  0.05173667  0.19867213  1.0
  Ni  Ni211  1  0.35071167  0.38507000  0.19867213  1.0
  Ni  Ni212  1  0.35071167  0.71840333  0.19867212  1.0
  Ni  Ni213  1  0.68404500  0.05173667  0.19867212  1.0
  Ni  Ni214  1  0.68404500  0.38507000  0.19867212  1.0
  Ni  Ni215  1  0.68404500  0.71840333  0.19867213  1.0
  Ni  Ni216  1  0.12734400  0.05173667  0.19867213  1.0
  Ni  Ni217  1  0.12734400  0.38507000  0.19867213  1.0
  Ni  Ni218  1  0.12734400  0.71840333  0.19867213  1.0
  Ni  Ni219  1  0.46067733  0.05173667  0.19867213  1.0
  Ni  Ni220  1  0.46067733  0.38507000  0.19867213  1.0
  Ni  Ni221  1  0.46067733  0.71840333  0.19867213  1.0
  Ni  Ni222  1  0.79401067  0.05173667  0.19867213  1.0
  Ni  Ni223  1  0.79401067  0.38507000  0.19867213  1.0
  Ni  Ni224  1  0.79401067  0.71840333  0.19867213  1.0
  Ni  Ni225  1  0.20598933  0.28159667  0.18377596  1.0
  Ni  Ni226  1  0.20598933  0.61493000  0.18377596  1.0
  Ni  Ni227  1  0.20598933  0.94826333  0.18377596  1.0
  Ni  Ni228  1  0.53932267  0.28159667  0.18377596  1.0
  Ni  Ni229  1  0.53932267  0.61493000  0.18377596  1.0
  Ni  Ni230  1  0.53932267  0.94826333  0.18377596  1.0
  Ni  Ni231  1  0.87265600  0.28159667  0.18377596  1.0
  Ni  Ni232  1  0.87265600  0.61493000  0.18377596  1.0
  Ni  Ni233  1  0.87265600  0.94826333  0.18377596  1.0
  Ni  Ni234  1  0.33333333  0.16666667  0.19122404  1.0
  Ni  Ni235  1  0.33333333  0.50000000  0.19122404  1.0
  Ni  Ni236  1  0.33333333  0.83333333  0.19122404  1.0
  Ni  Ni237  1  0.66666667  0.16666667  0.19122404  1.0
  Ni  Ni238  1  0.66666667  0.50000000  0.19122404  1.0
  Ni  Ni239  1  0.66666667  0.83333333  0.19122404  1.0
  Ni  Ni240  1  1.00000000  0.16666667  0.19122404  1.0
  Ni  Ni241  1  1.00000000  0.50000000  0.19122404  1.0
  Ni  Ni242  1  1.00000000  0.83333333  0.19122404  1.0
  Hf  Hf243  1  0.11171167  0.25691067  0.26964088  1.0
  Hf  Hf244  1  0.11171167  0.59024400  0.26964088  1.0
  Hf  Hf245  1  0.11171167  0.92357733  0.26964088  1.0
  Hf  Hf246  1  0.44504500  0.25691067  0.26964088  1.0
  Hf  Hf247  1  0.44504500  0.59024400  0.26964088  1.0
  Hf  Hf248  1  0.44504500  0.92357733  0.26964088  1.0
  Hf  Hf249  1  0.77837833  0.25691067  0.26964088  1.0
  Hf  Hf250  1  0.77837833  0.59024400  0.26964088  1.0
  Hf  Hf251  1  0.77837833  0.92357733  0.26964088  1.0
  Hf  Hf252  1  0.22162167  0.07642267  0.27947387  1.0
  Hf  Hf253  1  0.22162167  0.40975600  0.27947387  1.0
  Hf  Hf254  1  0.22162167  0.74308933  0.27947387  1.0
  Hf  Hf255  1  0.55495500  0.07642267  0.27947387  1.0
  Hf  Hf256  1  0.55495500  0.40975600  0.27947387  1.0
  Hf  Hf257  1  0.55495500  0.74308933  0.27947387  1.0
  Hf  Hf258  1  0.88828833  0.07642267  0.27947387  1.0
  Hf  Hf259  1  0.88828833  0.40975600  0.27947387  1.0
  Hf  Hf260  1  0.88828833  0.74308933  0.27947387  1.0
  Ni  Ni261  1  0.00000000  0.16666667  0.31622404  1.0
  Ni  Ni262  1  0.00000000  0.50000000  0.31622404  1.0
  Ni  Ni263  1  0.00000000  0.83333333  0.31622404  1.0
  Ni  Ni264  1  0.33333333  0.16666667  0.31622404  1.0
  Ni  Ni265  1  0.33333333  0.50000000  0.31622404  1.0
  Ni  Ni266  1  0.33333333  0.83333333  0.31622404  1.0
  Ni  Ni267  1  0.66666667  0.16666667  0.31622404  1.0
  Ni  Ni268  1  0.66666667  0.50000000  0.31622404  1.0
  Ni  Ni269  1  0.66666667  0.83333333  0.31622404  1.0
  Ni  Ni270  1  0.16666667  0.16666667  0.31622404  1.0
  Ni  Ni271  1  0.16666667  0.50000000  0.31622404  1.0
  Ni  Ni272  1  0.16666667  0.83333333  0.31622404  1.0
  Ni  Ni273  1  0.50000000  0.16666667  0.31622404  1.0
  Ni  Ni274  1  0.50000000  0.50000000  0.31622404  1.0
  Ni  Ni275  1  0.50000000  0.83333333  0.31622404  1.0
  Ni  Ni276  1  0.83333333  0.16666667  0.31622404  1.0
  Ni  Ni277  1  0.83333333  0.50000000  0.31622404  1.0
  Ni  Ni278  1  0.83333333  0.83333333  0.31622404  1.0
  Ni  Ni279  1  0.31595500  0.28159667  0.26710929  1.0
  Ni  Ni280  1  0.31595500  0.61493000  0.26710929  1.0
  Ni  Ni281  1  0.31595500  0.94826333  0.26710929  1.0
  Ni  Ni282  1  0.64928833  0.28159667  0.26710929  1.0
  Ni  Ni283  1  0.64928833  0.61493000  0.26710929  1.0
  Ni  Ni284  1  0.64928833  0.94826333  0.26710929  1.0
  Ni  Ni285  1  0.98262167  0.28159667  0.26710929  1.0
  Ni  Ni286  1  0.98262167  0.61493000  0.26710929  1.0
  Ni  Ni287  1  0.98262167  0.94826333  0.26710929  1.0
  Ni  Ni288  1  0.01737833  0.05173667  0.28200546  1.0
  Ni  Ni289  1  0.01737833  0.38507000  0.28200546  1.0
  Ni  Ni290  1  0.01737833  0.71840333  0.28200546  1.0
  Ni  Ni291  1  0.35071167  0.05173667  0.28200546  1.0
  Ni  Ni292  1  0.35071167  0.38507000  0.28200546  1.0
  Ni  Ni293  1  0.35071167  0.71840333  0.28200546  1.0
  Ni  Ni294  1  0.68404500  0.05173667  0.28200546  1.0
  Ni  Ni295  1  0.68404500  0.38507000  0.28200546  1.0
  Ni  Ni296  1  0.68404500  0.71840333  0.28200546  1.0
  Ni  Ni297  1  0.12734400  0.05173667  0.28200546  1.0
  Ni  Ni298  1  0.12734400  0.38507000  0.28200546  1.0
  Ni  Ni299  1  0.12734400  0.71840333  0.28200546  1.0
  Ni  Ni300  1  0.46067733  0.05173667  0.28200546  1.0
  Ni  Ni301  1  0.46067733  0.38507000  0.28200546  1.0
  Ni  Ni302  1  0.46067733  0.71840333  0.28200546  1.0
  Ni  Ni303  1  0.79401067  0.05173667  0.28200546  1.0
  Ni  Ni304  1  0.79401067  0.38507000  0.28200546  1.0
  Ni  Ni305  1  0.79401067  0.71840333  0.28200546  1.0
  Ni  Ni306  1  0.20598933  0.28159667  0.26710929  1.0
  Ni  Ni307  1  0.20598933  0.61493000  0.26710929  1.0
  Ni  Ni308  1  0.20598933  0.94826333  0.26710929  1.0
  Ni  Ni309  1  0.53932267  0.28159667  0.26710929  1.0
  Ni  Ni310  1  0.53932267  0.61493000  0.26710929  1.0
  Ni  Ni311  1  0.53932267  0.94826333  0.26710929  1.0
  Ni  Ni312  1  0.87265600  0.28159667  0.26710929  1.0
  Ni  Ni313  1  0.87265600  0.61493000  0.26710929  1.0
  Ni  Ni314  1  0.87265600  0.94826333  0.26710929  1.0
  Ni  Ni315  1  0.33333333  0.16666667  0.27455737  1.0
  Ni  Ni316  1  0.33333333  0.50000000  0.27455737  1.0
  Ni  Ni317  1  0.33333333  0.83333333  0.27455737  1.0
  Ni  Ni318  1  0.66666667  0.16666667  0.27455737  1.0
  Ni  Ni319  1  0.66666667  0.50000000  0.27455737  1.0
  Ni  Ni320  1  0.66666667  0.83333333  0.27455737  1.0
  Ni  Ni321  1  1.00000000  0.16666667  0.27455737  1.0
  Ni  Ni322  1  1.00000000  0.50000000  0.27455737  1.0
  Ni  Ni323  1  1.00000000  0.83333333  0.27455737  1.0
  Hf  Hf324  1  0.11171167  0.25691067  0.35297421  1.0
  Hf  Hf325  1  0.11171167  0.59024400  0.35297421  1.0
  Hf  Hf326  1  0.11171167  0.92357733  0.35297421  1.0
  Hf  Hf327  1  0.44504500  0.25691067  0.35297421  1.0
  Hf  Hf328  1  0.44504500  0.59024400  0.35297421  1.0
  Hf  Hf329  1  0.44504500  0.92357733  0.35297421  1.0
  Hf  Hf330  1  0.77837833  0.25691067  0.35297421  1.0
  Hf  Hf331  1  0.77837833  0.59024400  0.35297421  1.0
  Hf  Hf332  1  0.77837833  0.92357733  0.35297421  1.0
  Hf  Hf333  1  0.22162167  0.07642267  0.36280721  1.0
  Hf  Hf334  1  0.22162167  0.40975600  0.36280721  1.0
  Hf  Hf335  1  0.22162167  0.74308933  0.36280721  1.0
  Hf  Hf336  1  0.55495500  0.07642267  0.36280721  1.0
  Hf  Hf337  1  0.55495500  0.40975600  0.36280721  1.0
  Hf  Hf338  1  0.55495500  0.74308933  0.36280721  1.0
  Hf  Hf339  1  0.88828833  0.07642267  0.36280721  1.0
  Hf  Hf340  1  0.88828833  0.40975600  0.36280721  1.0
  Hf  Hf341  1  0.88828833  0.74308933  0.36280721  1.0
  Ni  Ni342  1  0.00000000  0.16666667  0.39955737  1.0
  Ni  Ni343  1  0.00000000  0.50000000  0.39955737  1.0
  Ni  Ni344  1  0.00000000  0.83333333  0.39955737  1.0
  Ni  Ni345  1  0.33333333  0.16666667  0.39955737  1.0
  Ni  Ni346  1  0.33333333  0.50000000  0.39955737  1.0
  Ni  Ni347  1  0.33333333  0.83333333  0.39955737  1.0
  Ni  Ni348  1  0.66666667  0.16666667  0.39955737  1.0
  Ni  Ni349  1  0.66666667  0.50000000  0.39955737  1.0
  Ni  Ni350  1  0.66666667  0.83333333  0.39955737  1.0
  Ni  Ni351  1  0.16666667  0.16666667  0.39955737  1.0
  Ni  Ni352  1  0.16666667  0.50000000  0.39955738  1.0
  Ni  Ni353  1  0.16666667  0.83333333  0.39955738  1.0
  Ni  Ni354  1  0.50000000  0.16666667  0.39955738  1.0
  Ni  Ni355  1  0.50000000  0.50000000  0.39955738  1.0
  Ni  Ni356  1  0.50000000  0.83333333  0.39955738  1.0
  Ni  Ni357  1  0.83333333  0.16666667  0.39955737  1.0
  Ni  Ni358  1  0.83333333  0.50000000  0.39955738  1.0
  Ni  Ni359  1  0.83333333  0.83333333  0.39955738  1.0
  Ni  Ni360  1  0.31595500  0.28159667  0.35044263  1.0
  Ni  Ni361  1  0.31595500  0.61493000  0.35044263  1.0
  Ni  Ni362  1  0.31595500  0.94826333  0.35044263  1.0
  Ni  Ni363  1  0.64928833  0.28159667  0.35044262  1.0
  Ni  Ni364  1  0.64928833  0.61493000  0.35044263  1.0
  Ni  Ni365  1  0.64928833  0.94826333  0.35044262  1.0
  Ni  Ni366  1  0.98262167  0.28159667  0.35044263  1.0
  Ni  Ni367  1  0.98262167  0.61493000  0.35044263  1.0
  Ni  Ni368  1  0.98262167  0.94826333  0.35044263  1.0
  Ni  Ni369  1  0.01737833  0.05173667  0.36533879  1.0
  Ni  Ni370  1  0.01737833  0.38507000  0.36533879  1.0
  Ni  Ni371  1  0.01737833  0.71840333  0.36533879  1.0
  Ni  Ni372  1  0.35071167  0.05173667  0.36533879  1.0
  Ni  Ni373  1  0.35071167  0.38507000  0.36533879  1.0
  Ni  Ni374  1  0.35071167  0.71840333  0.36533879  1.0
  Ni  Ni375  1  0.68404500  0.05173667  0.36533879  1.0
  Ni  Ni376  1  0.68404500  0.38507000  0.36533879  1.0
  Ni  Ni377  1  0.68404500  0.71840333  0.36533879  1.0
  Ni  Ni378  1  0.12734400  0.05173667  0.36533879  1.0
  Ni  Ni379  1  0.12734400  0.38507000  0.36533879  1.0
  Ni  Ni380  1  0.12734400  0.71840333  0.36533879  1.0
  Ni  Ni381  1  0.46067733  0.05173667  0.36533879  1.0
  Ni  Ni382  1  0.46067733  0.38507000  0.36533879  1.0
  Ni  Ni383  1  0.46067733  0.71840333  0.36533879  1.0
  Ni  Ni384  1  0.79401067  0.05173667  0.36533879  1.0
  Ni  Ni385  1  0.79401067  0.38507000  0.36533879  1.0
  Ni  Ni386  1  0.79401067  0.71840333  0.36533879  1.0
  Ni  Ni387  1  0.20598933  0.28159667  0.35044263  1.0
  Ni  Ni388  1  0.20598933  0.61493000  0.35044262  1.0
  Ni  Ni389  1  0.20598933  0.94826333  0.35044263  1.0
  Ni  Ni390  1  0.53932267  0.28159667  0.35044263  1.0
  Ni  Ni391  1  0.53932267  0.61493000  0.35044262  1.0
  Ni  Ni392  1  0.53932267  0.94826333  0.35044262  1.0
  Ni  Ni393  1  0.87265600  0.28159667  0.35044262  1.0
  Ni  Ni394  1  0.87265600  0.61493000  0.35044263  1.0
  Ni  Ni395  1  0.87265600  0.94826333  0.35044262  1.0
  Ni  Ni396  1  0.33333333  0.16666667  0.35789071  1.0
  Ni  Ni397  1  0.33333333  0.50000000  0.35789071  1.0
  Ni  Ni398  1  0.33333333  0.83333333  0.35789071  1.0
  Ni  Ni399  1  0.66666667  0.16666667  0.35789071  1.0
  Ni  Ni400  1  0.66666667  0.50000000  0.35789071  1.0
  Ni  Ni401  1  0.66666667  0.83333333  0.35789071  1.0
  Ni  Ni402  1  1.00000000  0.16666667  0.35789071  1.0
  Ni  Ni403  1  1.00000000  0.50000000  0.35789071  1.0
  Ni  Ni404  1  1.00000000  0.83333333  0.35789071  1.0
