# generated using pymatgen
data_Hf2Ni7
_symmetry_space_group_name_H-M   'P 1'
_cell_length_a   20.02620072
_cell_length_b   24.26108721
_cell_length_c   32.14841297
_cell_angle_alpha   95.23213851
_cell_angle_beta   90.77669843
_cell_angle_gamma   112.13912508
_symmetry_Int_Tables_number   1
_chemical_formula_structural   Hf2Ni7
_chemical_formula_sum   'Hf108 Ni378'
_cell_volume   14388.20019274
_cell_formula_units_Z   54
loop_
 _symmetry_equiv_pos_site_id
 _symmetry_equiv_pos_as_xyz
  1  'x, y, z'
loop_
 _atom_site_type_symbol
 _atom_site_label
 _atom_site_symmetry_multiplicity
 _atom_site_fract_x
 _atom_site_fract_y
 _atom_site_fract_z
 _atom_site_occupancy
  Hf  Hf0  1  0.24450996  0.11081083  0.03720211  1.0
  Hf  Hf1  1  0.24450996  0.44414417  0.03720211  1.0
  Hf  Hf2  1  0.24450996  0.77747750  0.03720211  1.0
  Hf  Hf3  1  0.57784330  0.11081083  0.03720211  1.0
  Hf  Hf4  1  0.57784330  0.44414417  0.03720211  1.0
  Hf  Hf5  1  0.57784330  0.77747750  0.03720211  1.0
  Hf  Hf6  1  0.91117663  0.11081083  0.03720211  1.0
  Hf  Hf7  1  0.91117663  0.44414417  0.03720211  1.0
  Hf  Hf8  1  0.91117663  0.77747750  0.03720211  1.0
  Hf  Hf9  1  0.22070044  0.27747750  0.10863068  1.0
  Hf  Hf10  1  0.22070044  0.61081083  0.10863068  1.0
  Hf  Hf11  1  0.22070044  0.94414417  0.10863068  1.0
  Hf  Hf12  1  0.55403377  0.27747750  0.10863068  1.0
  Hf  Hf13  1  0.55403377  0.61081083  0.10863068  1.0
  Hf  Hf14  1  0.55403377  0.94414417  0.10863068  1.0
  Hf  Hf15  1  0.88736711  0.27747750  0.10863068  1.0
  Hf  Hf16  1  0.88736711  0.61081083  0.10863068  1.0
  Hf  Hf17  1  0.88736711  0.94414417  0.10863068  1.0
  Hf  Hf18  1  0.04806315  0.22252250  0.08507854  1.0
  Hf  Hf19  1  0.04806315  0.55585583  0.08507854  1.0
  Hf  Hf20  1  0.04806315  0.88918917  0.08507854  1.0
  Hf  Hf21  1  0.38139649  0.22252250  0.08507854  1.0
  Hf  Hf22  1  0.38139649  0.55585583  0.08507854  1.0
  Hf  Hf23  1  0.38139649  0.88918917  0.08507854  1.0
  Hf  Hf24  1  0.71472982  0.22252250  0.08507854  1.0
  Hf  Hf25  1  0.71472982  0.55585583  0.08507854  1.0
  Hf  Hf26  1  0.71472982  0.88918917  0.08507854  1.0
  Hf  Hf27  1  0.07187268  0.05585583  0.01364996  1.0
  Hf  Hf28  1  0.07187268  0.38918917  0.01364996  1.0
  Hf  Hf29  1  0.07187268  0.72252250  0.01364996  1.0
  Hf  Hf30  1  0.40520601  0.05585583  0.01364996  1.0
  Hf  Hf31  1  0.40520601  0.38918917  0.01364996  1.0
  Hf  Hf32  1  0.40520601  0.72252250  0.01364996  1.0
  Hf  Hf33  1  0.73853935  0.05585583  0.01364996  1.0
  Hf  Hf34  1  0.73853935  0.38918917  0.01364996  1.0
  Hf  Hf35  1  0.73853935  0.72252250  0.01364996  1.0
  Hf  Hf36  1  0.19689092  0.11081083  0.18005925  1.0
  Hf  Hf37  1  0.19689092  0.44414417  0.18005925  1.0
  Hf  Hf38  1  0.19689092  0.77747750  0.18005925  1.0
  Hf  Hf39  1  0.53022425  0.11081083  0.18005925  1.0
  Hf  Hf40  1  0.53022425  0.44414417  0.18005925  1.0
  Hf  Hf41  1  0.53022425  0.77747750  0.18005925  1.0
  Hf  Hf42  1  0.86355758  0.11081083  0.18005925  1.0
  Hf  Hf43  1  0.86355758  0.44414417  0.18005925  1.0
  Hf  Hf44  1  0.86355758  0.77747750  0.18005925  1.0
  Hf  Hf45  1  0.17308139  0.27747750  0.25148782  1.0
  Hf  Hf46  1  0.17308139  0.61081083  0.25148782  1.0
  Hf  Hf47  1  0.17308139  0.94414417  0.25148782  1.0
  Hf  Hf48  1  0.50641473  0.27747750  0.25148782  1.0
  Hf  Hf49  1  0.50641473  0.61081083  0.25148782  1.0
  Hf  Hf50  1  0.50641473  0.94414417  0.25148782  1.0
  Hf  Hf51  1  0.83974806  0.27747750  0.25148782  1.0
  Hf  Hf52  1  0.83974806  0.61081083  0.25148782  1.0
  Hf  Hf53  1  0.83974806  0.94414417  0.25148782  1.0
  Hf  Hf54  1  0.00044411  0.22252250  0.22793568  1.0
  Hf  Hf55  1  0.00044411  0.55585583  0.22793568  1.0
  Hf  Hf56  1  0.00044411  0.88918917  0.22793568  1.0
  Hf  Hf57  1  0.33377744  0.22252250  0.22793568  1.0
  Hf  Hf58  1  0.33377744  0.55585583  0.22793568  1.0
  Hf  Hf59  1  0.33377744  0.88918917  0.22793568  1.0
  Hf  Hf60  1  0.66711077  0.22252250  0.22793568  1.0
  Hf  Hf61  1  0.66711077  0.55585583  0.22793568  1.0
  Hf  Hf62  1  0.66711077  0.88918917  0.22793568  1.0
  Hf  Hf63  1  0.02425363  0.05585583  0.15650711  1.0
  Hf  Hf64  1  0.02425363  0.38918917  0.15650711  1.0
  Hf  Hf65  1  0.02425363  0.72252250  0.15650711  1.0
  Hf  Hf66  1  0.35758696  0.05585583  0.15650711  1.0
  Hf  Hf67  1  0.35758696  0.38918917  0.15650711  1.0
  Hf  Hf68  1  0.35758696  0.72252250  0.15650711  1.0
  Hf  Hf69  1  0.69092030  0.05585583  0.15650711  1.0
  Hf  Hf70  1  0.69092030  0.38918917  0.15650711  1.0
  Hf  Hf71  1  0.69092030  0.72252250  0.15650711  1.0
  Hf  Hf72  1  0.14927187  0.11081083  0.32291639  1.0
  Hf  Hf73  1  0.14927187  0.44414417  0.32291639  1.0
  Hf  Hf74  1  0.14927187  0.77747750  0.32291639  1.0
  Hf  Hf75  1  0.48260520  0.11081083  0.32291639  1.0
  Hf  Hf76  1  0.48260520  0.44414417  0.32291639  1.0
  Hf  Hf77  1  0.48260520  0.77747750  0.32291639  1.0
  Hf  Hf78  1  0.81593854  0.11081083  0.32291639  1.0
  Hf  Hf79  1  0.81593854  0.44414417  0.32291639  1.0
  Hf  Hf80  1  0.81593854  0.77747750  0.32291639  1.0
  Hf  Hf81  1  0.12546235  0.27747750  0.39434496  1.0
  Hf  Hf82  1  0.12546235  0.61081083  0.39434496  1.0
  Hf  Hf83  1  0.12546235  0.94414417  0.39434496  1.0
  Hf  Hf84  1  0.45879568  0.27747750  0.39434496  1.0
  Hf  Hf85  1  0.45879568  0.61081083  0.39434496  1.0
  Hf  Hf86  1  0.45879568  0.94414417  0.39434496  1.0
  Hf  Hf87  1  0.79212901  0.27747750  0.39434496  1.0
  Hf  Hf88  1  0.79212901  0.61081083  0.39434496  1.0
  Hf  Hf89  1  0.79212901  0.94414417  0.39434496  1.0
  Hf  Hf90  1  0.28615839  0.22252250  0.37079282  1.0
  Hf  Hf91  1  0.28615839  0.55585583  0.37079282  1.0
  Hf  Hf92  1  0.28615839  0.88918917  0.37079282  1.0
  Hf  Hf93  1  0.61949173  0.22252250  0.37079282  1.0
  Hf  Hf94  1  0.61949173  0.55585583  0.37079282  1.0
  Hf  Hf95  1  0.61949173  0.88918917  0.37079282  1.0
  Hf  Hf96  1  0.95282506  0.22252250  0.37079282  1.0
  Hf  Hf97  1  0.95282506  0.55585583  0.37079282  1.0
  Hf  Hf98  1  0.95282506  0.88918917  0.37079282  1.0
  Hf  Hf99  1  0.30996792  0.05585583  0.29936425  1.0
  Hf  Hf100  1  0.30996792  0.38918917  0.29936425  1.0
  Hf  Hf101  1  0.30996792  0.72252250  0.29936425  1.0
  Hf  Hf102  1  0.64330125  0.05585583  0.29936425  1.0
  Hf  Hf103  1  0.64330125  0.38918917  0.29936425  1.0
  Hf  Hf104  1  0.64330125  0.72252250  0.29936425  1.0
  Hf  Hf105  1  0.97663458  0.05585583  0.29936425  1.0
  Hf  Hf106  1  0.97663458  0.38918917  0.29936425  1.0
  Hf  Hf107  1  0.97663458  0.72252250  0.29936425  1.0
  Ni  Ni108  1  0.15819132  0.25000000  0.02542604  1.0
  Ni  Ni109  1  0.15819132  0.58333333  0.02542604  1.0
  Ni  Ni110  1  0.15819132  0.91666667  0.02542604  1.0
  Ni  Ni111  1  0.49152465  0.25000000  0.02542604  1.0
  Ni  Ni112  1  0.49152465  0.58333333  0.02542604  1.0
  Ni  Ni113  1  0.49152465  0.91666667  0.02542604  1.0
  Ni  Ni114  1  0.82485799  0.25000000  0.02542604  1.0
  Ni  Ni115  1  0.82485799  0.58333333  0.02542604  1.0
  Ni  Ni116  1  0.82485799  0.91666667  0.02542604  1.0
  Ni  Ni117  1  0.13438180  0.08333333  0.09685461  1.0
  Ni  Ni118  1  0.13438180  0.41666667  0.09685461  1.0
  Ni  Ni119  1  0.13438180  0.75000000  0.09685461  1.0
  Ni  Ni120  1  0.46771513  0.08333333  0.09685461  1.0
  Ni  Ni121  1  0.46771513  0.41666667  0.09685461  1.0
  Ni  Ni122  1  0.46771513  0.75000000  0.09685461  1.0
  Ni  Ni123  1  0.80104846  0.08333333  0.09685461  1.0
  Ni  Ni124  1  0.80104846  0.41666667  0.09685461  1.0
  Ni  Ni125  1  0.80104846  0.75000000  0.09685461  1.0
  Ni  Ni126  1  0.14628656  0.00000000  0.06114032  1.0
  Ni  Ni127  1  0.14628656  0.33333333  0.06114032  1.0
  Ni  Ni128  1  0.14628656  0.66666667  0.06114032  1.0
  Ni  Ni129  1  0.47961989  0.00000000  0.06114032  1.0
  Ni  Ni130  1  0.47961989  0.33333333  0.06114032  1.0
  Ni  Ni131  1  0.47961989  0.66666667  0.06114032  1.0
  Ni  Ni132  1  0.81295323  0.00000000  0.06114032  1.0
  Ni  Ni133  1  0.81295323  0.33333333  0.06114032  1.0
  Ni  Ni134  1  0.81295323  0.66666667  0.06114032  1.0
  Ni  Ni135  1  0.12247704  0.16666667  0.13256889  1.0
  Ni  Ni136  1  0.12247704  0.50000000  0.13256889  1.0
  Ni  Ni137  1  0.12247704  0.83333333  0.13256889  1.0
  Ni  Ni138  1  0.45581037  0.16666667  0.13256889  1.0
  Ni  Ni139  1  0.45581037  0.50000000  0.13256889  1.0
  Ni  Ni140  1  0.45581037  0.83333333  0.13256889  1.0
  Ni  Ni141  1  0.78914370  0.16666667  0.13256889  1.0
  Ni  Ni142  1  0.78914370  0.50000000  0.13256889  1.0
  Ni  Ni143  1  0.78914370  0.83333333  0.13256889  1.0
  Ni  Ni144  1  0.24402042  0.06367200  0.11272875  1.0
  Ni  Ni145  1  0.24402042  0.39700533  0.11272875  1.0
  Ni  Ni146  1  0.24402042  0.73033867  0.11272875  1.0
  Ni  Ni147  1  0.57735375  0.06367200  0.11272875  1.0
  Ni  Ni148  1  0.57735375  0.39700533  0.11272875  1.0
  Ni  Ni149  1  0.57735375  0.73033867  0.11272875  1.0
  Ni  Ni150  1  0.91068708  0.06367200  0.11272875  1.0
  Ni  Ni151  1  0.91068708  0.39700533  0.11272875  1.0
  Ni  Ni152  1  0.91068708  0.73033867  0.11272875  1.0
  Ni  Ni153  1  0.26782994  0.23033867  0.04130018  1.0
  Ni  Ni154  1  0.26782994  0.56367200  0.04130018  1.0
  Ni  Ni155  1  0.26782994  0.89700533  0.04130018  1.0
  Ni  Ni156  1  0.60116327  0.23033867  0.04130018  1.0
  Ni  Ni157  1  0.60116327  0.56367200  0.04130018  1.0
  Ni  Ni158  1  0.60116327  0.89700533  0.04130018  1.0
  Ni  Ni159  1  0.93449661  0.23033867  0.04130018  1.0
  Ni  Ni160  1  0.93449661  0.56367200  0.04130018  1.0
  Ni  Ni161  1  0.93449661  0.89700533  0.04130018  1.0
  Ni  Ni162  1  0.04855270  0.26966133  0.00955189  1.0
  Ni  Ni163  1  0.04855270  0.60299467  0.00955189  1.0
  Ni  Ni164  1  0.04855270  0.93632800  0.00955189  1.0
  Ni  Ni165  1  0.38188604  0.26966133  0.00955189  1.0
  Ni  Ni166  1  0.38188604  0.60299467  0.00955189  1.0
  Ni  Ni167  1  0.38188604  0.93632800  0.00955189  1.0
  Ni  Ni168  1  0.71521937  0.26966133  0.00955189  1.0
  Ni  Ni169  1  0.71521937  0.60299467  0.00955189  1.0
  Ni  Ni170  1  0.71521937  0.93632800  0.00955189  1.0
  Ni  Ni171  1  0.02474318  0.10299467  0.08098046  1.0
  Ni  Ni172  1  0.02474318  0.43632800  0.08098046  1.0
  Ni  Ni173  1  0.02474318  0.76966133  0.08098046  1.0
  Ni  Ni174  1  0.35807651  0.10299467  0.08098046  1.0
  Ni  Ni175  1  0.35807651  0.43632800  0.08098046  1.0
  Ni  Ni176  1  0.35807651  0.76966133  0.08098046  1.0
  Ni  Ni177  1  0.69140985  0.10299467  0.08098046  1.0
  Ni  Ni178  1  0.69140985  0.43632800  0.08098046  1.0
  Ni  Ni179  1  0.69140985  0.76966133  0.08098046  1.0
  Ni  Ni180  1  0.02449773  0.32464417  0.08171682  1.0
  Ni  Ni181  1  0.02449773  0.65797750  0.08171682  1.0
  Ni  Ni182  1  0.02449773  0.99131083  0.08171682  1.0
  Ni  Ni183  1  0.35783106  0.32464417  0.08171682  1.0
  Ni  Ni184  1  0.35783106  0.65797750  0.08171682  1.0
  Ni  Ni185  1  0.35783106  0.99131083  0.08171682  1.0
  Ni  Ni186  1  0.69116439  0.32464417  0.08171682  1.0
  Ni  Ni187  1  0.69116439  0.65797750  0.08171682  1.0
  Ni  Ni188  1  0.69116439  0.99131083  0.08171682  1.0
  Ni  Ni189  1  0.04830725  0.15797750  0.01028825  1.0
  Ni  Ni190  1  0.04830725  0.49131083  0.01028825  1.0
  Ni  Ni191  1  0.04830725  0.82464417  0.01028825  1.0
  Ni  Ni192  1  0.38164058  0.15797750  0.01028825  1.0
  Ni  Ni193  1  0.38164058  0.49131083  0.01028825  1.0
  Ni  Ni194  1  0.38164058  0.82464417  0.01028825  1.0
  Ni  Ni195  1  0.71497392  0.15797750  0.01028825  1.0
  Ni  Ni196  1  0.71497392  0.49131083  0.01028825  1.0
  Ni  Ni197  1  0.71497392  0.82464417  0.01028825  1.0
  Ni  Ni198  1  0.26807539  0.00868917  0.04056382  1.0
  Ni  Ni199  1  0.26807539  0.34202250  0.04056382  1.0
  Ni  Ni200  1  0.26807539  0.67535583  0.04056382  1.0
  Ni  Ni201  1  0.60140873  0.00868917  0.04056382  1.0
  Ni  Ni202  1  0.60140873  0.34202250  0.04056382  1.0
  Ni  Ni203  1  0.60140873  0.67535583  0.04056382  1.0
  Ni  Ni204  1  0.93474206  0.00868917  0.04056382  1.0
  Ni  Ni205  1  0.93474206  0.34202250  0.04056382  1.0
  Ni  Ni206  1  0.93474206  0.67535583  0.04056382  1.0
  Ni  Ni207  1  0.24426587  0.17535583  0.11199239  1.0
  Ni  Ni208  1  0.24426587  0.50868917  0.11199239  1.0
  Ni  Ni209  1  0.24426587  0.84202250  0.11199239  1.0
  Ni  Ni210  1  0.57759920  0.17535583  0.11199239  1.0
  Ni  Ni211  1  0.57759920  0.50868917  0.11199239  1.0
  Ni  Ni212  1  0.57759920  0.84202250  0.11199239  1.0
  Ni  Ni213  1  0.91093254  0.17535583  0.11199239  1.0
  Ni  Ni214  1  0.91093254  0.50868917  0.11199239  1.0
  Ni  Ni215  1  0.91093254  0.84202250  0.11199239  1.0
  Ni  Ni216  1  0.12247704  0.00000000  0.13256889  1.0
  Ni  Ni217  1  0.12247704  0.33333333  0.13256889  1.0
  Ni  Ni218  1  0.12247704  0.66666667  0.13256889  1.0
  Ni  Ni219  1  0.45581037  0.00000000  0.13256889  1.0
  Ni  Ni220  1  0.45581037  0.33333333  0.13256889  1.0
  Ni  Ni221  1  0.45581037  0.66666667  0.13256889  1.0
  Ni  Ni222  1  0.78914370  0.00000000  0.13256889  1.0
  Ni  Ni223  1  0.78914370  0.33333333  0.13256889  1.0
  Ni  Ni224  1  0.78914370  0.66666667  0.13256889  1.0
  Ni  Ni225  1  0.14628656  0.16666667  0.06114032  1.0
  Ni  Ni226  1  0.14628656  0.50000000  0.06114032  1.0
  Ni  Ni227  1  0.14628656  0.83333333  0.06114032  1.0
  Ni  Ni228  1  0.47961989  0.16666667  0.06114032  1.0
  Ni  Ni229  1  0.47961989  0.50000000  0.06114032  1.0
  Ni  Ni230  1  0.47961989  0.83333333  0.06114032  1.0
  Ni  Ni231  1  0.81295323  0.16666667  0.06114032  1.0
  Ni  Ni232  1  0.81295323  0.50000000  0.06114032  1.0
  Ni  Ni233  1  0.81295323  0.83333333  0.06114032  1.0
  Ni  Ni234  1  0.11057227  0.25000000  0.16828318  1.0
  Ni  Ni235  1  0.11057227  0.58333333  0.16828318  1.0
  Ni  Ni236  1  0.11057227  0.91666667  0.16828318  1.0
  Ni  Ni237  1  0.44390561  0.25000000  0.16828318  1.0
  Ni  Ni238  1  0.44390561  0.58333333  0.16828318  1.0
  Ni  Ni239  1  0.44390561  0.91666667  0.16828318  1.0
  Ni  Ni240  1  0.77723894  0.25000000  0.16828318  1.0
  Ni  Ni241  1  0.77723894  0.58333333  0.16828318  1.0
  Ni  Ni242  1  0.77723894  0.91666667  0.16828318  1.0
  Ni  Ni243  1  0.08676275  0.08333333  0.23971175  1.0
  Ni  Ni244  1  0.08676275  0.41666667  0.23971175  1.0
  Ni  Ni245  1  0.08676275  0.75000000  0.23971175  1.0
  Ni  Ni246  1  0.42009608  0.08333333  0.23971175  1.0
  Ni  Ni247  1  0.42009608  0.41666667  0.23971175  1.0
  Ni  Ni248  1  0.42009608  0.75000000  0.23971175  1.0
  Ni  Ni249  1  0.75342942  0.08333333  0.23971175  1.0
  Ni  Ni250  1  0.75342942  0.41666667  0.23971175  1.0
  Ni  Ni251  1  0.75342942  0.75000000  0.23971175  1.0
  Ni  Ni252  1  0.09866751  0.00000000  0.20399746  1.0
  Ni  Ni253  1  0.09866751  0.33333333  0.20399746  1.0
  Ni  Ni254  1  0.09866751  0.66666667  0.20399746  1.0
  Ni  Ni255  1  0.43200085  0.00000000  0.20399746  1.0
  Ni  Ni256  1  0.43200085  0.33333333  0.20399746  1.0
  Ni  Ni257  1  0.43200085  0.66666667  0.20399746  1.0
  Ni  Ni258  1  0.76533418  0.00000000  0.20399746  1.0
  Ni  Ni259  1  0.76533418  0.33333333  0.20399746  1.0
  Ni  Ni260  1  0.76533418  0.66666667  0.20399746  1.0
  Ni  Ni261  1  0.07485799  0.16666667  0.27542604  1.0
  Ni  Ni262  1  0.07485799  0.50000000  0.27542604  1.0
  Ni  Ni263  1  0.07485799  0.83333333  0.27542604  1.0
  Ni  Ni264  1  0.40819132  0.16666667  0.27542604  1.0
  Ni  Ni265  1  0.40819132  0.50000000  0.27542604  1.0
  Ni  Ni266  1  0.40819132  0.83333333  0.27542604  1.0
  Ni  Ni267  1  0.74152465  0.16666667  0.27542604  1.0
  Ni  Ni268  1  0.74152465  0.50000000  0.27542604  1.0
  Ni  Ni269  1  0.74152465  0.83333333  0.27542604  1.0
  Ni  Ni270  1  0.19640137  0.06367200  0.25558589  1.0
  Ni  Ni271  1  0.19640137  0.39700533  0.25558589  1.0
  Ni  Ni272  1  0.19640137  0.73033867  0.25558589  1.0
  Ni  Ni273  1  0.52973470  0.06367200  0.25558589  1.0
  Ni  Ni274  1  0.52973470  0.39700533  0.25558589  1.0
  Ni  Ni275  1  0.52973470  0.73033867  0.25558589  1.0
  Ni  Ni276  1  0.86306804  0.06367200  0.25558589  1.0
  Ni  Ni277  1  0.86306804  0.39700533  0.25558589  1.0
  Ni  Ni278  1  0.86306804  0.73033867  0.25558589  1.0
  Ni  Ni279  1  0.22021089  0.23033867  0.18415732  1.0
  Ni  Ni280  1  0.22021089  0.56367200  0.18415732  1.0
  Ni  Ni281  1  0.22021089  0.89700533  0.18415732  1.0
  Ni  Ni282  1  0.55354423  0.23033867  0.18415732  1.0
  Ni  Ni283  1  0.55354423  0.56367200  0.18415732  1.0
  Ni  Ni284  1  0.55354423  0.89700533  0.18415732  1.0
  Ni  Ni285  1  0.88687756  0.23033867  0.18415732  1.0
  Ni  Ni286  1  0.88687756  0.56367200  0.18415732  1.0
  Ni  Ni287  1  0.88687756  0.89700533  0.18415732  1.0
  Ni  Ni288  1  0.00093365  0.26966133  0.15240904  1.0
  Ni  Ni289  1  0.00093365  0.60299467  0.15240904  1.0
  Ni  Ni290  1  0.00093365  0.93632800  0.15240904  1.0
  Ni  Ni291  1  0.33426699  0.26966133  0.15240904  1.0
  Ni  Ni292  1  0.33426699  0.60299467  0.15240904  1.0
  Ni  Ni293  1  0.33426699  0.93632800  0.15240904  1.0
  Ni  Ni294  1  0.66760032  0.26966133  0.15240904  1.0
  Ni  Ni295  1  0.66760032  0.60299467  0.15240904  1.0
  Ni  Ni296  1  0.66760032  0.93632800  0.15240904  1.0
  Ni  Ni297  1  0.31045746  0.10299467  0.22383761  1.0
  Ni  Ni298  1  0.31045746  0.43632800  0.22383761  1.0
  Ni  Ni299  1  0.31045746  0.76966133  0.22383761  1.0
  Ni  Ni300  1  0.64379080  0.10299467  0.22383761  1.0
  Ni  Ni301  1  0.64379080  0.43632800  0.22383761  1.0
  Ni  Ni302  1  0.64379080  0.76966133  0.22383761  1.0
  Ni  Ni303  1  0.97712413  0.10299467  0.22383761  1.0
  Ni  Ni304  1  0.97712413  0.43632800  0.22383761  1.0
  Ni  Ni305  1  0.97712413  0.76966133  0.22383761  1.0
  Ni  Ni306  1  0.31021201  0.32464417  0.22457396  1.0
  Ni  Ni307  1  0.31021201  0.65797750  0.22457396  1.0
  Ni  Ni308  1  0.31021201  0.99131083  0.22457396  1.0
  Ni  Ni309  1  0.64354535  0.32464417  0.22457396  1.0
  Ni  Ni310  1  0.64354535  0.65797750  0.22457396  1.0
  Ni  Ni311  1  0.64354535  0.99131083  0.22457396  1.0
  Ni  Ni312  1  0.97687868  0.32464417  0.22457396  1.0
  Ni  Ni313  1  0.97687868  0.65797750  0.22457396  1.0
  Ni  Ni314  1  0.97687868  0.99131083  0.22457396  1.0
  Ni  Ni315  1  0.00068820  0.15797750  0.15314539  1.0
  Ni  Ni316  1  0.00068820  0.49131083  0.15314539  1.0
  Ni  Ni317  1  0.00068820  0.82464417  0.15314539  1.0
  Ni  Ni318  1  0.33402154  0.15797750  0.15314539  1.0
  Ni  Ni319  1  0.33402154  0.49131083  0.15314539  1.0
  Ni  Ni320  1  0.33402154  0.82464417  0.15314539  1.0
  Ni  Ni321  1  0.66735487  0.15797750  0.15314539  1.0
  Ni  Ni322  1  0.66735487  0.49131083  0.15314539  1.0
  Ni  Ni323  1  0.66735487  0.82464417  0.15314539  1.0
  Ni  Ni324  1  0.22045635  0.00868917  0.18342096  1.0
  Ni  Ni325  1  0.22045635  0.34202250  0.18342096  1.0
  Ni  Ni326  1  0.22045635  0.67535583  0.18342096  1.0
  Ni  Ni327  1  0.55378968  0.00868917  0.18342096  1.0
  Ni  Ni328  1  0.55378968  0.34202250  0.18342096  1.0
  Ni  Ni329  1  0.55378968  0.67535583  0.18342096  1.0
  Ni  Ni330  1  0.88712301  0.00868917  0.18342096  1.0
  Ni  Ni331  1  0.88712301  0.34202250  0.18342096  1.0
  Ni  Ni332  1  0.88712301  0.67535583  0.18342096  1.0
  Ni  Ni333  1  0.19664682  0.17535583  0.25484954  1.0
  Ni  Ni334  1  0.19664682  0.50868917  0.25484954  1.0
  Ni  Ni335  1  0.19664682  0.84202250  0.25484954  1.0
  Ni  Ni336  1  0.52998015  0.17535583  0.25484954  1.0
  Ni  Ni337  1  0.52998015  0.50868917  0.25484954  1.0
  Ni  Ni338  1  0.52998015  0.84202250  0.25484954  1.0
  Ni  Ni339  1  0.86331349  0.17535583  0.25484954  1.0
  Ni  Ni340  1  0.86331349  0.50868917  0.25484954  1.0
  Ni  Ni341  1  0.86331349  0.84202250  0.25484954  1.0
  Ni  Ni342  1  0.07485799  0.00000000  0.27542604  1.0
  Ni  Ni343  1  0.07485799  0.33333333  0.27542604  1.0
  Ni  Ni344  1  0.07485799  0.66666667  0.27542604  1.0
  Ni  Ni345  1  0.40819132  0.00000000  0.27542604  1.0
  Ni  Ni346  1  0.40819132  0.33333333  0.27542604  1.0
  Ni  Ni347  1  0.40819132  0.66666667  0.27542604  1.0
  Ni  Ni348  1  0.74152465  0.00000000  0.27542604  1.0
  Ni  Ni349  1  0.74152465  0.33333333  0.27542604  1.0
  Ni  Ni350  1  0.74152465  0.66666667  0.27542604  1.0
  Ni  Ni351  1  0.09866751  0.16666667  0.20399746  1.0
  Ni  Ni352  1  0.09866751  0.50000000  0.20399746  1.0
  Ni  Ni353  1  0.09866751  0.83333333  0.20399746  1.0
  Ni  Ni354  1  0.43200085  0.16666667  0.20399746  1.0
  Ni  Ni355  1  0.43200085  0.50000000  0.20399746  1.0
  Ni  Ni356  1  0.43200085  0.83333333  0.20399746  1.0
  Ni  Ni357  1  0.76533418  0.16666667  0.20399746  1.0
  Ni  Ni358  1  0.76533418  0.50000000  0.20399746  1.0
  Ni  Ni359  1  0.76533418  0.83333333  0.20399746  1.0
  Ni  Ni360  1  0.06295323  0.25000000  0.31114032  1.0
  Ni  Ni361  1  0.06295323  0.58333333  0.31114032  1.0
  Ni  Ni362  1  0.06295323  0.91666667  0.31114032  1.0
  Ni  Ni363  1  0.39628656  0.25000000  0.31114032  1.0
  Ni  Ni364  1  0.39628656  0.58333333  0.31114032  1.0
  Ni  Ni365  1  0.39628656  0.91666667  0.31114032  1.0
  Ni  Ni366  1  0.72961989  0.25000000  0.31114032  1.0
  Ni  Ni367  1  0.72961989  0.58333333  0.31114032  1.0
  Ni  Ni368  1  0.72961989  0.91666667  0.31114032  1.0
  Ni  Ni369  1  0.03914370  0.08333333  0.38256889  1.0
  Ni  Ni370  1  0.03914370  0.41666667  0.38256889  1.0
  Ni  Ni371  1  0.03914370  0.75000000  0.38256889  1.0
  Ni  Ni372  1  0.37247704  0.08333333  0.38256889  1.0
  Ni  Ni373  1  0.37247704  0.41666667  0.38256889  1.0
  Ni  Ni374  1  0.37247704  0.75000000  0.38256889  1.0
  Ni  Ni375  1  0.70581037  0.08333333  0.38256889  1.0
  Ni  Ni376  1  0.70581037  0.41666667  0.38256889  1.0
  Ni  Ni377  1  0.70581037  0.75000000  0.38256889  1.0
  Ni  Ni378  1  0.05104846  0.00000000  0.34685461  1.0
  Ni  Ni379  1  0.05104846  0.33333333  0.34685461  1.0
  Ni  Ni380  1  0.05104846  0.66666667  0.34685461  1.0
  Ni  Ni381  1  0.38438180  0.00000000  0.34685461  1.0
  Ni  Ni382  1  0.38438180  0.33333333  0.34685461  1.0
  Ni  Ni383  1  0.38438180  0.66666667  0.34685461  1.0
  Ni  Ni384  1  0.71771513  0.00000000  0.34685461  1.0
  Ni  Ni385  1  0.71771513  0.33333333  0.34685461  1.0
  Ni  Ni386  1  0.71771513  0.66666667  0.34685461  1.0
  Ni  Ni387  1  0.02723894  0.16666667  0.41828318  1.0
  Ni  Ni388  1  0.02723894  0.50000000  0.41828318  1.0
  Ni  Ni389  1  0.02723894  0.83333333  0.41828318  1.0
  Ni  Ni390  1  0.36057227  0.16666667  0.41828318  1.0
  Ni  Ni391  1  0.36057227  0.50000000  0.41828318  1.0
  Ni  Ni392  1  0.36057227  0.83333333  0.41828318  1.0
  Ni  Ni393  1  0.69390561  0.16666667  0.41828318  1.0
  Ni  Ni394  1  0.69390561  0.50000000  0.41828318  1.0
  Ni  Ni395  1  0.69390561  0.83333333  0.41828318  1.0
  Ni  Ni396  1  0.14878232  0.06367200  0.39844304  1.0
  Ni  Ni397  1  0.14878232  0.39700533  0.39844304  1.0
  Ni  Ni398  1  0.14878232  0.73033867  0.39844304  1.0
  Ni  Ni399  1  0.48211565  0.06367200  0.39844304  1.0
  Ni  Ni400  1  0.48211565  0.39700533  0.39844304  1.0
  Ni  Ni401  1  0.48211565  0.73033867  0.39844304  1.0
  Ni  Ni402  1  0.81544899  0.06367200  0.39844304  1.0
  Ni  Ni403  1  0.81544899  0.39700533  0.39844304  1.0
  Ni  Ni404  1  0.81544899  0.73033867  0.39844304  1.0
  Ni  Ni405  1  0.17259185  0.23033867  0.32701446  1.0
  Ni  Ni406  1  0.17259185  0.56367200  0.32701446  1.0
  Ni  Ni407  1  0.17259185  0.89700533  0.32701446  1.0
  Ni  Ni408  1  0.50592518  0.23033867  0.32701446  1.0
  Ni  Ni409  1  0.50592518  0.56367200  0.32701446  1.0
  Ni  Ni410  1  0.50592518  0.89700533  0.32701446  1.0
  Ni  Ni411  1  0.83925851  0.23033867  0.32701446  1.0
  Ni  Ni412  1  0.83925851  0.56367200  0.32701446  1.0
  Ni  Ni413  1  0.83925851  0.89700533  0.32701446  1.0
  Ni  Ni414  1  0.28664794  0.26966133  0.29526618  1.0
  Ni  Ni415  1  0.28664794  0.60299467  0.29526618  1.0
  Ni  Ni416  1  0.28664794  0.93632800  0.29526618  1.0
  Ni  Ni417  1  0.61998127  0.26966133  0.29526618  1.0
  Ni  Ni418  1  0.61998127  0.60299467  0.29526618  1.0
  Ni  Ni419  1  0.61998127  0.93632800  0.29526618  1.0
  Ni  Ni420  1  0.95331461  0.26966133  0.29526618  1.0
  Ni  Ni421  1  0.95331461  0.60299467  0.29526618  1.0
  Ni  Ni422  1  0.95331461  0.93632800  0.29526618  1.0
  Ni  Ni423  1  0.26283842  0.10299467  0.36669475  1.0
  Ni  Ni424  1  0.26283842  0.43632800  0.36669475  1.0
  Ni  Ni425  1  0.26283842  0.76966133  0.36669475  1.0
  Ni  Ni426  1  0.59617175  0.10299467  0.36669475  1.0
  Ni  Ni427  1  0.59617175  0.43632800  0.36669475  1.0
  Ni  Ni428  1  0.59617175  0.76966133  0.36669475  1.0
  Ni  Ni429  1  0.92950508  0.10299467  0.36669475  1.0
  Ni  Ni430  1  0.92950508  0.43632800  0.36669475  1.0
  Ni  Ni431  1  0.92950508  0.76966133  0.36669475  1.0
  Ni  Ni432  1  0.26259296  0.32464417  0.36743111  1.0
  Ni  Ni433  1  0.26259296  0.65797750  0.36743111  1.0
  Ni  Ni434  1  0.26259296  0.99131083  0.36743111  1.0
  Ni  Ni435  1  0.59592630  0.32464417  0.36743111  1.0
  Ni  Ni436  1  0.59592630  0.65797750  0.36743111  1.0
  Ni  Ni437  1  0.59592630  0.99131083  0.36743111  1.0
  Ni  Ni438  1  0.92925963  0.32464417  0.36743111  1.0
  Ni  Ni439  1  0.92925963  0.65797750  0.36743111  1.0
  Ni  Ni440  1  0.92925963  0.99131083  0.36743111  1.0
  Ni  Ni441  1  0.28640249  0.15797750  0.29600254  1.0
  Ni  Ni442  1  0.28640249  0.49131083  0.29600254  1.0
  Ni  Ni443  1  0.28640249  0.82464417  0.29600254  1.0
  Ni  Ni444  1  0.61973582  0.15797750  0.29600254  1.0
  Ni  Ni445  1  0.61973582  0.49131083  0.29600254  1.0
  Ni  Ni446  1  0.61973582  0.82464417  0.29600254  1.0
  Ni  Ni447  1  0.95306915  0.15797750  0.29600254  1.0
  Ni  Ni448  1  0.95306915  0.49131083  0.29600254  1.0
  Ni  Ni449  1  0.95306915  0.82464417  0.29600254  1.0
  Ni  Ni450  1  0.17283730  0.00868917  0.32627811  1.0
  Ni  Ni451  1  0.17283730  0.34202250  0.32627811  1.0
  Ni  Ni452  1  0.17283730  0.67535583  0.32627811  1.0
  Ni  Ni453  1  0.50617063  0.00868917  0.32627811  1.0
  Ni  Ni454  1  0.50617063  0.34202250  0.32627811  1.0
  Ni  Ni455  1  0.50617063  0.67535583  0.32627811  1.0
  Ni  Ni456  1  0.83950396  0.00868917  0.32627811  1.0
  Ni  Ni457  1  0.83950396  0.34202250  0.32627811  1.0
  Ni  Ni458  1  0.83950396  0.67535583  0.32627811  1.0
  Ni  Ni459  1  0.14902777  0.17535583  0.39770668  1.0
  Ni  Ni460  1  0.14902777  0.50868917  0.39770668  1.0
  Ni  Ni461  1  0.14902777  0.84202250  0.39770668  1.0
  Ni  Ni462  1  0.48236111  0.17535583  0.39770668  1.0
  Ni  Ni463  1  0.48236111  0.50868917  0.39770668  1.0
  Ni  Ni464  1  0.48236111  0.84202250  0.39770668  1.0
  Ni  Ni465  1  0.81569444  0.17535583  0.39770668  1.0
  Ni  Ni466  1  0.81569444  0.50868917  0.39770668  1.0
  Ni  Ni467  1  0.81569444  0.84202250  0.39770668  1.0
  Ni  Ni468  1  0.02723894  0.00000000  0.41828318  1.0
  Ni  Ni469  1  0.02723894  0.33333333  0.41828318  1.0
  Ni  Ni470  1  0.02723894  0.66666667  0.41828318  1.0
  Ni  Ni471  1  0.36057227  0.00000000  0.41828318  1.0
  Ni  Ni472  1  0.36057227  0.33333333  0.41828318  1.0
  Ni  Ni473  1  0.36057227  0.66666667  0.41828318  1.0
  Ni  Ni474  1  0.69390561  0.00000000  0.41828318  1.0
  Ni  Ni475  1  0.69390561  0.33333333  0.41828318  1.0
  Ni  Ni476  1  0.69390561  0.66666667  0.41828318  1.0
  Ni  Ni477  1  0.05104846  0.16666667  0.34685461  1.0
  Ni  Ni478  1  0.05104846  0.50000000  0.34685461  1.0
  Ni  Ni479  1  0.05104846  0.83333333  0.34685461  1.0
  Ni  Ni480  1  0.38438180  0.16666667  0.34685461  1.0
  Ni  Ni481  1  0.38438180  0.50000000  0.34685461  1.0
  Ni  Ni482  1  0.38438180  0.83333333  0.34685461  1.0
  Ni  Ni483  1  0.71771513  0.16666667  0.34685461  1.0
  Ni  Ni484  1  0.71771513  0.50000000  0.34685461  1.0
  Ni  Ni485  1  0.71771513  0.83333333  0.34685461  1.0
