# generated using pymatgen
data_Hf2Ni
_symmetry_space_group_name_H-M   'P 1'
_cell_length_a   24.81925804
_cell_length_b   31.39701917
_cell_length_c   30.05587766
_cell_angle_alpha   93.73748372
_cell_angle_beta   94.72233178
_cell_angle_gamma   94.53984353
_symmetry_Int_Tables_number   1
_chemical_formula_structural   Hf2Ni
_chemical_formula_sum   'Hf360 Ni180'
_cell_volume   23207.64577489
_cell_formula_units_Z   180
loop_
 _symmetry_equiv_pos_site_id
 _symmetry_equiv_pos_as_xyz
  1  'x, y, z'
loop_
 _atom_site_type_symbol
 _atom_site_label
 _atom_site_symmetry_multiplicity
 _atom_site_fract_x
 _atom_site_fract_y
 _atom_site_fract_z
 _atom_site_occupancy
  Hf  Hf0  1  0.01576375  0.19733458  0.96517625  1.0
  Hf  Hf1  1  0.01576375  0.53066792  0.96517625  1.0
  Hf  Hf2  1  0.01576375  0.86400125  0.96517625  1.0
  Hf  Hf3  1  0.34909708  0.19733458  0.96517625  1.0
  Hf  Hf4  1  0.34909708  0.53066792  0.96517625  1.0
  Hf  Hf5  1  0.34909708  0.86400125  0.96517625  1.0
  Hf  Hf6  1  0.68243042  0.19733458  0.96517625  1.0
  Hf  Hf7  1  0.68243042  0.53066792  0.96517625  1.0
  Hf  Hf8  1  0.68243042  0.86400125  0.96517625  1.0
  Hf  Hf9  1  0.16854153  0.10011236  0.92350958  1.0
  Hf  Hf10  1  0.16854153  0.43344569  0.92350958  1.0
  Hf  Hf11  1  0.16854153  0.76677903  0.92350958  1.0
  Hf  Hf12  1  0.50187486  0.10011236  0.92350958  1.0
  Hf  Hf13  1  0.50187486  0.43344569  0.92350958  1.0
  Hf  Hf14  1  0.50187486  0.76677903  0.92350958  1.0
  Hf  Hf15  1  0.83520819  0.10011236  0.92350958  1.0
  Hf  Hf16  1  0.83520819  0.43344569  0.92350958  1.0
  Hf  Hf17  1  0.83520819  0.76677903  0.92350958  1.0
  Hf  Hf18  1  0.08738764  0.28203514  0.93004792  1.0
  Hf  Hf19  1  0.08738764  0.61536847  0.93004792  1.0
  Hf  Hf20  1  0.08738764  0.94870181  0.93004792  1.0
  Hf  Hf21  1  0.42072097  0.28203514  0.93004792  1.0
  Hf  Hf22  1  0.42072097  0.61536847  0.93004792  1.0
  Hf  Hf23  1  0.42072097  0.94870181  0.93004792  1.0
  Hf  Hf24  1  0.75405431  0.28203514  0.93004792  1.0
  Hf  Hf25  1  0.75405431  0.61536847  0.93004792  1.0
  Hf  Hf26  1  0.75405431  0.94870181  0.93004792  1.0
  Hf  Hf27  1  0.26794319  0.04592403  0.97171458  1.0
  Hf  Hf28  1  0.26794319  0.37925736  0.97171458  1.0
  Hf  Hf29  1  0.26794319  0.71259069  0.97171458  1.0
  Hf  Hf30  1  0.60127653  0.04592403  0.97171458  1.0
  Hf  Hf31  1  0.60127653  0.37925736  0.97171458  1.0
  Hf  Hf32  1  0.60127653  0.71259069  0.97171458  1.0
  Hf  Hf33  1  0.93460986  0.04592403  0.97171458  1.0
  Hf  Hf34  1  0.93460986  0.37925736  0.97171458  1.0
  Hf  Hf35  1  0.93460986  0.71259069  0.97171458  1.0
  Hf  Hf36  1  0.28979181  0.27488764  0.95149042  1.0
  Hf  Hf37  1  0.28979181  0.60822097  0.95149042  1.0
  Hf  Hf38  1  0.28979181  0.94155431  0.95149042  1.0
  Hf  Hf39  1  0.62312514  0.27488764  0.95149042  1.0
  Hf  Hf40  1  0.62312514  0.60822097  0.95149042  1.0
  Hf  Hf41  1  0.62312514  0.94155431  0.95149042  1.0
  Hf  Hf42  1  0.95645847  0.27488764  0.95149042  1.0
  Hf  Hf43  1  0.95645847  0.60822097  0.95149042  1.0
  Hf  Hf44  1  0.95645847  0.94155431  0.95149042  1.0
  Hf  Hf45  1  0.13701403  0.03877653  0.99315708  1.0
  Hf  Hf46  1  0.13701403  0.37210986  0.99315708  1.0
  Hf  Hf47  1  0.13701403  0.70544319  0.99315708  1.0
  Hf  Hf48  1  0.47034736  0.03877653  0.99315708  1.0
  Hf  Hf49  1  0.47034736  0.37210986  0.99315708  1.0
  Hf  Hf50  1  0.47034736  0.70544319  0.99315708  1.0
  Hf  Hf51  1  0.80368069  0.03877653  0.99315708  1.0
  Hf  Hf52  1  0.80368069  0.37210986  0.99315708  1.0
  Hf  Hf53  1  0.80368069  0.70544319  0.99315708  1.0
  Hf  Hf54  1  0.21816792  0.19018708  0.98661875  1.0
  Hf  Hf55  1  0.21816792  0.52352042  0.98661875  1.0
  Hf  Hf56  1  0.21816792  0.85685375  0.98661875  1.0
  Hf  Hf57  1  0.55150125  0.19018708  0.98661875  1.0
  Hf  Hf58  1  0.55150125  0.52352042  0.98661875  1.0
  Hf  Hf59  1  0.55150125  0.85685375  0.98661875  1.0
  Hf  Hf60  1  0.88483458  0.19018708  0.98661875  1.0
  Hf  Hf61  1  0.88483458  0.52352042  0.98661875  1.0
  Hf  Hf62  1  0.88483458  0.85685375  0.98661875  1.0
  Hf  Hf63  1  0.03761236  0.09296486  0.94495208  1.0
  Hf  Hf64  1  0.03761236  0.42629819  0.94495208  1.0
  Hf  Hf65  1  0.03761236  0.75963153  0.94495208  1.0
  Hf  Hf66  1  0.37094569  0.09296486  0.94495208  1.0
  Hf  Hf67  1  0.37094569  0.42629819  0.94495208  1.0
  Hf  Hf68  1  0.37094569  0.75963153  0.94495208  1.0
  Hf  Hf69  1  0.70427903  0.09296486  0.94495208  1.0
  Hf  Hf70  1  0.70427903  0.42629819  0.94495208  1.0
  Hf  Hf71  1  0.70427903  0.75963153  0.94495208  1.0
  Hf  Hf72  1  0.32131931  0.00289014  0.88184292  1.0
  Hf  Hf73  1  0.32131931  0.33622347  0.88184292  1.0
  Hf  Hf74  1  0.32131931  0.66955681  0.88184292  1.0
  Hf  Hf75  1  0.65465264  0.00289014  0.88184292  1.0
  Hf  Hf76  1  0.65465264  0.33622347  0.88184292  1.0
  Hf  Hf77  1  0.65465264  0.66955681  0.88184292  1.0
  Hf  Hf78  1  0.98798597  0.00289014  0.88184292  1.0
  Hf  Hf79  1  0.98798597  0.33622347  0.88184292  1.0
  Hf  Hf80  1  0.98798597  0.66955681  0.88184292  1.0
  Hf  Hf81  1  0.14076375  0.23900125  0.84017625  1.0
  Hf  Hf82  1  0.14076375  0.57233458  0.84017625  1.0
  Hf  Hf83  1  0.14076375  0.90566792  0.84017625  1.0
  Hf  Hf84  1  0.47409708  0.23900125  0.84017625  1.0
  Hf  Hf85  1  0.47409708  0.57233458  0.84017625  1.0
  Hf  Hf86  1  0.47409708  0.90566792  0.84017625  1.0
  Hf  Hf87  1  0.80743042  0.23900125  0.84017625  1.0
  Hf  Hf88  1  0.80743042  0.57233458  0.84017625  1.0
  Hf  Hf89  1  0.80743042  0.90566792  0.84017625  1.0
  Hf  Hf90  1  0.05960986  0.08759069  0.84671458  1.0
  Hf  Hf91  1  0.05960986  0.42092403  0.84671458  1.0
  Hf  Hf92  1  0.05960986  0.75425736  0.84671458  1.0
  Hf  Hf93  1  0.39294319  0.08759069  0.84671458  1.0
  Hf  Hf94  1  0.39294319  0.42092403  0.84671458  1.0
  Hf  Hf95  1  0.39294319  0.75425736  0.84671458  1.0
  Hf  Hf96  1  0.72627653  0.08759069  0.84671458  1.0
  Hf  Hf97  1  0.72627653  0.42092403  0.84671458  1.0
  Hf  Hf98  1  0.72627653  0.75425736  0.84671458  1.0
  Hf  Hf99  1  0.24016542  0.18481292  0.88838125  1.0
  Hf  Hf100  1  0.24016542  0.51814625  0.88838125  1.0
  Hf  Hf101  1  0.24016542  0.85147958  0.88838125  1.0
  Hf  Hf102  1  0.57349875  0.18481292  0.88838125  1.0
  Hf  Hf103  1  0.57349875  0.51814625  0.88838125  1.0
  Hf  Hf104  1  0.57349875  0.85147958  0.88838125  1.0
  Hf  Hf105  1  0.90683208  0.18481292  0.88838125  1.0
  Hf  Hf106  1  0.90683208  0.51814625  0.88838125  1.0
  Hf  Hf107  1  0.90683208  0.85147958  0.88838125  1.0
  Hf  Hf108  1  0.26201403  0.08044319  0.86815708  1.0
  Hf  Hf109  1  0.26201403  0.41377653  0.86815708  1.0
  Hf  Hf110  1  0.26201403  0.74710986  0.86815708  1.0
  Hf  Hf111  1  0.59534736  0.08044319  0.86815708  1.0
  Hf  Hf112  1  0.59534736  0.41377653  0.86815708  1.0
  Hf  Hf113  1  0.59534736  0.74710986  0.86815708  1.0
  Hf  Hf114  1  0.92868069  0.08044319  0.86815708  1.0
  Hf  Hf115  1  0.92868069  0.41377653  0.86815708  1.0
  Hf  Hf116  1  0.92868069  0.74710986  0.86815708  1.0
  Hf  Hf117  1  0.10923625  0.17766542  0.90982375  1.0
  Hf  Hf118  1  0.10923625  0.51099875  0.90982375  1.0
  Hf  Hf119  1  0.10923625  0.84433208  0.90982375  1.0
  Hf  Hf120  1  0.44256958  0.17766542  0.90982375  1.0
  Hf  Hf121  1  0.44256958  0.51099875  0.90982375  1.0
  Hf  Hf122  1  0.44256958  0.84433208  0.90982375  1.0
  Hf  Hf123  1  0.77590292  0.17766542  0.90982375  1.0
  Hf  Hf124  1  0.77590292  0.51099875  0.90982375  1.0
  Hf  Hf125  1  0.77590292  0.84433208  0.90982375  1.0
  Hf  Hf126  1  0.19039014  0.32907597  0.90328542  1.0
  Hf  Hf127  1  0.19039014  0.66240931  0.90328542  1.0
  Hf  Hf128  1  0.19039014  0.99574264  0.90328542  1.0
  Hf  Hf129  1  0.52372347  0.32907597  0.90328542  1.0
  Hf  Hf130  1  0.52372347  0.66240931  0.90328542  1.0
  Hf  Hf131  1  0.52372347  0.99574264  0.90328542  1.0
  Hf  Hf132  1  0.85705681  0.32907597  0.90328542  1.0
  Hf  Hf133  1  0.85705681  0.66240931  0.90328542  1.0
  Hf  Hf134  1  0.85705681  0.99574264  0.90328542  1.0
  Hf  Hf135  1  0.00983458  0.23185375  0.86161875  1.0
  Hf  Hf136  1  0.00983458  0.56518708  0.86161875  1.0
  Hf  Hf137  1  0.00983458  0.89852042  0.86161875  1.0
  Hf  Hf138  1  0.34316792  0.23185375  0.86161875  1.0
  Hf  Hf139  1  0.34316792  0.56518708  0.86161875  1.0
  Hf  Hf140  1  0.34316792  0.89852042  0.86161875  1.0
  Hf  Hf141  1  0.67650125  0.23185375  0.86161875  1.0
  Hf  Hf142  1  0.67650125  0.56518708  0.86161875  1.0
  Hf  Hf143  1  0.67650125  0.89852042  0.86161875  1.0
  Hf  Hf144  1  0.29354153  0.14177903  0.79850958  1.0
  Hf  Hf145  1  0.29354153  0.47511236  0.79850958  1.0
  Hf  Hf146  1  0.29354153  0.80844569  0.79850958  1.0
  Hf  Hf147  1  0.62687486  0.14177903  0.79850958  1.0
  Hf  Hf148  1  0.62687486  0.47511236  0.79850958  1.0
  Hf  Hf149  1  0.62687486  0.80844569  0.79850958  1.0
  Hf  Hf150  1  0.96020819  0.14177903  0.79850958  1.0
  Hf  Hf151  1  0.96020819  0.47511236  0.79850958  1.0
  Hf  Hf152  1  0.96020819  0.80844569  0.79850958  1.0
  Hf  Hf153  1  0.11298597  0.04455681  0.75684292  1.0
  Hf  Hf154  1  0.11298597  0.37789014  0.75684292  1.0
  Hf  Hf155  1  0.11298597  0.71122347  0.75684292  1.0
  Hf  Hf156  1  0.44631931  0.04455681  0.75684292  1.0
  Hf  Hf157  1  0.44631931  0.37789014  0.75684292  1.0
  Hf  Hf158  1  0.44631931  0.71122347  0.75684292  1.0
  Hf  Hf159  1  0.77965264  0.04455681  0.75684292  1.0
  Hf  Hf160  1  0.77965264  0.37789014  0.75684292  1.0
  Hf  Hf161  1  0.77965264  0.71122347  0.75684292  1.0
  Hf  Hf162  1  0.03183208  0.22647958  0.76338125  1.0
  Hf  Hf163  1  0.03183208  0.55981292  0.76338125  1.0
  Hf  Hf164  1  0.03183208  0.89314625  0.76338125  1.0
  Hf  Hf165  1  0.36516542  0.22647958  0.76338125  1.0
  Hf  Hf166  1  0.36516542  0.55981292  0.76338125  1.0
  Hf  Hf167  1  0.36516542  0.89314625  0.76338125  1.0
  Hf  Hf168  1  0.69849875  0.22647958  0.76338125  1.0
  Hf  Hf169  1  0.69849875  0.55981292  0.76338125  1.0
  Hf  Hf170  1  0.69849875  0.89314625  0.76338125  1.0
  Hf  Hf171  1  0.21238764  0.32370181  0.80504792  1.0
  Hf  Hf172  1  0.21238764  0.65703514  0.80504792  1.0
  Hf  Hf173  1  0.21238764  0.99036847  0.80504792  1.0
  Hf  Hf174  1  0.54572097  0.32370181  0.80504792  1.0
  Hf  Hf175  1  0.54572097  0.65703514  0.80504792  1.0
  Hf  Hf176  1  0.54572097  0.99036847  0.80504792  1.0
  Hf  Hf177  1  0.87905431  0.32370181  0.80504792  1.0
  Hf  Hf178  1  0.87905431  0.65703514  0.80504792  1.0
  Hf  Hf179  1  0.87905431  0.99036847  0.80504792  1.0
  Hf  Hf180  1  0.23423625  0.21933208  0.78482375  1.0
  Hf  Hf181  1  0.23423625  0.55266542  0.78482375  1.0
  Hf  Hf182  1  0.23423625  0.88599875  0.78482375  1.0
  Hf  Hf183  1  0.56756958  0.21933208  0.78482375  1.0
  Hf  Hf184  1  0.56756958  0.55266542  0.78482375  1.0
  Hf  Hf185  1  0.56756958  0.88599875  0.78482375  1.0
  Hf  Hf186  1  0.90090292  0.21933208  0.78482375  1.0
  Hf  Hf187  1  0.90090292  0.55266542  0.78482375  1.0
  Hf  Hf188  1  0.90090292  0.88599875  0.78482375  1.0
  Hf  Hf189  1  0.08145847  0.31655431  0.82649042  1.0
  Hf  Hf190  1  0.08145847  0.64988764  0.82649042  1.0
  Hf  Hf191  1  0.08145847  0.98322097  0.82649042  1.0
  Hf  Hf192  1  0.41479181  0.31655431  0.82649042  1.0
  Hf  Hf193  1  0.41479181  0.64988764  0.82649042  1.0
  Hf  Hf194  1  0.41479181  0.98322097  0.82649042  1.0
  Hf  Hf195  1  0.74812514  0.31655431  0.82649042  1.0
  Hf  Hf196  1  0.74812514  0.64988764  0.82649042  1.0
  Hf  Hf197  1  0.74812514  0.98322097  0.82649042  1.0
  Hf  Hf198  1  0.16261236  0.13463153  0.81995208  1.0
  Hf  Hf199  1  0.16261236  0.46796486  0.81995208  1.0
  Hf  Hf200  1  0.16261236  0.80129819  0.81995208  1.0
  Hf  Hf201  1  0.49594569  0.13463153  0.81995208  1.0
  Hf  Hf202  1  0.49594569  0.46796486  0.81995208  1.0
  Hf  Hf203  1  0.49594569  0.80129819  0.81995208  1.0
  Hf  Hf204  1  0.82927903  0.13463153  0.81995208  1.0
  Hf  Hf205  1  0.82927903  0.46796486  0.81995208  1.0
  Hf  Hf206  1  0.82927903  0.80129819  0.81995208  1.0
  Hf  Hf207  1  0.31539014  0.03740931  0.77828542  1.0
  Hf  Hf208  1  0.31539014  0.37074264  0.77828542  1.0
  Hf  Hf209  1  0.31539014  0.70407597  0.77828542  1.0
  Hf  Hf210  1  0.64872347  0.03740931  0.77828542  1.0
  Hf  Hf211  1  0.64872347  0.37074264  0.77828542  1.0
  Hf  Hf212  1  0.64872347  0.70407597  0.77828542  1.0
  Hf  Hf213  1  0.98205681  0.03740931  0.77828542  1.0
  Hf  Hf214  1  0.98205681  0.37074264  0.77828542  1.0
  Hf  Hf215  1  0.98205681  0.70407597  0.77828542  1.0
  Hf  Hf216  1  0.26576375  0.28066792  0.71517625  1.0
  Hf  Hf217  1  0.26576375  0.61400125  0.71517625  1.0
  Hf  Hf218  1  0.26576375  0.94733458  0.71517625  1.0
  Hf  Hf219  1  0.59909708  0.28066792  0.71517625  1.0
  Hf  Hf220  1  0.59909708  0.61400125  0.71517625  1.0
  Hf  Hf221  1  0.59909708  0.94733458  0.71517625  1.0
  Hf  Hf222  1  0.93243042  0.28066792  0.71517625  1.0
  Hf  Hf223  1  0.93243042  0.61400125  0.71517625  1.0
  Hf  Hf224  1  0.93243042  0.94733458  0.71517625  1.0
  Hf  Hf225  1  0.08520819  0.18344569  0.67350958  1.0
  Hf  Hf226  1  0.08520819  0.51677903  0.67350958  1.0
  Hf  Hf227  1  0.08520819  0.85011236  0.67350958  1.0
  Hf  Hf228  1  0.41854153  0.18344569  0.67350958  1.0
  Hf  Hf229  1  0.41854153  0.51677903  0.67350958  1.0
  Hf  Hf230  1  0.41854153  0.85011236  0.67350958  1.0
  Hf  Hf231  1  0.75187486  0.18344569  0.67350958  1.0
  Hf  Hf232  1  0.75187486  0.51677903  0.67350958  1.0
  Hf  Hf233  1  0.75187486  0.85011236  0.67350958  1.0
  Hf  Hf234  1  0.00405431  0.03203514  0.68004792  1.0
  Hf  Hf235  1  0.00405431  0.36536847  0.68004792  1.0
  Hf  Hf236  1  0.00405431  0.69870181  0.68004792  1.0
  Hf  Hf237  1  0.33738764  0.03203514  0.68004792  1.0
  Hf  Hf238  1  0.33738764  0.36536847  0.68004792  1.0
  Hf  Hf239  1  0.33738764  0.69870181  0.68004792  1.0
  Hf  Hf240  1  0.67072097  0.03203514  0.68004792  1.0
  Hf  Hf241  1  0.67072097  0.36536847  0.68004792  1.0
  Hf  Hf242  1  0.67072097  0.69870181  0.68004792  1.0
  Hf  Hf243  1  0.18460986  0.12925736  0.72171458  1.0
  Hf  Hf244  1  0.18460986  0.46259069  0.72171458  1.0
  Hf  Hf245  1  0.18460986  0.79592403  0.72171458  1.0
  Hf  Hf246  1  0.51794319  0.12925736  0.72171458  1.0
  Hf  Hf247  1  0.51794319  0.46259069  0.72171458  1.0
  Hf  Hf248  1  0.51794319  0.79592403  0.72171458  1.0
  Hf  Hf249  1  0.85127653  0.12925736  0.72171458  1.0
  Hf  Hf250  1  0.85127653  0.46259069  0.72171458  1.0
  Hf  Hf251  1  0.85127653  0.79592403  0.72171458  1.0
  Hf  Hf252  1  0.20645847  0.02488764  0.70149042  1.0
  Hf  Hf253  1  0.20645847  0.35822097  0.70149042  1.0
  Hf  Hf254  1  0.20645847  0.69155431  0.70149042  1.0
  Hf  Hf255  1  0.53979181  0.02488764  0.70149042  1.0
  Hf  Hf256  1  0.53979181  0.35822097  0.70149042  1.0
  Hf  Hf257  1  0.53979181  0.69155431  0.70149042  1.0
  Hf  Hf258  1  0.87312514  0.02488764  0.70149042  1.0
  Hf  Hf259  1  0.87312514  0.35822097  0.70149042  1.0
  Hf  Hf260  1  0.87312514  0.69155431  0.70149042  1.0
  Hf  Hf261  1  0.05368069  0.12210986  0.74315708  1.0
  Hf  Hf262  1  0.05368069  0.45544319  0.74315708  1.0
  Hf  Hf263  1  0.05368069  0.78877653  0.74315708  1.0
  Hf  Hf264  1  0.38701403  0.12210986  0.74315708  1.0
  Hf  Hf265  1  0.38701403  0.45544319  0.74315708  1.0
  Hf  Hf266  1  0.38701403  0.78877653  0.74315708  1.0
  Hf  Hf267  1  0.72034736  0.12210986  0.74315708  1.0
  Hf  Hf268  1  0.72034736  0.45544319  0.74315708  1.0
  Hf  Hf269  1  0.72034736  0.78877653  0.74315708  1.0
  Hf  Hf270  1  0.13483458  0.27352042  0.73661875  1.0
  Hf  Hf271  1  0.13483458  0.60685375  0.73661875  1.0
  Hf  Hf272  1  0.13483458  0.94018708  0.73661875  1.0
  Hf  Hf273  1  0.46816792  0.27352042  0.73661875  1.0
  Hf  Hf274  1  0.46816792  0.60685375  0.73661875  1.0
  Hf  Hf275  1  0.46816792  0.94018708  0.73661875  1.0
  Hf  Hf276  1  0.80150125  0.27352042  0.73661875  1.0
  Hf  Hf277  1  0.80150125  0.60685375  0.73661875  1.0
  Hf  Hf278  1  0.80150125  0.94018708  0.73661875  1.0
  Hf  Hf279  1  0.28761236  0.17629819  0.69495208  1.0
  Hf  Hf280  1  0.28761236  0.50963153  0.69495208  1.0
  Hf  Hf281  1  0.28761236  0.84296486  0.69495208  1.0
  Hf  Hf282  1  0.62094569  0.17629819  0.69495208  1.0
  Hf  Hf283  1  0.62094569  0.50963153  0.69495208  1.0
  Hf  Hf284  1  0.62094569  0.84296486  0.69495208  1.0
  Hf  Hf285  1  0.95427903  0.17629819  0.69495208  1.0
  Hf  Hf286  1  0.95427903  0.50963153  0.69495208  1.0
  Hf  Hf287  1  0.95427903  0.84296486  0.69495208  1.0
  Hf  Hf288  1  0.23798597  0.08622347  0.63184292  1.0
  Hf  Hf289  1  0.23798597  0.41955681  0.63184292  1.0
  Hf  Hf290  1  0.23798597  0.75289014  0.63184292  1.0
  Hf  Hf291  1  0.57131931  0.08622347  0.63184292  1.0
  Hf  Hf292  1  0.57131931  0.41955681  0.63184292  1.0
  Hf  Hf293  1  0.57131931  0.75289014  0.63184292  1.0
  Hf  Hf294  1  0.90465264  0.08622347  0.63184292  1.0
  Hf  Hf295  1  0.90465264  0.41955681  0.63184292  1.0
  Hf  Hf296  1  0.90465264  0.75289014  0.63184292  1.0
  Hf  Hf297  1  0.05743042  0.32233458  0.59017625  1.0
  Hf  Hf298  1  0.05743042  0.65566792  0.59017625  1.0
  Hf  Hf299  1  0.05743042  0.98900125  0.59017625  1.0
  Hf  Hf300  1  0.39076375  0.32233458  0.59017625  1.0
  Hf  Hf301  1  0.39076375  0.65566792  0.59017625  1.0
  Hf  Hf302  1  0.39076375  0.98900125  0.59017625  1.0
  Hf  Hf303  1  0.72409708  0.32233458  0.59017625  1.0
  Hf  Hf304  1  0.72409708  0.65566792  0.59017625  1.0
  Hf  Hf305  1  0.72409708  0.98900125  0.59017625  1.0
  Hf  Hf306  1  0.30960986  0.17092403  0.59671458  1.0
  Hf  Hf307  1  0.30960986  0.50425736  0.59671458  1.0
  Hf  Hf308  1  0.30960986  0.83759069  0.59671458  1.0
  Hf  Hf309  1  0.64294319  0.17092403  0.59671458  1.0
  Hf  Hf310  1  0.64294319  0.50425736  0.59671458  1.0
  Hf  Hf311  1  0.64294319  0.83759069  0.59671458  1.0
  Hf  Hf312  1  0.97627653  0.17092403  0.59671458  1.0
  Hf  Hf313  1  0.97627653  0.50425736  0.59671458  1.0
  Hf  Hf314  1  0.97627653  0.83759069  0.59671458  1.0
  Hf  Hf315  1  0.15683208  0.26814625  0.63838125  1.0
  Hf  Hf316  1  0.15683208  0.60147958  0.63838125  1.0
  Hf  Hf317  1  0.15683208  0.93481292  0.63838125  1.0
  Hf  Hf318  1  0.49016542  0.26814625  0.63838125  1.0
  Hf  Hf319  1  0.49016542  0.60147958  0.63838125  1.0
  Hf  Hf320  1  0.49016542  0.93481292  0.63838125  1.0
  Hf  Hf321  1  0.82349875  0.26814625  0.63838125  1.0
  Hf  Hf322  1  0.82349875  0.60147958  0.63838125  1.0
  Hf  Hf323  1  0.82349875  0.93481292  0.63838125  1.0
  Hf  Hf324  1  0.17868069  0.16377653  0.61815708  1.0
  Hf  Hf325  1  0.17868069  0.49710986  0.61815708  1.0
  Hf  Hf326  1  0.17868069  0.83044319  0.61815708  1.0
  Hf  Hf327  1  0.51201403  0.16377653  0.61815708  1.0
  Hf  Hf328  1  0.51201403  0.49710986  0.61815708  1.0
  Hf  Hf329  1  0.51201403  0.83044319  0.61815708  1.0
  Hf  Hf330  1  0.84534736  0.16377653  0.61815708  1.0
  Hf  Hf331  1  0.84534736  0.49710986  0.61815708  1.0
  Hf  Hf332  1  0.84534736  0.83044319  0.61815708  1.0
  Hf  Hf333  1  0.02590292  0.26099875  0.65982375  1.0
  Hf  Hf334  1  0.02590292  0.59433208  0.65982375  1.0
  Hf  Hf335  1  0.02590292  0.92766542  0.65982375  1.0
  Hf  Hf336  1  0.35923625  0.26099875  0.65982375  1.0
  Hf  Hf337  1  0.35923625  0.59433208  0.65982375  1.0
  Hf  Hf338  1  0.35923625  0.92766542  0.65982375  1.0
  Hf  Hf339  1  0.69256958  0.26099875  0.65982375  1.0
  Hf  Hf340  1  0.69256958  0.59433208  0.65982375  1.0
  Hf  Hf341  1  0.69256958  0.92766542  0.65982375  1.0
  Hf  Hf342  1  0.10705681  0.07907597  0.65328542  1.0
  Hf  Hf343  1  0.10705681  0.41240931  0.65328542  1.0
  Hf  Hf344  1  0.10705681  0.74574264  0.65328542  1.0
  Hf  Hf345  1  0.44039014  0.07907597  0.65328542  1.0
  Hf  Hf346  1  0.44039014  0.41240931  0.65328542  1.0
  Hf  Hf347  1  0.44039014  0.74574264  0.65328542  1.0
  Hf  Hf348  1  0.77372347  0.07907597  0.65328542  1.0
  Hf  Hf349  1  0.77372347  0.41240931  0.65328542  1.0
  Hf  Hf350  1  0.77372347  0.74574264  0.65328542  1.0
  Hf  Hf351  1  0.25983458  0.31518708  0.61161875  1.0
  Hf  Hf352  1  0.25983458  0.64852042  0.61161875  1.0
  Hf  Hf353  1  0.25983458  0.98185375  0.61161875  1.0
  Hf  Hf354  1  0.59316792  0.31518708  0.61161875  1.0
  Hf  Hf355  1  0.59316792  0.64852042  0.61161875  1.0
  Hf  Hf356  1  0.59316792  0.98185375  0.61161875  1.0
  Hf  Hf357  1  0.92650125  0.31518708  0.61161875  1.0
  Hf  Hf358  1  0.92650125  0.64852042  0.61161875  1.0
  Hf  Hf359  1  0.92650125  0.98185375  0.61161875  1.0
  Ni  Ni360  1  0.12152778  0.22569444  0.98958333  1.0
  Ni  Ni361  1  0.12152778  0.55902778  0.98958333  1.0
  Ni  Ni362  1  0.12152778  0.89236111  0.98958333  1.0
  Ni  Ni363  1  0.45486111  0.22569444  0.98958333  1.0
  Ni  Ni364  1  0.45486111  0.55902778  0.98958333  1.0
  Ni  Ni365  1  0.45486111  0.89236111  0.98958333  1.0
  Ni  Ni366  1  0.78819444  0.22569444  0.98958333  1.0
  Ni  Ni367  1  0.78819444  0.55902778  0.98958333  1.0
  Ni  Ni368  1  0.78819444  0.89236111  0.98958333  1.0
  Ni  Ni369  1  0.27430556  0.12847222  0.94791667  1.0
  Ni  Ni370  1  0.27430556  0.46180556  0.94791667  1.0
  Ni  Ni371  1  0.27430556  0.79513889  0.94791667  1.0
  Ni  Ni372  1  0.60763889  0.12847222  0.94791667  1.0
  Ni  Ni373  1  0.60763889  0.46180556  0.94791667  1.0
  Ni  Ni374  1  0.60763889  0.79513889  0.94791667  1.0
  Ni  Ni375  1  0.94097222  0.12847222  0.94791667  1.0
  Ni  Ni376  1  0.94097222  0.46180556  0.94791667  1.0
  Ni  Ni377  1  0.94097222  0.79513889  0.94791667  1.0
  Ni  Ni378  1  0.03125000  0.01041667  0.96875000  1.0
  Ni  Ni379  1  0.03125000  0.34375000  0.96875000  1.0
  Ni  Ni380  1  0.03125000  0.67708333  0.96875000  1.0
  Ni  Ni381  1  0.36458333  0.01041667  0.96875000  1.0
  Ni  Ni382  1  0.36458333  0.34375000  0.96875000  1.0
  Ni  Ni383  1  0.36458333  0.67708333  0.96875000  1.0
  Ni  Ni384  1  0.69791667  0.01041667  0.96875000  1.0
  Ni  Ni385  1  0.69791667  0.34375000  0.96875000  1.0
  Ni  Ni386  1  0.69791667  0.67708333  0.96875000  1.0
  Ni  Ni387  1  0.18402778  0.24652778  0.92708333  1.0
  Ni  Ni388  1  0.18402778  0.57986111  0.92708333  1.0
  Ni  Ni389  1  0.18402778  0.91319444  0.92708333  1.0
  Ni  Ni390  1  0.51736111  0.24652778  0.92708333  1.0
  Ni  Ni391  1  0.51736111  0.57986111  0.92708333  1.0
  Ni  Ni392  1  0.51736111  0.91319444  0.92708333  1.0
  Ni  Ni393  1  0.85069444  0.24652778  0.92708333  1.0
  Ni  Ni394  1  0.85069444  0.57986111  0.92708333  1.0
  Ni  Ni395  1  0.85069444  0.91319444  0.92708333  1.0
  Ni  Ni396  1  0.09375000  0.03125000  0.90625000  1.0
  Ni  Ni397  1  0.09375000  0.36458333  0.90625000  1.0
  Ni  Ni398  1  0.09375000  0.69791667  0.90625000  1.0
  Ni  Ni399  1  0.42708333  0.03125000  0.90625000  1.0
  Ni  Ni400  1  0.42708333  0.36458333  0.90625000  1.0
  Ni  Ni401  1  0.42708333  0.69791667  0.90625000  1.0
  Ni  Ni402  1  0.76041667  0.03125000  0.90625000  1.0
  Ni  Ni403  1  0.76041667  0.36458333  0.90625000  1.0
  Ni  Ni404  1  0.76041667  0.69791667  0.90625000  1.0
  Ni  Ni405  1  0.24652778  0.26736111  0.86458333  1.0
  Ni  Ni406  1  0.24652778  0.60069444  0.86458333  1.0
  Ni  Ni407  1  0.24652778  0.93402778  0.86458333  1.0
  Ni  Ni408  1  0.57986111  0.26736111  0.86458333  1.0
  Ni  Ni409  1  0.57986111  0.60069444  0.86458333  1.0
  Ni  Ni410  1  0.57986111  0.93402778  0.86458333  1.0
  Ni  Ni411  1  0.91319444  0.26736111  0.86458333  1.0
  Ni  Ni412  1  0.91319444  0.60069444  0.86458333  1.0
  Ni  Ni413  1  0.91319444  0.93402778  0.86458333  1.0
  Ni  Ni414  1  0.00347222  0.14930556  0.88541667  1.0
  Ni  Ni415  1  0.00347222  0.48263889  0.88541667  1.0
  Ni  Ni416  1  0.00347222  0.81597222  0.88541667  1.0
  Ni  Ni417  1  0.33680556  0.14930556  0.88541667  1.0
  Ni  Ni418  1  0.33680556  0.48263889  0.88541667  1.0
  Ni  Ni419  1  0.33680556  0.81597222  0.88541667  1.0
  Ni  Ni420  1  0.67013889  0.14930556  0.88541667  1.0
  Ni  Ni421  1  0.67013889  0.48263889  0.88541667  1.0
  Ni  Ni422  1  0.67013889  0.81597222  0.88541667  1.0
  Ni  Ni423  1  0.15625000  0.05208333  0.84375000  1.0
  Ni  Ni424  1  0.15625000  0.38541667  0.84375000  1.0
  Ni  Ni425  1  0.15625000  0.71875000  0.84375000  1.0
  Ni  Ni426  1  0.48958333  0.05208333  0.84375000  1.0
  Ni  Ni427  1  0.48958333  0.38541667  0.84375000  1.0
  Ni  Ni428  1  0.48958333  0.71875000  0.84375000  1.0
  Ni  Ni429  1  0.82291667  0.05208333  0.84375000  1.0
  Ni  Ni430  1  0.82291667  0.38541667  0.84375000  1.0
  Ni  Ni431  1  0.82291667  0.71875000  0.84375000  1.0
  Ni  Ni432  1  0.06597222  0.17013889  0.82291667  1.0
  Ni  Ni433  1  0.06597222  0.50347222  0.82291667  1.0
  Ni  Ni434  1  0.06597222  0.83680556  0.82291667  1.0
  Ni  Ni435  1  0.39930556  0.17013889  0.82291667  1.0
  Ni  Ni436  1  0.39930556  0.50347222  0.82291667  1.0
  Ni  Ni437  1  0.39930556  0.83680556  0.82291667  1.0
  Ni  Ni438  1  0.73263889  0.17013889  0.82291667  1.0
  Ni  Ni439  1  0.73263889  0.50347222  0.82291667  1.0
  Ni  Ni440  1  0.73263889  0.83680556  0.82291667  1.0
  Ni  Ni441  1  0.21875000  0.07291667  0.78125000  1.0
  Ni  Ni442  1  0.21875000  0.40625000  0.78125000  1.0
  Ni  Ni443  1  0.21875000  0.73958333  0.78125000  1.0
  Ni  Ni444  1  0.55208333  0.07291667  0.78125000  1.0
  Ni  Ni445  1  0.55208333  0.40625000  0.78125000  1.0
  Ni  Ni446  1  0.55208333  0.73958333  0.78125000  1.0
  Ni  Ni447  1  0.88541667  0.07291667  0.78125000  1.0
  Ni  Ni448  1  0.88541667  0.40625000  0.78125000  1.0
  Ni  Ni449  1  0.88541667  0.73958333  0.78125000  1.0
  Ni  Ni450  1  0.30902778  0.28819444  0.80208333  1.0
  Ni  Ni451  1  0.30902778  0.62152778  0.80208333  1.0
  Ni  Ni452  1  0.30902778  0.95486111  0.80208333  1.0
  Ni  Ni453  1  0.64236111  0.28819444  0.80208333  1.0
  Ni  Ni454  1  0.64236111  0.62152778  0.80208333  1.0
  Ni  Ni455  1  0.64236111  0.95486111  0.80208333  1.0
  Ni  Ni456  1  0.97569444  0.28819444  0.80208333  1.0
  Ni  Ni457  1  0.97569444  0.62152778  0.80208333  1.0
  Ni  Ni458  1  0.97569444  0.95486111  0.80208333  1.0
  Ni  Ni459  1  0.12847222  0.19097222  0.76041667  1.0
  Ni  Ni460  1  0.12847222  0.52430556  0.76041667  1.0
  Ni  Ni461  1  0.12847222  0.85763889  0.76041667  1.0
  Ni  Ni462  1  0.46180556  0.19097222  0.76041667  1.0
  Ni  Ni463  1  0.46180556  0.52430556  0.76041667  1.0
  Ni  Ni464  1  0.46180556  0.85763889  0.76041667  1.0
  Ni  Ni465  1  0.79513889  0.19097222  0.76041667  1.0
  Ni  Ni466  1  0.79513889  0.52430556  0.76041667  1.0
  Ni  Ni467  1  0.79513889  0.85763889  0.76041667  1.0
  Ni  Ni468  1  0.03819444  0.30902778  0.73958333  1.0
  Ni  Ni469  1  0.03819444  0.64236111  0.73958333  1.0
  Ni  Ni470  1  0.03819444  0.97569444  0.73958333  1.0
  Ni  Ni471  1  0.37152778  0.30902778  0.73958333  1.0
  Ni  Ni472  1  0.37152778  0.64236111  0.73958333  1.0
  Ni  Ni473  1  0.37152778  0.97569444  0.73958333  1.0
  Ni  Ni474  1  0.70486111  0.30902778  0.73958333  1.0
  Ni  Ni475  1  0.70486111  0.64236111  0.73958333  1.0
  Ni  Ni476  1  0.70486111  0.97569444  0.73958333  1.0
  Ni  Ni477  1  0.19097222  0.21180556  0.69791667  1.0
  Ni  Ni478  1  0.19097222  0.54513889  0.69791667  1.0
  Ni  Ni479  1  0.19097222  0.87847222  0.69791667  1.0
  Ni  Ni480  1  0.52430556  0.21180556  0.69791667  1.0
  Ni  Ni481  1  0.52430556  0.54513889  0.69791667  1.0
  Ni  Ni482  1  0.52430556  0.87847222  0.69791667  1.0
  Ni  Ni483  1  0.85763889  0.21180556  0.69791667  1.0
  Ni  Ni484  1  0.85763889  0.54513889  0.69791667  1.0
  Ni  Ni485  1  0.85763889  0.87847222  0.69791667  1.0
  Ni  Ni486  1  0.28125000  0.09375000  0.71875000  1.0
  Ni  Ni487  1  0.28125000  0.42708333  0.71875000  1.0
  Ni  Ni488  1  0.28125000  0.76041667  0.71875000  1.0
  Ni  Ni489  1  0.61458333  0.09375000  0.71875000  1.0
  Ni  Ni490  1  0.61458333  0.42708333  0.71875000  1.0
  Ni  Ni491  1  0.61458333  0.76041667  0.71875000  1.0
  Ni  Ni492  1  0.94791667  0.09375000  0.71875000  1.0
  Ni  Ni493  1  0.94791667  0.42708333  0.71875000  1.0
  Ni  Ni494  1  0.94791667  0.76041667  0.71875000  1.0
  Ni  Ni495  1  0.10069444  0.32986111  0.67708333  1.0
  Ni  Ni496  1  0.10069444  0.66319444  0.67708333  1.0
  Ni  Ni497  1  0.10069444  0.99652778  0.67708333  1.0
  Ni  Ni498  1  0.43402778  0.32986111  0.67708333  1.0
  Ni  Ni499  1  0.43402778  0.66319444  0.67708333  1.0
  Ni  Ni500  1  0.43402778  0.99652778  0.67708333  1.0
  Ni  Ni501  1  0.76736111  0.32986111  0.67708333  1.0
  Ni  Ni502  1  0.76736111  0.66319444  0.67708333  1.0
  Ni  Ni503  1  0.76736111  0.99652778  0.67708333  1.0
  Ni  Ni504  1  0.01041667  0.11458333  0.65625000  1.0
  Ni  Ni505  1  0.01041667  0.44791667  0.65625000  1.0
  Ni  Ni506  1  0.01041667  0.78125000  0.65625000  1.0
  Ni  Ni507  1  0.34375000  0.11458333  0.65625000  1.0
  Ni  Ni508  1  0.34375000  0.44791667  0.65625000  1.0
  Ni  Ni509  1  0.34375000  0.78125000  0.65625000  1.0
  Ni  Ni510  1  0.67708333  0.11458333  0.65625000  1.0
  Ni  Ni511  1  0.67708333  0.44791667  0.65625000  1.0
  Ni  Ni512  1  0.67708333  0.78125000  0.65625000  1.0
  Ni  Ni513  1  0.16319444  0.01736111  0.61458333  1.0
  Ni  Ni514  1  0.16319444  0.35069444  0.61458333  1.0
  Ni  Ni515  1  0.16319444  0.68402778  0.61458333  1.0
  Ni  Ni516  1  0.49652778  0.01736111  0.61458333  1.0
  Ni  Ni517  1  0.49652778  0.35069444  0.61458333  1.0
  Ni  Ni518  1  0.49652778  0.68402778  0.61458333  1.0
  Ni  Ni519  1  0.82986111  0.01736111  0.61458333  1.0
  Ni  Ni520  1  0.82986111  0.35069444  0.61458333  1.0
  Ni  Ni521  1  0.82986111  0.68402778  0.61458333  1.0
  Ni  Ni522  1  0.25347222  0.23263889  0.63541667  1.0
  Ni  Ni523  1  0.25347222  0.56597222  0.63541667  1.0
  Ni  Ni524  1  0.25347222  0.89930556  0.63541667  1.0
  Ni  Ni525  1  0.58680556  0.23263889  0.63541667  1.0
  Ni  Ni526  1  0.58680556  0.56597222  0.63541667  1.0
  Ni  Ni527  1  0.58680556  0.89930556  0.63541667  1.0
  Ni  Ni528  1  0.92013889  0.23263889  0.63541667  1.0
  Ni  Ni529  1  0.92013889  0.56597222  0.63541667  1.0
  Ni  Ni530  1  0.92013889  0.89930556  0.63541667  1.0
  Ni  Ni531  1  0.07291667  0.13541667  0.59375000  1.0
  Ni  Ni532  1  0.07291667  0.46875000  0.59375000  1.0
  Ni  Ni533  1  0.07291667  0.80208333  0.59375000  1.0
  Ni  Ni534  1  0.40625000  0.13541667  0.59375000  1.0
  Ni  Ni535  1  0.40625000  0.46875000  0.59375000  1.0
  Ni  Ni536  1  0.40625000  0.80208333  0.59375000  1.0
  Ni  Ni537  1  0.73958333  0.13541667  0.59375000  1.0
  Ni  Ni538  1  0.73958333  0.46875000  0.59375000  1.0
  Ni  Ni539  1  0.73958333  0.80208333  0.59375000  1.0
