# generated using pymatgen
data_Hf2Ni
_symmetry_space_group_name_H-M   'P 1'
_cell_length_a   19.22699399
_cell_length_b   27.18556162
_cell_length_c   27.68896663
_cell_angle_alpha   90.01014327
_cell_angle_beta   90.00000001
_cell_angle_gamma   110.70920356
_symmetry_Int_Tables_number   1
_chemical_formula_structural   Hf2Ni
_chemical_formula_sum   'Hf216 Ni108'
_cell_volume   13537.79336868
_cell_formula_units_Z   108
loop_
 _symmetry_equiv_pos_site_id
 _symmetry_equiv_pos_as_xyz
  1  'x, y, z'
loop_
 _atom_site_type_symbol
 _atom_site_label
 _atom_site_symmetry_multiplicity
 _atom_site_fract_x
 _atom_site_fract_y
 _atom_site_fract_z
 _atom_site_occupancy
  Hf  Hf0  1  0.03675857  0.16156131  0.90256893  1.0
  Hf  Hf1  1  0.03675857  0.49489464  0.90256893  1.0
  Hf  Hf2  1  0.03675857  0.82822798  0.90256893  1.0
  Hf  Hf3  1  0.37009190  0.16156131  0.90256893  1.0
  Hf  Hf4  1  0.37009190  0.49489464  0.90256893  1.0
  Hf  Hf5  1  0.37009190  0.82822798  0.90256893  1.0
  Hf  Hf6  1  0.70342524  0.16156131  0.90256893  1.0
  Hf  Hf7  1  0.70342524  0.49489464  0.90256893  1.0
  Hf  Hf8  1  0.70342524  0.82822798  0.90256893  1.0
  Hf  Hf9  1  0.13199667  0.01870417  0.97399750  1.0
  Hf  Hf10  1  0.13199667  0.35203750  0.97399750  1.0
  Hf  Hf11  1  0.13199667  0.68537083  0.97399750  1.0
  Hf  Hf12  1  0.46533000  0.01870417  0.97399750  1.0
  Hf  Hf13  1  0.46533000  0.35203750  0.97399750  1.0
  Hf  Hf14  1  0.46533000  0.68537083  0.97399750  1.0
  Hf  Hf15  1  0.79866333  0.01870417  0.97399750  1.0
  Hf  Hf16  1  0.79866333  0.35203750  0.97399750  1.0
  Hf  Hf17  1  0.79866333  0.68537083  0.97399750  1.0
  Hf  Hf18  1  0.19386429  0.25679940  0.93828321  1.0
  Hf  Hf19  1  0.19386429  0.59013274  0.93828321  1.0
  Hf  Hf20  1  0.19386429  0.92346607  0.93828321  1.0
  Hf  Hf21  1  0.52719762  0.25679940  0.93828321  1.0
  Hf  Hf22  1  0.52719762  0.59013274  0.93828321  1.0
  Hf  Hf23  1  0.52719762  0.92346607  0.93828321  1.0
  Hf  Hf24  1  0.86053095  0.25679940  0.93828321  1.0
  Hf  Hf25  1  0.86053095  0.59013274  0.93828321  1.0
  Hf  Hf26  1  0.86053095  0.92346607  0.93828321  1.0
  Hf  Hf27  1  0.09862619  0.06632321  0.86685464  1.0
  Hf  Hf28  1  0.09862619  0.39965655  0.86685464  1.0
  Hf  Hf29  1  0.09862619  0.73298988  0.86685464  1.0
  Hf  Hf30  1  0.43195952  0.06632321  0.86685464  1.0
  Hf  Hf31  1  0.43195952  0.39965655  0.86685464  1.0
  Hf  Hf32  1  0.43195952  0.73298988  0.86685464  1.0
  Hf  Hf33  1  0.76529286  0.06632321  0.86685464  1.0
  Hf  Hf34  1  0.76529286  0.39965655  0.86685464  1.0
  Hf  Hf35  1  0.76529286  0.73298988  0.86685464  1.0
  Hf  Hf36  1  0.13060429  0.13027940  0.97295321  1.0
  Hf  Hf37  1  0.13060429  0.46361274  0.97295321  1.0
  Hf  Hf38  1  0.13060429  0.79694607  0.97295321  1.0
  Hf  Hf39  1  0.46393762  0.13027940  0.97295321  1.0
  Hf  Hf40  1  0.46393762  0.46361274  0.97295321  1.0
  Hf  Hf41  1  0.46393762  0.79694607  0.97295321  1.0
  Hf  Hf42  1  0.79727095  0.13027940  0.97295321  1.0
  Hf  Hf43  1  0.79727095  0.46361274  0.97295321  1.0
  Hf  Hf44  1  0.79727095  0.79694607  0.97295321  1.0
  Hf  Hf45  1  0.03536619  0.27313655  0.90152464  1.0
  Hf  Hf46  1  0.03536619  0.60646988  0.90152464  1.0
  Hf  Hf47  1  0.03536619  0.93980321  0.90152464  1.0
  Hf  Hf48  1  0.36869952  0.27313655  0.90152464  1.0
  Hf  Hf49  1  0.36869952  0.60646988  0.90152464  1.0
  Hf  Hf50  1  0.36869952  0.93980321  0.90152464  1.0
  Hf  Hf51  1  0.70203286  0.27313655  0.90152464  1.0
  Hf  Hf52  1  0.70203286  0.60646988  0.90152464  1.0
  Hf  Hf53  1  0.70203286  0.93980321  0.90152464  1.0
  Hf  Hf54  1  0.30683190  0.03504131  0.93723893  1.0
  Hf  Hf55  1  0.30683190  0.36837464  0.93723893  1.0
  Hf  Hf56  1  0.30683190  0.70170798  0.93723893  1.0
  Hf  Hf57  1  0.64016524  0.03504131  0.93723893  1.0
  Hf  Hf58  1  0.64016524  0.36837464  0.93723893  1.0
  Hf  Hf59  1  0.64016524  0.70170798  0.93723893  1.0
  Hf  Hf60  1  0.97349857  0.03504131  0.93723893  1.0
  Hf  Hf61  1  0.97349857  0.36837464  0.93723893  1.0
  Hf  Hf62  1  0.97349857  0.70170798  0.93723893  1.0
  Hf  Hf63  1  0.21159381  0.17789845  0.86581036  1.0
  Hf  Hf64  1  0.21159381  0.51123179  0.86581036  1.0
  Hf  Hf65  1  0.21159381  0.84456512  0.86581036  1.0
  Hf  Hf66  1  0.54492714  0.17789845  0.86581036  1.0
  Hf  Hf67  1  0.54492714  0.51123179  0.86581036  1.0
  Hf  Hf68  1  0.54492714  0.84456512  0.86581036  1.0
  Hf  Hf69  1  0.87826048  0.17789845  0.86581036  1.0
  Hf  Hf70  1  0.87826048  0.51123179  0.86581036  1.0
  Hf  Hf71  1  0.87826048  0.84456512  0.86581036  1.0
  Hf  Hf72  1  0.17961571  0.11394226  0.75971179  1.0
  Hf  Hf73  1  0.17961571  0.44727560  0.75971179  1.0
  Hf  Hf74  1  0.17961571  0.78060893  0.75971179  1.0
  Hf  Hf75  1  0.51294905  0.11394226  0.75971179  1.0
  Hf  Hf76  1  0.51294905  0.44727560  0.75971179  1.0
  Hf  Hf77  1  0.51294905  0.78060893  0.75971179  1.0
  Hf  Hf78  1  0.84628238  0.11394226  0.75971179  1.0
  Hf  Hf79  1  0.84628238  0.44727560  0.75971179  1.0
  Hf  Hf80  1  0.84628238  0.78060893  0.75971179  1.0
  Hf  Hf81  1  0.27485381  0.30441845  0.83114036  1.0
  Hf  Hf82  1  0.27485381  0.63775179  0.83114036  1.0
  Hf  Hf83  1  0.27485381  0.97108512  0.83114036  1.0
  Hf  Hf84  1  0.60818714  0.30441845  0.83114036  1.0
  Hf  Hf85  1  0.60818714  0.63775179  0.83114036  1.0
  Hf  Hf86  1  0.60818714  0.97108512  0.83114036  1.0
  Hf  Hf87  1  0.94152048  0.30441845  0.83114036  1.0
  Hf  Hf88  1  0.94152048  0.63775179  0.83114036  1.0
  Hf  Hf89  1  0.94152048  0.97108512  0.83114036  1.0
  Hf  Hf90  1  0.00338810  0.20918036  0.79542607  1.0
  Hf  Hf91  1  0.00338810  0.54251369  0.79542607  1.0
  Hf  Hf92  1  0.00338810  0.87584702  0.79542607  1.0
  Hf  Hf93  1  0.33672143  0.20918036  0.79542607  1.0
  Hf  Hf94  1  0.33672143  0.54251369  0.79542607  1.0
  Hf  Hf95  1  0.33672143  0.87584702  0.79542607  1.0
  Hf  Hf96  1  0.67005476  0.20918036  0.79542607  1.0
  Hf  Hf97  1  0.67005476  0.54251369  0.79542607  1.0
  Hf  Hf98  1  0.67005476  0.87584702  0.79542607  1.0
  Hf  Hf99  1  0.24148333  0.01870417  0.72399750  1.0
  Hf  Hf100  1  0.24148333  0.35203750  0.72399750  1.0
  Hf  Hf101  1  0.24148333  0.68537083  0.72399750  1.0
  Hf  Hf102  1  0.57481667  0.01870417  0.72399750  1.0
  Hf  Hf103  1  0.57481667  0.35203750  0.72399750  1.0
  Hf  Hf104  1  0.57481667  0.68537083  0.72399750  1.0
  Hf  Hf105  1  0.90815000  0.01870417  0.72399750  1.0
  Hf  Hf106  1  0.90815000  0.35203750  0.72399750  1.0
  Hf  Hf107  1  0.90815000  0.68537083  0.72399750  1.0
  Hf  Hf108  1  0.27346143  0.08266036  0.83009607  1.0
  Hf  Hf109  1  0.27346143  0.41599369  0.83009607  1.0
  Hf  Hf110  1  0.27346143  0.74932702  0.83009607  1.0
  Hf  Hf111  1  0.60679476  0.08266036  0.83009607  1.0
  Hf  Hf112  1  0.60679476  0.41599369  0.83009607  1.0
  Hf  Hf113  1  0.60679476  0.74932702  0.83009607  1.0
  Hf  Hf114  1  0.94012810  0.08266036  0.83009607  1.0
  Hf  Hf115  1  0.94012810  0.41599369  0.83009607  1.0
  Hf  Hf116  1  0.94012810  0.74932702  0.83009607  1.0
  Hf  Hf117  1  0.17822333  0.22551750  0.75866750  1.0
  Hf  Hf118  1  0.17822333  0.55885083  0.75866750  1.0
  Hf  Hf119  1  0.17822333  0.89218417  0.75866750  1.0
  Hf  Hf120  1  0.51155667  0.22551750  0.75866750  1.0
  Hf  Hf121  1  0.51155667  0.55885083  0.75866750  1.0
  Hf  Hf122  1  0.51155667  0.89218417  0.75866750  1.0
  Hf  Hf123  1  0.84489000  0.22551750  0.75866750  1.0
  Hf  Hf124  1  0.84489000  0.55885083  0.75866750  1.0
  Hf  Hf125  1  0.84489000  0.89218417  0.75866750  1.0
  Hf  Hf126  1  0.11635571  0.32075560  0.79438179  1.0
  Hf  Hf127  1  0.11635571  0.65408893  0.79438179  1.0
  Hf  Hf128  1  0.11635571  0.98742226  0.79438179  1.0
  Hf  Hf129  1  0.44968905  0.32075560  0.79438179  1.0
  Hf  Hf130  1  0.44968905  0.65408893  0.79438179  1.0
  Hf  Hf131  1  0.44968905  0.98742226  0.79438179  1.0
  Hf  Hf132  1  0.78302238  0.32075560  0.79438179  1.0
  Hf  Hf133  1  0.78302238  0.65408893  0.79438179  1.0
  Hf  Hf134  1  0.78302238  0.98742226  0.79438179  1.0
  Hf  Hf135  1  0.02111762  0.13027940  0.72295321  1.0
  Hf  Hf136  1  0.02111762  0.46361274  0.72295321  1.0
  Hf  Hf137  1  0.02111762  0.79694607  0.72295321  1.0
  Hf  Hf138  1  0.35445095  0.13027940  0.72295321  1.0
  Hf  Hf139  1  0.35445095  0.46361274  0.72295321  1.0
  Hf  Hf140  1  0.35445095  0.79694607  0.72295321  1.0
  Hf  Hf141  1  0.68778429  0.13027940  0.72295321  1.0
  Hf  Hf142  1  0.68778429  0.46361274  0.72295321  1.0
  Hf  Hf143  1  0.68778429  0.79694607  0.72295321  1.0
  Hf  Hf144  1  0.32247286  0.06632321  0.61685464  1.0
  Hf  Hf145  1  0.32247286  0.39965655  0.61685464  1.0
  Hf  Hf146  1  0.32247286  0.73298988  0.61685464  1.0
  Hf  Hf147  1  0.65580619  0.06632321  0.61685464  1.0
  Hf  Hf148  1  0.65580619  0.39965655  0.61685464  1.0
  Hf  Hf149  1  0.65580619  0.73298988  0.61685464  1.0
  Hf  Hf150  1  0.98913952  0.06632321  0.61685464  1.0
  Hf  Hf151  1  0.98913952  0.39965655  0.61685464  1.0
  Hf  Hf152  1  0.98913952  0.73298988  0.61685464  1.0
  Hf  Hf153  1  0.08437762  0.25679940  0.68828321  1.0
  Hf  Hf154  1  0.08437762  0.59013274  0.68828321  1.0
  Hf  Hf155  1  0.08437762  0.92346607  0.68828321  1.0
  Hf  Hf156  1  0.41771095  0.25679940  0.68828321  1.0
  Hf  Hf157  1  0.41771095  0.59013274  0.68828321  1.0
  Hf  Hf158  1  0.41771095  0.92346607  0.68828321  1.0
  Hf  Hf159  1  0.75104429  0.25679940  0.68828321  1.0
  Hf  Hf160  1  0.75104429  0.59013274  0.68828321  1.0
  Hf  Hf161  1  0.75104429  0.92346607  0.68828321  1.0
  Hf  Hf162  1  0.14624524  0.16156131  0.65256893  1.0
  Hf  Hf163  1  0.14624524  0.49489464  0.65256893  1.0
  Hf  Hf164  1  0.14624524  0.82822798  0.65256893  1.0
  Hf  Hf165  1  0.47957857  0.16156131  0.65256893  1.0
  Hf  Hf166  1  0.47957857  0.49489464  0.65256893  1.0
  Hf  Hf167  1  0.47957857  0.82822798  0.65256893  1.0
  Hf  Hf168  1  0.81291190  0.16156131  0.65256893  1.0
  Hf  Hf169  1  0.81291190  0.49489464  0.65256893  1.0
  Hf  Hf170  1  0.81291190  0.82822798  0.65256893  1.0
  Hf  Hf171  1  0.05100714  0.30441845  0.58114036  1.0
  Hf  Hf172  1  0.05100714  0.63775179  0.58114036  1.0
  Hf  Hf173  1  0.05100714  0.97108512  0.58114036  1.0
  Hf  Hf174  1  0.38434048  0.30441845  0.58114036  1.0
  Hf  Hf175  1  0.38434048  0.63775179  0.58114036  1.0
  Hf  Hf176  1  0.38434048  0.97108512  0.58114036  1.0
  Hf  Hf177  1  0.71767381  0.30441845  0.58114036  1.0
  Hf  Hf178  1  0.71767381  0.63775179  0.58114036  1.0
  Hf  Hf179  1  0.71767381  0.97108512  0.58114036  1.0
  Hf  Hf180  1  0.08298524  0.03504131  0.68723893  1.0
  Hf  Hf181  1  0.08298524  0.36837464  0.68723893  1.0
  Hf  Hf182  1  0.08298524  0.70170798  0.68723893  1.0
  Hf  Hf183  1  0.41631857  0.03504131  0.68723893  1.0
  Hf  Hf184  1  0.41631857  0.36837464  0.68723893  1.0
  Hf  Hf185  1  0.41631857  0.70170798  0.68723893  1.0
  Hf  Hf186  1  0.74965190  0.03504131  0.68723893  1.0
  Hf  Hf187  1  0.74965190  0.36837464  0.68723893  1.0
  Hf  Hf188  1  0.74965190  0.70170798  0.68723893  1.0
  Hf  Hf189  1  0.32108048  0.17789845  0.61581036  1.0
  Hf  Hf190  1  0.32108048  0.51123179  0.61581036  1.0
  Hf  Hf191  1  0.32108048  0.84456512  0.61581036  1.0
  Hf  Hf192  1  0.65441381  0.17789845  0.61581036  1.0
  Hf  Hf193  1  0.65441381  0.51123179  0.61581036  1.0
  Hf  Hf194  1  0.65441381  0.84456512  0.61581036  1.0
  Hf  Hf195  1  0.98774714  0.17789845  0.61581036  1.0
  Hf  Hf196  1  0.98774714  0.51123179  0.61581036  1.0
  Hf  Hf197  1  0.98774714  0.84456512  0.61581036  1.0
  Hf  Hf198  1  0.25921286  0.27313655  0.65152464  1.0
  Hf  Hf199  1  0.25921286  0.60646988  0.65152464  1.0
  Hf  Hf200  1  0.25921286  0.93980321  0.65152464  1.0
  Hf  Hf201  1  0.59254619  0.27313655  0.65152464  1.0
  Hf  Hf202  1  0.59254619  0.60646988  0.65152464  1.0
  Hf  Hf203  1  0.59254619  0.93980321  0.65152464  1.0
  Hf  Hf204  1  0.92587952  0.27313655  0.65152464  1.0
  Hf  Hf205  1  0.92587952  0.60646988  0.65152464  1.0
  Hf  Hf206  1  0.92587952  0.93980321  0.65152464  1.0
  Hf  Hf207  1  0.16397476  0.08266036  0.58009607  1.0
  Hf  Hf208  1  0.16397476  0.41599369  0.58009607  1.0
  Hf  Hf209  1  0.16397476  0.74932702  0.58009607  1.0
  Hf  Hf210  1  0.49730810  0.08266036  0.58009607  1.0
  Hf  Hf211  1  0.49730810  0.41599369  0.58009607  1.0
  Hf  Hf212  1  0.49730810  0.74932702  0.58009607  1.0
  Hf  Hf213  1  0.83064143  0.08266036  0.58009607  1.0
  Hf  Hf214  1  0.83064143  0.41599369  0.58009607  1.0
  Hf  Hf215  1  0.83064143  0.74932702  0.58009607  1.0
  Ni  Ni216  1  0.32177667  0.28877750  0.99133250  1.0
  Ni  Ni217  1  0.32177667  0.62211083  0.99133250  1.0
  Ni  Ni218  1  0.32177667  0.95544417  0.99133250  1.0
  Ni  Ni219  1  0.65511000  0.28877750  0.99133250  1.0
  Ni  Ni220  1  0.65511000  0.62211083  0.99133250  1.0
  Ni  Ni221  1  0.65511000  0.95544417  0.99133250  1.0
  Ni  Ni222  1  0.98844333  0.28877750  0.99133250  1.0
  Ni  Ni223  1  0.98844333  0.62211083  0.99133250  1.0
  Ni  Ni224  1  0.98844333  0.95544417  0.99133250  1.0
  Ni  Ni225  1  0.22653857  0.09830131  0.91990393  1.0
  Ni  Ni226  1  0.22653857  0.43163464  0.91990393  1.0
  Ni  Ni227  1  0.22653857  0.76496798  0.91990393  1.0
  Ni  Ni228  1  0.55987190  0.09830131  0.91990393  1.0
  Ni  Ni229  1  0.55987190  0.43163464  0.91990393  1.0
  Ni  Ni230  1  0.55987190  0.76496798  0.91990393  1.0
  Ni  Ni231  1  0.89320524  0.09830131  0.91990393  1.0
  Ni  Ni232  1  0.89320524  0.43163464  0.91990393  1.0
  Ni  Ni233  1  0.89320524  0.76496798  0.91990393  1.0
  Ni  Ni234  1  0.27415762  0.19353940  0.95561821  1.0
  Ni  Ni235  1  0.27415762  0.52687274  0.95561821  1.0
  Ni  Ni236  1  0.27415762  0.86020607  0.95561821  1.0
  Ni  Ni237  1  0.60749095  0.19353940  0.95561821  1.0
  Ni  Ni238  1  0.60749095  0.52687274  0.95561821  1.0
  Ni  Ni239  1  0.60749095  0.86020607  0.95561821  1.0
  Ni  Ni240  1  0.94082429  0.19353940  0.95561821  1.0
  Ni  Ni241  1  0.94082429  0.52687274  0.95561821  1.0
  Ni  Ni242  1  0.94082429  0.86020607  0.95561821  1.0
  Ni  Ni243  1  0.17891952  0.00306321  0.88418964  1.0
  Ni  Ni244  1  0.17891952  0.33639655  0.88418964  1.0
  Ni  Ni245  1  0.17891952  0.66972988  0.88418964  1.0
  Ni  Ni246  1  0.51225286  0.00306321  0.88418964  1.0
  Ni  Ni247  1  0.51225286  0.33639655  0.88418964  1.0
  Ni  Ni248  1  0.51225286  0.66972988  0.88418964  1.0
  Ni  Ni249  1  0.84558619  0.00306321  0.88418964  1.0
  Ni  Ni250  1  0.84558619  0.33639655  0.88418964  1.0
  Ni  Ni251  1  0.84558619  0.66972988  0.88418964  1.0
  Ni  Ni252  1  0.13130048  0.24115845  0.84847536  1.0
  Ni  Ni253  1  0.13130048  0.57449179  0.84847536  1.0
  Ni  Ni254  1  0.13130048  0.90782512  0.84847536  1.0
  Ni  Ni255  1  0.46463381  0.24115845  0.84847536  1.0
  Ni  Ni256  1  0.46463381  0.57449179  0.84847536  1.0
  Ni  Ni257  1  0.46463381  0.90782512  0.84847536  1.0
  Ni  Ni258  1  0.79796714  0.24115845  0.84847536  1.0
  Ni  Ni259  1  0.79796714  0.57449179  0.84847536  1.0
  Ni  Ni260  1  0.79796714  0.90782512  0.84847536  1.0
  Ni  Ni261  1  0.03606238  0.05068226  0.77704679  1.0
  Ni  Ni262  1  0.03606238  0.38401560  0.77704679  1.0
  Ni  Ni263  1  0.03606238  0.71734893  0.77704679  1.0
  Ni  Ni264  1  0.36939571  0.05068226  0.77704679  1.0
  Ni  Ni265  1  0.36939571  0.38401560  0.77704679  1.0
  Ni  Ni266  1  0.36939571  0.71734893  0.77704679  1.0
  Ni  Ni267  1  0.70272905  0.05068226  0.77704679  1.0
  Ni  Ni268  1  0.70272905  0.38401560  0.77704679  1.0
  Ni  Ni269  1  0.70272905  0.71734893  0.77704679  1.0
  Ni  Ni270  1  0.08368143  0.14592036  0.81276107  1.0
  Ni  Ni271  1  0.08368143  0.47925369  0.81276107  1.0
  Ni  Ni272  1  0.08368143  0.81258702  0.81276107  1.0
  Ni  Ni273  1  0.41701476  0.14592036  0.81276107  1.0
  Ni  Ni274  1  0.41701476  0.47925369  0.81276107  1.0
  Ni  Ni275  1  0.41701476  0.81258702  0.81276107  1.0
  Ni  Ni276  1  0.75034810  0.14592036  0.81276107  1.0
  Ni  Ni277  1  0.75034810  0.47925369  0.81276107  1.0
  Ni  Ni278  1  0.75034810  0.81258702  0.81276107  1.0
  Ni  Ni279  1  0.32177667  0.28877750  0.74133250  1.0
  Ni  Ni280  1  0.32177667  0.62211083  0.74133250  1.0
  Ni  Ni281  1  0.32177667  0.95544417  0.74133250  1.0
  Ni  Ni282  1  0.65511000  0.28877750  0.74133250  1.0
  Ni  Ni283  1  0.65511000  0.62211083  0.74133250  1.0
  Ni  Ni284  1  0.65511000  0.95544417  0.74133250  1.0
  Ni  Ni285  1  0.98844333  0.28877750  0.74133250  1.0
  Ni  Ni286  1  0.98844333  0.62211083  0.74133250  1.0
  Ni  Ni287  1  0.98844333  0.95544417  0.74133250  1.0
  Ni  Ni288  1  0.27415762  0.19353940  0.70561821  1.0
  Ni  Ni289  1  0.27415762  0.52687274  0.70561821  1.0
  Ni  Ni290  1  0.27415762  0.86020607  0.70561821  1.0
  Ni  Ni291  1  0.60749095  0.19353940  0.70561821  1.0
  Ni  Ni292  1  0.60749095  0.52687274  0.70561821  1.0
  Ni  Ni293  1  0.60749095  0.86020607  0.70561821  1.0
  Ni  Ni294  1  0.94082429  0.19353940  0.70561821  1.0
  Ni  Ni295  1  0.94082429  0.52687274  0.70561821  1.0
  Ni  Ni296  1  0.94082429  0.86020607  0.70561821  1.0
  Ni  Ni297  1  0.17891952  0.00306321  0.63418964  1.0
  Ni  Ni298  1  0.17891952  0.33639655  0.63418964  1.0
  Ni  Ni299  1  0.17891952  0.66972988  0.63418964  1.0
  Ni  Ni300  1  0.51225286  0.00306321  0.63418964  1.0
  Ni  Ni301  1  0.51225286  0.33639655  0.63418964  1.0
  Ni  Ni302  1  0.51225286  0.66972988  0.63418964  1.0
  Ni  Ni303  1  0.84558619  0.00306321  0.63418964  1.0
  Ni  Ni304  1  0.84558619  0.33639655  0.63418964  1.0
  Ni  Ni305  1  0.84558619  0.66972988  0.63418964  1.0
  Ni  Ni306  1  0.22653857  0.09830131  0.66990393  1.0
  Ni  Ni307  1  0.22653857  0.43163464  0.66990393  1.0
  Ni  Ni308  1  0.22653857  0.76496798  0.66990393  1.0
  Ni  Ni309  1  0.55987190  0.09830131  0.66990393  1.0
  Ni  Ni310  1  0.55987190  0.43163464  0.66990393  1.0
  Ni  Ni311  1  0.55987190  0.76496798  0.66990393  1.0
  Ni  Ni312  1  0.89320524  0.09830131  0.66990393  1.0
  Ni  Ni313  1  0.89320524  0.43163464  0.66990393  1.0
  Ni  Ni314  1  0.89320524  0.76496798  0.66990393  1.0
  Ni  Ni315  1  0.13130048  0.24115845  0.59847536  1.0
  Ni  Ni316  1  0.13130048  0.57449179  0.59847536  1.0
  Ni  Ni317  1  0.13130048  0.90782512  0.59847536  1.0
  Ni  Ni318  1  0.46463381  0.24115845  0.59847536  1.0
  Ni  Ni319  1  0.46463381  0.57449179  0.59847536  1.0
  Ni  Ni320  1  0.46463381  0.90782512  0.59847536  1.0
  Ni  Ni321  1  0.79796714  0.24115845  0.59847536  1.0
  Ni  Ni322  1  0.79796714  0.57449179  0.59847536  1.0
  Ni  Ni323  1  0.79796714  0.90782512  0.59847536  1.0
