# generated using pymatgen
data_Hf2Ni7
_symmetry_space_group_name_H-M   'P 1'
_cell_length_a   14.10969849
_cell_length_b   31.66424956
_cell_length_c   31.25502175
_cell_angle_alpha   61.97697599
_cell_angle_beta   82.10468876
_cell_angle_gamma   57.54497821
_symmetry_Int_Tables_number   1
_chemical_formula_structural   Hf2Ni7
_chemical_formula_sum   'Hf72 Ni252'
_cell_volume   10277.28585195
_cell_formula_units_Z   36
loop_
 _symmetry_equiv_pos_site_id
 _symmetry_equiv_pos_as_xyz
  1  'x, y, z'
loop_
 _atom_site_type_symbol
 _atom_site_label
 _atom_site_symmetry_multiplicity
 _atom_site_fract_x
 _atom_site_fract_y
 _atom_site_fract_z
 _atom_site_occupancy
  Hf  Hf0  1  0.03528900  0.14902217  0.15128655  1.0
  Hf  Hf1  1  0.03528900  0.48235550  0.15128655  1.0
  Hf  Hf2  1  0.03528900  0.81568883  0.15128655  1.0
  Hf  Hf3  1  0.36862233  0.14902217  0.15128655  1.0
  Hf  Hf4  1  0.36862233  0.48235550  0.15128655  1.0
  Hf  Hf5  1  0.36862233  0.81568883  0.15128655  1.0
  Hf  Hf6  1  0.70195567  0.14902217  0.15128655  1.0
  Hf  Hf7  1  0.70195567  0.48235550  0.15128655  1.0
  Hf  Hf8  1  0.70195567  0.81568883  0.15128655  1.0
  Hf  Hf9  1  0.03528900  0.31568883  0.05128655  1.0
  Hf  Hf10  1  0.03528900  0.64902217  0.05128655  1.0
  Hf  Hf11  1  0.03528900  0.98235550  0.05128655  1.0
  Hf  Hf12  1  0.36862233  0.31568883  0.05128655  1.0
  Hf  Hf13  1  0.36862233  0.64902217  0.05128655  1.0
  Hf  Hf14  1  0.36862233  0.98235550  0.05128655  1.0
  Hf  Hf15  1  0.70195567  0.31568883  0.05128655  1.0
  Hf  Hf16  1  0.70195567  0.64902217  0.05128655  1.0
  Hf  Hf17  1  0.70195567  0.98235550  0.05128655  1.0
  Hf  Hf18  1  0.29804433  0.01764450  0.13840595  1.0
  Hf  Hf19  1  0.29804433  0.35097783  0.13840595  1.0
  Hf  Hf20  1  0.29804433  0.68431117  0.13840595  1.0
  Hf  Hf21  1  0.63137767  0.01764450  0.13840595  1.0
  Hf  Hf22  1  0.63137767  0.35097783  0.13840595  1.0
  Hf  Hf23  1  0.63137767  0.68431117  0.13840595  1.0
  Hf  Hf24  1  0.96471100  0.01764450  0.13840595  1.0
  Hf  Hf25  1  0.96471100  0.35097783  0.13840595  1.0
  Hf  Hf26  1  0.96471100  0.68431117  0.13840595  1.0
  Hf  Hf27  1  0.29804433  0.18431117  0.03840595  1.0
  Hf  Hf28  1  0.29804433  0.51764450  0.03840595  1.0
  Hf  Hf29  1  0.29804433  0.85097783  0.03840595  1.0
  Hf  Hf30  1  0.63137767  0.18431117  0.03840595  1.0
  Hf  Hf31  1  0.63137767  0.51764450  0.03840595  1.0
  Hf  Hf32  1  0.63137767  0.85097783  0.03840595  1.0
  Hf  Hf33  1  0.96471100  0.18431117  0.03840595  1.0
  Hf  Hf34  1  0.96471100  0.51764450  0.03840595  1.0
  Hf  Hf35  1  0.96471100  0.85097783  0.03840595  1.0
  Ni  Ni36  1  0.00000000  0.08333333  0.04484625  1.0
  Ni  Ni37  1  0.00000000  0.41666667  0.04484625  1.0
  Ni  Ni38  1  0.00000000  0.75000000  0.04484625  1.0
  Ni  Ni39  1  0.33333333  0.08333333  0.04484625  1.0
  Ni  Ni40  1  0.33333333  0.41666667  0.04484625  1.0
  Ni  Ni41  1  0.33333333  0.75000000  0.04484625  1.0
  Ni  Ni42  1  0.66666667  0.08333333  0.04484625  1.0
  Ni  Ni43  1  0.66666667  0.41666667  0.04484625  1.0
  Ni  Ni44  1  0.66666667  0.75000000  0.04484625  1.0
  Ni  Ni45  1  0.00000000  0.25000000  0.14484625  1.0
  Ni  Ni46  1  1.00000000  0.58333333  0.14484625  1.0
  Ni  Ni47  1  0.00000000  0.91666667  0.14484625  1.0
  Ni  Ni48  1  0.33333333  0.25000000  0.14484625  1.0
  Ni  Ni49  1  0.33333333  0.58333333  0.14484625  1.0
  Ni  Ni50  1  0.33333333  0.91666667  0.14484625  1.0
  Ni  Ni51  1  0.66666667  0.25000000  0.14484625  1.0
  Ni  Ni52  1  0.66666667  0.58333333  0.14484625  1.0
  Ni  Ni53  1  0.66666667  0.91666667  0.14484625  1.0
  Ni  Ni54  1  0.16666667  0.16666667  0.19484625  1.0
  Ni  Ni55  1  0.16666667  0.50000000  0.19484625  1.0
  Ni  Ni56  1  0.16666667  0.83333333  0.19484625  1.0
  Ni  Ni57  1  0.50000000  0.16666667  0.19484625  1.0
  Ni  Ni58  1  0.50000000  0.50000000  0.19484625  1.0
  Ni  Ni59  1  0.50000000  0.83333333  0.19484625  1.0
  Ni  Ni60  1  0.83333333  0.16666667  0.19484625  1.0
  Ni  Ni61  1  0.83333333  0.50000000  0.19484625  1.0
  Ni  Ni62  1  0.83333333  0.83333333  0.19484625  1.0
  Ni  Ni63  1  0.16666667  0.00000000  0.09484625  1.0
  Ni  Ni64  1  0.16666667  0.33333333  0.09484625  1.0
  Ni  Ni65  1  0.16666667  0.66666667  0.09484625  1.0
  Ni  Ni66  1  0.50000000  0.00000000  0.09484625  1.0
  Ni  Ni67  1  0.50000000  0.33333333  0.09484625  1.0
  Ni  Ni68  1  0.50000000  0.66666667  0.09484625  1.0
  Ni  Ni69  1  0.83333333  0.00000000  0.09484625  1.0
  Ni  Ni70  1  0.83333333  0.33333333  0.09484625  1.0
  Ni  Ni71  1  0.83333333  0.66666667  0.09484625  1.0
  Ni  Ni72  1  0.15425267  0.03455750  0.00515375  1.0
  Ni  Ni73  1  0.15425267  0.36789083  0.00515375  1.0
  Ni  Ni74  1  0.15425267  0.70122417  0.00515375  1.0
  Ni  Ni75  1  0.48758600  0.03455750  0.00515375  1.0
  Ni  Ni76  1  0.48758600  0.36789083  0.00515375  1.0
  Ni  Ni77  1  0.48758600  0.70122417  0.00515375  1.0
  Ni  Ni78  1  0.82091933  0.03455750  0.00515375  1.0
  Ni  Ni79  1  0.82091933  0.36789083  0.00515375  1.0
  Ni  Ni80  1  0.82091933  0.70122417  0.00515375  1.0
  Ni  Ni81  1  0.15425267  0.20122417  0.10515375  1.0
  Ni  Ni82  1  0.15425267  0.53455750  0.10515375  1.0
  Ni  Ni83  1  0.15425267  0.86789083  0.10515375  1.0
  Ni  Ni84  1  0.48758600  0.20122417  0.10515375  1.0
  Ni  Ni85  1  0.48758600  0.53455750  0.10515375  1.0
  Ni  Ni86  1  0.48758600  0.86789083  0.10515375  1.0
  Ni  Ni87  1  0.82091933  0.20122417  0.10515375  1.0
  Ni  Ni88  1  0.82091933  0.53455750  0.10515375  1.0
  Ni  Ni89  1  0.82091933  0.86789083  0.10515375  1.0
  Ni  Ni90  1  0.17908067  0.13210917  0.08453875  1.0
  Ni  Ni91  1  0.17908067  0.46544250  0.08453875  1.0
  Ni  Ni92  1  0.17908067  0.79877583  0.08453875  1.0
  Ni  Ni93  1  0.51241400  0.13210917  0.08453875  1.0
  Ni  Ni94  1  0.51241400  0.46544250  0.08453875  1.0
  Ni  Ni95  1  0.51241400  0.79877583  0.08453875  1.0
  Ni  Ni96  1  0.84574733  0.13210917  0.08453875  1.0
  Ni  Ni97  1  0.84574733  0.46544250  0.08453875  1.0
  Ni  Ni98  1  0.84574733  0.79877583  0.08453875  1.0
  Ni  Ni99  1  0.17908067  0.29877583  0.18453875  1.0
  Ni  Ni100  1  0.17908067  0.63210917  0.18453875  1.0
  Ni  Ni101  1  0.17908067  0.96544250  0.18453875  1.0
  Ni  Ni102  1  0.51241400  0.29877583  0.18453875  1.0
  Ni  Ni103  1  0.51241400  0.63210917  0.18453875  1.0
  Ni  Ni104  1  0.51241400  0.96544250  0.18453875  1.0
  Ni  Ni105  1  0.84574733  0.29877583  0.18453875  1.0
  Ni  Ni106  1  0.84574733  0.63210917  0.18453875  1.0
  Ni  Ni107  1  0.84574733  0.96544250  0.18453875  1.0
  Ni  Ni108  1  0.06911500  0.07712633  0.11752845  1.0
  Ni  Ni109  1  0.06911500  0.41045967  0.11752845  1.0
  Ni  Ni110  1  0.06911500  0.74379300  0.11752845  1.0
  Ni  Ni111  1  0.40244833  0.07712633  0.11752845  1.0
  Ni  Ni112  1  0.40244833  0.41045967  0.11752845  1.0
  Ni  Ni113  1  0.40244833  0.74379300  0.11752845  1.0
  Ni  Ni114  1  0.73578167  0.07712633  0.11752845  1.0
  Ni  Ni115  1  0.73578167  0.41045967  0.11752845  1.0
  Ni  Ni116  1  0.73578167  0.74379300  0.11752845  1.0
  Ni  Ni117  1  0.06911500  0.24379300  0.01752845  1.0
  Ni  Ni118  1  0.06911500  0.57712633  0.01752845  1.0
  Ni  Ni119  1  0.06911500  0.91045967  0.01752845  1.0
  Ni  Ni120  1  0.40244833  0.24379300  0.01752845  1.0
  Ni  Ni121  1  0.40244833  0.57712633  0.01752845  1.0
  Ni  Ni122  1  0.40244833  0.91045967  0.01752845  1.0
  Ni  Ni123  1  0.73578167  0.24379300  0.01752845  1.0
  Ni  Ni124  1  0.73578167  0.57712633  0.01752845  1.0
  Ni  Ni125  1  0.73578167  0.91045967  0.01752845  1.0
  Ni  Ni126  1  0.26421833  0.08954033  0.17216405  1.0
  Ni  Ni127  1  0.26421833  0.42287367  0.17216405  1.0
  Ni  Ni128  1  0.26421833  0.75620700  0.17216405  1.0
  Ni  Ni129  1  0.59755167  0.08954033  0.17216405  1.0
  Ni  Ni130  1  0.59755167  0.42287367  0.17216405  1.0
  Ni  Ni131  1  0.59755167  0.75620700  0.17216405  1.0
  Ni  Ni132  1  0.93088500  0.08954033  0.17216405  1.0
  Ni  Ni133  1  0.93088500  0.42287367  0.17216405  1.0
  Ni  Ni134  1  0.93088500  0.75620700  0.17216405  1.0
  Ni  Ni135  1  0.26421833  0.25620700  0.07216405  1.0
  Ni  Ni136  1  0.26421833  0.58954033  0.07216405  1.0
  Ni  Ni137  1  0.26421833  0.92287367  0.07216405  1.0
  Ni  Ni138  1  0.59755167  0.25620700  0.07216405  1.0
  Ni  Ni139  1  0.59755167  0.58954033  0.07216405  1.0
  Ni  Ni140  1  0.59755167  0.92287367  0.07216405  1.0
  Ni  Ni141  1  0.93088500  0.25620700  0.07216405  1.0
  Ni  Ni142  1  0.93088500  0.58954033  0.07216405  1.0
  Ni  Ni143  1  0.93088500  0.92287367  0.07216405  1.0
  Ni  Ni144  1  0.16666667  0.08333333  0.04484625  1.0
  Ni  Ni145  1  0.16666667  0.41666667  0.04484625  1.0
  Ni  Ni146  1  0.16666667  0.75000000  0.04484625  1.0
  Ni  Ni147  1  0.50000000  0.08333333  0.04484625  1.0
  Ni  Ni148  1  0.50000000  0.41666667  0.04484625  1.0
  Ni  Ni149  1  0.50000000  0.75000000  0.04484625  1.0
  Ni  Ni150  1  0.83333333  0.08333333  0.04484625  1.0
  Ni  Ni151  1  0.83333333  0.41666667  0.04484625  1.0
  Ni  Ni152  1  0.83333333  0.75000000  0.04484625  1.0
  Ni  Ni153  1  0.16666667  0.25000000  0.14484625  1.0
  Ni  Ni154  1  0.16666667  0.58333333  0.14484625  1.0
  Ni  Ni155  1  0.16666667  0.91666667  0.14484625  1.0
  Ni  Ni156  1  0.50000000  0.25000000  0.14484625  1.0
  Ni  Ni157  1  0.50000000  0.58333333  0.14484625  1.0
  Ni  Ni158  1  0.50000000  0.91666667  0.14484625  1.0
  Ni  Ni159  1  0.83333333  0.25000000  0.14484625  1.0
  Ni  Ni160  1  0.83333333  0.58333333  0.14484625  1.0
  Ni  Ni161  1  0.83333333  0.91666667  0.14484625  1.0
  Hf  Hf162  1  0.03528900  0.14902217  0.35128655  1.0
  Hf  Hf163  1  0.03528900  0.48235550  0.35128655  1.0
  Hf  Hf164  1  0.03528900  0.81568883  0.35128655  1.0
  Hf  Hf165  1  0.36862233  0.14902217  0.35128655  1.0
  Hf  Hf166  1  0.36862233  0.48235550  0.35128655  1.0
  Hf  Hf167  1  0.36862233  0.81568883  0.35128655  1.0
  Hf  Hf168  1  0.70195567  0.14902217  0.35128655  1.0
  Hf  Hf169  1  0.70195567  0.48235550  0.35128655  1.0
  Hf  Hf170  1  0.70195567  0.81568883  0.35128655  1.0
  Hf  Hf171  1  0.03528900  0.31568883  0.25128655  1.0
  Hf  Hf172  1  0.03528900  0.64902217  0.25128655  1.0
  Hf  Hf173  1  0.03528900  0.98235550  0.25128655  1.0
  Hf  Hf174  1  0.36862233  0.31568883  0.25128655  1.0
  Hf  Hf175  1  0.36862233  0.64902217  0.25128655  1.0
  Hf  Hf176  1  0.36862233  0.98235550  0.25128655  1.0
  Hf  Hf177  1  0.70195567  0.31568883  0.25128655  1.0
  Hf  Hf178  1  0.70195567  0.64902217  0.25128655  1.0
  Hf  Hf179  1  0.70195567  0.98235550  0.25128655  1.0
  Hf  Hf180  1  0.29804433  0.01764450  0.33840595  1.0
  Hf  Hf181  1  0.29804433  0.35097783  0.33840595  1.0
  Hf  Hf182  1  0.29804433  0.68431117  0.33840595  1.0
  Hf  Hf183  1  0.63137767  0.01764450  0.33840595  1.0
  Hf  Hf184  1  0.63137767  0.35097783  0.33840595  1.0
  Hf  Hf185  1  0.63137767  0.68431117  0.33840595  1.0
  Hf  Hf186  1  0.96471100  0.01764450  0.33840595  1.0
  Hf  Hf187  1  0.96471100  0.35097783  0.33840595  1.0
  Hf  Hf188  1  0.96471100  0.68431117  0.33840595  1.0
  Hf  Hf189  1  0.29804433  0.18431117  0.23840595  1.0
  Hf  Hf190  1  0.29804433  0.51764450  0.23840595  1.0
  Hf  Hf191  1  0.29804433  0.85097783  0.23840595  1.0
  Hf  Hf192  1  0.63137767  0.18431117  0.23840595  1.0
  Hf  Hf193  1  0.63137767  0.51764450  0.23840595  1.0
  Hf  Hf194  1  0.63137767  0.85097783  0.23840595  1.0
  Hf  Hf195  1  0.96471100  0.18431117  0.23840595  1.0
  Hf  Hf196  1  0.96471100  0.51764450  0.23840595  1.0
  Hf  Hf197  1  0.96471100  0.85097783  0.23840595  1.0
  Ni  Ni198  1  0.00000000  0.08333333  0.24484625  1.0
  Ni  Ni199  1  0.00000000  0.41666667  0.24484625  1.0
  Ni  Ni200  1  0.00000000  0.75000000  0.24484625  1.0
  Ni  Ni201  1  0.33333333  0.08333333  0.24484625  1.0
  Ni  Ni202  1  0.33333333  0.41666667  0.24484625  1.0
  Ni  Ni203  1  0.33333333  0.75000000  0.24484625  1.0
  Ni  Ni204  1  0.66666667  0.08333333  0.24484625  1.0
  Ni  Ni205  1  0.66666667  0.41666667  0.24484625  1.0
  Ni  Ni206  1  0.66666667  0.75000000  0.24484625  1.0
  Ni  Ni207  1  0.00000000  0.25000000  0.34484625  1.0
  Ni  Ni208  1  1.00000000  0.58333333  0.34484625  1.0
  Ni  Ni209  1  0.00000000  0.91666667  0.34484625  1.0
  Ni  Ni210  1  0.33333333  0.25000000  0.34484625  1.0
  Ni  Ni211  1  0.33333333  0.58333333  0.34484625  1.0
  Ni  Ni212  1  0.33333333  0.91666667  0.34484625  1.0
  Ni  Ni213  1  0.66666667  0.25000000  0.34484625  1.0
  Ni  Ni214  1  0.66666667  0.58333333  0.34484625  1.0
  Ni  Ni215  1  0.66666667  0.91666667  0.34484625  1.0
  Ni  Ni216  1  0.16666667  0.16666667  0.39484625  1.0
  Ni  Ni217  1  0.16666667  0.50000000  0.39484625  1.0
  Ni  Ni218  1  0.16666667  0.83333333  0.39484625  1.0
  Ni  Ni219  1  0.50000000  0.16666667  0.39484625  1.0
  Ni  Ni220  1  0.50000000  0.50000000  0.39484625  1.0
  Ni  Ni221  1  0.50000000  0.83333333  0.39484625  1.0
  Ni  Ni222  1  0.83333333  0.16666667  0.39484625  1.0
  Ni  Ni223  1  0.83333333  0.50000000  0.39484625  1.0
  Ni  Ni224  1  0.83333333  0.83333333  0.39484625  1.0
  Ni  Ni225  1  0.16666667  0.00000000  0.29484625  1.0
  Ni  Ni226  1  0.16666667  0.33333333  0.29484625  1.0
  Ni  Ni227  1  0.16666667  0.66666667  0.29484625  1.0
  Ni  Ni228  1  0.50000000  0.00000000  0.29484625  1.0
  Ni  Ni229  1  0.50000000  0.33333333  0.29484625  1.0
  Ni  Ni230  1  0.50000000  0.66666667  0.29484625  1.0
  Ni  Ni231  1  0.83333333  0.00000000  0.29484625  1.0
  Ni  Ni232  1  0.83333333  0.33333333  0.29484625  1.0
  Ni  Ni233  1  0.83333333  0.66666667  0.29484625  1.0
  Ni  Ni234  1  0.15425267  0.03455750  0.20515375  1.0
  Ni  Ni235  1  0.15425267  0.36789083  0.20515375  1.0
  Ni  Ni236  1  0.15425267  0.70122417  0.20515375  1.0
  Ni  Ni237  1  0.48758600  0.03455750  0.20515375  1.0
  Ni  Ni238  1  0.48758600  0.36789083  0.20515375  1.0
  Ni  Ni239  1  0.48758600  0.70122417  0.20515375  1.0
  Ni  Ni240  1  0.82091933  0.03455750  0.20515375  1.0
  Ni  Ni241  1  0.82091933  0.36789083  0.20515375  1.0
  Ni  Ni242  1  0.82091933  0.70122417  0.20515375  1.0
  Ni  Ni243  1  0.15425267  0.20122417  0.30515375  1.0
  Ni  Ni244  1  0.15425267  0.53455750  0.30515375  1.0
  Ni  Ni245  1  0.15425267  0.86789083  0.30515375  1.0
  Ni  Ni246  1  0.48758600  0.20122417  0.30515375  1.0
  Ni  Ni247  1  0.48758600  0.53455750  0.30515375  1.0
  Ni  Ni248  1  0.48758600  0.86789083  0.30515375  1.0
  Ni  Ni249  1  0.82091933  0.20122417  0.30515375  1.0
  Ni  Ni250  1  0.82091933  0.53455750  0.30515375  1.0
  Ni  Ni251  1  0.82091933  0.86789083  0.30515375  1.0
  Ni  Ni252  1  0.17908067  0.13210917  0.28453875  1.0
  Ni  Ni253  1  0.17908067  0.46544250  0.28453875  1.0
  Ni  Ni254  1  0.17908067  0.79877583  0.28453875  1.0
  Ni  Ni255  1  0.51241400  0.13210917  0.28453875  1.0
  Ni  Ni256  1  0.51241400  0.46544250  0.28453875  1.0
  Ni  Ni257  1  0.51241400  0.79877583  0.28453875  1.0
  Ni  Ni258  1  0.84574733  0.13210917  0.28453875  1.0
  Ni  Ni259  1  0.84574733  0.46544250  0.28453875  1.0
  Ni  Ni260  1  0.84574733  0.79877583  0.28453875  1.0
  Ni  Ni261  1  0.17908067  0.29877583  0.38453875  1.0
  Ni  Ni262  1  0.17908067  0.63210917  0.38453875  1.0
  Ni  Ni263  1  0.17908067  0.96544250  0.38453875  1.0
  Ni  Ni264  1  0.51241400  0.29877583  0.38453875  1.0
  Ni  Ni265  1  0.51241400  0.63210917  0.38453875  1.0
  Ni  Ni266  1  0.51241400  0.96544250  0.38453875  1.0
  Ni  Ni267  1  0.84574733  0.29877583  0.38453875  1.0
  Ni  Ni268  1  0.84574733  0.63210917  0.38453875  1.0
  Ni  Ni269  1  0.84574733  0.96544250  0.38453875  1.0
  Ni  Ni270  1  0.06911500  0.07712633  0.31752845  1.0
  Ni  Ni271  1  0.06911500  0.41045967  0.31752845  1.0
  Ni  Ni272  1  0.06911500  0.74379300  0.31752845  1.0
  Ni  Ni273  1  0.40244833  0.07712633  0.31752845  1.0
  Ni  Ni274  1  0.40244833  0.41045967  0.31752845  1.0
  Ni  Ni275  1  0.40244833  0.74379300  0.31752845  1.0
  Ni  Ni276  1  0.73578167  0.07712633  0.31752845  1.0
  Ni  Ni277  1  0.73578167  0.41045967  0.31752845  1.0
  Ni  Ni278  1  0.73578167  0.74379300  0.31752845  1.0
  Ni  Ni279  1  0.06911500  0.24379300  0.21752845  1.0
  Ni  Ni280  1  0.06911500  0.57712633  0.21752845  1.0
  Ni  Ni281  1  0.06911500  0.91045967  0.21752845  1.0
  Ni  Ni282  1  0.40244833  0.24379300  0.21752845  1.0
  Ni  Ni283  1  0.40244833  0.57712633  0.21752845  1.0
  Ni  Ni284  1  0.40244833  0.91045967  0.21752845  1.0
  Ni  Ni285  1  0.73578167  0.24379300  0.21752845  1.0
  Ni  Ni286  1  0.73578167  0.57712633  0.21752845  1.0
  Ni  Ni287  1  0.73578167  0.91045967  0.21752845  1.0
  Ni  Ni288  1  0.26421833  0.08954033  0.37216405  1.0
  Ni  Ni289  1  0.26421833  0.42287367  0.37216405  1.0
  Ni  Ni290  1  0.26421833  0.75620700  0.37216405  1.0
  Ni  Ni291  1  0.59755167  0.08954033  0.37216405  1.0
  Ni  Ni292  1  0.59755167  0.42287367  0.37216405  1.0
  Ni  Ni293  1  0.59755167  0.75620700  0.37216405  1.0
  Ni  Ni294  1  0.93088500  0.08954033  0.37216405  1.0
  Ni  Ni295  1  0.93088500  0.42287367  0.37216405  1.0
  Ni  Ni296  1  0.93088500  0.75620700  0.37216405  1.0
  Ni  Ni297  1  0.26421833  0.25620700  0.27216405  1.0
  Ni  Ni298  1  0.26421833  0.58954033  0.27216405  1.0
  Ni  Ni299  1  0.26421833  0.92287367  0.27216405  1.0
  Ni  Ni300  1  0.59755167  0.25620700  0.27216405  1.0
  Ni  Ni301  1  0.59755167  0.58954033  0.27216405  1.0
  Ni  Ni302  1  0.59755167  0.92287367  0.27216405  1.0
  Ni  Ni303  1  0.93088500  0.25620700  0.27216405  1.0
  Ni  Ni304  1  0.93088500  0.58954033  0.27216405  1.0
  Ni  Ni305  1  0.93088500  0.92287367  0.27216405  1.0
  Ni  Ni306  1  0.16666667  0.08333333  0.24484625  1.0
  Ni  Ni307  1  0.16666667  0.41666667  0.24484625  1.0
  Ni  Ni308  1  0.16666667  0.75000000  0.24484625  1.0
  Ni  Ni309  1  0.50000000  0.08333333  0.24484625  1.0
  Ni  Ni310  1  0.50000000  0.41666667  0.24484625  1.0
  Ni  Ni311  1  0.50000000  0.75000000  0.24484625  1.0
  Ni  Ni312  1  0.83333333  0.08333333  0.24484625  1.0
  Ni  Ni313  1  0.83333333  0.41666667  0.24484625  1.0
  Ni  Ni314  1  0.83333333  0.75000000  0.24484625  1.0
  Ni  Ni315  1  0.16666667  0.25000000  0.34484625  1.0
  Ni  Ni316  1  0.16666667  0.58333333  0.34484625  1.0
  Ni  Ni317  1  0.16666667  0.91666667  0.34484625  1.0
  Ni  Ni318  1  0.50000000  0.25000000  0.34484625  1.0
  Ni  Ni319  1  0.50000000  0.58333333  0.34484625  1.0
  Ni  Ni320  1  0.50000000  0.91666667  0.34484625  1.0
  Ni  Ni321  1  0.83333333  0.25000000  0.34484625  1.0
  Ni  Ni322  1  0.83333333  0.58333333  0.34484625  1.0
  Ni  Ni323  1  0.83333333  0.91666667  0.34484625  1.0
