# generated using pymatgen
data_Hf2Ni7
_symmetry_space_group_name_H-M   'P 1'
_cell_length_a   21.86473206
_cell_length_b   24.26108721
_cell_length_c   29.25254083
_cell_angle_alpha   83.41850617
_cell_angle_beta   84.08775989
_cell_angle_gamma   69.30936673
_symmetry_Int_Tables_number   1
_chemical_formula_structural   Hf2Ni7
_chemical_formula_sum   'Hf108 Ni378'
_cell_volume   14388.20019274
_cell_formula_units_Z   54
loop_
 _symmetry_equiv_pos_site_id
 _symmetry_equiv_pos_as_xyz
  1  'x, y, z'
loop_
 _atom_site_type_symbol
 _atom_site_label
 _atom_site_symmetry_multiplicity
 _atom_site_fract_x
 _atom_site_fract_y
 _atom_site_fract_z
 _atom_site_occupancy
  Hf  Hf0  1  0.16284640  0.23426563  0.12963561  1.0
  Hf  Hf1  1  0.16284640  0.56759896  0.12963561  1.0
  Hf  Hf2  1  0.16284640  0.90093230  0.12963561  1.0
  Hf  Hf3  1  0.49617974  0.23426563  0.12963561  1.0
  Hf  Hf4  1  0.49617974  0.56759896  0.12963561  1.0
  Hf  Hf5  1  0.49617974  0.90093230  0.12963561  1.0
  Hf  Hf6  1  0.82951307  0.23426563  0.12963561  1.0
  Hf  Hf7  1  0.82951307  0.56759896  0.12963561  1.0
  Hf  Hf8  1  0.82951307  0.90093230  0.12963561  1.0
  Hf  Hf9  1  0.11522736  0.09140849  0.05820704  1.0
  Hf  Hf10  1  0.11522736  0.42474182  0.05820704  1.0
  Hf  Hf11  1  0.11522736  0.75807515  0.05820704  1.0
  Hf  Hf12  1  0.44856069  0.09140849  0.05820704  1.0
  Hf  Hf13  1  0.44856069  0.42474182  0.05820704  1.0
  Hf  Hf14  1  0.44856069  0.75807515  0.05820704  1.0
  Hf  Hf15  1  0.78189402  0.09140849  0.05820704  1.0
  Hf  Hf16  1  0.78189402  0.42474182  0.05820704  1.0
  Hf  Hf17  1  0.78189402  0.75807515  0.05820704  1.0
  Hf  Hf18  1  0.25984879  0.05438677  0.00440718  1.0
  Hf  Hf19  1  0.25984879  0.38772011  0.00440718  1.0
  Hf  Hf20  1  0.25984879  0.72105344  0.00440718  1.0
  Hf  Hf21  1  0.59318212  0.05438677  0.00440718  1.0
  Hf  Hf22  1  0.59318212  0.38772011  0.00440718  1.0
  Hf  Hf23  1  0.59318212  0.72105344  0.00440718  1.0
  Hf  Hf24  1  0.92651545  0.05438677  0.00440718  1.0
  Hf  Hf25  1  0.92651545  0.38772011  0.00440718  1.0
  Hf  Hf26  1  0.92651545  0.72105344  0.00440718  1.0
  Hf  Hf27  1  0.30746783  0.19724392  0.07583575  1.0
  Hf  Hf28  1  0.30746783  0.53057725  0.07583575  1.0
  Hf  Hf29  1  0.30746783  0.86391058  0.07583575  1.0
  Hf  Hf30  1  0.64080117  0.19724392  0.07583575  1.0
  Hf  Hf31  1  0.64080117  0.53057725  0.07583575  1.0
  Hf  Hf32  1  0.64080117  0.86391058  0.07583575  1.0
  Hf  Hf33  1  0.97413450  0.19724392  0.07583575  1.0
  Hf  Hf34  1  0.97413450  0.53057725  0.07583575  1.0
  Hf  Hf35  1  0.97413450  0.86391058  0.07583575  1.0
  Hf  Hf36  1  0.25808450  0.18664658  0.27249275  1.0
  Hf  Hf37  1  0.25808450  0.51997992  0.27249275  1.0
  Hf  Hf38  1  0.25808450  0.85331325  0.27249275  1.0
  Hf  Hf39  1  0.59141783  0.18664658  0.27249275  1.0
  Hf  Hf40  1  0.59141783  0.51997992  0.27249275  1.0
  Hf  Hf41  1  0.59141783  0.85331325  0.27249275  1.0
  Hf  Hf42  1  0.92475117  0.18664658  0.27249275  1.0
  Hf  Hf43  1  0.92475117  0.51997992  0.27249275  1.0
  Hf  Hf44  1  0.92475117  0.85331325  0.27249275  1.0
  Hf  Hf45  1  0.21046545  0.04378944  0.20106418  1.0
  Hf  Hf46  1  0.21046545  0.37712277  0.20106418  1.0
  Hf  Hf47  1  0.21046545  0.71045611  0.20106418  1.0
  Hf  Hf48  1  0.54379879  0.04378944  0.20106418  1.0
  Hf  Hf49  1  0.54379879  0.37712277  0.20106418  1.0
  Hf  Hf50  1  0.54379879  0.71045611  0.20106418  1.0
  Hf  Hf51  1  0.87713212  0.04378944  0.20106418  1.0
  Hf  Hf52  1  0.87713212  0.37712277  0.20106418  1.0
  Hf  Hf53  1  0.87713212  0.71045611  0.20106418  1.0
  Hf  Hf54  1  0.02175355  0.00676773  0.14726432  1.0
  Hf  Hf55  1  0.02175355  0.34010106  0.14726432  1.0
  Hf  Hf56  1  0.02175355  0.67343439  0.14726432  1.0
  Hf  Hf57  1  0.35508688  0.00676773  0.14726432  1.0
  Hf  Hf58  1  0.35508688  0.34010106  0.14726432  1.0
  Hf  Hf59  1  0.35508688  0.67343439  0.14726432  1.0
  Hf  Hf60  1  0.68842021  0.00676773  0.14726432  1.0
  Hf  Hf61  1  0.68842021  0.34010106  0.14726432  1.0
  Hf  Hf62  1  0.68842021  0.67343439  0.14726432  1.0
  Hf  Hf63  1  0.06937260  0.14962487  0.21869289  1.0
  Hf  Hf64  1  0.06937260  0.48295820  0.21869289  1.0
  Hf  Hf65  1  0.06937260  0.81629154  0.21869289  1.0
  Hf  Hf66  1  0.40270593  0.14962487  0.21869289  1.0
  Hf  Hf67  1  0.40270593  0.48295820  0.21869289  1.0
  Hf  Hf68  1  0.40270593  0.81629154  0.21869289  1.0
  Hf  Hf69  1  0.73603926  0.14962487  0.21869289  1.0
  Hf  Hf70  1  0.73603926  0.48295820  0.21869289  1.0
  Hf  Hf71  1  0.73603926  0.81629154  0.21869289  1.0
  Hf  Hf72  1  0.01998926  0.13902754  0.41534989  1.0
  Hf  Hf73  1  0.01998926  0.47236087  0.41534989  1.0
  Hf  Hf74  1  0.01998926  0.80569420  0.41534989  1.0
  Hf  Hf75  1  0.35332260  0.13902754  0.41534989  1.0
  Hf  Hf76  1  0.35332260  0.47236087  0.41534989  1.0
  Hf  Hf77  1  0.35332260  0.80569420  0.41534989  1.0
  Hf  Hf78  1  0.68665593  0.13902754  0.41534989  1.0
  Hf  Hf79  1  0.68665593  0.47236087  0.41534989  1.0
  Hf  Hf80  1  0.68665593  0.80569420  0.41534989  1.0
  Hf  Hf81  1  0.30570355  0.32950373  0.34392132  1.0
  Hf  Hf82  1  0.30570355  0.66283706  0.34392132  1.0
  Hf  Hf83  1  0.30570355  0.99617039  0.34392132  1.0
  Hf  Hf84  1  0.63903688  0.32950373  0.34392132  1.0
  Hf  Hf85  1  0.63903688  0.66283706  0.34392132  1.0
  Hf  Hf86  1  0.63903688  0.99617039  0.34392132  1.0
  Hf  Hf87  1  0.97237021  0.32950373  0.34392132  1.0
  Hf  Hf88  1  0.97237021  0.66283706  0.34392132  1.0
  Hf  Hf89  1  0.97237021  0.99617039  0.34392132  1.0
  Hf  Hf90  1  0.11699164  0.29248201  0.29012146  1.0
  Hf  Hf91  1  0.11699164  0.62581535  0.29012146  1.0
  Hf  Hf92  1  0.11699164  0.95914868  0.29012146  1.0
  Hf  Hf93  1  0.45032498  0.29248201  0.29012146  1.0
  Hf  Hf94  1  0.45032498  0.62581535  0.29012146  1.0
  Hf  Hf95  1  0.45032498  0.95914868  0.29012146  1.0
  Hf  Hf96  1  0.78365831  0.29248201  0.29012146  1.0
  Hf  Hf97  1  0.78365831  0.62581535  0.29012146  1.0
  Hf  Hf98  1  0.78365831  0.95914868  0.29012146  1.0
  Hf  Hf99  1  0.16461069  0.10200582  0.36155004  1.0
  Hf  Hf100  1  0.16461069  0.43533915  0.36155004  1.0
  Hf  Hf101  1  0.16461069  0.76867249  0.36155004  1.0
  Hf  Hf102  1  0.49794402  0.10200582  0.36155004  1.0
  Hf  Hf103  1  0.49794402  0.43533915  0.36155004  1.0
  Hf  Hf104  1  0.49794402  0.76867249  0.36155004  1.0
  Hf  Hf105  1  0.83127736  0.10200582  0.36155004  1.0
  Hf  Hf106  1  0.83127736  0.43533915  0.36155004  1.0
  Hf  Hf107  1  0.83127736  0.76867249  0.36155004  1.0
  Ni  Ni108  1  0.23515712  0.04908811  0.10273568  1.0
  Ni  Ni109  1  0.23515712  0.38242144  0.10273568  1.0
  Ni  Ni110  1  0.23515712  0.71575477  0.10273568  1.0
  Ni  Ni111  1  0.56849045  0.04908811  0.10273568  1.0
  Ni  Ni112  1  0.56849045  0.38242144  0.10273568  1.0
  Ni  Ni113  1  0.56849045  0.71575477  0.10273568  1.0
  Ni  Ni114  1  0.90182379  0.04908811  0.10273568  1.0
  Ni  Ni115  1  0.90182379  0.38242144  0.10273568  1.0
  Ni  Ni116  1  0.90182379  0.71575477  0.10273568  1.0
  Ni  Ni117  1  0.18753807  0.23956430  0.03130711  1.0
  Ni  Ni118  1  0.18753807  0.57289763  0.03130711  1.0
  Ni  Ni119  1  0.18753807  0.90623096  0.03130711  1.0
  Ni  Ni120  1  0.52087140  0.23956430  0.03130711  1.0
  Ni  Ni121  1  0.52087140  0.57289763  0.03130711  1.0
  Ni  Ni122  1  0.52087140  0.90623096  0.03130711  1.0
  Ni  Ni123  1  0.85420474  0.23956430  0.03130711  1.0
  Ni  Ni124  1  0.85420474  0.57289763  0.03130711  1.0
  Ni  Ni125  1  0.85420474  0.90623096  0.03130711  1.0
  Ni  Ni126  1  0.21134760  0.14432620  0.06702139  1.0
  Ni  Ni127  1  0.21134760  0.47765954  0.06702139  1.0
  Ni  Ni128  1  0.21134760  0.81099287  0.06702139  1.0
  Ni  Ni129  1  0.54468093  0.14432620  0.06702139  1.0
  Ni  Ni130  1  0.54468093  0.47765954  0.06702139  1.0
  Ni  Ni131  1  0.54468093  0.81099287  0.06702139  1.0
  Ni  Ni132  1  0.87801426  0.14432620  0.06702139  1.0
  Ni  Ni133  1  0.87801426  0.47765954  0.06702139  1.0
  Ni  Ni134  1  0.87801426  0.81099287  0.06702139  1.0
  Ni  Ni135  1  0.25896664  0.28718335  0.13844996  1.0
  Ni  Ni136  1  0.25896664  0.62051668  0.13844996  1.0
  Ni  Ni137  1  0.25896664  0.95385001  0.13844996  1.0
  Ni  Ni138  1  0.59229998  0.28718335  0.13844996  1.0
  Ni  Ni139  1  0.59229998  0.62051668  0.13844996  1.0
  Ni  Ni140  1  0.59229998  0.95385001  0.13844996  1.0
  Ni  Ni141  1  0.92563331  0.28718335  0.13844996  1.0
  Ni  Ni142  1  0.92563331  0.62051668  0.13844996  1.0
  Ni  Ni143  1  0.92563331  0.95385001  0.13844996  1.0
  Ni  Ni144  1  0.09486245  0.20877577  0.06468868  1.0
  Ni  Ni145  1  0.09486245  0.54210911  0.06468868  1.0
  Ni  Ni146  1  0.09486245  0.87544244  0.06468868  1.0
  Ni  Ni147  1  0.42819579  0.20877577  0.06468868  1.0
  Ni  Ni148  1  0.42819579  0.54210911  0.06468868  1.0
  Ni  Ni149  1  0.42819579  0.87544244  0.06468868  1.0
  Ni  Ni150  1  0.76152912  0.20877577  0.06468868  1.0
  Ni  Ni151  1  0.76152912  0.54210911  0.06468868  1.0
  Ni  Ni152  1  0.76152912  0.87544244  0.06468868  1.0
  Ni  Ni153  1  0.14248150  0.01829958  0.13611725  1.0
  Ni  Ni154  1  0.14248150  0.35163292  0.13611725  1.0
  Ni  Ni155  1  0.14248150  0.68496625  0.13611725  1.0
  Ni  Ni156  1  0.47581483  0.01829958  0.13611725  1.0
  Ni  Ni157  1  0.47581483  0.35163292  0.13611725  1.0
  Ni  Ni158  1  0.47581483  0.68496625  0.13611725  1.0
  Ni  Ni159  1  0.80914817  0.01829958  0.13611725  1.0
  Ni  Ni160  1  0.80914817  0.35163292  0.13611725  1.0
  Ni  Ni161  1  0.80914817  0.68496625  0.13611725  1.0
  Ni  Ni162  1  0.32783274  0.07987663  0.06935411  1.0
  Ni  Ni163  1  0.32783274  0.41320996  0.06935411  1.0
  Ni  Ni164  1  0.32783274  0.74654330  0.06935411  1.0
  Ni  Ni165  1  0.66116607  0.07987663  0.06935411  1.0
  Ni  Ni166  1  0.66116607  0.41320996  0.06935411  1.0
  Ni  Ni167  1  0.66116607  0.74654330  0.06935411  1.0
  Ni  Ni168  1  0.99449940  0.07987663  0.06935411  1.0
  Ni  Ni169  1  0.99449940  0.41320996  0.06935411  1.0
  Ni  Ni170  1  0.99449940  0.74654330  0.06935411  1.0
  Ni  Ni171  1  0.04211845  0.22273377  0.14078268  1.0
  Ni  Ni172  1  0.04211845  0.55606711  0.14078268  1.0
  Ni  Ni173  1  0.04211845  0.88940044  0.14078268  1.0
  Ni  Ni174  1  0.37545179  0.22273377  0.14078268  1.0
  Ni  Ni175  1  0.37545179  0.55606711  0.14078268  1.0
  Ni  Ni176  1  0.37545179  0.88940044  0.14078268  1.0
  Ni  Ni177  1  0.70878512  0.22273377  0.14078268  1.0
  Ni  Ni178  1  0.70878512  0.55606711  0.14078268  1.0
  Ni  Ni179  1  0.70878512  0.88940044  0.14078268  1.0
  Ni  Ni180  1  0.04162755  0.11129539  0.14004632  1.0
  Ni  Ni181  1  0.04162755  0.44462873  0.14004632  1.0
  Ni  Ni182  1  0.04162755  0.77796206  0.14004632  1.0
  Ni  Ni183  1  0.37496088  0.11129539  0.14004632  1.0
  Ni  Ni184  1  0.37496088  0.44462873  0.14004632  1.0
  Ni  Ni185  1  0.37496088  0.77796206  0.14004632  1.0
  Ni  Ni186  1  0.70829421  0.11129539  0.14004632  1.0
  Ni  Ni187  1  0.70829421  0.44462873  0.14004632  1.0
  Ni  Ni188  1  0.70829421  0.77796206  0.14004632  1.0
  Ni  Ni189  1  0.32734183  0.30177158  0.06861775  1.0
  Ni  Ni190  1  0.32734183  0.63510492  0.06861775  1.0
  Ni  Ni191  1  0.32734183  0.96843825  0.06861775  1.0
  Ni  Ni192  1  0.66067517  0.30177158  0.06861775  1.0
  Ni  Ni193  1  0.66067517  0.63510492  0.06861775  1.0
  Ni  Ni194  1  0.66067517  0.96843825  0.06861775  1.0
  Ni  Ni195  1  0.99400850  0.30177158  0.06861775  1.0
  Ni  Ni196  1  0.99400850  0.63510492  0.06861775  1.0
  Ni  Ni197  1  0.99400850  0.96843825  0.06861775  1.0
  Ni  Ni198  1  0.14297240  0.12973796  0.13685361  1.0
  Ni  Ni199  1  0.14297240  0.46307130  0.13685361  1.0
  Ni  Ni200  1  0.14297240  0.79640463  0.13685361  1.0
  Ni  Ni201  1  0.47630574  0.12973796  0.13685361  1.0
  Ni  Ni202  1  0.47630574  0.46307130  0.13685361  1.0
  Ni  Ni203  1  0.47630574  0.79640463  0.13685361  1.0
  Ni  Ni204  1  0.80963907  0.12973796  0.13685361  1.0
  Ni  Ni205  1  0.80963907  0.46307130  0.13685361  1.0
  Ni  Ni206  1  0.80963907  0.79640463  0.13685361  1.0
  Ni  Ni207  1  0.09535336  0.32021415  0.06542504  1.0
  Ni  Ni208  1  0.09535336  0.65354749  0.06542504  1.0
  Ni  Ni209  1  0.09535336  0.98688082  0.06542504  1.0
  Ni  Ni210  1  0.42868669  0.32021415  0.06542504  1.0
  Ni  Ni211  1  0.42868669  0.65354749  0.06542504  1.0
  Ni  Ni212  1  0.42868669  0.98688082  0.06542504  1.0
  Ni  Ni213  1  0.76202002  0.32021415  0.06542504  1.0
  Ni  Ni214  1  0.76202002  0.65354749  0.06542504  1.0
  Ni  Ni215  1  0.76202002  0.98688082  0.06542504  1.0
  Ni  Ni216  1  0.25896664  0.12051668  0.13844996  1.0
  Ni  Ni217  1  0.25896664  0.45385001  0.13844996  1.0
  Ni  Ni218  1  0.25896664  0.78718335  0.13844996  1.0
  Ni  Ni219  1  0.59229998  0.12051668  0.13844996  1.0
  Ni  Ni220  1  0.59229998  0.45385001  0.13844996  1.0
  Ni  Ni221  1  0.59229998  0.78718335  0.13844996  1.0
  Ni  Ni222  1  0.92563331  0.12051668  0.13844996  1.0
  Ni  Ni223  1  0.92563331  0.45385001  0.13844996  1.0
  Ni  Ni224  1  0.92563331  0.78718335  0.13844996  1.0
  Ni  Ni225  1  0.21134760  0.31099287  0.06702139  1.0
  Ni  Ni226  1  0.21134760  0.64432620  0.06702139  1.0
  Ni  Ni227  1  0.21134760  0.97765954  0.06702139  1.0
  Ni  Ni228  1  0.54468093  0.31099287  0.06702139  1.0
  Ni  Ni229  1  0.54468093  0.64432620  0.06702139  1.0
  Ni  Ni230  1  0.54468093  0.97765954  0.06702139  1.0
  Ni  Ni231  1  0.87801426  0.31099287  0.06702139  1.0
  Ni  Ni232  1  0.87801426  0.64432620  0.06702139  1.0
  Ni  Ni233  1  0.87801426  0.97765954  0.06702139  1.0
  Ni  Ni234  1  0.33039521  0.00146906  0.24559282  1.0
  Ni  Ni235  1  0.33039521  0.33480239  0.24559282  1.0
  Ni  Ni236  1  0.33039521  0.66813573  0.24559282  1.0
  Ni  Ni237  1  0.66372855  0.00146906  0.24559282  1.0
  Ni  Ni238  1  0.66372855  0.33480239  0.24559282  1.0
  Ni  Ni239  1  0.66372855  0.66813573  0.24559282  1.0
  Ni  Ni240  1  0.99706188  0.00146906  0.24559282  1.0
  Ni  Ni241  1  0.99706188  0.33480239  0.24559282  1.0
  Ni  Ni242  1  0.99706188  0.66813573  0.24559282  1.0
  Ni  Ni243  1  0.28277617  0.19194525  0.17416425  1.0
  Ni  Ni244  1  0.28277617  0.52527858  0.17416425  1.0
  Ni  Ni245  1  0.28277617  0.85861192  0.17416425  1.0
  Ni  Ni246  1  0.61610950  0.19194525  0.17416425  1.0
  Ni  Ni247  1  0.61610950  0.52527858  0.17416425  1.0
  Ni  Ni248  1  0.61610950  0.85861192  0.17416425  1.0
  Ni  Ni249  1  0.94944283  0.19194525  0.17416425  1.0
  Ni  Ni250  1  0.94944283  0.52527858  0.17416425  1.0
  Ni  Ni251  1  0.94944283  0.85861192  0.17416425  1.0
  Ni  Ni252  1  0.30658569  0.09670715  0.20987854  1.0
  Ni  Ni253  1  0.30658569  0.43004049  0.20987854  1.0
  Ni  Ni254  1  0.30658569  0.76337382  0.20987854  1.0
  Ni  Ni255  1  0.63991902  0.09670715  0.20987854  1.0
  Ni  Ni256  1  0.63991902  0.43004049  0.20987854  1.0
  Ni  Ni257  1  0.63991902  0.76337382  0.20987854  1.0
  Ni  Ni258  1  0.97325236  0.09670715  0.20987854  1.0
  Ni  Ni259  1  0.97325236  0.43004049  0.20987854  1.0
  Ni  Ni260  1  0.97325236  0.76337382  0.20987854  1.0
  Ni  Ni261  1  0.02087140  0.23956430  0.28130711  1.0
  Ni  Ni262  1  0.02087140  0.57289763  0.28130711  1.0
  Ni  Ni263  1  0.02087140  0.90623096  0.28130711  1.0
  Ni  Ni264  1  0.35420474  0.23956430  0.28130711  1.0
  Ni  Ni265  1  0.35420474  0.57289763  0.28130711  1.0
  Ni  Ni266  1  0.35420474  0.90623096  0.28130711  1.0
  Ni  Ni267  1  0.68753807  0.23956430  0.28130711  1.0
  Ni  Ni268  1  0.68753807  0.57289763  0.28130711  1.0
  Ni  Ni269  1  0.68753807  0.90623096  0.28130711  1.0
  Ni  Ni270  1  0.19010055  0.16115673  0.20754582  1.0
  Ni  Ni271  1  0.19010055  0.49449006  0.20754582  1.0
  Ni  Ni272  1  0.19010055  0.82782339  0.20754582  1.0
  Ni  Ni273  1  0.52343388  0.16115673  0.20754582  1.0
  Ni  Ni274  1  0.52343388  0.49449006  0.20754582  1.0
  Ni  Ni275  1  0.52343388  0.82782339  0.20754582  1.0
  Ni  Ni276  1  0.85676721  0.16115673  0.20754582  1.0
  Ni  Ni277  1  0.85676721  0.49449006  0.20754582  1.0
  Ni  Ni278  1  0.85676721  0.82782339  0.20754582  1.0
  Ni  Ni279  1  0.23771960  0.30401387  0.27897439  1.0
  Ni  Ni280  1  0.23771960  0.63734720  0.27897439  1.0
  Ni  Ni281  1  0.23771960  0.97068054  0.27897439  1.0
  Ni  Ni282  1  0.57105293  0.30401387  0.27897439  1.0
  Ni  Ni283  1  0.57105293  0.63734720  0.27897439  1.0
  Ni  Ni284  1  0.57105293  0.97068054  0.27897439  1.0
  Ni  Ni285  1  0.90438626  0.30401387  0.27897439  1.0
  Ni  Ni286  1  0.90438626  0.63734720  0.27897439  1.0
  Ni  Ni287  1  0.90438626  0.97068054  0.27897439  1.0
  Ni  Ni288  1  0.08973750  0.03225758  0.21221125  1.0
  Ni  Ni289  1  0.08973750  0.36559092  0.21221125  1.0
  Ni  Ni290  1  0.08973750  0.69892425  0.21221125  1.0
  Ni  Ni291  1  0.42307083  0.03225758  0.21221125  1.0
  Ni  Ni292  1  0.42307083  0.36559092  0.21221125  1.0
  Ni  Ni293  1  0.42307083  0.69892425  0.21221125  1.0
  Ni  Ni294  1  0.75640417  0.03225758  0.21221125  1.0
  Ni  Ni295  1  0.75640417  0.36559092  0.21221125  1.0
  Ni  Ni296  1  0.75640417  0.69892425  0.21221125  1.0
  Ni  Ni297  1  0.13735655  0.17511473  0.28363982  1.0
  Ni  Ni298  1  0.13735655  0.50844806  0.28363982  1.0
  Ni  Ni299  1  0.13735655  0.84178139  0.28363982  1.0
  Ni  Ni300  1  0.47068988  0.17511473  0.28363982  1.0
  Ni  Ni301  1  0.47068988  0.50844806  0.28363982  1.0
  Ni  Ni302  1  0.47068988  0.84178139  0.28363982  1.0
  Ni  Ni303  1  0.80402321  0.17511473  0.28363982  1.0
  Ni  Ni304  1  0.80402321  0.50844806  0.28363982  1.0
  Ni  Ni305  1  0.80402321  0.84178139  0.28363982  1.0
  Ni  Ni306  1  0.13686564  0.06367635  0.28290346  1.0
  Ni  Ni307  1  0.13686564  0.39700968  0.28290346  1.0
  Ni  Ni308  1  0.13686564  0.73034301  0.28290346  1.0
  Ni  Ni309  1  0.47019898  0.06367635  0.28290346  1.0
  Ni  Ni310  1  0.47019898  0.39700968  0.28290346  1.0
  Ni  Ni311  1  0.47019898  0.73034301  0.28290346  1.0
  Ni  Ni312  1  0.80353231  0.06367635  0.28290346  1.0
  Ni  Ni313  1  0.80353231  0.39700968  0.28290346  1.0
  Ni  Ni314  1  0.80353231  0.73034301  0.28290346  1.0
  Ni  Ni315  1  0.08924660  0.25415254  0.21147489  1.0
  Ni  Ni316  1  0.08924660  0.58748587  0.21147489  1.0
  Ni  Ni317  1  0.08924660  0.92081920  0.21147489  1.0
  Ni  Ni318  1  0.42257993  0.25415254  0.21147489  1.0
  Ni  Ni319  1  0.42257993  0.58748587  0.21147489  1.0
  Ni  Ni320  1  0.42257993  0.92081920  0.21147489  1.0
  Ni  Ni321  1  0.75591326  0.25415254  0.21147489  1.0
  Ni  Ni322  1  0.75591326  0.58748587  0.21147489  1.0
  Ni  Ni323  1  0.75591326  0.92081920  0.21147489  1.0
  Ni  Ni324  1  0.23821050  0.08211892  0.27971075  1.0
  Ni  Ni325  1  0.23821050  0.41545225  0.27971075  1.0
  Ni  Ni326  1  0.23821050  0.74878558  0.27971075  1.0
  Ni  Ni327  1  0.57154383  0.08211892  0.27971075  1.0
  Ni  Ni328  1  0.57154383  0.41545225  0.27971075  1.0
  Ni  Ni329  1  0.57154383  0.74878558  0.27971075  1.0
  Ni  Ni330  1  0.90487717  0.08211892  0.27971075  1.0
  Ni  Ni331  1  0.90487717  0.41545225  0.27971075  1.0
  Ni  Ni332  1  0.90487717  0.74878558  0.27971075  1.0
  Ni  Ni333  1  0.19059145  0.27259511  0.20828218  1.0
  Ni  Ni334  1  0.19059145  0.60592844  0.20828218  1.0
  Ni  Ni335  1  0.19059145  0.93926177  0.20828218  1.0
  Ni  Ni336  1  0.52392479  0.27259511  0.20828218  1.0
  Ni  Ni337  1  0.52392479  0.60592844  0.20828218  1.0
  Ni  Ni338  1  0.52392479  0.93926177  0.20828218  1.0
  Ni  Ni339  1  0.85725812  0.27259511  0.20828218  1.0
  Ni  Ni340  1  0.85725812  0.60592844  0.20828218  1.0
  Ni  Ni341  1  0.85725812  0.93926177  0.20828218  1.0
  Ni  Ni342  1  0.02087140  0.07289763  0.28130711  1.0
  Ni  Ni343  1  0.02087140  0.40623096  0.28130711  1.0
  Ni  Ni344  1  0.02087140  0.73956430  0.28130711  1.0
  Ni  Ni345  1  0.35420474  0.07289763  0.28130711  1.0
  Ni  Ni346  1  0.35420474  0.40623096  0.28130711  1.0
  Ni  Ni347  1  0.35420474  0.73956430  0.28130711  1.0
  Ni  Ni348  1  0.68753807  0.07289763  0.28130711  1.0
  Ni  Ni349  1  0.68753807  0.40623096  0.28130711  1.0
  Ni  Ni350  1  0.68753807  0.73956430  0.28130711  1.0
  Ni  Ni351  1  0.30658569  0.26337382  0.20987854  1.0
  Ni  Ni352  1  0.30658569  0.59670715  0.20987854  1.0
  Ni  Ni353  1  0.30658569  0.93004049  0.20987854  1.0
  Ni  Ni354  1  0.63991902  0.26337382  0.20987854  1.0
  Ni  Ni355  1  0.63991902  0.59670715  0.20987854  1.0
  Ni  Ni356  1  0.63991902  0.93004049  0.20987854  1.0
  Ni  Ni357  1  0.97325236  0.26337382  0.20987854  1.0
  Ni  Ni358  1  0.97325236  0.59670715  0.20987854  1.0
  Ni  Ni359  1  0.97325236  0.93004049  0.20987854  1.0
  Ni  Ni360  1  0.09229998  0.28718335  0.38844996  1.0
  Ni  Ni361  1  0.09229998  0.62051668  0.38844996  1.0
  Ni  Ni362  1  0.09229998  0.95385001  0.38844996  1.0
  Ni  Ni363  1  0.42563331  0.28718335  0.38844996  1.0
  Ni  Ni364  1  0.42563331  0.62051668  0.38844996  1.0
  Ni  Ni365  1  0.42563331  0.95385001  0.38844996  1.0
  Ni  Ni366  1  0.75896664  0.28718335  0.38844996  1.0
  Ni  Ni367  1  0.75896664  0.62051668  0.38844996  1.0
  Ni  Ni368  1  0.75896664  0.95385001  0.38844996  1.0
  Ni  Ni369  1  0.04468093  0.14432620  0.31702139  1.0
  Ni  Ni370  1  0.04468093  0.47765954  0.31702139  1.0
  Ni  Ni371  1  0.04468093  0.81099287  0.31702139  1.0
  Ni  Ni372  1  0.37801426  0.14432620  0.31702139  1.0
  Ni  Ni373  1  0.37801426  0.47765954  0.31702139  1.0
  Ni  Ni374  1  0.37801426  0.81099287  0.31702139  1.0
  Ni  Ni375  1  0.71134760  0.14432620  0.31702139  1.0
  Ni  Ni376  1  0.71134760  0.47765954  0.31702139  1.0
  Ni  Ni377  1  0.71134760  0.81099287  0.31702139  1.0
  Ni  Ni378  1  0.06849045  0.04908811  0.35273568  1.0
  Ni  Ni379  1  0.06849045  0.38242144  0.35273568  1.0
  Ni  Ni380  1  0.06849045  0.71575477  0.35273568  1.0
  Ni  Ni381  1  0.40182379  0.04908811  0.35273568  1.0
  Ni  Ni382  1  0.40182379  0.38242144  0.35273568  1.0
  Ni  Ni383  1  0.40182379  0.71575477  0.35273568  1.0
  Ni  Ni384  1  0.73515712  0.04908811  0.35273568  1.0
  Ni  Ni385  1  0.73515712  0.38242144  0.35273568  1.0
  Ni  Ni386  1  0.73515712  0.71575477  0.35273568  1.0
  Ni  Ni387  1  0.11610950  0.19194525  0.42416425  1.0
  Ni  Ni388  1  0.11610950  0.52527858  0.42416425  1.0
  Ni  Ni389  1  0.11610950  0.85861192  0.42416425  1.0
  Ni  Ni390  1  0.44944283  0.19194525  0.42416425  1.0
  Ni  Ni391  1  0.44944283  0.52527858  0.42416425  1.0
  Ni  Ni392  1  0.44944283  0.85861192  0.42416425  1.0
  Ni  Ni393  1  0.78277617  0.19194525  0.42416425  1.0
  Ni  Ni394  1  0.78277617  0.52527858  0.42416425  1.0
  Ni  Ni395  1  0.78277617  0.85861192  0.42416425  1.0
  Ni  Ni396  1  0.28533864  0.11353768  0.35040296  1.0
  Ni  Ni397  1  0.28533864  0.44687101  0.35040296  1.0
  Ni  Ni398  1  0.28533864  0.78020435  0.35040296  1.0
  Ni  Ni399  1  0.61867198  0.11353768  0.35040296  1.0
  Ni  Ni400  1  0.61867198  0.44687101  0.35040296  1.0
  Ni  Ni401  1  0.61867198  0.78020435  0.35040296  1.0
  Ni  Ni402  1  0.95200531  0.11353768  0.35040296  1.0
  Ni  Ni403  1  0.95200531  0.44687101  0.35040296  1.0
  Ni  Ni404  1  0.95200531  0.78020435  0.35040296  1.0
  Ni  Ni405  1  0.33295769  0.25639482  0.42183154  1.0
  Ni  Ni406  1  0.33295769  0.58972815  0.42183154  1.0
  Ni  Ni407  1  0.33295769  0.92306149  0.42183154  1.0
  Ni  Ni408  1  0.66629102  0.25639482  0.42183154  1.0
  Ni  Ni409  1  0.66629102  0.58972815  0.42183154  1.0
  Ni  Ni410  1  0.66629102  0.92306149  0.42183154  1.0
  Ni  Ni411  1  0.99962436  0.25639482  0.42183154  1.0
  Ni  Ni412  1  0.99962436  0.58972815  0.42183154  1.0
  Ni  Ni413  1  0.99962436  0.92306149  0.42183154  1.0
  Ni  Ni414  1  0.18497560  0.31797187  0.35506839  1.0
  Ni  Ni415  1  0.18497560  0.65130520  0.35506839  1.0
  Ni  Ni416  1  0.18497560  0.98463854  0.35506839  1.0
  Ni  Ni417  1  0.51830893  0.31797187  0.35506839  1.0
  Ni  Ni418  1  0.51830893  0.65130520  0.35506839  1.0
  Ni  Ni419  1  0.51830893  0.98463854  0.35506839  1.0
  Ni  Ni420  1  0.85164226  0.31797187  0.35506839  1.0
  Ni  Ni421  1  0.85164226  0.65130520  0.35506839  1.0
  Ni  Ni422  1  0.85164226  0.98463854  0.35506839  1.0
  Ni  Ni423  1  0.23259464  0.12749568  0.42649696  1.0
  Ni  Ni424  1  0.23259464  0.46082901  0.42649696  1.0
  Ni  Ni425  1  0.23259464  0.79416235  0.42649696  1.0
  Ni  Ni426  1  0.56592798  0.12749568  0.42649696  1.0
  Ni  Ni427  1  0.56592798  0.46082901  0.42649696  1.0
  Ni  Ni428  1  0.56592798  0.79416235  0.42649696  1.0
  Ni  Ni429  1  0.89926131  0.12749568  0.42649696  1.0
  Ni  Ni430  1  0.89926131  0.46082901  0.42649696  1.0
  Ni  Ni431  1  0.89926131  0.79416235  0.42649696  1.0
  Ni  Ni432  1  0.23210374  0.01605730  0.42576061  1.0
  Ni  Ni433  1  0.23210374  0.34939063  0.42576061  1.0
  Ni  Ni434  1  0.23210374  0.68272396  0.42576061  1.0
  Ni  Ni435  1  0.56543707  0.01605730  0.42576061  1.0
  Ni  Ni436  1  0.56543707  0.34939063  0.42576061  1.0
  Ni  Ni437  1  0.56543707  0.68272396  0.42576061  1.0
  Ni  Ni438  1  0.89877040  0.01605730  0.42576061  1.0
  Ni  Ni439  1  0.89877040  0.34939063  0.42576061  1.0
  Ni  Ni440  1  0.89877040  0.68272396  0.42576061  1.0
  Ni  Ni441  1  0.18448469  0.20653349  0.35433204  1.0
  Ni  Ni442  1  0.18448469  0.53986682  0.35433204  1.0
  Ni  Ni443  1  0.18448469  0.87320015  0.35433204  1.0
  Ni  Ni444  1  0.51781802  0.20653349  0.35433204  1.0
  Ni  Ni445  1  0.51781802  0.53986682  0.35433204  1.0
  Ni  Ni446  1  0.51781802  0.87320015  0.35433204  1.0
  Ni  Ni447  1  0.85115136  0.20653349  0.35433204  1.0
  Ni  Ni448  1  0.85115136  0.53986682  0.35433204  1.0
  Ni  Ni449  1  0.85115136  0.87320015  0.35433204  1.0
  Ni  Ni450  1  0.00011526  0.03449987  0.42256789  1.0
  Ni  Ni451  1  0.00011526  0.36783320  0.42256789  1.0
  Ni  Ni452  1  0.00011526  0.70116654  0.42256789  1.0
  Ni  Ni453  1  0.33344860  0.03449987  0.42256789  1.0
  Ni  Ni454  1  0.33344860  0.36783320  0.42256789  1.0
  Ni  Ni455  1  0.33344860  0.70116654  0.42256789  1.0
  Ni  Ni456  1  0.66678193  0.03449987  0.42256789  1.0
  Ni  Ni457  1  0.66678193  0.36783320  0.42256789  1.0
  Ni  Ni458  1  0.66678193  0.70116654  0.42256789  1.0
  Ni  Ni459  1  0.28582955  0.22497606  0.35113932  1.0
  Ni  Ni460  1  0.28582955  0.55830939  0.35113932  1.0
  Ni  Ni461  1  0.28582955  0.89164273  0.35113932  1.0
  Ni  Ni462  1  0.61916288  0.22497606  0.35113932  1.0
  Ni  Ni463  1  0.61916288  0.55830939  0.35113932  1.0
  Ni  Ni464  1  0.61916288  0.89164273  0.35113932  1.0
  Ni  Ni465  1  0.95249621  0.22497606  0.35113932  1.0
  Ni  Ni466  1  0.95249621  0.55830939  0.35113932  1.0
  Ni  Ni467  1  0.95249621  0.89164273  0.35113932  1.0
  Ni  Ni468  1  0.11610950  0.02527858  0.42416425  1.0
  Ni  Ni469  1  0.11610950  0.35861192  0.42416425  1.0
  Ni  Ni470  1  0.11610950  0.69194525  0.42416425  1.0
  Ni  Ni471  1  0.44944283  0.02527858  0.42416425  1.0
  Ni  Ni472  1  0.44944283  0.35861192  0.42416425  1.0
  Ni  Ni473  1  0.44944283  0.69194525  0.42416425  1.0
  Ni  Ni474  1  0.78277617  0.02527858  0.42416425  1.0
  Ni  Ni475  1  0.78277617  0.35861192  0.42416425  1.0
  Ni  Ni476  1  0.78277617  0.69194525  0.42416425  1.0
  Ni  Ni477  1  0.06849045  0.21575477  0.35273568  1.0
  Ni  Ni478  1  0.06849045  0.54908811  0.35273568  1.0
  Ni  Ni479  1  0.06849045  0.88242144  0.35273568  1.0
  Ni  Ni480  1  0.40182379  0.21575477  0.35273568  1.0
  Ni  Ni481  1  0.40182379  0.54908811  0.35273568  1.0
  Ni  Ni482  1  0.40182379  0.88242144  0.35273568  1.0
  Ni  Ni483  1  0.73515712  0.21575477  0.35273568  1.0
  Ni  Ni484  1  0.73515712  0.54908811  0.35273568  1.0
  Ni  Ni485  1  0.73515712  0.88242144  0.35273568  1.0
