# generated using pymatgen
data_Hf3Ni
_symmetry_space_group_name_H-M   'P 1'
_cell_length_a   47.02026388
_cell_length_b   23.24627372
_cell_length_c   44.95454100
_cell_angle_alpha   49.86334471
_cell_angle_beta   90.00000000
_cell_angle_gamma   54.69599961
_symmetry_Int_Tables_number   1
_chemical_formula_structural   Hf3Ni
_chemical_formula_sum   'Hf432 Ni144'
_cell_volume   24592.70381428
_cell_formula_units_Z   144
loop_
 _symmetry_equiv_pos_site_id
 _symmetry_equiv_pos_as_xyz
  1  'x, y, z'
loop_
 _atom_site_type_symbol
 _atom_site_label
 _atom_site_symmetry_multiplicity
 _atom_site_fract_x
 _atom_site_fract_y
 _atom_site_fract_z
 _atom_site_occupancy
  Hf  Hf0  1  0.19530617  0.19530617  0.01823128  1.0
  Hf  Hf1  1  0.19530617  0.52863950  0.01823128  1.0
  Hf  Hf2  1  0.19530617  0.86197283  0.01823128  1.0
  Hf  Hf3  1  0.52863950  0.19530617  0.01823128  1.0
  Hf  Hf4  1  0.52863950  0.52863950  0.01823128  1.0
  Hf  Hf5  1  0.52863950  0.86197283  0.01823128  1.0
  Hf  Hf6  1  0.86197283  0.19530617  0.01823128  1.0
  Hf  Hf7  1  0.86197283  0.52863950  0.01823128  1.0
  Hf  Hf8  1  0.86197283  0.86197283  0.01823128  1.0
  Hf  Hf9  1  0.02863950  0.02863950  0.07378683  1.0
  Hf  Hf10  1  0.02863950  0.36197283  0.07378683  1.0
  Hf  Hf11  1  0.02863950  0.69530617  0.07378683  1.0
  Hf  Hf12  1  0.36197283  0.02863950  0.07378683  1.0
  Hf  Hf13  1  0.36197283  0.36197283  0.07378683  1.0
  Hf  Hf14  1  0.36197283  0.69530617  0.07378683  1.0
  Hf  Hf15  1  0.69530617  0.02863950  0.07378683  1.0
  Hf  Hf16  1  0.69530617  0.36197283  0.07378683  1.0
  Hf  Hf17  1  0.69530617  0.69530617  0.07378683  1.0
  Hf  Hf18  1  0.19530617  0.02346917  0.07551028  1.0
  Hf  Hf19  1  0.19530617  0.35680250  0.07551028  1.0
  Hf  Hf20  1  0.19530617  0.69013583  0.07551028  1.0
  Hf  Hf21  1  0.52863950  0.02346917  0.07551028  1.0
  Hf  Hf22  1  0.52863950  0.35680250  0.07551028  1.0
  Hf  Hf23  1  0.52863950  0.69013583  0.07551028  1.0
  Hf  Hf24  1  0.86197283  0.02346917  0.07551028  1.0
  Hf  Hf25  1  0.86197283  0.35680250  0.07551028  1.0
  Hf  Hf26  1  0.86197283  0.69013583  0.07551028  1.0
  Hf  Hf27  1  0.02863950  0.19013583  0.01995472  1.0
  Hf  Hf28  1  0.02863950  0.52346917  0.01995472  1.0
  Hf  Hf29  1  0.02863950  0.85680250  0.01995472  1.0
  Hf  Hf30  1  0.36197283  0.19013583  0.01995472  1.0
  Hf  Hf31  1  0.36197283  0.52346917  0.01995472  1.0
  Hf  Hf32  1  0.36197283  0.85680250  0.01995472  1.0
  Hf  Hf33  1  0.69530617  0.19013583  0.01995472  1.0
  Hf  Hf34  1  0.69530617  0.52346917  0.01995472  1.0
  Hf  Hf35  1  0.69530617  0.85680250  0.01995472  1.0
  Hf  Hf36  1  0.22394567  0.05210867  0.01040822  1.0
  Hf  Hf37  1  0.22394567  0.38544200  0.01040822  1.0
  Hf  Hf38  1  0.22394567  0.71877533  0.01040822  1.0
  Hf  Hf39  1  0.55727900  0.05210867  0.01040822  1.0
  Hf  Hf40  1  0.55727900  0.38544200  0.01040822  1.0
  Hf  Hf41  1  0.55727900  0.71877533  0.01040822  1.0
  Hf  Hf42  1  0.89061233  0.05210867  0.01040822  1.0
  Hf  Hf43  1  0.89061233  0.38544200  0.01040822  1.0
  Hf  Hf44  1  0.89061233  0.71877533  0.01040822  1.0
  Hf  Hf45  1  0.05727900  0.21877533  0.06596378  1.0
  Hf  Hf46  1  0.05727900  0.55210867  0.06596378  1.0
  Hf  Hf47  1  0.05727900  0.88544200  0.06596378  1.0
  Hf  Hf48  1  0.39061233  0.21877533  0.06596378  1.0
  Hf  Hf49  1  0.39061233  0.55210867  0.06596378  1.0
  Hf  Hf50  1  0.39061233  0.88544200  0.06596378  1.0
  Hf  Hf51  1  0.72394567  0.21877533  0.06596378  1.0
  Hf  Hf52  1  0.72394567  0.55210867  0.06596378  1.0
  Hf  Hf53  1  0.72394567  0.88544200  0.06596378  1.0
  Hf  Hf54  1  0.30469383  0.30469383  0.03732428  1.0
  Hf  Hf55  1  0.30469383  0.63802717  0.03732428  1.0
  Hf  Hf56  1  0.30469383  0.97136050  0.03732428  1.0
  Hf  Hf57  1  0.63802717  0.30469383  0.03732428  1.0
  Hf  Hf58  1  0.63802717  0.63802717  0.03732428  1.0
  Hf  Hf59  1  0.63802717  0.97136050  0.03732428  1.0
  Hf  Hf60  1  0.97136050  0.30469383  0.03732428  1.0
  Hf  Hf61  1  0.97136050  0.63802717  0.03732428  1.0
  Hf  Hf62  1  0.97136050  0.97136050  0.03732428  1.0
  Hf  Hf63  1  0.13802717  0.13802717  0.09287983  1.0
  Hf  Hf64  1  0.13802717  0.47136050  0.09287983  1.0
  Hf  Hf65  1  0.13802717  0.80469383  0.09287983  1.0
  Hf  Hf66  1  0.47136050  0.13802717  0.09287983  1.0
  Hf  Hf67  1  0.47136050  0.47136050  0.09287983  1.0
  Hf  Hf68  1  0.47136050  0.80469383  0.09287983  1.0
  Hf  Hf69  1  0.80469383  0.13802717  0.09287983  1.0
  Hf  Hf70  1  0.80469383  0.47136050  0.09287983  1.0
  Hf  Hf71  1  0.80469383  0.80469383  0.09287983  1.0
  Hf  Hf72  1  0.30469383  0.14319750  0.09115639  1.0
  Hf  Hf73  1  0.30469383  0.47653083  0.09115639  1.0
  Hf  Hf74  1  0.30469383  0.80986417  0.09115639  1.0
  Hf  Hf75  1  0.63802717  0.14319750  0.09115639  1.0
  Hf  Hf76  1  0.63802717  0.47653083  0.09115639  1.0
  Hf  Hf77  1  0.63802717  0.80986417  0.09115639  1.0
  Hf  Hf78  1  0.97136050  0.14319750  0.09115639  1.0
  Hf  Hf79  1  0.97136050  0.47653083  0.09115639  1.0
  Hf  Hf80  1  0.97136050  0.80986417  0.09115639  1.0
  Hf  Hf81  1  0.13802717  0.30986417  0.03560083  1.0
  Hf  Hf82  1  0.13802717  0.64319750  0.03560083  1.0
  Hf  Hf83  1  0.13802717  0.97653083  0.03560083  1.0
  Hf  Hf84  1  0.47136050  0.30986417  0.03560083  1.0
  Hf  Hf85  1  0.47136050  0.64319750  0.03560083  1.0
  Hf  Hf86  1  0.47136050  0.97653083  0.03560083  1.0
  Hf  Hf87  1  0.80469383  0.30986417  0.03560083  1.0
  Hf  Hf88  1  0.80469383  0.64319750  0.03560083  1.0
  Hf  Hf89  1  0.80469383  0.97653083  0.03560083  1.0
  Hf  Hf90  1  0.27605433  0.11455800  0.04514733  1.0
  Hf  Hf91  1  0.27605433  0.44789133  0.04514733  1.0
  Hf  Hf92  1  0.27605433  0.78122467  0.04514733  1.0
  Hf  Hf93  1  0.60938767  0.11455800  0.04514733  1.0
  Hf  Hf94  1  0.60938767  0.44789133  0.04514733  1.0
  Hf  Hf95  1  0.60938767  0.78122467  0.04514733  1.0
  Hf  Hf96  1  0.94272100  0.11455800  0.04514733  1.0
  Hf  Hf97  1  0.94272100  0.44789133  0.04514733  1.0
  Hf  Hf98  1  0.94272100  0.78122467  0.04514733  1.0
  Hf  Hf99  1  0.10938767  0.28122467  0.10070289  1.0
  Hf  Hf100  1  0.10938767  0.61455800  0.10070289  1.0
  Hf  Hf101  1  0.10938767  0.94789133  0.10070289  1.0
  Hf  Hf102  1  0.44272100  0.28122467  0.10070289  1.0
  Hf  Hf103  1  0.44272100  0.61455800  0.10070289  1.0
  Hf  Hf104  1  0.44272100  0.94789133  0.10070289  1.0
  Hf  Hf105  1  0.77605433  0.28122467  0.10070289  1.0
  Hf  Hf106  1  0.77605433  0.61455800  0.10070289  1.0
  Hf  Hf107  1  0.77605433  0.94789133  0.10070289  1.0
  Ni  Ni108  1  0.27777778  0.27777778  0.10185185  1.0
  Ni  Ni109  1  0.27777778  0.61111111  0.10185185  1.0
  Ni  Ni110  1  0.27777778  0.94444444  0.10185185  1.0
  Ni  Ni111  1  0.61111111  0.27777778  0.10185185  1.0
  Ni  Ni112  1  0.61111111  0.61111111  0.10185185  1.0
  Ni  Ni113  1  0.61111111  0.94444444  0.10185185  1.0
  Ni  Ni114  1  0.94444444  0.27777778  0.10185185  1.0
  Ni  Ni115  1  0.94444444  0.61111111  0.10185185  1.0
  Ni  Ni116  1  0.94444444  0.94444444  0.10185185  1.0
  Ni  Ni117  1  0.11111111  0.11111111  0.04629630  1.0
  Ni  Ni118  1  0.11111111  0.44444444  0.04629630  1.0
  Ni  Ni119  1  0.11111111  0.77777778  0.04629630  1.0
  Ni  Ni120  1  0.44444444  0.11111111  0.04629630  1.0
  Ni  Ni121  1  0.44444444  0.44444444  0.04629630  1.0
  Ni  Ni122  1  0.44444444  0.77777778  0.04629630  1.0
  Ni  Ni123  1  0.77777778  0.11111111  0.04629630  1.0
  Ni  Ni124  1  0.77777778  0.44444444  0.04629630  1.0
  Ni  Ni125  1  0.77777778  0.77777778  0.04629630  1.0
  Ni  Ni126  1  0.22222222  0.22222222  0.06481481  1.0
  Ni  Ni127  1  0.22222222  0.55555556  0.06481481  1.0
  Ni  Ni128  1  0.22222222  0.88888889  0.06481481  1.0
  Ni  Ni129  1  0.55555556  0.22222222  0.06481481  1.0
  Ni  Ni130  1  0.55555556  0.55555556  0.06481481  1.0
  Ni  Ni131  1  0.55555556  0.88888889  0.06481481  1.0
  Ni  Ni132  1  0.88888889  0.22222222  0.06481481  1.0
  Ni  Ni133  1  0.88888889  0.55555556  0.06481481  1.0
  Ni  Ni134  1  0.88888889  0.88888889  0.06481481  1.0
  Ni  Ni135  1  0.05555556  0.05555556  0.00925926  1.0
  Ni  Ni136  1  0.05555556  0.38888889  0.00925926  1.0
  Ni  Ni137  1  0.05555556  0.72222222  0.00925926  1.0
  Ni  Ni138  1  0.38888889  0.05555556  0.00925926  1.0
  Ni  Ni139  1  0.38888889  0.38888889  0.00925926  1.0
  Ni  Ni140  1  0.38888889  0.72222222  0.00925926  1.0
  Ni  Ni141  1  0.72222222  0.05555556  0.00925926  1.0
  Ni  Ni142  1  0.72222222  0.38888889  0.00925926  1.0
  Ni  Ni143  1  0.72222222  0.72222222  0.00925926  1.0
  Hf  Hf144  1  0.19530617  0.19530617  0.12934239  1.0
  Hf  Hf145  1  0.19530617  0.52863950  0.12934239  1.0
  Hf  Hf146  1  0.19530617  0.86197283  0.12934239  1.0
  Hf  Hf147  1  0.52863950  0.19530617  0.12934239  1.0
  Hf  Hf148  1  0.52863950  0.52863950  0.12934239  1.0
  Hf  Hf149  1  0.52863950  0.86197283  0.12934239  1.0
  Hf  Hf150  1  0.86197283  0.19530617  0.12934239  1.0
  Hf  Hf151  1  0.86197283  0.52863950  0.12934239  1.0
  Hf  Hf152  1  0.86197283  0.86197283  0.12934239  1.0
  Hf  Hf153  1  0.02863950  0.02863950  0.18489794  1.0
  Hf  Hf154  1  0.02863950  0.36197283  0.18489794  1.0
  Hf  Hf155  1  0.02863950  0.69530617  0.18489794  1.0
  Hf  Hf156  1  0.36197283  0.02863950  0.18489794  1.0
  Hf  Hf157  1  0.36197283  0.36197283  0.18489794  1.0
  Hf  Hf158  1  0.36197283  0.69530617  0.18489794  1.0
  Hf  Hf159  1  0.69530617  0.02863950  0.18489794  1.0
  Hf  Hf160  1  0.69530617  0.36197283  0.18489794  1.0
  Hf  Hf161  1  0.69530617  0.69530617  0.18489794  1.0
  Hf  Hf162  1  0.19530617  0.02346917  0.18662139  1.0
  Hf  Hf163  1  0.19530617  0.35680250  0.18662139  1.0
  Hf  Hf164  1  0.19530617  0.69013583  0.18662139  1.0
  Hf  Hf165  1  0.52863950  0.02346917  0.18662139  1.0
  Hf  Hf166  1  0.52863950  0.35680250  0.18662139  1.0
  Hf  Hf167  1  0.52863950  0.69013583  0.18662139  1.0
  Hf  Hf168  1  0.86197283  0.02346917  0.18662139  1.0
  Hf  Hf169  1  0.86197283  0.35680250  0.18662139  1.0
  Hf  Hf170  1  0.86197283  0.69013583  0.18662139  1.0
  Hf  Hf171  1  0.02863950  0.19013583  0.13106583  1.0
  Hf  Hf172  1  0.02863950  0.52346917  0.13106583  1.0
  Hf  Hf173  1  0.02863950  0.85680250  0.13106583  1.0
  Hf  Hf174  1  0.36197283  0.19013583  0.13106583  1.0
  Hf  Hf175  1  0.36197283  0.52346917  0.13106583  1.0
  Hf  Hf176  1  0.36197283  0.85680250  0.13106583  1.0
  Hf  Hf177  1  0.69530617  0.19013583  0.13106583  1.0
  Hf  Hf178  1  0.69530617  0.52346917  0.13106583  1.0
  Hf  Hf179  1  0.69530617  0.85680250  0.13106583  1.0
  Hf  Hf180  1  0.22394567  0.05210867  0.12151933  1.0
  Hf  Hf181  1  0.22394567  0.38544200  0.12151933  1.0
  Hf  Hf182  1  0.22394567  0.71877533  0.12151933  1.0
  Hf  Hf183  1  0.55727900  0.05210867  0.12151933  1.0
  Hf  Hf184  1  0.55727900  0.38544200  0.12151933  1.0
  Hf  Hf185  1  0.55727900  0.71877533  0.12151933  1.0
  Hf  Hf186  1  0.89061233  0.05210867  0.12151933  1.0
  Hf  Hf187  1  0.89061233  0.38544200  0.12151933  1.0
  Hf  Hf188  1  0.89061233  0.71877533  0.12151933  1.0
  Hf  Hf189  1  0.05727900  0.21877533  0.17707489  1.0
  Hf  Hf190  1  0.05727900  0.55210867  0.17707489  1.0
  Hf  Hf191  1  0.05727900  0.88544200  0.17707489  1.0
  Hf  Hf192  1  0.39061233  0.21877533  0.17707489  1.0
  Hf  Hf193  1  0.39061233  0.55210867  0.17707489  1.0
  Hf  Hf194  1  0.39061233  0.88544200  0.17707489  1.0
  Hf  Hf195  1  0.72394567  0.21877533  0.17707489  1.0
  Hf  Hf196  1  0.72394567  0.55210867  0.17707489  1.0
  Hf  Hf197  1  0.72394567  0.88544200  0.17707489  1.0
  Hf  Hf198  1  0.30469383  0.30469383  0.14843539  1.0
  Hf  Hf199  1  0.30469383  0.63802717  0.14843539  1.0
  Hf  Hf200  1  0.30469383  0.97136050  0.14843539  1.0
  Hf  Hf201  1  0.63802717  0.30469383  0.14843539  1.0
  Hf  Hf202  1  0.63802717  0.63802717  0.14843539  1.0
  Hf  Hf203  1  0.63802717  0.97136050  0.14843539  1.0
  Hf  Hf204  1  0.97136050  0.30469383  0.14843539  1.0
  Hf  Hf205  1  0.97136050  0.63802717  0.14843539  1.0
  Hf  Hf206  1  0.97136050  0.97136050  0.14843539  1.0
  Hf  Hf207  1  0.13802717  0.13802717  0.20399094  1.0
  Hf  Hf208  1  0.13802717  0.47136050  0.20399094  1.0
  Hf  Hf209  1  0.13802717  0.80469383  0.20399094  1.0
  Hf  Hf210  1  0.47136050  0.13802717  0.20399094  1.0
  Hf  Hf211  1  0.47136050  0.47136050  0.20399094  1.0
  Hf  Hf212  1  0.47136050  0.80469383  0.20399094  1.0
  Hf  Hf213  1  0.80469383  0.13802717  0.20399094  1.0
  Hf  Hf214  1  0.80469383  0.47136050  0.20399094  1.0
  Hf  Hf215  1  0.80469383  0.80469383  0.20399094  1.0
  Hf  Hf216  1  0.30469383  0.14319750  0.20226750  1.0
  Hf  Hf217  1  0.30469383  0.47653083  0.20226750  1.0
  Hf  Hf218  1  0.30469383  0.80986417  0.20226750  1.0
  Hf  Hf219  1  0.63802717  0.14319750  0.20226750  1.0
  Hf  Hf220  1  0.63802717  0.47653083  0.20226750  1.0
  Hf  Hf221  1  0.63802717  0.80986417  0.20226750  1.0
  Hf  Hf222  1  0.97136050  0.14319750  0.20226750  1.0
  Hf  Hf223  1  0.97136050  0.47653083  0.20226750  1.0
  Hf  Hf224  1  0.97136050  0.80986417  0.20226750  1.0
  Hf  Hf225  1  0.13802717  0.30986417  0.14671194  1.0
  Hf  Hf226  1  0.13802717  0.64319750  0.14671194  1.0
  Hf  Hf227  1  0.13802717  0.97653083  0.14671194  1.0
  Hf  Hf228  1  0.47136050  0.30986417  0.14671194  1.0
  Hf  Hf229  1  0.47136050  0.64319750  0.14671194  1.0
  Hf  Hf230  1  0.47136050  0.97653083  0.14671194  1.0
  Hf  Hf231  1  0.80469383  0.30986417  0.14671194  1.0
  Hf  Hf232  1  0.80469383  0.64319750  0.14671194  1.0
  Hf  Hf233  1  0.80469383  0.97653083  0.14671194  1.0
  Hf  Hf234  1  0.27605433  0.11455800  0.15625844  1.0
  Hf  Hf235  1  0.27605433  0.44789133  0.15625844  1.0
  Hf  Hf236  1  0.27605433  0.78122467  0.15625844  1.0
  Hf  Hf237  1  0.60938767  0.11455800  0.15625844  1.0
  Hf  Hf238  1  0.60938767  0.44789133  0.15625844  1.0
  Hf  Hf239  1  0.60938767  0.78122467  0.15625844  1.0
  Hf  Hf240  1  0.94272100  0.11455800  0.15625844  1.0
  Hf  Hf241  1  0.94272100  0.44789133  0.15625844  1.0
  Hf  Hf242  1  0.94272100  0.78122467  0.15625844  1.0
  Hf  Hf243  1  0.10938767  0.28122467  0.21181400  1.0
  Hf  Hf244  1  0.10938767  0.61455800  0.21181400  1.0
  Hf  Hf245  1  0.10938767  0.94789133  0.21181400  1.0
  Hf  Hf246  1  0.44272100  0.28122467  0.21181400  1.0
  Hf  Hf247  1  0.44272100  0.61455800  0.21181400  1.0
  Hf  Hf248  1  0.44272100  0.94789133  0.21181400  1.0
  Hf  Hf249  1  0.77605433  0.28122467  0.21181400  1.0
  Hf  Hf250  1  0.77605433  0.61455800  0.21181400  1.0
  Hf  Hf251  1  0.77605433  0.94789133  0.21181400  1.0
  Ni  Ni252  1  0.27777778  0.27777778  0.21296296  1.0
  Ni  Ni253  1  0.27777778  0.61111111  0.21296296  1.0
  Ni  Ni254  1  0.27777778  0.94444444  0.21296296  1.0
  Ni  Ni255  1  0.61111111  0.27777778  0.21296296  1.0
  Ni  Ni256  1  0.61111111  0.61111111  0.21296296  1.0
  Ni  Ni257  1  0.61111111  0.94444444  0.21296296  1.0
  Ni  Ni258  1  0.94444444  0.27777778  0.21296296  1.0
  Ni  Ni259  1  0.94444444  0.61111111  0.21296296  1.0
  Ni  Ni260  1  0.94444444  0.94444444  0.21296296  1.0
  Ni  Ni261  1  0.11111111  0.11111111  0.15740741  1.0
  Ni  Ni262  1  0.11111111  0.44444444  0.15740741  1.0
  Ni  Ni263  1  0.11111111  0.77777778  0.15740741  1.0
  Ni  Ni264  1  0.44444444  0.11111111  0.15740741  1.0
  Ni  Ni265  1  0.44444444  0.44444444  0.15740741  1.0
  Ni  Ni266  1  0.44444444  0.77777778  0.15740741  1.0
  Ni  Ni267  1  0.77777778  0.11111111  0.15740741  1.0
  Ni  Ni268  1  0.77777778  0.44444444  0.15740741  1.0
  Ni  Ni269  1  0.77777778  0.77777778  0.15740741  1.0
  Ni  Ni270  1  0.22222222  0.22222222  0.17592593  1.0
  Ni  Ni271  1  0.22222222  0.55555556  0.17592593  1.0
  Ni  Ni272  1  0.22222222  0.88888889  0.17592593  1.0
  Ni  Ni273  1  0.55555556  0.22222222  0.17592593  1.0
  Ni  Ni274  1  0.55555556  0.55555556  0.17592593  1.0
  Ni  Ni275  1  0.55555556  0.88888889  0.17592593  1.0
  Ni  Ni276  1  0.88888889  0.22222222  0.17592593  1.0
  Ni  Ni277  1  0.88888889  0.55555556  0.17592593  1.0
  Ni  Ni278  1  0.88888889  0.88888889  0.17592593  1.0
  Ni  Ni279  1  0.05555556  0.05555556  0.12037037  1.0
  Ni  Ni280  1  0.05555556  0.38888889  0.12037037  1.0
  Ni  Ni281  1  0.05555556  0.72222222  0.12037037  1.0
  Ni  Ni282  1  0.38888889  0.05555556  0.12037037  1.0
  Ni  Ni283  1  0.38888889  0.38888889  0.12037037  1.0
  Ni  Ni284  1  0.38888889  0.72222222  0.12037037  1.0
  Ni  Ni285  1  0.72222222  0.05555556  0.12037037  1.0
  Ni  Ni286  1  0.72222222  0.38888889  0.12037037  1.0
  Ni  Ni287  1  0.72222222  0.72222222  0.12037037  1.0
  Hf  Hf288  1  0.19530617  0.19530617  0.24045350  1.0
  Hf  Hf289  1  0.19530617  0.52863950  0.24045350  1.0
  Hf  Hf290  1  0.19530617  0.86197283  0.24045350  1.0
  Hf  Hf291  1  0.52863950  0.19530617  0.24045350  1.0
  Hf  Hf292  1  0.52863950  0.52863950  0.24045350  1.0
  Hf  Hf293  1  0.52863950  0.86197283  0.24045350  1.0
  Hf  Hf294  1  0.86197283  0.19530617  0.24045350  1.0
  Hf  Hf295  1  0.86197283  0.52863950  0.24045350  1.0
  Hf  Hf296  1  0.86197283  0.86197283  0.24045350  1.0
  Hf  Hf297  1  0.02863950  0.02863950  0.29600906  1.0
  Hf  Hf298  1  0.02863950  0.36197283  0.29600906  1.0
  Hf  Hf299  1  0.02863950  0.69530617  0.29600906  1.0
  Hf  Hf300  1  0.36197283  0.02863950  0.29600906  1.0
  Hf  Hf301  1  0.36197283  0.36197283  0.29600906  1.0
  Hf  Hf302  1  0.36197283  0.69530617  0.29600906  1.0
  Hf  Hf303  1  0.69530617  0.02863950  0.29600906  1.0
  Hf  Hf304  1  0.69530617  0.36197283  0.29600906  1.0
  Hf  Hf305  1  0.69530617  0.69530617  0.29600906  1.0
  Hf  Hf306  1  0.19530617  0.02346917  0.29773250  1.0
  Hf  Hf307  1  0.19530617  0.35680250  0.29773250  1.0
  Hf  Hf308  1  0.19530617  0.69013583  0.29773250  1.0
  Hf  Hf309  1  0.52863950  0.02346917  0.29773250  1.0
  Hf  Hf310  1  0.52863950  0.35680250  0.29773250  1.0
  Hf  Hf311  1  0.52863950  0.69013583  0.29773250  1.0
  Hf  Hf312  1  0.86197283  0.02346917  0.29773250  1.0
  Hf  Hf313  1  0.86197283  0.35680250  0.29773250  1.0
  Hf  Hf314  1  0.86197283  0.69013583  0.29773250  1.0
  Hf  Hf315  1  0.02863950  0.19013583  0.24217694  1.0
  Hf  Hf316  1  0.02863950  0.52346917  0.24217694  1.0
  Hf  Hf317  1  0.02863950  0.85680250  0.24217694  1.0
  Hf  Hf318  1  0.36197283  0.19013583  0.24217694  1.0
  Hf  Hf319  1  0.36197283  0.52346917  0.24217694  1.0
  Hf  Hf320  1  0.36197283  0.85680250  0.24217694  1.0
  Hf  Hf321  1  0.69530617  0.19013583  0.24217694  1.0
  Hf  Hf322  1  0.69530617  0.52346917  0.24217694  1.0
  Hf  Hf323  1  0.69530617  0.85680250  0.24217694  1.0
  Hf  Hf324  1  0.22394567  0.05210867  0.23263044  1.0
  Hf  Hf325  1  0.22394567  0.38544200  0.23263044  1.0
  Hf  Hf326  1  0.22394567  0.71877533  0.23263044  1.0
  Hf  Hf327  1  0.55727900  0.05210867  0.23263044  1.0
  Hf  Hf328  1  0.55727900  0.38544200  0.23263044  1.0
  Hf  Hf329  1  0.55727900  0.71877533  0.23263044  1.0
  Hf  Hf330  1  0.89061233  0.05210867  0.23263044  1.0
  Hf  Hf331  1  0.89061233  0.38544200  0.23263044  1.0
  Hf  Hf332  1  0.89061233  0.71877533  0.23263044  1.0
  Hf  Hf333  1  0.05727900  0.21877533  0.28818600  1.0
  Hf  Hf334  1  0.05727900  0.55210867  0.28818600  1.0
  Hf  Hf335  1  0.05727900  0.88544200  0.28818600  1.0
  Hf  Hf336  1  0.39061233  0.21877533  0.28818600  1.0
  Hf  Hf337  1  0.39061233  0.55210867  0.28818600  1.0
  Hf  Hf338  1  0.39061233  0.88544200  0.28818600  1.0
  Hf  Hf339  1  0.72394567  0.21877533  0.28818600  1.0
  Hf  Hf340  1  0.72394567  0.55210867  0.28818600  1.0
  Hf  Hf341  1  0.72394567  0.88544200  0.28818600  1.0
  Hf  Hf342  1  0.30469383  0.30469383  0.25954650  1.0
  Hf  Hf343  1  0.30469383  0.63802717  0.25954650  1.0
  Hf  Hf344  1  0.30469383  0.97136050  0.25954650  1.0
  Hf  Hf345  1  0.63802717  0.30469383  0.25954650  1.0
  Hf  Hf346  1  0.63802717  0.63802717  0.25954650  1.0
  Hf  Hf347  1  0.63802717  0.97136050  0.25954650  1.0
  Hf  Hf348  1  0.97136050  0.30469383  0.25954650  1.0
  Hf  Hf349  1  0.97136050  0.63802717  0.25954650  1.0
  Hf  Hf350  1  0.97136050  0.97136050  0.25954650  1.0
  Hf  Hf351  1  0.13802717  0.13802717  0.31510206  1.0
  Hf  Hf352  1  0.13802717  0.47136050  0.31510206  1.0
  Hf  Hf353  1  0.13802717  0.80469383  0.31510206  1.0
  Hf  Hf354  1  0.47136050  0.13802717  0.31510206  1.0
  Hf  Hf355  1  0.47136050  0.47136050  0.31510206  1.0
  Hf  Hf356  1  0.47136050  0.80469383  0.31510206  1.0
  Hf  Hf357  1  0.80469383  0.13802717  0.31510206  1.0
  Hf  Hf358  1  0.80469383  0.47136050  0.31510206  1.0
  Hf  Hf359  1  0.80469383  0.80469383  0.31510206  1.0
  Hf  Hf360  1  0.30469383  0.14319750  0.31337861  1.0
  Hf  Hf361  1  0.30469383  0.47653083  0.31337861  1.0
  Hf  Hf362  1  0.30469383  0.80986417  0.31337861  1.0
  Hf  Hf363  1  0.63802717  0.14319750  0.31337861  1.0
  Hf  Hf364  1  0.63802717  0.47653083  0.31337861  1.0
  Hf  Hf365  1  0.63802717  0.80986417  0.31337861  1.0
  Hf  Hf366  1  0.97136050  0.14319750  0.31337861  1.0
  Hf  Hf367  1  0.97136050  0.47653083  0.31337861  1.0
  Hf  Hf368  1  0.97136050  0.80986417  0.31337861  1.0
  Hf  Hf369  1  0.13802717  0.30986417  0.25782306  1.0
  Hf  Hf370  1  0.13802717  0.64319750  0.25782306  1.0
  Hf  Hf371  1  0.13802717  0.97653083  0.25782306  1.0
  Hf  Hf372  1  0.47136050  0.30986417  0.25782306  1.0
  Hf  Hf373  1  0.47136050  0.64319750  0.25782306  1.0
  Hf  Hf374  1  0.47136050  0.97653083  0.25782306  1.0
  Hf  Hf375  1  0.80469383  0.30986417  0.25782306  1.0
  Hf  Hf376  1  0.80469383  0.64319750  0.25782306  1.0
  Hf  Hf377  1  0.80469383  0.97653083  0.25782306  1.0
  Hf  Hf378  1  0.27605433  0.11455800  0.26736956  1.0
  Hf  Hf379  1  0.27605433  0.44789133  0.26736956  1.0
  Hf  Hf380  1  0.27605433  0.78122467  0.26736956  1.0
  Hf  Hf381  1  0.60938767  0.11455800  0.26736956  1.0
  Hf  Hf382  1  0.60938767  0.44789133  0.26736956  1.0
  Hf  Hf383  1  0.60938767  0.78122467  0.26736956  1.0
  Hf  Hf384  1  0.94272100  0.11455800  0.26736956  1.0
  Hf  Hf385  1  0.94272100  0.44789133  0.26736956  1.0
  Hf  Hf386  1  0.94272100  0.78122467  0.26736956  1.0
  Hf  Hf387  1  0.10938767  0.28122467  0.32292511  1.0
  Hf  Hf388  1  0.10938767  0.61455800  0.32292511  1.0
  Hf  Hf389  1  0.10938767  0.94789133  0.32292511  1.0
  Hf  Hf390  1  0.44272100  0.28122467  0.32292511  1.0
  Hf  Hf391  1  0.44272100  0.61455800  0.32292511  1.0
  Hf  Hf392  1  0.44272100  0.94789133  0.32292511  1.0
  Hf  Hf393  1  0.77605433  0.28122467  0.32292511  1.0
  Hf  Hf394  1  0.77605433  0.61455800  0.32292511  1.0
  Hf  Hf395  1  0.77605433  0.94789133  0.32292511  1.0
  Ni  Ni396  1  0.27777778  0.27777778  0.32407407  1.0
  Ni  Ni397  1  0.27777778  0.61111111  0.32407407  1.0
  Ni  Ni398  1  0.27777778  0.94444444  0.32407407  1.0
  Ni  Ni399  1  0.61111111  0.27777778  0.32407407  1.0
  Ni  Ni400  1  0.61111111  0.61111111  0.32407407  1.0
  Ni  Ni401  1  0.61111111  0.94444444  0.32407407  1.0
  Ni  Ni402  1  0.94444444  0.27777778  0.32407407  1.0
  Ni  Ni403  1  0.94444444  0.61111111  0.32407407  1.0
  Ni  Ni404  1  0.94444444  0.94444444  0.32407407  1.0
  Ni  Ni405  1  0.11111111  0.11111111  0.26851852  1.0
  Ni  Ni406  1  0.11111111  0.44444444  0.26851852  1.0
  Ni  Ni407  1  0.11111111  0.77777778  0.26851852  1.0
  Ni  Ni408  1  0.44444444  0.11111111  0.26851852  1.0
  Ni  Ni409  1  0.44444444  0.44444444  0.26851852  1.0
  Ni  Ni410  1  0.44444444  0.77777778  0.26851852  1.0
  Ni  Ni411  1  0.77777778  0.11111111  0.26851852  1.0
  Ni  Ni412  1  0.77777778  0.44444444  0.26851852  1.0
  Ni  Ni413  1  0.77777778  0.77777778  0.26851852  1.0
  Ni  Ni414  1  0.22222222  0.22222222  0.28703704  1.0
  Ni  Ni415  1  0.22222222  0.55555556  0.28703704  1.0
  Ni  Ni416  1  0.22222222  0.88888889  0.28703704  1.0
  Ni  Ni417  1  0.55555556  0.22222222  0.28703704  1.0
  Ni  Ni418  1  0.55555556  0.55555556  0.28703704  1.0
  Ni  Ni419  1  0.55555556  0.88888889  0.28703704  1.0
  Ni  Ni420  1  0.88888889  0.22222222  0.28703704  1.0
  Ni  Ni421  1  0.88888889  0.55555556  0.28703704  1.0
  Ni  Ni422  1  0.88888889  0.88888889  0.28703704  1.0
  Ni  Ni423  1  0.05555556  0.05555556  0.23148148  1.0
  Ni  Ni424  1  0.05555556  0.38888889  0.23148148  1.0
  Ni  Ni425  1  0.05555556  0.72222222  0.23148148  1.0
  Ni  Ni426  1  0.38888889  0.05555556  0.23148148  1.0
  Ni  Ni427  1  0.38888889  0.38888889  0.23148148  1.0
  Ni  Ni428  1  0.38888889  0.72222222  0.23148148  1.0
  Ni  Ni429  1  0.72222222  0.05555556  0.23148148  1.0
  Ni  Ni430  1  0.72222222  0.38888889  0.23148148  1.0
  Ni  Ni431  1  0.72222222  0.72222222  0.23148148  1.0
  Hf  Hf432  1  0.19530617  0.19530617  0.35156461  1.0
  Hf  Hf433  1  0.19530617  0.52863950  0.35156461  1.0
  Hf  Hf434  1  0.19530617  0.86197283  0.35156461  1.0
  Hf  Hf435  1  0.52863950  0.19530617  0.35156461  1.0
  Hf  Hf436  1  0.52863950  0.52863950  0.35156461  1.0
  Hf  Hf437  1  0.52863950  0.86197283  0.35156461  1.0
  Hf  Hf438  1  0.86197283  0.19530617  0.35156461  1.0
  Hf  Hf439  1  0.86197283  0.52863950  0.35156461  1.0
  Hf  Hf440  1  0.86197283  0.86197283  0.35156461  1.0
  Hf  Hf441  1  0.02863950  0.02863950  0.40712017  1.0
  Hf  Hf442  1  0.02863950  0.36197283  0.40712017  1.0
  Hf  Hf443  1  0.02863950  0.69530617  0.40712017  1.0
  Hf  Hf444  1  0.36197283  0.02863950  0.40712017  1.0
  Hf  Hf445  1  0.36197283  0.36197283  0.40712017  1.0
  Hf  Hf446  1  0.36197283  0.69530617  0.40712017  1.0
  Hf  Hf447  1  0.69530617  0.02863950  0.40712017  1.0
  Hf  Hf448  1  0.69530617  0.36197283  0.40712017  1.0
  Hf  Hf449  1  0.69530617  0.69530617  0.40712017  1.0
  Hf  Hf450  1  0.19530617  0.02346917  0.40884361  1.0
  Hf  Hf451  1  0.19530617  0.35680250  0.40884361  1.0
  Hf  Hf452  1  0.19530617  0.69013583  0.40884361  1.0
  Hf  Hf453  1  0.52863950  0.02346917  0.40884361  1.0
  Hf  Hf454  1  0.52863950  0.35680250  0.40884361  1.0
  Hf  Hf455  1  0.52863950  0.69013583  0.40884361  1.0
  Hf  Hf456  1  0.86197283  0.02346917  0.40884361  1.0
  Hf  Hf457  1  0.86197283  0.35680250  0.40884361  1.0
  Hf  Hf458  1  0.86197283  0.69013583  0.40884361  1.0
  Hf  Hf459  1  0.02863950  0.19013583  0.35328806  1.0
  Hf  Hf460  1  0.02863950  0.52346917  0.35328806  1.0
  Hf  Hf461  1  0.02863950  0.85680250  0.35328806  1.0
  Hf  Hf462  1  0.36197283  0.19013583  0.35328806  1.0
  Hf  Hf463  1  0.36197283  0.52346917  0.35328806  1.0
  Hf  Hf464  1  0.36197283  0.85680250  0.35328806  1.0
  Hf  Hf465  1  0.69530617  0.19013583  0.35328806  1.0
  Hf  Hf466  1  0.69530617  0.52346917  0.35328806  1.0
  Hf  Hf467  1  0.69530617  0.85680250  0.35328806  1.0
  Hf  Hf468  1  0.22394567  0.05210867  0.34374156  1.0
  Hf  Hf469  1  0.22394567  0.38544200  0.34374156  1.0
  Hf  Hf470  1  0.22394567  0.71877533  0.34374156  1.0
  Hf  Hf471  1  0.55727900  0.05210867  0.34374156  1.0
  Hf  Hf472  1  0.55727900  0.38544200  0.34374156  1.0
  Hf  Hf473  1  0.55727900  0.71877533  0.34374156  1.0
  Hf  Hf474  1  0.89061233  0.05210867  0.34374156  1.0
  Hf  Hf475  1  0.89061233  0.38544200  0.34374156  1.0
  Hf  Hf476  1  0.89061233  0.71877533  0.34374156  1.0
  Hf  Hf477  1  0.05727900  0.21877533  0.39929711  1.0
  Hf  Hf478  1  0.05727900  0.55210867  0.39929711  1.0
  Hf  Hf479  1  0.05727900  0.88544200  0.39929711  1.0
  Hf  Hf480  1  0.39061233  0.21877533  0.39929711  1.0
  Hf  Hf481  1  0.39061233  0.55210867  0.39929711  1.0
  Hf  Hf482  1  0.39061233  0.88544200  0.39929711  1.0
  Hf  Hf483  1  0.72394567  0.21877533  0.39929711  1.0
  Hf  Hf484  1  0.72394567  0.55210867  0.39929711  1.0
  Hf  Hf485  1  0.72394567  0.88544200  0.39929711  1.0
  Hf  Hf486  1  0.30469383  0.30469383  0.37065761  1.0
  Hf  Hf487  1  0.30469383  0.63802717  0.37065761  1.0
  Hf  Hf488  1  0.30469383  0.97136050  0.37065761  1.0
  Hf  Hf489  1  0.63802717  0.30469383  0.37065761  1.0
  Hf  Hf490  1  0.63802717  0.63802717  0.37065761  1.0
  Hf  Hf491  1  0.63802717  0.97136050  0.37065761  1.0
  Hf  Hf492  1  0.97136050  0.30469383  0.37065761  1.0
  Hf  Hf493  1  0.97136050  0.63802717  0.37065761  1.0
  Hf  Hf494  1  0.97136050  0.97136050  0.37065761  1.0
  Hf  Hf495  1  0.13802717  0.13802717  0.42621317  1.0
  Hf  Hf496  1  0.13802717  0.47136050  0.42621317  1.0
  Hf  Hf497  1  0.13802717  0.80469383  0.42621317  1.0
  Hf  Hf498  1  0.47136050  0.13802717  0.42621317  1.0
  Hf  Hf499  1  0.47136050  0.47136050  0.42621317  1.0
  Hf  Hf500  1  0.47136050  0.80469383  0.42621317  1.0
  Hf  Hf501  1  0.80469383  0.13802717  0.42621317  1.0
  Hf  Hf502  1  0.80469383  0.47136050  0.42621317  1.0
  Hf  Hf503  1  0.80469383  0.80469383  0.42621317  1.0
  Hf  Hf504  1  0.30469383  0.14319750  0.42448972  1.0
  Hf  Hf505  1  0.30469383  0.47653083  0.42448972  1.0
  Hf  Hf506  1  0.30469383  0.80986417  0.42448972  1.0
  Hf  Hf507  1  0.63802717  0.14319750  0.42448972  1.0
  Hf  Hf508  1  0.63802717  0.47653083  0.42448972  1.0
  Hf  Hf509  1  0.63802717  0.80986417  0.42448972  1.0
  Hf  Hf510  1  0.97136050  0.14319750  0.42448972  1.0
  Hf  Hf511  1  0.97136050  0.47653083  0.42448972  1.0
  Hf  Hf512  1  0.97136050  0.80986417  0.42448972  1.0
  Hf  Hf513  1  0.13802717  0.30986417  0.36893417  1.0
  Hf  Hf514  1  0.13802717  0.64319750  0.36893417  1.0
  Hf  Hf515  1  0.13802717  0.97653083  0.36893417  1.0
  Hf  Hf516  1  0.47136050  0.30986417  0.36893417  1.0
  Hf  Hf517  1  0.47136050  0.64319750  0.36893417  1.0
  Hf  Hf518  1  0.47136050  0.97653083  0.36893417  1.0
  Hf  Hf519  1  0.80469383  0.30986417  0.36893417  1.0
  Hf  Hf520  1  0.80469383  0.64319750  0.36893417  1.0
  Hf  Hf521  1  0.80469383  0.97653083  0.36893417  1.0
  Hf  Hf522  1  0.27605433  0.11455800  0.37848067  1.0
  Hf  Hf523  1  0.27605433  0.44789133  0.37848067  1.0
  Hf  Hf524  1  0.27605433  0.78122467  0.37848067  1.0
  Hf  Hf525  1  0.60938767  0.11455800  0.37848067  1.0
  Hf  Hf526  1  0.60938767  0.44789133  0.37848067  1.0
  Hf  Hf527  1  0.60938767  0.78122467  0.37848067  1.0
  Hf  Hf528  1  0.94272100  0.11455800  0.37848067  1.0
  Hf  Hf529  1  0.94272100  0.44789133  0.37848067  1.0
  Hf  Hf530  1  0.94272100  0.78122467  0.37848067  1.0
  Hf  Hf531  1  0.10938767  0.28122467  0.43403622  1.0
  Hf  Hf532  1  0.10938767  0.61455800  0.43403622  1.0
  Hf  Hf533  1  0.10938767  0.94789133  0.43403622  1.0
  Hf  Hf534  1  0.44272100  0.28122467  0.43403622  1.0
  Hf  Hf535  1  0.44272100  0.61455800  0.43403622  1.0
  Hf  Hf536  1  0.44272100  0.94789133  0.43403622  1.0
  Hf  Hf537  1  0.77605433  0.28122467  0.43403622  1.0
  Hf  Hf538  1  0.77605433  0.61455800  0.43403622  1.0
  Hf  Hf539  1  0.77605433  0.94789133  0.43403622  1.0
  Ni  Ni540  1  0.27777778  0.27777778  0.43518519  1.0
  Ni  Ni541  1  0.27777778  0.61111111  0.43518519  1.0
  Ni  Ni542  1  0.27777778  0.94444444  0.43518519  1.0
  Ni  Ni543  1  0.61111111  0.27777778  0.43518519  1.0
  Ni  Ni544  1  0.61111111  0.61111111  0.43518519  1.0
  Ni  Ni545  1  0.61111111  0.94444444  0.43518519  1.0
  Ni  Ni546  1  0.94444444  0.27777778  0.43518519  1.0
  Ni  Ni547  1  0.94444444  0.61111111  0.43518519  1.0
  Ni  Ni548  1  0.94444444  0.94444444  0.43518519  1.0
  Ni  Ni549  1  0.11111111  0.11111111  0.37962963  1.0
  Ni  Ni550  1  0.11111111  0.44444444  0.37962963  1.0
  Ni  Ni551  1  0.11111111  0.77777778  0.37962963  1.0
  Ni  Ni552  1  0.44444444  0.11111111  0.37962963  1.0
  Ni  Ni553  1  0.44444444  0.44444444  0.37962963  1.0
  Ni  Ni554  1  0.44444444  0.77777778  0.37962963  1.0
  Ni  Ni555  1  0.77777778  0.11111111  0.37962963  1.0
  Ni  Ni556  1  0.77777778  0.44444444  0.37962963  1.0
  Ni  Ni557  1  0.77777778  0.77777778  0.37962963  1.0
  Ni  Ni558  1  0.22222222  0.22222222  0.39814815  1.0
  Ni  Ni559  1  0.22222222  0.55555556  0.39814815  1.0
  Ni  Ni560  1  0.22222222  0.88888889  0.39814815  1.0
  Ni  Ni561  1  0.55555556  0.22222222  0.39814815  1.0
  Ni  Ni562  1  0.55555556  0.55555556  0.39814815  1.0
  Ni  Ni563  1  0.55555556  0.88888889  0.39814815  1.0
  Ni  Ni564  1  0.88888889  0.22222222  0.39814815  1.0
  Ni  Ni565  1  0.88888889  0.55555556  0.39814815  1.0
  Ni  Ni566  1  0.88888889  0.88888889  0.39814815  1.0
  Ni  Ni567  1  0.05555556  0.05555556  0.34259259  1.0
  Ni  Ni568  1  0.05555556  0.38888889  0.34259259  1.0
  Ni  Ni569  1  0.05555556  0.72222222  0.34259259  1.0
  Ni  Ni570  1  0.38888889  0.05555556  0.34259259  1.0
  Ni  Ni571  1  0.38888889  0.38888889  0.34259259  1.0
  Ni  Ni572  1  0.38888889  0.72222222  0.34259259  1.0
  Ni  Ni573  1  0.72222222  0.05555556  0.34259259  1.0
  Ni  Ni574  1  0.72222222  0.38888889  0.34259259  1.0
  Ni  Ni575  1  0.72222222  0.72222222  0.34259259  1.0
