# generated using pymatgen
data_Hf3Ni7
_symmetry_space_group_name_H-M   'P 1'
_cell_length_a   19.51158000
_cell_length_b   22.84322118
_cell_length_c   32.86286460
_cell_angle_alpha   102.78100775
_cell_angle_beta   112.62046310
_cell_angle_gamma   104.57866672
_symmetry_Int_Tables_number   1
_chemical_formula_structural   Hf3Ni7
_chemical_formula_sum   'Hf108 Ni252'
_cell_volume   12227.84382805
_cell_formula_units_Z   36
loop_
 _symmetry_equiv_pos_site_id
 _symmetry_equiv_pos_as_xyz
  1  'x, y, z'
loop_
 _atom_site_type_symbol
 _atom_site_label
 _atom_site_symmetry_multiplicity
 _atom_site_fract_x
 _atom_site_fract_y
 _atom_site_fract_z
 _atom_site_occupancy
  Hf  Hf0  1  0.16653900  0.04373233  0.05196540  1.0
  Hf  Hf1  1  0.16653900  0.37706567  0.05196540  1.0
  Hf  Hf2  1  0.16653900  0.71039900  0.05196540  1.0
  Hf  Hf3  1  0.49987233  0.04373233  0.05196540  1.0
  Hf  Hf4  1  0.49987233  0.37706567  0.05196540  1.0
  Hf  Hf5  1  0.49987233  0.71039900  0.05196540  1.0
  Hf  Hf6  1  0.83320567  0.04373233  0.05196540  1.0
  Hf  Hf7  1  0.83320567  0.37706567  0.05196540  1.0
  Hf  Hf8  1  0.83320567  0.71039900  0.05196540  1.0
  Hf  Hf9  1  0.16679433  0.28960100  0.14290020  1.0
  Hf  Hf10  1  0.16679433  0.62293433  0.14290020  1.0
  Hf  Hf11  1  0.16679433  0.95626767  0.14290020  1.0
  Hf  Hf12  1  0.50012767  0.28960100  0.14290020  1.0
  Hf  Hf13  1  0.50012767  0.62293433  0.14290020  1.0
  Hf  Hf14  1  0.50012767  0.95626767  0.14290020  1.0
  Hf  Hf15  1  0.83346100  0.28960100  0.14290020  1.0
  Hf  Hf16  1  0.83346100  0.62293433  0.14290020  1.0
  Hf  Hf17  1  0.83346100  0.95626767  0.14290020  1.0
  Hf  Hf18  1  0.03303800  0.07398033  0.08849380  1.0
  Hf  Hf19  1  0.03303800  0.40731367  0.08849380  1.0
  Hf  Hf20  1  0.03303800  0.74064700  0.08849380  1.0
  Hf  Hf21  1  0.36637133  0.07398033  0.08849380  1.0
  Hf  Hf22  1  0.36637133  0.40731367  0.08849380  1.0
  Hf  Hf23  1  0.36637133  0.74064700  0.08849380  1.0
  Hf  Hf24  1  0.69970467  0.07398033  0.08849380  1.0
  Hf  Hf25  1  0.69970467  0.40731367  0.08849380  1.0
  Hf  Hf26  1  0.69970467  0.74064700  0.08849380  1.0
  Hf  Hf27  1  0.30029533  0.25935300  0.10637180  1.0
  Hf  Hf28  1  0.30029533  0.59268633  0.10637180  1.0
  Hf  Hf29  1  0.30029533  0.92601967  0.10637180  1.0
  Hf  Hf30  1  0.63362867  0.25935300  0.10637180  1.0
  Hf  Hf31  1  0.63362867  0.59268633  0.10637180  1.0
  Hf  Hf32  1  0.63362867  0.92601967  0.10637180  1.0
  Hf  Hf33  1  0.96696200  0.25935300  0.10637180  1.0
  Hf  Hf34  1  0.96696200  0.59268633  0.10637180  1.0
  Hf  Hf35  1  0.96696200  0.92601967  0.10637180  1.0
  Hf  Hf36  1  0.05258133  0.12509900  0.00256720  1.0
  Hf  Hf37  1  0.05258133  0.45843233  0.00256720  1.0
  Hf  Hf38  1  0.05258133  0.79176567  0.00256720  1.0
  Hf  Hf39  1  0.38591467  0.12509900  0.00256720  1.0
  Hf  Hf40  1  0.38591467  0.45843233  0.00256720  1.0
  Hf  Hf41  1  0.38591467  0.79176567  0.00256720  1.0
  Hf  Hf42  1  0.71924800  0.12509900  0.00256720  1.0
  Hf  Hf43  1  0.71924800  0.45843233  0.00256720  1.0
  Hf  Hf44  1  0.71924800  0.79176567  0.00256720  1.0
  Hf  Hf45  1  0.28075200  0.20823433  0.19229840  1.0
  Hf  Hf46  1  0.28075200  0.54156767  0.19229840  1.0
  Hf  Hf47  1  0.28075200  0.87490100  0.19229840  1.0
  Hf  Hf48  1  0.61408533  0.20823433  0.19229840  1.0
  Hf  Hf49  1  0.61408533  0.54156767  0.19229840  1.0
  Hf  Hf50  1  0.61408533  0.87490100  0.19229840  1.0
  Hf  Hf51  1  0.94741867  0.20823433  0.19229840  1.0
  Hf  Hf52  1  0.94741867  0.54156767  0.19229840  1.0
  Hf  Hf53  1  0.94741867  0.87490100  0.19229840  1.0
  Ni  Ni54  1  0.16666667  0.16666667  0.09743280  1.0
  Ni  Ni55  1  0.16666667  0.50000000  0.09743280  1.0
  Ni  Ni56  1  0.16666667  0.83333333  0.09743280  1.0
  Ni  Ni57  1  0.50000000  0.16666667  0.09743280  1.0
  Ni  Ni58  1  0.50000000  0.50000000  0.09743280  1.0
  Ni  Ni59  1  0.50000000  0.83333333  0.09743280  1.0
  Ni  Ni60  1  0.83333333  0.16666667  0.09743280  1.0
  Ni  Ni61  1  0.83333333  0.50000000  0.09743280  1.0
  Ni  Ni62  1  0.83333333  0.83333333  0.09743280  1.0
  Ni  Ni63  1  0.00000000  0.00000000  0.19743280  1.0
  Ni  Ni64  1  0.00000000  0.33333333  0.19743280  1.0
  Ni  Ni65  1  0.00000000  0.66666667  0.19743280  1.0
  Ni  Ni66  1  0.33333333  0.00000000  0.19743280  1.0
  Ni  Ni67  1  0.33333333  0.33333333  0.19743280  1.0
  Ni  Ni68  1  0.33333333  0.66666667  0.19743280  1.0
  Ni  Ni69  1  0.66666667  0.00000000  0.19743280  1.0
  Ni  Ni70  1  0.66666667  0.33333333  0.19743280  1.0
  Ni  Ni71  1  0.66666667  0.66666667  0.19743280  1.0
  Ni  Ni72  1  0.07625767  0.26164833  0.18476920  1.0
  Ni  Ni73  1  0.07625767  0.59498167  0.18476920  1.0
  Ni  Ni74  1  0.07625767  0.92831500  0.18476920  1.0
  Ni  Ni75  1  0.40959100  0.26164833  0.18476920  1.0
  Ni  Ni76  1  0.40959100  0.59498167  0.18476920  1.0
  Ni  Ni77  1  0.40959100  0.92831500  0.18476920  1.0
  Ni  Ni78  1  0.74292433  0.26164833  0.18476920  1.0
  Ni  Ni79  1  0.74292433  0.59498167  0.18476920  1.0
  Ni  Ni80  1  0.74292433  0.92831500  0.18476920  1.0
  Ni  Ni81  1  0.25707567  0.07168500  0.01009640  1.0
  Ni  Ni82  1  0.25707567  0.40501833  0.01009640  1.0
  Ni  Ni83  1  0.25707567  0.73835167  0.01009640  1.0
  Ni  Ni84  1  0.59040900  0.07168500  0.01009640  1.0
  Ni  Ni85  1  0.59040900  0.40501833  0.01009640  1.0
  Ni  Ni86  1  0.59040900  0.73835167  0.01009640  1.0
  Ni  Ni87  1  0.92374233  0.07168500  0.01009640  1.0
  Ni  Ni88  1  0.92374233  0.40501833  0.01009640  1.0
  Ni  Ni89  1  0.92374233  0.73835167  0.01009640  1.0
  Ni  Ni90  1  0.12750833  0.18108633  0.16223080  1.0
  Ni  Ni91  1  0.12750833  0.51441967  0.16223080  1.0
  Ni  Ni92  1  0.12750833  0.84775300  0.16223080  1.0
  Ni  Ni93  1  0.46084167  0.18108633  0.16223080  1.0
  Ni  Ni94  1  0.46084167  0.51441967  0.16223080  1.0
  Ni  Ni95  1  0.46084167  0.84775300  0.16223080  1.0
  Ni  Ni96  1  0.79417500  0.18108633  0.16223080  1.0
  Ni  Ni97  1  0.79417500  0.51441967  0.16223080  1.0
  Ni  Ni98  1  0.79417500  0.84775300  0.16223080  1.0
  Ni  Ni99  1  0.20582500  0.15224700  0.03263480  1.0
  Ni  Ni100  1  0.20582500  0.48558033  0.03263480  1.0
  Ni  Ni101  1  0.20582500  0.81891367  0.03263480  1.0
  Ni  Ni102  1  0.53915833  0.15224700  0.03263480  1.0
  Ni  Ni103  1  0.53915833  0.48558033  0.03263480  1.0
  Ni  Ni104  1  0.53915833  0.81891367  0.03263480  1.0
  Ni  Ni105  1  0.87249167  0.15224700  0.03263480  1.0
  Ni  Ni106  1  0.87249167  0.48558033  0.03263480  1.0
  Ni  Ni107  1  0.87249167  0.81891367  0.03263480  1.0
  Ni  Ni108  1  0.18489167  0.08839733  0.13741880  1.0
  Ni  Ni109  1  0.18489167  0.42173067  0.13741880  1.0
  Ni  Ni110  1  0.18489167  0.75506400  0.13741880  1.0
  Ni  Ni111  1  0.51822500  0.08839733  0.13741880  1.0
  Ni  Ni112  1  0.51822500  0.42173067  0.13741880  1.0
  Ni  Ni113  1  0.51822500  0.75506400  0.13741880  1.0
  Ni  Ni114  1  0.85155833  0.08839733  0.13741880  1.0
  Ni  Ni115  1  0.85155833  0.42173067  0.13741880  1.0
  Ni  Ni116  1  0.85155833  0.75506400  0.13741880  1.0
  Ni  Ni117  1  0.14844167  0.24493600  0.05744680  1.0
  Ni  Ni118  1  0.14844167  0.57826933  0.05744680  1.0
  Ni  Ni119  1  0.14844167  0.91160267  0.05744680  1.0
  Ni  Ni120  1  0.48177500  0.24493600  0.05744680  1.0
  Ni  Ni121  1  0.48177500  0.57826933  0.05744680  1.0
  Ni  Ni122  1  0.48177500  0.91160267  0.05744680  1.0
  Ni  Ni123  1  0.81510833  0.24493600  0.05744680  1.0
  Ni  Ni124  1  0.81510833  0.57826933  0.05744680  1.0
  Ni  Ni125  1  0.81510833  0.91160267  0.05744680  1.0
  Ni  Ni126  1  0.27308100  0.03132067  0.12555960  1.0
  Ni  Ni127  1  0.27308100  0.36465400  0.12555960  1.0
  Ni  Ni128  1  0.27308100  0.69798733  0.12555960  1.0
  Ni  Ni129  1  0.60641433  0.03132067  0.12555960  1.0
  Ni  Ni130  1  0.60641433  0.36465400  0.12555960  1.0
  Ni  Ni131  1  0.60641433  0.69798733  0.12555960  1.0
  Ni  Ni132  1  0.93974767  0.03132067  0.12555960  1.0
  Ni  Ni133  1  0.93974767  0.36465400  0.12555960  1.0
  Ni  Ni134  1  0.93974767  0.69798733  0.12555960  1.0
  Ni  Ni135  1  0.06025233  0.30201267  0.06930600  1.0
  Ni  Ni136  1  0.06025233  0.63534600  0.06930600  1.0
  Ni  Ni137  1  0.06025233  0.96867933  0.06930600  1.0
  Ni  Ni138  1  0.39358567  0.30201267  0.06930600  1.0
  Ni  Ni139  1  0.39358567  0.63534600  0.06930600  1.0
  Ni  Ni140  1  0.39358567  0.96867933  0.06930600  1.0
  Ni  Ni141  1  0.72691900  0.30201267  0.06930600  1.0
  Ni  Ni142  1  0.72691900  0.63534600  0.06930600  1.0
  Ni  Ni143  1  0.72691900  0.96867933  0.06930600  1.0
  Ni  Ni144  1  0.29786600  0.14685167  0.12071840  1.0
  Ni  Ni145  1  0.29786600  0.48018500  0.12071840  1.0
  Ni  Ni146  1  0.29786600  0.81351833  0.12071840  1.0
  Ni  Ni147  1  0.63119933  0.14685167  0.12071840  1.0
  Ni  Ni148  1  0.63119933  0.48018500  0.12071840  1.0
  Ni  Ni149  1  0.63119933  0.81351833  0.12071840  1.0
  Ni  Ni150  1  0.96453267  0.14685167  0.12071840  1.0
  Ni  Ni151  1  0.96453267  0.48018500  0.12071840  1.0
  Ni  Ni152  1  0.96453267  0.81351833  0.12071840  1.0
  Ni  Ni153  1  0.03546733  0.18648167  0.07414720  1.0
  Ni  Ni154  1  0.03546733  0.51981500  0.07414720  1.0
  Ni  Ni155  1  0.03546733  0.85314833  0.07414720  1.0
  Ni  Ni156  1  0.36880067  0.18648167  0.07414720  1.0
  Ni  Ni157  1  0.36880067  0.51981500  0.07414720  1.0
  Ni  Ni158  1  0.36880067  0.85314833  0.07414720  1.0
  Ni  Ni159  1  0.70213400  0.18648167  0.07414720  1.0
  Ni  Ni160  1  0.70213400  0.51981500  0.07414720  1.0
  Ni  Ni161  1  0.70213400  0.85314833  0.07414720  1.0
  Ni  Ni162  1  0.24056233  0.29751433  0.03201340  1.0
  Ni  Ni163  1  0.24056233  0.63084767  0.03201340  1.0
  Ni  Ni164  1  0.24056233  0.96418100  0.03201340  1.0
  Ni  Ni165  1  0.57389567  0.29751433  0.03201340  1.0
  Ni  Ni166  1  0.57389567  0.63084767  0.03201340  1.0
  Ni  Ni167  1  0.57389567  0.96418100  0.03201340  1.0
  Ni  Ni168  1  0.90722900  0.29751433  0.03201340  1.0
  Ni  Ni169  1  0.90722900  0.63084767  0.03201340  1.0
  Ni  Ni170  1  0.90722900  0.96418100  0.03201340  1.0
  Ni  Ni171  1  0.09277100  0.03581900  0.16285220  1.0
  Ni  Ni172  1  0.09277100  0.36915233  0.16285220  1.0
  Ni  Ni173  1  0.09277100  0.70248567  0.16285220  1.0
  Ni  Ni174  1  0.42610433  0.03581900  0.16285220  1.0
  Ni  Ni175  1  0.42610433  0.36915233  0.16285220  1.0
  Ni  Ni176  1  0.42610433  0.70248567  0.16285220  1.0
  Ni  Ni177  1  0.75943767  0.03581900  0.16285220  1.0
  Ni  Ni178  1  0.75943767  0.36915233  0.16285220  1.0
  Ni  Ni179  1  0.75943767  0.70248567  0.16285220  1.0
  Hf  Hf180  1  0.16653900  0.04373233  0.25196540  1.0
  Hf  Hf181  1  0.16653900  0.37706567  0.25196540  1.0
  Hf  Hf182  1  0.16653900  0.71039900  0.25196540  1.0
  Hf  Hf183  1  0.49987233  0.04373233  0.25196540  1.0
  Hf  Hf184  1  0.49987233  0.37706567  0.25196540  1.0
  Hf  Hf185  1  0.49987233  0.71039900  0.25196540  1.0
  Hf  Hf186  1  0.83320567  0.04373233  0.25196540  1.0
  Hf  Hf187  1  0.83320567  0.37706567  0.25196540  1.0
  Hf  Hf188  1  0.83320567  0.71039900  0.25196540  1.0
  Hf  Hf189  1  0.16679433  0.28960100  0.34290020  1.0
  Hf  Hf190  1  0.16679433  0.62293433  0.34290020  1.0
  Hf  Hf191  1  0.16679433  0.95626767  0.34290020  1.0
  Hf  Hf192  1  0.50012767  0.28960100  0.34290020  1.0
  Hf  Hf193  1  0.50012767  0.62293433  0.34290020  1.0
  Hf  Hf194  1  0.50012767  0.95626767  0.34290020  1.0
  Hf  Hf195  1  0.83346100  0.28960100  0.34290020  1.0
  Hf  Hf196  1  0.83346100  0.62293433  0.34290020  1.0
  Hf  Hf197  1  0.83346100  0.95626767  0.34290020  1.0
  Hf  Hf198  1  0.03303800  0.07398033  0.28849380  1.0
  Hf  Hf199  1  0.03303800  0.40731367  0.28849380  1.0
  Hf  Hf200  1  0.03303800  0.74064700  0.28849380  1.0
  Hf  Hf201  1  0.36637133  0.07398033  0.28849380  1.0
  Hf  Hf202  1  0.36637133  0.40731367  0.28849380  1.0
  Hf  Hf203  1  0.36637133  0.74064700  0.28849380  1.0
  Hf  Hf204  1  0.69970467  0.07398033  0.28849380  1.0
  Hf  Hf205  1  0.69970467  0.40731367  0.28849380  1.0
  Hf  Hf206  1  0.69970467  0.74064700  0.28849380  1.0
  Hf  Hf207  1  0.30029533  0.25935300  0.30637180  1.0
  Hf  Hf208  1  0.30029533  0.59268633  0.30637180  1.0
  Hf  Hf209  1  0.30029533  0.92601967  0.30637180  1.0
  Hf  Hf210  1  0.63362867  0.25935300  0.30637180  1.0
  Hf  Hf211  1  0.63362867  0.59268633  0.30637180  1.0
  Hf  Hf212  1  0.63362867  0.92601967  0.30637180  1.0
  Hf  Hf213  1  0.96696200  0.25935300  0.30637180  1.0
  Hf  Hf214  1  0.96696200  0.59268633  0.30637180  1.0
  Hf  Hf215  1  0.96696200  0.92601967  0.30637180  1.0
  Hf  Hf216  1  0.05258133  0.12509900  0.20256720  1.0
  Hf  Hf217  1  0.05258133  0.45843233  0.20256720  1.0
  Hf  Hf218  1  0.05258133  0.79176567  0.20256720  1.0
  Hf  Hf219  1  0.38591467  0.12509900  0.20256720  1.0
  Hf  Hf220  1  0.38591467  0.45843233  0.20256720  1.0
  Hf  Hf221  1  0.38591467  0.79176567  0.20256720  1.0
  Hf  Hf222  1  0.71924800  0.12509900  0.20256720  1.0
  Hf  Hf223  1  0.71924800  0.45843233  0.20256720  1.0
  Hf  Hf224  1  0.71924800  0.79176567  0.20256720  1.0
  Hf  Hf225  1  0.28075200  0.20823433  0.39229840  1.0
  Hf  Hf226  1  0.28075200  0.54156767  0.39229840  1.0
  Hf  Hf227  1  0.28075200  0.87490100  0.39229840  1.0
  Hf  Hf228  1  0.61408533  0.20823433  0.39229840  1.0
  Hf  Hf229  1  0.61408533  0.54156767  0.39229840  1.0
  Hf  Hf230  1  0.61408533  0.87490100  0.39229840  1.0
  Hf  Hf231  1  0.94741867  0.20823433  0.39229840  1.0
  Hf  Hf232  1  0.94741867  0.54156767  0.39229840  1.0
  Hf  Hf233  1  0.94741867  0.87490100  0.39229840  1.0
  Ni  Ni234  1  0.16666667  0.16666667  0.29743280  1.0
  Ni  Ni235  1  0.16666667  0.50000000  0.29743280  1.0
  Ni  Ni236  1  0.16666667  0.83333333  0.29743280  1.0
  Ni  Ni237  1  0.50000000  0.16666667  0.29743280  1.0
  Ni  Ni238  1  0.50000000  0.50000000  0.29743280  1.0
  Ni  Ni239  1  0.50000000  0.83333333  0.29743280  1.0
  Ni  Ni240  1  0.83333333  0.16666667  0.29743280  1.0
  Ni  Ni241  1  0.83333333  0.50000000  0.29743280  1.0
  Ni  Ni242  1  0.83333333  0.83333333  0.29743280  1.0
  Ni  Ni243  1  0.00000000  0.00000000  0.39743280  1.0
  Ni  Ni244  1  0.00000000  0.33333333  0.39743280  1.0
  Ni  Ni245  1  0.00000000  0.66666667  0.39743280  1.0
  Ni  Ni246  1  0.33333333  0.00000000  0.39743280  1.0
  Ni  Ni247  1  0.33333333  0.33333333  0.39743280  1.0
  Ni  Ni248  1  0.33333333  0.66666667  0.39743280  1.0
  Ni  Ni249  1  0.66666667  0.00000000  0.39743280  1.0
  Ni  Ni250  1  0.66666667  0.33333333  0.39743280  1.0
  Ni  Ni251  1  0.66666667  0.66666667  0.39743280  1.0
  Ni  Ni252  1  0.07625767  0.26164833  0.38476920  1.0
  Ni  Ni253  1  0.07625767  0.59498167  0.38476920  1.0
  Ni  Ni254  1  0.07625767  0.92831500  0.38476920  1.0
  Ni  Ni255  1  0.40959100  0.26164833  0.38476920  1.0
  Ni  Ni256  1  0.40959100  0.59498167  0.38476920  1.0
  Ni  Ni257  1  0.40959100  0.92831500  0.38476920  1.0
  Ni  Ni258  1  0.74292433  0.26164833  0.38476920  1.0
  Ni  Ni259  1  0.74292433  0.59498167  0.38476920  1.0
  Ni  Ni260  1  0.74292433  0.92831500  0.38476920  1.0
  Ni  Ni261  1  0.25707567  0.07168500  0.21009640  1.0
  Ni  Ni262  1  0.25707567  0.40501833  0.21009640  1.0
  Ni  Ni263  1  0.25707567  0.73835167  0.21009640  1.0
  Ni  Ni264  1  0.59040900  0.07168500  0.21009640  1.0
  Ni  Ni265  1  0.59040900  0.40501833  0.21009640  1.0
  Ni  Ni266  1  0.59040900  0.73835167  0.21009640  1.0
  Ni  Ni267  1  0.92374233  0.07168500  0.21009640  1.0
  Ni  Ni268  1  0.92374233  0.40501833  0.21009640  1.0
  Ni  Ni269  1  0.92374233  0.73835167  0.21009640  1.0
  Ni  Ni270  1  0.12750833  0.18108633  0.36223080  1.0
  Ni  Ni271  1  0.12750833  0.51441967  0.36223080  1.0
  Ni  Ni272  1  0.12750833  0.84775300  0.36223080  1.0
  Ni  Ni273  1  0.46084167  0.18108633  0.36223080  1.0
  Ni  Ni274  1  0.46084167  0.51441967  0.36223080  1.0
  Ni  Ni275  1  0.46084167  0.84775300  0.36223080  1.0
  Ni  Ni276  1  0.79417500  0.18108633  0.36223080  1.0
  Ni  Ni277  1  0.79417500  0.51441967  0.36223080  1.0
  Ni  Ni278  1  0.79417500  0.84775300  0.36223080  1.0
  Ni  Ni279  1  0.20582500  0.15224700  0.23263480  1.0
  Ni  Ni280  1  0.20582500  0.48558033  0.23263480  1.0
  Ni  Ni281  1  0.20582500  0.81891367  0.23263480  1.0
  Ni  Ni282  1  0.53915833  0.15224700  0.23263480  1.0
  Ni  Ni283  1  0.53915833  0.48558033  0.23263480  1.0
  Ni  Ni284  1  0.53915833  0.81891367  0.23263480  1.0
  Ni  Ni285  1  0.87249167  0.15224700  0.23263480  1.0
  Ni  Ni286  1  0.87249167  0.48558033  0.23263480  1.0
  Ni  Ni287  1  0.87249167  0.81891367  0.23263480  1.0
  Ni  Ni288  1  0.18489167  0.08839733  0.33741880  1.0
  Ni  Ni289  1  0.18489167  0.42173067  0.33741880  1.0
  Ni  Ni290  1  0.18489167  0.75506400  0.33741880  1.0
  Ni  Ni291  1  0.51822500  0.08839733  0.33741880  1.0
  Ni  Ni292  1  0.51822500  0.42173067  0.33741880  1.0
  Ni  Ni293  1  0.51822500  0.75506400  0.33741880  1.0
  Ni  Ni294  1  0.85155833  0.08839733  0.33741880  1.0
  Ni  Ni295  1  0.85155833  0.42173067  0.33741880  1.0
  Ni  Ni296  1  0.85155833  0.75506400  0.33741880  1.0
  Ni  Ni297  1  0.14844167  0.24493600  0.25744680  1.0
  Ni  Ni298  1  0.14844167  0.57826933  0.25744680  1.0
  Ni  Ni299  1  0.14844167  0.91160267  0.25744680  1.0
  Ni  Ni300  1  0.48177500  0.24493600  0.25744680  1.0
  Ni  Ni301  1  0.48177500  0.57826933  0.25744680  1.0
  Ni  Ni302  1  0.48177500  0.91160267  0.25744680  1.0
  Ni  Ni303  1  0.81510833  0.24493600  0.25744680  1.0
  Ni  Ni304  1  0.81510833  0.57826933  0.25744680  1.0
  Ni  Ni305  1  0.81510833  0.91160267  0.25744680  1.0
  Ni  Ni306  1  0.27308100  0.03132067  0.32555960  1.0
  Ni  Ni307  1  0.27308100  0.36465400  0.32555960  1.0
  Ni  Ni308  1  0.27308100  0.69798733  0.32555960  1.0
  Ni  Ni309  1  0.60641433  0.03132067  0.32555960  1.0
  Ni  Ni310  1  0.60641433  0.36465400  0.32555960  1.0
  Ni  Ni311  1  0.60641433  0.69798733  0.32555960  1.0
  Ni  Ni312  1  0.93974767  0.03132067  0.32555960  1.0
  Ni  Ni313  1  0.93974767  0.36465400  0.32555960  1.0
  Ni  Ni314  1  0.93974767  0.69798733  0.32555960  1.0
  Ni  Ni315  1  0.06025233  0.30201267  0.26930600  1.0
  Ni  Ni316  1  0.06025233  0.63534600  0.26930600  1.0
  Ni  Ni317  1  0.06025233  0.96867933  0.26930600  1.0
  Ni  Ni318  1  0.39358567  0.30201267  0.26930600  1.0
  Ni  Ni319  1  0.39358567  0.63534600  0.26930600  1.0
  Ni  Ni320  1  0.39358567  0.96867933  0.26930600  1.0
  Ni  Ni321  1  0.72691900  0.30201267  0.26930600  1.0
  Ni  Ni322  1  0.72691900  0.63534600  0.26930600  1.0
  Ni  Ni323  1  0.72691900  0.96867933  0.26930600  1.0
  Ni  Ni324  1  0.29786600  0.14685167  0.32071840  1.0
  Ni  Ni325  1  0.29786600  0.48018500  0.32071840  1.0
  Ni  Ni326  1  0.29786600  0.81351833  0.32071840  1.0
  Ni  Ni327  1  0.63119933  0.14685167  0.32071840  1.0
  Ni  Ni328  1  0.63119933  0.48018500  0.32071840  1.0
  Ni  Ni329  1  0.63119933  0.81351833  0.32071840  1.0
  Ni  Ni330  1  0.96453267  0.14685167  0.32071840  1.0
  Ni  Ni331  1  0.96453267  0.48018500  0.32071840  1.0
  Ni  Ni332  1  0.96453267  0.81351833  0.32071840  1.0
  Ni  Ni333  1  0.03546733  0.18648167  0.27414720  1.0
  Ni  Ni334  1  0.03546733  0.51981500  0.27414720  1.0
  Ni  Ni335  1  0.03546733  0.85314833  0.27414720  1.0
  Ni  Ni336  1  0.36880067  0.18648167  0.27414720  1.0
  Ni  Ni337  1  0.36880067  0.51981500  0.27414720  1.0
  Ni  Ni338  1  0.36880067  0.85314833  0.27414720  1.0
  Ni  Ni339  1  0.70213400  0.18648167  0.27414720  1.0
  Ni  Ni340  1  0.70213400  0.51981500  0.27414720  1.0
  Ni  Ni341  1  0.70213400  0.85314833  0.27414720  1.0
  Ni  Ni342  1  0.24056233  0.29751433  0.23201340  1.0
  Ni  Ni343  1  0.24056233  0.63084767  0.23201340  1.0
  Ni  Ni344  1  0.24056233  0.96418100  0.23201340  1.0
  Ni  Ni345  1  0.57389567  0.29751433  0.23201340  1.0
  Ni  Ni346  1  0.57389567  0.63084767  0.23201340  1.0
  Ni  Ni347  1  0.57389567  0.96418100  0.23201340  1.0
  Ni  Ni348  1  0.90722900  0.29751433  0.23201340  1.0
  Ni  Ni349  1  0.90722900  0.63084767  0.23201340  1.0
  Ni  Ni350  1  0.90722900  0.96418100  0.23201340  1.0
  Ni  Ni351  1  0.09277100  0.03581900  0.36285220  1.0
  Ni  Ni352  1  0.09277100  0.36915233  0.36285220  1.0
  Ni  Ni353  1  0.09277100  0.70248567  0.36285220  1.0
  Ni  Ni354  1  0.42610433  0.03581900  0.36285220  1.0
  Ni  Ni355  1  0.42610433  0.36915233  0.36285220  1.0
  Ni  Ni356  1  0.42610433  0.70248567  0.36285220  1.0
  Ni  Ni357  1  0.75943767  0.03581900  0.36285220  1.0
  Ni  Ni358  1  0.75943767  0.36915233  0.36285220  1.0
  Ni  Ni359  1  0.75943767  0.70248567  0.36285220  1.0
