# generated using pymatgen
data_Hf3Ni7
_symmetry_space_group_name_H-M   'P 1'
_cell_length_a   19.71771876
_cell_length_b   22.84322118
_cell_length_c   32.51930000
_cell_angle_alpha   104.57866672
_cell_angle_beta   112.62046310
_cell_angle_gamma   102.78100775
_symmetry_Int_Tables_number   1
_chemical_formula_structural   Hf3Ni7
_chemical_formula_sum   'Hf108 Ni252'
_cell_volume   12227.84382805
_cell_formula_units_Z   36
loop_
 _symmetry_equiv_pos_site_id
 _symmetry_equiv_pos_as_xyz
  1  'x, y, z'
loop_
 _atom_site_type_symbol
 _atom_site_label
 _atom_site_symmetry_multiplicity
 _atom_site_fract_x
 _atom_site_fract_y
 _atom_site_fract_z
 _atom_site_occupancy
  Hf  Hf0  1  0.24244567  0.28960100  0.08943640  1.0
  Hf  Hf1  1  0.24244567  0.62293433  0.08943640  1.0
  Hf  Hf2  1  0.24244567  0.95626767  0.08943640  1.0
  Hf  Hf3  1  0.57577900  0.28960100  0.08943640  1.0
  Hf  Hf4  1  0.57577900  0.62293433  0.08943640  1.0
  Hf  Hf5  1  0.57577900  0.95626767  0.08943640  1.0
  Hf  Hf6  1  0.90911233  0.28960100  0.08943640  1.0
  Hf  Hf7  1  0.90911233  0.62293433  0.08943640  1.0
  Hf  Hf8  1  0.90911233  0.95626767  0.08943640  1.0
  Hf  Hf9  1  0.09088767  0.04373233  0.08928320  1.0
  Hf  Hf10  1  0.09088767  0.37706567  0.08928320  1.0
  Hf  Hf11  1  0.09088767  0.71039900  0.08928320  1.0
  Hf  Hf12  1  0.42422100  0.04373233  0.08928320  1.0
  Hf  Hf13  1  0.42422100  0.37706567  0.08928320  1.0
  Hf  Hf14  1  0.42422100  0.71039900  0.08928320  1.0
  Hf  Hf15  1  0.75755433  0.04373233  0.08928320  1.0
  Hf  Hf16  1  0.75755433  0.37706567  0.08928320  1.0
  Hf  Hf17  1  0.75755433  0.71039900  0.08928320  1.0
  Hf  Hf18  1  0.18156500  0.25935300  0.16953700  1.0
  Hf  Hf19  1  0.18156500  0.59268633  0.16953700  1.0
  Hf  Hf20  1  0.18156500  0.92601967  0.16953700  1.0
  Hf  Hf21  1  0.51489833  0.25935300  0.16953700  1.0
  Hf  Hf22  1  0.51489833  0.59268633  0.16953700  1.0
  Hf  Hf23  1  0.51489833  0.92601967  0.16953700  1.0
  Hf  Hf24  1  0.84823167  0.25935300  0.16953700  1.0
  Hf  Hf25  1  0.84823167  0.59268633  0.16953700  1.0
  Hf  Hf26  1  0.84823167  0.92601967  0.16953700  1.0
  Hf  Hf27  1  0.15176833  0.07398033  0.00918260  1.0
  Hf  Hf28  1  0.15176833  0.40731367  0.00918260  1.0
  Hf  Hf29  1  0.15176833  0.74064700  0.00918260  1.0
  Hf  Hf30  1  0.48510167  0.07398033  0.00918260  1.0
  Hf  Hf31  1  0.48510167  0.40731367  0.00918260  1.0
  Hf  Hf32  1  0.48510167  0.74064700  0.00918260  1.0
  Hf  Hf33  1  0.81843500  0.07398033  0.00918260  1.0
  Hf  Hf34  1  0.81843500  0.40731367  0.00918260  1.0
  Hf  Hf35  1  0.81843500  0.74064700  0.00918260  1.0
  Hf  Hf36  1  0.32477600  0.20823433  0.15781100  1.0
  Hf  Hf37  1  0.32477600  0.54156767  0.15781100  1.0
  Hf  Hf38  1  0.32477600  0.87490100  0.15781100  1.0
  Hf  Hf39  1  0.65810933  0.20823433  0.15781100  1.0
  Hf  Hf40  1  0.65810933  0.54156767  0.15781100  1.0
  Hf  Hf41  1  0.65810933  0.87490100  0.15781100  1.0
  Hf  Hf42  1  0.99144267  0.20823433  0.15781100  1.0
  Hf  Hf43  1  0.99144267  0.54156767  0.15781100  1.0
  Hf  Hf44  1  0.99144267  0.87490100  0.15781100  1.0
  Hf  Hf45  1  0.00855733  0.12509900  0.02090860  1.0
  Hf  Hf46  1  0.00855733  0.45843233  0.02090860  1.0
  Hf  Hf47  1  0.00855733  0.79176567  0.02090860  1.0
  Hf  Hf48  1  0.34189067  0.12509900  0.02090860  1.0
  Hf  Hf49  1  0.34189067  0.45843233  0.02090860  1.0
  Hf  Hf50  1  0.34189067  0.79176567  0.02090860  1.0
  Hf  Hf51  1  0.67522400  0.12509900  0.02090860  1.0
  Hf  Hf52  1  0.67522400  0.45843233  0.02090860  1.0
  Hf  Hf53  1  0.67522400  0.79176567  0.02090860  1.0
  Ni  Ni54  1  0.16666667  0.16666667  0.08935980  1.0
  Ni  Ni55  1  0.16666667  0.50000000  0.08935980  1.0
  Ni  Ni56  1  0.16666667  0.83333333  0.08935980  1.0
  Ni  Ni57  1  0.50000000  0.16666667  0.08935980  1.0
  Ni  Ni58  1  0.50000000  0.50000000  0.08935980  1.0
  Ni  Ni59  1  0.50000000  0.83333333  0.08935980  1.0
  Ni  Ni60  1  0.83333333  0.16666667  0.08935980  1.0
  Ni  Ni61  1  0.83333333  0.50000000  0.08935980  1.0
  Ni  Ni62  1  0.83333333  0.83333333  0.08935980  1.0
  Ni  Ni63  1  0.00000000  0.00000000  0.18935980  1.0
  Ni  Ni64  1  0.00000000  0.33333333  0.18935980  1.0
  Ni  Ni65  1  0.00000000  0.66666667  0.18935980  1.0
  Ni  Ni66  1  0.33333333  0.00000000  0.18935980  1.0
  Ni  Ni67  1  0.33333333  0.33333333  0.18935980  1.0
  Ni  Ni68  1  0.33333333  0.66666667  0.18935980  1.0
  Ni  Ni69  1  0.66666667  0.00000000  0.18935980  1.0
  Ni  Ni70  1  0.66666667  0.33333333  0.18935980  1.0
  Ni  Ni71  1  0.66666667  0.66666667  0.18935980  1.0
  Ni  Ni72  1  0.02110600  0.07168500  0.14360520  1.0
  Ni  Ni73  1  0.02110600  0.40501833  0.14360520  1.0
  Ni  Ni74  1  0.02110600  0.73835167  0.14360520  1.0
  Ni  Ni75  1  0.35443933  0.07168500  0.14360520  1.0
  Ni  Ni76  1  0.35443933  0.40501833  0.14360520  1.0
  Ni  Ni77  1  0.35443933  0.73835167  0.14360520  1.0
  Ni  Ni78  1  0.68777267  0.07168500  0.14360520  1.0
  Ni  Ni79  1  0.68777267  0.40501833  0.14360520  1.0
  Ni  Ni80  1  0.68777267  0.73835167  0.14360520  1.0
  Ni  Ni81  1  0.31222733  0.26164833  0.03511440  1.0
  Ni  Ni82  1  0.31222733  0.59498167  0.03511440  1.0
  Ni  Ni83  1  0.31222733  0.92831500  0.03511440  1.0
  Ni  Ni84  1  0.64556067  0.26164833  0.03511440  1.0
  Ni  Ni85  1  0.64556067  0.59498167  0.03511440  1.0
  Ni  Ni86  1  0.64556067  0.92831500  0.03511440  1.0
  Ni  Ni87  1  0.97889400  0.26164833  0.03511440  1.0
  Ni  Ni88  1  0.97889400  0.59498167  0.03511440  1.0
  Ni  Ni89  1  0.97889400  0.92831500  0.03511440  1.0
  Ni  Ni90  1  0.05867000  0.15224700  0.11285480  1.0
  Ni  Ni91  1  0.05867000  0.48558033  0.11285480  1.0
  Ni  Ni92  1  0.05867000  0.81891367  0.11285480  1.0
  Ni  Ni93  1  0.39200333  0.15224700  0.11285480  1.0
  Ni  Ni94  1  0.39200333  0.48558033  0.11285480  1.0
  Ni  Ni95  1  0.39200333  0.81891367  0.11285480  1.0
  Ni  Ni96  1  0.72533667  0.15224700  0.11285480  1.0
  Ni  Ni97  1  0.72533667  0.48558033  0.11285480  1.0
  Ni  Ni98  1  0.72533667  0.81891367  0.11285480  1.0
  Ni  Ni99  1  0.27466333  0.18108633  0.06586480  1.0
  Ni  Ni100  1  0.27466333  0.51441967  0.06586480  1.0
  Ni  Ni101  1  0.27466333  0.84775300  0.06586480  1.0
  Ni  Ni102  1  0.60799667  0.18108633  0.06586480  1.0
  Ni  Ni103  1  0.60799667  0.51441967  0.06586480  1.0
  Ni  Ni104  1  0.60799667  0.84775300  0.06586480  1.0
  Ni  Ni105  1  0.94133000  0.18108633  0.06586480  1.0
  Ni  Ni106  1  0.94133000  0.51441967  0.06586480  1.0
  Ni  Ni107  1  0.94133000  0.84775300  0.06586480  1.0
  Ni  Ni108  1  0.10002333  0.24493600  0.07842480  1.0
  Ni  Ni109  1  0.10002333  0.57826933  0.07842480  1.0
  Ni  Ni110  1  0.10002333  0.91160267  0.07842480  1.0
  Ni  Ni111  1  0.43335667  0.24493600  0.07842480  1.0
  Ni  Ni112  1  0.43335667  0.57826933  0.07842480  1.0
  Ni  Ni113  1  0.43335667  0.91160267  0.07842480  1.0
  Ni  Ni114  1  0.76669000  0.24493600  0.07842480  1.0
  Ni  Ni115  1  0.76669000  0.57826933  0.07842480  1.0
  Ni  Ni116  1  0.76669000  0.91160267  0.07842480  1.0
  Ni  Ni117  1  0.23331000  0.08839733  0.10029480  1.0
  Ni  Ni118  1  0.23331000  0.42173067  0.10029480  1.0
  Ni  Ni119  1  0.23331000  0.75506400  0.10029480  1.0
  Ni  Ni120  1  0.56664333  0.08839733  0.10029480  1.0
  Ni  Ni121  1  0.56664333  0.42173067  0.10029480  1.0
  Ni  Ni122  1  0.56664333  0.75506400  0.10029480  1.0
  Ni  Ni123  1  0.89997667  0.08839733  0.10029480  1.0
  Ni  Ni124  1  0.89997667  0.42173067  0.10029480  1.0
  Ni  Ni125  1  0.89997667  0.75506400  0.10029480  1.0
  Ni  Ni126  1  0.11978867  0.30201267  0.02551120  1.0
  Ni  Ni127  1  0.11978867  0.63534600  0.02551120  1.0
  Ni  Ni128  1  0.11978867  0.96867933  0.02551120  1.0
  Ni  Ni129  1  0.45312200  0.30201267  0.02551120  1.0
  Ni  Ni130  1  0.45312200  0.63534600  0.02551120  1.0
  Ni  Ni131  1  0.45312200  0.96867933  0.02551120  1.0
  Ni  Ni132  1  0.78645533  0.30201267  0.02551120  1.0
  Ni  Ni133  1  0.78645533  0.63534600  0.02551120  1.0
  Ni  Ni134  1  0.78645533  0.96867933  0.02551120  1.0
  Ni  Ni135  1  0.21354467  0.03132067  0.15320840  1.0
  Ni  Ni136  1  0.21354467  0.36465400  0.15320840  1.0
  Ni  Ni137  1  0.21354467  0.69798733  0.15320840  1.0
  Ni  Ni138  1  0.54687800  0.03132067  0.15320840  1.0
  Ni  Ni139  1  0.54687800  0.36465400  0.15320840  1.0
  Ni  Ni140  1  0.54687800  0.69798733  0.15320840  1.0
  Ni  Ni141  1  0.88021133  0.03132067  0.15320840  1.0
  Ni  Ni142  1  0.88021133  0.36465400  0.15320840  1.0
  Ni  Ni143  1  0.88021133  0.69798733  0.15320840  1.0
  Ni  Ni144  1  0.12785733  0.18648167  0.01064020  1.0
  Ni  Ni145  1  0.12785733  0.51981500  0.01064020  1.0
  Ni  Ni146  1  0.12785733  0.85314833  0.01064020  1.0
  Ni  Ni147  1  0.46119067  0.18648167  0.01064020  1.0
  Ni  Ni148  1  0.46119067  0.51981500  0.01064020  1.0
  Ni  Ni149  1  0.46119067  0.85314833  0.01064020  1.0
  Ni  Ni150  1  0.79452400  0.18648167  0.01064020  1.0
  Ni  Ni151  1  0.79452400  0.51981500  0.01064020  1.0
  Ni  Ni152  1  0.79452400  0.85314833  0.01064020  1.0
  Ni  Ni153  1  0.20547600  0.14685167  0.16807940  1.0
  Ni  Ni154  1  0.20547600  0.48018500  0.16807940  1.0
  Ni  Ni155  1  0.20547600  0.81351833  0.16807940  1.0
  Ni  Ni156  1  0.53880933  0.14685167  0.16807940  1.0
  Ni  Ni157  1  0.53880933  0.48018500  0.16807940  1.0
  Ni  Ni158  1  0.53880933  0.81351833  0.16807940  1.0
  Ni  Ni159  1  0.87214267  0.14685167  0.16807940  1.0
  Ni  Ni160  1  0.87214267  0.48018500  0.16807940  1.0
  Ni  Ni161  1  0.87214267  0.81351833  0.16807940  1.0
  Ni  Ni162  1  0.27569900  0.03581900  0.04502240  1.0
  Ni  Ni163  1  0.27569900  0.36915233  0.04502240  1.0
  Ni  Ni164  1  0.27569900  0.70248567  0.04502240  1.0
  Ni  Ni165  1  0.60903233  0.03581900  0.04502240  1.0
  Ni  Ni166  1  0.60903233  0.36915233  0.04502240  1.0
  Ni  Ni167  1  0.60903233  0.70248567  0.04502240  1.0
  Ni  Ni168  1  0.94236567  0.03581900  0.04502240  1.0
  Ni  Ni169  1  0.94236567  0.36915233  0.04502240  1.0
  Ni  Ni170  1  0.94236567  0.70248567  0.04502240  1.0
  Ni  Ni171  1  0.05763433  0.29751433  0.13369720  1.0
  Ni  Ni172  1  0.05763433  0.63084767  0.13369720  1.0
  Ni  Ni173  1  0.05763433  0.96418100  0.13369720  1.0
  Ni  Ni174  1  0.39096767  0.29751433  0.13369720  1.0
  Ni  Ni175  1  0.39096767  0.63084767  0.13369720  1.0
  Ni  Ni176  1  0.39096767  0.96418100  0.13369720  1.0
  Ni  Ni177  1  0.72430100  0.29751433  0.13369720  1.0
  Ni  Ni178  1  0.72430100  0.63084767  0.13369720  1.0
  Ni  Ni179  1  0.72430100  0.96418100  0.13369720  1.0
  Hf  Hf180  1  0.24244567  0.28960100  0.28943640  1.0
  Hf  Hf181  1  0.24244567  0.62293433  0.28943640  1.0
  Hf  Hf182  1  0.24244567  0.95626767  0.28943640  1.0
  Hf  Hf183  1  0.57577900  0.28960100  0.28943640  1.0
  Hf  Hf184  1  0.57577900  0.62293433  0.28943640  1.0
  Hf  Hf185  1  0.57577900  0.95626767  0.28943640  1.0
  Hf  Hf186  1  0.90911233  0.28960100  0.28943640  1.0
  Hf  Hf187  1  0.90911233  0.62293433  0.28943640  1.0
  Hf  Hf188  1  0.90911233  0.95626767  0.28943640  1.0
  Hf  Hf189  1  0.09088767  0.04373233  0.28928320  1.0
  Hf  Hf190  1  0.09088767  0.37706567  0.28928320  1.0
  Hf  Hf191  1  0.09088767  0.71039900  0.28928320  1.0
  Hf  Hf192  1  0.42422100  0.04373233  0.28928320  1.0
  Hf  Hf193  1  0.42422100  0.37706567  0.28928320  1.0
  Hf  Hf194  1  0.42422100  0.71039900  0.28928320  1.0
  Hf  Hf195  1  0.75755433  0.04373233  0.28928320  1.0
  Hf  Hf196  1  0.75755433  0.37706567  0.28928320  1.0
  Hf  Hf197  1  0.75755433  0.71039900  0.28928320  1.0
  Hf  Hf198  1  0.18156500  0.25935300  0.36953700  1.0
  Hf  Hf199  1  0.18156500  0.59268633  0.36953700  1.0
  Hf  Hf200  1  0.18156500  0.92601967  0.36953700  1.0
  Hf  Hf201  1  0.51489833  0.25935300  0.36953700  1.0
  Hf  Hf202  1  0.51489833  0.59268633  0.36953700  1.0
  Hf  Hf203  1  0.51489833  0.92601967  0.36953700  1.0
  Hf  Hf204  1  0.84823167  0.25935300  0.36953700  1.0
  Hf  Hf205  1  0.84823167  0.59268633  0.36953700  1.0
  Hf  Hf206  1  0.84823167  0.92601967  0.36953700  1.0
  Hf  Hf207  1  0.15176833  0.07398033  0.20918260  1.0
  Hf  Hf208  1  0.15176833  0.40731367  0.20918260  1.0
  Hf  Hf209  1  0.15176833  0.74064700  0.20918260  1.0
  Hf  Hf210  1  0.48510167  0.07398033  0.20918260  1.0
  Hf  Hf211  1  0.48510167  0.40731367  0.20918260  1.0
  Hf  Hf212  1  0.48510167  0.74064700  0.20918260  1.0
  Hf  Hf213  1  0.81843500  0.07398033  0.20918260  1.0
  Hf  Hf214  1  0.81843500  0.40731367  0.20918260  1.0
  Hf  Hf215  1  0.81843500  0.74064700  0.20918260  1.0
  Hf  Hf216  1  0.32477600  0.20823433  0.35781100  1.0
  Hf  Hf217  1  0.32477600  0.54156767  0.35781100  1.0
  Hf  Hf218  1  0.32477600  0.87490100  0.35781100  1.0
  Hf  Hf219  1  0.65810933  0.20823433  0.35781100  1.0
  Hf  Hf220  1  0.65810933  0.54156767  0.35781100  1.0
  Hf  Hf221  1  0.65810933  0.87490100  0.35781100  1.0
  Hf  Hf222  1  0.99144267  0.20823433  0.35781100  1.0
  Hf  Hf223  1  0.99144267  0.54156767  0.35781100  1.0
  Hf  Hf224  1  0.99144267  0.87490100  0.35781100  1.0
  Hf  Hf225  1  0.00855733  0.12509900  0.22090860  1.0
  Hf  Hf226  1  0.00855733  0.45843233  0.22090860  1.0
  Hf  Hf227  1  0.00855733  0.79176567  0.22090860  1.0
  Hf  Hf228  1  0.34189067  0.12509900  0.22090860  1.0
  Hf  Hf229  1  0.34189067  0.45843233  0.22090860  1.0
  Hf  Hf230  1  0.34189067  0.79176567  0.22090860  1.0
  Hf  Hf231  1  0.67522400  0.12509900  0.22090860  1.0
  Hf  Hf232  1  0.67522400  0.45843233  0.22090860  1.0
  Hf  Hf233  1  0.67522400  0.79176567  0.22090860  1.0
  Ni  Ni234  1  0.16666667  0.16666667  0.28935980  1.0
  Ni  Ni235  1  0.16666667  0.50000000  0.28935980  1.0
  Ni  Ni236  1  0.16666667  0.83333333  0.28935980  1.0
  Ni  Ni237  1  0.50000000  0.16666667  0.28935980  1.0
  Ni  Ni238  1  0.50000000  0.50000000  0.28935980  1.0
  Ni  Ni239  1  0.50000000  0.83333333  0.28935980  1.0
  Ni  Ni240  1  0.83333333  0.16666667  0.28935980  1.0
  Ni  Ni241  1  0.83333333  0.50000000  0.28935980  1.0
  Ni  Ni242  1  0.83333333  0.83333333  0.28935980  1.0
  Ni  Ni243  1  0.00000000  0.00000000  0.38935980  1.0
  Ni  Ni244  1  0.00000000  0.33333333  0.38935980  1.0
  Ni  Ni245  1  0.00000000  0.66666667  0.38935980  1.0
  Ni  Ni246  1  0.33333333  0.00000000  0.38935980  1.0
  Ni  Ni247  1  0.33333333  0.33333333  0.38935980  1.0
  Ni  Ni248  1  0.33333333  0.66666667  0.38935980  1.0
  Ni  Ni249  1  0.66666667  0.00000000  0.38935980  1.0
  Ni  Ni250  1  0.66666667  0.33333333  0.38935980  1.0
  Ni  Ni251  1  0.66666667  0.66666667  0.38935980  1.0
  Ni  Ni252  1  0.02110600  0.07168500  0.34360520  1.0
  Ni  Ni253  1  0.02110600  0.40501833  0.34360520  1.0
  Ni  Ni254  1  0.02110600  0.73835167  0.34360520  1.0
  Ni  Ni255  1  0.35443933  0.07168500  0.34360520  1.0
  Ni  Ni256  1  0.35443933  0.40501833  0.34360520  1.0
  Ni  Ni257  1  0.35443933  0.73835167  0.34360520  1.0
  Ni  Ni258  1  0.68777267  0.07168500  0.34360520  1.0
  Ni  Ni259  1  0.68777267  0.40501833  0.34360520  1.0
  Ni  Ni260  1  0.68777267  0.73835167  0.34360520  1.0
  Ni  Ni261  1  0.31222733  0.26164833  0.23511440  1.0
  Ni  Ni262  1  0.31222733  0.59498167  0.23511440  1.0
  Ni  Ni263  1  0.31222733  0.92831500  0.23511440  1.0
  Ni  Ni264  1  0.64556067  0.26164833  0.23511440  1.0
  Ni  Ni265  1  0.64556067  0.59498167  0.23511440  1.0
  Ni  Ni266  1  0.64556067  0.92831500  0.23511440  1.0
  Ni  Ni267  1  0.97889400  0.26164833  0.23511440  1.0
  Ni  Ni268  1  0.97889400  0.59498167  0.23511440  1.0
  Ni  Ni269  1  0.97889400  0.92831500  0.23511440  1.0
  Ni  Ni270  1  0.05867000  0.15224700  0.31285480  1.0
  Ni  Ni271  1  0.05867000  0.48558033  0.31285480  1.0
  Ni  Ni272  1  0.05867000  0.81891367  0.31285480  1.0
  Ni  Ni273  1  0.39200333  0.15224700  0.31285480  1.0
  Ni  Ni274  1  0.39200333  0.48558033  0.31285480  1.0
  Ni  Ni275  1  0.39200333  0.81891367  0.31285480  1.0
  Ni  Ni276  1  0.72533667  0.15224700  0.31285480  1.0
  Ni  Ni277  1  0.72533667  0.48558033  0.31285480  1.0
  Ni  Ni278  1  0.72533667  0.81891367  0.31285480  1.0
  Ni  Ni279  1  0.27466333  0.18108633  0.26586480  1.0
  Ni  Ni280  1  0.27466333  0.51441967  0.26586480  1.0
  Ni  Ni281  1  0.27466333  0.84775300  0.26586480  1.0
  Ni  Ni282  1  0.60799667  0.18108633  0.26586480  1.0
  Ni  Ni283  1  0.60799667  0.51441967  0.26586480  1.0
  Ni  Ni284  1  0.60799667  0.84775300  0.26586480  1.0
  Ni  Ni285  1  0.94133000  0.18108633  0.26586480  1.0
  Ni  Ni286  1  0.94133000  0.51441967  0.26586480  1.0
  Ni  Ni287  1  0.94133000  0.84775300  0.26586480  1.0
  Ni  Ni288  1  0.10002333  0.24493600  0.27842480  1.0
  Ni  Ni289  1  0.10002333  0.57826933  0.27842480  1.0
  Ni  Ni290  1  0.10002333  0.91160267  0.27842480  1.0
  Ni  Ni291  1  0.43335667  0.24493600  0.27842480  1.0
  Ni  Ni292  1  0.43335667  0.57826933  0.27842480  1.0
  Ni  Ni293  1  0.43335667  0.91160267  0.27842480  1.0
  Ni  Ni294  1  0.76669000  0.24493600  0.27842480  1.0
  Ni  Ni295  1  0.76669000  0.57826933  0.27842480  1.0
  Ni  Ni296  1  0.76669000  0.91160267  0.27842480  1.0
  Ni  Ni297  1  0.23331000  0.08839733  0.30029480  1.0
  Ni  Ni298  1  0.23331000  0.42173067  0.30029480  1.0
  Ni  Ni299  1  0.23331000  0.75506400  0.30029480  1.0
  Ni  Ni300  1  0.56664333  0.08839733  0.30029480  1.0
  Ni  Ni301  1  0.56664333  0.42173067  0.30029480  1.0
  Ni  Ni302  1  0.56664333  0.75506400  0.30029480  1.0
  Ni  Ni303  1  0.89997667  0.08839733  0.30029480  1.0
  Ni  Ni304  1  0.89997667  0.42173067  0.30029480  1.0
  Ni  Ni305  1  0.89997667  0.75506400  0.30029480  1.0
  Ni  Ni306  1  0.11978867  0.30201267  0.22551120  1.0
  Ni  Ni307  1  0.11978867  0.63534600  0.22551120  1.0
  Ni  Ni308  1  0.11978867  0.96867933  0.22551120  1.0
  Ni  Ni309  1  0.45312200  0.30201267  0.22551120  1.0
  Ni  Ni310  1  0.45312200  0.63534600  0.22551120  1.0
  Ni  Ni311  1  0.45312200  0.96867933  0.22551120  1.0
  Ni  Ni312  1  0.78645533  0.30201267  0.22551120  1.0
  Ni  Ni313  1  0.78645533  0.63534600  0.22551120  1.0
  Ni  Ni314  1  0.78645533  0.96867933  0.22551120  1.0
  Ni  Ni315  1  0.21354467  0.03132067  0.35320840  1.0
  Ni  Ni316  1  0.21354467  0.36465400  0.35320840  1.0
  Ni  Ni317  1  0.21354467  0.69798733  0.35320840  1.0
  Ni  Ni318  1  0.54687800  0.03132067  0.35320840  1.0
  Ni  Ni319  1  0.54687800  0.36465400  0.35320840  1.0
  Ni  Ni320  1  0.54687800  0.69798733  0.35320840  1.0
  Ni  Ni321  1  0.88021133  0.03132067  0.35320840  1.0
  Ni  Ni322  1  0.88021133  0.36465400  0.35320840  1.0
  Ni  Ni323  1  0.88021133  0.69798733  0.35320840  1.0
  Ni  Ni324  1  0.12785733  0.18648167  0.21064020  1.0
  Ni  Ni325  1  0.12785733  0.51981500  0.21064020  1.0
  Ni  Ni326  1  0.12785733  0.85314833  0.21064020  1.0
  Ni  Ni327  1  0.46119067  0.18648167  0.21064020  1.0
  Ni  Ni328  1  0.46119067  0.51981500  0.21064020  1.0
  Ni  Ni329  1  0.46119067  0.85314833  0.21064020  1.0
  Ni  Ni330  1  0.79452400  0.18648167  0.21064020  1.0
  Ni  Ni331  1  0.79452400  0.51981500  0.21064020  1.0
  Ni  Ni332  1  0.79452400  0.85314833  0.21064020  1.0
  Ni  Ni333  1  0.20547600  0.14685167  0.36807940  1.0
  Ni  Ni334  1  0.20547600  0.48018500  0.36807940  1.0
  Ni  Ni335  1  0.20547600  0.81351833  0.36807940  1.0
  Ni  Ni336  1  0.53880933  0.14685167  0.36807940  1.0
  Ni  Ni337  1  0.53880933  0.48018500  0.36807940  1.0
  Ni  Ni338  1  0.53880933  0.81351833  0.36807940  1.0
  Ni  Ni339  1  0.87214267  0.14685167  0.36807940  1.0
  Ni  Ni340  1  0.87214267  0.48018500  0.36807940  1.0
  Ni  Ni341  1  0.87214267  0.81351833  0.36807940  1.0
  Ni  Ni342  1  0.27569900  0.03581900  0.24502240  1.0
  Ni  Ni343  1  0.27569900  0.36915233  0.24502240  1.0
  Ni  Ni344  1  0.27569900  0.70248567  0.24502240  1.0
  Ni  Ni345  1  0.60903233  0.03581900  0.24502240  1.0
  Ni  Ni346  1  0.60903233  0.36915233  0.24502240  1.0
  Ni  Ni347  1  0.60903233  0.70248567  0.24502240  1.0
  Ni  Ni348  1  0.94236567  0.03581900  0.24502240  1.0
  Ni  Ni349  1  0.94236567  0.36915233  0.24502240  1.0
  Ni  Ni350  1  0.94236567  0.70248567  0.24502240  1.0
  Ni  Ni351  1  0.05763433  0.29751433  0.33369720  1.0
  Ni  Ni352  1  0.05763433  0.63084767  0.33369720  1.0
  Ni  Ni353  1  0.05763433  0.96418100  0.33369720  1.0
  Ni  Ni354  1  0.39096767  0.29751433  0.33369720  1.0
  Ni  Ni355  1  0.39096767  0.63084767  0.33369720  1.0
  Ni  Ni356  1  0.39096767  0.96418100  0.33369720  1.0
  Ni  Ni357  1  0.72430100  0.29751433  0.33369720  1.0
  Ni  Ni358  1  0.72430100  0.63084767  0.33369720  1.0
  Ni  Ni359  1  0.72430100  0.96418100  0.33369720  1.0
