# generated using pymatgen
data_Hf3Ni
_symmetry_space_group_name_H-M   'P 1'
_cell_length_a   23.24627372
_cell_length_b   34.23560203
_cell_length_c   28.92691597
_cell_angle_alpha   90.47584774
_cell_angle_beta   90.70080706
_cell_angle_gamma   108.24911256
_symmetry_Int_Tables_number   1
_chemical_formula_structural   Hf3Ni
_chemical_formula_sum   'Hf324 Ni108'
_cell_volume   21860.18116825
_cell_formula_units_Z   108
loop_
 _symmetry_equiv_pos_site_id
 _symmetry_equiv_pos_as_xyz
  1  'x, y, z'
loop_
 _atom_site_type_symbol
 _atom_site_label
 _atom_site_symmetry_multiplicity
 _atom_site_fract_x
 _atom_site_fract_y
 _atom_site_fract_z
 _atom_site_occupancy
  Hf  Hf0  1  0.22492777  0.21582902  0.96386481  1.0
  Hf  Hf1  1  0.22492777  0.54916235  0.96386481  1.0
  Hf  Hf2  1  0.22492777  0.88249569  0.96386481  1.0
  Hf  Hf3  1  0.55826110  0.21582902  0.96386481  1.0
  Hf  Hf4  1  0.55826110  0.54916235  0.96386481  1.0
  Hf  Hf5  1  0.55826110  0.88249569  0.96386481  1.0
  Hf  Hf6  1  0.89159444  0.21582902  0.96386481  1.0
  Hf  Hf7  1  0.89159444  0.54916235  0.96386481  1.0
  Hf  Hf8  1  0.89159444  0.88249569  0.96386481  1.0
  Hf  Hf9  1  0.03742777  0.11166235  0.90136481  1.0
  Hf  Hf10  1  0.03742777  0.44499569  0.90136481  1.0
  Hf  Hf11  1  0.03742777  0.77832902  0.90136481  1.0
  Hf  Hf12  1  0.37076110  0.11166235  0.90136481  1.0
  Hf  Hf13  1  0.37076110  0.44499569  0.90136481  1.0
  Hf  Hf14  1  0.37076110  0.77832902  0.90136481  1.0
  Hf  Hf15  1  0.70409444  0.11166235  0.90136481  1.0
  Hf  Hf16  1  0.70409444  0.44499569  0.90136481  1.0
  Hf  Hf17  1  0.70409444  0.77832902  0.90136481  1.0
  Hf  Hf18  1  0.20344815  0.28026790  0.89942594  1.0
  Hf  Hf19  1  0.20344815  0.61360123  0.89942594  1.0
  Hf  Hf20  1  0.20344815  0.94693456  0.89942594  1.0
  Hf  Hf21  1  0.53678148  0.28026790  0.89942594  1.0
  Hf  Hf22  1  0.53678148  0.61360123  0.89942594  1.0
  Hf  Hf23  1  0.53678148  0.94693456  0.89942594  1.0
  Hf  Hf24  1  0.87011481  0.28026790  0.89942594  1.0
  Hf  Hf25  1  0.87011481  0.61360123  0.89942594  1.0
  Hf  Hf26  1  0.87011481  0.94693456  0.89942594  1.0
  Hf  Hf27  1  0.05761481  0.05110123  0.96192594  1.0
  Hf  Hf28  1  0.05761481  0.38443456  0.96192594  1.0
  Hf  Hf29  1  0.05761481  0.71776790  0.96192594  1.0
  Hf  Hf30  1  0.39094815  0.05110123  0.96192594  1.0
  Hf  Hf31  1  0.39094815  0.38443456  0.96192594  1.0
  Hf  Hf32  1  0.39094815  0.71776790  0.96192594  1.0
  Hf  Hf33  1  0.72428148  0.05110123  0.96192594  1.0
  Hf  Hf34  1  0.72428148  0.38443456  0.96192594  1.0
  Hf  Hf35  1  0.72428148  0.71776790  0.96192594  1.0
  Hf  Hf36  1  0.32941758  0.29297192  0.94141575  1.0
  Hf  Hf37  1  0.32941758  0.62630525  0.94141575  1.0
  Hf  Hf38  1  0.32941758  0.95963858  0.94141575  1.0
  Hf  Hf39  1  0.66275092  0.29297192  0.94141575  1.0
  Hf  Hf40  1  0.66275092  0.62630525  0.94141575  1.0
  Hf  Hf41  1  0.66275092  0.95963858  0.94141575  1.0
  Hf  Hf42  1  0.99608425  0.29297192  0.94141575  1.0
  Hf  Hf43  1  0.99608425  0.62630525  0.94141575  1.0
  Hf  Hf44  1  0.99608425  0.95963858  0.94141575  1.0
  Hf  Hf45  1  0.14191758  0.18880525  0.87891575  1.0
  Hf  Hf46  1  0.14191758  0.52213858  0.87891575  1.0
  Hf  Hf47  1  0.14191758  0.85547192  0.87891575  1.0
  Hf  Hf48  1  0.47525092  0.18880525  0.87891575  1.0
  Hf  Hf49  1  0.47525092  0.52213858  0.87891575  1.0
  Hf  Hf50  1  0.47525092  0.85547192  0.87891575  1.0
  Hf  Hf51  1  0.80858425  0.18880525  0.87891575  1.0
  Hf  Hf52  1  0.80858425  0.52213858  0.87891575  1.0
  Hf  Hf53  1  0.80858425  0.85547192  0.87891575  1.0
  Hf  Hf54  1  0.06673890  0.24250431  0.91113519  1.0
  Hf  Hf55  1  0.06673890  0.57583765  0.91113519  1.0
  Hf  Hf56  1  0.06673890  0.90917098  0.91113519  1.0
  Hf  Hf57  1  0.40007223  0.24250431  0.91113519  1.0
  Hf  Hf58  1  0.40007223  0.57583765  0.91113519  1.0
  Hf  Hf59  1  0.40007223  0.90917098  0.91113519  1.0
  Hf  Hf60  1  0.73340556  0.24250431  0.91113519  1.0
  Hf  Hf61  1  0.73340556  0.57583765  0.91113519  1.0
  Hf  Hf62  1  0.73340556  0.90917098  0.91113519  1.0
  Hf  Hf63  1  0.25423890  0.01333765  0.97363519  1.0
  Hf  Hf64  1  0.25423890  0.34667098  0.97363519  1.0
  Hf  Hf65  1  0.25423890  0.68000431  0.97363519  1.0
  Hf  Hf66  1  0.58757223  0.01333765  0.97363519  1.0
  Hf  Hf67  1  0.58757223  0.34667098  0.97363519  1.0
  Hf  Hf68  1  0.58757223  0.68000431  0.97363519  1.0
  Hf  Hf69  1  0.92090556  0.01333765  0.97363519  1.0
  Hf  Hf70  1  0.92090556  0.34667098  0.97363519  1.0
  Hf  Hf71  1  0.92090556  0.68000431  0.97363519  1.0
  Hf  Hf72  1  0.08821852  0.17806544  0.97557406  1.0
  Hf  Hf73  1  0.08821852  0.51139877  0.97557406  1.0
  Hf  Hf74  1  0.08821852  0.84473210  0.97557406  1.0
  Hf  Hf75  1  0.42155185  0.17806544  0.97557406  1.0
  Hf  Hf76  1  0.42155185  0.51139877  0.97557406  1.0
  Hf  Hf77  1  0.42155185  0.84473210  0.97557406  1.0
  Hf  Hf78  1  0.75488519  0.17806544  0.97557406  1.0
  Hf  Hf79  1  0.75488519  0.51139877  0.97557406  1.0
  Hf  Hf80  1  0.75488519  0.84473210  0.97557406  1.0
  Hf  Hf81  1  0.23405185  0.07389877  0.91307406  1.0
  Hf  Hf82  1  0.23405185  0.40723210  0.91307406  1.0
  Hf  Hf83  1  0.23405185  0.74056544  0.91307406  1.0
  Hf  Hf84  1  0.56738519  0.07389877  0.91307406  1.0
  Hf  Hf85  1  0.56738519  0.40723210  0.91307406  1.0
  Hf  Hf86  1  0.56738519  0.74056544  0.91307406  1.0
  Hf  Hf87  1  0.90071852  0.07389877  0.91307406  1.0
  Hf  Hf88  1  0.90071852  0.40723210  0.91307406  1.0
  Hf  Hf89  1  0.90071852  0.74056544  0.91307406  1.0
  Hf  Hf90  1  0.29558242  0.16536142  0.93358425  1.0
  Hf  Hf91  1  0.29558242  0.49869475  0.93358425  1.0
  Hf  Hf92  1  0.29558242  0.83202808  0.93358425  1.0
  Hf  Hf93  1  0.62891575  0.16536142  0.93358425  1.0
  Hf  Hf94  1  0.62891575  0.49869475  0.93358425  1.0
  Hf  Hf95  1  0.62891575  0.83202808  0.93358425  1.0
  Hf  Hf96  1  0.96224908  0.16536142  0.93358425  1.0
  Hf  Hf97  1  0.96224908  0.49869475  0.93358425  1.0
  Hf  Hf98  1  0.96224908  0.83202808  0.93358425  1.0
  Hf  Hf99  1  0.14974908  0.26952808  0.99608425  1.0
  Hf  Hf100  1  0.14974908  0.60286142  0.99608425  1.0
  Hf  Hf101  1  0.14974908  0.93619475  0.99608425  1.0
  Hf  Hf102  1  0.48308242  0.26952808  0.99608425  1.0
  Hf  Hf103  1  0.48308242  0.60286142  0.99608425  1.0
  Hf  Hf104  1  0.48308242  0.93619475  0.99608425  1.0
  Hf  Hf105  1  0.81641575  0.26952808  0.99608425  1.0
  Hf  Hf106  1  0.81641575  0.60286142  0.99608425  1.0
  Hf  Hf107  1  0.81641575  0.93619475  0.99608425  1.0
  Hf  Hf108  1  0.18326110  0.00749569  0.83886481  1.0
  Hf  Hf109  1  0.18326110  0.34082902  0.83886481  1.0
  Hf  Hf110  1  0.18326110  0.67416235  0.83886481  1.0
  Hf  Hf111  1  0.51659444  0.00749569  0.83886481  1.0
  Hf  Hf112  1  0.51659444  0.34082902  0.83886481  1.0
  Hf  Hf113  1  0.51659444  0.67416235  0.83886481  1.0
  Hf  Hf114  1  0.84992777  0.00749569  0.83886481  1.0
  Hf  Hf115  1  0.84992777  0.34082902  0.83886481  1.0
  Hf  Hf116  1  0.84992777  0.67416235  0.83886481  1.0
  Hf  Hf117  1  0.32909444  0.23666235  0.77636481  1.0
  Hf  Hf118  1  0.32909444  0.56999569  0.77636481  1.0
  Hf  Hf119  1  0.32909444  0.90332902  0.77636481  1.0
  Hf  Hf120  1  0.66242777  0.23666235  0.77636481  1.0
  Hf  Hf121  1  0.66242777  0.56999569  0.77636481  1.0
  Hf  Hf122  1  0.66242777  0.90332902  0.77636481  1.0
  Hf  Hf123  1  0.99576110  0.23666235  0.77636481  1.0
  Hf  Hf124  1  0.99576110  0.56999569  0.77636481  1.0
  Hf  Hf125  1  0.99576110  0.90332902  0.77636481  1.0
  Hf  Hf126  1  0.16178148  0.07193456  0.77442594  1.0
  Hf  Hf127  1  0.16178148  0.40526790  0.77442594  1.0
  Hf  Hf128  1  0.16178148  0.73860123  0.77442594  1.0
  Hf  Hf129  1  0.49511481  0.07193456  0.77442594  1.0
  Hf  Hf130  1  0.49511481  0.40526790  0.77442594  1.0
  Hf  Hf131  1  0.49511481  0.73860123  0.77442594  1.0
  Hf  Hf132  1  0.82844815  0.07193456  0.77442594  1.0
  Hf  Hf133  1  0.82844815  0.40526790  0.77442594  1.0
  Hf  Hf134  1  0.82844815  0.73860123  0.77442594  1.0
  Hf  Hf135  1  0.01594815  0.17610123  0.83692594  1.0
  Hf  Hf136  1  0.01594815  0.50943456  0.83692594  1.0
  Hf  Hf137  1  0.01594815  0.84276790  0.83692594  1.0
  Hf  Hf138  1  0.34928148  0.17610123  0.83692594  1.0
  Hf  Hf139  1  0.34928148  0.50943456  0.83692594  1.0
  Hf  Hf140  1  0.34928148  0.84276790  0.83692594  1.0
  Hf  Hf141  1  0.68261481  0.17610123  0.83692594  1.0
  Hf  Hf142  1  0.68261481  0.50943456  0.83692594  1.0
  Hf  Hf143  1  0.68261481  0.84276790  0.83692594  1.0
  Hf  Hf144  1  0.28775092  0.08463858  0.81641575  1.0
  Hf  Hf145  1  0.28775092  0.41797192  0.81641575  1.0
  Hf  Hf146  1  0.28775092  0.75130525  0.81641575  1.0
  Hf  Hf147  1  0.62108425  0.08463858  0.81641575  1.0
  Hf  Hf148  1  0.62108425  0.41797192  0.81641575  1.0
  Hf  Hf149  1  0.62108425  0.75130525  0.81641575  1.0
  Hf  Hf150  1  0.95441758  0.08463858  0.81641575  1.0
  Hf  Hf151  1  0.95441758  0.41797192  0.81641575  1.0
  Hf  Hf152  1  0.95441758  0.75130525  0.81641575  1.0
  Hf  Hf153  1  0.10025092  0.31380525  0.75391575  1.0
  Hf  Hf154  1  0.10025092  0.64713858  0.75391575  1.0
  Hf  Hf155  1  0.10025092  0.98047192  0.75391575  1.0
  Hf  Hf156  1  0.43358425  0.31380525  0.75391575  1.0
  Hf  Hf157  1  0.43358425  0.64713858  0.75391575  1.0
  Hf  Hf158  1  0.43358425  0.98047192  0.75391575  1.0
  Hf  Hf159  1  0.76691758  0.31380525  0.75391575  1.0
  Hf  Hf160  1  0.76691758  0.64713858  0.75391575  1.0
  Hf  Hf161  1  0.76691758  0.98047192  0.75391575  1.0
  Hf  Hf162  1  0.02507223  0.03417098  0.78613519  1.0
  Hf  Hf163  1  0.02507223  0.36750431  0.78613519  1.0
  Hf  Hf164  1  0.02507223  0.70083765  0.78613519  1.0
  Hf  Hf165  1  0.35840556  0.03417098  0.78613519  1.0
  Hf  Hf166  1  0.35840556  0.36750431  0.78613519  1.0
  Hf  Hf167  1  0.35840556  0.70083765  0.78613519  1.0
  Hf  Hf168  1  0.69173890  0.03417098  0.78613519  1.0
  Hf  Hf169  1  0.69173890  0.36750431  0.78613519  1.0
  Hf  Hf170  1  0.69173890  0.70083765  0.78613519  1.0
  Hf  Hf171  1  0.21257223  0.13833765  0.84863519  1.0
  Hf  Hf172  1  0.21257223  0.47167098  0.84863519  1.0
  Hf  Hf173  1  0.21257223  0.80500431  0.84863519  1.0
  Hf  Hf174  1  0.54590556  0.13833765  0.84863519  1.0
  Hf  Hf175  1  0.54590556  0.47167098  0.84863519  1.0
  Hf  Hf176  1  0.54590556  0.80500431  0.84863519  1.0
  Hf  Hf177  1  0.87923890  0.13833765  0.84863519  1.0
  Hf  Hf178  1  0.87923890  0.47167098  0.84863519  1.0
  Hf  Hf179  1  0.87923890  0.80500431  0.84863519  1.0
  Hf  Hf180  1  0.04655185  0.30306544  0.85057406  1.0
  Hf  Hf181  1  0.04655185  0.63639877  0.85057406  1.0
  Hf  Hf182  1  0.04655185  0.96973210  0.85057406  1.0
  Hf  Hf183  1  0.37988519  0.30306544  0.85057406  1.0
  Hf  Hf184  1  0.37988519  0.63639877  0.85057406  1.0
  Hf  Hf185  1  0.37988519  0.96973210  0.85057406  1.0
  Hf  Hf186  1  0.71321852  0.30306544  0.85057406  1.0
  Hf  Hf187  1  0.71321852  0.63639877  0.85057406  1.0
  Hf  Hf188  1  0.71321852  0.96973210  0.85057406  1.0
  Hf  Hf189  1  0.19238519  0.19889877  0.78807406  1.0
  Hf  Hf190  1  0.19238519  0.53223210  0.78807406  1.0
  Hf  Hf191  1  0.19238519  0.86556544  0.78807406  1.0
  Hf  Hf192  1  0.52571852  0.19889877  0.78807406  1.0
  Hf  Hf193  1  0.52571852  0.53223210  0.78807406  1.0
  Hf  Hf194  1  0.52571852  0.86556544  0.78807406  1.0
  Hf  Hf195  1  0.85905185  0.19889877  0.78807406  1.0
  Hf  Hf196  1  0.85905185  0.53223210  0.78807406  1.0
  Hf  Hf197  1  0.85905185  0.86556544  0.78807406  1.0
  Hf  Hf198  1  0.25391575  0.29036142  0.80858425  1.0
  Hf  Hf199  1  0.25391575  0.62369475  0.80858425  1.0
  Hf  Hf200  1  0.25391575  0.95702808  0.80858425  1.0
  Hf  Hf201  1  0.58724908  0.29036142  0.80858425  1.0
  Hf  Hf202  1  0.58724908  0.62369475  0.80858425  1.0
  Hf  Hf203  1  0.58724908  0.95702808  0.80858425  1.0
  Hf  Hf204  1  0.92058242  0.29036142  0.80858425  1.0
  Hf  Hf205  1  0.92058242  0.62369475  0.80858425  1.0
  Hf  Hf206  1  0.92058242  0.95702808  0.80858425  1.0
  Hf  Hf207  1  0.10808242  0.06119475  0.87108425  1.0
  Hf  Hf208  1  0.10808242  0.39452808  0.87108425  1.0
  Hf  Hf209  1  0.10808242  0.72786142  0.87108425  1.0
  Hf  Hf210  1  0.44141575  0.06119475  0.87108425  1.0
  Hf  Hf211  1  0.44141575  0.39452808  0.87108425  1.0
  Hf  Hf212  1  0.44141575  0.72786142  0.87108425  1.0
  Hf  Hf213  1  0.77474908  0.06119475  0.87108425  1.0
  Hf  Hf214  1  0.77474908  0.39452808  0.87108425  1.0
  Hf  Hf215  1  0.77474908  0.72786142  0.87108425  1.0
  Hf  Hf216  1  0.14159444  0.13249569  0.71386481  1.0
  Hf  Hf217  1  0.14159444  0.46582902  0.71386481  1.0
  Hf  Hf218  1  0.14159444  0.79916235  0.71386481  1.0
  Hf  Hf219  1  0.47492777  0.13249569  0.71386481  1.0
  Hf  Hf220  1  0.47492777  0.46582902  0.71386481  1.0
  Hf  Hf221  1  0.47492777  0.79916235  0.71386481  1.0
  Hf  Hf222  1  0.80826110  0.13249569  0.71386481  1.0
  Hf  Hf223  1  0.80826110  0.46582902  0.71386481  1.0
  Hf  Hf224  1  0.80826110  0.79916235  0.71386481  1.0
  Hf  Hf225  1  0.28742777  0.02832902  0.65136481  1.0
  Hf  Hf226  1  0.28742777  0.36166235  0.65136481  1.0
  Hf  Hf227  1  0.28742777  0.69499569  0.65136481  1.0
  Hf  Hf228  1  0.62076110  0.02832902  0.65136481  1.0
  Hf  Hf229  1  0.62076110  0.36166235  0.65136481  1.0
  Hf  Hf230  1  0.62076110  0.69499569  0.65136481  1.0
  Hf  Hf231  1  0.95409444  0.02832902  0.65136481  1.0
  Hf  Hf232  1  0.95409444  0.36166235  0.65136481  1.0
  Hf  Hf233  1  0.95409444  0.69499569  0.65136481  1.0
  Hf  Hf234  1  0.12011481  0.19693456  0.64942594  1.0
  Hf  Hf235  1  0.12011481  0.53026790  0.64942594  1.0
  Hf  Hf236  1  0.12011481  0.86360123  0.64942594  1.0
  Hf  Hf237  1  0.45344815  0.19693456  0.64942594  1.0
  Hf  Hf238  1  0.45344815  0.53026790  0.64942594  1.0
  Hf  Hf239  1  0.45344815  0.86360123  0.64942594  1.0
  Hf  Hf240  1  0.78678148  0.19693456  0.64942594  1.0
  Hf  Hf241  1  0.78678148  0.53026790  0.64942594  1.0
  Hf  Hf242  1  0.78678148  0.86360123  0.64942594  1.0
  Hf  Hf243  1  0.30761481  0.30110123  0.71192594  1.0
  Hf  Hf244  1  0.30761481  0.63443456  0.71192594  1.0
  Hf  Hf245  1  0.30761481  0.96776790  0.71192594  1.0
  Hf  Hf246  1  0.64094815  0.30110123  0.71192594  1.0
  Hf  Hf247  1  0.64094815  0.63443456  0.71192594  1.0
  Hf  Hf248  1  0.64094815  0.96776790  0.71192594  1.0
  Hf  Hf249  1  0.97428148  0.30110123  0.71192594  1.0
  Hf  Hf250  1  0.97428148  0.63443456  0.71192594  1.0
  Hf  Hf251  1  0.97428148  0.96776790  0.71192594  1.0
  Hf  Hf252  1  0.24608425  0.20963858  0.69141575  1.0
  Hf  Hf253  1  0.24608425  0.54297192  0.69141575  1.0
  Hf  Hf254  1  0.24608425  0.87630525  0.69141575  1.0
  Hf  Hf255  1  0.57941758  0.20963858  0.69141575  1.0
  Hf  Hf256  1  0.57941758  0.54297192  0.69141575  1.0
  Hf  Hf257  1  0.57941758  0.87630525  0.69141575  1.0
  Hf  Hf258  1  0.91275092  0.20963858  0.69141575  1.0
  Hf  Hf259  1  0.91275092  0.54297192  0.69141575  1.0
  Hf  Hf260  1  0.91275092  0.87630525  0.69141575  1.0
  Hf  Hf261  1  0.05858425  0.10547192  0.62891575  1.0
  Hf  Hf262  1  0.05858425  0.43880525  0.62891575  1.0
  Hf  Hf263  1  0.05858425  0.77213858  0.62891575  1.0
  Hf  Hf264  1  0.39191758  0.10547192  0.62891575  1.0
  Hf  Hf265  1  0.39191758  0.43880525  0.62891575  1.0
  Hf  Hf266  1  0.39191758  0.77213858  0.62891575  1.0
  Hf  Hf267  1  0.72525092  0.10547192  0.62891575  1.0
  Hf  Hf268  1  0.72525092  0.43880525  0.62891575  1.0
  Hf  Hf269  1  0.72525092  0.77213858  0.62891575  1.0
  Hf  Hf270  1  0.31673890  0.15917098  0.66113519  1.0
  Hf  Hf271  1  0.31673890  0.49250431  0.66113519  1.0
  Hf  Hf272  1  0.31673890  0.82583765  0.66113519  1.0
  Hf  Hf273  1  0.65007223  0.15917098  0.66113519  1.0
  Hf  Hf274  1  0.65007223  0.49250431  0.66113519  1.0
  Hf  Hf275  1  0.65007223  0.82583765  0.66113519  1.0
  Hf  Hf276  1  0.98340556  0.15917098  0.66113519  1.0
  Hf  Hf277  1  0.98340556  0.49250431  0.66113519  1.0
  Hf  Hf278  1  0.98340556  0.82583765  0.66113519  1.0
  Hf  Hf279  1  0.17090556  0.26333765  0.72363519  1.0
  Hf  Hf280  1  0.17090556  0.59667098  0.72363519  1.0
  Hf  Hf281  1  0.17090556  0.93000431  0.72363519  1.0
  Hf  Hf282  1  0.50423890  0.26333765  0.72363519  1.0
  Hf  Hf283  1  0.50423890  0.59667098  0.72363519  1.0
  Hf  Hf284  1  0.50423890  0.93000431  0.72363519  1.0
  Hf  Hf285  1  0.83757223  0.26333765  0.72363519  1.0
  Hf  Hf286  1  0.83757223  0.59667098  0.72363519  1.0
  Hf  Hf287  1  0.83757223  0.93000431  0.72363519  1.0
  Hf  Hf288  1  0.00488519  0.09473210  0.72557406  1.0
  Hf  Hf289  1  0.00488519  0.42806544  0.72557406  1.0
  Hf  Hf290  1  0.00488519  0.76139877  0.72557406  1.0
  Hf  Hf291  1  0.33821852  0.09473210  0.72557406  1.0
  Hf  Hf292  1  0.33821852  0.42806544  0.72557406  1.0
  Hf  Hf293  1  0.33821852  0.76139877  0.72557406  1.0
  Hf  Hf294  1  0.67155185  0.09473210  0.72557406  1.0
  Hf  Hf295  1  0.67155185  0.42806544  0.72557406  1.0
  Hf  Hf296  1  0.67155185  0.76139877  0.72557406  1.0
  Hf  Hf297  1  0.15071852  0.32389877  0.66307406  1.0
  Hf  Hf298  1  0.15071852  0.65723210  0.66307406  1.0
  Hf  Hf299  1  0.15071852  0.99056544  0.66307406  1.0
  Hf  Hf300  1  0.48405185  0.32389877  0.66307406  1.0
  Hf  Hf301  1  0.48405185  0.65723210  0.66307406  1.0
  Hf  Hf302  1  0.48405185  0.99056544  0.66307406  1.0
  Hf  Hf303  1  0.81738519  0.32389877  0.66307406  1.0
  Hf  Hf304  1  0.81738519  0.65723210  0.66307406  1.0
  Hf  Hf305  1  0.81738519  0.99056544  0.66307406  1.0
  Hf  Hf306  1  0.21224908  0.08202808  0.68358425  1.0
  Hf  Hf307  1  0.21224908  0.41536142  0.68358425  1.0
  Hf  Hf308  1  0.21224908  0.74869475  0.68358425  1.0
  Hf  Hf309  1  0.54558242  0.08202808  0.68358425  1.0
  Hf  Hf310  1  0.54558242  0.41536142  0.68358425  1.0
  Hf  Hf311  1  0.54558242  0.74869475  0.68358425  1.0
  Hf  Hf312  1  0.87891575  0.08202808  0.68358425  1.0
  Hf  Hf313  1  0.87891575  0.41536142  0.68358425  1.0
  Hf  Hf314  1  0.87891575  0.74869475  0.68358425  1.0
  Hf  Hf315  1  0.06641575  0.18619475  0.74608425  1.0
  Hf  Hf316  1  0.06641575  0.51952808  0.74608425  1.0
  Hf  Hf317  1  0.06641575  0.85286142  0.74608425  1.0
  Hf  Hf318  1  0.39974908  0.18619475  0.74608425  1.0
  Hf  Hf319  1  0.39974908  0.51952808  0.74608425  1.0
  Hf  Hf320  1  0.39974908  0.85286142  0.74608425  1.0
  Hf  Hf321  1  0.73308242  0.18619475  0.74608425  1.0
  Hf  Hf322  1  0.73308242  0.51952808  0.74608425  1.0
  Hf  Hf323  1  0.73308242  0.85286142  0.74608425  1.0
  Ni  Ni324  1  0.31770833  0.10243056  0.99479167  1.0
  Ni  Ni325  1  0.31770833  0.43576389  0.99479167  1.0
  Ni  Ni326  1  0.31770833  0.76909722  0.99479167  1.0
  Ni  Ni327  1  0.65104167  0.10243056  0.99479167  1.0
  Ni  Ni328  1  0.65104167  0.43576389  0.99479167  1.0
  Ni  Ni329  1  0.65104167  0.76909722  0.99479167  1.0
  Ni  Ni330  1  0.98437500  0.10243056  0.99479167  1.0
  Ni  Ni331  1  0.98437500  0.43576389  0.99479167  1.0
  Ni  Ni332  1  0.98437500  0.76909722  0.99479167  1.0
  Ni  Ni333  1  0.13020833  0.33159722  0.93229167  1.0
  Ni  Ni334  1  0.13020833  0.66493056  0.93229167  1.0
  Ni  Ni335  1  0.13020833  0.99826389  0.93229167  1.0
  Ni  Ni336  1  0.46354167  0.33159722  0.93229167  1.0
  Ni  Ni337  1  0.46354167  0.66493056  0.93229167  1.0
  Ni  Ni338  1  0.46354167  0.99826389  0.93229167  1.0
  Ni  Ni339  1  0.79687500  0.33159722  0.93229167  1.0
  Ni  Ni340  1  0.79687500  0.66493056  0.93229167  1.0
  Ni  Ni341  1  0.79687500  0.99826389  0.93229167  1.0
  Ni  Ni342  1  0.30729167  0.02256944  0.88020833  1.0
  Ni  Ni343  1  0.30729167  0.35590278  0.88020833  1.0
  Ni  Ni344  1  0.30729167  0.68923611  0.88020833  1.0
  Ni  Ni345  1  0.64062500  0.02256944  0.88020833  1.0
  Ni  Ni346  1  0.64062500  0.35590278  0.88020833  1.0
  Ni  Ni347  1  0.64062500  0.68923611  0.88020833  1.0
  Ni  Ni348  1  0.97395833  0.02256944  0.88020833  1.0
  Ni  Ni349  1  0.97395833  0.35590278  0.88020833  1.0
  Ni  Ni350  1  0.97395833  0.68923611  0.88020833  1.0
  Ni  Ni351  1  0.16145833  0.12673611  0.94270833  1.0
  Ni  Ni352  1  0.16145833  0.46006944  0.94270833  1.0
  Ni  Ni353  1  0.16145833  0.79340278  0.94270833  1.0
  Ni  Ni354  1  0.49479167  0.12673611  0.94270833  1.0
  Ni  Ni355  1  0.49479167  0.46006944  0.94270833  1.0
  Ni  Ni356  1  0.49479167  0.79340278  0.94270833  1.0
  Ni  Ni357  1  0.82812500  0.12673611  0.94270833  1.0
  Ni  Ni358  1  0.82812500  0.46006944  0.94270833  1.0
  Ni  Ni359  1  0.82812500  0.79340278  0.94270833  1.0
  Ni  Ni360  1  0.27604167  0.22743056  0.86979167  1.0
  Ni  Ni361  1  0.27604167  0.56076389  0.86979167  1.0
  Ni  Ni362  1  0.27604167  0.89409722  0.86979167  1.0
  Ni  Ni363  1  0.60937500  0.22743056  0.86979167  1.0
  Ni  Ni364  1  0.60937500  0.56076389  0.86979167  1.0
  Ni  Ni365  1  0.60937500  0.89409722  0.86979167  1.0
  Ni  Ni366  1  0.94270833  0.22743056  0.86979167  1.0
  Ni  Ni367  1  0.94270833  0.56076389  0.86979167  1.0
  Ni  Ni368  1  0.94270833  0.89409722  0.86979167  1.0
  Ni  Ni369  1  0.08854167  0.12326389  0.80729167  1.0
  Ni  Ni370  1  0.08854167  0.45659722  0.80729167  1.0
  Ni  Ni371  1  0.08854167  0.78993056  0.80729167  1.0
  Ni  Ni372  1  0.42187500  0.12326389  0.80729167  1.0
  Ni  Ni373  1  0.42187500  0.45659722  0.80729167  1.0
  Ni  Ni374  1  0.42187500  0.78993056  0.80729167  1.0
  Ni  Ni375  1  0.75520833  0.12326389  0.80729167  1.0
  Ni  Ni376  1  0.75520833  0.45659722  0.80729167  1.0
  Ni  Ni377  1  0.75520833  0.78993056  0.80729167  1.0
  Ni  Ni378  1  0.26562500  0.14756944  0.75520833  1.0
  Ni  Ni379  1  0.26562500  0.48090278  0.75520833  1.0
  Ni  Ni380  1  0.26562500  0.81423611  0.75520833  1.0
  Ni  Ni381  1  0.59895833  0.14756944  0.75520833  1.0
  Ni  Ni382  1  0.59895833  0.48090278  0.75520833  1.0
  Ni  Ni383  1  0.59895833  0.81423611  0.75520833  1.0
  Ni  Ni384  1  0.93229167  0.14756944  0.75520833  1.0
  Ni  Ni385  1  0.93229167  0.48090278  0.75520833  1.0
  Ni  Ni386  1  0.93229167  0.81423611  0.75520833  1.0
  Ni  Ni387  1  0.11979167  0.25173611  0.81770833  1.0
  Ni  Ni388  1  0.11979167  0.58506944  0.81770833  1.0
  Ni  Ni389  1  0.11979167  0.91840278  0.81770833  1.0
  Ni  Ni390  1  0.45312500  0.25173611  0.81770833  1.0
  Ni  Ni391  1  0.45312500  0.58506944  0.81770833  1.0
  Ni  Ni392  1  0.45312500  0.91840278  0.81770833  1.0
  Ni  Ni393  1  0.78645833  0.25173611  0.81770833  1.0
  Ni  Ni394  1  0.78645833  0.58506944  0.81770833  1.0
  Ni  Ni395  1  0.78645833  0.91840278  0.81770833  1.0
  Ni  Ni396  1  0.23437500  0.01909722  0.74479167  1.0
  Ni  Ni397  1  0.23437500  0.35243056  0.74479167  1.0
  Ni  Ni398  1  0.23437500  0.68576389  0.74479167  1.0
  Ni  Ni399  1  0.56770833  0.01909722  0.74479167  1.0
  Ni  Ni400  1  0.56770833  0.35243056  0.74479167  1.0
  Ni  Ni401  1  0.56770833  0.68576389  0.74479167  1.0
  Ni  Ni402  1  0.90104167  0.01909722  0.74479167  1.0
  Ni  Ni403  1  0.90104167  0.35243056  0.74479167  1.0
  Ni  Ni404  1  0.90104167  0.68576389  0.74479167  1.0
  Ni  Ni405  1  0.04687500  0.24826389  0.68229167  1.0
  Ni  Ni406  1  0.04687500  0.58159722  0.68229167  1.0
  Ni  Ni407  1  0.04687500  0.91493056  0.68229167  1.0
  Ni  Ni408  1  0.38020833  0.24826389  0.68229167  1.0
  Ni  Ni409  1  0.38020833  0.58159722  0.68229167  1.0
  Ni  Ni410  1  0.38020833  0.91493056  0.68229167  1.0
  Ni  Ni411  1  0.71354167  0.24826389  0.68229167  1.0
  Ni  Ni412  1  0.71354167  0.58159722  0.68229167  1.0
  Ni  Ni413  1  0.71354167  0.91493056  0.68229167  1.0
  Ni  Ni414  1  0.22395833  0.27256944  0.63020833  1.0
  Ni  Ni415  1  0.22395833  0.60590278  0.63020833  1.0
  Ni  Ni416  1  0.22395833  0.93923611  0.63020833  1.0
  Ni  Ni417  1  0.55729167  0.27256944  0.63020833  1.0
  Ni  Ni418  1  0.55729167  0.60590278  0.63020833  1.0
  Ni  Ni419  1  0.55729167  0.93923611  0.63020833  1.0
  Ni  Ni420  1  0.89062500  0.27256944  0.63020833  1.0
  Ni  Ni421  1  0.89062500  0.60590278  0.63020833  1.0
  Ni  Ni422  1  0.89062500  0.93923611  0.63020833  1.0
  Ni  Ni423  1  0.07812500  0.04340278  0.69270833  1.0
  Ni  Ni424  1  0.07812500  0.37673611  0.69270833  1.0
  Ni  Ni425  1  0.07812500  0.71006944  0.69270833  1.0
  Ni  Ni426  1  0.41145833  0.04340278  0.69270833  1.0
  Ni  Ni427  1  0.41145833  0.37673611  0.69270833  1.0
  Ni  Ni428  1  0.41145833  0.71006944  0.69270833  1.0
  Ni  Ni429  1  0.74479167  0.04340278  0.69270833  1.0
  Ni  Ni430  1  0.74479167  0.37673611  0.69270833  1.0
  Ni  Ni431  1  0.74479167  0.71006944  0.69270833  1.0
