# generated using pymatgen
data_Hf3Ni
_symmetry_space_group_name_H-M   'P 1'
_cell_length_a   17.77198926
_cell_length_b   38.57356671
_cell_length_c   34.96464300
_cell_angle_alpha   67.14038848
_cell_angle_beta   90.00000000
_cell_angle_gamma   62.56579385
_symmetry_Int_Tables_number   1
_chemical_formula_structural   Hf3Ni
_chemical_formula_sum   'Hf324 Ni108'
_cell_volume   19127.65852222
_cell_formula_units_Z   108
loop_
 _symmetry_equiv_pos_site_id
 _symmetry_equiv_pos_as_xyz
  1  'x, y, z'
loop_
 _atom_site_type_symbol
 _atom_site_label
 _atom_site_symmetry_multiplicity
 _atom_site_fract_x
 _atom_site_fract_y
 _atom_site_fract_z
 _atom_site_occupancy
  Hf  Hf0  1  0.05727900  0.02863950  0.09486879  1.0
  Hf  Hf1  1  0.05727900  0.36197283  0.09486879  1.0
  Hf  Hf2  1  0.05727900  0.69530617  0.09486879  1.0
  Hf  Hf3  1  0.39061233  0.02863950  0.09486879  1.0
  Hf  Hf4  1  0.39061233  0.36197283  0.09486879  1.0
  Hf  Hf5  1  0.39061233  0.69530617  0.09486879  1.0
  Hf  Hf6  1  0.72394567  0.02863950  0.09486879  1.0
  Hf  Hf7  1  0.72394567  0.36197283  0.09486879  1.0
  Hf  Hf8  1  0.72394567  0.69530617  0.09486879  1.0
  Hf  Hf9  1  0.05727900  0.19530617  0.02344021  1.0
  Hf  Hf10  1  0.05727900  0.52863950  0.02344021  1.0
  Hf  Hf11  1  0.05727900  0.86197283  0.02344021  1.0
  Hf  Hf12  1  0.39061233  0.19530617  0.02344021  1.0
  Hf  Hf13  1  0.39061233  0.52863950  0.02344021  1.0
  Hf  Hf14  1  0.39061233  0.86197283  0.02344021  1.0
  Hf  Hf15  1  0.72394567  0.19530617  0.02344021  1.0
  Hf  Hf16  1  0.72394567  0.52863950  0.02344021  1.0
  Hf  Hf17  1  0.72394567  0.86197283  0.02344021  1.0
  Hf  Hf18  1  0.05727900  0.10938767  0.06026243  1.0
  Hf  Hf19  1  0.05727900  0.44272100  0.06026243  1.0
  Hf  Hf20  1  0.05727900  0.77605433  0.06026243  1.0
  Hf  Hf21  1  0.39061233  0.10938767  0.06026243  1.0
  Hf  Hf22  1  0.39061233  0.44272100  0.06026243  1.0
  Hf  Hf23  1  0.39061233  0.77605433  0.06026243  1.0
  Hf  Hf24  1  0.72394567  0.10938767  0.06026243  1.0
  Hf  Hf25  1  0.72394567  0.44272100  0.06026243  1.0
  Hf  Hf26  1  0.72394567  0.77605433  0.06026243  1.0
  Hf  Hf27  1  0.05727900  0.27605433  0.13169100  1.0
  Hf  Hf28  1  0.05727900  0.60938767  0.13169100  1.0
  Hf  Hf29  1  0.05727900  0.94272100  0.13169100  1.0
  Hf  Hf30  1  0.39061233  0.27605433  0.13169100  1.0
  Hf  Hf31  1  0.39061233  0.60938767  0.13169100  1.0
  Hf  Hf32  1  0.39061233  0.94272100  0.13169100  1.0
  Hf  Hf33  1  0.72394567  0.27605433  0.13169100  1.0
  Hf  Hf34  1  0.72394567  0.60938767  0.13169100  1.0
  Hf  Hf35  1  0.72394567  0.94272100  0.13169100  1.0
  Hf  Hf36  1  0.11455800  0.13802717  0.11941693  1.0
  Hf  Hf37  1  0.11455800  0.47136050  0.11941693  1.0
  Hf  Hf38  1  0.11455800  0.80469383  0.11941693  1.0
  Hf  Hf39  1  0.44789133  0.13802717  0.11941693  1.0
  Hf  Hf40  1  0.44789133  0.47136050  0.11941693  1.0
  Hf  Hf41  1  0.44789133  0.80469383  0.11941693  1.0
  Hf  Hf42  1  0.78122467  0.13802717  0.11941693  1.0
  Hf  Hf43  1  0.78122467  0.47136050  0.11941693  1.0
  Hf  Hf44  1  0.78122467  0.80469383  0.11941693  1.0
  Hf  Hf45  1  0.11455800  0.30469383  0.04798836  1.0
  Hf  Hf46  1  0.11455800  0.63802717  0.04798836  1.0
  Hf  Hf47  1  0.11455800  0.97136050  0.04798836  1.0
  Hf  Hf48  1  0.44789133  0.30469383  0.04798836  1.0
  Hf  Hf49  1  0.44789133  0.63802717  0.04798836  1.0
  Hf  Hf50  1  0.44789133  0.97136050  0.04798836  1.0
  Hf  Hf51  1  0.78122467  0.30469383  0.04798836  1.0
  Hf  Hf52  1  0.78122467  0.63802717  0.04798836  1.0
  Hf  Hf53  1  0.78122467  0.97136050  0.04798836  1.0
  Hf  Hf54  1  0.27605433  0.13802717  0.11941693  1.0
  Hf  Hf55  1  0.27605433  0.47136050  0.11941693  1.0
  Hf  Hf56  1  0.27605433  0.80469383  0.11941693  1.0
  Hf  Hf57  1  0.60938767  0.13802717  0.11941693  1.0
  Hf  Hf58  1  0.60938767  0.47136050  0.11941693  1.0
  Hf  Hf59  1  0.60938767  0.80469383  0.11941693  1.0
  Hf  Hf60  1  0.94272100  0.13802717  0.11941693  1.0
  Hf  Hf61  1  0.94272100  0.47136050  0.11941693  1.0
  Hf  Hf62  1  0.94272100  0.80469383  0.11941693  1.0
  Hf  Hf63  1  0.27605433  0.30469383  0.04798836  1.0
  Hf  Hf64  1  0.27605433  0.63802717  0.04798836  1.0
  Hf  Hf65  1  0.27605433  0.97136050  0.04798836  1.0
  Hf  Hf66  1  0.60938767  0.30469383  0.04798836  1.0
  Hf  Hf67  1  0.60938767  0.63802717  0.04798836  1.0
  Hf  Hf68  1  0.60938767  0.97136050  0.04798836  1.0
  Hf  Hf69  1  0.94272100  0.30469383  0.04798836  1.0
  Hf  Hf70  1  0.94272100  0.63802717  0.04798836  1.0
  Hf  Hf71  1  0.94272100  0.97136050  0.04798836  1.0
  Hf  Hf72  1  0.27605433  0.05727900  0.01116614  1.0
  Hf  Hf73  1  0.27605433  0.39061233  0.01116614  1.0
  Hf  Hf74  1  0.27605433  0.72394567  0.01116614  1.0
  Hf  Hf75  1  0.60938767  0.05727900  0.01116614  1.0
  Hf  Hf76  1  0.60938767  0.39061233  0.01116614  1.0
  Hf  Hf77  1  0.60938767  0.72394567  0.01116614  1.0
  Hf  Hf78  1  0.94272100  0.05727900  0.01116614  1.0
  Hf  Hf79  1  0.94272100  0.39061233  0.01116614  1.0
  Hf  Hf80  1  0.94272100  0.72394567  0.01116614  1.0
  Hf  Hf81  1  0.27605433  0.22394567  0.08259471  1.0
  Hf  Hf82  1  0.27605433  0.55727900  0.08259471  1.0
  Hf  Hf83  1  0.27605433  0.89061233  0.08259471  1.0
  Hf  Hf84  1  0.60938767  0.22394567  0.08259471  1.0
  Hf  Hf85  1  0.60938767  0.55727900  0.08259471  1.0
  Hf  Hf86  1  0.60938767  0.89061233  0.08259471  1.0
  Hf  Hf87  1  0.94272100  0.22394567  0.08259471  1.0
  Hf  Hf88  1  0.94272100  0.55727900  0.08259471  1.0
  Hf  Hf89  1  0.94272100  0.89061233  0.08259471  1.0
  Hf  Hf90  1  0.21877533  0.02863950  0.09486879  1.0
  Hf  Hf91  1  0.21877533  0.36197283  0.09486879  1.0
  Hf  Hf92  1  0.21877533  0.69530617  0.09486879  1.0
  Hf  Hf93  1  0.55210867  0.02863950  0.09486879  1.0
  Hf  Hf94  1  0.55210867  0.36197283  0.09486879  1.0
  Hf  Hf95  1  0.55210867  0.69530617  0.09486879  1.0
  Hf  Hf96  1  0.88544200  0.02863950  0.09486879  1.0
  Hf  Hf97  1  0.88544200  0.36197283  0.09486879  1.0
  Hf  Hf98  1  0.88544200  0.69530617  0.09486879  1.0
  Hf  Hf99  1  0.21877533  0.19530617  0.02344021  1.0
  Hf  Hf100  1  0.21877533  0.52863950  0.02344021  1.0
  Hf  Hf101  1  0.21877533  0.86197283  0.02344021  1.0
  Hf  Hf102  1  0.55210867  0.19530617  0.02344021  1.0
  Hf  Hf103  1  0.55210867  0.52863950  0.02344021  1.0
  Hf  Hf104  1  0.55210867  0.86197283  0.02344021  1.0
  Hf  Hf105  1  0.88544200  0.19530617  0.02344021  1.0
  Hf  Hf106  1  0.88544200  0.52863950  0.02344021  1.0
  Hf  Hf107  1  0.88544200  0.86197283  0.02344021  1.0
  Ni  Ni108  1  0.22222222  0.11111111  0.05952381  1.0
  Ni  Ni109  1  0.22222222  0.44444444  0.05952381  1.0
  Ni  Ni110  1  0.22222222  0.77777778  0.05952381  1.0
  Ni  Ni111  1  0.55555556  0.11111111  0.05952381  1.0
  Ni  Ni112  1  0.55555556  0.44444444  0.05952381  1.0
  Ni  Ni113  1  0.55555556  0.77777778  0.05952381  1.0
  Ni  Ni114  1  0.88888889  0.11111111  0.05952381  1.0
  Ni  Ni115  1  0.88888889  0.44444444  0.05952381  1.0
  Ni  Ni116  1  0.88888889  0.77777778  0.05952381  1.0
  Ni  Ni117  1  0.22222222  0.27777778  0.13095238  1.0
  Ni  Ni118  1  0.22222222  0.61111111  0.13095238  1.0
  Ni  Ni119  1  0.22222222  0.94444444  0.13095238  1.0
  Ni  Ni120  1  0.55555556  0.27777778  0.13095238  1.0
  Ni  Ni121  1  0.55555556  0.61111111  0.13095238  1.0
  Ni  Ni122  1  0.55555556  0.94444444  0.13095238  1.0
  Ni  Ni123  1  0.88888889  0.27777778  0.13095238  1.0
  Ni  Ni124  1  0.88888889  0.61111111  0.13095238  1.0
  Ni  Ni125  1  0.88888889  0.94444444  0.13095238  1.0
  Ni  Ni126  1  0.11111111  0.05555556  0.01190476  1.0
  Ni  Ni127  1  0.11111111  0.38888889  0.01190476  1.0
  Ni  Ni128  1  0.11111111  0.72222222  0.01190476  1.0
  Ni  Ni129  1  0.44444444  0.05555556  0.01190476  1.0
  Ni  Ni130  1  0.44444444  0.38888889  0.01190476  1.0
  Ni  Ni131  1  0.44444444  0.72222222  0.01190476  1.0
  Ni  Ni132  1  0.77777778  0.05555556  0.01190476  1.0
  Ni  Ni133  1  0.77777778  0.38888889  0.01190476  1.0
  Ni  Ni134  1  0.77777778  0.72222222  0.01190476  1.0
  Ni  Ni135  1  0.11111111  0.22222222  0.08333333  1.0
  Ni  Ni136  1  0.11111111  0.55555556  0.08333333  1.0
  Ni  Ni137  1  0.11111111  0.88888889  0.08333333  1.0
  Ni  Ni138  1  0.44444444  0.22222222  0.08333333  1.0
  Ni  Ni139  1  0.44444444  0.55555556  0.08333333  1.0
  Ni  Ni140  1  0.44444444  0.88888889  0.08333333  1.0
  Ni  Ni141  1  0.77777778  0.22222222  0.08333333  1.0
  Ni  Ni142  1  0.77777778  0.55555556  0.08333333  1.0
  Ni  Ni143  1  0.77777778  0.88888889  0.08333333  1.0
  Hf  Hf144  1  0.05727900  0.02863950  0.23772593  1.0
  Hf  Hf145  1  0.05727900  0.36197283  0.23772593  1.0
  Hf  Hf146  1  0.05727900  0.69530617  0.23772593  1.0
  Hf  Hf147  1  0.39061233  0.02863950  0.23772593  1.0
  Hf  Hf148  1  0.39061233  0.36197283  0.23772593  1.0
  Hf  Hf149  1  0.39061233  0.69530617  0.23772593  1.0
  Hf  Hf150  1  0.72394567  0.02863950  0.23772593  1.0
  Hf  Hf151  1  0.72394567  0.36197283  0.23772593  1.0
  Hf  Hf152  1  0.72394567  0.69530617  0.23772593  1.0
  Hf  Hf153  1  0.05727900  0.19530617  0.16629736  1.0
  Hf  Hf154  1  0.05727900  0.52863950  0.16629736  1.0
  Hf  Hf155  1  0.05727900  0.86197283  0.16629736  1.0
  Hf  Hf156  1  0.39061233  0.19530617  0.16629736  1.0
  Hf  Hf157  1  0.39061233  0.52863950  0.16629736  1.0
  Hf  Hf158  1  0.39061233  0.86197283  0.16629736  1.0
  Hf  Hf159  1  0.72394567  0.19530617  0.16629736  1.0
  Hf  Hf160  1  0.72394567  0.52863950  0.16629736  1.0
  Hf  Hf161  1  0.72394567  0.86197283  0.16629736  1.0
  Hf  Hf162  1  0.05727900  0.10938767  0.20311957  1.0
  Hf  Hf163  1  0.05727900  0.44272100  0.20311957  1.0
  Hf  Hf164  1  0.05727900  0.77605433  0.20311957  1.0
  Hf  Hf165  1  0.39061233  0.10938767  0.20311957  1.0
  Hf  Hf166  1  0.39061233  0.44272100  0.20311957  1.0
  Hf  Hf167  1  0.39061233  0.77605433  0.20311957  1.0
  Hf  Hf168  1  0.72394567  0.10938767  0.20311957  1.0
  Hf  Hf169  1  0.72394567  0.44272100  0.20311957  1.0
  Hf  Hf170  1  0.72394567  0.77605433  0.20311957  1.0
  Hf  Hf171  1  0.05727900  0.27605433  0.27454814  1.0
  Hf  Hf172  1  0.05727900  0.60938767  0.27454814  1.0
  Hf  Hf173  1  0.05727900  0.94272100  0.27454814  1.0
  Hf  Hf174  1  0.39061233  0.27605433  0.27454814  1.0
  Hf  Hf175  1  0.39061233  0.60938767  0.27454814  1.0
  Hf  Hf176  1  0.39061233  0.94272100  0.27454814  1.0
  Hf  Hf177  1  0.72394567  0.27605433  0.27454814  1.0
  Hf  Hf178  1  0.72394567  0.60938767  0.27454814  1.0
  Hf  Hf179  1  0.72394567  0.94272100  0.27454814  1.0
  Hf  Hf180  1  0.11455800  0.13802717  0.26227407  1.0
  Hf  Hf181  1  0.11455800  0.47136050  0.26227407  1.0
  Hf  Hf182  1  0.11455800  0.80469383  0.26227407  1.0
  Hf  Hf183  1  0.44789133  0.13802717  0.26227407  1.0
  Hf  Hf184  1  0.44789133  0.47136050  0.26227407  1.0
  Hf  Hf185  1  0.44789133  0.80469383  0.26227407  1.0
  Hf  Hf186  1  0.78122467  0.13802717  0.26227407  1.0
  Hf  Hf187  1  0.78122467  0.47136050  0.26227407  1.0
  Hf  Hf188  1  0.78122467  0.80469383  0.26227407  1.0
  Hf  Hf189  1  0.11455800  0.30469383  0.19084550  1.0
  Hf  Hf190  1  0.11455800  0.63802717  0.19084550  1.0
  Hf  Hf191  1  0.11455800  0.97136050  0.19084550  1.0
  Hf  Hf192  1  0.44789133  0.30469383  0.19084550  1.0
  Hf  Hf193  1  0.44789133  0.63802717  0.19084550  1.0
  Hf  Hf194  1  0.44789133  0.97136050  0.19084550  1.0
  Hf  Hf195  1  0.78122467  0.30469383  0.19084550  1.0
  Hf  Hf196  1  0.78122467  0.63802717  0.19084550  1.0
  Hf  Hf197  1  0.78122467  0.97136050  0.19084550  1.0
  Hf  Hf198  1  0.27605433  0.13802717  0.26227407  1.0
  Hf  Hf199  1  0.27605433  0.47136050  0.26227407  1.0
  Hf  Hf200  1  0.27605433  0.80469383  0.26227407  1.0
  Hf  Hf201  1  0.60938767  0.13802717  0.26227407  1.0
  Hf  Hf202  1  0.60938767  0.47136050  0.26227407  1.0
  Hf  Hf203  1  0.60938767  0.80469383  0.26227407  1.0
  Hf  Hf204  1  0.94272100  0.13802717  0.26227407  1.0
  Hf  Hf205  1  0.94272100  0.47136050  0.26227407  1.0
  Hf  Hf206  1  0.94272100  0.80469383  0.26227407  1.0
  Hf  Hf207  1  0.27605433  0.30469383  0.19084550  1.0
  Hf  Hf208  1  0.27605433  0.63802717  0.19084550  1.0
  Hf  Hf209  1  0.27605433  0.97136050  0.19084550  1.0
  Hf  Hf210  1  0.60938767  0.30469383  0.19084550  1.0
  Hf  Hf211  1  0.60938767  0.63802717  0.19084550  1.0
  Hf  Hf212  1  0.60938767  0.97136050  0.19084550  1.0
  Hf  Hf213  1  0.94272100  0.30469383  0.19084550  1.0
  Hf  Hf214  1  0.94272100  0.63802717  0.19084550  1.0
  Hf  Hf215  1  0.94272100  0.97136050  0.19084550  1.0
  Hf  Hf216  1  0.27605433  0.05727900  0.15402329  1.0
  Hf  Hf217  1  0.27605433  0.39061233  0.15402329  1.0
  Hf  Hf218  1  0.27605433  0.72394567  0.15402329  1.0
  Hf  Hf219  1  0.60938767  0.05727900  0.15402329  1.0
  Hf  Hf220  1  0.60938767  0.39061233  0.15402329  1.0
  Hf  Hf221  1  0.60938767  0.72394567  0.15402329  1.0
  Hf  Hf222  1  0.94272100  0.05727900  0.15402329  1.0
  Hf  Hf223  1  0.94272100  0.39061233  0.15402329  1.0
  Hf  Hf224  1  0.94272100  0.72394567  0.15402329  1.0
  Hf  Hf225  1  0.27605433  0.22394567  0.22545186  1.0
  Hf  Hf226  1  0.27605433  0.55727900  0.22545186  1.0
  Hf  Hf227  1  0.27605433  0.89061233  0.22545186  1.0
  Hf  Hf228  1  0.60938767  0.22394567  0.22545186  1.0
  Hf  Hf229  1  0.60938767  0.55727900  0.22545186  1.0
  Hf  Hf230  1  0.60938767  0.89061233  0.22545186  1.0
  Hf  Hf231  1  0.94272100  0.22394567  0.22545186  1.0
  Hf  Hf232  1  0.94272100  0.55727900  0.22545186  1.0
  Hf  Hf233  1  0.94272100  0.89061233  0.22545186  1.0
  Hf  Hf234  1  0.21877533  0.02863950  0.23772593  1.0
  Hf  Hf235  1  0.21877533  0.36197283  0.23772593  1.0
  Hf  Hf236  1  0.21877533  0.69530617  0.23772593  1.0
  Hf  Hf237  1  0.55210867  0.02863950  0.23772593  1.0
  Hf  Hf238  1  0.55210867  0.36197283  0.23772593  1.0
  Hf  Hf239  1  0.55210867  0.69530617  0.23772593  1.0
  Hf  Hf240  1  0.88544200  0.02863950  0.23772593  1.0
  Hf  Hf241  1  0.88544200  0.36197283  0.23772593  1.0
  Hf  Hf242  1  0.88544200  0.69530617  0.23772593  1.0
  Hf  Hf243  1  0.21877533  0.19530617  0.16629736  1.0
  Hf  Hf244  1  0.21877533  0.52863950  0.16629736  1.0
  Hf  Hf245  1  0.21877533  0.86197283  0.16629736  1.0
  Hf  Hf246  1  0.55210867  0.19530617  0.16629736  1.0
  Hf  Hf247  1  0.55210867  0.52863950  0.16629736  1.0
  Hf  Hf248  1  0.55210867  0.86197283  0.16629736  1.0
  Hf  Hf249  1  0.88544200  0.19530617  0.16629736  1.0
  Hf  Hf250  1  0.88544200  0.52863950  0.16629736  1.0
  Hf  Hf251  1  0.88544200  0.86197283  0.16629736  1.0
  Ni  Ni252  1  0.22222222  0.11111111  0.20238095  1.0
  Ni  Ni253  1  0.22222222  0.44444444  0.20238095  1.0
  Ni  Ni254  1  0.22222222  0.77777778  0.20238095  1.0
  Ni  Ni255  1  0.55555556  0.11111111  0.20238095  1.0
  Ni  Ni256  1  0.55555556  0.44444444  0.20238095  1.0
  Ni  Ni257  1  0.55555556  0.77777778  0.20238095  1.0
  Ni  Ni258  1  0.88888889  0.11111111  0.20238095  1.0
  Ni  Ni259  1  0.88888889  0.44444444  0.20238095  1.0
  Ni  Ni260  1  0.88888889  0.77777778  0.20238095  1.0
  Ni  Ni261  1  0.22222222  0.27777778  0.27380952  1.0
  Ni  Ni262  1  0.22222222  0.61111111  0.27380952  1.0
  Ni  Ni263  1  0.22222222  0.94444444  0.27380952  1.0
  Ni  Ni264  1  0.55555556  0.27777778  0.27380952  1.0
  Ni  Ni265  1  0.55555556  0.61111111  0.27380952  1.0
  Ni  Ni266  1  0.55555556  0.94444444  0.27380952  1.0
  Ni  Ni267  1  0.88888889  0.27777778  0.27380952  1.0
  Ni  Ni268  1  0.88888889  0.61111111  0.27380952  1.0
  Ni  Ni269  1  0.88888889  0.94444444  0.27380952  1.0
  Ni  Ni270  1  0.11111111  0.05555556  0.15476190  1.0
  Ni  Ni271  1  0.11111111  0.38888889  0.15476190  1.0
  Ni  Ni272  1  0.11111111  0.72222222  0.15476190  1.0
  Ni  Ni273  1  0.44444444  0.05555556  0.15476190  1.0
  Ni  Ni274  1  0.44444444  0.38888889  0.15476190  1.0
  Ni  Ni275  1  0.44444444  0.72222222  0.15476190  1.0
  Ni  Ni276  1  0.77777778  0.05555556  0.15476190  1.0
  Ni  Ni277  1  0.77777778  0.38888889  0.15476190  1.0
  Ni  Ni278  1  0.77777778  0.72222222  0.15476190  1.0
  Ni  Ni279  1  0.11111111  0.22222222  0.22619048  1.0
  Ni  Ni280  1  0.11111111  0.55555556  0.22619048  1.0
  Ni  Ni281  1  0.11111111  0.88888889  0.22619048  1.0
  Ni  Ni282  1  0.44444444  0.22222222  0.22619048  1.0
  Ni  Ni283  1  0.44444444  0.55555556  0.22619048  1.0
  Ni  Ni284  1  0.44444444  0.88888889  0.22619048  1.0
  Ni  Ni285  1  0.77777778  0.22222222  0.22619048  1.0
  Ni  Ni286  1  0.77777778  0.55555556  0.22619048  1.0
  Ni  Ni287  1  0.77777778  0.88888889  0.22619048  1.0
  Hf  Hf288  1  0.05727900  0.02863950  0.38058307  1.0
  Hf  Hf289  1  0.05727900  0.36197283  0.38058307  1.0
  Hf  Hf290  1  0.05727900  0.69530617  0.38058307  1.0
  Hf  Hf291  1  0.39061233  0.02863950  0.38058307  1.0
  Hf  Hf292  1  0.39061233  0.36197283  0.38058307  1.0
  Hf  Hf293  1  0.39061233  0.69530617  0.38058307  1.0
  Hf  Hf294  1  0.72394567  0.02863950  0.38058307  1.0
  Hf  Hf295  1  0.72394567  0.36197283  0.38058307  1.0
  Hf  Hf296  1  0.72394567  0.69530617  0.38058307  1.0
  Hf  Hf297  1  0.05727900  0.19530617  0.30915450  1.0
  Hf  Hf298  1  0.05727900  0.52863950  0.30915450  1.0
  Hf  Hf299  1  0.05727900  0.86197283  0.30915450  1.0
  Hf  Hf300  1  0.39061233  0.19530617  0.30915450  1.0
  Hf  Hf301  1  0.39061233  0.52863950  0.30915450  1.0
  Hf  Hf302  1  0.39061233  0.86197283  0.30915450  1.0
  Hf  Hf303  1  0.72394567  0.19530617  0.30915450  1.0
  Hf  Hf304  1  0.72394567  0.52863950  0.30915450  1.0
  Hf  Hf305  1  0.72394567  0.86197283  0.30915450  1.0
  Hf  Hf306  1  0.05727900  0.10938767  0.34597671  1.0
  Hf  Hf307  1  0.05727900  0.44272100  0.34597671  1.0
  Hf  Hf308  1  0.05727900  0.77605433  0.34597671  1.0
  Hf  Hf309  1  0.39061233  0.10938767  0.34597671  1.0
  Hf  Hf310  1  0.39061233  0.44272100  0.34597671  1.0
  Hf  Hf311  1  0.39061233  0.77605433  0.34597671  1.0
  Hf  Hf312  1  0.72394567  0.10938767  0.34597671  1.0
  Hf  Hf313  1  0.72394567  0.44272100  0.34597671  1.0
  Hf  Hf314  1  0.72394567  0.77605433  0.34597671  1.0
  Hf  Hf315  1  0.05727900  0.27605433  0.41740529  1.0
  Hf  Hf316  1  0.05727900  0.60938767  0.41740529  1.0
  Hf  Hf317  1  0.05727900  0.94272100  0.41740529  1.0
  Hf  Hf318  1  0.39061233  0.27605433  0.41740529  1.0
  Hf  Hf319  1  0.39061233  0.60938767  0.41740529  1.0
  Hf  Hf320  1  0.39061233  0.94272100  0.41740529  1.0
  Hf  Hf321  1  0.72394567  0.27605433  0.41740529  1.0
  Hf  Hf322  1  0.72394567  0.60938767  0.41740529  1.0
  Hf  Hf323  1  0.72394567  0.94272100  0.41740529  1.0
  Hf  Hf324  1  0.11455800  0.13802717  0.40513121  1.0
  Hf  Hf325  1  0.11455800  0.47136050  0.40513121  1.0
  Hf  Hf326  1  0.11455800  0.80469383  0.40513121  1.0
  Hf  Hf327  1  0.44789133  0.13802717  0.40513121  1.0
  Hf  Hf328  1  0.44789133  0.47136050  0.40513121  1.0
  Hf  Hf329  1  0.44789133  0.80469383  0.40513121  1.0
  Hf  Hf330  1  0.78122467  0.13802717  0.40513121  1.0
  Hf  Hf331  1  0.78122467  0.47136050  0.40513121  1.0
  Hf  Hf332  1  0.78122467  0.80469383  0.40513121  1.0
  Hf  Hf333  1  0.11455800  0.30469383  0.33370264  1.0
  Hf  Hf334  1  0.11455800  0.63802717  0.33370264  1.0
  Hf  Hf335  1  0.11455800  0.97136050  0.33370264  1.0
  Hf  Hf336  1  0.44789133  0.30469383  0.33370264  1.0
  Hf  Hf337  1  0.44789133  0.63802717  0.33370264  1.0
  Hf  Hf338  1  0.44789133  0.97136050  0.33370264  1.0
  Hf  Hf339  1  0.78122467  0.30469383  0.33370264  1.0
  Hf  Hf340  1  0.78122467  0.63802717  0.33370264  1.0
  Hf  Hf341  1  0.78122467  0.97136050  0.33370264  1.0
  Hf  Hf342  1  0.27605433  0.13802717  0.40513121  1.0
  Hf  Hf343  1  0.27605433  0.47136050  0.40513121  1.0
  Hf  Hf344  1  0.27605433  0.80469383  0.40513121  1.0
  Hf  Hf345  1  0.60938767  0.13802717  0.40513121  1.0
  Hf  Hf346  1  0.60938767  0.47136050  0.40513121  1.0
  Hf  Hf347  1  0.60938767  0.80469383  0.40513121  1.0
  Hf  Hf348  1  0.94272100  0.13802717  0.40513121  1.0
  Hf  Hf349  1  0.94272100  0.47136050  0.40513121  1.0
  Hf  Hf350  1  0.94272100  0.80469383  0.40513121  1.0
  Hf  Hf351  1  0.27605433  0.30469383  0.33370264  1.0
  Hf  Hf352  1  0.27605433  0.63802717  0.33370264  1.0
  Hf  Hf353  1  0.27605433  0.97136050  0.33370264  1.0
  Hf  Hf354  1  0.60938767  0.30469383  0.33370264  1.0
  Hf  Hf355  1  0.60938767  0.63802717  0.33370264  1.0
  Hf  Hf356  1  0.60938767  0.97136050  0.33370264  1.0
  Hf  Hf357  1  0.94272100  0.30469383  0.33370264  1.0
  Hf  Hf358  1  0.94272100  0.63802717  0.33370264  1.0
  Hf  Hf359  1  0.94272100  0.97136050  0.33370264  1.0
  Hf  Hf360  1  0.27605433  0.05727900  0.29688043  1.0
  Hf  Hf361  1  0.27605433  0.39061233  0.29688043  1.0
  Hf  Hf362  1  0.27605433  0.72394567  0.29688043  1.0
  Hf  Hf363  1  0.60938767  0.05727900  0.29688043  1.0
  Hf  Hf364  1  0.60938767  0.39061233  0.29688043  1.0
  Hf  Hf365  1  0.60938767  0.72394567  0.29688043  1.0
  Hf  Hf366  1  0.94272100  0.05727900  0.29688043  1.0
  Hf  Hf367  1  0.94272100  0.39061233  0.29688043  1.0
  Hf  Hf368  1  0.94272100  0.72394567  0.29688043  1.0
  Hf  Hf369  1  0.27605433  0.22394567  0.36830900  1.0
  Hf  Hf370  1  0.27605433  0.55727900  0.36830900  1.0
  Hf  Hf371  1  0.27605433  0.89061233  0.36830900  1.0
  Hf  Hf372  1  0.60938767  0.22394567  0.36830900  1.0
  Hf  Hf373  1  0.60938767  0.55727900  0.36830900  1.0
  Hf  Hf374  1  0.60938767  0.89061233  0.36830900  1.0
  Hf  Hf375  1  0.94272100  0.22394567  0.36830900  1.0
  Hf  Hf376  1  0.94272100  0.55727900  0.36830900  1.0
  Hf  Hf377  1  0.94272100  0.89061233  0.36830900  1.0
  Hf  Hf378  1  0.21877533  0.02863950  0.38058307  1.0
  Hf  Hf379  1  0.21877533  0.36197283  0.38058307  1.0
  Hf  Hf380  1  0.21877533  0.69530617  0.38058307  1.0
  Hf  Hf381  1  0.55210867  0.02863950  0.38058307  1.0
  Hf  Hf382  1  0.55210867  0.36197283  0.38058307  1.0
  Hf  Hf383  1  0.55210867  0.69530617  0.38058307  1.0
  Hf  Hf384  1  0.88544200  0.02863950  0.38058307  1.0
  Hf  Hf385  1  0.88544200  0.36197283  0.38058307  1.0
  Hf  Hf386  1  0.88544200  0.69530617  0.38058307  1.0
  Hf  Hf387  1  0.21877533  0.19530617  0.30915450  1.0
  Hf  Hf388  1  0.21877533  0.52863950  0.30915450  1.0
  Hf  Hf389  1  0.21877533  0.86197283  0.30915450  1.0
  Hf  Hf390  1  0.55210867  0.19530617  0.30915450  1.0
  Hf  Hf391  1  0.55210867  0.52863950  0.30915450  1.0
  Hf  Hf392  1  0.55210867  0.86197283  0.30915450  1.0
  Hf  Hf393  1  0.88544200  0.19530617  0.30915450  1.0
  Hf  Hf394  1  0.88544200  0.52863950  0.30915450  1.0
  Hf  Hf395  1  0.88544200  0.86197283  0.30915450  1.0
  Ni  Ni396  1  0.22222222  0.11111111  0.34523810  1.0
  Ni  Ni397  1  0.22222222  0.44444444  0.34523810  1.0
  Ni  Ni398  1  0.22222222  0.77777778  0.34523810  1.0
  Ni  Ni399  1  0.55555556  0.11111111  0.34523810  1.0
  Ni  Ni400  1  0.55555556  0.44444444  0.34523810  1.0
  Ni  Ni401  1  0.55555556  0.77777778  0.34523810  1.0
  Ni  Ni402  1  0.88888889  0.11111111  0.34523810  1.0
  Ni  Ni403  1  0.88888889  0.44444444  0.34523810  1.0
  Ni  Ni404  1  0.88888889  0.77777778  0.34523810  1.0
  Ni  Ni405  1  0.22222222  0.27777778  0.41666667  1.0
  Ni  Ni406  1  0.22222222  0.61111111  0.41666667  1.0
  Ni  Ni407  1  0.22222222  0.94444444  0.41666667  1.0
  Ni  Ni408  1  0.55555556  0.27777778  0.41666667  1.0
  Ni  Ni409  1  0.55555556  0.61111111  0.41666667  1.0
  Ni  Ni410  1  0.55555556  0.94444444  0.41666667  1.0
  Ni  Ni411  1  0.88888889  0.27777778  0.41666667  1.0
  Ni  Ni412  1  0.88888889  0.61111111  0.41666667  1.0
  Ni  Ni413  1  0.88888889  0.94444444  0.41666667  1.0
  Ni  Ni414  1  0.11111111  0.05555556  0.29761905  1.0
  Ni  Ni415  1  0.11111111  0.38888889  0.29761905  1.0
  Ni  Ni416  1  0.11111111  0.72222222  0.29761905  1.0
  Ni  Ni417  1  0.44444444  0.05555556  0.29761905  1.0
  Ni  Ni418  1  0.44444444  0.38888889  0.29761905  1.0
  Ni  Ni419  1  0.44444444  0.72222222  0.29761905  1.0
  Ni  Ni420  1  0.77777778  0.05555556  0.29761905  1.0
  Ni  Ni421  1  0.77777778  0.38888889  0.29761905  1.0
  Ni  Ni422  1  0.77777778  0.72222222  0.29761905  1.0
  Ni  Ni423  1  0.11111111  0.22222222  0.36904762  1.0
  Ni  Ni424  1  0.11111111  0.55555556  0.36904762  1.0
  Ni  Ni425  1  0.11111111  0.88888889  0.36904762  1.0
  Ni  Ni426  1  0.44444444  0.22222222  0.36904762  1.0
  Ni  Ni427  1  0.44444444  0.55555556  0.36904762  1.0
  Ni  Ni428  1  0.44444444  0.88888889  0.36904762  1.0
  Ni  Ni429  1  0.77777778  0.22222222  0.36904762  1.0
  Ni  Ni430  1  0.77777778  0.55555556  0.36904762  1.0
  Ni  Ni431  1  0.77777778  0.88888889  0.36904762  1.0
