# generated using pymatgen
data_Hf3Ni
_symmetry_space_group_name_H-M   'P 1'
_cell_length_a   17.77198926
_cell_length_b   23.24627372
_cell_length_c   39.95959200
_cell_angle_alpha   49.86334471
_cell_angle_beta   90.00000000
_cell_angle_gamma   67.52659328
_symmetry_Int_Tables_number   1
_chemical_formula_structural   Hf3Ni
_chemical_formula_sum   'Hf162 Ni54'
_cell_volume   10930.09058412
_cell_formula_units_Z   54
loop_
 _symmetry_equiv_pos_site_id
 _symmetry_equiv_pos_as_xyz
  1  'x, y, z'
loop_
 _atom_site_type_symbol
 _atom_site_label
 _atom_site_symmetry_multiplicity
 _atom_site_fract_x
 _atom_site_fract_y
 _atom_site_fract_z
 _atom_site_occupancy
  Hf  Hf0  1  0.05727900  0.05727900  0.07227038  1.0
  Hf  Hf1  1  0.05727900  0.39061233  0.07227038  1.0
  Hf  Hf2  1  0.05727900  0.72394567  0.07227038  1.0
  Hf  Hf3  1  0.39061233  0.05727900  0.07227038  1.0
  Hf  Hf4  1  0.39061233  0.39061233  0.07227037  1.0
  Hf  Hf5  1  0.39061233  0.72394567  0.07227038  1.0
  Hf  Hf6  1  0.72394567  0.05727900  0.07227038  1.0
  Hf  Hf7  1  0.72394567  0.39061233  0.07227037  1.0
  Hf  Hf8  1  0.72394567  0.72394567  0.07227037  1.0
  Hf  Hf9  1  0.05727900  0.21877533  0.01170925  1.0
  Hf  Hf10  1  0.05727900  0.55210867  0.01170925  1.0
  Hf  Hf11  1  0.05727900  0.88544200  0.01170925  1.0
  Hf  Hf12  1  0.39061233  0.21877533  0.01170925  1.0
  Hf  Hf13  1  0.39061233  0.55210867  0.01170925  1.0
  Hf  Hf14  1  0.39061233  0.88544200  0.01170925  1.0
  Hf  Hf15  1  0.72394567  0.21877533  0.01170925  1.0
  Hf  Hf16  1  0.72394567  0.55210867  0.01170925  1.0
  Hf  Hf17  1  0.72394567  0.88544200  0.01170925  1.0
  Hf  Hf18  1  0.11455800  0.27605433  0.05272963  1.0
  Hf  Hf19  1  0.11455800  0.60938767  0.05272963  1.0
  Hf  Hf20  1  0.11455800  0.94272100  0.05272963  1.0
  Hf  Hf21  1  0.44789133  0.27605433  0.05272962  1.0
  Hf  Hf22  1  0.44789133  0.60938767  0.05272963  1.0
  Hf  Hf23  1  0.44789133  0.94272100  0.05272963  1.0
  Hf  Hf24  1  0.78122467  0.27605433  0.05272963  1.0
  Hf  Hf25  1  0.78122467  0.60938767  0.05272963  1.0
  Hf  Hf26  1  0.78122467  0.94272100  0.05272962  1.0
  Hf  Hf27  1  0.27605433  0.27605433  0.05272962  1.0
  Hf  Hf28  1  0.27605433  0.60938767  0.05272963  1.0
  Hf  Hf29  1  0.27605433  0.94272100  0.05272963  1.0
  Hf  Hf30  1  0.60938767  0.27605433  0.05272962  1.0
  Hf  Hf31  1  0.60938767  0.60938767  0.05272963  1.0
  Hf  Hf32  1  0.60938767  0.94272100  0.05272962  1.0
  Hf  Hf33  1  0.94272100  0.27605433  0.05272963  1.0
  Hf  Hf34  1  0.94272100  0.60938767  0.05272963  1.0
  Hf  Hf35  1  0.94272100  0.94272100  0.05272962  1.0
  Hf  Hf36  1  0.27605433  0.11455800  0.11329075  1.0
  Hf  Hf37  1  0.27605433  0.44789133  0.11329075  1.0
  Hf  Hf38  1  0.27605433  0.78122467  0.11329075  1.0
  Hf  Hf39  1  0.60938767  0.11455800  0.11329075  1.0
  Hf  Hf40  1  0.60938767  0.44789133  0.11329075  1.0
  Hf  Hf41  1  0.60938767  0.78122467  0.11329075  1.0
  Hf  Hf42  1  0.94272100  0.11455800  0.11329075  1.0
  Hf  Hf43  1  0.94272100  0.44789133  0.11329075  1.0
  Hf  Hf44  1  0.94272100  0.78122467  0.11329075  1.0
  Hf  Hf45  1  0.21877533  0.05727900  0.07227037  1.0
  Hf  Hf46  1  0.21877533  0.39061233  0.07227038  1.0
  Hf  Hf47  1  0.21877533  0.72394567  0.07227038  1.0
  Hf  Hf48  1  0.55210867  0.05727900  0.07227037  1.0
  Hf  Hf49  1  0.55210867  0.39061233  0.07227037  1.0
  Hf  Hf50  1  0.55210867  0.72394567  0.07227038  1.0
  Hf  Hf51  1  0.88544200  0.05727900  0.07227038  1.0
  Hf  Hf52  1  0.88544200  0.39061233  0.07227037  1.0
  Hf  Hf53  1  0.88544200  0.72394567  0.07227037  1.0
  Ni  Ni54  1  0.22222222  0.22222222  0.01041667  1.0
  Ni  Ni55  1  0.22222222  0.55555556  0.01041667  1.0
  Ni  Ni56  1  0.22222222  0.88888889  0.01041667  1.0
  Ni  Ni57  1  0.55555556  0.22222222  0.01041667  1.0
  Ni  Ni58  1  0.55555556  0.55555556  0.01041667  1.0
  Ni  Ni59  1  0.55555556  0.88888889  0.01041667  1.0
  Ni  Ni60  1  0.88888889  0.22222222  0.01041667  1.0
  Ni  Ni61  1  0.88888889  0.55555556  0.01041667  1.0
  Ni  Ni62  1  0.88888889  0.88888889  0.01041667  1.0
  Ni  Ni63  1  0.11111111  0.11111111  0.11458333  1.0
  Ni  Ni64  1  0.11111111  0.44444444  0.11458333  1.0
  Ni  Ni65  1  0.11111111  0.77777778  0.11458333  1.0
  Ni  Ni66  1  0.44444444  0.11111111  0.11458333  1.0
  Ni  Ni67  1  0.44444444  0.44444444  0.11458333  1.0
  Ni  Ni68  1  0.44444444  0.77777778  0.11458333  1.0
  Ni  Ni69  1  0.77777778  0.11111111  0.11458333  1.0
  Ni  Ni70  1  0.77777778  0.44444444  0.11458333  1.0
  Ni  Ni71  1  0.77777778  0.77777778  0.11458333  1.0
  Hf  Hf72  1  0.05727900  0.05727900  0.19727038  1.0
  Hf  Hf73  1  0.05727900  0.39061233  0.19727037  1.0
  Hf  Hf74  1  0.05727900  0.72394567  0.19727037  1.0
  Hf  Hf75  1  0.39061233  0.05727900  0.19727037  1.0
  Hf  Hf76  1  0.39061233  0.39061233  0.19727037  1.0
  Hf  Hf77  1  0.39061233  0.72394567  0.19727037  1.0
  Hf  Hf78  1  0.72394567  0.05727900  0.19727037  1.0
  Hf  Hf79  1  0.72394567  0.39061233  0.19727038  1.0
  Hf  Hf80  1  0.72394567  0.72394567  0.19727037  1.0
  Hf  Hf81  1  0.05727900  0.21877533  0.13670925  1.0
  Hf  Hf82  1  0.05727900  0.55210867  0.13670925  1.0
  Hf  Hf83  1  0.05727900  0.88544200  0.13670925  1.0
  Hf  Hf84  1  0.39061233  0.21877533  0.13670925  1.0
  Hf  Hf85  1  0.39061233  0.55210867  0.13670925  1.0
  Hf  Hf86  1  0.39061233  0.88544200  0.13670925  1.0
  Hf  Hf87  1  0.72394567  0.21877533  0.13670925  1.0
  Hf  Hf88  1  0.72394567  0.55210867  0.13670925  1.0
  Hf  Hf89  1  0.72394567  0.88544200  0.13670925  1.0
  Hf  Hf90  1  0.11455800  0.27605433  0.17772962  1.0
  Hf  Hf91  1  0.11455800  0.60938767  0.17772962  1.0
  Hf  Hf92  1  0.11455800  0.94272100  0.17772963  1.0
  Hf  Hf93  1  0.44789133  0.27605433  0.17772962  1.0
  Hf  Hf94  1  0.44789133  0.60938767  0.17772962  1.0
  Hf  Hf95  1  0.44789133  0.94272100  0.17772963  1.0
  Hf  Hf96  1  0.78122467  0.27605433  0.17772962  1.0
  Hf  Hf97  1  0.78122467  0.60938767  0.17772962  1.0
  Hf  Hf98  1  0.78122467  0.94272100  0.17772962  1.0
  Hf  Hf99  1  0.27605433  0.27605433  0.17772962  1.0
  Hf  Hf100  1  0.27605433  0.60938767  0.17772962  1.0
  Hf  Hf101  1  0.27605433  0.94272100  0.17772963  1.0
  Hf  Hf102  1  0.60938767  0.27605433  0.17772962  1.0
  Hf  Hf103  1  0.60938767  0.60938767  0.17772962  1.0
  Hf  Hf104  1  0.60938767  0.94272100  0.17772962  1.0
  Hf  Hf105  1  0.94272100  0.27605433  0.17772962  1.0
  Hf  Hf106  1  0.94272100  0.60938767  0.17772962  1.0
  Hf  Hf107  1  0.94272100  0.94272100  0.17772962  1.0
  Hf  Hf108  1  0.27605433  0.11455800  0.23829075  1.0
  Hf  Hf109  1  0.27605433  0.44789133  0.23829075  1.0
  Hf  Hf110  1  0.27605433  0.78122467  0.23829075  1.0
  Hf  Hf111  1  0.60938767  0.11455800  0.23829075  1.0
  Hf  Hf112  1  0.60938767  0.44789133  0.23829075  1.0
  Hf  Hf113  1  0.60938767  0.78122467  0.23829075  1.0
  Hf  Hf114  1  0.94272100  0.11455800  0.23829075  1.0
  Hf  Hf115  1  0.94272100  0.44789133  0.23829075  1.0
  Hf  Hf116  1  0.94272100  0.78122467  0.23829075  1.0
  Hf  Hf117  1  0.21877533  0.05727900  0.19727037  1.0
  Hf  Hf118  1  0.21877533  0.39061233  0.19727037  1.0
  Hf  Hf119  1  0.21877533  0.72394567  0.19727037  1.0
  Hf  Hf120  1  0.55210867  0.05727900  0.19727037  1.0
  Hf  Hf121  1  0.55210867  0.39061233  0.19727037  1.0
  Hf  Hf122  1  0.55210867  0.72394567  0.19727037  1.0
  Hf  Hf123  1  0.88544200  0.05727900  0.19727037  1.0
  Hf  Hf124  1  0.88544200  0.39061233  0.19727038  1.0
  Hf  Hf125  1  0.88544200  0.72394567  0.19727037  1.0
  Ni  Ni126  1  0.22222222  0.22222222  0.13541667  1.0
  Ni  Ni127  1  0.22222222  0.55555556  0.13541667  1.0
  Ni  Ni128  1  0.22222222  0.88888889  0.13541667  1.0
  Ni  Ni129  1  0.55555556  0.22222222  0.13541667  1.0
  Ni  Ni130  1  0.55555556  0.55555556  0.13541667  1.0
  Ni  Ni131  1  0.55555556  0.88888889  0.13541667  1.0
  Ni  Ni132  1  0.88888889  0.22222222  0.13541667  1.0
  Ni  Ni133  1  0.88888889  0.55555556  0.13541667  1.0
  Ni  Ni134  1  0.88888889  0.88888889  0.13541667  1.0
  Ni  Ni135  1  0.11111111  0.11111111  0.23958333  1.0
  Ni  Ni136  1  0.11111111  0.44444444  0.23958333  1.0
  Ni  Ni137  1  0.11111111  0.77777778  0.23958333  1.0
  Ni  Ni138  1  0.44444444  0.11111111  0.23958333  1.0
  Ni  Ni139  1  0.44444444  0.44444444  0.23958333  1.0
  Ni  Ni140  1  0.44444444  0.77777778  0.23958333  1.0
  Ni  Ni141  1  0.77777778  0.11111111  0.23958333  1.0
  Ni  Ni142  1  0.77777778  0.44444444  0.23958333  1.0
  Ni  Ni143  1  0.77777778  0.77777778  0.23958333  1.0
  Hf  Hf144  1  0.05727900  0.05727900  0.32227037  1.0
  Hf  Hf145  1  0.05727900  0.39061233  0.32227037  1.0
  Hf  Hf146  1  0.05727900  0.72394567  0.32227037  1.0
  Hf  Hf147  1  0.39061233  0.05727900  0.32227037  1.0
  Hf  Hf148  1  0.39061233  0.39061233  0.32227037  1.0
  Hf  Hf149  1  0.39061233  0.72394567  0.32227037  1.0
  Hf  Hf150  1  0.72394567  0.05727900  0.32227037  1.0
  Hf  Hf151  1  0.72394567  0.39061233  0.32227037  1.0
  Hf  Hf152  1  0.72394567  0.72394567  0.32227037  1.0
  Hf  Hf153  1  0.05727900  0.21877533  0.26170925  1.0
  Hf  Hf154  1  0.05727900  0.55210867  0.26170925  1.0
  Hf  Hf155  1  0.05727900  0.88544200  0.26170925  1.0
  Hf  Hf156  1  0.39061233  0.21877533  0.26170925  1.0
  Hf  Hf157  1  0.39061233  0.55210867  0.26170925  1.0
  Hf  Hf158  1  0.39061233  0.88544200  0.26170925  1.0
  Hf  Hf159  1  0.72394567  0.21877533  0.26170925  1.0
  Hf  Hf160  1  0.72394567  0.55210867  0.26170925  1.0
  Hf  Hf161  1  0.72394567  0.88544200  0.26170925  1.0
  Hf  Hf162  1  0.11455800  0.27605433  0.30272963  1.0
  Hf  Hf163  1  0.11455800  0.60938767  0.30272963  1.0
  Hf  Hf164  1  0.11455800  0.94272100  0.30272963  1.0
  Hf  Hf165  1  0.44789133  0.27605433  0.30272963  1.0
  Hf  Hf166  1  0.44789133  0.60938767  0.30272962  1.0
  Hf  Hf167  1  0.44789133  0.94272100  0.30272963  1.0
  Hf  Hf168  1  0.78122467  0.27605433  0.30272963  1.0
  Hf  Hf169  1  0.78122467  0.60938767  0.30272962  1.0
  Hf  Hf170  1  0.78122467  0.94272100  0.30272962  1.0
  Hf  Hf171  1  0.27605433  0.27605433  0.30272963  1.0
  Hf  Hf172  1  0.27605433  0.60938767  0.30272962  1.0
  Hf  Hf173  1  0.27605433  0.94272100  0.30272963  1.0
  Hf  Hf174  1  0.60938767  0.27605433  0.30272963  1.0
  Hf  Hf175  1  0.60938767  0.60938767  0.30272962  1.0
  Hf  Hf176  1  0.60938767  0.94272100  0.30272962  1.0
  Hf  Hf177  1  0.94272100  0.27605433  0.30272963  1.0
  Hf  Hf178  1  0.94272100  0.60938767  0.30272962  1.0
  Hf  Hf179  1  0.94272100  0.94272100  0.30272962  1.0
  Hf  Hf180  1  0.27605433  0.11455800  0.36329075  1.0
  Hf  Hf181  1  0.27605433  0.44789133  0.36329075  1.0
  Hf  Hf182  1  0.27605433  0.78122467  0.36329075  1.0
  Hf  Hf183  1  0.60938767  0.11455800  0.36329075  1.0
  Hf  Hf184  1  0.60938767  0.44789133  0.36329075  1.0
  Hf  Hf185  1  0.60938767  0.78122467  0.36329075  1.0
  Hf  Hf186  1  0.94272100  0.11455800  0.36329075  1.0
  Hf  Hf187  1  0.94272100  0.44789133  0.36329075  1.0
  Hf  Hf188  1  0.94272100  0.78122467  0.36329075  1.0
  Hf  Hf189  1  0.21877533  0.05727900  0.32227037  1.0
  Hf  Hf190  1  0.21877533  0.39061233  0.32227037  1.0
  Hf  Hf191  1  0.21877533  0.72394567  0.32227037  1.0
  Hf  Hf192  1  0.55210867  0.05727900  0.32227037  1.0
  Hf  Hf193  1  0.55210867  0.39061233  0.32227037  1.0
  Hf  Hf194  1  0.55210867  0.72394567  0.32227037  1.0
  Hf  Hf195  1  0.88544200  0.05727900  0.32227037  1.0
  Hf  Hf196  1  0.88544200  0.39061233  0.32227037  1.0
  Hf  Hf197  1  0.88544200  0.72394567  0.32227037  1.0
  Ni  Ni198  1  0.22222222  0.22222222  0.26041667  1.0
  Ni  Ni199  1  0.22222222  0.55555556  0.26041667  1.0
  Ni  Ni200  1  0.22222222  0.88888889  0.26041667  1.0
  Ni  Ni201  1  0.55555556  0.22222222  0.26041667  1.0
  Ni  Ni202  1  0.55555556  0.55555556  0.26041667  1.0
  Ni  Ni203  1  0.55555556  0.88888889  0.26041667  1.0
  Ni  Ni204  1  0.88888889  0.22222222  0.26041667  1.0
  Ni  Ni205  1  0.88888889  0.55555556  0.26041667  1.0
  Ni  Ni206  1  0.88888889  0.88888889  0.26041667  1.0
  Ni  Ni207  1  0.11111111  0.11111111  0.36458333  1.0
  Ni  Ni208  1  0.11111111  0.44444444  0.36458333  1.0
  Ni  Ni209  1  0.11111111  0.77777778  0.36458333  1.0
  Ni  Ni210  1  0.44444444  0.11111111  0.36458333  1.0
  Ni  Ni211  1  0.44444444  0.44444444  0.36458333  1.0
  Ni  Ni212  1  0.44444444  0.77777778  0.36458333  1.0
  Ni  Ni213  1  0.77777778  0.11111111  0.36458333  1.0
  Ni  Ni214  1  0.77777778  0.44444444  0.36458333  1.0
  Ni  Ni215  1  0.77777778  0.77777778  0.36458333  1.0
