# generated using pymatgen
data_Hf3Ni
_symmetry_space_group_name_H-M   'P 1'
_cell_length_a   18.00857995
_cell_length_b   22.05591593
_cell_length_c   27.83411668
_cell_angle_alpha   95.05115253
_cell_angle_beta   90.00000000
_cell_angle_gamma   90.00000000
_symmetry_Int_Tables_number   1
_chemical_formula_structural   Hf3Ni
_chemical_formula_sum   'Hf162 Ni54'
_cell_volume   11012.65766294
_cell_formula_units_Z   54
loop_
 _symmetry_equiv_pos_site_id
 _symmetry_equiv_pos_as_xyz
  1  'x, y, z'
loop_
 _atom_site_type_symbol
 _atom_site_label
 _atom_site_symmetry_multiplicity
 _atom_site_fract_x
 _atom_site_fract_y
 _atom_site_fract_z
 _atom_site_occupancy
  Hf  Hf0  1  0.00000000  0.11979167  0.95312500  1.0
  Hf  Hf1  1  0.00000000  0.45312500  0.95312500  1.0
  Hf  Hf2  1  0.00000000  0.78645833  0.95312500  1.0
  Hf  Hf3  1  0.33333333  0.11979167  0.95312500  1.0
  Hf  Hf4  1  0.33333333  0.45312500  0.95312500  1.0
  Hf  Hf5  1  0.33333333  0.78645833  0.95312500  1.0
  Hf  Hf6  1  0.66666667  0.11979167  0.95312500  1.0
  Hf  Hf7  1  0.66666667  0.45312500  0.95312500  1.0
  Hf  Hf8  1  0.66666667  0.78645833  0.95312500  1.0
  Hf  Hf9  1  0.16666667  0.22395833  0.89062500  1.0
  Hf  Hf10  1  0.16666667  0.55729167  0.89062500  1.0
  Hf  Hf11  1  0.16666667  0.89062500  0.89062500  1.0
  Hf  Hf12  1  0.50000000  0.22395833  0.89062500  1.0
  Hf  Hf13  1  0.50000000  0.55729167  0.89062500  1.0
  Hf  Hf14  1  0.50000000  0.89062500  0.89062500  1.0
  Hf  Hf15  1  0.83333333  0.22395833  0.89062500  1.0
  Hf  Hf16  1  0.83333333  0.55729167  0.89062500  1.0
  Hf  Hf17  1  0.83333333  0.89062500  0.89062500  1.0
  Hf  Hf18  1  0.08333333  0.00520833  0.92187500  1.0
  Hf  Hf19  1  0.08333333  0.33854167  0.92187500  1.0
  Hf  Hf20  1  0.08333333  0.67187500  0.92187500  1.0
  Hf  Hf21  1  0.41666667  0.00520833  0.92187500  1.0
  Hf  Hf22  1  0.41666667  0.33854167  0.92187500  1.0
  Hf  Hf23  1  0.41666667  0.67187500  0.92187500  1.0
  Hf  Hf24  1  0.75000000  0.00520833  0.92187500  1.0
  Hf  Hf25  1  0.75000000  0.33854167  0.92187500  1.0
  Hf  Hf26  1  0.75000000  0.67187500  0.92187500  1.0
  Hf  Hf27  1  0.25000000  0.23437500  0.98437500  1.0
  Hf  Hf28  1  0.25000000  0.56770833  0.98437500  1.0
  Hf  Hf29  1  0.25000000  0.90104167  0.98437500  1.0
  Hf  Hf30  1  0.58333333  0.23437500  0.98437500  1.0
  Hf  Hf31  1  0.58333333  0.56770833  0.98437500  1.0
  Hf  Hf32  1  0.58333333  0.90104167  0.98437500  1.0
  Hf  Hf33  1  0.91666667  0.23437500  0.98437500  1.0
  Hf  Hf34  1  0.91666667  0.56770833  0.98437500  1.0
  Hf  Hf35  1  0.91666667  0.90104167  0.98437500  1.0
  Hf  Hf36  1  0.25000000  0.00520833  0.92187500  1.0
  Hf  Hf37  1  0.25000000  0.33854167  0.92187500  1.0
  Hf  Hf38  1  0.25000000  0.67187500  0.92187500  1.0
  Hf  Hf39  1  0.58333333  0.00520833  0.92187500  1.0
  Hf  Hf40  1  0.58333333  0.33854167  0.92187500  1.0
  Hf  Hf41  1  0.58333333  0.67187500  0.92187500  1.0
  Hf  Hf42  1  0.91666667  0.00520833  0.92187500  1.0
  Hf  Hf43  1  0.91666667  0.33854167  0.92187500  1.0
  Hf  Hf44  1  0.91666667  0.67187500  0.92187500  1.0
  Hf  Hf45  1  0.08333333  0.23437500  0.98437500  1.0
  Hf  Hf46  1  0.08333333  0.56770833  0.98437500  1.0
  Hf  Hf47  1  0.08333333  0.90104167  0.98437500  1.0
  Hf  Hf48  1  0.41666667  0.23437500  0.98437500  1.0
  Hf  Hf49  1  0.41666667  0.56770833  0.98437500  1.0
  Hf  Hf50  1  0.41666667  0.90104167  0.98437500  1.0
  Hf  Hf51  1  0.75000000  0.23437500  0.98437500  1.0
  Hf  Hf52  1  0.75000000  0.56770833  0.98437500  1.0
  Hf  Hf53  1  0.75000000  0.90104167  0.98437500  1.0
  Hf  Hf54  1  0.00000000  0.32812500  0.82812500  1.0
  Hf  Hf55  1  0.00000000  0.66145833  0.82812500  1.0
  Hf  Hf56  1  0.00000000  0.99479167  0.82812500  1.0
  Hf  Hf57  1  0.33333333  0.32812500  0.82812500  1.0
  Hf  Hf58  1  0.33333333  0.66145833  0.82812500  1.0
  Hf  Hf59  1  0.33333333  0.99479167  0.82812500  1.0
  Hf  Hf60  1  0.66666667  0.32812500  0.82812500  1.0
  Hf  Hf61  1  0.66666667  0.66145833  0.82812500  1.0
  Hf  Hf62  1  0.66666667  0.99479167  0.82812500  1.0
  Hf  Hf63  1  0.16666667  0.09895833  0.76562500  1.0
  Hf  Hf64  1  0.16666667  0.43229167  0.76562500  1.0
  Hf  Hf65  1  0.16666667  0.76562500  0.76562500  1.0
  Hf  Hf66  1  0.50000000  0.09895833  0.76562500  1.0
  Hf  Hf67  1  0.50000000  0.43229167  0.76562500  1.0
  Hf  Hf68  1  0.50000000  0.76562500  0.76562500  1.0
  Hf  Hf69  1  0.83333333  0.09895833  0.76562500  1.0
  Hf  Hf70  1  0.83333333  0.43229167  0.76562500  1.0
  Hf  Hf71  1  0.83333333  0.76562500  0.76562500  1.0
  Hf  Hf72  1  0.08333333  0.21354167  0.79687500  1.0
  Hf  Hf73  1  0.08333333  0.54687500  0.79687500  1.0
  Hf  Hf74  1  0.08333333  0.88020833  0.79687500  1.0
  Hf  Hf75  1  0.41666667  0.21354167  0.79687500  1.0
  Hf  Hf76  1  0.41666667  0.54687500  0.79687500  1.0
  Hf  Hf77  1  0.41666667  0.88020833  0.79687500  1.0
  Hf  Hf78  1  0.75000000  0.21354167  0.79687500  1.0
  Hf  Hf79  1  0.75000000  0.54687500  0.79687500  1.0
  Hf  Hf80  1  0.75000000  0.88020833  0.79687500  1.0
  Hf  Hf81  1  0.25000000  0.10937500  0.85937500  1.0
  Hf  Hf82  1  0.25000000  0.44270833  0.85937500  1.0
  Hf  Hf83  1  0.25000000  0.77604167  0.85937500  1.0
  Hf  Hf84  1  0.58333333  0.10937500  0.85937500  1.0
  Hf  Hf85  1  0.58333333  0.44270833  0.85937500  1.0
  Hf  Hf86  1  0.58333333  0.77604167  0.85937500  1.0
  Hf  Hf87  1  0.91666667  0.10937500  0.85937500  1.0
  Hf  Hf88  1  0.91666667  0.44270833  0.85937500  1.0
  Hf  Hf89  1  0.91666667  0.77604167  0.85937500  1.0
  Hf  Hf90  1  0.25000000  0.21354167  0.79687500  1.0
  Hf  Hf91  1  0.25000000  0.54687500  0.79687500  1.0
  Hf  Hf92  1  0.25000000  0.88020833  0.79687500  1.0
  Hf  Hf93  1  0.58333333  0.21354167  0.79687500  1.0
  Hf  Hf94  1  0.58333333  0.54687500  0.79687500  1.0
  Hf  Hf95  1  0.58333333  0.88020833  0.79687500  1.0
  Hf  Hf96  1  0.91666667  0.21354167  0.79687500  1.0
  Hf  Hf97  1  0.91666667  0.54687500  0.79687500  1.0
  Hf  Hf98  1  0.91666667  0.88020833  0.79687500  1.0
  Hf  Hf99  1  0.08333333  0.10937500  0.85937500  1.0
  Hf  Hf100  1  0.08333333  0.44270833  0.85937500  1.0
  Hf  Hf101  1  0.08333333  0.77604167  0.85937500  1.0
  Hf  Hf102  1  0.41666667  0.10937500  0.85937500  1.0
  Hf  Hf103  1  0.41666667  0.44270833  0.85937500  1.0
  Hf  Hf104  1  0.41666667  0.77604167  0.85937500  1.0
  Hf  Hf105  1  0.75000000  0.10937500  0.85937500  1.0
  Hf  Hf106  1  0.75000000  0.44270833  0.85937500  1.0
  Hf  Hf107  1  0.75000000  0.77604167  0.85937500  1.0
  Hf  Hf108  1  0.00000000  0.20312500  0.70312500  1.0
  Hf  Hf109  1  0.00000000  0.53645833  0.70312500  1.0
  Hf  Hf110  1  0.00000000  0.86979167  0.70312500  1.0
  Hf  Hf111  1  0.33333333  0.20312500  0.70312500  1.0
  Hf  Hf112  1  0.33333333  0.53645833  0.70312500  1.0
  Hf  Hf113  1  0.33333333  0.86979167  0.70312500  1.0
  Hf  Hf114  1  0.66666667  0.20312500  0.70312500  1.0
  Hf  Hf115  1  0.66666667  0.53645833  0.70312500  1.0
  Hf  Hf116  1  0.66666667  0.86979167  0.70312500  1.0
  Hf  Hf117  1  0.16666667  0.30729167  0.64062500  1.0
  Hf  Hf118  1  0.16666667  0.64062500  0.64062500  1.0
  Hf  Hf119  1  0.16666667  0.97395833  0.64062500  1.0
  Hf  Hf120  1  0.50000000  0.30729167  0.64062500  1.0
  Hf  Hf121  1  0.50000000  0.64062500  0.64062500  1.0
  Hf  Hf122  1  0.50000000  0.97395833  0.64062500  1.0
  Hf  Hf123  1  0.83333333  0.30729167  0.64062500  1.0
  Hf  Hf124  1  0.83333333  0.64062500  0.64062500  1.0
  Hf  Hf125  1  0.83333333  0.97395833  0.64062500  1.0
  Hf  Hf126  1  0.08333333  0.08854167  0.67187500  1.0
  Hf  Hf127  1  0.08333333  0.42187500  0.67187500  1.0
  Hf  Hf128  1  0.08333333  0.75520833  0.67187500  1.0
  Hf  Hf129  1  0.41666667  0.08854167  0.67187500  1.0
  Hf  Hf130  1  0.41666667  0.42187500  0.67187500  1.0
  Hf  Hf131  1  0.41666667  0.75520833  0.67187500  1.0
  Hf  Hf132  1  0.75000000  0.08854167  0.67187500  1.0
  Hf  Hf133  1  0.75000000  0.42187500  0.67187500  1.0
  Hf  Hf134  1  0.75000000  0.75520833  0.67187500  1.0
  Hf  Hf135  1  0.25000000  0.31770833  0.73437500  1.0
  Hf  Hf136  1  0.25000000  0.65104167  0.73437500  1.0
  Hf  Hf137  1  0.25000000  0.98437500  0.73437500  1.0
  Hf  Hf138  1  0.58333333  0.31770833  0.73437500  1.0
  Hf  Hf139  1  0.58333333  0.65104167  0.73437500  1.0
  Hf  Hf140  1  0.58333333  0.98437500  0.73437500  1.0
  Hf  Hf141  1  0.91666667  0.31770833  0.73437500  1.0
  Hf  Hf142  1  0.91666667  0.65104167  0.73437500  1.0
  Hf  Hf143  1  0.91666667  0.98437500  0.73437500  1.0
  Hf  Hf144  1  0.25000000  0.08854167  0.67187500  1.0
  Hf  Hf145  1  0.25000000  0.42187500  0.67187500  1.0
  Hf  Hf146  1  0.25000000  0.75520833  0.67187500  1.0
  Hf  Hf147  1  0.58333333  0.08854167  0.67187500  1.0
  Hf  Hf148  1  0.58333333  0.42187500  0.67187500  1.0
  Hf  Hf149  1  0.58333333  0.75520833  0.67187500  1.0
  Hf  Hf150  1  0.91666667  0.08854167  0.67187500  1.0
  Hf  Hf151  1  0.91666667  0.42187500  0.67187500  1.0
  Hf  Hf152  1  0.91666667  0.75520833  0.67187500  1.0
  Hf  Hf153  1  0.08333333  0.31770833  0.73437500  1.0
  Hf  Hf154  1  0.08333333  0.65104167  0.73437500  1.0
  Hf  Hf155  1  0.08333333  0.98437500  0.73437500  1.0
  Hf  Hf156  1  0.41666667  0.31770833  0.73437500  1.0
  Hf  Hf157  1  0.41666667  0.65104167  0.73437500  1.0
  Hf  Hf158  1  0.41666667  0.98437500  0.73437500  1.0
  Hf  Hf159  1  0.75000000  0.31770833  0.73437500  1.0
  Hf  Hf160  1  0.75000000  0.65104167  0.73437500  1.0
  Hf  Hf161  1  0.75000000  0.98437500  0.73437500  1.0
  Ni  Ni162  1  0.33333333  0.22395833  0.89062500  1.0
  Ni  Ni163  1  0.33333333  0.55729167  0.89062500  1.0
  Ni  Ni164  1  0.33333333  0.89062500  0.89062500  1.0
  Ni  Ni165  1  0.66666667  0.22395833  0.89062500  1.0
  Ni  Ni166  1  0.66666667  0.55729167  0.89062500  1.0
  Ni  Ni167  1  0.66666667  0.89062500  0.89062500  1.0
  Ni  Ni168  1  0.00000000  0.22395833  0.89062500  1.0
  Ni  Ni169  1  0.00000000  0.55729167  0.89062500  1.0
  Ni  Ni170  1  0.00000000  0.89062500  0.89062500  1.0
  Ni  Ni171  1  0.16666667  0.11979167  0.95312500  1.0
  Ni  Ni172  1  0.16666667  0.45312500  0.95312500  1.0
  Ni  Ni173  1  0.16666667  0.78645833  0.95312500  1.0
  Ni  Ni174  1  0.50000000  0.11979167  0.95312500  1.0
  Ni  Ni175  1  0.50000000  0.45312500  0.95312500  1.0
  Ni  Ni176  1  0.50000000  0.78645833  0.95312500  1.0
  Ni  Ni177  1  0.83333333  0.11979167  0.95312500  1.0
  Ni  Ni178  1  0.83333333  0.45312500  0.95312500  1.0
  Ni  Ni179  1  0.83333333  0.78645833  0.95312500  1.0
  Ni  Ni180  1  0.33333333  0.09895833  0.76562500  1.0
  Ni  Ni181  1  0.33333333  0.43229167  0.76562500  1.0
  Ni  Ni182  1  0.33333333  0.76562500  0.76562500  1.0
  Ni  Ni183  1  0.66666667  0.09895833  0.76562500  1.0
  Ni  Ni184  1  0.66666667  0.43229167  0.76562500  1.0
  Ni  Ni185  1  0.66666667  0.76562500  0.76562500  1.0
  Ni  Ni186  1  0.00000000  0.09895833  0.76562500  1.0
  Ni  Ni187  1  1.00000000  0.43229167  0.76562500  1.0
  Ni  Ni188  1  1.00000000  0.76562500  0.76562500  1.0
  Ni  Ni189  1  0.16666667  0.32812500  0.82812500  1.0
  Ni  Ni190  1  0.16666667  0.66145833  0.82812500  1.0
  Ni  Ni191  1  0.16666667  0.99479167  0.82812500  1.0
  Ni  Ni192  1  0.50000000  0.32812500  0.82812500  1.0
  Ni  Ni193  1  0.50000000  0.66145833  0.82812500  1.0
  Ni  Ni194  1  0.50000000  0.99479167  0.82812500  1.0
  Ni  Ni195  1  0.83333333  0.32812500  0.82812500  1.0
  Ni  Ni196  1  0.83333333  0.66145833  0.82812500  1.0
  Ni  Ni197  1  0.83333333  0.99479167  0.82812500  1.0
  Ni  Ni198  1  0.33333333  0.30729167  0.64062500  1.0
  Ni  Ni199  1  0.33333333  0.64062500  0.64062500  1.0
  Ni  Ni200  1  0.33333333  0.97395833  0.64062500  1.0
  Ni  Ni201  1  0.66666667  0.30729167  0.64062500  1.0
  Ni  Ni202  1  0.66666667  0.64062500  0.64062500  1.0
  Ni  Ni203  1  0.66666667  0.97395833  0.64062500  1.0
  Ni  Ni204  1  1.00000000  0.30729167  0.64062500  1.0
  Ni  Ni205  1  0.00000000  0.64062500  0.64062500  1.0
  Ni  Ni206  1  0.00000000  0.97395833  0.64062500  1.0
  Ni  Ni207  1  0.16666667  0.20312500  0.70312500  1.0
  Ni  Ni208  1  0.16666667  0.53645833  0.70312500  1.0
  Ni  Ni209  1  0.16666667  0.86979167  0.70312500  1.0
  Ni  Ni210  1  0.50000000  0.20312500  0.70312500  1.0
  Ni  Ni211  1  0.50000000  0.53645833  0.70312500  1.0
  Ni  Ni212  1  0.50000000  0.86979167  0.70312500  1.0
  Ni  Ni213  1  0.83333333  0.20312500  0.70312500  1.0
  Ni  Ni214  1  0.83333333  0.53645833  0.70312500  1.0
  Ni  Ni215  1  0.83333333  0.86979167  0.70312500  1.0
