# generated using pymatgen
data_Hf3Ni
_symmetry_space_group_name_H-M   'P 1'
_cell_length_a   18.00857995
_cell_length_b   18.00857995
_cell_length_c   50.93595600
_cell_angle_alpha   135.00000000
_cell_angle_beta   135.00000000
_cell_angle_gamma   60.00000000
_symmetry_Int_Tables_number   1
_chemical_formula_structural   Hf3Ni
_chemical_formula_sum   'Hf135 Ni45'
_cell_volume   8259.49324721
_cell_formula_units_Z   45
loop_
 _symmetry_equiv_pos_site_id
 _symmetry_equiv_pos_as_xyz
  1  'x, y, z'
loop_
 _atom_site_type_symbol
 _atom_site_label
 _atom_site_symmetry_multiplicity
 _atom_site_fract_x
 _atom_site_fract_y
 _atom_site_fract_z
 _atom_site_occupancy
  Hf  Hf0  1  0.16666667  0.16666667  0.04166667  1.0
  Hf  Hf1  1  0.16666667  0.50000000  0.04166667  1.0
  Hf  Hf2  1  0.16666667  0.83333333  0.04166667  1.0
  Hf  Hf3  1  0.50000000  0.16666667  0.04166667  1.0
  Hf  Hf4  1  0.50000000  0.50000000  0.04166667  1.0
  Hf  Hf5  1  0.50000000  0.83333333  0.04166667  1.0
  Hf  Hf6  1  0.83333333  0.16666667  0.04166667  1.0
  Hf  Hf7  1  0.83333333  0.50000000  0.04166667  1.0
  Hf  Hf8  1  0.83333333  0.83333333  0.04166667  1.0
  Hf  Hf9  1  0.00000000  0.16666667  0.04166667  1.0
  Hf  Hf10  1  0.00000000  0.50000000  0.04166667  1.0
  Hf  Hf11  1  0.00000000  0.83333333  0.04166667  1.0
  Hf  Hf12  1  0.33333333  0.16666667  0.04166667  1.0
  Hf  Hf13  1  0.33333333  0.50000000  0.04166667  1.0
  Hf  Hf14  1  0.33333333  0.83333333  0.04166667  1.0
  Hf  Hf15  1  0.66666667  0.16666667  0.04166667  1.0
  Hf  Hf16  1  0.66666667  0.50000000  0.04166667  1.0
  Hf  Hf17  1  0.66666667  0.83333333  0.04166667  1.0
  Hf  Hf18  1  0.16666667  0.00000000  0.04166667  1.0
  Hf  Hf19  1  0.16666667  0.33333333  0.04166667  1.0
  Hf  Hf20  1  0.16666667  0.66666667  0.04166667  1.0
  Hf  Hf21  1  0.50000000  0.00000000  0.04166667  1.0
  Hf  Hf22  1  0.50000000  0.33333333  0.04166667  1.0
  Hf  Hf23  1  0.50000000  0.66666667  0.04166667  1.0
  Hf  Hf24  1  0.83333333  0.00000000  0.04166667  1.0
  Hf  Hf25  1  0.83333333  0.33333333  0.04166667  1.0
  Hf  Hf26  1  0.83333333  0.66666667  0.04166667  1.0
  Ni  Ni27  1  0.00000000  0.00000000  0.04166667  1.0
  Ni  Ni28  1  0.00000000  0.33333333  0.04166667  1.0
  Ni  Ni29  1  0.00000000  0.66666667  0.04166667  1.0
  Ni  Ni30  1  0.33333333  0.00000000  0.04166667  1.0
  Ni  Ni31  1  0.33333333  0.33333333  0.04166667  1.0
  Ni  Ni32  1  0.33333333  0.66666667  0.04166667  1.0
  Ni  Ni33  1  0.66666667  0.00000000  0.04166667  1.0
  Ni  Ni34  1  0.66666667  0.33333333  0.04166667  1.0
  Ni  Ni35  1  0.66666667  0.66666667  0.04166667  1.0
  Hf  Hf36  1  0.16666667  0.16666667  0.12500000  1.0
  Hf  Hf37  1  0.16666667  0.50000000  0.12500000  1.0
  Hf  Hf38  1  0.16666667  0.83333333  0.12500000  1.0
  Hf  Hf39  1  0.50000000  0.16666667  0.12500000  1.0
  Hf  Hf40  1  0.50000000  0.50000000  0.12500000  1.0
  Hf  Hf41  1  0.50000000  0.83333333  0.12500000  1.0
  Hf  Hf42  1  0.83333333  0.16666667  0.12500000  1.0
  Hf  Hf43  1  0.83333333  0.50000000  0.12500000  1.0
  Hf  Hf44  1  0.83333333  0.83333333  0.12500000  1.0
  Hf  Hf45  1  0.00000000  0.16666667  0.12500000  1.0
  Hf  Hf46  1  0.00000000  0.50000000  0.12500000  1.0
  Hf  Hf47  1  0.00000000  0.83333333  0.12500000  1.0
  Hf  Hf48  1  0.33333333  0.16666667  0.12500000  1.0
  Hf  Hf49  1  0.33333333  0.50000000  0.12500000  1.0
  Hf  Hf50  1  0.33333333  0.83333333  0.12500000  1.0
  Hf  Hf51  1  0.66666667  0.16666667  0.12500000  1.0
  Hf  Hf52  1  0.66666667  0.50000000  0.12500000  1.0
  Hf  Hf53  1  0.66666667  0.83333333  0.12500000  1.0
  Hf  Hf54  1  0.16666667  0.00000000  0.12500000  1.0
  Hf  Hf55  1  0.16666667  0.33333333  0.12500000  1.0
  Hf  Hf56  1  0.16666667  0.66666667  0.12500000  1.0
  Hf  Hf57  1  0.50000000  0.00000000  0.12500000  1.0
  Hf  Hf58  1  0.50000000  0.33333333  0.12500000  1.0
  Hf  Hf59  1  0.50000000  0.66666667  0.12500000  1.0
  Hf  Hf60  1  0.83333333  0.00000000  0.12500000  1.0
  Hf  Hf61  1  0.83333333  0.33333333  0.12500000  1.0
  Hf  Hf62  1  0.83333333  0.66666667  0.12500000  1.0
  Ni  Ni63  1  0.00000000  0.00000000  0.12500000  1.0
  Ni  Ni64  1  0.00000000  0.33333333  0.12500000  1.0
  Ni  Ni65  1  0.00000000  0.66666667  0.12500000  1.0
  Ni  Ni66  1  0.33333333  0.00000000  0.12500000  1.0
  Ni  Ni67  1  0.33333333  0.33333333  0.12500000  1.0
  Ni  Ni68  1  0.33333333  0.66666667  0.12500000  1.0
  Ni  Ni69  1  0.66666667  0.00000000  0.12500000  1.0
  Ni  Ni70  1  0.66666667  0.33333333  0.12500000  1.0
  Ni  Ni71  1  0.66666667  0.66666667  0.12500000  1.0
  Hf  Hf72  1  0.16666667  0.16666667  0.20833333  1.0
  Hf  Hf73  1  0.16666667  0.50000000  0.20833333  1.0
  Hf  Hf74  1  0.16666667  0.83333333  0.20833333  1.0
  Hf  Hf75  1  0.50000000  0.16666667  0.20833333  1.0
  Hf  Hf76  1  0.50000000  0.50000000  0.20833333  1.0
  Hf  Hf77  1  0.50000000  0.83333333  0.20833333  1.0
  Hf  Hf78  1  0.83333333  0.16666667  0.20833333  1.0
  Hf  Hf79  1  0.83333333  0.50000000  0.20833333  1.0
  Hf  Hf80  1  0.83333333  0.83333333  0.20833333  1.0
  Hf  Hf81  1  0.00000000  0.16666667  0.20833333  1.0
  Hf  Hf82  1  0.00000000  0.50000000  0.20833333  1.0
  Hf  Hf83  1  0.00000000  0.83333333  0.20833333  1.0
  Hf  Hf84  1  0.33333333  0.16666667  0.20833333  1.0
  Hf  Hf85  1  0.33333333  0.50000000  0.20833333  1.0
  Hf  Hf86  1  0.33333333  0.83333333  0.20833333  1.0
  Hf  Hf87  1  0.66666667  0.16666667  0.20833333  1.0
  Hf  Hf88  1  0.66666667  0.50000000  0.20833333  1.0
  Hf  Hf89  1  0.66666667  0.83333333  0.20833333  1.0
  Hf  Hf90  1  0.16666667  0.00000000  0.20833333  1.0
  Hf  Hf91  1  0.16666667  0.33333333  0.20833333  1.0
  Hf  Hf92  1  0.16666667  0.66666667  0.20833333  1.0
  Hf  Hf93  1  0.50000000  0.00000000  0.20833333  1.0
  Hf  Hf94  1  0.50000000  0.33333333  0.20833333  1.0
  Hf  Hf95  1  0.50000000  0.66666667  0.20833333  1.0
  Hf  Hf96  1  0.83333333  0.00000000  0.20833333  1.0
  Hf  Hf97  1  0.83333333  0.33333333  0.20833333  1.0
  Hf  Hf98  1  0.83333333  0.66666667  0.20833333  1.0
  Ni  Ni99  1  0.00000000  0.00000000  0.20833333  1.0
  Ni  Ni100  1  0.00000000  0.33333333  0.20833333  1.0
  Ni  Ni101  1  0.00000000  0.66666667  0.20833333  1.0
  Ni  Ni102  1  0.33333333  0.00000000  0.20833333  1.0
  Ni  Ni103  1  0.33333333  0.33333333  0.20833333  1.0
  Ni  Ni104  1  0.33333333  0.66666667  0.20833333  1.0
  Ni  Ni105  1  0.66666667  0.00000000  0.20833333  1.0
  Ni  Ni106  1  0.66666667  0.33333333  0.20833333  1.0
  Ni  Ni107  1  0.66666667  0.66666667  0.20833333  1.0
  Hf  Hf108  1  0.16666667  0.16666667  0.29166667  1.0
  Hf  Hf109  1  0.16666667  0.50000000  0.29166667  1.0
  Hf  Hf110  1  0.16666667  0.83333333  0.29166667  1.0
  Hf  Hf111  1  0.50000000  0.16666667  0.29166667  1.0
  Hf  Hf112  1  0.50000000  0.50000000  0.29166667  1.0
  Hf  Hf113  1  0.50000000  0.83333333  0.29166667  1.0
  Hf  Hf114  1  0.83333333  0.16666667  0.29166667  1.0
  Hf  Hf115  1  0.83333333  0.50000000  0.29166667  1.0
  Hf  Hf116  1  0.83333333  0.83333333  0.29166667  1.0
  Hf  Hf117  1  0.00000000  0.16666667  0.29166667  1.0
  Hf  Hf118  1  0.00000000  0.50000000  0.29166667  1.0
  Hf  Hf119  1  0.00000000  0.83333333  0.29166667  1.0
  Hf  Hf120  1  0.33333333  0.16666667  0.29166667  1.0
  Hf  Hf121  1  0.33333333  0.50000000  0.29166667  1.0
  Hf  Hf122  1  0.33333333  0.83333333  0.29166667  1.0
  Hf  Hf123  1  0.66666667  0.16666667  0.29166667  1.0
  Hf  Hf124  1  0.66666667  0.50000000  0.29166667  1.0
  Hf  Hf125  1  0.66666667  0.83333333  0.29166667  1.0
  Hf  Hf126  1  0.16666667  0.00000000  0.29166667  1.0
  Hf  Hf127  1  0.16666667  0.33333333  0.29166667  1.0
  Hf  Hf128  1  0.16666667  0.66666667  0.29166667  1.0
  Hf  Hf129  1  0.50000000  0.00000000  0.29166667  1.0
  Hf  Hf130  1  0.50000000  0.33333333  0.29166667  1.0
  Hf  Hf131  1  0.50000000  0.66666667  0.29166667  1.0
  Hf  Hf132  1  0.83333333  0.00000000  0.29166667  1.0
  Hf  Hf133  1  0.83333333  0.33333333  0.29166667  1.0
  Hf  Hf134  1  0.83333333  0.66666667  0.29166667  1.0
  Ni  Ni135  1  0.00000000  0.00000000  0.29166667  1.0
  Ni  Ni136  1  0.00000000  0.33333333  0.29166667  1.0
  Ni  Ni137  1  0.00000000  0.66666667  0.29166667  1.0
  Ni  Ni138  1  0.33333333  0.00000000  0.29166667  1.0
  Ni  Ni139  1  0.33333333  0.33333333  0.29166667  1.0
  Ni  Ni140  1  0.33333333  0.66666667  0.29166667  1.0
  Ni  Ni141  1  0.66666667  0.00000000  0.29166667  1.0
  Ni  Ni142  1  0.66666667  0.33333333  0.29166667  1.0
  Ni  Ni143  1  0.66666667  0.66666667  0.29166667  1.0
  Hf  Hf144  1  0.16666667  0.16666667  0.37500000  1.0
  Hf  Hf145  1  0.16666667  0.50000000  0.37500000  1.0
  Hf  Hf146  1  0.16666667  0.83333333  0.37500000  1.0
  Hf  Hf147  1  0.50000000  0.16666667  0.37500000  1.0
  Hf  Hf148  1  0.50000000  0.50000000  0.37500000  1.0
  Hf  Hf149  1  0.50000000  0.83333333  0.37500000  1.0
  Hf  Hf150  1  0.83333333  0.16666667  0.37500000  1.0
  Hf  Hf151  1  0.83333333  0.50000000  0.37500000  1.0
  Hf  Hf152  1  0.83333333  0.83333333  0.37500000  1.0
  Hf  Hf153  1  0.00000000  0.16666667  0.37500000  1.0
  Hf  Hf154  1  0.00000000  0.50000000  0.37500000  1.0
  Hf  Hf155  1  0.00000000  0.83333333  0.37500000  1.0
  Hf  Hf156  1  0.33333333  0.16666667  0.37500000  1.0
  Hf  Hf157  1  0.33333333  0.50000000  0.37500000  1.0
  Hf  Hf158  1  0.33333333  0.83333333  0.37500000  1.0
  Hf  Hf159  1  0.66666667  0.16666667  0.37500000  1.0
  Hf  Hf160  1  0.66666667  0.50000000  0.37500000  1.0
  Hf  Hf161  1  0.66666667  0.83333333  0.37500000  1.0
  Hf  Hf162  1  0.16666667  0.00000000  0.37500000  1.0
  Hf  Hf163  1  0.16666667  0.33333333  0.37500000  1.0
  Hf  Hf164  1  0.16666667  0.66666667  0.37500000  1.0
  Hf  Hf165  1  0.50000000  0.00000000  0.37500000  1.0
  Hf  Hf166  1  0.50000000  0.33333333  0.37500000  1.0
  Hf  Hf167  1  0.50000000  0.66666667  0.37500000  1.0
  Hf  Hf168  1  0.83333333  0.00000000  0.37500000  1.0
  Hf  Hf169  1  0.83333333  0.33333333  0.37500000  1.0
  Hf  Hf170  1  0.83333333  0.66666667  0.37500000  1.0
  Ni  Ni171  1  0.00000000  0.00000000  0.37500000  1.0
  Ni  Ni172  1  0.00000000  0.33333333  0.37500000  1.0
  Ni  Ni173  1  0.00000000  0.66666667  0.37500000  1.0
  Ni  Ni174  1  0.33333333  0.00000000  0.37500000  1.0
  Ni  Ni175  1  0.33333333  0.33333333  0.37500000  1.0
  Ni  Ni176  1  0.33333333  0.66666667  0.37500000  1.0
  Ni  Ni177  1  0.66666667  0.00000000  0.37500000  1.0
  Ni  Ni178  1  0.66666667  0.33333333  0.37500000  1.0
  Ni  Ni179  1  0.66666667  0.66666667  0.37500000  1.0
