# generated using pymatgen
data_Hf7Ni10
_symmetry_space_group_name_H-M   'P 1'
_cell_length_a   22.87148922
_cell_length_b   35.61842263
_cell_length_c   38.11914870
_cell_angle_alpha   129.95047864
_cell_angle_beta   106.98795139
_cell_angle_gamma   79.18665346
_symmetry_Int_Tables_number   1
_chemical_formula_structural   Hf7Ni10
_chemical_formula_sum   'Hf252 Ni360'
_cell_volume   22766.96842376
_cell_formula_units_Z   36
loop_
 _symmetry_equiv_pos_site_id
 _symmetry_equiv_pos_as_xyz
  1  'x, y, z'
loop_
 _atom_site_type_symbol
 _atom_site_label
 _atom_site_symmetry_multiplicity
 _atom_site_fract_x
 _atom_site_fract_y
 _atom_site_fract_z
 _atom_site_occupancy
  Hf  Hf0  1  0.23123933  0.00000000  0.05564970  1.0
  Hf  Hf1  1  0.23123933  0.33333333  0.05564970  1.0
  Hf  Hf2  1  0.23123933  0.66666667  0.05564970  1.0
  Hf  Hf3  1  0.56457267  0.00000000  0.05564970  1.0
  Hf  Hf4  1  0.56457267  0.33333333  0.05564970  1.0
  Hf  Hf5  1  0.56457267  0.66666667  0.05564970  1.0
  Hf  Hf6  1  0.89790600  0.00000000  0.05564970  1.0
  Hf  Hf7  1  0.89790600  0.33333333  0.05564970  1.0
  Hf  Hf8  1  0.89790600  0.66666667  0.05564970  1.0
  Hf  Hf9  1  0.10209400  0.00000000  0.13313690  1.0
  Hf  Hf10  1  0.10209400  0.33333333  0.13313690  1.0
  Hf  Hf11  1  0.10209400  0.66666667  0.13313690  1.0
  Hf  Hf12  1  0.43542733  0.00000000  0.13313690  1.0
  Hf  Hf13  1  0.43542733  0.33333333  0.13313690  1.0
  Hf  Hf14  1  0.43542733  0.66666667  0.13313690  1.0
  Hf  Hf15  1  0.76876067  0.00000000  0.13313690  1.0
  Hf  Hf16  1  0.76876067  0.33333333  0.13313690  1.0
  Hf  Hf17  1  0.76876067  0.66666667  0.13313690  1.0
  Hf  Hf18  1  0.26876067  0.16666667  0.13313690  1.0
  Hf  Hf19  1  0.26876067  0.50000000  0.13313690  1.0
  Hf  Hf20  1  0.26876067  0.83333333  0.13313690  1.0
  Hf  Hf21  1  0.60209400  0.16666667  0.13313690  1.0
  Hf  Hf22  1  0.60209400  0.50000000  0.13313690  1.0
  Hf  Hf23  1  0.60209400  0.83333333  0.13313690  1.0
  Hf  Hf24  1  0.93542733  0.16666667  0.13313690  1.0
  Hf  Hf25  1  0.93542733  0.50000000  0.13313690  1.0
  Hf  Hf26  1  0.93542733  0.83333333  0.13313690  1.0
  Hf  Hf27  1  0.06457267  0.16666667  0.05564970  1.0
  Hf  Hf28  1  0.06457267  0.50000000  0.05564970  1.0
  Hf  Hf29  1  0.06457267  0.83333333  0.05564970  1.0
  Hf  Hf30  1  0.39790600  0.16666667  0.05564970  1.0
  Hf  Hf31  1  0.39790600  0.50000000  0.05564970  1.0
  Hf  Hf32  1  0.39790600  0.83333333  0.05564970  1.0
  Hf  Hf33  1  0.73123933  0.16666667  0.05564970  1.0
  Hf  Hf34  1  0.73123933  0.50000000  0.05564970  1.0
  Hf  Hf35  1  0.73123933  0.83333333  0.05564970  1.0
  Hf  Hf36  1  0.00000000  0.00000000  0.19439330  1.0
  Hf  Hf37  1  0.00000000  0.33333333  0.19439330  1.0
  Hf  Hf38  1  0.00000000  0.66666667  0.19439330  1.0
  Hf  Hf39  1  0.33333333  0.00000000  0.19439330  1.0
  Hf  Hf40  1  0.33333333  0.33333333  0.19439330  1.0
  Hf  Hf41  1  0.33333333  0.66666667  0.19439330  1.0
  Hf  Hf42  1  0.66666667  0.00000000  0.19439330  1.0
  Hf  Hf43  1  0.66666667  0.33333333  0.19439330  1.0
  Hf  Hf44  1  0.66666667  0.66666667  0.19439330  1.0
  Hf  Hf45  1  0.16666667  0.16666667  0.19439330  1.0
  Hf  Hf46  1  0.16666667  0.50000000  0.19439330  1.0
  Hf  Hf47  1  0.16666667  0.83333333  0.19439330  1.0
  Hf  Hf48  1  0.50000000  0.16666667  0.19439330  1.0
  Hf  Hf49  1  0.50000000  0.50000000  0.19439330  1.0
  Hf  Hf50  1  0.50000000  0.83333333  0.19439330  1.0
  Hf  Hf51  1  0.83333333  0.16666667  0.19439330  1.0
  Hf  Hf52  1  0.83333333  0.50000000  0.19439330  1.0
  Hf  Hf53  1  0.83333333  0.83333333  0.19439330  1.0
  Hf  Hf54  1  0.00168800  0.08333333  0.14540610  1.0
  Hf  Hf55  1  0.00168800  0.41666667  0.14540610  1.0
  Hf  Hf56  1  0.00168800  0.75000000  0.14540610  1.0
  Hf  Hf57  1  0.33502133  0.08333333  0.14540610  1.0
  Hf  Hf58  1  0.33502133  0.41666667  0.14540610  1.0
  Hf  Hf59  1  0.33502133  0.75000000  0.14540610  1.0
  Hf  Hf60  1  0.66835467  0.08333333  0.14540610  1.0
  Hf  Hf61  1  0.66835467  0.41666667  0.14540610  1.0
  Hf  Hf62  1  0.66835467  0.75000000  0.14540610  1.0
  Hf  Hf63  1  0.33164533  0.25000000  0.04338050  1.0
  Hf  Hf64  1  0.33164533  0.58333333  0.04338050  1.0
  Hf  Hf65  1  0.33164533  0.91666667  0.04338050  1.0
  Hf  Hf66  1  0.66497867  0.25000000  0.04338050  1.0
  Hf  Hf67  1  0.66497867  0.58333333  0.04338050  1.0
  Hf  Hf68  1  0.66497867  0.91666667  0.04338050  1.0
  Hf  Hf69  1  0.99831200  0.25000000  0.04338050  1.0
  Hf  Hf70  1  0.99831200  0.58333333  0.04338050  1.0
  Hf  Hf71  1  0.99831200  0.91666667  0.04338050  1.0
  Hf  Hf72  1  0.16497867  0.25000000  0.14338050  1.0
  Hf  Hf73  1  0.16497867  0.58333333  0.14338050  1.0
  Hf  Hf74  1  0.16497867  0.91666667  0.14338050  1.0
  Hf  Hf75  1  0.49831200  0.25000000  0.14338050  1.0
  Hf  Hf76  1  0.49831200  0.58333333  0.14338050  1.0
  Hf  Hf77  1  0.49831200  0.91666667  0.14338050  1.0
  Hf  Hf78  1  0.83164533  0.25000000  0.14338050  1.0
  Hf  Hf79  1  0.83164533  0.58333333  0.14338050  1.0
  Hf  Hf80  1  0.83164533  0.91666667  0.14338050  1.0
  Hf  Hf81  1  0.16835467  0.08333333  0.04540610  1.0
  Hf  Hf82  1  0.16835467  0.41666667  0.04540610  1.0
  Hf  Hf83  1  0.16835467  0.75000000  0.04540610  1.0
  Hf  Hf84  1  0.50168800  0.08333333  0.04540610  1.0
  Hf  Hf85  1  0.50168800  0.41666667  0.04540610  1.0
  Hf  Hf86  1  0.50168800  0.75000000  0.04540610  1.0
  Hf  Hf87  1  0.83502133  0.08333333  0.04540610  1.0
  Hf  Hf88  1  0.83502133  0.41666667  0.04540610  1.0
  Hf  Hf89  1  0.83502133  0.75000000  0.04540610  1.0
  Hf  Hf90  1  0.10438500  0.06251900  0.09453570  1.0
  Hf  Hf91  1  0.10438500  0.39585233  0.09453570  1.0
  Hf  Hf92  1  0.10438500  0.72918567  0.09453570  1.0
  Hf  Hf93  1  0.43771833  0.06251900  0.09453570  1.0
  Hf  Hf94  1  0.43771833  0.39585233  0.09453570  1.0
  Hf  Hf95  1  0.43771833  0.72918567  0.09453570  1.0
  Hf  Hf96  1  0.77105167  0.06251900  0.09453570  1.0
  Hf  Hf97  1  0.77105167  0.39585233  0.09453570  1.0
  Hf  Hf98  1  0.77105167  0.72918567  0.09453570  1.0
  Hf  Hf99  1  0.22894833  0.27081433  0.09425090  1.0
  Hf  Hf100  1  0.22894833  0.60414767  0.09425090  1.0
  Hf  Hf101  1  0.22894833  0.93748100  0.09425090  1.0
  Hf  Hf102  1  0.56228167  0.27081433  0.09425090  1.0
  Hf  Hf103  1  0.56228167  0.60414767  0.09425090  1.0
  Hf  Hf104  1  0.56228167  0.93748100  0.09425090  1.0
  Hf  Hf105  1  0.89561500  0.27081433  0.09425090  1.0
  Hf  Hf106  1  0.89561500  0.60414767  0.09425090  1.0
  Hf  Hf107  1  0.89561500  0.93748100  0.09425090  1.0
  Hf  Hf108  1  0.06228167  0.22918567  0.16927370  1.0
  Hf  Hf109  1  0.06228167  0.56251900  0.16927370  1.0
  Hf  Hf110  1  0.06228167  0.89585233  0.16927370  1.0
  Hf  Hf111  1  0.39561500  0.22918567  0.16927370  1.0
  Hf  Hf112  1  0.39561500  0.56251900  0.16927370  1.0
  Hf  Hf113  1  0.39561500  0.89585233  0.16927370  1.0
  Hf  Hf114  1  0.72894833  0.22918567  0.16927370  1.0
  Hf  Hf115  1  0.72894833  0.56251900  0.16927370  1.0
  Hf  Hf116  1  0.72894833  0.89585233  0.16927370  1.0
  Hf  Hf117  1  0.27105167  0.10414767  0.01951290  1.0
  Hf  Hf118  1  0.27105167  0.43748100  0.01951290  1.0
  Hf  Hf119  1  0.27105167  0.77081433  0.01951290  1.0
  Hf  Hf120  1  0.60438500  0.10414767  0.01951290  1.0
  Hf  Hf121  1  0.60438500  0.43748100  0.01951290  1.0
  Hf  Hf122  1  0.60438500  0.77081433  0.01951290  1.0
  Hf  Hf123  1  0.93771833  0.10414767  0.01951290  1.0
  Hf  Hf124  1  0.93771833  0.43748100  0.01951290  1.0
  Hf  Hf125  1  0.93771833  0.77081433  0.01951290  1.0
  Ni  Ni126  1  0.28870433  0.06943233  0.06704130  1.0
  Ni  Ni127  1  0.28870433  0.40276567  0.06704130  1.0
  Ni  Ni128  1  0.28870433  0.73609900  0.06704130  1.0
  Ni  Ni129  1  0.62203767  0.06943233  0.06704130  1.0
  Ni  Ni130  1  0.62203767  0.40276567  0.06704130  1.0
  Ni  Ni131  1  0.62203767  0.73609900  0.06704130  1.0
  Ni  Ni132  1  0.95537100  0.06943233  0.06704130  1.0
  Ni  Ni133  1  0.95537100  0.40276567  0.06704130  1.0
  Ni  Ni134  1  0.95537100  0.73609900  0.06704130  1.0
  Ni  Ni135  1  0.04462900  0.26390100  0.12174530  1.0
  Ni  Ni136  1  0.04462900  0.59723433  0.12174530  1.0
  Ni  Ni137  1  0.04462900  0.93056767  0.12174530  1.0
  Ni  Ni138  1  0.37796233  0.26390100  0.12174530  1.0
  Ni  Ni139  1  0.37796233  0.59723433  0.12174530  1.0
  Ni  Ni140  1  0.37796233  0.93056767  0.12174530  1.0
  Ni  Ni141  1  0.71129567  0.26390100  0.12174530  1.0
  Ni  Ni142  1  0.71129567  0.59723433  0.12174530  1.0
  Ni  Ni143  1  0.71129567  0.93056767  0.12174530  1.0
  Ni  Ni144  1  0.21129567  0.23609900  0.00506410  1.0
  Ni  Ni145  1  0.21129567  0.56943233  0.00506410  1.0
  Ni  Ni146  1  0.21129567  0.90276567  0.00506410  1.0
  Ni  Ni147  1  0.54462900  0.23609900  0.00506410  1.0
  Ni  Ni148  1  0.54462900  0.56943233  0.00506410  1.0
  Ni  Ni149  1  0.54462900  0.90276567  0.00506410  1.0
  Ni  Ni150  1  0.87796233  0.23609900  0.00506410  1.0
  Ni  Ni151  1  0.87796233  0.56943233  0.00506410  1.0
  Ni  Ni152  1  0.87796233  0.90276567  0.00506410  1.0
  Ni  Ni153  1  0.21831433  0.09723433  0.12595650  1.0
  Ni  Ni154  1  0.21831433  0.43056767  0.12595650  1.0
  Ni  Ni155  1  0.21831433  0.76390100  0.12595650  1.0
  Ni  Ni156  1  0.55164767  0.09723433  0.12595650  1.0
  Ni  Ni157  1  0.55164767  0.43056767  0.12595650  1.0
  Ni  Ni158  1  0.55164767  0.76390100  0.12595650  1.0
  Ni  Ni159  1  0.88498100  0.09723433  0.12595650  1.0
  Ni  Ni160  1  0.88498100  0.43056767  0.12595650  1.0
  Ni  Ni161  1  0.88498100  0.76390100  0.12595650  1.0
  Ni  Ni162  1  0.12203767  0.09723433  0.18372250  1.0
  Ni  Ni163  1  0.12203767  0.43056767  0.18372250  1.0
  Ni  Ni164  1  0.12203767  0.76390100  0.18372250  1.0
  Ni  Ni165  1  0.45537100  0.09723433  0.18372250  1.0
  Ni  Ni166  1  0.45537100  0.43056767  0.18372250  1.0
  Ni  Ni167  1  0.45537100  0.76390100  0.18372250  1.0
  Ni  Ni168  1  0.78870433  0.09723433  0.18372250  1.0
  Ni  Ni169  1  0.78870433  0.43056767  0.18372250  1.0
  Ni  Ni170  1  0.78870433  0.76390100  0.18372250  1.0
  Ni  Ni171  1  0.11501900  0.23609900  0.06283010  1.0
  Ni  Ni172  1  0.11501900  0.56943233  0.06283010  1.0
  Ni  Ni173  1  0.11501900  0.90276567  0.06283010  1.0
  Ni  Ni174  1  0.44835233  0.23609900  0.06283010  1.0
  Ni  Ni175  1  0.44835233  0.56943233  0.06283010  1.0
  Ni  Ni176  1  0.44835233  0.90276567  0.06283010  1.0
  Ni  Ni177  1  0.78168567  0.23609900  0.06283010  1.0
  Ni  Ni178  1  0.78168567  0.56943233  0.06283010  1.0
  Ni  Ni179  1  0.78168567  0.90276567  0.06283010  1.0
  Ni  Ni180  1  0.28168567  0.26390100  0.17951130  1.0
  Ni  Ni181  1  0.28168567  0.59723433  0.17951130  1.0
  Ni  Ni182  1  0.28168567  0.93056767  0.17951130  1.0
  Ni  Ni183  1  0.61501900  0.26390100  0.17951130  1.0
  Ni  Ni184  1  0.61501900  0.59723433  0.17951130  1.0
  Ni  Ni185  1  0.61501900  0.93056767  0.17951130  1.0
  Ni  Ni186  1  0.94835233  0.26390100  0.17951130  1.0
  Ni  Ni187  1  0.94835233  0.59723433  0.17951130  1.0
  Ni  Ni188  1  0.94835233  0.93056767  0.17951130  1.0
  Ni  Ni189  1  0.05164767  0.06943233  0.00927530  1.0
  Ni  Ni190  1  0.05164767  0.40276567  0.00927530  1.0
  Ni  Ni191  1  0.05164767  0.73609900  0.00927530  1.0
  Ni  Ni192  1  0.38498100  0.06943233  0.00927530  1.0
  Ni  Ni193  1  0.38498100  0.40276567  0.00927530  1.0
  Ni  Ni194  1  0.38498100  0.73609900  0.00927530  1.0
  Ni  Ni195  1  0.71831433  0.06943233  0.00927530  1.0
  Ni  Ni196  1  0.71831433  0.40276567  0.00927530  1.0
  Ni  Ni197  1  0.71831433  0.73609900  0.00927530  1.0
  Ni  Ni198  1  0.31203433  0.00261000  0.12526230  1.0
  Ni  Ni199  1  0.31203433  0.33594333  0.12526230  1.0
  Ni  Ni200  1  0.31203433  0.66927667  0.12526230  1.0
  Ni  Ni201  1  0.64536767  0.00261000  0.12526230  1.0
  Ni  Ni202  1  0.64536767  0.33594333  0.12526230  1.0
  Ni  Ni203  1  0.64536767  0.66927667  0.12526230  1.0
  Ni  Ni204  1  0.97870100  0.00261000  0.12526230  1.0
  Ni  Ni205  1  0.97870100  0.33594333  0.12526230  1.0
  Ni  Ni206  1  0.97870100  0.66927667  0.12526230  1.0
  Ni  Ni207  1  0.02129900  0.33072333  0.06352430  1.0
  Ni  Ni208  1  0.02129900  0.66405667  0.06352430  1.0
  Ni  Ni209  1  0.02129900  0.99739000  0.06352430  1.0
  Ni  Ni210  1  0.35463233  0.33072333  0.06352430  1.0
  Ni  Ni211  1  0.35463233  0.66405667  0.06352430  1.0
  Ni  Ni212  1  0.35463233  0.99739000  0.06352430  1.0
  Ni  Ni213  1  0.68796567  0.33072333  0.06352430  1.0
  Ni  Ni214  1  0.68796567  0.66405667  0.06352430  1.0
  Ni  Ni215  1  0.68796567  0.99739000  0.06352430  1.0
  Ni  Ni216  1  0.18796567  0.16927667  0.06665630  1.0
  Ni  Ni217  1  0.18796567  0.50261000  0.06665630  1.0
  Ni  Ni218  1  0.18796567  0.83594333  0.06665630  1.0
  Ni  Ni219  1  0.52129900  0.16927667  0.06665630  1.0
  Ni  Ni220  1  0.52129900  0.50261000  0.06665630  1.0
  Ni  Ni221  1  0.52129900  0.83594333  0.06665630  1.0
  Ni  Ni222  1  0.85463233  0.16927667  0.06665630  1.0
  Ni  Ni223  1  0.85463233  0.50261000  0.06665630  1.0
  Ni  Ni224  1  0.85463233  0.83594333  0.06665630  1.0
  Ni  Ni225  1  0.04883833  0.16405667  0.18004790  1.0
  Ni  Ni226  1  0.04883833  0.49739000  0.18004790  1.0
  Ni  Ni227  1  0.04883833  0.83072333  0.18004790  1.0
  Ni  Ni228  1  0.38217167  0.16405667  0.18004790  1.0
  Ni  Ni229  1  0.38217167  0.49739000  0.18004790  1.0
  Ni  Ni230  1  0.38217167  0.83072333  0.18004790  1.0
  Ni  Ni231  1  0.71550500  0.16405667  0.18004790  1.0
  Ni  Ni232  1  0.71550500  0.49739000  0.18004790  1.0
  Ni  Ni233  1  0.71550500  0.83072333  0.18004790  1.0
  Ni  Ni234  1  0.14536767  0.16405667  0.12213030  1.0
  Ni  Ni235  1  0.14536767  0.49739000  0.12213030  1.0
  Ni  Ni236  1  0.14536767  0.83072333  0.12213030  1.0
  Ni  Ni237  1  0.47870100  0.16405667  0.12213030  1.0
  Ni  Ni238  1  0.47870100  0.49739000  0.12213030  1.0
  Ni  Ni239  1  0.47870100  0.83072333  0.12213030  1.0
  Ni  Ni240  1  0.81203433  0.16405667  0.12213030  1.0
  Ni  Ni241  1  0.81203433  0.49739000  0.12213030  1.0
  Ni  Ni242  1  0.81203433  0.83072333  0.12213030  1.0
  Ni  Ni243  1  0.28449500  0.16927667  0.00873870  1.0
  Ni  Ni244  1  0.28449500  0.50261000  0.00873870  1.0
  Ni  Ni245  1  0.28449500  0.83594333  0.00873870  1.0
  Ni  Ni246  1  0.61782833  0.16927667  0.00873870  1.0
  Ni  Ni247  1  0.61782833  0.50261000  0.00873870  1.0
  Ni  Ni248  1  0.61782833  0.83594333  0.00873870  1.0
  Ni  Ni249  1  0.95116167  0.16927667  0.00873870  1.0
  Ni  Ni250  1  0.95116167  0.50261000  0.00873870  1.0
  Ni  Ni251  1  0.95116167  0.83594333  0.00873870  1.0
  Ni  Ni252  1  0.11782833  0.33072333  0.00560670  1.0
  Ni  Ni253  1  0.11782833  0.66405667  0.00560670  1.0
  Ni  Ni254  1  0.11782833  0.99739000  0.00560670  1.0
  Ni  Ni255  1  0.45116167  0.33072333  0.00560670  1.0
  Ni  Ni256  1  0.45116167  0.66405667  0.00560670  1.0
  Ni  Ni257  1  0.45116167  0.99739000  0.00560670  1.0
  Ni  Ni258  1  0.78449500  0.33072333  0.00560670  1.0
  Ni  Ni259  1  0.78449500  0.66405667  0.00560670  1.0
  Ni  Ni260  1  0.78449500  0.99739000  0.00560670  1.0
  Ni  Ni261  1  0.21550500  0.00261000  0.18317990  1.0
  Ni  Ni262  1  0.21550500  0.33594333  0.18317990  1.0
  Ni  Ni263  1  0.21550500  0.66927667  0.18317990  1.0
  Ni  Ni264  1  0.54883833  0.00261000  0.18317990  1.0
  Ni  Ni265  1  0.54883833  0.33594333  0.18317990  1.0
  Ni  Ni266  1  0.54883833  0.66927667  0.18317990  1.0
  Ni  Ni267  1  0.88217167  0.00261000  0.18317990  1.0
  Ni  Ni268  1  0.88217167  0.33594333  0.18317990  1.0
  Ni  Ni269  1  0.88217167  0.66927667  0.18317990  1.0
  Ni  Ni270  1  0.03570200  0.13163367  0.09479470  1.0
  Ni  Ni271  1  0.03570200  0.46496700  0.09479470  1.0
  Ni  Ni272  1  0.03570200  0.79830033  0.09479470  1.0
  Ni  Ni273  1  0.36903533  0.13163367  0.09479470  1.0
  Ni  Ni274  1  0.36903533  0.46496700  0.09479470  1.0
  Ni  Ni275  1  0.36903533  0.79830033  0.09479470  1.0
  Ni  Ni276  1  0.70236867  0.13163367  0.09479470  1.0
  Ni  Ni277  1  0.70236867  0.46496700  0.09479470  1.0
  Ni  Ni278  1  0.70236867  0.79830033  0.09479470  1.0
  Ni  Ni279  1  0.29763133  0.20169967  0.09399190  1.0
  Ni  Ni280  1  0.29763133  0.53503300  0.09399190  1.0
  Ni  Ni281  1  0.29763133  0.86836633  0.09399190  1.0
  Ni  Ni282  1  0.63096467  0.20169967  0.09399190  1.0
  Ni  Ni283  1  0.63096467  0.53503300  0.09399190  1.0
  Ni  Ni284  1  0.63096467  0.86836633  0.09399190  1.0
  Ni  Ni285  1  0.96429800  0.20169967  0.09399190  1.0
  Ni  Ni286  1  0.96429800  0.53503300  0.09399190  1.0
  Ni  Ni287  1  0.96429800  0.86836633  0.09399190  1.0
  Ni  Ni288  1  0.13096467  0.29830033  0.05195230  1.0
  Ni  Ni289  1  0.13096467  0.63163367  0.05195230  1.0
  Ni  Ni290  1  0.13096467  0.96496700  0.05195230  1.0
  Ni  Ni291  1  0.46429800  0.29830033  0.05195230  1.0
  Ni  Ni292  1  0.46429800  0.63163367  0.05195230  1.0
  Ni  Ni293  1  0.46429800  0.96496700  0.05195230  1.0
  Ni  Ni294  1  0.79763133  0.29830033  0.05195230  1.0
  Ni  Ni295  1  0.79763133  0.63163367  0.05195230  1.0
  Ni  Ni296  1  0.79763133  0.96496700  0.05195230  1.0
  Ni  Ni297  1  0.20236867  0.03503300  0.13683430  1.0
  Ni  Ni298  1  0.20236867  0.36836633  0.13683430  1.0
  Ni  Ni299  1  0.20236867  0.70169967  0.13683430  1.0
  Ni  Ni300  1  0.53570200  0.03503300  0.13683430  1.0
  Ni  Ni301  1  0.53570200  0.36836633  0.13683430  1.0
  Ni  Ni302  1  0.53570200  0.70169967  0.13683430  1.0
  Ni  Ni303  1  0.86903533  0.03503300  0.13683430  1.0
  Ni  Ni304  1  0.86903533  0.36836633  0.13683430  1.0
  Ni  Ni305  1  0.86903533  0.70169967  0.13683430  1.0
  Hf  Hf306  1  0.23123933  0.00000000  0.25564970  1.0
  Hf  Hf307  1  0.23123933  0.33333333  0.25564970  1.0
  Hf  Hf308  1  0.23123933  0.66666667  0.25564970  1.0
  Hf  Hf309  1  0.56457267  0.00000000  0.25564970  1.0
  Hf  Hf310  1  0.56457267  0.33333333  0.25564970  1.0
  Hf  Hf311  1  0.56457267  0.66666667  0.25564970  1.0
  Hf  Hf312  1  0.89790600  0.00000000  0.25564970  1.0
  Hf  Hf313  1  0.89790600  0.33333333  0.25564970  1.0
  Hf  Hf314  1  0.89790600  0.66666667  0.25564970  1.0
  Hf  Hf315  1  0.10209400  0.00000000  0.33313690  1.0
  Hf  Hf316  1  0.10209400  0.33333333  0.33313690  1.0
  Hf  Hf317  1  0.10209400  0.66666667  0.33313690  1.0
  Hf  Hf318  1  0.43542733  0.00000000  0.33313690  1.0
  Hf  Hf319  1  0.43542733  0.33333333  0.33313690  1.0
  Hf  Hf320  1  0.43542733  0.66666667  0.33313690  1.0
  Hf  Hf321  1  0.76876067  0.00000000  0.33313690  1.0
  Hf  Hf322  1  0.76876067  0.33333333  0.33313690  1.0
  Hf  Hf323  1  0.76876067  0.66666667  0.33313690  1.0
  Hf  Hf324  1  0.26876067  0.16666667  0.33313690  1.0
  Hf  Hf325  1  0.26876067  0.50000000  0.33313690  1.0
  Hf  Hf326  1  0.26876067  0.83333333  0.33313690  1.0
  Hf  Hf327  1  0.60209400  0.16666667  0.33313690  1.0
  Hf  Hf328  1  0.60209400  0.50000000  0.33313690  1.0
  Hf  Hf329  1  0.60209400  0.83333333  0.33313690  1.0
  Hf  Hf330  1  0.93542733  0.16666667  0.33313690  1.0
  Hf  Hf331  1  0.93542733  0.50000000  0.33313690  1.0
  Hf  Hf332  1  0.93542733  0.83333333  0.33313690  1.0
  Hf  Hf333  1  0.06457267  0.16666667  0.25564970  1.0
  Hf  Hf334  1  0.06457267  0.50000000  0.25564970  1.0
  Hf  Hf335  1  0.06457267  0.83333333  0.25564970  1.0
  Hf  Hf336  1  0.39790600  0.16666667  0.25564970  1.0
  Hf  Hf337  1  0.39790600  0.50000000  0.25564970  1.0
  Hf  Hf338  1  0.39790600  0.83333333  0.25564970  1.0
  Hf  Hf339  1  0.73123933  0.16666667  0.25564970  1.0
  Hf  Hf340  1  0.73123933  0.50000000  0.25564970  1.0
  Hf  Hf341  1  0.73123933  0.83333333  0.25564970  1.0
  Hf  Hf342  1  0.00000000  0.00000000  0.39439330  1.0
  Hf  Hf343  1  0.00000000  0.33333333  0.39439330  1.0
  Hf  Hf344  1  0.00000000  0.66666667  0.39439330  1.0
  Hf  Hf345  1  0.33333333  0.00000000  0.39439330  1.0
  Hf  Hf346  1  0.33333333  0.33333333  0.39439330  1.0
  Hf  Hf347  1  0.33333333  0.66666667  0.39439330  1.0
  Hf  Hf348  1  0.66666667  0.00000000  0.39439330  1.0
  Hf  Hf349  1  0.66666667  0.33333333  0.39439330  1.0
  Hf  Hf350  1  0.66666667  0.66666667  0.39439330  1.0
  Hf  Hf351  1  0.16666667  0.16666667  0.39439330  1.0
  Hf  Hf352  1  0.16666667  0.50000000  0.39439330  1.0
  Hf  Hf353  1  0.16666667  0.83333333  0.39439330  1.0
  Hf  Hf354  1  0.50000000  0.16666667  0.39439330  1.0
  Hf  Hf355  1  0.50000000  0.50000000  0.39439330  1.0
  Hf  Hf356  1  0.50000000  0.83333333  0.39439330  1.0
  Hf  Hf357  1  0.83333333  0.16666667  0.39439330  1.0
  Hf  Hf358  1  0.83333333  0.50000000  0.39439330  1.0
  Hf  Hf359  1  0.83333333  0.83333333  0.39439330  1.0
  Hf  Hf360  1  0.00168800  0.08333333  0.34540610  1.0
  Hf  Hf361  1  0.00168800  0.41666667  0.34540610  1.0
  Hf  Hf362  1  0.00168800  0.75000000  0.34540610  1.0
  Hf  Hf363  1  0.33502133  0.08333333  0.34540610  1.0
  Hf  Hf364  1  0.33502133  0.41666667  0.34540610  1.0
  Hf  Hf365  1  0.33502133  0.75000000  0.34540610  1.0
  Hf  Hf366  1  0.66835467  0.08333333  0.34540610  1.0
  Hf  Hf367  1  0.66835467  0.41666667  0.34540610  1.0
  Hf  Hf368  1  0.66835467  0.75000000  0.34540610  1.0
  Hf  Hf369  1  0.33164533  0.25000000  0.24338050  1.0
  Hf  Hf370  1  0.33164533  0.58333333  0.24338050  1.0
  Hf  Hf371  1  0.33164533  0.91666667  0.24338050  1.0
  Hf  Hf372  1  0.66497867  0.25000000  0.24338050  1.0
  Hf  Hf373  1  0.66497867  0.58333333  0.24338050  1.0
  Hf  Hf374  1  0.66497867  0.91666667  0.24338050  1.0
  Hf  Hf375  1  0.99831200  0.25000000  0.24338050  1.0
  Hf  Hf376  1  0.99831200  0.58333333  0.24338050  1.0
  Hf  Hf377  1  0.99831200  0.91666667  0.24338050  1.0
  Hf  Hf378  1  0.16497867  0.25000000  0.34338050  1.0
  Hf  Hf379  1  0.16497867  0.58333333  0.34338050  1.0
  Hf  Hf380  1  0.16497867  0.91666667  0.34338050  1.0
  Hf  Hf381  1  0.49831200  0.25000000  0.34338050  1.0
  Hf  Hf382  1  0.49831200  0.58333333  0.34338050  1.0
  Hf  Hf383  1  0.49831200  0.91666667  0.34338050  1.0
  Hf  Hf384  1  0.83164533  0.25000000  0.34338050  1.0
  Hf  Hf385  1  0.83164533  0.58333333  0.34338050  1.0
  Hf  Hf386  1  0.83164533  0.91666667  0.34338050  1.0
  Hf  Hf387  1  0.16835467  0.08333333  0.24540610  1.0
  Hf  Hf388  1  0.16835467  0.41666667  0.24540610  1.0
  Hf  Hf389  1  0.16835467  0.75000000  0.24540610  1.0
  Hf  Hf390  1  0.50168800  0.08333333  0.24540610  1.0
  Hf  Hf391  1  0.50168800  0.41666667  0.24540610  1.0
  Hf  Hf392  1  0.50168800  0.75000000  0.24540610  1.0
  Hf  Hf393  1  0.83502133  0.08333333  0.24540610  1.0
  Hf  Hf394  1  0.83502133  0.41666667  0.24540610  1.0
  Hf  Hf395  1  0.83502133  0.75000000  0.24540610  1.0
  Hf  Hf396  1  0.10438500  0.06251900  0.29453570  1.0
  Hf  Hf397  1  0.10438500  0.39585233  0.29453570  1.0
  Hf  Hf398  1  0.10438500  0.72918567  0.29453570  1.0
  Hf  Hf399  1  0.43771833  0.06251900  0.29453570  1.0
  Hf  Hf400  1  0.43771833  0.39585233  0.29453570  1.0
  Hf  Hf401  1  0.43771833  0.72918567  0.29453570  1.0
  Hf  Hf402  1  0.77105167  0.06251900  0.29453570  1.0
  Hf  Hf403  1  0.77105167  0.39585233  0.29453570  1.0
  Hf  Hf404  1  0.77105167  0.72918567  0.29453570  1.0
  Hf  Hf405  1  0.22894833  0.27081433  0.29425090  1.0
  Hf  Hf406  1  0.22894833  0.60414767  0.29425090  1.0
  Hf  Hf407  1  0.22894833  0.93748100  0.29425090  1.0
  Hf  Hf408  1  0.56228167  0.27081433  0.29425090  1.0
  Hf  Hf409  1  0.56228167  0.60414767  0.29425090  1.0
  Hf  Hf410  1  0.56228167  0.93748100  0.29425090  1.0
  Hf  Hf411  1  0.89561500  0.27081433  0.29425090  1.0
  Hf  Hf412  1  0.89561500  0.60414767  0.29425090  1.0
  Hf  Hf413  1  0.89561500  0.93748100  0.29425090  1.0
  Hf  Hf414  1  0.06228167  0.22918567  0.36927370  1.0
  Hf  Hf415  1  0.06228167  0.56251900  0.36927370  1.0
  Hf  Hf416  1  0.06228167  0.89585233  0.36927370  1.0
  Hf  Hf417  1  0.39561500  0.22918567  0.36927370  1.0
  Hf  Hf418  1  0.39561500  0.56251900  0.36927370  1.0
  Hf  Hf419  1  0.39561500  0.89585233  0.36927370  1.0
  Hf  Hf420  1  0.72894833  0.22918567  0.36927370  1.0
  Hf  Hf421  1  0.72894833  0.56251900  0.36927370  1.0
  Hf  Hf422  1  0.72894833  0.89585233  0.36927370  1.0
  Hf  Hf423  1  0.27105167  0.10414767  0.21951290  1.0
  Hf  Hf424  1  0.27105167  0.43748100  0.21951290  1.0
  Hf  Hf425  1  0.27105167  0.77081433  0.21951290  1.0
  Hf  Hf426  1  0.60438500  0.10414767  0.21951290  1.0
  Hf  Hf427  1  0.60438500  0.43748100  0.21951290  1.0
  Hf  Hf428  1  0.60438500  0.77081433  0.21951290  1.0
  Hf  Hf429  1  0.93771833  0.10414767  0.21951290  1.0
  Hf  Hf430  1  0.93771833  0.43748100  0.21951290  1.0
  Hf  Hf431  1  0.93771833  0.77081433  0.21951290  1.0
  Ni  Ni432  1  0.28870433  0.06943233  0.26704130  1.0
  Ni  Ni433  1  0.28870433  0.40276567  0.26704130  1.0
  Ni  Ni434  1  0.28870433  0.73609900  0.26704130  1.0
  Ni  Ni435  1  0.62203767  0.06943233  0.26704130  1.0
  Ni  Ni436  1  0.62203767  0.40276567  0.26704130  1.0
  Ni  Ni437  1  0.62203767  0.73609900  0.26704130  1.0
  Ni  Ni438  1  0.95537100  0.06943233  0.26704130  1.0
  Ni  Ni439  1  0.95537100  0.40276567  0.26704130  1.0
  Ni  Ni440  1  0.95537100  0.73609900  0.26704130  1.0
  Ni  Ni441  1  0.04462900  0.26390100  0.32174530  1.0
  Ni  Ni442  1  0.04462900  0.59723433  0.32174530  1.0
  Ni  Ni443  1  0.04462900  0.93056767  0.32174530  1.0
  Ni  Ni444  1  0.37796233  0.26390100  0.32174530  1.0
  Ni  Ni445  1  0.37796233  0.59723433  0.32174530  1.0
  Ni  Ni446  1  0.37796233  0.93056767  0.32174530  1.0
  Ni  Ni447  1  0.71129567  0.26390100  0.32174530  1.0
  Ni  Ni448  1  0.71129567  0.59723433  0.32174530  1.0
  Ni  Ni449  1  0.71129567  0.93056767  0.32174530  1.0
  Ni  Ni450  1  0.21129567  0.23609900  0.20506410  1.0
  Ni  Ni451  1  0.21129567  0.56943233  0.20506410  1.0
  Ni  Ni452  1  0.21129567  0.90276567  0.20506410  1.0
  Ni  Ni453  1  0.54462900  0.23609900  0.20506410  1.0
  Ni  Ni454  1  0.54462900  0.56943233  0.20506410  1.0
  Ni  Ni455  1  0.54462900  0.90276567  0.20506410  1.0
  Ni  Ni456  1  0.87796233  0.23609900  0.20506410  1.0
  Ni  Ni457  1  0.87796233  0.56943233  0.20506410  1.0
  Ni  Ni458  1  0.87796233  0.90276567  0.20506410  1.0
  Ni  Ni459  1  0.21831433  0.09723433  0.32595650  1.0
  Ni  Ni460  1  0.21831433  0.43056767  0.32595650  1.0
  Ni  Ni461  1  0.21831433  0.76390100  0.32595650  1.0
  Ni  Ni462  1  0.55164767  0.09723433  0.32595650  1.0
  Ni  Ni463  1  0.55164767  0.43056767  0.32595650  1.0
  Ni  Ni464  1  0.55164767  0.76390100  0.32595650  1.0
  Ni  Ni465  1  0.88498100  0.09723433  0.32595650  1.0
  Ni  Ni466  1  0.88498100  0.43056767  0.32595650  1.0
  Ni  Ni467  1  0.88498100  0.76390100  0.32595650  1.0
  Ni  Ni468  1  0.12203767  0.09723433  0.38372250  1.0
  Ni  Ni469  1  0.12203767  0.43056767  0.38372250  1.0
  Ni  Ni470  1  0.12203767  0.76390100  0.38372250  1.0
  Ni  Ni471  1  0.45537100  0.09723433  0.38372250  1.0
  Ni  Ni472  1  0.45537100  0.43056767  0.38372250  1.0
  Ni  Ni473  1  0.45537100  0.76390100  0.38372250  1.0
  Ni  Ni474  1  0.78870433  0.09723433  0.38372250  1.0
  Ni  Ni475  1  0.78870433  0.43056767  0.38372250  1.0
  Ni  Ni476  1  0.78870433  0.76390100  0.38372250  1.0
  Ni  Ni477  1  0.11501900  0.23609900  0.26283010  1.0
  Ni  Ni478  1  0.11501900  0.56943233  0.26283010  1.0
  Ni  Ni479  1  0.11501900  0.90276567  0.26283010  1.0
  Ni  Ni480  1  0.44835233  0.23609900  0.26283010  1.0
  Ni  Ni481  1  0.44835233  0.56943233  0.26283010  1.0
  Ni  Ni482  1  0.44835233  0.90276567  0.26283010  1.0
  Ni  Ni483  1  0.78168567  0.23609900  0.26283010  1.0
  Ni  Ni484  1  0.78168567  0.56943233  0.26283010  1.0
  Ni  Ni485  1  0.78168567  0.90276567  0.26283010  1.0
  Ni  Ni486  1  0.28168567  0.26390100  0.37951130  1.0
  Ni  Ni487  1  0.28168567  0.59723433  0.37951130  1.0
  Ni  Ni488  1  0.28168567  0.93056767  0.37951130  1.0
  Ni  Ni489  1  0.61501900  0.26390100  0.37951130  1.0
  Ni  Ni490  1  0.61501900  0.59723433  0.37951130  1.0
  Ni  Ni491  1  0.61501900  0.93056767  0.37951130  1.0
  Ni  Ni492  1  0.94835233  0.26390100  0.37951130  1.0
  Ni  Ni493  1  0.94835233  0.59723433  0.37951130  1.0
  Ni  Ni494  1  0.94835233  0.93056767  0.37951130  1.0
  Ni  Ni495  1  0.05164767  0.06943233  0.20927530  1.0
  Ni  Ni496  1  0.05164767  0.40276567  0.20927530  1.0
  Ni  Ni497  1  0.05164767  0.73609900  0.20927530  1.0
  Ni  Ni498  1  0.38498100  0.06943233  0.20927530  1.0
  Ni  Ni499  1  0.38498100  0.40276567  0.20927530  1.0
  Ni  Ni500  1  0.38498100  0.73609900  0.20927530  1.0
  Ni  Ni501  1  0.71831433  0.06943233  0.20927530  1.0
  Ni  Ni502  1  0.71831433  0.40276567  0.20927530  1.0
  Ni  Ni503  1  0.71831433  0.73609900  0.20927530  1.0
  Ni  Ni504  1  0.31203433  0.00261000  0.32526230  1.0
  Ni  Ni505  1  0.31203433  0.33594333  0.32526230  1.0
  Ni  Ni506  1  0.31203433  0.66927667  0.32526230  1.0
  Ni  Ni507  1  0.64536767  0.00261000  0.32526230  1.0
  Ni  Ni508  1  0.64536767  0.33594333  0.32526230  1.0
  Ni  Ni509  1  0.64536767  0.66927667  0.32526230  1.0
  Ni  Ni510  1  0.97870100  0.00261000  0.32526230  1.0
  Ni  Ni511  1  0.97870100  0.33594333  0.32526230  1.0
  Ni  Ni512  1  0.97870100  0.66927667  0.32526230  1.0
  Ni  Ni513  1  0.02129900  0.33072333  0.26352430  1.0
  Ni  Ni514  1  0.02129900  0.66405667  0.26352430  1.0
  Ni  Ni515  1  0.02129900  0.99739000  0.26352430  1.0
  Ni  Ni516  1  0.35463233  0.33072333  0.26352430  1.0
  Ni  Ni517  1  0.35463233  0.66405667  0.26352430  1.0
  Ni  Ni518  1  0.35463233  0.99739000  0.26352430  1.0
  Ni  Ni519  1  0.68796567  0.33072333  0.26352430  1.0
  Ni  Ni520  1  0.68796567  0.66405667  0.26352430  1.0
  Ni  Ni521  1  0.68796567  0.99739000  0.26352430  1.0
  Ni  Ni522  1  0.18796567  0.16927667  0.26665630  1.0
  Ni  Ni523  1  0.18796567  0.50261000  0.26665630  1.0
  Ni  Ni524  1  0.18796567  0.83594333  0.26665630  1.0
  Ni  Ni525  1  0.52129900  0.16927667  0.26665630  1.0
  Ni  Ni526  1  0.52129900  0.50261000  0.26665630  1.0
  Ni  Ni527  1  0.52129900  0.83594333  0.26665630  1.0
  Ni  Ni528  1  0.85463233  0.16927667  0.26665630  1.0
  Ni  Ni529  1  0.85463233  0.50261000  0.26665630  1.0
  Ni  Ni530  1  0.85463233  0.83594333  0.26665630  1.0
  Ni  Ni531  1  0.04883833  0.16405667  0.38004790  1.0
  Ni  Ni532  1  0.04883833  0.49739000  0.38004790  1.0
  Ni  Ni533  1  0.04883833  0.83072333  0.38004790  1.0
  Ni  Ni534  1  0.38217167  0.16405667  0.38004790  1.0
  Ni  Ni535  1  0.38217167  0.49739000  0.38004790  1.0
  Ni  Ni536  1  0.38217167  0.83072333  0.38004790  1.0
  Ni  Ni537  1  0.71550500  0.16405667  0.38004790  1.0
  Ni  Ni538  1  0.71550500  0.49739000  0.38004790  1.0
  Ni  Ni539  1  0.71550500  0.83072333  0.38004790  1.0
  Ni  Ni540  1  0.14536767  0.16405667  0.32213030  1.0
  Ni  Ni541  1  0.14536767  0.49739000  0.32213030  1.0
  Ni  Ni542  1  0.14536767  0.83072333  0.32213030  1.0
  Ni  Ni543  1  0.47870100  0.16405667  0.32213030  1.0
  Ni  Ni544  1  0.47870100  0.49739000  0.32213030  1.0
  Ni  Ni545  1  0.47870100  0.83072333  0.32213030  1.0
  Ni  Ni546  1  0.81203433  0.16405667  0.32213030  1.0
  Ni  Ni547  1  0.81203433  0.49739000  0.32213030  1.0
  Ni  Ni548  1  0.81203433  0.83072333  0.32213030  1.0
  Ni  Ni549  1  0.28449500  0.16927667  0.20873870  1.0
  Ni  Ni550  1  0.28449500  0.50261000  0.20873870  1.0
  Ni  Ni551  1  0.28449500  0.83594333  0.20873870  1.0
  Ni  Ni552  1  0.61782833  0.16927667  0.20873870  1.0
  Ni  Ni553  1  0.61782833  0.50261000  0.20873870  1.0
  Ni  Ni554  1  0.61782833  0.83594333  0.20873870  1.0
  Ni  Ni555  1  0.95116167  0.16927667  0.20873870  1.0
  Ni  Ni556  1  0.95116167  0.50261000  0.20873870  1.0
  Ni  Ni557  1  0.95116167  0.83594333  0.20873870  1.0
  Ni  Ni558  1  0.11782833  0.33072333  0.20560670  1.0
  Ni  Ni559  1  0.11782833  0.66405667  0.20560670  1.0
  Ni  Ni560  1  0.11782833  0.99739000  0.20560670  1.0
  Ni  Ni561  1  0.45116167  0.33072333  0.20560670  1.0
  Ni  Ni562  1  0.45116167  0.66405667  0.20560670  1.0
  Ni  Ni563  1  0.45116167  0.99739000  0.20560670  1.0
  Ni  Ni564  1  0.78449500  0.33072333  0.20560670  1.0
  Ni  Ni565  1  0.78449500  0.66405667  0.20560670  1.0
  Ni  Ni566  1  0.78449500  0.99739000  0.20560670  1.0
  Ni  Ni567  1  0.21550500  0.00261000  0.38317990  1.0
  Ni  Ni568  1  0.21550500  0.33594333  0.38317990  1.0
  Ni  Ni569  1  0.21550500  0.66927667  0.38317990  1.0
  Ni  Ni570  1  0.54883833  0.00261000  0.38317990  1.0
  Ni  Ni571  1  0.54883833  0.33594333  0.38317990  1.0
  Ni  Ni572  1  0.54883833  0.66927667  0.38317990  1.0
  Ni  Ni573  1  0.88217167  0.00261000  0.38317990  1.0
  Ni  Ni574  1  0.88217167  0.33594333  0.38317990  1.0
  Ni  Ni575  1  0.88217167  0.66927667  0.38317990  1.0
  Ni  Ni576  1  0.03570200  0.13163367  0.29479470  1.0
  Ni  Ni577  1  0.03570200  0.46496700  0.29479470  1.0
  Ni  Ni578  1  0.03570200  0.79830033  0.29479470  1.0
  Ni  Ni579  1  0.36903533  0.13163367  0.29479470  1.0
  Ni  Ni580  1  0.36903533  0.46496700  0.29479470  1.0
  Ni  Ni581  1  0.36903533  0.79830033  0.29479470  1.0
  Ni  Ni582  1  0.70236867  0.13163367  0.29479470  1.0
  Ni  Ni583  1  0.70236867  0.46496700  0.29479470  1.0
  Ni  Ni584  1  0.70236867  0.79830033  0.29479470  1.0
  Ni  Ni585  1  0.29763133  0.20169967  0.29399190  1.0
  Ni  Ni586  1  0.29763133  0.53503300  0.29399190  1.0
  Ni  Ni587  1  0.29763133  0.86836633  0.29399190  1.0
  Ni  Ni588  1  0.63096467  0.20169967  0.29399190  1.0
  Ni  Ni589  1  0.63096467  0.53503300  0.29399190  1.0
  Ni  Ni590  1  0.63096467  0.86836633  0.29399190  1.0
  Ni  Ni591  1  0.96429800  0.20169967  0.29399190  1.0
  Ni  Ni592  1  0.96429800  0.53503300  0.29399190  1.0
  Ni  Ni593  1  0.96429800  0.86836633  0.29399190  1.0
  Ni  Ni594  1  0.13096467  0.29830033  0.25195230  1.0
  Ni  Ni595  1  0.13096467  0.63163367  0.25195230  1.0
  Ni  Ni596  1  0.13096467  0.96496700  0.25195230  1.0
  Ni  Ni597  1  0.46429800  0.29830033  0.25195230  1.0
  Ni  Ni598  1  0.46429800  0.63163367  0.25195230  1.0
  Ni  Ni599  1  0.46429800  0.96496700  0.25195230  1.0
  Ni  Ni600  1  0.79763133  0.29830033  0.25195230  1.0
  Ni  Ni601  1  0.79763133  0.63163367  0.25195230  1.0
  Ni  Ni602  1  0.79763133  0.96496700  0.25195230  1.0
  Ni  Ni603  1  0.20236867  0.03503300  0.33683430  1.0
  Ni  Ni604  1  0.20236867  0.36836633  0.33683430  1.0
  Ni  Ni605  1  0.20236867  0.70169967  0.33683430  1.0
  Ni  Ni606  1  0.53570200  0.03503300  0.33683430  1.0
  Ni  Ni607  1  0.53570200  0.36836633  0.33683430  1.0
  Ni  Ni608  1  0.53570200  0.70169967  0.33683430  1.0
  Ni  Ni609  1  0.86903533  0.03503300  0.33683430  1.0
  Ni  Ni610  1  0.86903533  0.36836633  0.33683430  1.0
  Ni  Ni611  1  0.86903533  0.70169967  0.33683430  1.0
