# generated using pymatgen
data_Hf8Ni21
_symmetry_space_group_name_H-M   'P 1'
_cell_length_a   23.95649223
_cell_length_b   25.58449173
_cell_length_c   32.04894500
_cell_angle_alpha   68.12599949
_cell_angle_beta   75.46243674
_cell_angle_gamma   75.13001413
_symmetry_Int_Tables_number   1
_chemical_formula_structural   Hf8Ni21
_chemical_formula_sum   'Hf144 Ni378'
_cell_volume   17352.11007415
_cell_formula_units_Z   18
loop_
 _symmetry_equiv_pos_site_id
 _symmetry_equiv_pos_as_xyz
  1  'x, y, z'
loop_
 _atom_site_type_symbol
 _atom_site_label
 _atom_site_symmetry_multiplicity
 _atom_site_fract_x
 _atom_site_fract_y
 _atom_site_fract_z
 _atom_site_occupancy
  Hf  Hf0  1  0.02100633  0.15526267  0.14362890  1.0
  Hf  Hf1  1  0.02100633  0.48859600  0.14362890  1.0
  Hf  Hf2  1  0.02100633  0.82192933  0.14362890  1.0
  Hf  Hf3  1  0.35433967  0.15526267  0.14362890  1.0
  Hf  Hf4  1  0.35433967  0.48859600  0.14362890  1.0
  Hf  Hf5  1  0.35433967  0.82192933  0.14362890  1.0
  Hf  Hf6  1  0.68767300  0.15526267  0.14362890  1.0
  Hf  Hf7  1  0.68767300  0.48859600  0.14362890  1.0
  Hf  Hf8  1  0.68767300  0.82192933  0.14362890  1.0
  Hf  Hf9  1  0.31232700  0.17807067  0.04241530  1.0
  Hf  Hf10  1  0.31232700  0.51140400  0.04241530  1.0
  Hf  Hf11  1  0.31232700  0.84473733  0.04241530  1.0
  Hf  Hf12  1  0.64566033  0.17807067  0.04241530  1.0
  Hf  Hf13  1  0.64566033  0.51140400  0.04241530  1.0
  Hf  Hf14  1  0.64566033  0.84473733  0.04241530  1.0
  Hf  Hf15  1  0.97899367  0.17807067  0.04241530  1.0
  Hf  Hf16  1  0.97899367  0.51140400  0.04241530  1.0
  Hf  Hf17  1  0.97899367  0.84473733  0.04241530  1.0
  Hf  Hf18  1  0.17887633  0.24843633  0.10678450  1.0
  Hf  Hf19  1  0.17887633  0.58176967  0.10678450  1.0
  Hf  Hf20  1  0.17887633  0.91510300  0.10678450  1.0
  Hf  Hf21  1  0.51220967  0.24843633  0.10678450  1.0
  Hf  Hf22  1  0.51220967  0.58176967  0.10678450  1.0
  Hf  Hf23  1  0.51220967  0.91510300  0.10678450  1.0
  Hf  Hf24  1  0.84554300  0.24843633  0.10678450  1.0
  Hf  Hf25  1  0.84554300  0.58176967  0.10678450  1.0
  Hf  Hf26  1  0.84554300  0.91510300  0.10678450  1.0
  Hf  Hf27  1  0.15445700  0.08489700  0.07925970  1.0
  Hf  Hf28  1  0.15445700  0.41823033  0.07925970  1.0
  Hf  Hf29  1  0.15445700  0.75156367  0.07925970  1.0
  Hf  Hf30  1  0.48779033  0.08489700  0.07925970  1.0
  Hf  Hf31  1  0.48779033  0.41823033  0.07925970  1.0
  Hf  Hf32  1  0.48779033  0.75156367  0.07925970  1.0
  Hf  Hf33  1  0.82112367  0.08489700  0.07925970  1.0
  Hf  Hf34  1  0.82112367  0.41823033  0.07925970  1.0
  Hf  Hf35  1  0.82112367  0.75156367  0.07925970  1.0
  Hf  Hf36  1  0.19889433  0.06184167  0.17906630  1.0
  Hf  Hf37  1  0.19889433  0.39517500  0.17906630  1.0
  Hf  Hf38  1  0.19889433  0.72850833  0.17906630  1.0
  Hf  Hf39  1  0.53222767  0.06184167  0.17906630  1.0
  Hf  Hf40  1  0.53222767  0.39517500  0.17906630  1.0
  Hf  Hf41  1  0.53222767  0.72850833  0.17906630  1.0
  Hf  Hf42  1  0.86556100  0.06184167  0.17906630  1.0
  Hf  Hf43  1  0.86556100  0.39517500  0.17906630  1.0
  Hf  Hf44  1  0.86556100  0.72850833  0.17906630  1.0
  Hf  Hf45  1  0.13443900  0.27149167  0.00697790  1.0
  Hf  Hf46  1  0.13443900  0.60482500  0.00697790  1.0
  Hf  Hf47  1  0.13443900  0.93815833  0.00697790  1.0
  Hf  Hf48  1  0.46777233  0.27149167  0.00697790  1.0
  Hf  Hf49  1  0.46777233  0.60482500  0.00697790  1.0
  Hf  Hf50  1  0.46777233  0.93815833  0.00697790  1.0
  Hf  Hf51  1  0.80110567  0.27149167  0.00697790  1.0
  Hf  Hf52  1  0.80110567  0.60482500  0.00697790  1.0
  Hf  Hf53  1  0.80110567  0.93815833  0.00697790  1.0
  Hf  Hf54  1  0.31258967  0.29757433  0.14346050  1.0
  Hf  Hf55  1  0.31258967  0.63090767  0.14346050  1.0
  Hf  Hf56  1  0.31258967  0.96424100  0.14346050  1.0
  Hf  Hf57  1  0.64592300  0.29757433  0.14346050  1.0
  Hf  Hf58  1  0.64592300  0.63090767  0.14346050  1.0
  Hf  Hf59  1  0.64592300  0.96424100  0.14346050  1.0
  Hf  Hf60  1  0.97925633  0.29757433  0.14346050  1.0
  Hf  Hf61  1  0.97925633  0.63090767  0.14346050  1.0
  Hf  Hf62  1  0.97925633  0.96424100  0.14346050  1.0
  Hf  Hf63  1  0.02074367  0.03575900  0.04258370  1.0
  Hf  Hf64  1  0.02074367  0.36909233  0.04258370  1.0
  Hf  Hf65  1  0.02074367  0.70242567  0.04258370  1.0
  Hf  Hf66  1  0.35407700  0.03575900  0.04258370  1.0
  Hf  Hf67  1  0.35407700  0.36909233  0.04258370  1.0
  Hf  Hf68  1  0.35407700  0.70242567  0.04258370  1.0
  Hf  Hf69  1  0.68741033  0.03575900  0.04258370  1.0
  Hf  Hf70  1  0.68741033  0.36909233  0.04258370  1.0
  Hf  Hf71  1  0.68741033  0.70242567  0.04258370  1.0
  Ni  Ni72  1  0.16666667  0.16666667  0.19302210  1.0
  Ni  Ni73  1  0.16666667  0.50000000  0.19302210  1.0
  Ni  Ni74  1  0.16666667  0.83333333  0.19302210  1.0
  Ni  Ni75  1  0.50000000  0.16666667  0.19302210  1.0
  Ni  Ni76  1  0.50000000  0.50000000  0.19302210  1.0
  Ni  Ni77  1  0.50000000  0.83333333  0.19302210  1.0
  Ni  Ni78  1  0.83333333  0.16666667  0.19302210  1.0
  Ni  Ni79  1  0.83333333  0.50000000  0.19302210  1.0
  Ni  Ni80  1  0.83333333  0.83333333  0.19302210  1.0
  Ni  Ni81  1  0.03915933  0.08598600  0.09588450  1.0
  Ni  Ni82  1  0.03915933  0.41931933  0.09588450  1.0
  Ni  Ni83  1  0.03915933  0.75265267  0.09588450  1.0
  Ni  Ni84  1  0.37249267  0.08598600  0.09588450  1.0
  Ni  Ni85  1  0.37249267  0.41931933  0.09588450  1.0
  Ni  Ni86  1  0.37249267  0.75265267  0.09588450  1.0
  Ni  Ni87  1  0.70582600  0.08598600  0.09588450  1.0
  Ni  Ni88  1  0.70582600  0.41931933  0.09588450  1.0
  Ni  Ni89  1  0.70582600  0.75265267  0.09588450  1.0
  Ni  Ni90  1  0.29417400  0.24734733  0.09015970  1.0
  Ni  Ni91  1  0.29417400  0.58068067  0.09015970  1.0
  Ni  Ni92  1  0.29417400  0.91401400  0.09015970  1.0
  Ni  Ni93  1  0.62750733  0.24734733  0.09015970  1.0
  Ni  Ni94  1  0.62750733  0.58068067  0.09015970  1.0
  Ni  Ni95  1  0.62750733  0.91401400  0.09015970  1.0
  Ni  Ni96  1  0.96084067  0.24734733  0.09015970  1.0
  Ni  Ni97  1  0.96084067  0.58068067  0.09015970  1.0
  Ni  Ni98  1  0.96084067  0.91401400  0.09015970  1.0
  Ni  Ni99  1  0.07240200  0.21822533  0.17319970  1.0
  Ni  Ni100  1  0.07240200  0.55155867  0.17319970  1.0
  Ni  Ni101  1  0.07240200  0.88489200  0.17319970  1.0
  Ni  Ni102  1  0.40573533  0.21822533  0.17319970  1.0
  Ni  Ni103  1  0.40573533  0.55155867  0.17319970  1.0
  Ni  Ni104  1  0.40573533  0.88489200  0.17319970  1.0
  Ni  Ni105  1  0.73906867  0.21822533  0.17319970  1.0
  Ni  Ni106  1  0.73906867  0.55155867  0.17319970  1.0
  Ni  Ni107  1  0.73906867  0.88489200  0.17319970  1.0
  Ni  Ni108  1  0.26093133  0.11510800  0.01284450  1.0
  Ni  Ni109  1  0.26093133  0.44844133  0.01284450  1.0
  Ni  Ni110  1  0.26093133  0.78177467  0.01284450  1.0
  Ni  Ni111  1  0.59426467  0.11510800  0.01284450  1.0
  Ni  Ni112  1  0.59426467  0.44844133  0.01284450  1.0
  Ni  Ni113  1  0.59426467  0.78177467  0.01284450  1.0
  Ni  Ni114  1  0.92759800  0.11510800  0.01284450  1.0
  Ni  Ni115  1  0.92759800  0.44844133  0.01284450  1.0
  Ni  Ni116  1  0.92759800  0.78177467  0.01284450  1.0
  Ni  Ni117  1  0.08486133  0.31950600  0.13225890  1.0
  Ni  Ni118  1  0.08486133  0.65283933  0.13225890  1.0
  Ni  Ni119  1  0.08486133  0.98617267  0.13225890  1.0
  Ni  Ni120  1  0.41819467  0.31950600  0.13225890  1.0
  Ni  Ni121  1  0.41819467  0.65283933  0.13225890  1.0
  Ni  Ni122  1  0.41819467  0.98617267  0.13225890  1.0
  Ni  Ni123  1  0.75152800  0.31950600  0.13225890  1.0
  Ni  Ni124  1  0.75152800  0.65283933  0.13225890  1.0
  Ni  Ni125  1  0.75152800  0.98617267  0.13225890  1.0
  Ni  Ni126  1  0.24847200  0.01382733  0.05378530  1.0
  Ni  Ni127  1  0.24847200  0.34716067  0.05378530  1.0
  Ni  Ni128  1  0.24847200  0.68049400  0.05378530  1.0
  Ni  Ni129  1  0.58180533  0.01382733  0.05378530  1.0
  Ni  Ni130  1  0.58180533  0.34716067  0.05378530  1.0
  Ni  Ni131  1  0.58180533  0.68049400  0.05378530  1.0
  Ni  Ni132  1  0.91513867  0.01382733  0.05378530  1.0
  Ni  Ni133  1  0.91513867  0.34716067  0.05378530  1.0
  Ni  Ni134  1  0.91513867  0.68049400  0.05378530  1.0
  Ni  Ni135  1  0.09630467  0.05237900  0.16575090  1.0
  Ni  Ni136  1  0.09630467  0.38571233  0.16575090  1.0
  Ni  Ni137  1  0.09630467  0.71904567  0.16575090  1.0
  Ni  Ni138  1  0.42963800  0.05237900  0.16575090  1.0
  Ni  Ni139  1  0.42963800  0.38571233  0.16575090  1.0
  Ni  Ni140  1  0.42963800  0.71904567  0.16575090  1.0
  Ni  Ni141  1  0.76297133  0.05237900  0.16575090  1.0
  Ni  Ni142  1  0.76297133  0.38571233  0.16575090  1.0
  Ni  Ni143  1  0.76297133  0.71904567  0.16575090  1.0
  Ni  Ni144  1  0.01793667  0.28329867  0.01683370  1.0
  Ni  Ni145  1  0.01793667  0.61663200  0.01683370  1.0
  Ni  Ni146  1  0.01793667  0.94996533  0.01683370  1.0
  Ni  Ni147  1  0.35127000  0.28329867  0.01683370  1.0
  Ni  Ni148  1  0.35127000  0.61663200  0.01683370  1.0
  Ni  Ni149  1  0.35127000  0.94996533  0.01683370  1.0
  Ni  Ni150  1  0.68460333  0.28329867  0.01683370  1.0
  Ni  Ni151  1  0.68460333  0.61663200  0.01683370  1.0
  Ni  Ni152  1  0.68460333  0.94996533  0.01683370  1.0
  Ni  Ni153  1  0.31539667  0.05003467  0.16921050  1.0
  Ni  Ni154  1  0.31539667  0.38336800  0.16921050  1.0
  Ni  Ni155  1  0.31539667  0.71670133  0.16921050  1.0
  Ni  Ni156  1  0.64873000  0.05003467  0.16921050  1.0
  Ni  Ni157  1  0.64873000  0.38336800  0.16921050  1.0
  Ni  Ni158  1  0.64873000  0.71670133  0.16921050  1.0
  Ni  Ni159  1  0.98206333  0.05003467  0.16921050  1.0
  Ni  Ni160  1  0.98206333  0.38336800  0.16921050  1.0
  Ni  Ni161  1  0.98206333  0.71670133  0.16921050  1.0
  Ni  Ni162  1  0.06871733  0.25878833  0.08968230  1.0
  Ni  Ni163  1  0.06871733  0.59212167  0.08968230  1.0
  Ni  Ni164  1  0.06871733  0.92545500  0.08968230  1.0
  Ni  Ni165  1  0.40205067  0.25878833  0.08968230  1.0
  Ni  Ni166  1  0.40205067  0.59212167  0.08968230  1.0
  Ni  Ni167  1  0.40205067  0.92545500  0.08968230  1.0
  Ni  Ni168  1  0.73538400  0.25878833  0.08968230  1.0
  Ni  Ni169  1  0.73538400  0.59212167  0.08968230  1.0
  Ni  Ni170  1  0.73538400  0.92545500  0.08968230  1.0
  Ni  Ni171  1  0.26461600  0.07454500  0.09636190  1.0
  Ni  Ni172  1  0.26461600  0.40787833  0.09636190  1.0
  Ni  Ni173  1  0.26461600  0.74121167  0.09636190  1.0
  Ni  Ni174  1  0.59794933  0.07454500  0.09636190  1.0
  Ni  Ni175  1  0.59794933  0.40787833  0.09636190  1.0
  Ni  Ni176  1  0.59794933  0.74121167  0.09636190  1.0
  Ni  Ni177  1  0.93128267  0.07454500  0.09636190  1.0
  Ni  Ni178  1  0.93128267  0.40787833  0.09636190  1.0
  Ni  Ni179  1  0.93128267  0.74121167  0.09636190  1.0
  Ni  Ni180  1  0.08089933  0.18290500  0.05687010  1.0
  Ni  Ni181  1  0.08089933  0.51623833  0.05687010  1.0
  Ni  Ni182  1  0.08089933  0.84957167  0.05687010  1.0
  Ni  Ni183  1  0.41423267  0.18290500  0.05687010  1.0
  Ni  Ni184  1  0.41423267  0.51623833  0.05687010  1.0
  Ni  Ni185  1  0.41423267  0.84957167  0.05687010  1.0
  Ni  Ni186  1  0.74756600  0.18290500  0.05687010  1.0
  Ni  Ni187  1  0.74756600  0.51623833  0.05687010  1.0
  Ni  Ni188  1  0.74756600  0.84957167  0.05687010  1.0
  Ni  Ni189  1  0.25243400  0.15042833  0.12917410  1.0
  Ni  Ni190  1  0.25243400  0.48376167  0.12917410  1.0
  Ni  Ni191  1  0.25243400  0.81709500  0.12917410  1.0
  Ni  Ni192  1  0.58576733  0.15042833  0.12917410  1.0
  Ni  Ni193  1  0.58576733  0.48376167  0.12917410  1.0
  Ni  Ni194  1  0.58576733  0.81709500  0.12917410  1.0
  Ni  Ni195  1  0.91910067  0.15042833  0.12917410  1.0
  Ni  Ni196  1  0.91910067  0.48376167  0.12917410  1.0
  Ni  Ni197  1  0.91910067  0.81709500  0.12917410  1.0
  Ni  Ni198  1  0.08613200  0.11571100  0.01275070  1.0
  Ni  Ni199  1  0.08613200  0.44904433  0.01275070  1.0
  Ni  Ni200  1  0.08613200  0.78237767  0.01275070  1.0
  Ni  Ni201  1  0.41946533  0.11571100  0.01275070  1.0
  Ni  Ni202  1  0.41946533  0.44904433  0.01275070  1.0
  Ni  Ni203  1  0.41946533  0.78237767  0.01275070  1.0
  Ni  Ni204  1  0.75279867  0.11571100  0.01275070  1.0
  Ni  Ni205  1  0.75279867  0.44904433  0.01275070  1.0
  Ni  Ni206  1  0.75279867  0.78237767  0.01275070  1.0
  Ni  Ni207  1  0.24720133  0.21762233  0.17329350  1.0
  Ni  Ni208  1  0.24720133  0.55095567  0.17329350  1.0
  Ni  Ni209  1  0.24720133  0.88428900  0.17329350  1.0
  Ni  Ni210  1  0.58053467  0.21762233  0.17329350  1.0
  Ni  Ni211  1  0.58053467  0.55095567  0.17329350  1.0
  Ni  Ni212  1  0.58053467  0.88428900  0.17329350  1.0
  Ni  Ni213  1  0.91386800  0.21762233  0.17329350  1.0
  Ni  Ni214  1  0.91386800  0.55095567  0.17329350  1.0
  Ni  Ni215  1  0.91386800  0.88428900  0.17329350  1.0
  Ni  Ni216  1  0.13021400  0.00955900  0.05039630  1.0
  Ni  Ni217  1  0.13021400  0.34289233  0.05039630  1.0
  Ni  Ni218  1  0.13021400  0.67622567  0.05039630  1.0
  Ni  Ni219  1  0.46354733  0.00955900  0.05039630  1.0
  Ni  Ni220  1  0.46354733  0.34289233  0.05039630  1.0
  Ni  Ni221  1  0.46354733  0.67622567  0.05039630  1.0
  Ni  Ni222  1  0.79688067  0.00955900  0.05039630  1.0
  Ni  Ni223  1  0.79688067  0.34289233  0.05039630  1.0
  Ni  Ni224  1  0.79688067  0.67622567  0.05039630  1.0
  Ni  Ni225  1  0.20311933  0.32377433  0.13564790  1.0
  Ni  Ni226  1  0.20311933  0.65710767  0.13564790  1.0
  Ni  Ni227  1  0.20311933  0.99044100  0.13564790  1.0
  Ni  Ni228  1  0.53645267  0.32377433  0.13564790  1.0
  Ni  Ni229  1  0.53645267  0.65710767  0.13564790  1.0
  Ni  Ni230  1  0.53645267  0.99044100  0.13564790  1.0
  Ni  Ni231  1  0.86978600  0.32377433  0.13564790  1.0
  Ni  Ni232  1  0.86978600  0.65710767  0.13564790  1.0
  Ni  Ni233  1  0.86978600  0.99044100  0.13564790  1.0
  Ni  Ni234  1  0.19968467  0.17901800  0.05632430  1.0
  Ni  Ni235  1  0.19968467  0.51235133  0.05632430  1.0
  Ni  Ni236  1  0.19968467  0.84568467  0.05632430  1.0
  Ni  Ni237  1  0.53301800  0.17901800  0.05632430  1.0
  Ni  Ni238  1  0.53301800  0.51235133  0.05632430  1.0
  Ni  Ni239  1  0.53301800  0.84568467  0.05632430  1.0
  Ni  Ni240  1  0.86635133  0.17901800  0.05632430  1.0
  Ni  Ni241  1  0.86635133  0.51235133  0.05632430  1.0
  Ni  Ni242  1  0.86635133  0.84568467  0.05632430  1.0
  Ni  Ni243  1  0.13364867  0.15431533  0.12971990  1.0
  Ni  Ni244  1  0.13364867  0.48764867  0.12971990  1.0
  Ni  Ni245  1  0.13364867  0.82098200  0.12971990  1.0
  Ni  Ni246  1  0.46698200  0.15431533  0.12971990  1.0
  Ni  Ni247  1  0.46698200  0.48764867  0.12971990  1.0
  Ni  Ni248  1  0.46698200  0.82098200  0.12971990  1.0
  Ni  Ni249  1  0.80031533  0.15431533  0.12971990  1.0
  Ni  Ni250  1  0.80031533  0.48764867  0.12971990  1.0
  Ni  Ni251  1  0.80031533  0.82098200  0.12971990  1.0
  Ni  Ni252  1  0.23702867  0.28095433  0.02029330  1.0
  Ni  Ni253  1  0.23702867  0.61428767  0.02029330  1.0
  Ni  Ni254  1  0.23702867  0.94762100  0.02029330  1.0
  Ni  Ni255  1  0.57036200  0.28095433  0.02029330  1.0
  Ni  Ni256  1  0.57036200  0.61428767  0.02029330  1.0
  Ni  Ni257  1  0.57036200  0.94762100  0.02029330  1.0
  Ni  Ni258  1  0.90369533  0.28095433  0.02029330  1.0
  Ni  Ni259  1  0.90369533  0.61428767  0.02029330  1.0
  Ni  Ni260  1  0.90369533  0.94762100  0.02029330  1.0
  Hf  Hf261  1  0.02100633  0.15526267  0.34362890  1.0
  Hf  Hf262  1  0.02100633  0.48859600  0.34362890  1.0
  Hf  Hf263  1  0.02100633  0.82192933  0.34362890  1.0
  Hf  Hf264  1  0.35433967  0.15526267  0.34362890  1.0
  Hf  Hf265  1  0.35433967  0.48859600  0.34362890  1.0
  Hf  Hf266  1  0.35433967  0.82192933  0.34362890  1.0
  Hf  Hf267  1  0.68767300  0.15526267  0.34362890  1.0
  Hf  Hf268  1  0.68767300  0.48859600  0.34362890  1.0
  Hf  Hf269  1  0.68767300  0.82192933  0.34362890  1.0
  Hf  Hf270  1  0.31232700  0.17807067  0.24241530  1.0
  Hf  Hf271  1  0.31232700  0.51140400  0.24241530  1.0
  Hf  Hf272  1  0.31232700  0.84473733  0.24241530  1.0
  Hf  Hf273  1  0.64566033  0.17807067  0.24241530  1.0
  Hf  Hf274  1  0.64566033  0.51140400  0.24241530  1.0
  Hf  Hf275  1  0.64566033  0.84473733  0.24241530  1.0
  Hf  Hf276  1  0.97899367  0.17807067  0.24241530  1.0
  Hf  Hf277  1  0.97899367  0.51140400  0.24241530  1.0
  Hf  Hf278  1  0.97899367  0.84473733  0.24241530  1.0
  Hf  Hf279  1  0.17887633  0.24843633  0.30678450  1.0
  Hf  Hf280  1  0.17887633  0.58176967  0.30678450  1.0
  Hf  Hf281  1  0.17887633  0.91510300  0.30678450  1.0
  Hf  Hf282  1  0.51220967  0.24843633  0.30678450  1.0
  Hf  Hf283  1  0.51220967  0.58176967  0.30678450  1.0
  Hf  Hf284  1  0.51220967  0.91510300  0.30678450  1.0
  Hf  Hf285  1  0.84554300  0.24843633  0.30678450  1.0
  Hf  Hf286  1  0.84554300  0.58176967  0.30678450  1.0
  Hf  Hf287  1  0.84554300  0.91510300  0.30678450  1.0
  Hf  Hf288  1  0.15445700  0.08489700  0.27925970  1.0
  Hf  Hf289  1  0.15445700  0.41823033  0.27925970  1.0
  Hf  Hf290  1  0.15445700  0.75156367  0.27925970  1.0
  Hf  Hf291  1  0.48779033  0.08489700  0.27925970  1.0
  Hf  Hf292  1  0.48779033  0.41823033  0.27925970  1.0
  Hf  Hf293  1  0.48779033  0.75156367  0.27925970  1.0
  Hf  Hf294  1  0.82112367  0.08489700  0.27925970  1.0
  Hf  Hf295  1  0.82112367  0.41823033  0.27925970  1.0
  Hf  Hf296  1  0.82112367  0.75156367  0.27925970  1.0
  Hf  Hf297  1  0.19889433  0.06184167  0.37906630  1.0
  Hf  Hf298  1  0.19889433  0.39517500  0.37906630  1.0
  Hf  Hf299  1  0.19889433  0.72850833  0.37906630  1.0
  Hf  Hf300  1  0.53222767  0.06184167  0.37906630  1.0
  Hf  Hf301  1  0.53222767  0.39517500  0.37906630  1.0
  Hf  Hf302  1  0.53222767  0.72850833  0.37906630  1.0
  Hf  Hf303  1  0.86556100  0.06184167  0.37906630  1.0
  Hf  Hf304  1  0.86556100  0.39517500  0.37906630  1.0
  Hf  Hf305  1  0.86556100  0.72850833  0.37906630  1.0
  Hf  Hf306  1  0.13443900  0.27149167  0.20697790  1.0
  Hf  Hf307  1  0.13443900  0.60482500  0.20697790  1.0
  Hf  Hf308  1  0.13443900  0.93815833  0.20697790  1.0
  Hf  Hf309  1  0.46777233  0.27149167  0.20697790  1.0
  Hf  Hf310  1  0.46777233  0.60482500  0.20697790  1.0
  Hf  Hf311  1  0.46777233  0.93815833  0.20697790  1.0
  Hf  Hf312  1  0.80110567  0.27149167  0.20697790  1.0
  Hf  Hf313  1  0.80110567  0.60482500  0.20697790  1.0
  Hf  Hf314  1  0.80110567  0.93815833  0.20697790  1.0
  Hf  Hf315  1  0.31258967  0.29757433  0.34346050  1.0
  Hf  Hf316  1  0.31258967  0.63090767  0.34346050  1.0
  Hf  Hf317  1  0.31258967  0.96424100  0.34346050  1.0
  Hf  Hf318  1  0.64592300  0.29757433  0.34346050  1.0
  Hf  Hf319  1  0.64592300  0.63090767  0.34346050  1.0
  Hf  Hf320  1  0.64592300  0.96424100  0.34346050  1.0
  Hf  Hf321  1  0.97925633  0.29757433  0.34346050  1.0
  Hf  Hf322  1  0.97925633  0.63090767  0.34346050  1.0
  Hf  Hf323  1  0.97925633  0.96424100  0.34346050  1.0
  Hf  Hf324  1  0.02074367  0.03575900  0.24258370  1.0
  Hf  Hf325  1  0.02074367  0.36909233  0.24258370  1.0
  Hf  Hf326  1  0.02074367  0.70242567  0.24258370  1.0
  Hf  Hf327  1  0.35407700  0.03575900  0.24258370  1.0
  Hf  Hf328  1  0.35407700  0.36909233  0.24258370  1.0
  Hf  Hf329  1  0.35407700  0.70242567  0.24258370  1.0
  Hf  Hf330  1  0.68741033  0.03575900  0.24258370  1.0
  Hf  Hf331  1  0.68741033  0.36909233  0.24258370  1.0
  Hf  Hf332  1  0.68741033  0.70242567  0.24258370  1.0
  Ni  Ni333  1  0.16666667  0.16666667  0.39302210  1.0
  Ni  Ni334  1  0.16666667  0.50000000  0.39302210  1.0
  Ni  Ni335  1  0.16666667  0.83333333  0.39302210  1.0
  Ni  Ni336  1  0.50000000  0.16666667  0.39302210  1.0
  Ni  Ni337  1  0.50000000  0.50000000  0.39302210  1.0
  Ni  Ni338  1  0.50000000  0.83333333  0.39302210  1.0
  Ni  Ni339  1  0.83333333  0.16666667  0.39302210  1.0
  Ni  Ni340  1  0.83333333  0.50000000  0.39302210  1.0
  Ni  Ni341  1  0.83333333  0.83333333  0.39302210  1.0
  Ni  Ni342  1  0.03915933  0.08598600  0.29588450  1.0
  Ni  Ni343  1  0.03915933  0.41931933  0.29588450  1.0
  Ni  Ni344  1  0.03915933  0.75265267  0.29588450  1.0
  Ni  Ni345  1  0.37249267  0.08598600  0.29588450  1.0
  Ni  Ni346  1  0.37249267  0.41931933  0.29588450  1.0
  Ni  Ni347  1  0.37249267  0.75265267  0.29588450  1.0
  Ni  Ni348  1  0.70582600  0.08598600  0.29588450  1.0
  Ni  Ni349  1  0.70582600  0.41931933  0.29588450  1.0
  Ni  Ni350  1  0.70582600  0.75265267  0.29588450  1.0
  Ni  Ni351  1  0.29417400  0.24734733  0.29015970  1.0
  Ni  Ni352  1  0.29417400  0.58068067  0.29015970  1.0
  Ni  Ni353  1  0.29417400  0.91401400  0.29015970  1.0
  Ni  Ni354  1  0.62750733  0.24734733  0.29015970  1.0
  Ni  Ni355  1  0.62750733  0.58068067  0.29015970  1.0
  Ni  Ni356  1  0.62750733  0.91401400  0.29015970  1.0
  Ni  Ni357  1  0.96084067  0.24734733  0.29015970  1.0
  Ni  Ni358  1  0.96084067  0.58068067  0.29015970  1.0
  Ni  Ni359  1  0.96084067  0.91401400  0.29015970  1.0
  Ni  Ni360  1  0.07240200  0.21822533  0.37319970  1.0
  Ni  Ni361  1  0.07240200  0.55155867  0.37319970  1.0
  Ni  Ni362  1  0.07240200  0.88489200  0.37319970  1.0
  Ni  Ni363  1  0.40573533  0.21822533  0.37319970  1.0
  Ni  Ni364  1  0.40573533  0.55155867  0.37319970  1.0
  Ni  Ni365  1  0.40573533  0.88489200  0.37319970  1.0
  Ni  Ni366  1  0.73906867  0.21822533  0.37319970  1.0
  Ni  Ni367  1  0.73906867  0.55155867  0.37319970  1.0
  Ni  Ni368  1  0.73906867  0.88489200  0.37319970  1.0
  Ni  Ni369  1  0.26093133  0.11510800  0.21284450  1.0
  Ni  Ni370  1  0.26093133  0.44844133  0.21284450  1.0
  Ni  Ni371  1  0.26093133  0.78177467  0.21284450  1.0
  Ni  Ni372  1  0.59426467  0.11510800  0.21284450  1.0
  Ni  Ni373  1  0.59426467  0.44844133  0.21284450  1.0
  Ni  Ni374  1  0.59426467  0.78177467  0.21284450  1.0
  Ni  Ni375  1  0.92759800  0.11510800  0.21284450  1.0
  Ni  Ni376  1  0.92759800  0.44844133  0.21284450  1.0
  Ni  Ni377  1  0.92759800  0.78177467  0.21284450  1.0
  Ni  Ni378  1  0.08486133  0.31950600  0.33225890  1.0
  Ni  Ni379  1  0.08486133  0.65283933  0.33225890  1.0
  Ni  Ni380  1  0.08486133  0.98617267  0.33225890  1.0
  Ni  Ni381  1  0.41819467  0.31950600  0.33225890  1.0
  Ni  Ni382  1  0.41819467  0.65283933  0.33225890  1.0
  Ni  Ni383  1  0.41819467  0.98617267  0.33225890  1.0
  Ni  Ni384  1  0.75152800  0.31950600  0.33225890  1.0
  Ni  Ni385  1  0.75152800  0.65283933  0.33225890  1.0
  Ni  Ni386  1  0.75152800  0.98617267  0.33225890  1.0
  Ni  Ni387  1  0.24847200  0.01382733  0.25378530  1.0
  Ni  Ni388  1  0.24847200  0.34716067  0.25378530  1.0
  Ni  Ni389  1  0.24847200  0.68049400  0.25378530  1.0
  Ni  Ni390  1  0.58180533  0.01382733  0.25378530  1.0
  Ni  Ni391  1  0.58180533  0.34716067  0.25378530  1.0
  Ni  Ni392  1  0.58180533  0.68049400  0.25378530  1.0
  Ni  Ni393  1  0.91513867  0.01382733  0.25378530  1.0
  Ni  Ni394  1  0.91513867  0.34716067  0.25378530  1.0
  Ni  Ni395  1  0.91513867  0.68049400  0.25378530  1.0
  Ni  Ni396  1  0.09630467  0.05237900  0.36575090  1.0
  Ni  Ni397  1  0.09630467  0.38571233  0.36575090  1.0
  Ni  Ni398  1  0.09630467  0.71904567  0.36575090  1.0
  Ni  Ni399  1  0.42963800  0.05237900  0.36575090  1.0
  Ni  Ni400  1  0.42963800  0.38571233  0.36575090  1.0
  Ni  Ni401  1  0.42963800  0.71904567  0.36575090  1.0
  Ni  Ni402  1  0.76297133  0.05237900  0.36575090  1.0
  Ni  Ni403  1  0.76297133  0.38571233  0.36575090  1.0
  Ni  Ni404  1  0.76297133  0.71904567  0.36575090  1.0
  Ni  Ni405  1  0.01793667  0.28329867  0.21683370  1.0
  Ni  Ni406  1  0.01793667  0.61663200  0.21683370  1.0
  Ni  Ni407  1  0.01793667  0.94996533  0.21683370  1.0
  Ni  Ni408  1  0.35127000  0.28329867  0.21683370  1.0
  Ni  Ni409  1  0.35127000  0.61663200  0.21683370  1.0
  Ni  Ni410  1  0.35127000  0.94996533  0.21683370  1.0
  Ni  Ni411  1  0.68460333  0.28329867  0.21683370  1.0
  Ni  Ni412  1  0.68460333  0.61663200  0.21683370  1.0
  Ni  Ni413  1  0.68460333  0.94996533  0.21683370  1.0
  Ni  Ni414  1  0.31539667  0.05003467  0.36921050  1.0
  Ni  Ni415  1  0.31539667  0.38336800  0.36921050  1.0
  Ni  Ni416  1  0.31539667  0.71670133  0.36921050  1.0
  Ni  Ni417  1  0.64873000  0.05003467  0.36921050  1.0
  Ni  Ni418  1  0.64873000  0.38336800  0.36921050  1.0
  Ni  Ni419  1  0.64873000  0.71670133  0.36921050  1.0
  Ni  Ni420  1  0.98206333  0.05003467  0.36921050  1.0
  Ni  Ni421  1  0.98206333  0.38336800  0.36921050  1.0
  Ni  Ni422  1  0.98206333  0.71670133  0.36921050  1.0
  Ni  Ni423  1  0.06871733  0.25878833  0.28968230  1.0
  Ni  Ni424  1  0.06871733  0.59212167  0.28968230  1.0
  Ni  Ni425  1  0.06871733  0.92545500  0.28968230  1.0
  Ni  Ni426  1  0.40205067  0.25878833  0.28968230  1.0
  Ni  Ni427  1  0.40205067  0.59212167  0.28968230  1.0
  Ni  Ni428  1  0.40205067  0.92545500  0.28968230  1.0
  Ni  Ni429  1  0.73538400  0.25878833  0.28968230  1.0
  Ni  Ni430  1  0.73538400  0.59212167  0.28968230  1.0
  Ni  Ni431  1  0.73538400  0.92545500  0.28968230  1.0
  Ni  Ni432  1  0.26461600  0.07454500  0.29636190  1.0
  Ni  Ni433  1  0.26461600  0.40787833  0.29636190  1.0
  Ni  Ni434  1  0.26461600  0.74121167  0.29636190  1.0
  Ni  Ni435  1  0.59794933  0.07454500  0.29636190  1.0
  Ni  Ni436  1  0.59794933  0.40787833  0.29636190  1.0
  Ni  Ni437  1  0.59794933  0.74121167  0.29636190  1.0
  Ni  Ni438  1  0.93128267  0.07454500  0.29636190  1.0
  Ni  Ni439  1  0.93128267  0.40787833  0.29636190  1.0
  Ni  Ni440  1  0.93128267  0.74121167  0.29636190  1.0
  Ni  Ni441  1  0.08089933  0.18290500  0.25687010  1.0
  Ni  Ni442  1  0.08089933  0.51623833  0.25687010  1.0
  Ni  Ni443  1  0.08089933  0.84957167  0.25687010  1.0
  Ni  Ni444  1  0.41423267  0.18290500  0.25687010  1.0
  Ni  Ni445  1  0.41423267  0.51623833  0.25687010  1.0
  Ni  Ni446  1  0.41423267  0.84957167  0.25687010  1.0
  Ni  Ni447  1  0.74756600  0.18290500  0.25687010  1.0
  Ni  Ni448  1  0.74756600  0.51623833  0.25687010  1.0
  Ni  Ni449  1  0.74756600  0.84957167  0.25687010  1.0
  Ni  Ni450  1  0.25243400  0.15042833  0.32917410  1.0
  Ni  Ni451  1  0.25243400  0.48376167  0.32917410  1.0
  Ni  Ni452  1  0.25243400  0.81709500  0.32917410  1.0
  Ni  Ni453  1  0.58576733  0.15042833  0.32917410  1.0
  Ni  Ni454  1  0.58576733  0.48376167  0.32917410  1.0
  Ni  Ni455  1  0.58576733  0.81709500  0.32917410  1.0
  Ni  Ni456  1  0.91910067  0.15042833  0.32917410  1.0
  Ni  Ni457  1  0.91910067  0.48376167  0.32917410  1.0
  Ni  Ni458  1  0.91910067  0.81709500  0.32917410  1.0
  Ni  Ni459  1  0.08613200  0.11571100  0.21275070  1.0
  Ni  Ni460  1  0.08613200  0.44904433  0.21275070  1.0
  Ni  Ni461  1  0.08613200  0.78237767  0.21275070  1.0
  Ni  Ni462  1  0.41946533  0.11571100  0.21275070  1.0
  Ni  Ni463  1  0.41946533  0.44904433  0.21275070  1.0
  Ni  Ni464  1  0.41946533  0.78237767  0.21275070  1.0
  Ni  Ni465  1  0.75279867  0.11571100  0.21275070  1.0
  Ni  Ni466  1  0.75279867  0.44904433  0.21275070  1.0
  Ni  Ni467  1  0.75279867  0.78237767  0.21275070  1.0
  Ni  Ni468  1  0.24720133  0.21762233  0.37329350  1.0
  Ni  Ni469  1  0.24720133  0.55095567  0.37329350  1.0
  Ni  Ni470  1  0.24720133  0.88428900  0.37329350  1.0
  Ni  Ni471  1  0.58053467  0.21762233  0.37329350  1.0
  Ni  Ni472  1  0.58053467  0.55095567  0.37329350  1.0
  Ni  Ni473  1  0.58053467  0.88428900  0.37329350  1.0
  Ni  Ni474  1  0.91386800  0.21762233  0.37329350  1.0
  Ni  Ni475  1  0.91386800  0.55095567  0.37329350  1.0
  Ni  Ni476  1  0.91386800  0.88428900  0.37329350  1.0
  Ni  Ni477  1  0.13021400  0.00955900  0.25039630  1.0
  Ni  Ni478  1  0.13021400  0.34289233  0.25039630  1.0
  Ni  Ni479  1  0.13021400  0.67622567  0.25039630  1.0
  Ni  Ni480  1  0.46354733  0.00955900  0.25039630  1.0
  Ni  Ni481  1  0.46354733  0.34289233  0.25039630  1.0
  Ni  Ni482  1  0.46354733  0.67622567  0.25039630  1.0
  Ni  Ni483  1  0.79688067  0.00955900  0.25039630  1.0
  Ni  Ni484  1  0.79688067  0.34289233  0.25039630  1.0
  Ni  Ni485  1  0.79688067  0.67622567  0.25039630  1.0
  Ni  Ni486  1  0.20311933  0.32377433  0.33564790  1.0
  Ni  Ni487  1  0.20311933  0.65710767  0.33564790  1.0
  Ni  Ni488  1  0.20311933  0.99044100  0.33564790  1.0
  Ni  Ni489  1  0.53645267  0.32377433  0.33564790  1.0
  Ni  Ni490  1  0.53645267  0.65710767  0.33564790  1.0
  Ni  Ni491  1  0.53645267  0.99044100  0.33564790  1.0
  Ni  Ni492  1  0.86978600  0.32377433  0.33564790  1.0
  Ni  Ni493  1  0.86978600  0.65710767  0.33564790  1.0
  Ni  Ni494  1  0.86978600  0.99044100  0.33564790  1.0
  Ni  Ni495  1  0.19968467  0.17901800  0.25632430  1.0
  Ni  Ni496  1  0.19968467  0.51235133  0.25632430  1.0
  Ni  Ni497  1  0.19968467  0.84568467  0.25632430  1.0
  Ni  Ni498  1  0.53301800  0.17901800  0.25632430  1.0
  Ni  Ni499  1  0.53301800  0.51235133  0.25632430  1.0
  Ni  Ni500  1  0.53301800  0.84568467  0.25632430  1.0
  Ni  Ni501  1  0.86635133  0.17901800  0.25632430  1.0
  Ni  Ni502  1  0.86635133  0.51235133  0.25632430  1.0
  Ni  Ni503  1  0.86635133  0.84568467  0.25632430  1.0
  Ni  Ni504  1  0.13364867  0.15431533  0.32971990  1.0
  Ni  Ni505  1  0.13364867  0.48764867  0.32971990  1.0
  Ni  Ni506  1  0.13364867  0.82098200  0.32971990  1.0
  Ni  Ni507  1  0.46698200  0.15431533  0.32971990  1.0
  Ni  Ni508  1  0.46698200  0.48764867  0.32971990  1.0
  Ni  Ni509  1  0.46698200  0.82098200  0.32971990  1.0
  Ni  Ni510  1  0.80031533  0.15431533  0.32971990  1.0
  Ni  Ni511  1  0.80031533  0.48764867  0.32971990  1.0
  Ni  Ni512  1  0.80031533  0.82098200  0.32971990  1.0
  Ni  Ni513  1  0.23702867  0.28095433  0.22029330  1.0
  Ni  Ni514  1  0.23702867  0.61428767  0.22029330  1.0
  Ni  Ni515  1  0.23702867  0.94762100  0.22029330  1.0
  Ni  Ni516  1  0.57036200  0.28095433  0.22029330  1.0
  Ni  Ni517  1  0.57036200  0.61428767  0.22029330  1.0
  Ni  Ni518  1  0.57036200  0.94762100  0.22029330  1.0
  Ni  Ni519  1  0.90369533  0.28095433  0.22029330  1.0
  Ni  Ni520  1  0.90369533  0.61428767  0.22029330  1.0
  Ni  Ni521  1  0.90369533  0.94762100  0.22029330  1.0
