# generated using pymatgen
data_Hf8Ni21
_symmetry_space_group_name_H-M   'P 1'
_cell_length_a   19.22936700
_cell_length_b   30.23076923
_cell_length_c   39.92748705
_cell_angle_alpha   125.11849256
_cell_angle_beta   75.46243674
_cell_angle_gamma   83.31631031
_symmetry_Int_Tables_number   1
_chemical_formula_structural   Hf8Ni21
_chemical_formula_sum   'Hf144 Ni378'
_cell_volume   17352.11007415
_cell_formula_units_Z   18
loop_
 _symmetry_equiv_pos_site_id
 _symmetry_equiv_pos_as_xyz
  1  'x, y, z'
loop_
 _atom_site_type_symbol
 _atom_site_label
 _atom_site_symmetry_multiplicity
 _atom_site_fract_x
 _atom_site_fract_y
 _atom_site_fract_z
 _atom_site_occupancy
  Hf  Hf0  1  0.08232200  0.17807067  0.09249030  1.0
  Hf  Hf1  1  0.08232200  0.51140400  0.09249030  1.0
  Hf  Hf2  1  0.08232200  0.84473733  0.09249030  1.0
  Hf  Hf3  1  0.41565533  0.17807067  0.09249030  1.0
  Hf  Hf4  1  0.41565533  0.51140400  0.09249030  1.0
  Hf  Hf5  1  0.41565533  0.84473733  0.09249030  1.0
  Hf  Hf6  1  0.74898867  0.17807067  0.09249030  1.0
  Hf  Hf7  1  0.74898867  0.51140400  0.09249030  1.0
  Hf  Hf8  1  0.74898867  0.84473733  0.09249030  1.0
  Hf  Hf9  1  0.25101133  0.15526267  0.10401310  1.0
  Hf  Hf10  1  0.25101133  0.48859600  0.10401310  1.0
  Hf  Hf11  1  0.25101133  0.82192933  0.10401310  1.0
  Hf  Hf12  1  0.58434467  0.15526267  0.10401310  1.0
  Hf  Hf13  1  0.58434467  0.48859600  0.10401310  1.0
  Hf  Hf14  1  0.58434467  0.82192933  0.10401310  1.0
  Hf  Hf15  1  0.91767800  0.15526267  0.10401310  1.0
  Hf  Hf16  1  0.91767800  0.48859600  0.10401310  1.0
  Hf  Hf17  1  0.91767800  0.82192933  0.10401310  1.0
  Hf  Hf18  1  0.14372933  0.08489700  0.14186410  1.0
  Hf  Hf19  1  0.14372933  0.41823033  0.14186410  1.0
  Hf  Hf20  1  0.14372933  0.75156367  0.14186410  1.0
  Hf  Hf21  1  0.47706267  0.08489700  0.14186410  1.0
  Hf  Hf22  1  0.47706267  0.41823033  0.14186410  1.0
  Hf  Hf23  1  0.47706267  0.75156367  0.14186410  1.0
  Hf  Hf24  1  0.81039600  0.08489700  0.14186410  1.0
  Hf  Hf25  1  0.81039600  0.41823033  0.14186410  1.0
  Hf  Hf26  1  0.81039600  0.75156367  0.14186410  1.0
  Hf  Hf27  1  0.18960400  0.24843633  0.05463930  1.0
  Hf  Hf28  1  0.18960400  0.58176967  0.05463930  1.0
  Hf  Hf29  1  0.18960400  0.91510300  0.05463930  1.0
  Hf  Hf30  1  0.52293733  0.24843633  0.05463930  1.0
  Hf  Hf31  1  0.52293733  0.58176967  0.05463930  1.0
  Hf  Hf32  1  0.52293733  0.91510300  0.05463930  1.0
  Hf  Hf33  1  0.85627067  0.24843633  0.05463930  1.0
  Hf  Hf34  1  0.85627067  0.58176967  0.05463930  1.0
  Hf  Hf35  1  0.85627067  0.91510300  0.05463930  1.0
  Hf  Hf36  1  0.02325967  0.27149167  0.04181010  1.0
  Hf  Hf37  1  0.02325967  0.60482500  0.04181010  1.0
  Hf  Hf38  1  0.02325967  0.93815833  0.04181010  1.0
  Hf  Hf39  1  0.35659300  0.27149167  0.04181010  1.0
  Hf  Hf40  1  0.35659300  0.60482500  0.04181010  1.0
  Hf  Hf41  1  0.35659300  0.93815833  0.04181010  1.0
  Hf  Hf42  1  0.68992633  0.27149167  0.04181010  1.0
  Hf  Hf43  1  0.68992633  0.60482500  0.04181010  1.0
  Hf  Hf44  1  0.68992633  0.93815833  0.04181010  1.0
  Hf  Hf45  1  0.31007367  0.06184167  0.15469330  1.0
  Hf  Hf46  1  0.31007367  0.39517500  0.15469330  1.0
  Hf  Hf47  1  0.31007367  0.72850833  0.15469330  1.0
  Hf  Hf48  1  0.64340700  0.06184167  0.15469330  1.0
  Hf  Hf49  1  0.64340700  0.39517500  0.15469330  1.0
  Hf  Hf50  1  0.64340700  0.72850833  0.15469330  1.0
  Hf  Hf51  1  0.97674033  0.06184167  0.15469330  1.0
  Hf  Hf52  1  0.97674033  0.39517500  0.15469330  1.0
  Hf  Hf53  1  0.97674033  0.72850833  0.15469330  1.0
  Hf  Hf54  1  0.08260267  0.03575900  0.03215330  1.0
  Hf  Hf55  1  0.08260267  0.36909233  0.03215330  1.0
  Hf  Hf56  1  0.08260267  0.70242567  0.03215330  1.0
  Hf  Hf57  1  0.41593600  0.03575900  0.03215330  1.0
  Hf  Hf58  1  0.41593600  0.36909233  0.03215330  1.0
  Hf  Hf59  1  0.41593600  0.70242567  0.03215330  1.0
  Hf  Hf60  1  0.74926933  0.03575900  0.03215330  1.0
  Hf  Hf61  1  0.74926933  0.36909233  0.03215330  1.0
  Hf  Hf62  1  0.74926933  0.70242567  0.03215330  1.0
  Hf  Hf63  1  0.25073067  0.29757433  0.16435010  1.0
  Hf  Hf64  1  0.25073067  0.63090767  0.16435010  1.0
  Hf  Hf65  1  0.25073067  0.96424100  0.16435010  1.0
  Hf  Hf66  1  0.58406400  0.29757433  0.16435010  1.0
  Hf  Hf67  1  0.58406400  0.63090767  0.16435010  1.0
  Hf  Hf68  1  0.58406400  0.96424100  0.16435010  1.0
  Hf  Hf69  1  0.91739733  0.29757433  0.16435010  1.0
  Hf  Hf70  1  0.91739733  0.63090767  0.16435010  1.0
  Hf  Hf71  1  0.91739733  0.96424100  0.16435010  1.0
  Ni  Ni72  1  0.00000000  0.16666667  0.19825170  1.0
  Ni  Ni73  1  0.00000000  0.50000000  0.19825170  1.0
  Ni  Ni74  1  0.00000000  0.83333333  0.19825170  1.0
  Ni  Ni75  1  0.33333333  0.16666667  0.19825170  1.0
  Ni  Ni76  1  0.33333333  0.50000000  0.19825170  1.0
  Ni  Ni77  1  0.33333333  0.83333333  0.19825170  1.0
  Ni  Ni78  1  0.66666667  0.16666667  0.19825170  1.0
  Ni  Ni79  1  0.66666667  0.50000000  0.19825170  1.0
  Ni  Ni80  1  0.66666667  0.83333333  0.19825170  1.0
  Ni  Ni81  1  0.16189600  0.24734733  0.12316450  1.0
  Ni  Ni82  1  0.16189600  0.58068067  0.12316450  1.0
  Ni  Ni83  1  0.16189600  0.91401400  0.12316450  1.0
  Ni  Ni84  1  0.49522933  0.24734733  0.12316450  1.0
  Ni  Ni85  1  0.49522933  0.58068067  0.12316450  1.0
  Ni  Ni86  1  0.49522933  0.91401400  0.12316450  1.0
  Ni  Ni87  1  0.82856267  0.24734733  0.12316450  1.0
  Ni  Ni88  1  0.82856267  0.58068067  0.12316450  1.0
  Ni  Ni89  1  0.82856267  0.91401400  0.12316450  1.0
  Ni  Ni90  1  0.17143733  0.08598600  0.07333890  1.0
  Ni  Ni91  1  0.17143733  0.41931933  0.07333890  1.0
  Ni  Ni92  1  0.17143733  0.75265267  0.07333890  1.0
  Ni  Ni93  1  0.50477067  0.08598600  0.07333890  1.0
  Ni  Ni94  1  0.50477067  0.41931933  0.07333890  1.0
  Ni  Ni95  1  0.50477067  0.75265267  0.07333890  1.0
  Ni  Ni96  1  0.83810400  0.08598600  0.07333890  1.0
  Ni  Ni97  1  0.83810400  0.41931933  0.07333890  1.0
  Ni  Ni98  1  0.83810400  0.75265267  0.07333890  1.0
  Ni  Ni99  1  0.03303733  0.11510800  0.02387530  1.0
  Ni  Ni100  1  0.03303733  0.44844133  0.02387530  1.0
  Ni  Ni101  1  0.03303733  0.78177467  0.02387530  1.0
  Ni  Ni102  1  0.36637067  0.11510800  0.02387530  1.0
  Ni  Ni103  1  0.36637067  0.44844133  0.02387530  1.0
  Ni  Ni104  1  0.36637067  0.78177467  0.02387530  1.0
  Ni  Ni105  1  0.69970400  0.11510800  0.02387530  1.0
  Ni  Ni106  1  0.69970400  0.44844133  0.02387530  1.0
  Ni  Ni107  1  0.69970400  0.78177467  0.02387530  1.0
  Ni  Ni108  1  0.30029600  0.21822533  0.17262810  1.0
  Ni  Ni109  1  0.30029600  0.55155867  0.17262810  1.0
  Ni  Ni110  1  0.30029600  0.88489200  0.17262810  1.0
  Ni  Ni111  1  0.63362933  0.21822533  0.17262810  1.0
  Ni  Ni112  1  0.63362933  0.55155867  0.17262810  1.0
  Ni  Ni113  1  0.63362933  0.88489200  0.17262810  1.0
  Ni  Ni114  1  0.96696267  0.21822533  0.17262810  1.0
  Ni  Ni115  1  0.96696267  0.55155867  0.17262810  1.0
  Ni  Ni116  1  0.96696267  0.88489200  0.17262810  1.0
  Ni  Ni117  1  0.10127200  0.01382733  0.15563130  1.0
  Ni  Ni118  1  0.10127200  0.34716067  0.15563130  1.0
  Ni  Ni119  1  0.10127200  0.68049400  0.15563130  1.0
  Ni  Ni120  1  0.43460533  0.01382733  0.15563130  1.0
  Ni  Ni121  1  0.43460533  0.34716067  0.15563130  1.0
  Ni  Ni122  1  0.43460533  0.68049400  0.15563130  1.0
  Ni  Ni123  1  0.76793867  0.01382733  0.15563130  1.0
  Ni  Ni124  1  0.76793867  0.34716067  0.15563130  1.0
  Ni  Ni125  1  0.76793867  0.68049400  0.15563130  1.0
  Ni  Ni126  1  0.23206133  0.31950600  0.04087210  1.0
  Ni  Ni127  1  0.23206133  0.65283933  0.04087210  1.0
  Ni  Ni128  1  0.23206133  0.98617267  0.04087210  1.0
  Ni  Ni129  1  0.56539467  0.31950600  0.04087210  1.0
  Ni  Ni130  1  0.56539467  0.65283933  0.04087210  1.0
  Ni  Ni131  1  0.56539467  0.98617267  0.04087210  1.0
  Ni  Ni132  1  0.89872800  0.31950600  0.04087210  1.0
  Ni  Ni133  1  0.89872800  0.65283933  0.04087210  1.0
  Ni  Ni134  1  0.89872800  0.98617267  0.04087210  1.0
  Ni  Ni135  1  0.04545200  0.28095433  0.10904150  1.0
  Ni  Ni136  1  0.04545200  0.61428767  0.10904150  1.0
  Ni  Ni137  1  0.04545200  0.94762100  0.10904150  1.0
  Ni  Ni138  1  0.37878533  0.28095433  0.10904150  1.0
  Ni  Ni139  1  0.37878533  0.61428767  0.10904150  1.0
  Ni  Ni140  1  0.37878533  0.94762100  0.10904150  1.0
  Ni  Ni141  1  0.71211867  0.28095433  0.10904150  1.0
  Ni  Ni142  1  0.71211867  0.61428767  0.10904150  1.0
  Ni  Ni143  1  0.71211867  0.94762100  0.10904150  1.0
  Ni  Ni144  1  0.29364733  0.05003467  0.01751050  1.0
  Ni  Ni145  1  0.29364733  0.38336800  0.01751050  1.0
  Ni  Ni146  1  0.29364733  0.71670133  0.01751050  1.0
  Ni  Ni147  1  0.62698067  0.05003467  0.01751050  1.0
  Ni  Ni148  1  0.62698067  0.38336800  0.01751050  1.0
  Ni  Ni149  1  0.62698067  0.71670133  0.01751050  1.0
  Ni  Ni150  1  0.96031400  0.05003467  0.01751050  1.0
  Ni  Ni151  1  0.96031400  0.38336800  0.01751050  1.0
  Ni  Ni152  1  0.96031400  0.71670133  0.01751050  1.0
  Ni  Ni153  1  0.03968600  0.28329867  0.17899290  1.0
  Ni  Ni154  1  0.03968600  0.61663200  0.17899290  1.0
  Ni  Ni155  1  0.03968600  0.94996533  0.17899290  1.0
  Ni  Ni156  1  0.37301933  0.28329867  0.17899290  1.0
  Ni  Ni157  1  0.37301933  0.61663200  0.17899290  1.0
  Ni  Ni158  1  0.37301933  0.94996533  0.17899290  1.0
  Ni  Ni159  1  0.70635267  0.28329867  0.17899290  1.0
  Ni  Ni160  1  0.70635267  0.61663200  0.17899290  1.0
  Ni  Ni161  1  0.70635267  0.94996533  0.17899290  1.0
  Ni  Ni162  1  0.17223300  0.07454500  0.00174830  1.0
  Ni  Ni163  1  0.17223300  0.40787833  0.00174830  1.0
  Ni  Ni164  1  0.17223300  0.74121167  0.00174830  1.0
  Ni  Ni165  1  0.50556633  0.07454500  0.00174830  1.0
  Ni  Ni166  1  0.50556633  0.40787833  0.00174830  1.0
  Ni  Ni167  1  0.50556633  0.74121167  0.00174830  1.0
  Ni  Ni168  1  0.83889967  0.07454500  0.00174830  1.0
  Ni  Ni169  1  0.83889967  0.40787833  0.00174830  1.0
  Ni  Ni170  1  0.83889967  0.74121167  0.00174830  1.0
  Ni  Ni171  1  0.16110033  0.25878833  0.19475510  1.0
  Ni  Ni172  1  0.16110033  0.59212167  0.19475510  1.0
  Ni  Ni173  1  0.16110033  0.92545500  0.19475510  1.0
  Ni  Ni174  1  0.49443367  0.25878833  0.19475510  1.0
  Ni  Ni175  1  0.49443367  0.59212167  0.19475510  1.0
  Ni  Ni176  1  0.49443367  0.92545500  0.19475510  1.0
  Ni  Ni177  1  0.82776700  0.25878833  0.19475510  1.0
  Ni  Ni178  1  0.82776700  0.59212167  0.19475510  1.0
  Ni  Ni179  1  0.82776700  0.92545500  0.19475510  1.0
  Ni  Ni180  1  0.22692000  0.15042833  0.03996910  1.0
  Ni  Ni181  1  0.22692000  0.48376167  0.03996910  1.0
  Ni  Ni182  1  0.22692000  0.81709500  0.03996910  1.0
  Ni  Ni183  1  0.56025333  0.15042833  0.03996910  1.0
  Ni  Ni184  1  0.56025333  0.48376167  0.03996910  1.0
  Ni  Ni185  1  0.56025333  0.81709500  0.03996910  1.0
  Ni  Ni186  1  0.89358667  0.15042833  0.03996910  1.0
  Ni  Ni187  1  0.89358667  0.48376167  0.03996910  1.0
  Ni  Ni188  1  0.89358667  0.81709500  0.03996910  1.0
  Ni  Ni189  1  0.10641333  0.18290500  0.15653430  1.0
  Ni  Ni190  1  0.10641333  0.51623833  0.15653430  1.0
  Ni  Ni191  1  0.10641333  0.84957167  0.15653430  1.0
  Ni  Ni192  1  0.43974667  0.18290500  0.15653430  1.0
  Ni  Ni193  1  0.43974667  0.51623833  0.15653430  1.0
  Ni  Ni194  1  0.43974667  0.84957167  0.15653430  1.0
  Ni  Ni195  1  0.77308000  0.18290500  0.15653430  1.0
  Ni  Ni196  1  0.77308000  0.51623833  0.15653430  1.0
  Ni  Ni197  1  0.77308000  0.84957167  0.15653430  1.0
  Ni  Ni198  1  0.30045233  0.21762233  0.07714590  1.0
  Ni  Ni199  1  0.30045233  0.55095567  0.07714590  1.0
  Ni  Ni200  1  0.30045233  0.88428900  0.07714590  1.0
  Ni  Ni201  1  0.63378567  0.21762233  0.07714590  1.0
  Ni  Ni202  1  0.63378567  0.55095567  0.07714590  1.0
  Ni  Ni203  1  0.63378567  0.88428900  0.07714590  1.0
  Ni  Ni204  1  0.96711900  0.21762233  0.07714590  1.0
  Ni  Ni205  1  0.96711900  0.55095567  0.07714590  1.0
  Ni  Ni206  1  0.96711900  0.88428900  0.07714590  1.0
  Ni  Ni207  1  0.03288100  0.11571100  0.11935750  1.0
  Ni  Ni208  1  0.03288100  0.44904433  0.11935750  1.0
  Ni  Ni209  1  0.03288100  0.78237767  0.11935750  1.0
  Ni  Ni210  1  0.36621433  0.11571100  0.11935750  1.0
  Ni  Ni211  1  0.36621433  0.44904433  0.11935750  1.0
  Ni  Ni212  1  0.36621433  0.78237767  0.11935750  1.0
  Ni  Ni213  1  0.69954767  0.11571100  0.11935750  1.0
  Ni  Ni214  1  0.69954767  0.44904433  0.11935750  1.0
  Ni  Ni215  1  0.69954767  0.78237767  0.11935750  1.0
  Ni  Ni216  1  0.23770967  0.32377433  0.11438790  1.0
  Ni  Ni217  1  0.23770967  0.65710767  0.11438790  1.0
  Ni  Ni218  1  0.23770967  0.99044100  0.11438790  1.0
  Ni  Ni219  1  0.57104300  0.32377433  0.11438790  1.0
  Ni  Ni220  1  0.57104300  0.65710767  0.11438790  1.0
  Ni  Ni221  1  0.57104300  0.99044100  0.11438790  1.0
  Ni  Ni222  1  0.90437633  0.32377433  0.11438790  1.0
  Ni  Ni223  1  0.90437633  0.65710767  0.11438790  1.0
  Ni  Ni224  1  0.90437633  0.99044100  0.11438790  1.0
  Ni  Ni225  1  0.09562367  0.00955900  0.08211550  1.0
  Ni  Ni226  1  0.09562367  0.34289233  0.08211550  1.0
  Ni  Ni227  1  0.09562367  0.67622567  0.08211550  1.0
  Ni  Ni228  1  0.42895700  0.00955900  0.08211550  1.0
  Ni  Ni229  1  0.42895700  0.34289233  0.08211550  1.0
  Ni  Ni230  1  0.42895700  0.67622567  0.08211550  1.0
  Ni  Ni231  1  0.76229033  0.00955900  0.08211550  1.0
  Ni  Ni232  1  0.76229033  0.34289233  0.08211550  1.0
  Ni  Ni233  1  0.76229033  0.67622567  0.08211550  1.0
  Ni  Ni234  1  0.22782967  0.15431533  0.17103010  1.0
  Ni  Ni235  1  0.22782967  0.48764867  0.17103010  1.0
  Ni  Ni236  1  0.22782967  0.82098200  0.17103010  1.0
  Ni  Ni237  1  0.56116300  0.15431533  0.17103010  1.0
  Ni  Ni238  1  0.56116300  0.48764867  0.17103010  1.0
  Ni  Ni239  1  0.56116300  0.82098200  0.17103010  1.0
  Ni  Ni240  1  0.89449633  0.15431533  0.17103010  1.0
  Ni  Ni241  1  0.89449633  0.48764867  0.17103010  1.0
  Ni  Ni242  1  0.89449633  0.82098200  0.17103010  1.0
  Ni  Ni243  1  0.10550367  0.17901800  0.02547330  1.0
  Ni  Ni244  1  0.10550367  0.51235133  0.02547330  1.0
  Ni  Ni245  1  0.10550367  0.84568467  0.02547330  1.0
  Ni  Ni246  1  0.43883700  0.17901800  0.02547330  1.0
  Ni  Ni247  1  0.43883700  0.51235133  0.02547330  1.0
  Ni  Ni248  1  0.43883700  0.84568467  0.02547330  1.0
  Ni  Ni249  1  0.77217033  0.17901800  0.02547330  1.0
  Ni  Ni250  1  0.77217033  0.51235133  0.02547330  1.0
  Ni  Ni251  1  0.77217033  0.84568467  0.02547330  1.0
  Ni  Ni252  1  0.28788133  0.05237900  0.08746190  1.0
  Ni  Ni253  1  0.28788133  0.38571233  0.08746190  1.0
  Ni  Ni254  1  0.28788133  0.71904567  0.08746190  1.0
  Ni  Ni255  1  0.62121467  0.05237900  0.08746190  1.0
  Ni  Ni256  1  0.62121467  0.38571233  0.08746190  1.0
  Ni  Ni257  1  0.62121467  0.71904567  0.08746190  1.0
  Ni  Ni258  1  0.95454800  0.05237900  0.08746190  1.0
  Ni  Ni259  1  0.95454800  0.38571233  0.08746190  1.0
  Ni  Ni260  1  0.95454800  0.71904567  0.08746190  1.0
  Hf  Hf261  1  0.08232200  0.17807067  0.29249030  1.0
  Hf  Hf262  1  0.08232200  0.51140400  0.29249030  1.0
  Hf  Hf263  1  0.08232200  0.84473733  0.29249030  1.0
  Hf  Hf264  1  0.41565533  0.17807067  0.29249030  1.0
  Hf  Hf265  1  0.41565533  0.51140400  0.29249030  1.0
  Hf  Hf266  1  0.41565533  0.84473733  0.29249030  1.0
  Hf  Hf267  1  0.74898867  0.17807067  0.29249030  1.0
  Hf  Hf268  1  0.74898867  0.51140400  0.29249030  1.0
  Hf  Hf269  1  0.74898867  0.84473733  0.29249030  1.0
  Hf  Hf270  1  0.25101133  0.15526267  0.30401310  1.0
  Hf  Hf271  1  0.25101133  0.48859600  0.30401310  1.0
  Hf  Hf272  1  0.25101133  0.82192933  0.30401310  1.0
  Hf  Hf273  1  0.58434467  0.15526267  0.30401310  1.0
  Hf  Hf274  1  0.58434467  0.48859600  0.30401310  1.0
  Hf  Hf275  1  0.58434467  0.82192933  0.30401310  1.0
  Hf  Hf276  1  0.91767800  0.15526267  0.30401310  1.0
  Hf  Hf277  1  0.91767800  0.48859600  0.30401310  1.0
  Hf  Hf278  1  0.91767800  0.82192933  0.30401310  1.0
  Hf  Hf279  1  0.14372933  0.08489700  0.34186410  1.0
  Hf  Hf280  1  0.14372933  0.41823033  0.34186410  1.0
  Hf  Hf281  1  0.14372933  0.75156367  0.34186410  1.0
  Hf  Hf282  1  0.47706267  0.08489700  0.34186410  1.0
  Hf  Hf283  1  0.47706267  0.41823033  0.34186410  1.0
  Hf  Hf284  1  0.47706267  0.75156367  0.34186410  1.0
  Hf  Hf285  1  0.81039600  0.08489700  0.34186410  1.0
  Hf  Hf286  1  0.81039600  0.41823033  0.34186410  1.0
  Hf  Hf287  1  0.81039600  0.75156367  0.34186410  1.0
  Hf  Hf288  1  0.18960400  0.24843633  0.25463930  1.0
  Hf  Hf289  1  0.18960400  0.58176967  0.25463930  1.0
  Hf  Hf290  1  0.18960400  0.91510300  0.25463930  1.0
  Hf  Hf291  1  0.52293733  0.24843633  0.25463930  1.0
  Hf  Hf292  1  0.52293733  0.58176967  0.25463930  1.0
  Hf  Hf293  1  0.52293733  0.91510300  0.25463930  1.0
  Hf  Hf294  1  0.85627067  0.24843633  0.25463930  1.0
  Hf  Hf295  1  0.85627067  0.58176967  0.25463930  1.0
  Hf  Hf296  1  0.85627067  0.91510300  0.25463930  1.0
  Hf  Hf297  1  0.02325967  0.27149167  0.24181010  1.0
  Hf  Hf298  1  0.02325967  0.60482500  0.24181010  1.0
  Hf  Hf299  1  0.02325967  0.93815833  0.24181010  1.0
  Hf  Hf300  1  0.35659300  0.27149167  0.24181010  1.0
  Hf  Hf301  1  0.35659300  0.60482500  0.24181010  1.0
  Hf  Hf302  1  0.35659300  0.93815833  0.24181010  1.0
  Hf  Hf303  1  0.68992633  0.27149167  0.24181010  1.0
  Hf  Hf304  1  0.68992633  0.60482500  0.24181010  1.0
  Hf  Hf305  1  0.68992633  0.93815833  0.24181010  1.0
  Hf  Hf306  1  0.31007367  0.06184167  0.35469330  1.0
  Hf  Hf307  1  0.31007367  0.39517500  0.35469330  1.0
  Hf  Hf308  1  0.31007367  0.72850833  0.35469330  1.0
  Hf  Hf309  1  0.64340700  0.06184167  0.35469330  1.0
  Hf  Hf310  1  0.64340700  0.39517500  0.35469330  1.0
  Hf  Hf311  1  0.64340700  0.72850833  0.35469330  1.0
  Hf  Hf312  1  0.97674033  0.06184167  0.35469330  1.0
  Hf  Hf313  1  0.97674033  0.39517500  0.35469330  1.0
  Hf  Hf314  1  0.97674033  0.72850833  0.35469330  1.0
  Hf  Hf315  1  0.08260267  0.03575900  0.23215330  1.0
  Hf  Hf316  1  0.08260267  0.36909233  0.23215330  1.0
  Hf  Hf317  1  0.08260267  0.70242567  0.23215330  1.0
  Hf  Hf318  1  0.41593600  0.03575900  0.23215330  1.0
  Hf  Hf319  1  0.41593600  0.36909233  0.23215330  1.0
  Hf  Hf320  1  0.41593600  0.70242567  0.23215330  1.0
  Hf  Hf321  1  0.74926933  0.03575900  0.23215330  1.0
  Hf  Hf322  1  0.74926933  0.36909233  0.23215330  1.0
  Hf  Hf323  1  0.74926933  0.70242567  0.23215330  1.0
  Hf  Hf324  1  0.25073067  0.29757433  0.36435010  1.0
  Hf  Hf325  1  0.25073067  0.63090767  0.36435010  1.0
  Hf  Hf326  1  0.25073067  0.96424100  0.36435010  1.0
  Hf  Hf327  1  0.58406400  0.29757433  0.36435010  1.0
  Hf  Hf328  1  0.58406400  0.63090767  0.36435010  1.0
  Hf  Hf329  1  0.58406400  0.96424100  0.36435010  1.0
  Hf  Hf330  1  0.91739733  0.29757433  0.36435010  1.0
  Hf  Hf331  1  0.91739733  0.63090767  0.36435010  1.0
  Hf  Hf332  1  0.91739733  0.96424100  0.36435010  1.0
  Ni  Ni333  1  0.00000000  0.16666667  0.39825170  1.0
  Ni  Ni334  1  0.00000000  0.50000000  0.39825170  1.0
  Ni  Ni335  1  0.00000000  0.83333333  0.39825170  1.0
  Ni  Ni336  1  0.33333333  0.16666667  0.39825170  1.0
  Ni  Ni337  1  0.33333333  0.50000000  0.39825170  1.0
  Ni  Ni338  1  0.33333333  0.83333333  0.39825170  1.0
  Ni  Ni339  1  0.66666667  0.16666667  0.39825170  1.0
  Ni  Ni340  1  0.66666667  0.50000000  0.39825170  1.0
  Ni  Ni341  1  0.66666667  0.83333333  0.39825170  1.0
  Ni  Ni342  1  0.16189600  0.24734733  0.32316450  1.0
  Ni  Ni343  1  0.16189600  0.58068067  0.32316450  1.0
  Ni  Ni344  1  0.16189600  0.91401400  0.32316450  1.0
  Ni  Ni345  1  0.49522933  0.24734733  0.32316450  1.0
  Ni  Ni346  1  0.49522933  0.58068067  0.32316450  1.0
  Ni  Ni347  1  0.49522933  0.91401400  0.32316450  1.0
  Ni  Ni348  1  0.82856267  0.24734733  0.32316450  1.0
  Ni  Ni349  1  0.82856267  0.58068067  0.32316450  1.0
  Ni  Ni350  1  0.82856267  0.91401400  0.32316450  1.0
  Ni  Ni351  1  0.17143733  0.08598600  0.27333890  1.0
  Ni  Ni352  1  0.17143733  0.41931933  0.27333890  1.0
  Ni  Ni353  1  0.17143733  0.75265267  0.27333890  1.0
  Ni  Ni354  1  0.50477067  0.08598600  0.27333890  1.0
  Ni  Ni355  1  0.50477067  0.41931933  0.27333890  1.0
  Ni  Ni356  1  0.50477067  0.75265267  0.27333890  1.0
  Ni  Ni357  1  0.83810400  0.08598600  0.27333890  1.0
  Ni  Ni358  1  0.83810400  0.41931933  0.27333890  1.0
  Ni  Ni359  1  0.83810400  0.75265267  0.27333890  1.0
  Ni  Ni360  1  0.03303733  0.11510800  0.22387530  1.0
  Ni  Ni361  1  0.03303733  0.44844133  0.22387530  1.0
  Ni  Ni362  1  0.03303733  0.78177467  0.22387530  1.0
  Ni  Ni363  1  0.36637067  0.11510800  0.22387530  1.0
  Ni  Ni364  1  0.36637067  0.44844133  0.22387530  1.0
  Ni  Ni365  1  0.36637067  0.78177467  0.22387530  1.0
  Ni  Ni366  1  0.69970400  0.11510800  0.22387530  1.0
  Ni  Ni367  1  0.69970400  0.44844133  0.22387530  1.0
  Ni  Ni368  1  0.69970400  0.78177467  0.22387530  1.0
  Ni  Ni369  1  0.30029600  0.21822533  0.37262810  1.0
  Ni  Ni370  1  0.30029600  0.55155867  0.37262810  1.0
  Ni  Ni371  1  0.30029600  0.88489200  0.37262810  1.0
  Ni  Ni372  1  0.63362933  0.21822533  0.37262810  1.0
  Ni  Ni373  1  0.63362933  0.55155867  0.37262810  1.0
  Ni  Ni374  1  0.63362933  0.88489200  0.37262810  1.0
  Ni  Ni375  1  0.96696267  0.21822533  0.37262810  1.0
  Ni  Ni376  1  0.96696267  0.55155867  0.37262810  1.0
  Ni  Ni377  1  0.96696267  0.88489200  0.37262810  1.0
  Ni  Ni378  1  0.10127200  0.01382733  0.35563130  1.0
  Ni  Ni379  1  0.10127200  0.34716067  0.35563130  1.0
  Ni  Ni380  1  0.10127200  0.68049400  0.35563130  1.0
  Ni  Ni381  1  0.43460533  0.01382733  0.35563130  1.0
  Ni  Ni382  1  0.43460533  0.34716067  0.35563130  1.0
  Ni  Ni383  1  0.43460533  0.68049400  0.35563130  1.0
  Ni  Ni384  1  0.76793867  0.01382733  0.35563130  1.0
  Ni  Ni385  1  0.76793867  0.34716067  0.35563130  1.0
  Ni  Ni386  1  0.76793867  0.68049400  0.35563130  1.0
  Ni  Ni387  1  0.23206133  0.31950600  0.24087210  1.0
  Ni  Ni388  1  0.23206133  0.65283933  0.24087210  1.0
  Ni  Ni389  1  0.23206133  0.98617267  0.24087210  1.0
  Ni  Ni390  1  0.56539467  0.31950600  0.24087210  1.0
  Ni  Ni391  1  0.56539467  0.65283933  0.24087210  1.0
  Ni  Ni392  1  0.56539467  0.98617267  0.24087210  1.0
  Ni  Ni393  1  0.89872800  0.31950600  0.24087210  1.0
  Ni  Ni394  1  0.89872800  0.65283933  0.24087210  1.0
  Ni  Ni395  1  0.89872800  0.98617267  0.24087210  1.0
  Ni  Ni396  1  0.04545200  0.28095433  0.30904150  1.0
  Ni  Ni397  1  0.04545200  0.61428767  0.30904150  1.0
  Ni  Ni398  1  0.04545200  0.94762100  0.30904150  1.0
  Ni  Ni399  1  0.37878533  0.28095433  0.30904150  1.0
  Ni  Ni400  1  0.37878533  0.61428767  0.30904150  1.0
  Ni  Ni401  1  0.37878533  0.94762100  0.30904150  1.0
  Ni  Ni402  1  0.71211867  0.28095433  0.30904150  1.0
  Ni  Ni403  1  0.71211867  0.61428767  0.30904150  1.0
  Ni  Ni404  1  0.71211867  0.94762100  0.30904150  1.0
  Ni  Ni405  1  0.29364733  0.05003467  0.21751050  1.0
  Ni  Ni406  1  0.29364733  0.38336800  0.21751050  1.0
  Ni  Ni407  1  0.29364733  0.71670133  0.21751050  1.0
  Ni  Ni408  1  0.62698067  0.05003467  0.21751050  1.0
  Ni  Ni409  1  0.62698067  0.38336800  0.21751050  1.0
  Ni  Ni410  1  0.62698067  0.71670133  0.21751050  1.0
  Ni  Ni411  1  0.96031400  0.05003467  0.21751050  1.0
  Ni  Ni412  1  0.96031400  0.38336800  0.21751050  1.0
  Ni  Ni413  1  0.96031400  0.71670133  0.21751050  1.0
  Ni  Ni414  1  0.03968600  0.28329867  0.37899290  1.0
  Ni  Ni415  1  0.03968600  0.61663200  0.37899290  1.0
  Ni  Ni416  1  0.03968600  0.94996533  0.37899290  1.0
  Ni  Ni417  1  0.37301933  0.28329867  0.37899290  1.0
  Ni  Ni418  1  0.37301933  0.61663200  0.37899290  1.0
  Ni  Ni419  1  0.37301933  0.94996533  0.37899290  1.0
  Ni  Ni420  1  0.70635267  0.28329867  0.37899290  1.0
  Ni  Ni421  1  0.70635267  0.61663200  0.37899290  1.0
  Ni  Ni422  1  0.70635267  0.94996533  0.37899290  1.0
  Ni  Ni423  1  0.17223300  0.07454500  0.20174830  1.0
  Ni  Ni424  1  0.17223300  0.40787833  0.20174830  1.0
  Ni  Ni425  1  0.17223300  0.74121167  0.20174830  1.0
  Ni  Ni426  1  0.50556633  0.07454500  0.20174830  1.0
  Ni  Ni427  1  0.50556633  0.40787833  0.20174830  1.0
  Ni  Ni428  1  0.50556633  0.74121167  0.20174830  1.0
  Ni  Ni429  1  0.83889967  0.07454500  0.20174830  1.0
  Ni  Ni430  1  0.83889967  0.40787833  0.20174830  1.0
  Ni  Ni431  1  0.83889967  0.74121167  0.20174830  1.0
  Ni  Ni432  1  0.16110033  0.25878833  0.39475510  1.0
  Ni  Ni433  1  0.16110033  0.59212167  0.39475510  1.0
  Ni  Ni434  1  0.16110033  0.92545500  0.39475510  1.0
  Ni  Ni435  1  0.49443367  0.25878833  0.39475510  1.0
  Ni  Ni436  1  0.49443367  0.59212167  0.39475510  1.0
  Ni  Ni437  1  0.49443367  0.92545500  0.39475510  1.0
  Ni  Ni438  1  0.82776700  0.25878833  0.39475510  1.0
  Ni  Ni439  1  0.82776700  0.59212167  0.39475510  1.0
  Ni  Ni440  1  0.82776700  0.92545500  0.39475510  1.0
  Ni  Ni441  1  0.22692000  0.15042833  0.23996910  1.0
  Ni  Ni442  1  0.22692000  0.48376167  0.23996910  1.0
  Ni  Ni443  1  0.22692000  0.81709500  0.23996910  1.0
  Ni  Ni444  1  0.56025333  0.15042833  0.23996910  1.0
  Ni  Ni445  1  0.56025333  0.48376167  0.23996910  1.0
  Ni  Ni446  1  0.56025333  0.81709500  0.23996910  1.0
  Ni  Ni447  1  0.89358667  0.15042833  0.23996910  1.0
  Ni  Ni448  1  0.89358667  0.48376167  0.23996910  1.0
  Ni  Ni449  1  0.89358667  0.81709500  0.23996910  1.0
  Ni  Ni450  1  0.10641333  0.18290500  0.35653430  1.0
  Ni  Ni451  1  0.10641333  0.51623833  0.35653430  1.0
  Ni  Ni452  1  0.10641333  0.84957167  0.35653430  1.0
  Ni  Ni453  1  0.43974667  0.18290500  0.35653430  1.0
  Ni  Ni454  1  0.43974667  0.51623833  0.35653430  1.0
  Ni  Ni455  1  0.43974667  0.84957167  0.35653430  1.0
  Ni  Ni456  1  0.77308000  0.18290500  0.35653430  1.0
  Ni  Ni457  1  0.77308000  0.51623833  0.35653430  1.0
  Ni  Ni458  1  0.77308000  0.84957167  0.35653430  1.0
  Ni  Ni459  1  0.30045233  0.21762233  0.27714590  1.0
  Ni  Ni460  1  0.30045233  0.55095567  0.27714590  1.0
  Ni  Ni461  1  0.30045233  0.88428900  0.27714590  1.0
  Ni  Ni462  1  0.63378567  0.21762233  0.27714590  1.0
  Ni  Ni463  1  0.63378567  0.55095567  0.27714590  1.0
  Ni  Ni464  1  0.63378567  0.88428900  0.27714590  1.0
  Ni  Ni465  1  0.96711900  0.21762233  0.27714590  1.0
  Ni  Ni466  1  0.96711900  0.55095567  0.27714590  1.0
  Ni  Ni467  1  0.96711900  0.88428900  0.27714590  1.0
  Ni  Ni468  1  0.03288100  0.11571100  0.31935750  1.0
  Ni  Ni469  1  0.03288100  0.44904433  0.31935750  1.0
  Ni  Ni470  1  0.03288100  0.78237767  0.31935750  1.0
  Ni  Ni471  1  0.36621433  0.11571100  0.31935750  1.0
  Ni  Ni472  1  0.36621433  0.44904433  0.31935750  1.0
  Ni  Ni473  1  0.36621433  0.78237767  0.31935750  1.0
  Ni  Ni474  1  0.69954767  0.11571100  0.31935750  1.0
  Ni  Ni475  1  0.69954767  0.44904433  0.31935750  1.0
  Ni  Ni476  1  0.69954767  0.78237767  0.31935750  1.0
  Ni  Ni477  1  0.23770967  0.32377433  0.31438790  1.0
  Ni  Ni478  1  0.23770967  0.65710767  0.31438790  1.0
  Ni  Ni479  1  0.23770967  0.99044100  0.31438790  1.0
  Ni  Ni480  1  0.57104300  0.32377433  0.31438790  1.0
  Ni  Ni481  1  0.57104300  0.65710767  0.31438790  1.0
  Ni  Ni482  1  0.57104300  0.99044100  0.31438790  1.0
  Ni  Ni483  1  0.90437633  0.32377433  0.31438790  1.0
  Ni  Ni484  1  0.90437633  0.65710767  0.31438790  1.0
  Ni  Ni485  1  0.90437633  0.99044100  0.31438790  1.0
  Ni  Ni486  1  0.09562367  0.00955900  0.28211550  1.0
  Ni  Ni487  1  0.09562367  0.34289233  0.28211550  1.0
  Ni  Ni488  1  0.09562367  0.67622567  0.28211550  1.0
  Ni  Ni489  1  0.42895700  0.00955900  0.28211550  1.0
  Ni  Ni490  1  0.42895700  0.34289233  0.28211550  1.0
  Ni  Ni491  1  0.42895700  0.67622567  0.28211550  1.0
  Ni  Ni492  1  0.76229033  0.00955900  0.28211550  1.0
  Ni  Ni493  1  0.76229033  0.34289233  0.28211550  1.0
  Ni  Ni494  1  0.76229033  0.67622567  0.28211550  1.0
  Ni  Ni495  1  0.22782967  0.15431533  0.37103010  1.0
  Ni  Ni496  1  0.22782967  0.48764867  0.37103010  1.0
  Ni  Ni497  1  0.22782967  0.82098200  0.37103010  1.0
  Ni  Ni498  1  0.56116300  0.15431533  0.37103010  1.0
  Ni  Ni499  1  0.56116300  0.48764867  0.37103010  1.0
  Ni  Ni500  1  0.56116300  0.82098200  0.37103010  1.0
  Ni  Ni501  1  0.89449633  0.15431533  0.37103010  1.0
  Ni  Ni502  1  0.89449633  0.48764867  0.37103010  1.0
  Ni  Ni503  1  0.89449633  0.82098200  0.37103010  1.0
  Ni  Ni504  1  0.10550367  0.17901800  0.22547330  1.0
  Ni  Ni505  1  0.10550367  0.51235133  0.22547330  1.0
  Ni  Ni506  1  0.10550367  0.84568467  0.22547330  1.0
  Ni  Ni507  1  0.43883700  0.17901800  0.22547330  1.0
  Ni  Ni508  1  0.43883700  0.51235133  0.22547330  1.0
  Ni  Ni509  1  0.43883700  0.84568467  0.22547330  1.0
  Ni  Ni510  1  0.77217033  0.17901800  0.22547330  1.0
  Ni  Ni511  1  0.77217033  0.51235133  0.22547330  1.0
  Ni  Ni512  1  0.77217033  0.84568467  0.22547330  1.0
  Ni  Ni513  1  0.28788133  0.05237900  0.28746190  1.0
  Ni  Ni514  1  0.28788133  0.38571233  0.28746190  1.0
  Ni  Ni515  1  0.28788133  0.71904567  0.28746190  1.0
  Ni  Ni516  1  0.62121467  0.05237900  0.28746190  1.0
  Ni  Ni517  1  0.62121467  0.38571233  0.28746190  1.0
  Ni  Ni518  1  0.62121467  0.71904567  0.28746190  1.0
  Ni  Ni519  1  0.95454800  0.05237900  0.28746190  1.0
  Ni  Ni520  1  0.95454800  0.38571233  0.28746190  1.0
  Ni  Ni521  1  0.95454800  0.71904567  0.28746190  1.0
