# generated using pymatgen
data_Hf8Ni21
_symmetry_space_group_name_H-M   'P 1'
_cell_length_a   19.22936700
_cell_length_b   23.95649223
_cell_length_c   34.11265564
_cell_angle_alpha   75.13001413
_cell_angle_beta   68.12599949
_cell_angle_gamma   75.46243674
_symmetry_Int_Tables_number   1
_chemical_formula_structural   Hf8Ni21
_chemical_formula_sum   'Hf144 Ni378'
_cell_volume   13881.68805932
_cell_formula_units_Z   18
loop_
 _symmetry_equiv_pos_site_id
 _symmetry_equiv_pos_as_xyz
  1  'x, y, z'
loop_
 _atom_site_type_symbol
 _atom_site_label
 _atom_site_symmetry_multiplicity
 _atom_site_fract_x
 _atom_site_fract_y
 _atom_site_fract_z
 _atom_site_occupancy
  Hf  Hf0  1  0.25101133  0.02100633  0.11644700  1.0
  Hf  Hf1  1  0.25101133  0.35433967  0.11644700  1.0
  Hf  Hf2  1  0.25101133  0.68767300  0.11644700  1.0
  Hf  Hf3  1  0.58434467  0.02100633  0.11644700  1.0
  Hf  Hf4  1  0.58434467  0.35433967  0.11644700  1.0
  Hf  Hf5  1  0.58434467  0.68767300  0.11644700  1.0
  Hf  Hf6  1  0.91767800  0.02100633  0.11644700  1.0
  Hf  Hf7  1  0.91767800  0.35433967  0.11644700  1.0
  Hf  Hf8  1  0.91767800  0.68767300  0.11644700  1.0
  Hf  Hf9  1  0.08232200  0.31232700  0.13355300  1.0
  Hf  Hf10  1  0.08232200  0.64566033  0.13355300  1.0
  Hf  Hf11  1  0.08232200  0.97899367  0.13355300  1.0
  Hf  Hf12  1  0.41565533  0.31232700  0.13355300  1.0
  Hf  Hf13  1  0.41565533  0.64566033  0.13355300  1.0
  Hf  Hf14  1  0.41565533  0.97899367  0.13355300  1.0
  Hf  Hf15  1  0.74898867  0.31232700  0.13355300  1.0
  Hf  Hf16  1  0.74898867  0.64566033  0.13355300  1.0
  Hf  Hf17  1  0.74898867  0.97899367  0.13355300  1.0
  Hf  Hf18  1  0.18960400  0.17887633  0.18632725  1.0
  Hf  Hf19  1  0.18960400  0.51220967  0.18632725  1.0
  Hf  Hf20  1  0.18960400  0.84554300  0.18632725  1.0
  Hf  Hf21  1  0.52293733  0.17887633  0.18632725  1.0
  Hf  Hf22  1  0.52293733  0.51220967  0.18632725  1.0
  Hf  Hf23  1  0.52293733  0.84554300  0.18632725  1.0
  Hf  Hf24  1  0.85627067  0.17887633  0.18632725  1.0
  Hf  Hf25  1  0.85627067  0.51220967  0.18632725  1.0
  Hf  Hf26  1  0.85627067  0.84554300  0.18632725  1.0
  Hf  Hf27  1  0.14372933  0.15445700  0.06367275  1.0
  Hf  Hf28  1  0.14372933  0.48779033  0.06367275  1.0
  Hf  Hf29  1  0.14372933  0.82112367  0.06367275  1.0
  Hf  Hf30  1  0.47706267  0.15445700  0.06367275  1.0
  Hf  Hf31  1  0.47706267  0.48779033  0.06367275  1.0
  Hf  Hf32  1  0.47706267  0.82112367  0.06367275  1.0
  Hf  Hf33  1  0.81039600  0.15445700  0.06367275  1.0
  Hf  Hf34  1  0.81039600  0.48779033  0.06367275  1.0
  Hf  Hf35  1  0.81039600  0.82112367  0.06367275  1.0
  Hf  Hf36  1  0.31007367  0.19889433  0.04638125  1.0
  Hf  Hf37  1  0.31007367  0.53222767  0.04638125  1.0
  Hf  Hf38  1  0.31007367  0.86556100  0.04638125  1.0
  Hf  Hf39  1  0.64340700  0.19889433  0.04638125  1.0
  Hf  Hf40  1  0.64340700  0.53222767  0.04638125  1.0
  Hf  Hf41  1  0.64340700  0.86556100  0.04638125  1.0
  Hf  Hf42  1  0.97674033  0.19889433  0.04638125  1.0
  Hf  Hf43  1  0.97674033  0.53222767  0.04638125  1.0
  Hf  Hf44  1  0.97674033  0.86556100  0.04638125  1.0
  Hf  Hf45  1  0.02325967  0.13443900  0.20361875  1.0
  Hf  Hf46  1  0.02325967  0.46777233  0.20361875  1.0
  Hf  Hf47  1  0.02325967  0.80110567  0.20361875  1.0
  Hf  Hf48  1  0.35659300  0.13443900  0.20361875  1.0
  Hf  Hf49  1  0.35659300  0.46777233  0.20361875  1.0
  Hf  Hf50  1  0.35659300  0.80110567  0.20361875  1.0
  Hf  Hf51  1  0.68992633  0.13443900  0.20361875  1.0
  Hf  Hf52  1  0.68992633  0.46777233  0.20361875  1.0
  Hf  Hf53  1  0.68992633  0.80110567  0.20361875  1.0
  Hf  Hf54  1  0.25073067  0.31258967  0.22318075  1.0
  Hf  Hf55  1  0.25073067  0.64592300  0.22318075  1.0
  Hf  Hf56  1  0.25073067  0.97925633  0.22318075  1.0
  Hf  Hf57  1  0.58406400  0.31258967  0.22318075  1.0
  Hf  Hf58  1  0.58406400  0.64592300  0.22318075  1.0
  Hf  Hf59  1  0.58406400  0.97925633  0.22318075  1.0
  Hf  Hf60  1  0.91739733  0.31258967  0.22318075  1.0
  Hf  Hf61  1  0.91739733  0.64592300  0.22318075  1.0
  Hf  Hf62  1  0.91739733  0.97925633  0.22318075  1.0
  Hf  Hf63  1  0.08260267  0.02074367  0.02681925  1.0
  Hf  Hf64  1  0.08260267  0.35407700  0.02681925  1.0
  Hf  Hf65  1  0.08260267  0.68741033  0.02681925  1.0
  Hf  Hf66  1  0.41593600  0.02074367  0.02681925  1.0
  Hf  Hf67  1  0.41593600  0.35407700  0.02681925  1.0
  Hf  Hf68  1  0.41593600  0.68741033  0.02681925  1.0
  Hf  Hf69  1  0.74926933  0.02074367  0.02681925  1.0
  Hf  Hf70  1  0.74926933  0.35407700  0.02681925  1.0
  Hf  Hf71  1  0.74926933  0.68741033  0.02681925  1.0
  Ni  Ni72  1  0.00000000  0.16666667  0.12500000  1.0
  Ni  Ni73  1  0.00000000  0.50000000  0.12500000  1.0
  Ni  Ni74  1  0.00000000  0.83333333  0.12500000  1.0
  Ni  Ni75  1  0.33333333  0.16666667  0.12500000  1.0
  Ni  Ni76  1  0.33333333  0.50000000  0.12500000  1.0
  Ni  Ni77  1  0.33333333  0.83333333  0.12500000  1.0
  Ni  Ni78  1  0.66666667  0.16666667  0.12500000  1.0
  Ni  Ni79  1  0.66666667  0.50000000  0.12500000  1.0
  Ni  Ni80  1  0.66666667  0.83333333  0.12500000  1.0
  Ni  Ni81  1  0.17143733  0.03915933  0.06448950  1.0
  Ni  Ni82  1  0.17143733  0.37249267  0.06448950  1.0
  Ni  Ni83  1  0.17143733  0.70582600  0.06448950  1.0
  Ni  Ni84  1  0.50477067  0.03915933  0.06448950  1.0
  Ni  Ni85  1  0.50477067  0.37249267  0.06448950  1.0
  Ni  Ni86  1  0.50477067  0.70582600  0.06448950  1.0
  Ni  Ni87  1  0.83810400  0.03915933  0.06448950  1.0
  Ni  Ni88  1  0.83810400  0.37249267  0.06448950  1.0
  Ni  Ni89  1  0.83810400  0.70582600  0.06448950  1.0
  Ni  Ni90  1  0.16189600  0.29417400  0.18551050  1.0
  Ni  Ni91  1  0.16189600  0.62750733  0.18551050  1.0
  Ni  Ni92  1  0.16189600  0.96084067  0.18551050  1.0
  Ni  Ni93  1  0.49522933  0.29417400  0.18551050  1.0
  Ni  Ni94  1  0.49522933  0.62750733  0.18551050  1.0
  Ni  Ni95  1  0.49522933  0.96084067  0.18551050  1.0
  Ni  Ni96  1  0.82856267  0.29417400  0.18551050  1.0
  Ni  Ni97  1  0.82856267  0.62750733  0.18551050  1.0
  Ni  Ni98  1  0.82856267  0.96084067  0.18551050  1.0
  Ni  Ni99  1  0.30029600  0.07240200  0.16366900  1.0
  Ni  Ni100  1  0.30029600  0.40573533  0.16366900  1.0
  Ni  Ni101  1  0.30029600  0.73906867  0.16366900  1.0
  Ni  Ni102  1  0.63362933  0.07240200  0.16366900  1.0
  Ni  Ni103  1  0.63362933  0.40573533  0.16366900  1.0
  Ni  Ni104  1  0.63362933  0.73906867  0.16366900  1.0
  Ni  Ni105  1  0.96696267  0.07240200  0.16366900  1.0
  Ni  Ni106  1  0.96696267  0.40573533  0.16366900  1.0
  Ni  Ni107  1  0.96696267  0.73906867  0.16366900  1.0
  Ni  Ni108  1  0.03303733  0.26093133  0.08633100  1.0
  Ni  Ni109  1  0.03303733  0.59426467  0.08633100  1.0
  Ni  Ni110  1  0.03303733  0.92759800  0.08633100  1.0
  Ni  Ni111  1  0.36637067  0.26093133  0.08633100  1.0
  Ni  Ni112  1  0.36637067  0.59426467  0.08633100  1.0
  Ni  Ni113  1  0.36637067  0.92759800  0.08633100  1.0
  Ni  Ni114  1  0.69970400  0.26093133  0.08633100  1.0
  Ni  Ni115  1  0.69970400  0.59426467  0.08633100  1.0
  Ni  Ni116  1  0.69970400  0.92759800  0.08633100  1.0
  Ni  Ni117  1  0.23206133  0.08486133  0.23962950  1.0
  Ni  Ni118  1  0.23206133  0.41819467  0.23962950  1.0
  Ni  Ni119  1  0.23206133  0.75152800  0.23962950  1.0
  Ni  Ni120  1  0.56539467  0.08486133  0.23962950  1.0
  Ni  Ni121  1  0.56539467  0.41819467  0.23962950  1.0
  Ni  Ni122  1  0.56539467  0.75152800  0.23962950  1.0
  Ni  Ni123  1  0.89872800  0.08486133  0.23962950  1.0
  Ni  Ni124  1  0.89872800  0.41819467  0.23962950  1.0
  Ni  Ni125  1  0.89872800  0.75152800  0.23962950  1.0
  Ni  Ni126  1  0.10127200  0.24847200  0.01037050  1.0
  Ni  Ni127  1  0.10127200  0.58180533  0.01037050  1.0
  Ni  Ni128  1  0.10127200  0.91513867  0.01037050  1.0
  Ni  Ni129  1  0.43460533  0.24847200  0.01037050  1.0
  Ni  Ni130  1  0.43460533  0.58180533  0.01037050  1.0
  Ni  Ni131  1  0.43460533  0.91513867  0.01037050  1.0
  Ni  Ni132  1  0.76793867  0.24847200  0.01037050  1.0
  Ni  Ni133  1  0.76793867  0.58180533  0.01037050  1.0
  Ni  Ni134  1  0.76793867  0.91513867  0.01037050  1.0
  Ni  Ni135  1  0.28788133  0.09630467  0.03928425  1.0
  Ni  Ni136  1  0.28788133  0.42963800  0.03928425  1.0
  Ni  Ni137  1  0.28788133  0.76297133  0.03928425  1.0
  Ni  Ni138  1  0.62121467  0.09630467  0.03928425  1.0
  Ni  Ni139  1  0.62121467  0.42963800  0.03928425  1.0
  Ni  Ni140  1  0.62121467  0.76297133  0.03928425  1.0
  Ni  Ni141  1  0.95454800  0.09630467  0.03928425  1.0
  Ni  Ni142  1  0.95454800  0.42963800  0.03928425  1.0
  Ni  Ni143  1  0.95454800  0.76297133  0.03928425  1.0
  Ni  Ni144  1  0.03968600  0.01793667  0.21247400  1.0
  Ni  Ni145  1  0.03968600  0.35127000  0.21247400  1.0
  Ni  Ni146  1  0.03968600  0.68460333  0.21247400  1.0
  Ni  Ni147  1  0.37301933  0.01793667  0.21247400  1.0
  Ni  Ni148  1  0.37301933  0.35127000  0.21247400  1.0
  Ni  Ni149  1  0.37301933  0.68460333  0.21247400  1.0
  Ni  Ni150  1  0.70635267  0.01793667  0.21247400  1.0
  Ni  Ni151  1  0.70635267  0.35127000  0.21247400  1.0
  Ni  Ni152  1  0.70635267  0.68460333  0.21247400  1.0
  Ni  Ni153  1  0.29364733  0.31539667  0.03752600  1.0
  Ni  Ni154  1  0.29364733  0.64873000  0.03752600  1.0
  Ni  Ni155  1  0.29364733  0.98206333  0.03752600  1.0
  Ni  Ni156  1  0.62698067  0.31539667  0.03752600  1.0
  Ni  Ni157  1  0.62698067  0.64873000  0.03752600  1.0
  Ni  Ni158  1  0.62698067  0.98206333  0.03752600  1.0
  Ni  Ni159  1  0.96031400  0.31539667  0.03752600  1.0
  Ni  Ni160  1  0.96031400  0.64873000  0.03752600  1.0
  Ni  Ni161  1  0.96031400  0.98206333  0.03752600  1.0
  Ni  Ni162  1  0.16110033  0.06871733  0.19409125  1.0
  Ni  Ni163  1  0.16110033  0.40205067  0.19409125  1.0
  Ni  Ni164  1  0.16110033  0.73538400  0.19409125  1.0
  Ni  Ni165  1  0.49443367  0.06871733  0.19409125  1.0
  Ni  Ni166  1  0.49443367  0.40205067  0.19409125  1.0
  Ni  Ni167  1  0.49443367  0.73538400  0.19409125  1.0
  Ni  Ni168  1  0.82776700  0.06871733  0.19409125  1.0
  Ni  Ni169  1  0.82776700  0.40205067  0.19409125  1.0
  Ni  Ni170  1  0.82776700  0.73538400  0.19409125  1.0
  Ni  Ni171  1  0.17223300  0.26461600  0.05590875  1.0
  Ni  Ni172  1  0.17223300  0.59794933  0.05590875  1.0
  Ni  Ni173  1  0.17223300  0.93128267  0.05590875  1.0
  Ni  Ni174  1  0.50556633  0.26461600  0.05590875  1.0
  Ni  Ni175  1  0.50556633  0.59794933  0.05590875  1.0
  Ni  Ni176  1  0.50556633  0.93128267  0.05590875  1.0
  Ni  Ni177  1  0.83889967  0.26461600  0.05590875  1.0
  Ni  Ni178  1  0.83889967  0.59794933  0.05590875  1.0
  Ni  Ni179  1  0.83889967  0.93128267  0.05590875  1.0
  Ni  Ni180  1  0.10641333  0.08089933  0.13717875  1.0
  Ni  Ni181  1  0.10641333  0.41423267  0.13717875  1.0
  Ni  Ni182  1  0.10641333  0.74756600  0.13717875  1.0
  Ni  Ni183  1  0.43974667  0.08089933  0.13717875  1.0
  Ni  Ni184  1  0.43974667  0.41423267  0.13717875  1.0
  Ni  Ni185  1  0.43974667  0.74756600  0.13717875  1.0
  Ni  Ni186  1  0.77308000  0.08089933  0.13717875  1.0
  Ni  Ni187  1  0.77308000  0.41423267  0.13717875  1.0
  Ni  Ni188  1  0.77308000  0.74756600  0.13717875  1.0
  Ni  Ni189  1  0.22692000  0.25243400  0.11282125  1.0
  Ni  Ni190  1  0.22692000  0.58576733  0.11282125  1.0
  Ni  Ni191  1  0.22692000  0.91910067  0.11282125  1.0
  Ni  Ni192  1  0.56025333  0.25243400  0.11282125  1.0
  Ni  Ni193  1  0.56025333  0.58576733  0.11282125  1.0
  Ni  Ni194  1  0.56025333  0.91910067  0.11282125  1.0
  Ni  Ni195  1  0.89358667  0.25243400  0.11282125  1.0
  Ni  Ni196  1  0.89358667  0.58576733  0.11282125  1.0
  Ni  Ni197  1  0.89358667  0.91910067  0.11282125  1.0
  Ni  Ni198  1  0.03288100  0.08613200  0.08678325  1.0
  Ni  Ni199  1  0.03288100  0.41946533  0.08678325  1.0
  Ni  Ni200  1  0.03288100  0.75279867  0.08678325  1.0
  Ni  Ni201  1  0.36621433  0.08613200  0.08678325  1.0
  Ni  Ni202  1  0.36621433  0.41946533  0.08678325  1.0
  Ni  Ni203  1  0.36621433  0.75279867  0.08678325  1.0
  Ni  Ni204  1  0.69954767  0.08613200  0.08678325  1.0
  Ni  Ni205  1  0.69954767  0.41946533  0.08678325  1.0
  Ni  Ni206  1  0.69954767  0.75279867  0.08678325  1.0
  Ni  Ni207  1  0.30045233  0.24720133  0.16321675  1.0
  Ni  Ni208  1  0.30045233  0.58053467  0.16321675  1.0
  Ni  Ni209  1  0.30045233  0.91386800  0.16321675  1.0
  Ni  Ni210  1  0.63378567  0.24720133  0.16321675  1.0
  Ni  Ni211  1  0.63378567  0.58053467  0.16321675  1.0
  Ni  Ni212  1  0.63378567  0.91386800  0.16321675  1.0
  Ni  Ni213  1  0.96711900  0.24720133  0.16321675  1.0
  Ni  Ni214  1  0.96711900  0.58053467  0.16321675  1.0
  Ni  Ni215  1  0.96711900  0.91386800  0.16321675  1.0
  Ni  Ni216  1  0.09562367  0.13021400  0.00716925  1.0
  Ni  Ni217  1  0.09562367  0.46354733  0.00716925  1.0
  Ni  Ni218  1  0.09562367  0.79688067  0.00716925  1.0
  Ni  Ni219  1  0.42895700  0.13021400  0.00716925  1.0
  Ni  Ni220  1  0.42895700  0.46354733  0.00716925  1.0
  Ni  Ni221  1  0.42895700  0.79688067  0.00716925  1.0
  Ni  Ni222  1  0.76229033  0.13021400  0.00716925  1.0
  Ni  Ni223  1  0.76229033  0.46354733  0.00716925  1.0
  Ni  Ni224  1  0.76229033  0.79688067  0.00716925  1.0
  Ni  Ni225  1  0.23770967  0.20311933  0.24283075  1.0
  Ni  Ni226  1  0.23770967  0.53645267  0.24283075  1.0
  Ni  Ni227  1  0.23770967  0.86978600  0.24283075  1.0
  Ni  Ni228  1  0.57104300  0.20311933  0.24283075  1.0
  Ni  Ni229  1  0.57104300  0.53645267  0.24283075  1.0
  Ni  Ni230  1  0.57104300  0.86978600  0.24283075  1.0
  Ni  Ni231  1  0.90437633  0.20311933  0.24283075  1.0
  Ni  Ni232  1  0.90437633  0.53645267  0.24283075  1.0
  Ni  Ni233  1  0.90437633  0.86978600  0.24283075  1.0
  Ni  Ni234  1  0.10550367  0.19968467  0.13426350  1.0
  Ni  Ni235  1  0.10550367  0.53301800  0.13426350  1.0
  Ni  Ni236  1  0.10550367  0.86635133  0.13426350  1.0
  Ni  Ni237  1  0.43883700  0.19968467  0.13426350  1.0
  Ni  Ni238  1  0.43883700  0.53301800  0.13426350  1.0
  Ni  Ni239  1  0.43883700  0.86635133  0.13426350  1.0
  Ni  Ni240  1  0.77217033  0.19968467  0.13426350  1.0
  Ni  Ni241  1  0.77217033  0.53301800  0.13426350  1.0
  Ni  Ni242  1  0.77217033  0.86635133  0.13426350  1.0
  Ni  Ni243  1  0.22782967  0.13364867  0.11573650  1.0
  Ni  Ni244  1  0.22782967  0.46698200  0.11573650  1.0
  Ni  Ni245  1  0.22782967  0.80031533  0.11573650  1.0
  Ni  Ni246  1  0.56116300  0.13364867  0.11573650  1.0
  Ni  Ni247  1  0.56116300  0.46698200  0.11573650  1.0
  Ni  Ni248  1  0.56116300  0.80031533  0.11573650  1.0
  Ni  Ni249  1  0.89449633  0.13364867  0.11573650  1.0
  Ni  Ni250  1  0.89449633  0.46698200  0.11573650  1.0
  Ni  Ni251  1  0.89449633  0.80031533  0.11573650  1.0
  Ni  Ni252  1  0.04545200  0.23702867  0.21071575  1.0
  Ni  Ni253  1  0.04545200  0.57036200  0.21071575  1.0
  Ni  Ni254  1  0.04545200  0.90369533  0.21071575  1.0
  Ni  Ni255  1  0.37878533  0.23702867  0.21071575  1.0
  Ni  Ni256  1  0.37878533  0.57036200  0.21071575  1.0
  Ni  Ni257  1  0.37878533  0.90369533  0.21071575  1.0
  Ni  Ni258  1  0.71211867  0.23702867  0.21071575  1.0
  Ni  Ni259  1  0.71211867  0.57036200  0.21071575  1.0
  Ni  Ni260  1  0.71211867  0.90369533  0.21071575  1.0
  Hf  Hf261  1  0.25101133  0.02100633  0.36644700  1.0
  Hf  Hf262  1  0.25101133  0.35433967  0.36644700  1.0
  Hf  Hf263  1  0.25101133  0.68767300  0.36644700  1.0
  Hf  Hf264  1  0.58434467  0.02100633  0.36644700  1.0
  Hf  Hf265  1  0.58434467  0.35433967  0.36644700  1.0
  Hf  Hf266  1  0.58434467  0.68767300  0.36644700  1.0
  Hf  Hf267  1  0.91767800  0.02100633  0.36644700  1.0
  Hf  Hf268  1  0.91767800  0.35433967  0.36644700  1.0
  Hf  Hf269  1  0.91767800  0.68767300  0.36644700  1.0
  Hf  Hf270  1  0.08232200  0.31232700  0.38355300  1.0
  Hf  Hf271  1  0.08232200  0.64566033  0.38355300  1.0
  Hf  Hf272  1  0.08232200  0.97899367  0.38355300  1.0
  Hf  Hf273  1  0.41565533  0.31232700  0.38355300  1.0
  Hf  Hf274  1  0.41565533  0.64566033  0.38355300  1.0
  Hf  Hf275  1  0.41565533  0.97899367  0.38355300  1.0
  Hf  Hf276  1  0.74898867  0.31232700  0.38355300  1.0
  Hf  Hf277  1  0.74898867  0.64566033  0.38355300  1.0
  Hf  Hf278  1  0.74898867  0.97899367  0.38355300  1.0
  Hf  Hf279  1  0.18960400  0.17887633  0.43632725  1.0
  Hf  Hf280  1  0.18960400  0.51220967  0.43632725  1.0
  Hf  Hf281  1  0.18960400  0.84554300  0.43632725  1.0
  Hf  Hf282  1  0.52293733  0.17887633  0.43632725  1.0
  Hf  Hf283  1  0.52293733  0.51220967  0.43632725  1.0
  Hf  Hf284  1  0.52293733  0.84554300  0.43632725  1.0
  Hf  Hf285  1  0.85627067  0.17887633  0.43632725  1.0
  Hf  Hf286  1  0.85627067  0.51220967  0.43632725  1.0
  Hf  Hf287  1  0.85627067  0.84554300  0.43632725  1.0
  Hf  Hf288  1  0.14372933  0.15445700  0.31367275  1.0
  Hf  Hf289  1  0.14372933  0.48779033  0.31367275  1.0
  Hf  Hf290  1  0.14372933  0.82112367  0.31367275  1.0
  Hf  Hf291  1  0.47706267  0.15445700  0.31367275  1.0
  Hf  Hf292  1  0.47706267  0.48779033  0.31367275  1.0
  Hf  Hf293  1  0.47706267  0.82112367  0.31367275  1.0
  Hf  Hf294  1  0.81039600  0.15445700  0.31367275  1.0
  Hf  Hf295  1  0.81039600  0.48779033  0.31367275  1.0
  Hf  Hf296  1  0.81039600  0.82112367  0.31367275  1.0
  Hf  Hf297  1  0.31007367  0.19889433  0.29638125  1.0
  Hf  Hf298  1  0.31007367  0.53222767  0.29638125  1.0
  Hf  Hf299  1  0.31007367  0.86556100  0.29638125  1.0
  Hf  Hf300  1  0.64340700  0.19889433  0.29638125  1.0
  Hf  Hf301  1  0.64340700  0.53222767  0.29638125  1.0
  Hf  Hf302  1  0.64340700  0.86556100  0.29638125  1.0
  Hf  Hf303  1  0.97674033  0.19889433  0.29638125  1.0
  Hf  Hf304  1  0.97674033  0.53222767  0.29638125  1.0
  Hf  Hf305  1  0.97674033  0.86556100  0.29638125  1.0
  Hf  Hf306  1  0.02325967  0.13443900  0.45361875  1.0
  Hf  Hf307  1  0.02325967  0.46777233  0.45361875  1.0
  Hf  Hf308  1  0.02325967  0.80110567  0.45361875  1.0
  Hf  Hf309  1  0.35659300  0.13443900  0.45361875  1.0
  Hf  Hf310  1  0.35659300  0.46777233  0.45361875  1.0
  Hf  Hf311  1  0.35659300  0.80110567  0.45361875  1.0
  Hf  Hf312  1  0.68992633  0.13443900  0.45361875  1.0
  Hf  Hf313  1  0.68992633  0.46777233  0.45361875  1.0
  Hf  Hf314  1  0.68992633  0.80110567  0.45361875  1.0
  Hf  Hf315  1  0.25073067  0.31258967  0.47318075  1.0
  Hf  Hf316  1  0.25073067  0.64592300  0.47318075  1.0
  Hf  Hf317  1  0.25073067  0.97925633  0.47318075  1.0
  Hf  Hf318  1  0.58406400  0.31258967  0.47318075  1.0
  Hf  Hf319  1  0.58406400  0.64592300  0.47318075  1.0
  Hf  Hf320  1  0.58406400  0.97925633  0.47318075  1.0
  Hf  Hf321  1  0.91739733  0.31258967  0.47318075  1.0
  Hf  Hf322  1  0.91739733  0.64592300  0.47318075  1.0
  Hf  Hf323  1  0.91739733  0.97925633  0.47318075  1.0
  Hf  Hf324  1  0.08260267  0.02074367  0.27681925  1.0
  Hf  Hf325  1  0.08260267  0.35407700  0.27681925  1.0
  Hf  Hf326  1  0.08260267  0.68741033  0.27681925  1.0
  Hf  Hf327  1  0.41593600  0.02074367  0.27681925  1.0
  Hf  Hf328  1  0.41593600  0.35407700  0.27681925  1.0
  Hf  Hf329  1  0.41593600  0.68741033  0.27681925  1.0
  Hf  Hf330  1  0.74926933  0.02074367  0.27681925  1.0
  Hf  Hf331  1  0.74926933  0.35407700  0.27681925  1.0
  Hf  Hf332  1  0.74926933  0.68741033  0.27681925  1.0
  Ni  Ni333  1  0.00000000  0.16666667  0.37500000  1.0
  Ni  Ni334  1  0.00000000  0.50000000  0.37500000  1.0
  Ni  Ni335  1  0.00000000  0.83333333  0.37500000  1.0
  Ni  Ni336  1  0.33333333  0.16666667  0.37500000  1.0
  Ni  Ni337  1  0.33333333  0.50000000  0.37500000  1.0
  Ni  Ni338  1  0.33333333  0.83333333  0.37500000  1.0
  Ni  Ni339  1  0.66666667  0.16666667  0.37500000  1.0
  Ni  Ni340  1  0.66666667  0.50000000  0.37500000  1.0
  Ni  Ni341  1  0.66666667  0.83333333  0.37500000  1.0
  Ni  Ni342  1  0.17143733  0.03915933  0.31448950  1.0
  Ni  Ni343  1  0.17143733  0.37249267  0.31448950  1.0
  Ni  Ni344  1  0.17143733  0.70582600  0.31448950  1.0
  Ni  Ni345  1  0.50477067  0.03915933  0.31448950  1.0
  Ni  Ni346  1  0.50477067  0.37249267  0.31448950  1.0
  Ni  Ni347  1  0.50477067  0.70582600  0.31448950  1.0
  Ni  Ni348  1  0.83810400  0.03915933  0.31448950  1.0
  Ni  Ni349  1  0.83810400  0.37249267  0.31448950  1.0
  Ni  Ni350  1  0.83810400  0.70582600  0.31448950  1.0
  Ni  Ni351  1  0.16189600  0.29417400  0.43551050  1.0
  Ni  Ni352  1  0.16189600  0.62750733  0.43551050  1.0
  Ni  Ni353  1  0.16189600  0.96084067  0.43551050  1.0
  Ni  Ni354  1  0.49522933  0.29417400  0.43551050  1.0
  Ni  Ni355  1  0.49522933  0.62750733  0.43551050  1.0
  Ni  Ni356  1  0.49522933  0.96084067  0.43551050  1.0
  Ni  Ni357  1  0.82856267  0.29417400  0.43551050  1.0
  Ni  Ni358  1  0.82856267  0.62750733  0.43551050  1.0
  Ni  Ni359  1  0.82856267  0.96084067  0.43551050  1.0
  Ni  Ni360  1  0.30029600  0.07240200  0.41366900  1.0
  Ni  Ni361  1  0.30029600  0.40573533  0.41366900  1.0
  Ni  Ni362  1  0.30029600  0.73906867  0.41366900  1.0
  Ni  Ni363  1  0.63362933  0.07240200  0.41366900  1.0
  Ni  Ni364  1  0.63362933  0.40573533  0.41366900  1.0
  Ni  Ni365  1  0.63362933  0.73906867  0.41366900  1.0
  Ni  Ni366  1  0.96696267  0.07240200  0.41366900  1.0
  Ni  Ni367  1  0.96696267  0.40573533  0.41366900  1.0
  Ni  Ni368  1  0.96696267  0.73906867  0.41366900  1.0
  Ni  Ni369  1  0.03303733  0.26093133  0.33633100  1.0
  Ni  Ni370  1  0.03303733  0.59426467  0.33633100  1.0
  Ni  Ni371  1  0.03303733  0.92759800  0.33633100  1.0
  Ni  Ni372  1  0.36637067  0.26093133  0.33633100  1.0
  Ni  Ni373  1  0.36637067  0.59426467  0.33633100  1.0
  Ni  Ni374  1  0.36637067  0.92759800  0.33633100  1.0
  Ni  Ni375  1  0.69970400  0.26093133  0.33633100  1.0
  Ni  Ni376  1  0.69970400  0.59426467  0.33633100  1.0
  Ni  Ni377  1  0.69970400  0.92759800  0.33633100  1.0
  Ni  Ni378  1  0.23206133  0.08486133  0.48962950  1.0
  Ni  Ni379  1  0.23206133  0.41819467  0.48962950  1.0
  Ni  Ni380  1  0.23206133  0.75152800  0.48962950  1.0
  Ni  Ni381  1  0.56539467  0.08486133  0.48962950  1.0
  Ni  Ni382  1  0.56539467  0.41819467  0.48962950  1.0
  Ni  Ni383  1  0.56539467  0.75152800  0.48962950  1.0
  Ni  Ni384  1  0.89872800  0.08486133  0.48962950  1.0
  Ni  Ni385  1  0.89872800  0.41819467  0.48962950  1.0
  Ni  Ni386  1  0.89872800  0.75152800  0.48962950  1.0
  Ni  Ni387  1  0.10127200  0.24847200  0.26037050  1.0
  Ni  Ni388  1  0.10127200  0.58180533  0.26037050  1.0
  Ni  Ni389  1  0.10127200  0.91513867  0.26037050  1.0
  Ni  Ni390  1  0.43460533  0.24847200  0.26037050  1.0
  Ni  Ni391  1  0.43460533  0.58180533  0.26037050  1.0
  Ni  Ni392  1  0.43460533  0.91513867  0.26037050  1.0
  Ni  Ni393  1  0.76793867  0.24847200  0.26037050  1.0
  Ni  Ni394  1  0.76793867  0.58180533  0.26037050  1.0
  Ni  Ni395  1  0.76793867  0.91513867  0.26037050  1.0
  Ni  Ni396  1  0.28788133  0.09630467  0.28928425  1.0
  Ni  Ni397  1  0.28788133  0.42963800  0.28928425  1.0
  Ni  Ni398  1  0.28788133  0.76297133  0.28928425  1.0
  Ni  Ni399  1  0.62121467  0.09630467  0.28928425  1.0
  Ni  Ni400  1  0.62121467  0.42963800  0.28928425  1.0
  Ni  Ni401  1  0.62121467  0.76297133  0.28928425  1.0
  Ni  Ni402  1  0.95454800  0.09630467  0.28928425  1.0
  Ni  Ni403  1  0.95454800  0.42963800  0.28928425  1.0
  Ni  Ni404  1  0.95454800  0.76297133  0.28928425  1.0
  Ni  Ni405  1  0.03968600  0.01793667  0.46247400  1.0
  Ni  Ni406  1  0.03968600  0.35127000  0.46247400  1.0
  Ni  Ni407  1  0.03968600  0.68460333  0.46247400  1.0
  Ni  Ni408  1  0.37301933  0.01793667  0.46247400  1.0
  Ni  Ni409  1  0.37301933  0.35127000  0.46247400  1.0
  Ni  Ni410  1  0.37301933  0.68460333  0.46247400  1.0
  Ni  Ni411  1  0.70635267  0.01793667  0.46247400  1.0
  Ni  Ni412  1  0.70635267  0.35127000  0.46247400  1.0
  Ni  Ni413  1  0.70635267  0.68460333  0.46247400  1.0
  Ni  Ni414  1  0.29364733  0.31539667  0.28752600  1.0
  Ni  Ni415  1  0.29364733  0.64873000  0.28752600  1.0
  Ni  Ni416  1  0.29364733  0.98206333  0.28752600  1.0
  Ni  Ni417  1  0.62698067  0.31539667  0.28752600  1.0
  Ni  Ni418  1  0.62698067  0.64873000  0.28752600  1.0
  Ni  Ni419  1  0.62698067  0.98206333  0.28752600  1.0
  Ni  Ni420  1  0.96031400  0.31539667  0.28752600  1.0
  Ni  Ni421  1  0.96031400  0.64873000  0.28752600  1.0
  Ni  Ni422  1  0.96031400  0.98206333  0.28752600  1.0
  Ni  Ni423  1  0.16110033  0.06871733  0.44409125  1.0
  Ni  Ni424  1  0.16110033  0.40205067  0.44409125  1.0
  Ni  Ni425  1  0.16110033  0.73538400  0.44409125  1.0
  Ni  Ni426  1  0.49443367  0.06871733  0.44409125  1.0
  Ni  Ni427  1  0.49443367  0.40205067  0.44409125  1.0
  Ni  Ni428  1  0.49443367  0.73538400  0.44409125  1.0
  Ni  Ni429  1  0.82776700  0.06871733  0.44409125  1.0
  Ni  Ni430  1  0.82776700  0.40205067  0.44409125  1.0
  Ni  Ni431  1  0.82776700  0.73538400  0.44409125  1.0
  Ni  Ni432  1  0.17223300  0.26461600  0.30590875  1.0
  Ni  Ni433  1  0.17223300  0.59794933  0.30590875  1.0
  Ni  Ni434  1  0.17223300  0.93128267  0.30590875  1.0
  Ni  Ni435  1  0.50556633  0.26461600  0.30590875  1.0
  Ni  Ni436  1  0.50556633  0.59794933  0.30590875  1.0
  Ni  Ni437  1  0.50556633  0.93128267  0.30590875  1.0
  Ni  Ni438  1  0.83889967  0.26461600  0.30590875  1.0
  Ni  Ni439  1  0.83889967  0.59794933  0.30590875  1.0
  Ni  Ni440  1  0.83889967  0.93128267  0.30590875  1.0
  Ni  Ni441  1  0.10641333  0.08089933  0.38717875  1.0
  Ni  Ni442  1  0.10641333  0.41423267  0.38717875  1.0
  Ni  Ni443  1  0.10641333  0.74756600  0.38717875  1.0
  Ni  Ni444  1  0.43974667  0.08089933  0.38717875  1.0
  Ni  Ni445  1  0.43974667  0.41423267  0.38717875  1.0
  Ni  Ni446  1  0.43974667  0.74756600  0.38717875  1.0
  Ni  Ni447  1  0.77308000  0.08089933  0.38717875  1.0
  Ni  Ni448  1  0.77308000  0.41423267  0.38717875  1.0
  Ni  Ni449  1  0.77308000  0.74756600  0.38717875  1.0
  Ni  Ni450  1  0.22692000  0.25243400  0.36282125  1.0
  Ni  Ni451  1  0.22692000  0.58576733  0.36282125  1.0
  Ni  Ni452  1  0.22692000  0.91910067  0.36282125  1.0
  Ni  Ni453  1  0.56025333  0.25243400  0.36282125  1.0
  Ni  Ni454  1  0.56025333  0.58576733  0.36282125  1.0
  Ni  Ni455  1  0.56025333  0.91910067  0.36282125  1.0
  Ni  Ni456  1  0.89358667  0.25243400  0.36282125  1.0
  Ni  Ni457  1  0.89358667  0.58576733  0.36282125  1.0
  Ni  Ni458  1  0.89358667  0.91910067  0.36282125  1.0
  Ni  Ni459  1  0.03288100  0.08613200  0.33678325  1.0
  Ni  Ni460  1  0.03288100  0.41946533  0.33678325  1.0
  Ni  Ni461  1  0.03288100  0.75279867  0.33678325  1.0
  Ni  Ni462  1  0.36621433  0.08613200  0.33678325  1.0
  Ni  Ni463  1  0.36621433  0.41946533  0.33678325  1.0
  Ni  Ni464  1  0.36621433  0.75279867  0.33678325  1.0
  Ni  Ni465  1  0.69954767  0.08613200  0.33678325  1.0
  Ni  Ni466  1  0.69954767  0.41946533  0.33678325  1.0
  Ni  Ni467  1  0.69954767  0.75279867  0.33678325  1.0
  Ni  Ni468  1  0.30045233  0.24720133  0.41321675  1.0
  Ni  Ni469  1  0.30045233  0.58053467  0.41321675  1.0
  Ni  Ni470  1  0.30045233  0.91386800  0.41321675  1.0
  Ni  Ni471  1  0.63378567  0.24720133  0.41321675  1.0
  Ni  Ni472  1  0.63378567  0.58053467  0.41321675  1.0
  Ni  Ni473  1  0.63378567  0.91386800  0.41321675  1.0
  Ni  Ni474  1  0.96711900  0.24720133  0.41321675  1.0
  Ni  Ni475  1  0.96711900  0.58053467  0.41321675  1.0
  Ni  Ni476  1  0.96711900  0.91386800  0.41321675  1.0
  Ni  Ni477  1  0.09562367  0.13021400  0.25716925  1.0
  Ni  Ni478  1  0.09562367  0.46354733  0.25716925  1.0
  Ni  Ni479  1  0.09562367  0.79688067  0.25716925  1.0
  Ni  Ni480  1  0.42895700  0.13021400  0.25716925  1.0
  Ni  Ni481  1  0.42895700  0.46354733  0.25716925  1.0
  Ni  Ni482  1  0.42895700  0.79688067  0.25716925  1.0
  Ni  Ni483  1  0.76229033  0.13021400  0.25716925  1.0
  Ni  Ni484  1  0.76229033  0.46354733  0.25716925  1.0
  Ni  Ni485  1  0.76229033  0.79688067  0.25716925  1.0
  Ni  Ni486  1  0.23770967  0.20311933  0.49283075  1.0
  Ni  Ni487  1  0.23770967  0.53645267  0.49283075  1.0
  Ni  Ni488  1  0.23770967  0.86978600  0.49283075  1.0
  Ni  Ni489  1  0.57104300  0.20311933  0.49283075  1.0
  Ni  Ni490  1  0.57104300  0.53645267  0.49283075  1.0
  Ni  Ni491  1  0.57104300  0.86978600  0.49283075  1.0
  Ni  Ni492  1  0.90437633  0.20311933  0.49283075  1.0
  Ni  Ni493  1  0.90437633  0.53645267  0.49283075  1.0
  Ni  Ni494  1  0.90437633  0.86978600  0.49283075  1.0
  Ni  Ni495  1  0.10550367  0.19968467  0.38426350  1.0
  Ni  Ni496  1  0.10550367  0.53301800  0.38426350  1.0
  Ni  Ni497  1  0.10550367  0.86635133  0.38426350  1.0
  Ni  Ni498  1  0.43883700  0.19968467  0.38426350  1.0
  Ni  Ni499  1  0.43883700  0.53301800  0.38426350  1.0
  Ni  Ni500  1  0.43883700  0.86635133  0.38426350  1.0
  Ni  Ni501  1  0.77217033  0.19968467  0.38426350  1.0
  Ni  Ni502  1  0.77217033  0.53301800  0.38426350  1.0
  Ni  Ni503  1  0.77217033  0.86635133  0.38426350  1.0
  Ni  Ni504  1  0.22782967  0.13364867  0.36573650  1.0
  Ni  Ni505  1  0.22782967  0.46698200  0.36573650  1.0
  Ni  Ni506  1  0.22782967  0.80031533  0.36573650  1.0
  Ni  Ni507  1  0.56116300  0.13364867  0.36573650  1.0
  Ni  Ni508  1  0.56116300  0.46698200  0.36573650  1.0
  Ni  Ni509  1  0.56116300  0.80031533  0.36573650  1.0
  Ni  Ni510  1  0.89449633  0.13364867  0.36573650  1.0
  Ni  Ni511  1  0.89449633  0.46698200  0.36573650  1.0
  Ni  Ni512  1  0.89449633  0.80031533  0.36573650  1.0
  Ni  Ni513  1  0.04545200  0.23702867  0.46071575  1.0
  Ni  Ni514  1  0.04545200  0.57036200  0.46071575  1.0
  Ni  Ni515  1  0.04545200  0.90369533  0.46071575  1.0
  Ni  Ni516  1  0.37878533  0.23702867  0.46071575  1.0
  Ni  Ni517  1  0.37878533  0.57036200  0.46071575  1.0
  Ni  Ni518  1  0.37878533  0.90369533  0.46071575  1.0
  Ni  Ni519  1  0.71211867  0.23702867  0.46071575  1.0
  Ni  Ni520  1  0.71211867  0.57036200  0.46071575  1.0
  Ni  Ni521  1  0.71211867  0.90369533  0.46071575  1.0
