# generated using pymatgen
data_HfNi
_symmetry_space_group_name_H-M   'P 1'
_cell_length_a   9.71335799
_cell_length_b   33.23261166
_cell_length_c   28.60055100
_cell_angle_alpha   111.64383984
_cell_angle_beta   90.00000000
_cell_angle_gamma   73.00525946
_symmetry_Int_Tables_number   1
_chemical_formula_structural   HfNi
_chemical_formula_sum   'Hf108 Ni108'
_cell_volume   8146.02998945
_cell_formula_units_Z   108
loop_
 _symmetry_equiv_pos_site_id
 _symmetry_equiv_pos_as_xyz
  1  'x, y, z'
loop_
 _atom_site_type_symbol
 _atom_site_label
 _atom_site_symmetry_multiplicity
 _atom_site_fract_x
 _atom_site_fract_y
 _atom_site_fract_z
 _atom_site_occupancy
  Hf  Hf0  1  0.28656100  0.04677233  0.05575957  1.0
  Hf  Hf1  1  0.28656100  0.38010567  0.05575957  1.0
  Hf  Hf2  1  0.28656100  0.71343900  0.05575957  1.0
  Hf  Hf3  1  0.61989433  0.04677233  0.05575957  1.0
  Hf  Hf4  1  0.61989433  0.38010567  0.05575957  1.0
  Hf  Hf5  1  0.61989433  0.71343900  0.05575957  1.0
  Hf  Hf6  1  0.95322767  0.04677233  0.05575957  1.0
  Hf  Hf7  1  0.95322767  0.38010567  0.05575957  1.0
  Hf  Hf8  1  0.95322767  0.71343900  0.05575957  1.0
  Hf  Hf9  1  0.28656100  0.21343900  0.12718814  1.0
  Hf  Hf10  1  0.28656100  0.54677233  0.12718814  1.0
  Hf  Hf11  1  0.28656100  0.88010567  0.12718814  1.0
  Hf  Hf12  1  0.61989433  0.21343900  0.12718814  1.0
  Hf  Hf13  1  0.61989433  0.54677233  0.12718814  1.0
  Hf  Hf14  1  0.61989433  0.88010567  0.12718814  1.0
  Hf  Hf15  1  0.95322767  0.21343900  0.12718814  1.0
  Hf  Hf16  1  0.95322767  0.54677233  0.12718814  1.0
  Hf  Hf17  1  0.95322767  0.88010567  0.12718814  1.0
  Hf  Hf18  1  0.04677233  0.28656100  0.08709757  1.0
  Hf  Hf19  1  0.04677233  0.61989433  0.08709757  1.0
  Hf  Hf20  1  0.04677233  0.95322767  0.08709757  1.0
  Hf  Hf21  1  0.38010567  0.28656100  0.08709757  1.0
  Hf  Hf22  1  0.38010567  0.61989433  0.08709757  1.0
  Hf  Hf23  1  0.38010567  0.95322767  0.08709757  1.0
  Hf  Hf24  1  0.71343900  0.28656100  0.08709757  1.0
  Hf  Hf25  1  0.71343900  0.61989433  0.08709757  1.0
  Hf  Hf26  1  0.71343900  0.95322767  0.08709757  1.0
  Hf  Hf27  1  0.04677233  0.11989433  0.01566900  1.0
  Hf  Hf28  1  0.04677233  0.45322767  0.01566900  1.0
  Hf  Hf29  1  0.04677233  0.78656100  0.01566900  1.0
  Hf  Hf30  1  0.38010567  0.11989433  0.01566900  1.0
  Hf  Hf31  1  0.38010567  0.45322767  0.01566900  1.0
  Hf  Hf32  1  0.38010567  0.78656100  0.01566900  1.0
  Hf  Hf33  1  0.71343900  0.11989433  0.01566900  1.0
  Hf  Hf34  1  0.71343900  0.45322767  0.01566900  1.0
  Hf  Hf35  1  0.71343900  0.78656100  0.01566900  1.0
  Ni  Ni36  1  0.19457033  0.13876300  0.09518414  1.0
  Ni  Ni37  1  0.19457033  0.47209633  0.09518414  1.0
  Ni  Ni38  1  0.19457033  0.80542967  0.09518414  1.0
  Ni  Ni39  1  0.52790367  0.13876300  0.09518414  1.0
  Ni  Ni40  1  0.52790367  0.47209633  0.09518414  1.0
  Ni  Ni41  1  0.52790367  0.80542967  0.09518414  1.0
  Ni  Ni42  1  0.86123700  0.13876300  0.09518414  1.0
  Ni  Ni43  1  0.86123700  0.47209633  0.09518414  1.0
  Ni  Ni44  1  0.86123700  0.80542967  0.09518414  1.0
  Ni  Ni45  1  0.19457033  0.30542967  0.02375557  1.0
  Ni  Ni46  1  0.19457033  0.63876300  0.02375557  1.0
  Ni  Ni47  1  0.19457033  0.97209633  0.02375557  1.0
  Ni  Ni48  1  0.52790367  0.30542967  0.02375557  1.0
  Ni  Ni49  1  0.52790367  0.63876300  0.02375557  1.0
  Ni  Ni50  1  0.52790367  0.97209633  0.02375557  1.0
  Ni  Ni51  1  0.86123700  0.30542967  0.02375557  1.0
  Ni  Ni52  1  0.86123700  0.63876300  0.02375557  1.0
  Ni  Ni53  1  0.86123700  0.97209633  0.02375557  1.0
  Ni  Ni54  1  0.13876300  0.19457033  0.04767300  1.0
  Ni  Ni55  1  0.13876300  0.52790367  0.04767300  1.0
  Ni  Ni56  1  0.13876300  0.86123700  0.04767300  1.0
  Ni  Ni57  1  0.47209633  0.19457033  0.04767300  1.0
  Ni  Ni58  1  0.47209633  0.52790367  0.04767300  1.0
  Ni  Ni59  1  0.47209633  0.86123700  0.04767300  1.0
  Ni  Ni60  1  0.80542967  0.19457033  0.04767300  1.0
  Ni  Ni61  1  0.80542967  0.52790367  0.04767300  1.0
  Ni  Ni62  1  0.80542967  0.86123700  0.04767300  1.0
  Ni  Ni63  1  0.13876300  0.02790367  0.11910157  1.0
  Ni  Ni64  1  0.13876300  0.36123700  0.11910157  1.0
  Ni  Ni65  1  0.13876300  0.69457033  0.11910157  1.0
  Ni  Ni66  1  0.47209633  0.02790367  0.11910157  1.0
  Ni  Ni67  1  0.47209633  0.36123700  0.11910157  1.0
  Ni  Ni68  1  0.47209633  0.69457033  0.11910157  1.0
  Ni  Ni69  1  0.80542967  0.02790367  0.11910157  1.0
  Ni  Ni70  1  0.80542967  0.36123700  0.11910157  1.0
  Ni  Ni71  1  0.80542967  0.69457033  0.11910157  1.0
  Hf  Hf72  1  0.28656100  0.04677233  0.19861671  1.0
  Hf  Hf73  1  0.28656100  0.38010567  0.19861671  1.0
  Hf  Hf74  1  0.28656100  0.71343900  0.19861671  1.0
  Hf  Hf75  1  0.61989433  0.04677233  0.19861671  1.0
  Hf  Hf76  1  0.61989433  0.38010567  0.19861671  1.0
  Hf  Hf77  1  0.61989433  0.71343900  0.19861671  1.0
  Hf  Hf78  1  0.95322767  0.04677233  0.19861671  1.0
  Hf  Hf79  1  0.95322767  0.38010567  0.19861671  1.0
  Hf  Hf80  1  0.95322767  0.71343900  0.19861671  1.0
  Hf  Hf81  1  0.28656100  0.21343900  0.27004529  1.0
  Hf  Hf82  1  0.28656100  0.54677233  0.27004529  1.0
  Hf  Hf83  1  0.28656100  0.88010567  0.27004529  1.0
  Hf  Hf84  1  0.61989433  0.21343900  0.27004529  1.0
  Hf  Hf85  1  0.61989433  0.54677233  0.27004529  1.0
  Hf  Hf86  1  0.61989433  0.88010567  0.27004529  1.0
  Hf  Hf87  1  0.95322767  0.21343900  0.27004529  1.0
  Hf  Hf88  1  0.95322767  0.54677233  0.27004529  1.0
  Hf  Hf89  1  0.95322767  0.88010567  0.27004529  1.0
  Hf  Hf90  1  0.04677233  0.28656100  0.22995471  1.0
  Hf  Hf91  1  0.04677233  0.61989433  0.22995471  1.0
  Hf  Hf92  1  0.04677233  0.95322767  0.22995471  1.0
  Hf  Hf93  1  0.38010567  0.28656100  0.22995471  1.0
  Hf  Hf94  1  0.38010567  0.61989433  0.22995471  1.0
  Hf  Hf95  1  0.38010567  0.95322767  0.22995471  1.0
  Hf  Hf96  1  0.71343900  0.28656100  0.22995471  1.0
  Hf  Hf97  1  0.71343900  0.61989433  0.22995471  1.0
  Hf  Hf98  1  0.71343900  0.95322767  0.22995471  1.0
  Hf  Hf99  1  0.04677233  0.11989433  0.15852614  1.0
  Hf  Hf100  1  0.04677233  0.45322767  0.15852614  1.0
  Hf  Hf101  1  0.04677233  0.78656100  0.15852614  1.0
  Hf  Hf102  1  0.38010567  0.11989433  0.15852614  1.0
  Hf  Hf103  1  0.38010567  0.45322767  0.15852614  1.0
  Hf  Hf104  1  0.38010567  0.78656100  0.15852614  1.0
  Hf  Hf105  1  0.71343900  0.11989433  0.15852614  1.0
  Hf  Hf106  1  0.71343900  0.45322767  0.15852614  1.0
  Hf  Hf107  1  0.71343900  0.78656100  0.15852614  1.0
  Ni  Ni108  1  0.19457033  0.13876300  0.23804129  1.0
  Ni  Ni109  1  0.19457033  0.47209633  0.23804129  1.0
  Ni  Ni110  1  0.19457033  0.80542967  0.23804129  1.0
  Ni  Ni111  1  0.52790367  0.13876300  0.23804129  1.0
  Ni  Ni112  1  0.52790367  0.47209633  0.23804129  1.0
  Ni  Ni113  1  0.52790367  0.80542967  0.23804129  1.0
  Ni  Ni114  1  0.86123700  0.13876300  0.23804129  1.0
  Ni  Ni115  1  0.86123700  0.47209633  0.23804129  1.0
  Ni  Ni116  1  0.86123700  0.80542967  0.23804129  1.0
  Ni  Ni117  1  0.19457033  0.30542967  0.16661271  1.0
  Ni  Ni118  1  0.19457033  0.63876300  0.16661271  1.0
  Ni  Ni119  1  0.19457033  0.97209633  0.16661271  1.0
  Ni  Ni120  1  0.52790367  0.30542967  0.16661271  1.0
  Ni  Ni121  1  0.52790367  0.63876300  0.16661271  1.0
  Ni  Ni122  1  0.52790367  0.97209633  0.16661271  1.0
  Ni  Ni123  1  0.86123700  0.30542967  0.16661271  1.0
  Ni  Ni124  1  0.86123700  0.63876300  0.16661271  1.0
  Ni  Ni125  1  0.86123700  0.97209633  0.16661271  1.0
  Ni  Ni126  1  0.13876300  0.19457033  0.19053014  1.0
  Ni  Ni127  1  0.13876300  0.52790367  0.19053014  1.0
  Ni  Ni128  1  0.13876300  0.86123700  0.19053014  1.0
  Ni  Ni129  1  0.47209633  0.19457033  0.19053014  1.0
  Ni  Ni130  1  0.47209633  0.52790367  0.19053014  1.0
  Ni  Ni131  1  0.47209633  0.86123700  0.19053014  1.0
  Ni  Ni132  1  0.80542967  0.19457033  0.19053014  1.0
  Ni  Ni133  1  0.80542967  0.52790367  0.19053014  1.0
  Ni  Ni134  1  0.80542967  0.86123700  0.19053014  1.0
  Ni  Ni135  1  0.13876300  0.02790367  0.26195871  1.0
  Ni  Ni136  1  0.13876300  0.36123700  0.26195871  1.0
  Ni  Ni137  1  0.13876300  0.69457033  0.26195871  1.0
  Ni  Ni138  1  0.47209633  0.02790367  0.26195871  1.0
  Ni  Ni139  1  0.47209633  0.36123700  0.26195871  1.0
  Ni  Ni140  1  0.47209633  0.69457033  0.26195871  1.0
  Ni  Ni141  1  0.80542967  0.02790367  0.26195871  1.0
  Ni  Ni142  1  0.80542967  0.36123700  0.26195871  1.0
  Ni  Ni143  1  0.80542967  0.69457033  0.26195871  1.0
  Hf  Hf144  1  0.28656100  0.04677233  0.34147386  1.0
  Hf  Hf145  1  0.28656100  0.38010567  0.34147386  1.0
  Hf  Hf146  1  0.28656100  0.71343900  0.34147386  1.0
  Hf  Hf147  1  0.61989433  0.04677233  0.34147386  1.0
  Hf  Hf148  1  0.61989433  0.38010567  0.34147386  1.0
  Hf  Hf149  1  0.61989433  0.71343900  0.34147386  1.0
  Hf  Hf150  1  0.95322767  0.04677233  0.34147386  1.0
  Hf  Hf151  1  0.95322767  0.38010567  0.34147386  1.0
  Hf  Hf152  1  0.95322767  0.71343900  0.34147386  1.0
  Hf  Hf153  1  0.28656100  0.21343900  0.41290243  1.0
  Hf  Hf154  1  0.28656100  0.54677233  0.41290243  1.0
  Hf  Hf155  1  0.28656100  0.88010567  0.41290243  1.0
  Hf  Hf156  1  0.61989433  0.21343900  0.41290243  1.0
  Hf  Hf157  1  0.61989433  0.54677233  0.41290243  1.0
  Hf  Hf158  1  0.61989433  0.88010567  0.41290243  1.0
  Hf  Hf159  1  0.95322767  0.21343900  0.41290243  1.0
  Hf  Hf160  1  0.95322767  0.54677233  0.41290243  1.0
  Hf  Hf161  1  0.95322767  0.88010567  0.41290243  1.0
  Hf  Hf162  1  0.04677233  0.28656100  0.37281186  1.0
  Hf  Hf163  1  0.04677233  0.61989433  0.37281186  1.0
  Hf  Hf164  1  0.04677233  0.95322767  0.37281186  1.0
  Hf  Hf165  1  0.38010567  0.28656100  0.37281186  1.0
  Hf  Hf166  1  0.38010567  0.61989433  0.37281186  1.0
  Hf  Hf167  1  0.38010567  0.95322767  0.37281186  1.0
  Hf  Hf168  1  0.71343900  0.28656100  0.37281186  1.0
  Hf  Hf169  1  0.71343900  0.61989433  0.37281186  1.0
  Hf  Hf170  1  0.71343900  0.95322767  0.37281186  1.0
  Hf  Hf171  1  0.04677233  0.11989433  0.30138329  1.0
  Hf  Hf172  1  0.04677233  0.45322767  0.30138329  1.0
  Hf  Hf173  1  0.04677233  0.78656100  0.30138329  1.0
  Hf  Hf174  1  0.38010567  0.11989433  0.30138329  1.0
  Hf  Hf175  1  0.38010567  0.45322767  0.30138329  1.0
  Hf  Hf176  1  0.38010567  0.78656100  0.30138329  1.0
  Hf  Hf177  1  0.71343900  0.11989433  0.30138329  1.0
  Hf  Hf178  1  0.71343900  0.45322767  0.30138329  1.0
  Hf  Hf179  1  0.71343900  0.78656100  0.30138329  1.0
  Ni  Ni180  1  0.19457033  0.13876300  0.38089843  1.0
  Ni  Ni181  1  0.19457033  0.47209633  0.38089843  1.0
  Ni  Ni182  1  0.19457033  0.80542967  0.38089843  1.0
  Ni  Ni183  1  0.52790367  0.13876300  0.38089843  1.0
  Ni  Ni184  1  0.52790367  0.47209633  0.38089843  1.0
  Ni  Ni185  1  0.52790367  0.80542967  0.38089843  1.0
  Ni  Ni186  1  0.86123700  0.13876300  0.38089843  1.0
  Ni  Ni187  1  0.86123700  0.47209633  0.38089843  1.0
  Ni  Ni188  1  0.86123700  0.80542967  0.38089843  1.0
  Ni  Ni189  1  0.19457033  0.30542967  0.30946986  1.0
  Ni  Ni190  1  0.19457033  0.63876300  0.30946986  1.0
  Ni  Ni191  1  0.19457033  0.97209633  0.30946986  1.0
  Ni  Ni192  1  0.52790367  0.30542967  0.30946986  1.0
  Ni  Ni193  1  0.52790367  0.63876300  0.30946986  1.0
  Ni  Ni194  1  0.52790367  0.97209633  0.30946986  1.0
  Ni  Ni195  1  0.86123700  0.30542967  0.30946986  1.0
  Ni  Ni196  1  0.86123700  0.63876300  0.30946986  1.0
  Ni  Ni197  1  0.86123700  0.97209633  0.30946986  1.0
  Ni  Ni198  1  0.13876300  0.19457033  0.33338729  1.0
  Ni  Ni199  1  0.13876300  0.52790367  0.33338729  1.0
  Ni  Ni200  1  0.13876300  0.86123700  0.33338729  1.0
  Ni  Ni201  1  0.47209633  0.19457033  0.33338729  1.0
  Ni  Ni202  1  0.47209633  0.52790367  0.33338729  1.0
  Ni  Ni203  1  0.47209633  0.86123700  0.33338729  1.0
  Ni  Ni204  1  0.80542967  0.19457033  0.33338729  1.0
  Ni  Ni205  1  0.80542967  0.52790367  0.33338729  1.0
  Ni  Ni206  1  0.80542967  0.86123700  0.33338729  1.0
  Ni  Ni207  1  0.13876300  0.02790367  0.40481586  1.0
  Ni  Ni208  1  0.13876300  0.36123700  0.40481586  1.0
  Ni  Ni209  1  0.13876300  0.69457033  0.40481586  1.0
  Ni  Ni210  1  0.47209633  0.02790367  0.40481586  1.0
  Ni  Ni211  1  0.47209633  0.36123700  0.40481586  1.0
  Ni  Ni212  1  0.47209633  0.69457033  0.40481586  1.0
  Ni  Ni213  1  0.80542967  0.02790367  0.40481586  1.0
  Ni  Ni214  1  0.80542967  0.36123700  0.40481586  1.0
  Ni  Ni215  1  0.80542967  0.69457033  0.40481586  1.0
