# generated using pymatgen
data_HfNi
_symmetry_space_group_name_H-M   'P 1'
_cell_length_a   20.66977096
_cell_length_b   19.71760950
_cell_length_c   36.77213700
_cell_angle_alpha   128.43645598
_cell_angle_beta   90.00000000
_cell_angle_gamma   110.71950726
_symmetry_Int_Tables_number   1
_chemical_formula_structural   HfNi
_chemical_formula_sum   'Hf144 Ni144'
_cell_volume   10473.46712929
_cell_formula_units_Z   144
loop_
 _symmetry_equiv_pos_site_id
 _symmetry_equiv_pos_as_xyz
  1  'x, y, z'
loop_
 _atom_site_type_symbol
 _atom_site_label
 _atom_site_symmetry_multiplicity
 _atom_site_fract_x
 _atom_site_fract_y
 _atom_site_fract_z
 _atom_site_occupancy
  Hf  Hf0  1  0.14328050  0.23682517  0.10671950  1.0
  Hf  Hf1  1  0.14328050  0.57015850  0.10671950  1.0
  Hf  Hf2  1  0.14328050  0.90349183  0.10671950  1.0
  Hf  Hf3  1  0.47661383  0.23682517  0.10671950  1.0
  Hf  Hf4  1  0.47661383  0.57015850  0.10671950  1.0
  Hf  Hf5  1  0.47661383  0.90349183  0.10671950  1.0
  Hf  Hf6  1  0.80994717  0.23682517  0.10671950  1.0
  Hf  Hf7  1  0.80994717  0.57015850  0.10671950  1.0
  Hf  Hf8  1  0.80994717  0.90349183  0.10671950  1.0
  Hf  Hf9  1  0.30994717  0.07015850  0.05116394  1.0
  Hf  Hf10  1  0.30994717  0.40349183  0.05116394  1.0
  Hf  Hf11  1  0.30994717  0.73682517  0.05116394  1.0
  Hf  Hf12  1  0.64328050  0.07015850  0.05116394  1.0
  Hf  Hf13  1  0.64328050  0.40349183  0.05116394  1.0
  Hf  Hf14  1  0.64328050  0.73682517  0.05116394  1.0
  Hf  Hf15  1  0.97661383  0.07015850  0.05116394  1.0
  Hf  Hf16  1  0.97661383  0.40349183  0.05116394  1.0
  Hf  Hf17  1  0.97661383  0.73682517  0.05116394  1.0
  Hf  Hf18  1  0.02338617  0.26317483  0.05994717  1.0
  Hf  Hf19  1  0.02338617  0.59650817  0.05994717  1.0
  Hf  Hf20  1  0.02338617  0.92984150  0.05994717  1.0
  Hf  Hf21  1  0.35671950  0.26317483  0.05994717  1.0
  Hf  Hf22  1  0.35671950  0.59650817  0.05994717  1.0
  Hf  Hf23  1  0.35671950  0.92984150  0.05994717  1.0
  Hf  Hf24  1  0.69005283  0.26317483  0.05994717  1.0
  Hf  Hf25  1  0.69005283  0.59650817  0.05994717  1.0
  Hf  Hf26  1  0.69005283  0.92984150  0.05994717  1.0
  Hf  Hf27  1  0.19005283  0.09650817  0.00439161  1.0
  Hf  Hf28  1  0.19005283  0.42984150  0.00439161  1.0
  Hf  Hf29  1  0.19005283  0.76317483  0.00439161  1.0
  Hf  Hf30  1  0.52338617  0.09650817  0.00439161  1.0
  Hf  Hf31  1  0.52338617  0.42984150  0.00439161  1.0
  Hf  Hf32  1  0.52338617  0.76317483  0.00439161  1.0
  Hf  Hf33  1  0.85671950  0.09650817  0.00439161  1.0
  Hf  Hf34  1  0.85671950  0.42984150  0.00439161  1.0
  Hf  Hf35  1  0.85671950  0.76317483  0.00439161  1.0
  Ni  Ni36  1  0.09728517  0.04147783  0.04160372  1.0
  Ni  Ni37  1  0.09728517  0.37481117  0.04160372  1.0
  Ni  Ni38  1  0.09728517  0.70814450  0.04160372  1.0
  Ni  Ni39  1  0.43061850  0.04147783  0.04160372  1.0
  Ni  Ni40  1  0.43061850  0.37481117  0.04160372  1.0
  Ni  Ni41  1  0.43061850  0.70814450  0.04160372  1.0
  Ni  Ni42  1  0.76395183  0.04147783  0.04160372  1.0
  Ni  Ni43  1  0.76395183  0.37481117  0.04160372  1.0
  Ni  Ni44  1  0.76395183  0.70814450  0.04160372  1.0
  Ni  Ni45  1  0.26395183  0.20814450  0.09715928  1.0
  Ni  Ni46  1  0.26395183  0.54147783  0.09715928  1.0
  Ni  Ni47  1  0.26395183  0.87481117  0.09715928  1.0
  Ni  Ni48  1  0.59728517  0.20814450  0.09715928  1.0
  Ni  Ni49  1  0.59728517  0.54147783  0.09715928  1.0
  Ni  Ni50  1  0.59728517  0.87481117  0.09715928  1.0
  Ni  Ni51  1  0.93061850  0.20814450  0.09715928  1.0
  Ni  Ni52  1  0.93061850  0.54147783  0.09715928  1.0
  Ni  Ni53  1  0.93061850  0.87481117  0.09715928  1.0
  Ni  Ni54  1  0.06938150  0.12518883  0.01395183  1.0
  Ni  Ni55  1  0.06938150  0.45852217  0.01395183  1.0
  Ni  Ni56  1  0.06938150  0.79185550  0.01395183  1.0
  Ni  Ni57  1  0.40271483  0.12518883  0.01395183  1.0
  Ni  Ni58  1  0.40271483  0.45852217  0.01395183  1.0
  Ni  Ni59  1  0.40271483  0.79185550  0.01395183  1.0
  Ni  Ni60  1  0.73604817  0.12518883  0.01395183  1.0
  Ni  Ni61  1  0.73604817  0.45852217  0.01395183  1.0
  Ni  Ni62  1  0.73604817  0.79185550  0.01395183  1.0
  Ni  Ni63  1  0.23604817  0.29185550  0.06950739  1.0
  Ni  Ni64  1  0.23604817  0.62518883  0.06950739  1.0
  Ni  Ni65  1  0.23604817  0.95852217  0.06950739  1.0
  Ni  Ni66  1  0.56938150  0.29185550  0.06950739  1.0
  Ni  Ni67  1  0.56938150  0.62518883  0.06950739  1.0
  Ni  Ni68  1  0.56938150  0.95852217  0.06950739  1.0
  Ni  Ni69  1  0.90271483  0.29185550  0.06950739  1.0
  Ni  Ni70  1  0.90271483  0.62518883  0.06950739  1.0
  Ni  Ni71  1  0.90271483  0.95852217  0.06950739  1.0
  Hf  Hf72  1  0.14328050  0.23682517  0.21783061  1.0
  Hf  Hf73  1  0.14328050  0.57015850  0.21783061  1.0
  Hf  Hf74  1  0.14328050  0.90349183  0.21783061  1.0
  Hf  Hf75  1  0.47661383  0.23682517  0.21783061  1.0
  Hf  Hf76  1  0.47661383  0.57015850  0.21783061  1.0
  Hf  Hf77  1  0.47661383  0.90349183  0.21783061  1.0
  Hf  Hf78  1  0.80994717  0.23682517  0.21783061  1.0
  Hf  Hf79  1  0.80994717  0.57015850  0.21783061  1.0
  Hf  Hf80  1  0.80994717  0.90349183  0.21783061  1.0
  Hf  Hf81  1  0.30994717  0.07015850  0.16227506  1.0
  Hf  Hf82  1  0.30994717  0.40349183  0.16227506  1.0
  Hf  Hf83  1  0.30994717  0.73682517  0.16227506  1.0
  Hf  Hf84  1  0.64328050  0.07015850  0.16227506  1.0
  Hf  Hf85  1  0.64328050  0.40349183  0.16227506  1.0
  Hf  Hf86  1  0.64328050  0.73682517  0.16227506  1.0
  Hf  Hf87  1  0.97661383  0.07015850  0.16227506  1.0
  Hf  Hf88  1  0.97661383  0.40349183  0.16227506  1.0
  Hf  Hf89  1  0.97661383  0.73682517  0.16227506  1.0
  Hf  Hf90  1  0.02338617  0.26317483  0.17105828  1.0
  Hf  Hf91  1  0.02338617  0.59650817  0.17105828  1.0
  Hf  Hf92  1  0.02338617  0.92984150  0.17105828  1.0
  Hf  Hf93  1  0.35671950  0.26317483  0.17105828  1.0
  Hf  Hf94  1  0.35671950  0.59650817  0.17105828  1.0
  Hf  Hf95  1  0.35671950  0.92984150  0.17105828  1.0
  Hf  Hf96  1  0.69005283  0.26317483  0.17105828  1.0
  Hf  Hf97  1  0.69005283  0.59650817  0.17105828  1.0
  Hf  Hf98  1  0.69005283  0.92984150  0.17105828  1.0
  Hf  Hf99  1  0.19005283  0.09650817  0.11550272  1.0
  Hf  Hf100  1  0.19005283  0.42984150  0.11550272  1.0
  Hf  Hf101  1  0.19005283  0.76317483  0.11550272  1.0
  Hf  Hf102  1  0.52338617  0.09650817  0.11550272  1.0
  Hf  Hf103  1  0.52338617  0.42984150  0.11550272  1.0
  Hf  Hf104  1  0.52338617  0.76317483  0.11550272  1.0
  Hf  Hf105  1  0.85671950  0.09650817  0.11550272  1.0
  Hf  Hf106  1  0.85671950  0.42984150  0.11550272  1.0
  Hf  Hf107  1  0.85671950  0.76317483  0.11550272  1.0
  Ni  Ni108  1  0.09728517  0.04147783  0.15271483  1.0
  Ni  Ni109  1  0.09728517  0.37481117  0.15271483  1.0
  Ni  Ni110  1  0.09728517  0.70814450  0.15271483  1.0
  Ni  Ni111  1  0.43061850  0.04147783  0.15271483  1.0
  Ni  Ni112  1  0.43061850  0.37481117  0.15271483  1.0
  Ni  Ni113  1  0.43061850  0.70814450  0.15271483  1.0
  Ni  Ni114  1  0.76395183  0.04147783  0.15271483  1.0
  Ni  Ni115  1  0.76395183  0.37481117  0.15271483  1.0
  Ni  Ni116  1  0.76395183  0.70814450  0.15271483  1.0
  Ni  Ni117  1  0.26395183  0.20814450  0.20827039  1.0
  Ni  Ni118  1  0.26395183  0.54147783  0.20827039  1.0
  Ni  Ni119  1  0.26395183  0.87481117  0.20827039  1.0
  Ni  Ni120  1  0.59728517  0.20814450  0.20827039  1.0
  Ni  Ni121  1  0.59728517  0.54147783  0.20827039  1.0
  Ni  Ni122  1  0.59728517  0.87481117  0.20827039  1.0
  Ni  Ni123  1  0.93061850  0.20814450  0.20827039  1.0
  Ni  Ni124  1  0.93061850  0.54147783  0.20827039  1.0
  Ni  Ni125  1  0.93061850  0.87481117  0.20827039  1.0
  Ni  Ni126  1  0.06938150  0.12518883  0.12506294  1.0
  Ni  Ni127  1  0.06938150  0.45852217  0.12506294  1.0
  Ni  Ni128  1  0.06938150  0.79185550  0.12506294  1.0
  Ni  Ni129  1  0.40271483  0.12518883  0.12506294  1.0
  Ni  Ni130  1  0.40271483  0.45852217  0.12506294  1.0
  Ni  Ni131  1  0.40271483  0.79185550  0.12506294  1.0
  Ni  Ni132  1  0.73604817  0.12518883  0.12506294  1.0
  Ni  Ni133  1  0.73604817  0.45852217  0.12506294  1.0
  Ni  Ni134  1  0.73604817  0.79185550  0.12506294  1.0
  Ni  Ni135  1  0.23604817  0.29185550  0.18061850  1.0
  Ni  Ni136  1  0.23604817  0.62518883  0.18061850  1.0
  Ni  Ni137  1  0.23604817  0.95852217  0.18061850  1.0
  Ni  Ni138  1  0.56938150  0.29185550  0.18061850  1.0
  Ni  Ni139  1  0.56938150  0.62518883  0.18061850  1.0
  Ni  Ni140  1  0.56938150  0.95852217  0.18061850  1.0
  Ni  Ni141  1  0.90271483  0.29185550  0.18061850  1.0
  Ni  Ni142  1  0.90271483  0.62518883  0.18061850  1.0
  Ni  Ni143  1  0.90271483  0.95852217  0.18061850  1.0
  Hf  Hf144  1  0.14328050  0.23682517  0.32894172  1.0
  Hf  Hf145  1  0.14328050  0.57015850  0.32894172  1.0
  Hf  Hf146  1  0.14328050  0.90349183  0.32894172  1.0
  Hf  Hf147  1  0.47661383  0.23682517  0.32894172  1.0
  Hf  Hf148  1  0.47661383  0.57015850  0.32894172  1.0
  Hf  Hf149  1  0.47661383  0.90349183  0.32894172  1.0
  Hf  Hf150  1  0.80994717  0.23682517  0.32894172  1.0
  Hf  Hf151  1  0.80994717  0.57015850  0.32894172  1.0
  Hf  Hf152  1  0.80994717  0.90349183  0.32894172  1.0
  Hf  Hf153  1  0.30994717  0.07015850  0.27338617  1.0
  Hf  Hf154  1  0.30994717  0.40349183  0.27338617  1.0
  Hf  Hf155  1  0.30994717  0.73682517  0.27338617  1.0
  Hf  Hf156  1  0.64328050  0.07015850  0.27338617  1.0
  Hf  Hf157  1  0.64328050  0.40349183  0.27338617  1.0
  Hf  Hf158  1  0.64328050  0.73682517  0.27338617  1.0
  Hf  Hf159  1  0.97661383  0.07015850  0.27338617  1.0
  Hf  Hf160  1  0.97661383  0.40349183  0.27338617  1.0
  Hf  Hf161  1  0.97661383  0.73682517  0.27338617  1.0
  Hf  Hf162  1  0.02338617  0.26317483  0.28216939  1.0
  Hf  Hf163  1  0.02338617  0.59650817  0.28216939  1.0
  Hf  Hf164  1  0.02338617  0.92984150  0.28216939  1.0
  Hf  Hf165  1  0.35671950  0.26317483  0.28216939  1.0
  Hf  Hf166  1  0.35671950  0.59650817  0.28216939  1.0
  Hf  Hf167  1  0.35671950  0.92984150  0.28216939  1.0
  Hf  Hf168  1  0.69005283  0.26317483  0.28216939  1.0
  Hf  Hf169  1  0.69005283  0.59650817  0.28216939  1.0
  Hf  Hf170  1  0.69005283  0.92984150  0.28216939  1.0
  Hf  Hf171  1  0.19005283  0.09650817  0.22661383  1.0
  Hf  Hf172  1  0.19005283  0.42984150  0.22661383  1.0
  Hf  Hf173  1  0.19005283  0.76317483  0.22661383  1.0
  Hf  Hf174  1  0.52338617  0.09650817  0.22661383  1.0
  Hf  Hf175  1  0.52338617  0.42984150  0.22661383  1.0
  Hf  Hf176  1  0.52338617  0.76317483  0.22661383  1.0
  Hf  Hf177  1  0.85671950  0.09650817  0.22661383  1.0
  Hf  Hf178  1  0.85671950  0.42984150  0.22661383  1.0
  Hf  Hf179  1  0.85671950  0.76317483  0.22661383  1.0
  Ni  Ni180  1  0.09728517  0.04147783  0.26382594  1.0
  Ni  Ni181  1  0.09728517  0.37481117  0.26382594  1.0
  Ni  Ni182  1  0.09728517  0.70814450  0.26382594  1.0
  Ni  Ni183  1  0.43061850  0.04147783  0.26382594  1.0
  Ni  Ni184  1  0.43061850  0.37481117  0.26382594  1.0
  Ni  Ni185  1  0.43061850  0.70814450  0.26382594  1.0
  Ni  Ni186  1  0.76395183  0.04147783  0.26382594  1.0
  Ni  Ni187  1  0.76395183  0.37481117  0.26382594  1.0
  Ni  Ni188  1  0.76395183  0.70814450  0.26382594  1.0
  Ni  Ni189  1  0.26395183  0.20814450  0.31938150  1.0
  Ni  Ni190  1  0.26395183  0.54147783  0.31938150  1.0
  Ni  Ni191  1  0.26395183  0.87481117  0.31938150  1.0
  Ni  Ni192  1  0.59728517  0.20814450  0.31938150  1.0
  Ni  Ni193  1  0.59728517  0.54147783  0.31938150  1.0
  Ni  Ni194  1  0.59728517  0.87481117  0.31938150  1.0
  Ni  Ni195  1  0.93061850  0.20814450  0.31938150  1.0
  Ni  Ni196  1  0.93061850  0.54147783  0.31938150  1.0
  Ni  Ni197  1  0.93061850  0.87481117  0.31938150  1.0
  Ni  Ni198  1  0.06938150  0.12518883  0.23617406  1.0
  Ni  Ni199  1  0.06938150  0.45852217  0.23617406  1.0
  Ni  Ni200  1  0.06938150  0.79185550  0.23617406  1.0
  Ni  Ni201  1  0.40271483  0.12518883  0.23617406  1.0
  Ni  Ni202  1  0.40271483  0.45852217  0.23617406  1.0
  Ni  Ni203  1  0.40271483  0.79185550  0.23617406  1.0
  Ni  Ni204  1  0.73604817  0.12518883  0.23617406  1.0
  Ni  Ni205  1  0.73604817  0.45852217  0.23617406  1.0
  Ni  Ni206  1  0.73604817  0.79185550  0.23617406  1.0
  Ni  Ni207  1  0.23604817  0.29185550  0.29172961  1.0
  Ni  Ni208  1  0.23604817  0.62518883  0.29172961  1.0
  Ni  Ni209  1  0.23604817  0.95852217  0.29172961  1.0
  Ni  Ni210  1  0.56938150  0.29185550  0.29172961  1.0
  Ni  Ni211  1  0.56938150  0.62518883  0.29172961  1.0
  Ni  Ni212  1  0.56938150  0.95852217  0.29172961  1.0
  Ni  Ni213  1  0.90271483  0.29185550  0.29172961  1.0
  Ni  Ni214  1  0.90271483  0.62518883  0.29172961  1.0
  Ni  Ni215  1  0.90271483  0.95852217  0.29172961  1.0
  Hf  Hf216  1  0.14328050  0.23682517  0.44005283  1.0
  Hf  Hf217  1  0.14328050  0.57015850  0.44005283  1.0
  Hf  Hf218  1  0.14328050  0.90349183  0.44005283  1.0
  Hf  Hf219  1  0.47661383  0.23682517  0.44005283  1.0
  Hf  Hf220  1  0.47661383  0.57015850  0.44005283  1.0
  Hf  Hf221  1  0.47661383  0.90349183  0.44005283  1.0
  Hf  Hf222  1  0.80994717  0.23682517  0.44005283  1.0
  Hf  Hf223  1  0.80994717  0.57015850  0.44005283  1.0
  Hf  Hf224  1  0.80994717  0.90349183  0.44005283  1.0
  Hf  Hf225  1  0.30994717  0.07015850  0.38449728  1.0
  Hf  Hf226  1  0.30994717  0.40349183  0.38449728  1.0
  Hf  Hf227  1  0.30994717  0.73682517  0.38449728  1.0
  Hf  Hf228  1  0.64328050  0.07015850  0.38449728  1.0
  Hf  Hf229  1  0.64328050  0.40349183  0.38449728  1.0
  Hf  Hf230  1  0.64328050  0.73682517  0.38449728  1.0
  Hf  Hf231  1  0.97661383  0.07015850  0.38449728  1.0
  Hf  Hf232  1  0.97661383  0.40349183  0.38449728  1.0
  Hf  Hf233  1  0.97661383  0.73682517  0.38449728  1.0
  Hf  Hf234  1  0.02338617  0.26317483  0.39328050  1.0
  Hf  Hf235  1  0.02338617  0.59650817  0.39328050  1.0
  Hf  Hf236  1  0.02338617  0.92984150  0.39328050  1.0
  Hf  Hf237  1  0.35671950  0.26317483  0.39328050  1.0
  Hf  Hf238  1  0.35671950  0.59650817  0.39328050  1.0
  Hf  Hf239  1  0.35671950  0.92984150  0.39328050  1.0
  Hf  Hf240  1  0.69005283  0.26317483  0.39328050  1.0
  Hf  Hf241  1  0.69005283  0.59650817  0.39328050  1.0
  Hf  Hf242  1  0.69005283  0.92984150  0.39328050  1.0
  Hf  Hf243  1  0.19005283  0.09650817  0.33772494  1.0
  Hf  Hf244  1  0.19005283  0.42984150  0.33772494  1.0
  Hf  Hf245  1  0.19005283  0.76317483  0.33772494  1.0
  Hf  Hf246  1  0.52338617  0.09650817  0.33772494  1.0
  Hf  Hf247  1  0.52338617  0.42984150  0.33772494  1.0
  Hf  Hf248  1  0.52338617  0.76317483  0.33772494  1.0
  Hf  Hf249  1  0.85671950  0.09650817  0.33772494  1.0
  Hf  Hf250  1  0.85671950  0.42984150  0.33772494  1.0
  Hf  Hf251  1  0.85671950  0.76317483  0.33772494  1.0
  Ni  Ni252  1  0.09728517  0.04147783  0.37493706  1.0
  Ni  Ni253  1  0.09728517  0.37481117  0.37493706  1.0
  Ni  Ni254  1  0.09728517  0.70814450  0.37493706  1.0
  Ni  Ni255  1  0.43061850  0.04147783  0.37493706  1.0
  Ni  Ni256  1  0.43061850  0.37481117  0.37493706  1.0
  Ni  Ni257  1  0.43061850  0.70814450  0.37493706  1.0
  Ni  Ni258  1  0.76395183  0.04147783  0.37493706  1.0
  Ni  Ni259  1  0.76395183  0.37481117  0.37493706  1.0
  Ni  Ni260  1  0.76395183  0.70814450  0.37493706  1.0
  Ni  Ni261  1  0.26395183  0.20814450  0.43049261  1.0
  Ni  Ni262  1  0.26395183  0.54147783  0.43049261  1.0
  Ni  Ni263  1  0.26395183  0.87481117  0.43049261  1.0
  Ni  Ni264  1  0.59728517  0.20814450  0.43049261  1.0
  Ni  Ni265  1  0.59728517  0.54147783  0.43049261  1.0
  Ni  Ni266  1  0.59728517  0.87481117  0.43049261  1.0
  Ni  Ni267  1  0.93061850  0.20814450  0.43049261  1.0
  Ni  Ni268  1  0.93061850  0.54147783  0.43049261  1.0
  Ni  Ni269  1  0.93061850  0.87481117  0.43049261  1.0
  Ni  Ni270  1  0.06938150  0.12518883  0.34728517  1.0
  Ni  Ni271  1  0.06938150  0.45852217  0.34728517  1.0
  Ni  Ni272  1  0.06938150  0.79185550  0.34728517  1.0
  Ni  Ni273  1  0.40271483  0.12518883  0.34728517  1.0
  Ni  Ni274  1  0.40271483  0.45852217  0.34728517  1.0
  Ni  Ni275  1  0.40271483  0.79185550  0.34728517  1.0
  Ni  Ni276  1  0.73604817  0.12518883  0.34728517  1.0
  Ni  Ni277  1  0.73604817  0.45852217  0.34728517  1.0
  Ni  Ni278  1  0.73604817  0.79185550  0.34728517  1.0
  Ni  Ni279  1  0.23604817  0.29185550  0.40284072  1.0
  Ni  Ni280  1  0.23604817  0.62518883  0.40284072  1.0
  Ni  Ni281  1  0.23604817  0.95852217  0.40284072  1.0
  Ni  Ni282  1  0.56938150  0.29185550  0.40284072  1.0
  Ni  Ni283  1  0.56938150  0.62518883  0.40284072  1.0
  Ni  Ni284  1  0.56938150  0.95852217  0.40284072  1.0
  Ni  Ni285  1  0.90271483  0.29185550  0.40284072  1.0
  Ni  Ni286  1  0.90271483  0.62518883  0.40284072  1.0
  Ni  Ni287  1  0.90271483  0.95852217  0.40284072  1.0
