# generated using pymatgen
data_HfNi5
_symmetry_space_group_name_H-M   'P 1'
_cell_length_a   14.13012330
_cell_length_b   14.13012330
_cell_length_c   42.39036990
_cell_angle_alpha   60.00000000
_cell_angle_beta   60.00000000
_cell_angle_gamma   90.00000000
_symmetry_Int_Tables_number   1
_chemical_formula_structural   HfNi5
_chemical_formula_sum   'Hf36 Ni180'
_cell_volume   5984.72379093
_cell_formula_units_Z   36
loop_
 _symmetry_equiv_pos_site_id
 _symmetry_equiv_pos_as_xyz
  1  'x, y, z'
loop_
 _atom_site_type_symbol
 _atom_site_label
 _atom_site_symmetry_multiplicity
 _atom_site_fract_x
 _atom_site_fract_y
 _atom_site_fract_z
 _atom_site_occupancy
  Hf  Hf0  1  0.00000000  0.00000000  0.09731426  1.0
  Hf  Hf1  1  0.00000000  0.33333333  0.09731426  1.0
  Hf  Hf2  1  0.00000000  0.66666667  0.09731426  1.0
  Hf  Hf3  1  0.33333333  0.00000000  0.09731426  1.0
  Hf  Hf4  1  0.33333333  0.33333333  0.09731426  1.0
  Hf  Hf5  1  0.33333333  0.66666667  0.09731426  1.0
  Hf  Hf6  1  0.66666667  0.00000000  0.09731426  1.0
  Hf  Hf7  1  0.66666667  0.33333333  0.09731426  1.0
  Hf  Hf8  1  0.66666667  0.66666667  0.09731426  1.0
  Ni  Ni9  1  0.04249500  0.12527611  0.01379685  1.0
  Ni  Ni10  1  0.04249500  0.45860944  0.01379685  1.0
  Ni  Ni11  1  0.04249500  0.79194278  0.01379685  1.0
  Ni  Ni12  1  0.37582833  0.12527611  0.01379685  1.0
  Ni  Ni13  1  0.37582833  0.45860944  0.01379685  1.0
  Ni  Ni14  1  0.37582833  0.79194278  0.01379685  1.0
  Ni  Ni15  1  0.70916167  0.12527611  0.01379685  1.0
  Ni  Ni16  1  0.70916167  0.45860944  0.01379685  1.0
  Ni  Ni17  1  0.70916167  0.79194278  0.01379685  1.0
  Ni  Ni18  1  0.20805722  0.29083833  0.06972056  1.0
  Ni  Ni19  1  0.20805722  0.62417167  0.06972056  1.0
  Ni  Ni20  1  0.20805722  0.95750500  0.06972056  1.0
  Ni  Ni21  1  0.54139056  0.29083833  0.06972056  1.0
  Ni  Ni22  1  0.54139056  0.62417167  0.06972056  1.0
  Ni  Ni23  1  0.54139056  0.95750500  0.06972056  1.0
  Ni  Ni24  1  0.87472389  0.29083833  0.06972056  1.0
  Ni  Ni25  1  0.87472389  0.62417167  0.06972056  1.0
  Ni  Ni26  1  0.87472389  0.95750500  0.06972056  1.0
  Ni  Ni27  1  0.08333333  0.25000000  0.04175870  1.0
  Ni  Ni28  1  0.08333333  0.58333333  0.04175870  1.0
  Ni  Ni29  1  0.08333333  0.91666667  0.04175870  1.0
  Ni  Ni30  1  0.41666667  0.25000000  0.04175870  1.0
  Ni  Ni31  1  0.41666667  0.58333333  0.04175870  1.0
  Ni  Ni32  1  0.41666667  0.91666667  0.04175870  1.0
  Ni  Ni33  1  0.75000000  0.25000000  0.04175870  1.0
  Ni  Ni34  1  0.75000000  0.58333333  0.04175870  1.0
  Ni  Ni35  1  0.75000000  0.91666667  0.04175870  1.0
  Ni  Ni36  1  0.20805722  0.12527611  0.01379685  1.0
  Ni  Ni37  1  0.20805722  0.45860944  0.01379685  1.0
  Ni  Ni38  1  0.20805722  0.79194278  0.01379685  1.0
  Ni  Ni39  1  0.54139056  0.12527611  0.01379685  1.0
  Ni  Ni40  1  0.54139056  0.45860944  0.01379685  1.0
  Ni  Ni41  1  0.54139056  0.79194278  0.01379685  1.0
  Ni  Ni42  1  0.87472389  0.12527611  0.01379685  1.0
  Ni  Ni43  1  0.87472389  0.45860944  0.01379685  1.0
  Ni  Ni44  1  0.87472389  0.79194278  0.01379685  1.0
  Ni  Ni45  1  0.20805722  0.12527611  0.06972056  1.0
  Ni  Ni46  1  0.20805722  0.45860944  0.06972056  1.0
  Ni  Ni47  1  0.20805722  0.79194278  0.06972056  1.0
  Ni  Ni48  1  0.54139056  0.12527611  0.06972056  1.0
  Ni  Ni49  1  0.54139056  0.45860944  0.06972056  1.0
  Ni  Ni50  1  0.54139056  0.79194278  0.06972056  1.0
  Ni  Ni51  1  0.87472389  0.12527611  0.06972056  1.0
  Ni  Ni52  1  0.87472389  0.45860944  0.06972056  1.0
  Ni  Ni53  1  0.87472389  0.79194278  0.06972056  1.0
  Hf  Hf54  1  0.00000000  0.00000000  0.20842537  1.0
  Hf  Hf55  1  0.00000000  0.33333333  0.20842537  1.0
  Hf  Hf56  1  0.00000000  0.66666667  0.20842537  1.0
  Hf  Hf57  1  0.33333333  0.00000000  0.20842537  1.0
  Hf  Hf58  1  0.33333333  0.33333333  0.20842537  1.0
  Hf  Hf59  1  0.33333333  0.66666667  0.20842537  1.0
  Hf  Hf60  1  0.66666667  0.00000000  0.20842537  1.0
  Hf  Hf61  1  0.66666667  0.33333333  0.20842537  1.0
  Hf  Hf62  1  0.66666667  0.66666667  0.20842537  1.0
  Ni  Ni63  1  0.04249500  0.12527611  0.12490796  1.0
  Ni  Ni64  1  0.04249500  0.45860944  0.12490796  1.0
  Ni  Ni65  1  0.04249500  0.79194278  0.12490796  1.0
  Ni  Ni66  1  0.37582833  0.12527611  0.12490796  1.0
  Ni  Ni67  1  0.37582833  0.45860944  0.12490796  1.0
  Ni  Ni68  1  0.37582833  0.79194278  0.12490796  1.0
  Ni  Ni69  1  0.70916167  0.12527611  0.12490796  1.0
  Ni  Ni70  1  0.70916167  0.45860944  0.12490796  1.0
  Ni  Ni71  1  0.70916167  0.79194278  0.12490796  1.0
  Ni  Ni72  1  0.20805722  0.29083833  0.18083167  1.0
  Ni  Ni73  1  0.20805722  0.62417167  0.18083167  1.0
  Ni  Ni74  1  0.20805722  0.95750500  0.18083167  1.0
  Ni  Ni75  1  0.54139056  0.29083833  0.18083167  1.0
  Ni  Ni76  1  0.54139056  0.62417167  0.18083167  1.0
  Ni  Ni77  1  0.54139056  0.95750500  0.18083167  1.0
  Ni  Ni78  1  0.87472389  0.29083833  0.18083167  1.0
  Ni  Ni79  1  0.87472389  0.62417167  0.18083167  1.0
  Ni  Ni80  1  0.87472389  0.95750500  0.18083167  1.0
  Ni  Ni81  1  0.08333333  0.25000000  0.15286981  1.0
  Ni  Ni82  1  0.08333333  0.58333333  0.15286981  1.0
  Ni  Ni83  1  0.08333333  0.91666667  0.15286981  1.0
  Ni  Ni84  1  0.41666667  0.25000000  0.15286981  1.0
  Ni  Ni85  1  0.41666667  0.58333333  0.15286981  1.0
  Ni  Ni86  1  0.41666667  0.91666667  0.15286981  1.0
  Ni  Ni87  1  0.75000000  0.25000000  0.15286981  1.0
  Ni  Ni88  1  0.75000000  0.58333333  0.15286981  1.0
  Ni  Ni89  1  0.75000000  0.91666667  0.15286981  1.0
  Ni  Ni90  1  0.20805722  0.12527611  0.12490796  1.0
  Ni  Ni91  1  0.20805722  0.45860944  0.12490796  1.0
  Ni  Ni92  1  0.20805722  0.79194278  0.12490796  1.0
  Ni  Ni93  1  0.54139056  0.12527611  0.12490796  1.0
  Ni  Ni94  1  0.54139056  0.45860944  0.12490796  1.0
  Ni  Ni95  1  0.54139056  0.79194278  0.12490796  1.0
  Ni  Ni96  1  0.87472389  0.12527611  0.12490796  1.0
  Ni  Ni97  1  0.87472389  0.45860944  0.12490796  1.0
  Ni  Ni98  1  0.87472389  0.79194278  0.12490796  1.0
  Ni  Ni99  1  0.20805722  0.12527611  0.18083167  1.0
  Ni  Ni100  1  0.20805722  0.45860944  0.18083167  1.0
  Ni  Ni101  1  0.20805722  0.79194278  0.18083167  1.0
  Ni  Ni102  1  0.54139056  0.12527611  0.18083167  1.0
  Ni  Ni103  1  0.54139056  0.45860944  0.18083167  1.0
  Ni  Ni104  1  0.54139056  0.79194278  0.18083167  1.0
  Ni  Ni105  1  0.87472389  0.12527611  0.18083167  1.0
  Ni  Ni106  1  0.87472389  0.45860944  0.18083167  1.0
  Ni  Ni107  1  0.87472389  0.79194278  0.18083167  1.0
  Hf  Hf108  1  0.00000000  0.00000000  0.31953648  1.0
  Hf  Hf109  1  0.00000000  0.33333333  0.31953648  1.0
  Hf  Hf110  1  0.00000000  0.66666667  0.31953648  1.0
  Hf  Hf111  1  0.33333333  0.00000000  0.31953648  1.0
  Hf  Hf112  1  0.33333333  0.33333333  0.31953648  1.0
  Hf  Hf113  1  0.33333333  0.66666667  0.31953648  1.0
  Hf  Hf114  1  0.66666667  0.00000000  0.31953648  1.0
  Hf  Hf115  1  0.66666667  0.33333333  0.31953648  1.0
  Hf  Hf116  1  0.66666667  0.66666667  0.31953648  1.0
  Ni  Ni117  1  0.04249500  0.12527611  0.23601907  1.0
  Ni  Ni118  1  0.04249500  0.45860944  0.23601907  1.0
  Ni  Ni119  1  0.04249500  0.79194278  0.23601907  1.0
  Ni  Ni120  1  0.37582833  0.12527611  0.23601907  1.0
  Ni  Ni121  1  0.37582833  0.45860944  0.23601907  1.0
  Ni  Ni122  1  0.37582833  0.79194278  0.23601907  1.0
  Ni  Ni123  1  0.70916167  0.12527611  0.23601907  1.0
  Ni  Ni124  1  0.70916167  0.45860944  0.23601907  1.0
  Ni  Ni125  1  0.70916167  0.79194278  0.23601907  1.0
  Ni  Ni126  1  0.20805722  0.29083833  0.29194278  1.0
  Ni  Ni127  1  0.20805722  0.62417167  0.29194278  1.0
  Ni  Ni128  1  0.20805722  0.95750500  0.29194278  1.0
  Ni  Ni129  1  0.54139056  0.29083833  0.29194278  1.0
  Ni  Ni130  1  0.54139056  0.62417167  0.29194278  1.0
  Ni  Ni131  1  0.54139056  0.95750500  0.29194278  1.0
  Ni  Ni132  1  0.87472389  0.29083833  0.29194278  1.0
  Ni  Ni133  1  0.87472389  0.62417167  0.29194278  1.0
  Ni  Ni134  1  0.87472389  0.95750500  0.29194278  1.0
  Ni  Ni135  1  0.08333333  0.25000000  0.26398093  1.0
  Ni  Ni136  1  0.08333333  0.58333333  0.26398093  1.0
  Ni  Ni137  1  0.08333333  0.91666667  0.26398093  1.0
  Ni  Ni138  1  0.41666667  0.25000000  0.26398093  1.0
  Ni  Ni139  1  0.41666667  0.58333333  0.26398093  1.0
  Ni  Ni140  1  0.41666667  0.91666667  0.26398093  1.0
  Ni  Ni141  1  0.75000000  0.25000000  0.26398093  1.0
  Ni  Ni142  1  0.75000000  0.58333333  0.26398093  1.0
  Ni  Ni143  1  0.75000000  0.91666667  0.26398093  1.0
  Ni  Ni144  1  0.20805722  0.12527611  0.23601907  1.0
  Ni  Ni145  1  0.20805722  0.45860944  0.23601907  1.0
  Ni  Ni146  1  0.20805722  0.79194278  0.23601907  1.0
  Ni  Ni147  1  0.54139056  0.12527611  0.23601907  1.0
  Ni  Ni148  1  0.54139056  0.45860944  0.23601907  1.0
  Ni  Ni149  1  0.54139056  0.79194278  0.23601907  1.0
  Ni  Ni150  1  0.87472389  0.12527611  0.23601907  1.0
  Ni  Ni151  1  0.87472389  0.45860944  0.23601907  1.0
  Ni  Ni152  1  0.87472389  0.79194278  0.23601907  1.0
  Ni  Ni153  1  0.20805722  0.12527611  0.29194278  1.0
  Ni  Ni154  1  0.20805722  0.45860944  0.29194278  1.0
  Ni  Ni155  1  0.20805722  0.79194278  0.29194278  1.0
  Ni  Ni156  1  0.54139056  0.12527611  0.29194278  1.0
  Ni  Ni157  1  0.54139056  0.45860944  0.29194278  1.0
  Ni  Ni158  1  0.54139056  0.79194278  0.29194278  1.0
  Ni  Ni159  1  0.87472389  0.12527611  0.29194278  1.0
  Ni  Ni160  1  0.87472389  0.45860944  0.29194278  1.0
  Ni  Ni161  1  0.87472389  0.79194278  0.29194278  1.0
  Hf  Hf162  1  0.00000000  0.00000000  0.43064759  1.0
  Hf  Hf163  1  0.00000000  0.33333333  0.43064759  1.0
  Hf  Hf164  1  0.00000000  0.66666667  0.43064759  1.0
  Hf  Hf165  1  0.33333333  0.00000000  0.43064759  1.0
  Hf  Hf166  1  0.33333333  0.33333333  0.43064759  1.0
  Hf  Hf167  1  0.33333333  0.66666667  0.43064759  1.0
  Hf  Hf168  1  0.66666667  0.00000000  0.43064759  1.0
  Hf  Hf169  1  0.66666667  0.33333333  0.43064759  1.0
  Hf  Hf170  1  0.66666667  0.66666667  0.43064759  1.0
  Ni  Ni171  1  0.04249500  0.12527611  0.34713019  1.0
  Ni  Ni172  1  0.04249500  0.45860944  0.34713019  1.0
  Ni  Ni173  1  0.04249500  0.79194278  0.34713019  1.0
  Ni  Ni174  1  0.37582833  0.12527611  0.34713019  1.0
  Ni  Ni175  1  0.37582833  0.45860944  0.34713019  1.0
  Ni  Ni176  1  0.37582833  0.79194278  0.34713019  1.0
  Ni  Ni177  1  0.70916167  0.12527611  0.34713019  1.0
  Ni  Ni178  1  0.70916167  0.45860944  0.34713019  1.0
  Ni  Ni179  1  0.70916167  0.79194278  0.34713019  1.0
  Ni  Ni180  1  0.20805722  0.29083833  0.40305389  1.0
  Ni  Ni181  1  0.20805722  0.62417167  0.40305389  1.0
  Ni  Ni182  1  0.20805722  0.95750500  0.40305389  1.0
  Ni  Ni183  1  0.54139056  0.29083833  0.40305389  1.0
  Ni  Ni184  1  0.54139056  0.62417167  0.40305389  1.0
  Ni  Ni185  1  0.54139056  0.95750500  0.40305389  1.0
  Ni  Ni186  1  0.87472389  0.29083833  0.40305389  1.0
  Ni  Ni187  1  0.87472389  0.62417167  0.40305389  1.0
  Ni  Ni188  1  0.87472389  0.95750500  0.40305389  1.0
  Ni  Ni189  1  0.08333333  0.25000000  0.37509204  1.0
  Ni  Ni190  1  0.08333333  0.58333333  0.37509204  1.0
  Ni  Ni191  1  0.08333333  0.91666667  0.37509204  1.0
  Ni  Ni192  1  0.41666667  0.25000000  0.37509204  1.0
  Ni  Ni193  1  0.41666667  0.58333333  0.37509204  1.0
  Ni  Ni194  1  0.41666667  0.91666667  0.37509204  1.0
  Ni  Ni195  1  0.75000000  0.25000000  0.37509204  1.0
  Ni  Ni196  1  0.75000000  0.58333333  0.37509204  1.0
  Ni  Ni197  1  0.75000000  0.91666667  0.37509204  1.0
  Ni  Ni198  1  0.20805722  0.12527611  0.34713019  1.0
  Ni  Ni199  1  0.20805722  0.45860944  0.34713019  1.0
  Ni  Ni200  1  0.20805722  0.79194278  0.34713019  1.0
  Ni  Ni201  1  0.54139056  0.12527611  0.34713019  1.0
  Ni  Ni202  1  0.54139056  0.45860944  0.34713019  1.0
  Ni  Ni203  1  0.54139056  0.79194278  0.34713019  1.0
  Ni  Ni204  1  0.87472389  0.12527611  0.34713019  1.0
  Ni  Ni205  1  0.87472389  0.45860944  0.34713019  1.0
  Ni  Ni206  1  0.87472389  0.79194278  0.34713019  1.0
  Ni  Ni207  1  0.20805722  0.12527611  0.40305389  1.0
  Ni  Ni208  1  0.20805722  0.45860944  0.40305389  1.0
  Ni  Ni209  1  0.20805722  0.79194278  0.40305389  1.0
  Ni  Ni210  1  0.54139056  0.12527611  0.40305389  1.0
  Ni  Ni211  1  0.54139056  0.45860944  0.40305389  1.0
  Ni  Ni212  1  0.54139056  0.79194278  0.40305389  1.0
  Ni  Ni213  1  0.87472389  0.12527611  0.40305389  1.0
  Ni  Ni214  1  0.87472389  0.45860944  0.40305389  1.0
  Ni  Ni215  1  0.87472389  0.79194278  0.40305389  1.0
