# generated using pymatgen
data_HfNi5
_symmetry_space_group_name_H-M   'P 1'
_cell_length_a   14.13012330
_cell_length_b   14.13012330
_cell_length_c   32.97028770
_cell_angle_alpha   90.00000000
_cell_angle_beta   60.00000000
_cell_angle_gamma   60.00000000
_symmetry_Int_Tables_number   1
_chemical_formula_structural   HfNi5
_chemical_formula_sum   'Hf27 Ni135'
_cell_volume   4654.78517073
_cell_formula_units_Z   27
loop_
 _symmetry_equiv_pos_site_id
 _symmetry_equiv_pos_as_xyz
  1  'x, y, z'
loop_
 _atom_site_type_symbol
 _atom_site_label
 _atom_site_symmetry_multiplicity
 _atom_site_fract_x
 _atom_site_fract_y
 _atom_site_fract_z
 _atom_site_occupancy
  Hf  Hf0  1  0.00000000  0.00000000  0.13375107  1.0
  Hf  Hf1  1  0.00000000  0.33333333  0.13375107  1.0
  Hf  Hf2  1  0.00000000  0.66666667  0.13375107  1.0
  Hf  Hf3  1  0.33333333  0.00000000  0.13375107  1.0
  Hf  Hf4  1  0.33333333  0.33333333  0.13375107  1.0
  Hf  Hf5  1  0.33333333  0.66666667  0.13375107  1.0
  Hf  Hf6  1  0.66666667  0.00000000  0.13375107  1.0
  Hf  Hf7  1  0.66666667  0.33333333  0.13375107  1.0
  Hf  Hf8  1  0.66666667  0.66666667  0.13375107  1.0
  Ni  Ni9  1  0.25055222  0.29083833  0.08006131  1.0
  Ni  Ni10  1  0.25055222  0.62417167  0.08006131  1.0
  Ni  Ni11  1  0.25055222  0.95750500  0.08006131  1.0
  Ni  Ni12  1  0.58388556  0.29083833  0.08006131  1.0
  Ni  Ni13  1  0.58388556  0.62417167  0.08006131  1.0
  Ni  Ni14  1  0.58388556  0.95750500  0.08006131  1.0
  Ni  Ni15  1  0.91721889  0.29083833  0.08006131  1.0
  Ni  Ni16  1  0.91721889  0.62417167  0.08006131  1.0
  Ni  Ni17  1  0.91721889  0.95750500  0.08006131  1.0
  Ni  Ni18  1  0.25055222  0.12527611  0.08006131  1.0
  Ni  Ni19  1  0.25055222  0.45860944  0.08006131  1.0
  Ni  Ni20  1  0.25055222  0.79194278  0.08006131  1.0
  Ni  Ni21  1  0.58388556  0.12527611  0.08006131  1.0
  Ni  Ni22  1  0.58388556  0.45860944  0.08006131  1.0
  Ni  Ni23  1  0.58388556  0.79194278  0.08006131  1.0
  Ni  Ni24  1  0.91721889  0.12527611  0.08006131  1.0
  Ni  Ni25  1  0.91721889  0.45860944  0.08006131  1.0
  Ni  Ni26  1  0.91721889  0.79194278  0.08006131  1.0
  Ni  Ni27  1  0.16666667  0.25000000  0.02660822  1.0
  Ni  Ni28  1  0.16666667  0.58333333  0.02660822  1.0
  Ni  Ni29  1  0.16666667  0.91666667  0.02660821  1.0
  Ni  Ni30  1  0.50000000  0.25000000  0.02660822  1.0
  Ni  Ni31  1  0.50000000  0.58333333  0.02660822  1.0
  Ni  Ni32  1  0.50000000  0.91666667  0.02660821  1.0
  Ni  Ni33  1  0.83333333  0.25000000  0.02660822  1.0
  Ni  Ni34  1  0.83333333  0.58333333  0.02660822  1.0
  Ni  Ni35  1  0.83333333  0.91666667  0.02660821  1.0
  Ni  Ni36  1  0.08278111  0.12527611  0.00910607  1.0
  Ni  Ni37  1  0.08278111  0.45860944  0.00910607  1.0
  Ni  Ni38  1  0.08278111  0.79194278  0.00910607  1.0
  Ni  Ni39  1  0.41611445  0.12527611  0.00910607  1.0
  Ni  Ni40  1  0.41611445  0.45860944  0.00910607  1.0
  Ni  Ni41  1  0.41611445  0.79194278  0.00910607  1.0
  Ni  Ni42  1  0.74944778  0.12527611  0.00910607  1.0
  Ni  Ni43  1  0.74944778  0.45860944  0.00910607  1.0
  Ni  Ni44  1  0.74944778  0.79194278  0.00910607  1.0
  Ni  Ni45  1  0.08278111  0.12527611  0.08006131  1.0
  Ni  Ni46  1  0.08278111  0.45860944  0.08006131  1.0
  Ni  Ni47  1  0.08278111  0.79194278  0.08006131  1.0
  Ni  Ni48  1  0.41611445  0.12527611  0.08006131  1.0
  Ni  Ni49  1  0.41611445  0.45860944  0.08006131  1.0
  Ni  Ni50  1  0.41611445  0.79194278  0.08006131  1.0
  Ni  Ni51  1  0.74944778  0.12527611  0.08006131  1.0
  Ni  Ni52  1  0.74944778  0.45860944  0.08006131  1.0
  Ni  Ni53  1  0.74944778  0.79194278  0.08006131  1.0
  Hf  Hf54  1  0.00000000  0.00000000  0.27660821  1.0
  Hf  Hf55  1  0.00000000  0.33333333  0.27660821  1.0
  Hf  Hf56  1  0.00000000  0.66666667  0.27660821  1.0
  Hf  Hf57  1  0.33333333  0.00000000  0.27660821  1.0
  Hf  Hf58  1  0.33333333  0.33333333  0.27660821  1.0
  Hf  Hf59  1  0.33333333  0.66666667  0.27660821  1.0
  Hf  Hf60  1  0.66666667  0.00000000  0.27660821  1.0
  Hf  Hf61  1  0.66666667  0.33333333  0.27660821  1.0
  Hf  Hf62  1  0.66666667  0.66666667  0.27660821  1.0
  Ni  Ni63  1  0.25055222  0.29083833  0.22291845  1.0
  Ni  Ni64  1  0.25055222  0.62417167  0.22291845  1.0
  Ni  Ni65  1  0.25055222  0.95750500  0.22291845  1.0
  Ni  Ni66  1  0.58388556  0.29083833  0.22291845  1.0
  Ni  Ni67  1  0.58388556  0.62417167  0.22291845  1.0
  Ni  Ni68  1  0.58388556  0.95750500  0.22291845  1.0
  Ni  Ni69  1  0.91721889  0.29083833  0.22291845  1.0
  Ni  Ni70  1  0.91721889  0.62417167  0.22291845  1.0
  Ni  Ni71  1  0.91721889  0.95750500  0.22291845  1.0
  Ni  Ni72  1  0.25055222  0.12527611  0.22291845  1.0
  Ni  Ni73  1  0.25055222  0.45860944  0.22291845  1.0
  Ni  Ni74  1  0.25055222  0.79194278  0.22291845  1.0
  Ni  Ni75  1  0.58388556  0.12527611  0.22291845  1.0
  Ni  Ni76  1  0.58388556  0.45860944  0.22291845  1.0
  Ni  Ni77  1  0.58388556  0.79194278  0.22291845  1.0
  Ni  Ni78  1  0.91721889  0.12527611  0.22291845  1.0
  Ni  Ni79  1  0.91721889  0.45860944  0.22291845  1.0
  Ni  Ni80  1  0.91721889  0.79194278  0.22291845  1.0
  Ni  Ni81  1  0.16666667  0.25000000  0.16946536  1.0
  Ni  Ni82  1  0.16666667  0.58333333  0.16946536  1.0
  Ni  Ni83  1  0.16666667  0.91666667  0.16946536  1.0
  Ni  Ni84  1  0.50000000  0.25000000  0.16946536  1.0
  Ni  Ni85  1  0.50000000  0.58333333  0.16946536  1.0
  Ni  Ni86  1  0.50000000  0.91666667  0.16946536  1.0
  Ni  Ni87  1  0.83333333  0.25000000  0.16946536  1.0
  Ni  Ni88  1  0.83333333  0.58333333  0.16946536  1.0
  Ni  Ni89  1  0.83333333  0.91666667  0.16946536  1.0
  Ni  Ni90  1  0.08278111  0.12527611  0.15196321  1.0
  Ni  Ni91  1  0.08278111  0.45860944  0.15196321  1.0
  Ni  Ni92  1  0.08278111  0.79194278  0.15196321  1.0
  Ni  Ni93  1  0.41611445  0.12527611  0.15196321  1.0
  Ni  Ni94  1  0.41611445  0.45860944  0.15196321  1.0
  Ni  Ni95  1  0.41611445  0.79194278  0.15196321  1.0
  Ni  Ni96  1  0.74944778  0.12527611  0.15196321  1.0
  Ni  Ni97  1  0.74944778  0.45860944  0.15196321  1.0
  Ni  Ni98  1  0.74944778  0.79194278  0.15196321  1.0
  Ni  Ni99  1  0.08278111  0.12527611  0.22291845  1.0
  Ni  Ni100  1  0.08278111  0.45860944  0.22291845  1.0
  Ni  Ni101  1  0.08278111  0.79194278  0.22291845  1.0
  Ni  Ni102  1  0.41611445  0.12527611  0.22291845  1.0
  Ni  Ni103  1  0.41611445  0.45860944  0.22291845  1.0
  Ni  Ni104  1  0.41611445  0.79194278  0.22291845  1.0
  Ni  Ni105  1  0.74944778  0.12527611  0.22291845  1.0
  Ni  Ni106  1  0.74944778  0.45860944  0.22291845  1.0
  Ni  Ni107  1  0.74944778  0.79194278  0.22291845  1.0
  Hf  Hf108  1  0.00000000  0.00000000  0.41946536  1.0
  Hf  Hf109  1  0.00000000  0.33333333  0.41946536  1.0
  Hf  Hf110  1  0.00000000  0.66666667  0.41946536  1.0
  Hf  Hf111  1  0.33333333  0.00000000  0.41946536  1.0
  Hf  Hf112  1  0.33333333  0.33333333  0.41946536  1.0
  Hf  Hf113  1  0.33333333  0.66666667  0.41946536  1.0
  Hf  Hf114  1  0.66666667  0.00000000  0.41946536  1.0
  Hf  Hf115  1  0.66666667  0.33333333  0.41946536  1.0
  Hf  Hf116  1  0.66666667  0.66666667  0.41946536  1.0
  Ni  Ni117  1  0.25055222  0.29083833  0.36577560  1.0
  Ni  Ni118  1  0.25055222  0.62417167  0.36577560  1.0
  Ni  Ni119  1  0.25055222  0.95750500  0.36577559  1.0
  Ni  Ni120  1  0.58388556  0.29083833  0.36577560  1.0
  Ni  Ni121  1  0.58388556  0.62417167  0.36577560  1.0
  Ni  Ni122  1  0.58388556  0.95750500  0.36577560  1.0
  Ni  Ni123  1  0.91721889  0.29083833  0.36577560  1.0
  Ni  Ni124  1  0.91721889  0.62417167  0.36577560  1.0
  Ni  Ni125  1  0.91721889  0.95750500  0.36577560  1.0
  Ni  Ni126  1  0.25055222  0.12527611  0.36577560  1.0
  Ni  Ni127  1  0.25055222  0.45860944  0.36577560  1.0
  Ni  Ni128  1  0.25055222  0.79194278  0.36577560  1.0
  Ni  Ni129  1  0.58388556  0.12527611  0.36577560  1.0
  Ni  Ni130  1  0.58388556  0.45860944  0.36577560  1.0
  Ni  Ni131  1  0.58388556  0.79194278  0.36577559  1.0
  Ni  Ni132  1  0.91721889  0.12527611  0.36577560  1.0
  Ni  Ni133  1  0.91721889  0.45860944  0.36577560  1.0
  Ni  Ni134  1  0.91721889  0.79194278  0.36577560  1.0
  Ni  Ni135  1  0.16666667  0.25000000  0.31232250  1.0
  Ni  Ni136  1  0.16666667  0.58333333  0.31232250  1.0
  Ni  Ni137  1  0.16666667  0.91666667  0.31232250  1.0
  Ni  Ni138  1  0.50000000  0.25000000  0.31232250  1.0
  Ni  Ni139  1  0.50000000  0.58333333  0.31232250  1.0
  Ni  Ni140  1  0.50000000  0.91666667  0.31232250  1.0
  Ni  Ni141  1  0.83333333  0.25000000  0.31232250  1.0
  Ni  Ni142  1  0.83333333  0.58333333  0.31232250  1.0
  Ni  Ni143  1  0.83333333  0.91666667  0.31232250  1.0
  Ni  Ni144  1  0.08278111  0.12527611  0.29482036  1.0
  Ni  Ni145  1  0.08278111  0.45860944  0.29482036  1.0
  Ni  Ni146  1  0.08278111  0.79194278  0.29482036  1.0
  Ni  Ni147  1  0.41611445  0.12527611  0.29482036  1.0
  Ni  Ni148  1  0.41611445  0.45860944  0.29482036  1.0
  Ni  Ni149  1  0.41611445  0.79194278  0.29482036  1.0
  Ni  Ni150  1  0.74944778  0.12527611  0.29482036  1.0
  Ni  Ni151  1  0.74944778  0.45860944  0.29482036  1.0
  Ni  Ni152  1  0.74944778  0.79194278  0.29482036  1.0
  Ni  Ni153  1  0.08278111  0.12527611  0.36577560  1.0
  Ni  Ni154  1  0.08278111  0.45860944  0.36577560  1.0
  Ni  Ni155  1  0.08278111  0.79194278  0.36577560  1.0
  Ni  Ni156  1  0.41611445  0.12527611  0.36577560  1.0
  Ni  Ni157  1  0.41611445  0.45860944  0.36577560  1.0
  Ni  Ni158  1  0.41611445  0.79194278  0.36577560  1.0
  Ni  Ni159  1  0.74944778  0.12527611  0.36577559  1.0
  Ni  Ni160  1  0.74944778  0.45860944  0.36577559  1.0
  Ni  Ni161  1  0.74944778  0.79194278  0.36577560  1.0
