# generated using pymatgen
data_HfNi
_symmetry_space_group_name_H-M   'P 1'
_cell_length_a   15.63945854
_cell_length_b   19.71760950
_cell_length_c   28.18624252
_cell_angle_alpha   84.03695056
_cell_angle_beta   89.08940937
_cell_angle_gamma   70.47403044
_symmetry_Int_Tables_number   1
_chemical_formula_structural   HfNi
_chemical_formula_sum   'Hf108 Ni108'
_cell_volume   8146.02998945
_cell_formula_units_Z   108
loop_
 _symmetry_equiv_pos_site_id
 _symmetry_equiv_pos_as_xyz
  1  'x, y, z'
loop_
 _atom_site_type_symbol
 _atom_site_label
 _atom_site_symmetry_multiplicity
 _atom_site_fract_x
 _atom_site_fract_y
 _atom_site_fract_z
 _atom_site_occupancy
  Hf  Hf0  1  0.26828050  0.02964457  0.04792507  1.0
  Hf  Hf1  1  0.26828050  0.36297790  0.04792507  1.0
  Hf  Hf2  1  0.26828050  0.69631124  0.04792507  1.0
  Hf  Hf3  1  0.60161383  0.02964457  0.04792507  1.0
  Hf  Hf4  1  0.60161383  0.36297790  0.04792507  1.0
  Hf  Hf5  1  0.60161383  0.69631124  0.04792507  1.0
  Hf  Hf6  1  0.93494717  0.02964457  0.04792507  1.0
  Hf  Hf7  1  0.93494717  0.36297790  0.04792507  1.0
  Hf  Hf8  1  0.93494717  0.69631124  0.04792507  1.0
  Hf  Hf9  1  0.10161383  0.26773981  0.11935364  1.0
  Hf  Hf10  1  0.10161383  0.60107314  0.11935364  1.0
  Hf  Hf11  1  0.10161383  0.93440648  0.11935364  1.0
  Hf  Hf12  1  0.43494717  0.26773981  0.11935364  1.0
  Hf  Hf13  1  0.43494717  0.60107314  0.11935364  1.0
  Hf  Hf14  1  0.43494717  0.93440648  0.11935364  1.0
  Hf  Hf15  1  0.76828050  0.26773981  0.11935364  1.0
  Hf  Hf16  1  0.76828050  0.60107314  0.11935364  1.0
  Hf  Hf17  1  0.76828050  0.93440648  0.11935364  1.0
  Hf  Hf18  1  0.06505283  0.11321257  0.09493207  1.0
  Hf  Hf19  1  0.06505283  0.44654590  0.09493207  1.0
  Hf  Hf20  1  0.06505283  0.77987924  0.09493207  1.0
  Hf  Hf21  1  0.39838617  0.11321257  0.09493207  1.0
  Hf  Hf22  1  0.39838617  0.44654590  0.09493207  1.0
  Hf  Hf23  1  0.39838617  0.77987924  0.09493207  1.0
  Hf  Hf24  1  0.73171950  0.11321257  0.09493207  1.0
  Hf  Hf25  1  0.73171950  0.44654590  0.09493207  1.0
  Hf  Hf26  1  0.73171950  0.77987924  0.09493207  1.0
  Hf  Hf27  1  0.23171950  0.20845067  0.02350350  1.0
  Hf  Hf28  1  0.23171950  0.54178400  0.02350350  1.0
  Hf  Hf29  1  0.23171950  0.87511733  0.02350350  1.0
  Hf  Hf30  1  0.56505283  0.20845067  0.02350350  1.0
  Hf  Hf31  1  0.56505283  0.54178400  0.02350350  1.0
  Hf  Hf32  1  0.56505283  0.87511733  0.02350350  1.0
  Hf  Hf33  1  0.89838617  0.20845067  0.02350350  1.0
  Hf  Hf34  1  0.89838617  0.54178400  0.02350350  1.0
  Hf  Hf35  1  0.89838617  0.87511733  0.02350350  1.0
  Hf  Hf36  1  0.26828050  0.17250171  0.19078221  1.0
  Hf  Hf37  1  0.26828050  0.50583505  0.19078221  1.0
  Hf  Hf38  1  0.26828050  0.83916838  0.19078221  1.0
  Hf  Hf39  1  0.60161383  0.17250171  0.19078221  1.0
  Hf  Hf40  1  0.60161383  0.50583505  0.19078221  1.0
  Hf  Hf41  1  0.60161383  0.83916838  0.19078221  1.0
  Hf  Hf42  1  0.93494717  0.17250171  0.19078221  1.0
  Hf  Hf43  1  0.93494717  0.50583505  0.19078221  1.0
  Hf  Hf44  1  0.93494717  0.83916838  0.19078221  1.0
  Hf  Hf45  1  0.10161383  0.07726362  0.26221079  1.0
  Hf  Hf46  1  0.10161383  0.41059695  0.26221079  1.0
  Hf  Hf47  1  0.10161383  0.74393029  0.26221079  1.0
  Hf  Hf48  1  0.43494717  0.07726362  0.26221079  1.0
  Hf  Hf49  1  0.43494717  0.41059695  0.26221079  1.0
  Hf  Hf50  1  0.43494717  0.74393029  0.26221079  1.0
  Hf  Hf51  1  0.76828050  0.07726362  0.26221079  1.0
  Hf  Hf52  1  0.76828050  0.41059695  0.26221079  1.0
  Hf  Hf53  1  0.76828050  0.74393029  0.26221079  1.0
  Hf  Hf54  1  0.06505283  0.25606971  0.23778921  1.0
  Hf  Hf55  1  0.06505283  0.58940305  0.23778921  1.0
  Hf  Hf56  1  0.06505283  0.92273638  0.23778921  1.0
  Hf  Hf57  1  0.39838617  0.25606971  0.23778921  1.0
  Hf  Hf58  1  0.39838617  0.58940305  0.23778921  1.0
  Hf  Hf59  1  0.39838617  0.92273638  0.23778921  1.0
  Hf  Hf60  1  0.73171950  0.25606971  0.23778921  1.0
  Hf  Hf61  1  0.73171950  0.58940305  0.23778921  1.0
  Hf  Hf62  1  0.73171950  0.92273638  0.23778921  1.0
  Hf  Hf63  1  0.23171950  0.01797448  0.16636064  1.0
  Hf  Hf64  1  0.23171950  0.35130781  0.16636064  1.0
  Hf  Hf65  1  0.23171950  0.68464114  0.16636064  1.0
  Hf  Hf66  1  0.56505283  0.01797448  0.16636064  1.0
  Hf  Hf67  1  0.56505283  0.35130781  0.16636064  1.0
  Hf  Hf68  1  0.56505283  0.68464114  0.16636064  1.0
  Hf  Hf69  1  0.89838617  0.01797448  0.16636064  1.0
  Hf  Hf70  1  0.89838617  0.35130781  0.16636064  1.0
  Hf  Hf71  1  0.89838617  0.68464114  0.16636064  1.0
  Hf  Hf72  1  0.26828050  0.31535886  0.33363936  1.0
  Hf  Hf73  1  0.26828050  0.64869219  0.33363936  1.0
  Hf  Hf74  1  0.26828050  0.98202552  0.33363936  1.0
  Hf  Hf75  1  0.60161383  0.31535886  0.33363936  1.0
  Hf  Hf76  1  0.60161383  0.64869219  0.33363936  1.0
  Hf  Hf77  1  0.60161383  0.98202552  0.33363936  1.0
  Hf  Hf78  1  0.93494717  0.31535886  0.33363936  1.0
  Hf  Hf79  1  0.93494717  0.64869219  0.33363936  1.0
  Hf  Hf80  1  0.93494717  0.98202552  0.33363936  1.0
  Hf  Hf81  1  0.10161383  0.22012076  0.40506793  1.0
  Hf  Hf82  1  0.10161383  0.55345410  0.40506793  1.0
  Hf  Hf83  1  0.10161383  0.88678743  0.40506793  1.0
  Hf  Hf84  1  0.43494717  0.22012076  0.40506793  1.0
  Hf  Hf85  1  0.43494717  0.55345410  0.40506793  1.0
  Hf  Hf86  1  0.43494717  0.88678743  0.40506793  1.0
  Hf  Hf87  1  0.76828050  0.22012076  0.40506793  1.0
  Hf  Hf88  1  0.76828050  0.55345410  0.40506793  1.0
  Hf  Hf89  1  0.76828050  0.88678743  0.40506793  1.0
  Hf  Hf90  1  0.06505283  0.06559352  0.38064636  1.0
  Hf  Hf91  1  0.06505283  0.39892686  0.38064636  1.0
  Hf  Hf92  1  0.06505283  0.73226019  0.38064636  1.0
  Hf  Hf93  1  0.39838617  0.06559352  0.38064636  1.0
  Hf  Hf94  1  0.39838617  0.39892686  0.38064636  1.0
  Hf  Hf95  1  0.39838617  0.73226019  0.38064636  1.0
  Hf  Hf96  1  0.73171950  0.06559352  0.38064636  1.0
  Hf  Hf97  1  0.73171950  0.39892686  0.38064636  1.0
  Hf  Hf98  1  0.73171950  0.73226019  0.38064636  1.0
  Hf  Hf99  1  0.23171950  0.16083162  0.30921779  1.0
  Hf  Hf100  1  0.23171950  0.49416495  0.30921779  1.0
  Hf  Hf101  1  0.23171950  0.82749829  0.30921779  1.0
  Hf  Hf102  1  0.56505283  0.16083162  0.30921779  1.0
  Hf  Hf103  1  0.56505283  0.49416495  0.30921779  1.0
  Hf  Hf104  1  0.56505283  0.82749829  0.30921779  1.0
  Hf  Hf105  1  0.89838617  0.16083162  0.30921779  1.0
  Hf  Hf106  1  0.89838617  0.49416495  0.30921779  1.0
  Hf  Hf107  1  0.89838617  0.82749829  0.30921779  1.0
  Ni  Ni108  1  0.22228517  0.13477676  0.10706193  1.0
  Ni  Ni109  1  0.22228517  0.46811010  0.10706193  1.0
  Ni  Ni110  1  0.22228517  0.80144343  0.10706193  1.0
  Ni  Ni111  1  0.55561850  0.13477676  0.10706193  1.0
  Ni  Ni112  1  0.55561850  0.46811010  0.10706193  1.0
  Ni  Ni113  1  0.55561850  0.80144343  0.10706193  1.0
  Ni  Ni114  1  0.88895183  0.13477676  0.10706193  1.0
  Ni  Ni115  1  0.88895183  0.46811010  0.10706193  1.0
  Ni  Ni116  1  0.88895183  0.80144343  0.10706193  1.0
  Ni  Ni117  1  0.05561850  0.23001486  0.03563336  1.0
  Ni  Ni118  1  0.05561850  0.56334819  0.03563336  1.0
  Ni  Ni119  1  0.05561850  0.89668152  0.03563336  1.0
  Ni  Ni120  1  0.38895183  0.23001486  0.03563336  1.0
  Ni  Ni121  1  0.38895183  0.56334819  0.03563336  1.0
  Ni  Ni122  1  0.38895183  0.89668152  0.03563336  1.0
  Ni  Ni123  1  0.72228517  0.23001486  0.03563336  1.0
  Ni  Ni124  1  0.72228517  0.56334819  0.03563336  1.0
  Ni  Ni125  1  0.72228517  0.89668152  0.03563336  1.0
  Ni  Ni126  1  0.11104817  0.00808038  0.03579521  1.0
  Ni  Ni127  1  0.11104817  0.34141371  0.03579521  1.0
  Ni  Ni128  1  0.11104817  0.67474705  0.03579521  1.0
  Ni  Ni129  1  0.44438150  0.00808038  0.03579521  1.0
  Ni  Ni130  1  0.44438150  0.34141371  0.03579521  1.0
  Ni  Ni131  1  0.44438150  0.67474705  0.03579521  1.0
  Ni  Ni132  1  0.77771483  0.00808038  0.03579521  1.0
  Ni  Ni133  1  0.77771483  0.34141371  0.03579521  1.0
  Ni  Ni134  1  0.77771483  0.67474705  0.03579521  1.0
  Ni  Ni135  1  0.27771483  0.24617562  0.10722379  1.0
  Ni  Ni136  1  0.27771483  0.57950895  0.10722379  1.0
  Ni  Ni137  1  0.27771483  0.91284229  0.10722379  1.0
  Ni  Ni138  1  0.61104817  0.24617562  0.10722379  1.0
  Ni  Ni139  1  0.61104817  0.57950895  0.10722379  1.0
  Ni  Ni140  1  0.61104817  0.91284229  0.10722379  1.0
  Ni  Ni141  1  0.94438150  0.24617562  0.10722379  1.0
  Ni  Ni142  1  0.94438150  0.57950895  0.10722379  1.0
  Ni  Ni143  1  0.94438150  0.91284229  0.10722379  1.0
  Ni  Ni144  1  0.22228517  0.27763390  0.24991907  1.0
  Ni  Ni145  1  0.22228517  0.61096724  0.24991907  1.0
  Ni  Ni146  1  0.22228517  0.94430057  0.24991907  1.0
  Ni  Ni147  1  0.55561850  0.27763390  0.24991907  1.0
  Ni  Ni148  1  0.55561850  0.61096724  0.24991907  1.0
  Ni  Ni149  1  0.55561850  0.94430057  0.24991907  1.0
  Ni  Ni150  1  0.88895183  0.27763390  0.24991907  1.0
  Ni  Ni151  1  0.88895183  0.61096724  0.24991907  1.0
  Ni  Ni152  1  0.88895183  0.94430057  0.24991907  1.0
  Ni  Ni153  1  0.05561850  0.03953867  0.17849050  1.0
  Ni  Ni154  1  0.05561850  0.37287200  0.17849050  1.0
  Ni  Ni155  1  0.05561850  0.70620533  0.17849050  1.0
  Ni  Ni156  1  0.38895183  0.03953867  0.17849050  1.0
  Ni  Ni157  1  0.38895183  0.37287200  0.17849050  1.0
  Ni  Ni158  1  0.38895183  0.70620533  0.17849050  1.0
  Ni  Ni159  1  0.72228517  0.03953867  0.17849050  1.0
  Ni  Ni160  1  0.72228517  0.37287200  0.17849050  1.0
  Ni  Ni161  1  0.72228517  0.70620533  0.17849050  1.0
  Ni  Ni162  1  0.11104817  0.15093752  0.17865236  1.0
  Ni  Ni163  1  0.11104817  0.48427086  0.17865236  1.0
  Ni  Ni164  1  0.11104817  0.81760419  0.17865236  1.0
  Ni  Ni165  1  0.44438150  0.15093752  0.17865236  1.0
  Ni  Ni166  1  0.44438150  0.48427086  0.17865236  1.0
  Ni  Ni167  1  0.44438150  0.81760419  0.17865236  1.0
  Ni  Ni168  1  0.77771483  0.15093752  0.17865236  1.0
  Ni  Ni169  1  0.77771483  0.48427086  0.17865236  1.0
  Ni  Ni170  1  0.77771483  0.81760419  0.17865236  1.0
  Ni  Ni171  1  0.27771483  0.05569943  0.25008093  1.0
  Ni  Ni172  1  0.27771483  0.38903276  0.25008093  1.0
  Ni  Ni173  1  0.27771483  0.72236610  0.25008093  1.0
  Ni  Ni174  1  0.61104817  0.05569943  0.25008093  1.0
  Ni  Ni175  1  0.61104817  0.38903276  0.25008093  1.0
  Ni  Ni176  1  0.61104817  0.72236610  0.25008093  1.0
  Ni  Ni177  1  0.94438150  0.05569943  0.25008093  1.0
  Ni  Ni178  1  0.94438150  0.38903276  0.25008093  1.0
  Ni  Ni179  1  0.94438150  0.72236610  0.25008093  1.0
  Ni  Ni180  1  0.22228517  0.08715771  0.39277621  1.0
  Ni  Ni181  1  0.22228517  0.42049105  0.39277621  1.0
  Ni  Ni182  1  0.22228517  0.75382438  0.39277621  1.0
  Ni  Ni183  1  0.55561850  0.08715771  0.39277621  1.0
  Ni  Ni184  1  0.55561850  0.42049105  0.39277621  1.0
  Ni  Ni185  1  0.55561850  0.75382438  0.39277621  1.0
  Ni  Ni186  1  0.88895183  0.08715771  0.39277621  1.0
  Ni  Ni187  1  0.88895183  0.42049105  0.39277621  1.0
  Ni  Ni188  1  0.88895183  0.75382438  0.39277621  1.0
  Ni  Ni189  1  0.05561850  0.18239581  0.32134764  1.0
  Ni  Ni190  1  0.05561850  0.51572914  0.32134764  1.0
  Ni  Ni191  1  0.05561850  0.84906248  0.32134764  1.0
  Ni  Ni192  1  0.38895183  0.18239581  0.32134764  1.0
  Ni  Ni193  1  0.38895183  0.51572914  0.32134764  1.0
  Ni  Ni194  1  0.38895183  0.84906248  0.32134764  1.0
  Ni  Ni195  1  0.72228517  0.18239581  0.32134764  1.0
  Ni  Ni196  1  0.72228517  0.51572914  0.32134764  1.0
  Ni  Ni197  1  0.72228517  0.84906248  0.32134764  1.0
  Ni  Ni198  1  0.11104817  0.29379467  0.32150950  1.0
  Ni  Ni199  1  0.11104817  0.62712800  0.32150950  1.0
  Ni  Ni200  1  0.11104817  0.96046133  0.32150950  1.0
  Ni  Ni201  1  0.44438150  0.29379467  0.32150950  1.0
  Ni  Ni202  1  0.44438150  0.62712800  0.32150950  1.0
  Ni  Ni203  1  0.44438150  0.96046133  0.32150950  1.0
  Ni  Ni204  1  0.77771483  0.29379467  0.32150950  1.0
  Ni  Ni205  1  0.77771483  0.62712800  0.32150950  1.0
  Ni  Ni206  1  0.77771483  0.96046133  0.32150950  1.0
  Ni  Ni207  1  0.27771483  0.19855657  0.39293807  1.0
  Ni  Ni208  1  0.27771483  0.53188990  0.39293807  1.0
  Ni  Ni209  1  0.27771483  0.86522324  0.39293807  1.0
  Ni  Ni210  1  0.61104817  0.19855657  0.39293807  1.0
  Ni  Ni211  1  0.61104817  0.53188990  0.39293807  1.0
  Ni  Ni212  1  0.61104817  0.86522324  0.39293807  1.0
  Ni  Ni213  1  0.94438150  0.19855657  0.39293807  1.0
  Ni  Ni214  1  0.94438150  0.53188990  0.39293807  1.0
  Ni  Ni215  1  0.94438150  0.86522324  0.39293807  1.0
