# generated using pymatgen
data_HfNi3
_symmetry_space_group_name_H-M   'P 1'
_cell_length_a   21.32192436
_cell_length_b   30.89062704
_cell_length_c   49.75115684
_cell_angle_alpha   71.88215481
_cell_angle_beta   43.50916589
_cell_angle_gamma   59.95990767
_symmetry_Int_Tables_number   1
_chemical_formula_structural   HfNi3
_chemical_formula_sum   'Hf162 Ni486'
_cell_volume   19454.99132449
_cell_formula_units_Z   162
loop_
 _symmetry_equiv_pos_site_id
 _symmetry_equiv_pos_as_xyz
  1  'x, y, z'
loop_
 _atom_site_type_symbol
 _atom_site_label
 _atom_site_symmetry_multiplicity
 _atom_site_fract_x
 _atom_site_fract_y
 _atom_site_fract_z
 _atom_site_occupancy
  Hf  Hf0  1  0.26040833  0.13020417  0.01961039  1.0
  Hf  Hf1  1  0.26040833  0.46353750  0.01961039  1.0
  Hf  Hf2  1  0.26040833  0.79687083  0.01961039  1.0
  Hf  Hf3  1  0.59374167  0.13020417  0.01961039  1.0
  Hf  Hf4  1  0.59374167  0.46353750  0.01961039  1.0
  Hf  Hf5  1  0.59374167  0.79687083  0.01961039  1.0
  Hf  Hf6  1  0.92707500  0.13020417  0.01961039  1.0
  Hf  Hf7  1  0.92707500  0.46353750  0.01961039  1.0
  Hf  Hf8  1  0.92707500  0.79687083  0.01961039  1.0
  Hf  Hf9  1  0.26040833  0.29687083  0.09103896  1.0
  Hf  Hf10  1  0.26040833  0.63020417  0.09103896  1.0
  Hf  Hf11  1  0.26040833  0.96353750  0.09103896  1.0
  Hf  Hf12  1  0.59374167  0.29687083  0.09103896  1.0
  Hf  Hf13  1  0.59374167  0.63020417  0.09103896  1.0
  Hf  Hf14  1  0.59374167  0.96353750  0.09103896  1.0
  Hf  Hf15  1  0.92707500  0.29687083  0.09103896  1.0
  Hf  Hf16  1  0.92707500  0.63020417  0.09103896  1.0
  Hf  Hf17  1  0.92707500  0.96353750  0.09103896  1.0
  Hf  Hf18  1  0.07292500  0.03646250  0.04194254  1.0
  Hf  Hf19  1  0.07292500  0.36979583  0.04194254  1.0
  Hf  Hf20  1  0.07292500  0.70312917  0.04194254  1.0
  Hf  Hf21  1  0.40625833  0.03646250  0.04194254  1.0
  Hf  Hf22  1  0.40625833  0.36979583  0.04194254  1.0
  Hf  Hf23  1  0.40625833  0.70312917  0.04194254  1.0
  Hf  Hf24  1  0.73959167  0.03646250  0.04194254  1.0
  Hf  Hf25  1  0.73959167  0.36979583  0.04194254  1.0
  Hf  Hf26  1  0.73959167  0.70312917  0.04194254  1.0
  Hf  Hf27  1  0.07292500  0.20312917  0.11337111  1.0
  Hf  Hf28  1  0.07292500  0.53646250  0.11337111  1.0
  Hf  Hf29  1  0.07292500  0.86979583  0.11337111  1.0
  Hf  Hf30  1  0.40625833  0.20312917  0.11337111  1.0
  Hf  Hf31  1  0.40625833  0.53646250  0.11337111  1.0
  Hf  Hf32  1  0.40625833  0.86979583  0.11337111  1.0
  Hf  Hf33  1  0.73959167  0.20312917  0.11337111  1.0
  Hf  Hf34  1  0.73959167  0.53646250  0.11337111  1.0
  Hf  Hf35  1  0.73959167  0.86979583  0.11337111  1.0
  Hf  Hf36  1  0.00000000  0.00000000  0.13791932  1.0
  Hf  Hf37  1  0.00000000  0.33333333  0.13791932  1.0
  Hf  Hf38  1  0.00000000  0.66666667  0.13791932  1.0
  Hf  Hf39  1  0.33333333  0.00000000  0.13791932  1.0
  Hf  Hf40  1  0.33333333  0.33333333  0.13791932  1.0
  Hf  Hf41  1  0.33333333  0.66666667  0.13791932  1.0
  Hf  Hf42  1  0.66666667  0.00000000  0.13791932  1.0
  Hf  Hf43  1  0.66666667  0.33333333  0.13791932  1.0
  Hf  Hf44  1  0.66666667  0.66666667  0.13791932  1.0
  Hf  Hf45  1  0.00000000  0.16666667  0.06649075  1.0
  Hf  Hf46  1  0.00000000  0.50000000  0.06649075  1.0
  Hf  Hf47  1  0.00000000  0.83333333  0.06649075  1.0
  Hf  Hf48  1  0.33333333  0.16666667  0.06649075  1.0
  Hf  Hf49  1  0.33333333  0.50000000  0.06649075  1.0
  Hf  Hf50  1  0.33333333  0.83333333  0.06649075  1.0
  Hf  Hf51  1  0.66666667  0.16666667  0.06649075  1.0
  Hf  Hf52  1  0.66666667  0.50000000  0.06649075  1.0
  Hf  Hf53  1  0.66666667  0.83333333  0.06649075  1.0
  Ni  Ni54  1  0.08142233  0.11879217  0.00493782  1.0
  Ni  Ni55  1  0.08142233  0.45212550  0.00493782  1.0
  Ni  Ni56  1  0.08142233  0.78545883  0.00493782  1.0
  Ni  Ni57  1  0.41475567  0.11879217  0.00493782  1.0
  Ni  Ni58  1  0.41475567  0.45212550  0.00493782  1.0
  Ni  Ni59  1  0.41475567  0.78545883  0.00493782  1.0
  Ni  Ni60  1  0.74808900  0.11879217  0.00493782  1.0
  Ni  Ni61  1  0.74808900  0.45212550  0.00493782  1.0
  Ni  Ni62  1  0.74808900  0.78545883  0.00493782  1.0
  Ni  Ni63  1  0.08142233  0.28545883  0.07636639  1.0
  Ni  Ni64  1  0.08142233  0.61879217  0.07636639  1.0
  Ni  Ni65  1  0.08142233  0.95212550  0.07636639  1.0
  Ni  Ni66  1  0.41475567  0.28545883  0.07636639  1.0
  Ni  Ni67  1  0.41475567  0.61879217  0.07636639  1.0
  Ni  Ni68  1  0.41475567  0.95212550  0.07636639  1.0
  Ni  Ni69  1  0.74808900  0.28545883  0.07636639  1.0
  Ni  Ni70  1  0.74808900  0.61879217  0.07636639  1.0
  Ni  Ni71  1  0.74808900  0.95212550  0.07636639  1.0
  Ni  Ni72  1  0.23758433  0.11879217  0.08086839  1.0
  Ni  Ni73  1  0.23758433  0.45212550  0.08086839  1.0
  Ni  Ni74  1  0.23758433  0.78545883  0.08086839  1.0
  Ni  Ni75  1  0.57091767  0.11879217  0.08086839  1.0
  Ni  Ni76  1  0.57091767  0.45212550  0.08086839  1.0
  Ni  Ni77  1  0.57091767  0.78545883  0.08086839  1.0
  Ni  Ni78  1  0.90425100  0.11879217  0.08086839  1.0
  Ni  Ni79  1  0.90425100  0.45212550  0.08086839  1.0
  Ni  Ni80  1  0.90425100  0.78545883  0.08086839  1.0
  Ni  Ni81  1  0.23758433  0.28545883  0.00943982  1.0
  Ni  Ni82  1  0.23758433  0.61879217  0.00943982  1.0
  Ni  Ni83  1  0.23758433  0.95212550  0.00943982  1.0
  Ni  Ni84  1  0.57091767  0.28545883  0.00943982  1.0
  Ni  Ni85  1  0.57091767  0.61879217  0.00943982  1.0
  Ni  Ni86  1  0.57091767  0.95212550  0.00943982  1.0
  Ni  Ni87  1  0.90425100  0.28545883  0.00943982  1.0
  Ni  Ni88  1  0.90425100  0.61879217  0.00943982  1.0
  Ni  Ni89  1  0.90425100  0.95212550  0.00943982  1.0
  Ni  Ni90  1  0.23758433  0.04071117  0.11433168  1.0
  Ni  Ni91  1  0.23758433  0.37404450  0.11433168  1.0
  Ni  Ni92  1  0.23758433  0.70737783  0.11433168  1.0
  Ni  Ni93  1  0.57091767  0.04071117  0.11433168  1.0
  Ni  Ni94  1  0.57091767  0.37404450  0.11433168  1.0
  Ni  Ni95  1  0.57091767  0.70737783  0.11433168  1.0
  Ni  Ni96  1  0.90425100  0.04071117  0.11433168  1.0
  Ni  Ni97  1  0.90425100  0.37404450  0.11433168  1.0
  Ni  Ni98  1  0.90425100  0.70737783  0.11433168  1.0
  Ni  Ni99  1  0.23758433  0.20737783  0.04290311  1.0
  Ni  Ni100  1  0.23758433  0.54071117  0.04290311  1.0
  Ni  Ni101  1  0.23758433  0.87404450  0.04290311  1.0
  Ni  Ni102  1  0.57091767  0.20737783  0.04290311  1.0
  Ni  Ni103  1  0.57091767  0.54071117  0.04290311  1.0
  Ni  Ni104  1  0.57091767  0.87404450  0.04290311  1.0
  Ni  Ni105  1  0.90425100  0.20737783  0.04290311  1.0
  Ni  Ni106  1  0.90425100  0.54071117  0.04290311  1.0
  Ni  Ni107  1  0.90425100  0.87404450  0.04290311  1.0
  Ni  Ni108  1  0.16666667  0.00000000  0.06649075  1.0
  Ni  Ni109  1  0.16666667  0.33333333  0.06649075  1.0
  Ni  Ni110  1  0.16666667  0.66666667  0.06649075  1.0
  Ni  Ni111  1  0.50000000  0.00000000  0.06649075  1.0
  Ni  Ni112  1  0.50000000  0.33333333  0.06649075  1.0
  Ni  Ni113  1  0.50000000  0.66666667  0.06649075  1.0
  Ni  Ni114  1  0.83333333  0.00000000  0.06649075  1.0
  Ni  Ni115  1  0.83333333  0.33333333  0.06649075  1.0
  Ni  Ni116  1  0.83333333  0.66666667  0.06649075  1.0
  Ni  Ni117  1  0.16666667  0.16666667  0.13791932  1.0
  Ni  Ni118  1  0.16666667  0.50000000  0.13791932  1.0
  Ni  Ni119  1  0.16666667  0.83333333  0.13791932  1.0
  Ni  Ni120  1  0.50000000  0.16666667  0.13791932  1.0
  Ni  Ni121  1  0.50000000  0.50000000  0.13791932  1.0
  Ni  Ni122  1  0.50000000  0.83333333  0.13791932  1.0
  Ni  Ni123  1  0.83333333  0.16666667  0.13791932  1.0
  Ni  Ni124  1  0.83333333  0.50000000  0.13791932  1.0
  Ni  Ni125  1  0.83333333  0.83333333  0.13791932  1.0
  Ni  Ni126  1  0.16666667  0.08333333  0.03077646  1.0
  Ni  Ni127  1  0.16666667  0.41666667  0.03077646  1.0
  Ni  Ni128  1  0.16666667  0.75000000  0.03077646  1.0
  Ni  Ni129  1  0.50000000  0.08333333  0.03077646  1.0
  Ni  Ni130  1  0.50000000  0.41666667  0.03077646  1.0
  Ni  Ni131  1  0.50000000  0.75000000  0.03077646  1.0
  Ni  Ni132  1  0.83333333  0.08333333  0.03077646  1.0
  Ni  Ni133  1  0.83333333  0.41666667  0.03077646  1.0
  Ni  Ni134  1  0.83333333  0.75000000  0.03077646  1.0
  Ni  Ni135  1  0.16666667  0.25000000  0.10220504  1.0
  Ni  Ni136  1  0.16666667  0.58333333  0.10220504  1.0
  Ni  Ni137  1  0.16666667  0.91666667  0.10220504  1.0
  Ni  Ni138  1  0.50000000  0.25000000  0.10220504  1.0
  Ni  Ni139  1  0.50000000  0.58333333  0.10220504  1.0
  Ni  Ni140  1  0.50000000  0.91666667  0.10220504  1.0
  Ni  Ni141  1  0.83333333  0.25000000  0.10220504  1.0
  Ni  Ni142  1  0.83333333  0.58333333  0.10220504  1.0
  Ni  Ni143  1  0.83333333  0.91666667  0.10220504  1.0
  Ni  Ni144  1  0.00000000  0.08333333  0.10220504  1.0
  Ni  Ni145  1  0.00000000  0.41666667  0.10220504  1.0
  Ni  Ni146  1  0.00000000  0.75000000  0.10220504  1.0
  Ni  Ni147  1  0.33333333  0.08333333  0.10220504  1.0
  Ni  Ni148  1  0.33333333  0.41666667  0.10220504  1.0
  Ni  Ni149  1  0.33333333  0.75000000  0.10220504  1.0
  Ni  Ni150  1  0.66666667  0.08333333  0.10220504  1.0
  Ni  Ni151  1  0.66666667  0.41666667  0.10220504  1.0
  Ni  Ni152  1  0.66666667  0.75000000  0.10220504  1.0
  Ni  Ni153  1  0.00000000  0.25000000  0.03077646  1.0
  Ni  Ni154  1  0.00000000  0.58333333  0.03077646  1.0
  Ni  Ni155  1  0.00000000  0.91666667  0.03077646  1.0
  Ni  Ni156  1  0.33333333  0.25000000  0.03077646  1.0
  Ni  Ni157  1  0.33333333  0.58333333  0.03077646  1.0
  Ni  Ni158  1  0.33333333  0.91666667  0.03077646  1.0
  Ni  Ni159  1  0.66666667  0.25000000  0.03077646  1.0
  Ni  Ni160  1  0.66666667  0.58333333  0.03077646  1.0
  Ni  Ni161  1  0.66666667  0.91666667  0.03077646  1.0
  Ni  Ni162  1  0.09574900  0.12595550  0.09007839  1.0
  Ni  Ni163  1  0.09574900  0.45928883  0.09007839  1.0
  Ni  Ni164  1  0.09574900  0.79262217  0.09007839  1.0
  Ni  Ni165  1  0.42908233  0.12595550  0.09007839  1.0
  Ni  Ni166  1  0.42908233  0.45928883  0.09007839  1.0
  Ni  Ni167  1  0.42908233  0.79262217  0.09007839  1.0
  Ni  Ni168  1  0.76241567  0.12595550  0.09007839  1.0
  Ni  Ni169  1  0.76241567  0.45928883  0.09007839  1.0
  Ni  Ni170  1  0.76241567  0.79262217  0.09007839  1.0
  Ni  Ni171  1  0.09574900  0.29262217  0.01864982  1.0
  Ni  Ni172  1  0.09574900  0.62595550  0.01864982  1.0
  Ni  Ni173  1  0.09574900  0.95928883  0.01864982  1.0
  Ni  Ni174  1  0.42908233  0.29262217  0.01864982  1.0
  Ni  Ni175  1  0.42908233  0.62595550  0.01864982  1.0
  Ni  Ni176  1  0.42908233  0.95928883  0.01864982  1.0
  Ni  Ni177  1  0.76241567  0.29262217  0.01864982  1.0
  Ni  Ni178  1  0.76241567  0.62595550  0.01864982  1.0
  Ni  Ni179  1  0.76241567  0.95928883  0.01864982  1.0
  Ni  Ni180  1  0.09574900  0.04787450  0.12354168  1.0
  Ni  Ni181  1  0.09574900  0.38120783  0.12354168  1.0
  Ni  Ni182  1  0.09574900  0.71454117  0.12354168  1.0
  Ni  Ni183  1  0.42908233  0.04787450  0.12354168  1.0
  Ni  Ni184  1  0.42908233  0.38120783  0.12354168  1.0
  Ni  Ni185  1  0.42908233  0.71454117  0.12354168  1.0
  Ni  Ni186  1  0.76241567  0.04787450  0.12354168  1.0
  Ni  Ni187  1  0.76241567  0.38120783  0.12354168  1.0
  Ni  Ni188  1  0.76241567  0.71454117  0.12354168  1.0
  Ni  Ni189  1  0.09574900  0.21454117  0.05211311  1.0
  Ni  Ni190  1  0.09574900  0.54787450  0.05211311  1.0
  Ni  Ni191  1  0.09574900  0.88120783  0.05211311  1.0
  Ni  Ni192  1  0.42908233  0.21454117  0.05211311  1.0
  Ni  Ni193  1  0.42908233  0.54787450  0.05211311  1.0
  Ni  Ni194  1  0.42908233  0.88120783  0.05211311  1.0
  Ni  Ni195  1  0.76241567  0.21454117  0.05211311  1.0
  Ni  Ni196  1  0.76241567  0.54787450  0.05211311  1.0
  Ni  Ni197  1  0.76241567  0.88120783  0.05211311  1.0
  Ni  Ni198  1  0.25191100  0.04787450  0.05661511  1.0
  Ni  Ni199  1  0.25191100  0.38120783  0.05661511  1.0
  Ni  Ni200  1  0.25191100  0.71454117  0.05661511  1.0
  Ni  Ni201  1  0.58524433  0.04787450  0.05661511  1.0
  Ni  Ni202  1  0.58524433  0.38120783  0.05661511  1.0
  Ni  Ni203  1  0.58524433  0.71454117  0.05661511  1.0
  Ni  Ni204  1  0.91857767  0.04787450  0.05661511  1.0
  Ni  Ni205  1  0.91857767  0.38120783  0.05661511  1.0
  Ni  Ni206  1  0.91857767  0.71454117  0.05661511  1.0
  Ni  Ni207  1  0.25191100  0.21454117  0.12804368  1.0
  Ni  Ni208  1  0.25191100  0.54787450  0.12804368  1.0
  Ni  Ni209  1  0.25191100  0.88120783  0.12804368  1.0
  Ni  Ni210  1  0.58524433  0.21454117  0.12804368  1.0
  Ni  Ni211  1  0.58524433  0.54787450  0.12804368  1.0
  Ni  Ni212  1  0.58524433  0.88120783  0.12804368  1.0
  Ni  Ni213  1  0.91857767  0.21454117  0.12804368  1.0
  Ni  Ni214  1  0.91857767  0.54787450  0.12804368  1.0
  Ni  Ni215  1  0.91857767  0.88120783  0.12804368  1.0
  Hf  Hf216  1  0.26040833  0.13020417  0.16246754  1.0
  Hf  Hf217  1  0.26040833  0.46353750  0.16246754  1.0
  Hf  Hf218  1  0.26040833  0.79687083  0.16246754  1.0
  Hf  Hf219  1  0.59374167  0.13020417  0.16246754  1.0
  Hf  Hf220  1  0.59374167  0.46353750  0.16246754  1.0
  Hf  Hf221  1  0.59374167  0.79687083  0.16246754  1.0
  Hf  Hf222  1  0.92707500  0.13020417  0.16246754  1.0
  Hf  Hf223  1  0.92707500  0.46353750  0.16246754  1.0
  Hf  Hf224  1  0.92707500  0.79687083  0.16246754  1.0
  Hf  Hf225  1  0.26040833  0.29687083  0.23389611  1.0
  Hf  Hf226  1  0.26040833  0.63020417  0.23389611  1.0
  Hf  Hf227  1  0.26040833  0.96353750  0.23389611  1.0
  Hf  Hf228  1  0.59374167  0.29687083  0.23389611  1.0
  Hf  Hf229  1  0.59374167  0.63020417  0.23389611  1.0
  Hf  Hf230  1  0.59374167  0.96353750  0.23389611  1.0
  Hf  Hf231  1  0.92707500  0.29687083  0.23389611  1.0
  Hf  Hf232  1  0.92707500  0.63020417  0.23389611  1.0
  Hf  Hf233  1  0.92707500  0.96353750  0.23389611  1.0
  Hf  Hf234  1  0.07292500  0.03646250  0.18479968  1.0
  Hf  Hf235  1  0.07292500  0.36979583  0.18479968  1.0
  Hf  Hf236  1  0.07292500  0.70312917  0.18479968  1.0
  Hf  Hf237  1  0.40625833  0.03646250  0.18479968  1.0
  Hf  Hf238  1  0.40625833  0.36979583  0.18479968  1.0
  Hf  Hf239  1  0.40625833  0.70312917  0.18479968  1.0
  Hf  Hf240  1  0.73959167  0.03646250  0.18479968  1.0
  Hf  Hf241  1  0.73959167  0.36979583  0.18479968  1.0
  Hf  Hf242  1  0.73959167  0.70312917  0.18479968  1.0
  Hf  Hf243  1  0.07292500  0.20312917  0.25622825  1.0
  Hf  Hf244  1  0.07292500  0.53646250  0.25622825  1.0
  Hf  Hf245  1  0.07292500  0.86979583  0.25622825  1.0
  Hf  Hf246  1  0.40625833  0.20312917  0.25622825  1.0
  Hf  Hf247  1  0.40625833  0.53646250  0.25622825  1.0
  Hf  Hf248  1  0.40625833  0.86979583  0.25622825  1.0
  Hf  Hf249  1  0.73959167  0.20312917  0.25622825  1.0
  Hf  Hf250  1  0.73959167  0.53646250  0.25622825  1.0
  Hf  Hf251  1  0.73959167  0.86979583  0.25622825  1.0
  Hf  Hf252  1  0.00000000  0.00000000  0.28077646  1.0
  Hf  Hf253  1  0.00000000  0.33333333  0.28077646  1.0
  Hf  Hf254  1  0.00000000  0.66666667  0.28077646  1.0
  Hf  Hf255  1  0.33333333  0.00000000  0.28077646  1.0
  Hf  Hf256  1  0.33333333  0.33333333  0.28077646  1.0
  Hf  Hf257  1  0.33333333  0.66666667  0.28077646  1.0
  Hf  Hf258  1  0.66666667  0.00000000  0.28077646  1.0
  Hf  Hf259  1  0.66666667  0.33333333  0.28077646  1.0
  Hf  Hf260  1  0.66666667  0.66666667  0.28077646  1.0
  Hf  Hf261  1  0.00000000  0.16666667  0.20934789  1.0
  Hf  Hf262  1  0.00000000  0.50000000  0.20934789  1.0
  Hf  Hf263  1  0.00000000  0.83333333  0.20934789  1.0
  Hf  Hf264  1  0.33333333  0.16666667  0.20934789  1.0
  Hf  Hf265  1  0.33333333  0.50000000  0.20934789  1.0
  Hf  Hf266  1  0.33333333  0.83333333  0.20934789  1.0
  Hf  Hf267  1  0.66666667  0.16666667  0.20934789  1.0
  Hf  Hf268  1  0.66666667  0.50000000  0.20934789  1.0
  Hf  Hf269  1  0.66666667  0.83333333  0.20934789  1.0
  Ni  Ni270  1  0.08142233  0.11879217  0.14779496  1.0
  Ni  Ni271  1  0.08142233  0.45212550  0.14779496  1.0
  Ni  Ni272  1  0.08142233  0.78545883  0.14779496  1.0
  Ni  Ni273  1  0.41475567  0.11879217  0.14779496  1.0
  Ni  Ni274  1  0.41475567  0.45212550  0.14779496  1.0
  Ni  Ni275  1  0.41475567  0.78545883  0.14779496  1.0
  Ni  Ni276  1  0.74808900  0.11879217  0.14779496  1.0
  Ni  Ni277  1  0.74808900  0.45212550  0.14779496  1.0
  Ni  Ni278  1  0.74808900  0.78545883  0.14779496  1.0
  Ni  Ni279  1  0.08142233  0.28545883  0.21922354  1.0
  Ni  Ni280  1  0.08142233  0.61879217  0.21922354  1.0
  Ni  Ni281  1  0.08142233  0.95212550  0.21922354  1.0
  Ni  Ni282  1  0.41475567  0.28545883  0.21922354  1.0
  Ni  Ni283  1  0.41475567  0.61879217  0.21922354  1.0
  Ni  Ni284  1  0.41475567  0.95212550  0.21922354  1.0
  Ni  Ni285  1  0.74808900  0.28545883  0.21922354  1.0
  Ni  Ni286  1  0.74808900  0.61879217  0.21922354  1.0
  Ni  Ni287  1  0.74808900  0.95212550  0.21922354  1.0
  Ni  Ni288  1  0.23758433  0.11879217  0.22372554  1.0
  Ni  Ni289  1  0.23758433  0.45212550  0.22372554  1.0
  Ni  Ni290  1  0.23758433  0.78545883  0.22372554  1.0
  Ni  Ni291  1  0.57091767  0.11879217  0.22372554  1.0
  Ni  Ni292  1  0.57091767  0.45212550  0.22372554  1.0
  Ni  Ni293  1  0.57091767  0.78545883  0.22372554  1.0
  Ni  Ni294  1  0.90425100  0.11879217  0.22372554  1.0
  Ni  Ni295  1  0.90425100  0.45212550  0.22372554  1.0
  Ni  Ni296  1  0.90425100  0.78545883  0.22372554  1.0
  Ni  Ni297  1  0.23758433  0.28545883  0.15229696  1.0
  Ni  Ni298  1  0.23758433  0.61879217  0.15229696  1.0
  Ni  Ni299  1  0.23758433  0.95212550  0.15229696  1.0
  Ni  Ni300  1  0.57091767  0.28545883  0.15229696  1.0
  Ni  Ni301  1  0.57091767  0.61879217  0.15229696  1.0
  Ni  Ni302  1  0.57091767  0.95212550  0.15229696  1.0
  Ni  Ni303  1  0.90425100  0.28545883  0.15229696  1.0
  Ni  Ni304  1  0.90425100  0.61879217  0.15229696  1.0
  Ni  Ni305  1  0.90425100  0.95212550  0.15229696  1.0
  Ni  Ni306  1  0.23758433  0.04071117  0.25718882  1.0
  Ni  Ni307  1  0.23758433  0.37404450  0.25718882  1.0
  Ni  Ni308  1  0.23758433  0.70737783  0.25718882  1.0
  Ni  Ni309  1  0.57091767  0.04071117  0.25718882  1.0
  Ni  Ni310  1  0.57091767  0.37404450  0.25718882  1.0
  Ni  Ni311  1  0.57091767  0.70737783  0.25718882  1.0
  Ni  Ni312  1  0.90425100  0.04071117  0.25718882  1.0
  Ni  Ni313  1  0.90425100  0.37404450  0.25718882  1.0
  Ni  Ni314  1  0.90425100  0.70737783  0.25718882  1.0
  Ni  Ni315  1  0.23758433  0.20737783  0.18576025  1.0
  Ni  Ni316  1  0.23758433  0.54071117  0.18576025  1.0
  Ni  Ni317  1  0.23758433  0.87404450  0.18576025  1.0
  Ni  Ni318  1  0.57091767  0.20737783  0.18576025  1.0
  Ni  Ni319  1  0.57091767  0.54071117  0.18576025  1.0
  Ni  Ni320  1  0.57091767  0.87404450  0.18576025  1.0
  Ni  Ni321  1  0.90425100  0.20737783  0.18576025  1.0
  Ni  Ni322  1  0.90425100  0.54071117  0.18576025  1.0
  Ni  Ni323  1  0.90425100  0.87404450  0.18576025  1.0
  Ni  Ni324  1  0.16666667  0.00000000  0.20934789  1.0
  Ni  Ni325  1  0.16666667  0.33333333  0.20934789  1.0
  Ni  Ni326  1  0.16666667  0.66666667  0.20934789  1.0
  Ni  Ni327  1  0.50000000  0.00000000  0.20934789  1.0
  Ni  Ni328  1  0.50000000  0.33333333  0.20934789  1.0
  Ni  Ni329  1  0.50000000  0.66666667  0.20934789  1.0
  Ni  Ni330  1  0.83333333  0.00000000  0.20934789  1.0
  Ni  Ni331  1  0.83333333  0.33333333  0.20934789  1.0
  Ni  Ni332  1  0.83333333  0.66666667  0.20934789  1.0
  Ni  Ni333  1  0.16666667  0.16666667  0.28077646  1.0
  Ni  Ni334  1  0.16666667  0.50000000  0.28077646  1.0
  Ni  Ni335  1  0.16666667  0.83333333  0.28077646  1.0
  Ni  Ni336  1  0.50000000  0.16666667  0.28077646  1.0
  Ni  Ni337  1  0.50000000  0.50000000  0.28077646  1.0
  Ni  Ni338  1  0.50000000  0.83333333  0.28077646  1.0
  Ni  Ni339  1  0.83333333  0.16666667  0.28077646  1.0
  Ni  Ni340  1  0.83333333  0.50000000  0.28077646  1.0
  Ni  Ni341  1  0.83333333  0.83333333  0.28077646  1.0
  Ni  Ni342  1  0.16666667  0.08333333  0.17363361  1.0
  Ni  Ni343  1  0.16666667  0.41666667  0.17363361  1.0
  Ni  Ni344  1  0.16666667  0.75000000  0.17363361  1.0
  Ni  Ni345  1  0.50000000  0.08333333  0.17363361  1.0
  Ni  Ni346  1  0.50000000  0.41666667  0.17363361  1.0
  Ni  Ni347  1  0.50000000  0.75000000  0.17363361  1.0
  Ni  Ni348  1  0.83333333  0.08333333  0.17363361  1.0
  Ni  Ni349  1  0.83333333  0.41666667  0.17363361  1.0
  Ni  Ni350  1  0.83333333  0.75000000  0.17363361  1.0
  Ni  Ni351  1  0.16666667  0.25000000  0.24506218  1.0
  Ni  Ni352  1  0.16666667  0.58333333  0.24506218  1.0
  Ni  Ni353  1  0.16666667  0.91666667  0.24506218  1.0
  Ni  Ni354  1  0.50000000  0.25000000  0.24506218  1.0
  Ni  Ni355  1  0.50000000  0.58333333  0.24506218  1.0
  Ni  Ni356  1  0.50000000  0.91666667  0.24506218  1.0
  Ni  Ni357  1  0.83333333  0.25000000  0.24506218  1.0
  Ni  Ni358  1  0.83333333  0.58333333  0.24506218  1.0
  Ni  Ni359  1  0.83333333  0.91666667  0.24506218  1.0
  Ni  Ni360  1  0.00000000  0.08333333  0.24506218  1.0
  Ni  Ni361  1  0.00000000  0.41666667  0.24506218  1.0
  Ni  Ni362  1  0.00000000  0.75000000  0.24506218  1.0
  Ni  Ni363  1  0.33333333  0.08333333  0.24506218  1.0
  Ni  Ni364  1  0.33333333  0.41666667  0.24506218  1.0
  Ni  Ni365  1  0.33333333  0.75000000  0.24506218  1.0
  Ni  Ni366  1  0.66666667  0.08333333  0.24506218  1.0
  Ni  Ni367  1  0.66666667  0.41666667  0.24506218  1.0
  Ni  Ni368  1  0.66666667  0.75000000  0.24506218  1.0
  Ni  Ni369  1  0.00000000  0.25000000  0.17363361  1.0
  Ni  Ni370  1  0.00000000  0.58333333  0.17363361  1.0
  Ni  Ni371  1  0.00000000  0.91666667  0.17363361  1.0
  Ni  Ni372  1  0.33333333  0.25000000  0.17363361  1.0
  Ni  Ni373  1  0.33333333  0.58333333  0.17363361  1.0
  Ni  Ni374  1  0.33333333  0.91666667  0.17363361  1.0
  Ni  Ni375  1  0.66666667  0.25000000  0.17363361  1.0
  Ni  Ni376  1  0.66666667  0.58333333  0.17363361  1.0
  Ni  Ni377  1  0.66666667  0.91666667  0.17363361  1.0
  Ni  Ni378  1  0.09574900  0.12595550  0.23293554  1.0
  Ni  Ni379  1  0.09574900  0.45928883  0.23293554  1.0
  Ni  Ni380  1  0.09574900  0.79262217  0.23293554  1.0
  Ni  Ni381  1  0.42908233  0.12595550  0.23293554  1.0
  Ni  Ni382  1  0.42908233  0.45928883  0.23293554  1.0
  Ni  Ni383  1  0.42908233  0.79262217  0.23293554  1.0
  Ni  Ni384  1  0.76241567  0.12595550  0.23293554  1.0
  Ni  Ni385  1  0.76241567  0.45928883  0.23293554  1.0
  Ni  Ni386  1  0.76241567  0.79262217  0.23293554  1.0
  Ni  Ni387  1  0.09574900  0.29262217  0.16150696  1.0
  Ni  Ni388  1  0.09574900  0.62595550  0.16150696  1.0
  Ni  Ni389  1  0.09574900  0.95928883  0.16150696  1.0
  Ni  Ni390  1  0.42908233  0.29262217  0.16150696  1.0
  Ni  Ni391  1  0.42908233  0.62595550  0.16150696  1.0
  Ni  Ni392  1  0.42908233  0.95928883  0.16150696  1.0
  Ni  Ni393  1  0.76241567  0.29262217  0.16150696  1.0
  Ni  Ni394  1  0.76241567  0.62595550  0.16150696  1.0
  Ni  Ni395  1  0.76241567  0.95928883  0.16150696  1.0
  Ni  Ni396  1  0.09574900  0.04787450  0.26639882  1.0
  Ni  Ni397  1  0.09574900  0.38120783  0.26639882  1.0
  Ni  Ni398  1  0.09574900  0.71454117  0.26639882  1.0
  Ni  Ni399  1  0.42908233  0.04787450  0.26639882  1.0
  Ni  Ni400  1  0.42908233  0.38120783  0.26639882  1.0
  Ni  Ni401  1  0.42908233  0.71454117  0.26639882  1.0
  Ni  Ni402  1  0.76241567  0.04787450  0.26639882  1.0
  Ni  Ni403  1  0.76241567  0.38120783  0.26639882  1.0
  Ni  Ni404  1  0.76241567  0.71454117  0.26639882  1.0
  Ni  Ni405  1  0.09574900  0.21454117  0.19497025  1.0
  Ni  Ni406  1  0.09574900  0.54787450  0.19497025  1.0
  Ni  Ni407  1  0.09574900  0.88120783  0.19497025  1.0
  Ni  Ni408  1  0.42908233  0.21454117  0.19497025  1.0
  Ni  Ni409  1  0.42908233  0.54787450  0.19497025  1.0
  Ni  Ni410  1  0.42908233  0.88120783  0.19497025  1.0
  Ni  Ni411  1  0.76241567  0.21454117  0.19497025  1.0
  Ni  Ni412  1  0.76241567  0.54787450  0.19497025  1.0
  Ni  Ni413  1  0.76241567  0.88120783  0.19497025  1.0
  Ni  Ni414  1  0.25191100  0.04787450  0.19947225  1.0
  Ni  Ni415  1  0.25191100  0.38120783  0.19947225  1.0
  Ni  Ni416  1  0.25191100  0.71454117  0.19947225  1.0
  Ni  Ni417  1  0.58524433  0.04787450  0.19947225  1.0
  Ni  Ni418  1  0.58524433  0.38120783  0.19947225  1.0
  Ni  Ni419  1  0.58524433  0.71454117  0.19947225  1.0
  Ni  Ni420  1  0.91857767  0.04787450  0.19947225  1.0
  Ni  Ni421  1  0.91857767  0.38120783  0.19947225  1.0
  Ni  Ni422  1  0.91857767  0.71454117  0.19947225  1.0
  Ni  Ni423  1  0.25191100  0.21454117  0.27090082  1.0
  Ni  Ni424  1  0.25191100  0.54787450  0.27090082  1.0
  Ni  Ni425  1  0.25191100  0.88120783  0.27090082  1.0
  Ni  Ni426  1  0.58524433  0.21454117  0.27090082  1.0
  Ni  Ni427  1  0.58524433  0.54787450  0.27090082  1.0
  Ni  Ni428  1  0.58524433  0.88120783  0.27090082  1.0
  Ni  Ni429  1  0.91857767  0.21454117  0.27090082  1.0
  Ni  Ni430  1  0.91857767  0.54787450  0.27090082  1.0
  Ni  Ni431  1  0.91857767  0.88120783  0.27090082  1.0
  Hf  Hf432  1  0.26040833  0.13020417  0.30532468  1.0
  Hf  Hf433  1  0.26040833  0.46353750  0.30532468  1.0
  Hf  Hf434  1  0.26040833  0.79687083  0.30532468  1.0
  Hf  Hf435  1  0.59374167  0.13020417  0.30532468  1.0
  Hf  Hf436  1  0.59374167  0.46353750  0.30532468  1.0
  Hf  Hf437  1  0.59374167  0.79687083  0.30532468  1.0
  Hf  Hf438  1  0.92707500  0.13020417  0.30532468  1.0
  Hf  Hf439  1  0.92707500  0.46353750  0.30532468  1.0
  Hf  Hf440  1  0.92707500  0.79687083  0.30532468  1.0
  Hf  Hf441  1  0.26040833  0.29687083  0.37675325  1.0
  Hf  Hf442  1  0.26040833  0.63020417  0.37675325  1.0
  Hf  Hf443  1  0.26040833  0.96353750  0.37675325  1.0
  Hf  Hf444  1  0.59374167  0.29687083  0.37675325  1.0
  Hf  Hf445  1  0.59374167  0.63020417  0.37675325  1.0
  Hf  Hf446  1  0.59374167  0.96353750  0.37675325  1.0
  Hf  Hf447  1  0.92707500  0.29687083  0.37675325  1.0
  Hf  Hf448  1  0.92707500  0.63020417  0.37675325  1.0
  Hf  Hf449  1  0.92707500  0.96353750  0.37675325  1.0
  Hf  Hf450  1  0.07292500  0.03646250  0.32765682  1.0
  Hf  Hf451  1  0.07292500  0.36979583  0.32765682  1.0
  Hf  Hf452  1  0.07292500  0.70312917  0.32765682  1.0
  Hf  Hf453  1  0.40625833  0.03646250  0.32765682  1.0
  Hf  Hf454  1  0.40625833  0.36979583  0.32765682  1.0
  Hf  Hf455  1  0.40625833  0.70312917  0.32765682  1.0
  Hf  Hf456  1  0.73959167  0.03646250  0.32765682  1.0
  Hf  Hf457  1  0.73959167  0.36979583  0.32765682  1.0
  Hf  Hf458  1  0.73959167  0.70312917  0.32765682  1.0
  Hf  Hf459  1  0.07292500  0.20312917  0.39908539  1.0
  Hf  Hf460  1  0.07292500  0.53646250  0.39908539  1.0
  Hf  Hf461  1  0.07292500  0.86979583  0.39908539  1.0
  Hf  Hf462  1  0.40625833  0.20312917  0.39908539  1.0
  Hf  Hf463  1  0.40625833  0.53646250  0.39908539  1.0
  Hf  Hf464  1  0.40625833  0.86979583  0.39908539  1.0
  Hf  Hf465  1  0.73959167  0.20312917  0.39908539  1.0
  Hf  Hf466  1  0.73959167  0.53646250  0.39908539  1.0
  Hf  Hf467  1  0.73959167  0.86979583  0.39908539  1.0
  Hf  Hf468  1  0.00000000  0.00000000  0.42363361  1.0
  Hf  Hf469  1  0.00000000  0.33333333  0.42363361  1.0
  Hf  Hf470  1  0.00000000  0.66666667  0.42363361  1.0
  Hf  Hf471  1  0.33333333  0.00000000  0.42363361  1.0
  Hf  Hf472  1  0.33333333  0.33333333  0.42363361  1.0
  Hf  Hf473  1  0.33333333  0.66666667  0.42363361  1.0
  Hf  Hf474  1  0.66666667  0.00000000  0.42363361  1.0
  Hf  Hf475  1  0.66666667  0.33333333  0.42363361  1.0
  Hf  Hf476  1  0.66666667  0.66666667  0.42363361  1.0
  Hf  Hf477  1  0.00000000  0.16666667  0.35220504  1.0
  Hf  Hf478  1  0.00000000  0.50000000  0.35220504  1.0
  Hf  Hf479  1  0.00000000  0.83333333  0.35220504  1.0
  Hf  Hf480  1  0.33333333  0.16666667  0.35220504  1.0
  Hf  Hf481  1  0.33333333  0.50000000  0.35220504  1.0
  Hf  Hf482  1  0.33333333  0.83333333  0.35220504  1.0
  Hf  Hf483  1  0.66666667  0.16666667  0.35220504  1.0
  Hf  Hf484  1  0.66666667  0.50000000  0.35220504  1.0
  Hf  Hf485  1  0.66666667  0.83333333  0.35220504  1.0
  Ni  Ni486  1  0.08142233  0.11879217  0.29065211  1.0
  Ni  Ni487  1  0.08142233  0.45212550  0.29065211  1.0
  Ni  Ni488  1  0.08142233  0.78545883  0.29065211  1.0
  Ni  Ni489  1  0.41475567  0.11879217  0.29065211  1.0
  Ni  Ni490  1  0.41475567  0.45212550  0.29065211  1.0
  Ni  Ni491  1  0.41475567  0.78545883  0.29065211  1.0
  Ni  Ni492  1  0.74808900  0.11879217  0.29065211  1.0
  Ni  Ni493  1  0.74808900  0.45212550  0.29065211  1.0
  Ni  Ni494  1  0.74808900  0.78545883  0.29065211  1.0
  Ni  Ni495  1  0.08142233  0.28545883  0.36208068  1.0
  Ni  Ni496  1  0.08142233  0.61879217  0.36208068  1.0
  Ni  Ni497  1  0.08142233  0.95212550  0.36208068  1.0
  Ni  Ni498  1  0.41475567  0.28545883  0.36208068  1.0
  Ni  Ni499  1  0.41475567  0.61879217  0.36208068  1.0
  Ni  Ni500  1  0.41475567  0.95212550  0.36208068  1.0
  Ni  Ni501  1  0.74808900  0.28545883  0.36208068  1.0
  Ni  Ni502  1  0.74808900  0.61879217  0.36208068  1.0
  Ni  Ni503  1  0.74808900  0.95212550  0.36208068  1.0
  Ni  Ni504  1  0.23758433  0.11879217  0.36658268  1.0
  Ni  Ni505  1  0.23758433  0.45212550  0.36658268  1.0
  Ni  Ni506  1  0.23758433  0.78545883  0.36658268  1.0
  Ni  Ni507  1  0.57091767  0.11879217  0.36658268  1.0
  Ni  Ni508  1  0.57091767  0.45212550  0.36658268  1.0
  Ni  Ni509  1  0.57091767  0.78545883  0.36658268  1.0
  Ni  Ni510  1  0.90425100  0.11879217  0.36658268  1.0
  Ni  Ni511  1  0.90425100  0.45212550  0.36658268  1.0
  Ni  Ni512  1  0.90425100  0.78545883  0.36658268  1.0
  Ni  Ni513  1  0.23758433  0.28545883  0.29515411  1.0
  Ni  Ni514  1  0.23758433  0.61879217  0.29515411  1.0
  Ni  Ni515  1  0.23758433  0.95212550  0.29515411  1.0
  Ni  Ni516  1  0.57091767  0.28545883  0.29515411  1.0
  Ni  Ni517  1  0.57091767  0.61879217  0.29515411  1.0
  Ni  Ni518  1  0.57091767  0.95212550  0.29515411  1.0
  Ni  Ni519  1  0.90425100  0.28545883  0.29515411  1.0
  Ni  Ni520  1  0.90425100  0.61879217  0.29515411  1.0
  Ni  Ni521  1  0.90425100  0.95212550  0.29515411  1.0
  Ni  Ni522  1  0.23758433  0.04071117  0.40004596  1.0
  Ni  Ni523  1  0.23758433  0.37404450  0.40004596  1.0
  Ni  Ni524  1  0.23758433  0.70737783  0.40004596  1.0
  Ni  Ni525  1  0.57091767  0.04071117  0.40004596  1.0
  Ni  Ni526  1  0.57091767  0.37404450  0.40004596  1.0
  Ni  Ni527  1  0.57091767  0.70737783  0.40004596  1.0
  Ni  Ni528  1  0.90425100  0.04071117  0.40004596  1.0
  Ni  Ni529  1  0.90425100  0.37404450  0.40004596  1.0
  Ni  Ni530  1  0.90425100  0.70737783  0.40004596  1.0
  Ni  Ni531  1  0.23758433  0.20737783  0.32861739  1.0
  Ni  Ni532  1  0.23758433  0.54071117  0.32861739  1.0
  Ni  Ni533  1  0.23758433  0.87404450  0.32861739  1.0
  Ni  Ni534  1  0.57091767  0.20737783  0.32861739  1.0
  Ni  Ni535  1  0.57091767  0.54071117  0.32861739  1.0
  Ni  Ni536  1  0.57091767  0.87404450  0.32861739  1.0
  Ni  Ni537  1  0.90425100  0.20737783  0.32861739  1.0
  Ni  Ni538  1  0.90425100  0.54071117  0.32861739  1.0
  Ni  Ni539  1  0.90425100  0.87404450  0.32861739  1.0
  Ni  Ni540  1  0.16666667  0.00000000  0.35220504  1.0
  Ni  Ni541  1  0.16666667  0.33333333  0.35220504  1.0
  Ni  Ni542  1  0.16666667  0.66666667  0.35220504  1.0
  Ni  Ni543  1  0.50000000  0.00000000  0.35220504  1.0
  Ni  Ni544  1  0.50000000  0.33333333  0.35220504  1.0
  Ni  Ni545  1  0.50000000  0.66666667  0.35220504  1.0
  Ni  Ni546  1  0.83333333  0.00000000  0.35220504  1.0
  Ni  Ni547  1  0.83333333  0.33333333  0.35220504  1.0
  Ni  Ni548  1  0.83333333  0.66666667  0.35220504  1.0
  Ni  Ni549  1  0.16666667  0.16666667  0.42363361  1.0
  Ni  Ni550  1  0.16666667  0.50000000  0.42363361  1.0
  Ni  Ni551  1  0.16666667  0.83333333  0.42363361  1.0
  Ni  Ni552  1  0.50000000  0.16666667  0.42363361  1.0
  Ni  Ni553  1  0.50000000  0.50000000  0.42363361  1.0
  Ni  Ni554  1  0.50000000  0.83333333  0.42363361  1.0
  Ni  Ni555  1  0.83333333  0.16666667  0.42363361  1.0
  Ni  Ni556  1  0.83333333  0.50000000  0.42363361  1.0
  Ni  Ni557  1  0.83333333  0.83333333  0.42363361  1.0
  Ni  Ni558  1  0.16666667  0.08333333  0.31649075  1.0
  Ni  Ni559  1  0.16666667  0.41666667  0.31649075  1.0
  Ni  Ni560  1  0.16666667  0.75000000  0.31649075  1.0
  Ni  Ni561  1  0.50000000  0.08333333  0.31649075  1.0
  Ni  Ni562  1  0.50000000  0.41666667  0.31649075  1.0
  Ni  Ni563  1  0.50000000  0.75000000  0.31649075  1.0
  Ni  Ni564  1  0.83333333  0.08333333  0.31649075  1.0
  Ni  Ni565  1  0.83333333  0.41666667  0.31649075  1.0
  Ni  Ni566  1  0.83333333  0.75000000  0.31649075  1.0
  Ni  Ni567  1  0.16666667  0.25000000  0.38791932  1.0
  Ni  Ni568  1  0.16666667  0.58333333  0.38791932  1.0
  Ni  Ni569  1  0.16666667  0.91666667  0.38791932  1.0
  Ni  Ni570  1  0.50000000  0.25000000  0.38791932  1.0
  Ni  Ni571  1  0.50000000  0.58333333  0.38791932  1.0
  Ni  Ni572  1  0.50000000  0.91666667  0.38791932  1.0
  Ni  Ni573  1  0.83333333  0.25000000  0.38791932  1.0
  Ni  Ni574  1  0.83333333  0.58333333  0.38791932  1.0
  Ni  Ni575  1  0.83333333  0.91666667  0.38791932  1.0
  Ni  Ni576  1  0.00000000  0.08333333  0.38791932  1.0
  Ni  Ni577  1  0.00000000  0.41666667  0.38791932  1.0
  Ni  Ni578  1  0.00000000  0.75000000  0.38791932  1.0
  Ni  Ni579  1  0.33333333  0.08333333  0.38791932  1.0
  Ni  Ni580  1  0.33333333  0.41666667  0.38791932  1.0
  Ni  Ni581  1  0.33333333  0.75000000  0.38791932  1.0
  Ni  Ni582  1  0.66666667  0.08333333  0.38791932  1.0
  Ni  Ni583  1  0.66666667  0.41666667  0.38791932  1.0
  Ni  Ni584  1  0.66666667  0.75000000  0.38791932  1.0
  Ni  Ni585  1  0.00000000  0.25000000  0.31649075  1.0
  Ni  Ni586  1  0.00000000  0.58333333  0.31649075  1.0
  Ni  Ni587  1  0.00000000  0.91666667  0.31649075  1.0
  Ni  Ni588  1  0.33333333  0.25000000  0.31649075  1.0
  Ni  Ni589  1  0.33333333  0.58333333  0.31649075  1.0
  Ni  Ni590  1  0.33333333  0.91666667  0.31649075  1.0
  Ni  Ni591  1  0.66666667  0.25000000  0.31649075  1.0
  Ni  Ni592  1  0.66666667  0.58333333  0.31649075  1.0
  Ni  Ni593  1  0.66666667  0.91666667  0.31649075  1.0
  Ni  Ni594  1  0.09574900  0.12595550  0.37579268  1.0
  Ni  Ni595  1  0.09574900  0.45928883  0.37579268  1.0
  Ni  Ni596  1  0.09574900  0.79262217  0.37579268  1.0
  Ni  Ni597  1  0.42908233  0.12595550  0.37579268  1.0
  Ni  Ni598  1  0.42908233  0.45928883  0.37579268  1.0
  Ni  Ni599  1  0.42908233  0.79262217  0.37579268  1.0
  Ni  Ni600  1  0.76241567  0.12595550  0.37579268  1.0
  Ni  Ni601  1  0.76241567  0.45928883  0.37579268  1.0
  Ni  Ni602  1  0.76241567  0.79262217  0.37579268  1.0
  Ni  Ni603  1  0.09574900  0.29262217  0.30436411  1.0
  Ni  Ni604  1  0.09574900  0.62595550  0.30436411  1.0
  Ni  Ni605  1  0.09574900  0.95928883  0.30436411  1.0
  Ni  Ni606  1  0.42908233  0.29262217  0.30436411  1.0
  Ni  Ni607  1  0.42908233  0.62595550  0.30436411  1.0
  Ni  Ni608  1  0.42908233  0.95928883  0.30436411  1.0
  Ni  Ni609  1  0.76241567  0.29262217  0.30436411  1.0
  Ni  Ni610  1  0.76241567  0.62595550  0.30436411  1.0
  Ni  Ni611  1  0.76241567  0.95928883  0.30436411  1.0
  Ni  Ni612  1  0.09574900  0.04787450  0.40925596  1.0
  Ni  Ni613  1  0.09574900  0.38120783  0.40925596  1.0
  Ni  Ni614  1  0.09574900  0.71454117  0.40925596  1.0
  Ni  Ni615  1  0.42908233  0.04787450  0.40925596  1.0
  Ni  Ni616  1  0.42908233  0.38120783  0.40925596  1.0
  Ni  Ni617  1  0.42908233  0.71454117  0.40925596  1.0
  Ni  Ni618  1  0.76241567  0.04787450  0.40925596  1.0
  Ni  Ni619  1  0.76241567  0.38120783  0.40925596  1.0
  Ni  Ni620  1  0.76241567  0.71454117  0.40925596  1.0
  Ni  Ni621  1  0.09574900  0.21454117  0.33782739  1.0
  Ni  Ni622  1  0.09574900  0.54787450  0.33782739  1.0
  Ni  Ni623  1  0.09574900  0.88120783  0.33782739  1.0
  Ni  Ni624  1  0.42908233  0.21454117  0.33782739  1.0
  Ni  Ni625  1  0.42908233  0.54787450  0.33782739  1.0
  Ni  Ni626  1  0.42908233  0.88120783  0.33782739  1.0
  Ni  Ni627  1  0.76241567  0.21454117  0.33782739  1.0
  Ni  Ni628  1  0.76241567  0.54787450  0.33782739  1.0
  Ni  Ni629  1  0.76241567  0.88120783  0.33782739  1.0
  Ni  Ni630  1  0.25191100  0.04787450  0.34232939  1.0
  Ni  Ni631  1  0.25191100  0.38120783  0.34232939  1.0
  Ni  Ni632  1  0.25191100  0.71454117  0.34232939  1.0
  Ni  Ni633  1  0.58524433  0.04787450  0.34232939  1.0
  Ni  Ni634  1  0.58524433  0.38120783  0.34232939  1.0
  Ni  Ni635  1  0.58524433  0.71454117  0.34232939  1.0
  Ni  Ni636  1  0.91857767  0.04787450  0.34232939  1.0
  Ni  Ni637  1  0.91857767  0.38120783  0.34232939  1.0
  Ni  Ni638  1  0.91857767  0.71454117  0.34232939  1.0
  Ni  Ni639  1  0.25191100  0.21454117  0.41375796  1.0
  Ni  Ni640  1  0.25191100  0.54787450  0.41375796  1.0
  Ni  Ni641  1  0.25191100  0.88120783  0.41375796  1.0
  Ni  Ni642  1  0.58524433  0.21454117  0.41375796  1.0
  Ni  Ni643  1  0.58524433  0.54787450  0.41375796  1.0
  Ni  Ni644  1  0.58524433  0.88120783  0.41375796  1.0
  Ni  Ni645  1  0.91857767  0.21454117  0.41375796  1.0
  Ni  Ni646  1  0.91857767  0.54787450  0.41375796  1.0
  Ni  Ni647  1  0.91857767  0.88120783  0.41375796  1.0
