# generated using pymatgen
data_HfNi3
_symmetry_space_group_name_H-M   'P 1'
_cell_length_a   15.79980585
_cell_length_b   15.79980585
_cell_length_c   42.82110600
_cell_angle_alpha   90.00000000
_cell_angle_beta   90.00000000
_cell_angle_gamma   120.00000000
_symmetry_Int_Tables_number   1
_chemical_formula_structural   HfNi3
_chemical_formula_sum   'Hf90 Ni270'
_cell_volume   9257.46358877
_cell_formula_units_Z   90
loop_
 _symmetry_equiv_pos_site_id
 _symmetry_equiv_pos_as_xyz
  1  'x, y, z'
loop_
 _atom_site_type_symbol
 _atom_site_label
 _atom_site_symmetry_multiplicity
 _atom_site_fract_x
 _atom_site_fract_y
 _atom_site_fract_z
 _atom_site_occupancy
  Hf  Hf0  1  0.22222222  0.11111111  0.22692650  1.0
  Hf  Hf1  1  0.22222222  0.44444444  0.22692650  1.0
  Hf  Hf2  1  0.22222222  0.77777778  0.22692650  1.0
  Hf  Hf3  1  0.55555556  0.11111111  0.22692650  1.0
  Hf  Hf4  1  0.55555556  0.44444444  0.22692650  1.0
  Hf  Hf5  1  0.55555556  0.77777778  0.22692650  1.0
  Hf  Hf6  1  0.88888889  0.11111111  0.22692650  1.0
  Hf  Hf7  1  0.88888889  0.44444444  0.22692650  1.0
  Hf  Hf8  1  0.88888889  0.77777778  0.22692650  1.0
  Hf  Hf9  1  0.11111111  0.22222222  0.47692650  1.0
  Hf  Hf10  1  0.11111111  0.55555556  0.47692650  1.0
  Hf  Hf11  1  0.11111111  0.88888889  0.47692650  1.0
  Hf  Hf12  1  0.44444444  0.22222222  0.47692650  1.0
  Hf  Hf13  1  0.44444444  0.55555556  0.47692650  1.0
  Hf  Hf14  1  0.44444444  0.88888889  0.47692650  1.0
  Hf  Hf15  1  0.77777778  0.22222222  0.47692650  1.0
  Hf  Hf16  1  0.77777778  0.55555556  0.47692650  1.0
  Hf  Hf17  1  0.77777778  0.88888889  0.47692650  1.0
  Hf  Hf18  1  0.11111111  0.22222222  0.27307350  1.0
  Hf  Hf19  1  0.11111111  0.55555556  0.27307350  1.0
  Hf  Hf20  1  0.11111111  0.88888889  0.27307350  1.0
  Hf  Hf21  1  0.44444444  0.22222222  0.27307350  1.0
  Hf  Hf22  1  0.44444444  0.55555556  0.27307350  1.0
  Hf  Hf23  1  0.44444444  0.88888889  0.27307350  1.0
  Hf  Hf24  1  0.77777778  0.22222222  0.27307350  1.0
  Hf  Hf25  1  0.77777778  0.55555556  0.27307350  1.0
  Hf  Hf26  1  0.77777778  0.88888889  0.27307350  1.0
  Hf  Hf27  1  0.22222222  0.11111111  0.02307350  1.0
  Hf  Hf28  1  0.22222222  0.44444444  0.02307350  1.0
  Hf  Hf29  1  0.22222222  0.77777778  0.02307350  1.0
  Hf  Hf30  1  0.55555556  0.11111111  0.02307350  1.0
  Hf  Hf31  1  0.55555556  0.44444444  0.02307350  1.0
  Hf  Hf32  1  0.55555556  0.77777778  0.02307350  1.0
  Hf  Hf33  1  0.88888889  0.11111111  0.02307350  1.0
  Hf  Hf34  1  0.88888889  0.44444444  0.02307350  1.0
  Hf  Hf35  1  0.88888889  0.77777778  0.02307350  1.0
  Hf  Hf36  1  0.22222222  0.11111111  0.32553350  1.0
  Hf  Hf37  1  0.22222222  0.44444444  0.32553350  1.0
  Hf  Hf38  1  0.22222222  0.77777778  0.32553350  1.0
  Hf  Hf39  1  0.55555556  0.11111111  0.32553350  1.0
  Hf  Hf40  1  0.55555556  0.44444444  0.32553350  1.0
  Hf  Hf41  1  0.55555556  0.77777778  0.32553350  1.0
  Hf  Hf42  1  0.88888889  0.11111111  0.32553350  1.0
  Hf  Hf43  1  0.88888889  0.44444444  0.32553350  1.0
  Hf  Hf44  1  0.88888889  0.77777778  0.32553350  1.0
  Hf  Hf45  1  0.11111111  0.22222222  0.07553350  1.0
  Hf  Hf46  1  0.11111111  0.55555556  0.07553350  1.0
  Hf  Hf47  1  0.11111111  0.88888889  0.07553350  1.0
  Hf  Hf48  1  0.44444444  0.22222222  0.07553350  1.0
  Hf  Hf49  1  0.44444444  0.55555556  0.07553350  1.0
  Hf  Hf50  1  0.44444444  0.88888889  0.07553350  1.0
  Hf  Hf51  1  0.77777778  0.22222222  0.07553350  1.0
  Hf  Hf52  1  0.77777778  0.55555556  0.07553350  1.0
  Hf  Hf53  1  0.77777778  0.88888889  0.07553350  1.0
  Hf  Hf54  1  0.11111111  0.22222222  0.17446650  1.0
  Hf  Hf55  1  0.11111111  0.55555556  0.17446650  1.0
  Hf  Hf56  1  0.11111111  0.88888889  0.17446650  1.0
  Hf  Hf57  1  0.44444444  0.22222222  0.17446650  1.0
  Hf  Hf58  1  0.44444444  0.55555556  0.17446650  1.0
  Hf  Hf59  1  0.44444444  0.88888889  0.17446650  1.0
  Hf  Hf60  1  0.77777778  0.22222222  0.17446650  1.0
  Hf  Hf61  1  0.77777778  0.55555556  0.17446650  1.0
  Hf  Hf62  1  0.77777778  0.88888889  0.17446650  1.0
  Hf  Hf63  1  0.22222222  0.11111111  0.42446650  1.0
  Hf  Hf64  1  0.22222222  0.44444444  0.42446650  1.0
  Hf  Hf65  1  0.22222222  0.77777778  0.42446650  1.0
  Hf  Hf66  1  0.55555556  0.11111111  0.42446650  1.0
  Hf  Hf67  1  0.55555556  0.44444444  0.42446650  1.0
  Hf  Hf68  1  0.55555556  0.77777778  0.42446650  1.0
  Hf  Hf69  1  0.88888889  0.11111111  0.42446650  1.0
  Hf  Hf70  1  0.88888889  0.44444444  0.42446650  1.0
  Hf  Hf71  1  0.88888889  0.77777778  0.42446650  1.0
  Hf  Hf72  1  0.00000000  0.00000000  0.12500000  1.0
  Hf  Hf73  1  0.00000000  0.33333333  0.12500000  1.0
  Hf  Hf74  1  0.00000000  0.66666667  0.12500000  1.0
  Hf  Hf75  1  0.33333333  0.00000000  0.12500000  1.0
  Hf  Hf76  1  0.33333333  0.33333333  0.12500000  1.0
  Hf  Hf77  1  0.33333333  0.66666667  0.12500000  1.0
  Hf  Hf78  1  0.66666667  0.00000000  0.12500000  1.0
  Hf  Hf79  1  0.66666667  0.33333333  0.12500000  1.0
  Hf  Hf80  1  0.66666667  0.66666667  0.12500000  1.0
  Hf  Hf81  1  0.00000000  0.00000000  0.37500000  1.0
  Hf  Hf82  1  0.00000000  0.33333333  0.37500000  1.0
  Hf  Hf83  1  0.00000000  0.66666667  0.37500000  1.0
  Hf  Hf84  1  0.33333333  0.00000000  0.37500000  1.0
  Hf  Hf85  1  0.33333333  0.33333333  0.37500000  1.0
  Hf  Hf86  1  0.33333333  0.66666667  0.37500000  1.0
  Hf  Hf87  1  0.66666667  0.00000000  0.37500000  1.0
  Hf  Hf88  1  0.66666667  0.33333333  0.37500000  1.0
  Hf  Hf89  1  0.66666667  0.66666667  0.37500000  1.0
  Ni  Ni90  1  0.05592267  0.11184533  0.42520900  1.0
  Ni  Ni91  1  0.05592267  0.44517867  0.42520900  1.0
  Ni  Ni92  1  0.05592267  0.77851200  0.42520900  1.0
  Ni  Ni93  1  0.38925600  0.11184533  0.42520900  1.0
  Ni  Ni94  1  0.38925600  0.44517867  0.42520900  1.0
  Ni  Ni95  1  0.38925600  0.77851200  0.42520900  1.0
  Ni  Ni96  1  0.72258933  0.11184533  0.42520900  1.0
  Ni  Ni97  1  0.72258933  0.44517867  0.42520900  1.0
  Ni  Ni98  1  0.72258933  0.77851200  0.42520900  1.0
  Ni  Ni99  1  0.22148800  0.27741067  0.42520900  1.0
  Ni  Ni100  1  0.22148800  0.61074400  0.42520900  1.0
  Ni  Ni101  1  0.22148800  0.94407733  0.42520900  1.0
  Ni  Ni102  1  0.55482133  0.27741067  0.42520900  1.0
  Ni  Ni103  1  0.55482133  0.61074400  0.42520900  1.0
  Ni  Ni104  1  0.55482133  0.94407733  0.42520900  1.0
  Ni  Ni105  1  0.88815467  0.27741067  0.42520900  1.0
  Ni  Ni106  1  0.88815467  0.61074400  0.42520900  1.0
  Ni  Ni107  1  0.88815467  0.94407733  0.42520900  1.0
  Ni  Ni108  1  0.05592267  0.27741067  0.42520900  1.0
  Ni  Ni109  1  0.05592267  0.61074400  0.42520900  1.0
  Ni  Ni110  1  0.05592267  0.94407733  0.42520900  1.0
  Ni  Ni111  1  0.38925600  0.27741067  0.42520900  1.0
  Ni  Ni112  1  0.38925600  0.61074400  0.42520900  1.0
  Ni  Ni113  1  0.38925600  0.94407733  0.42520900  1.0
  Ni  Ni114  1  0.72258933  0.27741067  0.42520900  1.0
  Ni  Ni115  1  0.72258933  0.61074400  0.42520900  1.0
  Ni  Ni116  1  0.72258933  0.94407733  0.42520900  1.0
  Ni  Ni117  1  0.27741067  0.05592267  0.17520900  1.0
  Ni  Ni118  1  0.27741067  0.38925600  0.17520900  1.0
  Ni  Ni119  1  0.27741067  0.72258933  0.17520900  1.0
  Ni  Ni120  1  0.61074400  0.05592267  0.17520900  1.0
  Ni  Ni121  1  0.61074400  0.38925600  0.17520900  1.0
  Ni  Ni122  1  0.61074400  0.72258933  0.17520900  1.0
  Ni  Ni123  1  0.94407733  0.05592267  0.17520900  1.0
  Ni  Ni124  1  0.94407733  0.38925600  0.17520900  1.0
  Ni  Ni125  1  0.94407733  0.72258933  0.17520900  1.0
  Ni  Ni126  1  0.11184533  0.05592267  0.07479100  1.0
  Ni  Ni127  1  0.11184533  0.38925600  0.07479100  1.0
  Ni  Ni128  1  0.11184533  0.72258933  0.07479100  1.0
  Ni  Ni129  1  0.44517867  0.05592267  0.07479100  1.0
  Ni  Ni130  1  0.44517867  0.38925600  0.07479100  1.0
  Ni  Ni131  1  0.44517867  0.72258933  0.07479100  1.0
  Ni  Ni132  1  0.77851200  0.05592267  0.07479100  1.0
  Ni  Ni133  1  0.77851200  0.38925600  0.07479100  1.0
  Ni  Ni134  1  0.77851200  0.72258933  0.07479100  1.0
  Ni  Ni135  1  0.27741067  0.22148800  0.17520900  1.0
  Ni  Ni136  1  0.27741067  0.55482133  0.17520900  1.0
  Ni  Ni137  1  0.27741067  0.88815467  0.17520900  1.0
  Ni  Ni138  1  0.61074400  0.22148800  0.17520900  1.0
  Ni  Ni139  1  0.61074400  0.55482133  0.17520900  1.0
  Ni  Ni140  1  0.61074400  0.88815467  0.17520900  1.0
  Ni  Ni141  1  0.94407733  0.22148800  0.17520900  1.0
  Ni  Ni142  1  0.94407733  0.55482133  0.17520900  1.0
  Ni  Ni143  1  0.94407733  0.88815467  0.17520900  1.0
  Ni  Ni144  1  0.11184533  0.05592267  0.17520900  1.0
  Ni  Ni145  1  0.11184533  0.38925600  0.17520900  1.0
  Ni  Ni146  1  0.11184533  0.72258933  0.17520900  1.0
  Ni  Ni147  1  0.44517867  0.05592267  0.17520900  1.0
  Ni  Ni148  1  0.44517867  0.38925600  0.17520900  1.0
  Ni  Ni149  1  0.44517867  0.72258933  0.17520900  1.0
  Ni  Ni150  1  0.77851200  0.05592267  0.17520900  1.0
  Ni  Ni151  1  0.77851200  0.38925600  0.17520900  1.0
  Ni  Ni152  1  0.77851200  0.72258933  0.17520900  1.0
  Ni  Ni153  1  0.05592267  0.11184533  0.32479100  1.0
  Ni  Ni154  1  0.05592267  0.44517867  0.32479100  1.0
  Ni  Ni155  1  0.05592267  0.77851200  0.32479100  1.0
  Ni  Ni156  1  0.38925600  0.11184533  0.32479100  1.0
  Ni  Ni157  1  0.38925600  0.44517867  0.32479100  1.0
  Ni  Ni158  1  0.38925600  0.77851200  0.32479100  1.0
  Ni  Ni159  1  0.72258933  0.11184533  0.32479100  1.0
  Ni  Ni160  1  0.72258933  0.44517867  0.32479100  1.0
  Ni  Ni161  1  0.72258933  0.77851200  0.32479100  1.0
  Ni  Ni162  1  0.05592267  0.27741067  0.32479100  1.0
  Ni  Ni163  1  0.05592267  0.61074400  0.32479100  1.0
  Ni  Ni164  1  0.05592267  0.94407733  0.32479100  1.0
  Ni  Ni165  1  0.38925600  0.27741067  0.32479100  1.0
  Ni  Ni166  1  0.38925600  0.61074400  0.32479100  1.0
  Ni  Ni167  1  0.38925600  0.94407733  0.32479100  1.0
  Ni  Ni168  1  0.72258933  0.27741067  0.32479100  1.0
  Ni  Ni169  1  0.72258933  0.61074400  0.32479100  1.0
  Ni  Ni170  1  0.72258933  0.94407733  0.32479100  1.0
  Ni  Ni171  1  0.27741067  0.05592267  0.07479100  1.0
  Ni  Ni172  1  0.27741067  0.38925600  0.07479100  1.0
  Ni  Ni173  1  0.27741067  0.72258933  0.07479100  1.0
  Ni  Ni174  1  0.61074400  0.05592267  0.07479100  1.0
  Ni  Ni175  1  0.61074400  0.38925600  0.07479100  1.0
  Ni  Ni176  1  0.61074400  0.72258933  0.07479100  1.0
  Ni  Ni177  1  0.94407733  0.05592267  0.07479100  1.0
  Ni  Ni178  1  0.94407733  0.38925600  0.07479100  1.0
  Ni  Ni179  1  0.94407733  0.72258933  0.07479100  1.0
  Ni  Ni180  1  0.00710167  0.17021750  0.37500000  1.0
  Ni  Ni181  1  0.00710167  0.50355083  0.37500000  1.0
  Ni  Ni182  1  0.00710167  0.83688417  0.37500000  1.0
  Ni  Ni183  1  0.34043500  0.17021750  0.37500000  1.0
  Ni  Ni184  1  0.34043500  0.50355083  0.37500000  1.0
  Ni  Ni185  1  0.34043500  0.83688417  0.37500000  1.0
  Ni  Ni186  1  0.67376833  0.17021750  0.37500000  1.0
  Ni  Ni187  1  0.67376833  0.50355083  0.37500000  1.0
  Ni  Ni188  1  0.67376833  0.83688417  0.37500000  1.0
  Ni  Ni189  1  0.17021750  0.00710167  0.12500000  1.0
  Ni  Ni190  1  0.17021750  0.34043500  0.12500000  1.0
  Ni  Ni191  1  0.17021750  0.67376833  0.12500000  1.0
  Ni  Ni192  1  0.50355083  0.00710167  0.12500000  1.0
  Ni  Ni193  1  0.50355083  0.34043500  0.12500000  1.0
  Ni  Ni194  1  0.50355083  0.67376833  0.12500000  1.0
  Ni  Ni195  1  0.83688417  0.00710167  0.12500000  1.0
  Ni  Ni196  1  0.83688417  0.34043500  0.12500000  1.0
  Ni  Ni197  1  0.83688417  0.67376833  0.12500000  1.0
  Ni  Ni198  1  0.17021750  0.16311583  0.12500000  1.0
  Ni  Ni199  1  0.17021750  0.49644917  0.12500000  1.0
  Ni  Ni200  1  0.17021750  0.82978250  0.12500000  1.0
  Ni  Ni201  1  0.50355083  0.16311583  0.12500000  1.0
  Ni  Ni202  1  0.50355083  0.49644917  0.12500000  1.0
  Ni  Ni203  1  0.50355083  0.82978250  0.12500000  1.0
  Ni  Ni204  1  0.83688417  0.16311583  0.12500000  1.0
  Ni  Ni205  1  0.83688417  0.49644917  0.12500000  1.0
  Ni  Ni206  1  0.83688417  0.82978250  0.12500000  1.0
  Ni  Ni207  1  0.16311583  0.17021750  0.37500000  1.0
  Ni  Ni208  1  0.16311583  0.50355083  0.37500000  1.0
  Ni  Ni209  1  0.16311583  0.83688417  0.37500000  1.0
  Ni  Ni210  1  0.49644917  0.17021750  0.37500000  1.0
  Ni  Ni211  1  0.49644917  0.50355083  0.37500000  1.0
  Ni  Ni212  1  0.49644917  0.83688417  0.37500000  1.0
  Ni  Ni213  1  0.82978250  0.17021750  0.37500000  1.0
  Ni  Ni214  1  0.82978250  0.50355083  0.37500000  1.0
  Ni  Ni215  1  0.82978250  0.83688417  0.37500000  1.0
  Ni  Ni216  1  0.16311583  0.32623167  0.37500000  1.0
  Ni  Ni217  1  0.16311583  0.65956500  0.37500000  1.0
  Ni  Ni218  1  0.16311583  0.99289833  0.37500000  1.0
  Ni  Ni219  1  0.49644917  0.32623167  0.37500000  1.0
  Ni  Ni220  1  0.49644917  0.65956500  0.37500000  1.0
  Ni  Ni221  1  0.49644917  0.99289833  0.37500000  1.0
  Ni  Ni222  1  0.82978250  0.32623167  0.37500000  1.0
  Ni  Ni223  1  0.82978250  0.65956500  0.37500000  1.0
  Ni  Ni224  1  0.82978250  0.99289833  0.37500000  1.0
  Ni  Ni225  1  0.32623167  0.16311583  0.12500000  1.0
  Ni  Ni226  1  0.32623167  0.49644917  0.12500000  1.0
  Ni  Ni227  1  0.32623167  0.82978250  0.12500000  1.0
  Ni  Ni228  1  0.65956500  0.16311583  0.12500000  1.0
  Ni  Ni229  1  0.65956500  0.49644917  0.12500000  1.0
  Ni  Ni230  1  0.65956500  0.82978250  0.12500000  1.0
  Ni  Ni231  1  0.99289833  0.16311583  0.12500000  1.0
  Ni  Ni232  1  0.99289833  0.49644917  0.12500000  1.0
  Ni  Ni233  1  0.99289833  0.82978250  0.12500000  1.0
  Ni  Ni234  1  0.10419633  0.05209817  0.27559650  1.0
  Ni  Ni235  1  0.10419633  0.38543150  0.27559650  1.0
  Ni  Ni236  1  0.10419633  0.71876483  0.27559650  1.0
  Ni  Ni237  1  0.43752967  0.05209817  0.27559650  1.0
  Ni  Ni238  1  0.43752967  0.38543150  0.27559650  1.0
  Ni  Ni239  1  0.43752967  0.71876483  0.27559650  1.0
  Ni  Ni240  1  0.77086300  0.05209817  0.27559650  1.0
  Ni  Ni241  1  0.77086300  0.38543150  0.27559650  1.0
  Ni  Ni242  1  0.77086300  0.71876483  0.27559650  1.0
  Ni  Ni243  1  0.05209817  0.10419633  0.02559650  1.0
  Ni  Ni244  1  0.05209817  0.43752967  0.02559650  1.0
  Ni  Ni245  1  0.05209817  0.77086300  0.02559650  1.0
  Ni  Ni246  1  0.38543150  0.10419633  0.02559650  1.0
  Ni  Ni247  1  0.38543150  0.43752967  0.02559650  1.0
  Ni  Ni248  1  0.38543150  0.77086300  0.02559650  1.0
  Ni  Ni249  1  0.71876483  0.10419633  0.02559650  1.0
  Ni  Ni250  1  0.71876483  0.43752967  0.02559650  1.0
  Ni  Ni251  1  0.71876483  0.77086300  0.02559650  1.0
  Ni  Ni252  1  0.05209817  0.28123517  0.02559650  1.0
  Ni  Ni253  1  0.05209817  0.61456850  0.02559650  1.0
  Ni  Ni254  1  0.05209817  0.94790183  0.02559650  1.0
  Ni  Ni255  1  0.38543150  0.28123517  0.02559650  1.0
  Ni  Ni256  1  0.38543150  0.61456850  0.02559650  1.0
  Ni  Ni257  1  0.38543150  0.94790183  0.02559650  1.0
  Ni  Ni258  1  0.71876483  0.28123517  0.02559650  1.0
  Ni  Ni259  1  0.71876483  0.61456850  0.02559650  1.0
  Ni  Ni260  1  0.71876483  0.94790183  0.02559650  1.0
  Ni  Ni261  1  0.28123517  0.05209817  0.27559650  1.0
  Ni  Ni262  1  0.28123517  0.38543150  0.27559650  1.0
  Ni  Ni263  1  0.28123517  0.71876483  0.27559650  1.0
  Ni  Ni264  1  0.61456850  0.05209817  0.27559650  1.0
  Ni  Ni265  1  0.61456850  0.38543150  0.27559650  1.0
  Ni  Ni266  1  0.61456850  0.71876483  0.27559650  1.0
  Ni  Ni267  1  0.94790183  0.05209817  0.27559650  1.0
  Ni  Ni268  1  0.94790183  0.38543150  0.27559650  1.0
  Ni  Ni269  1  0.94790183  0.71876483  0.27559650  1.0
  Ni  Ni270  1  0.28123517  0.22913700  0.27559650  1.0
  Ni  Ni271  1  0.28123517  0.56247033  0.27559650  1.0
  Ni  Ni272  1  0.28123517  0.89580367  0.27559650  1.0
  Ni  Ni273  1  0.61456850  0.22913700  0.27559650  1.0
  Ni  Ni274  1  0.61456850  0.56247033  0.27559650  1.0
  Ni  Ni275  1  0.61456850  0.89580367  0.27559650  1.0
  Ni  Ni276  1  0.94790183  0.22913700  0.27559650  1.0
  Ni  Ni277  1  0.94790183  0.56247033  0.27559650  1.0
  Ni  Ni278  1  0.94790183  0.89580367  0.27559650  1.0
  Ni  Ni279  1  0.22913700  0.28123517  0.22440350  1.0
  Ni  Ni280  1  0.22913700  0.61456850  0.22440350  1.0
  Ni  Ni281  1  0.22913700  0.94790183  0.22440350  1.0
  Ni  Ni282  1  0.56247033  0.28123517  0.22440350  1.0
  Ni  Ni283  1  0.56247033  0.61456850  0.22440350  1.0
  Ni  Ni284  1  0.56247033  0.94790183  0.22440350  1.0
  Ni  Ni285  1  0.89580367  0.28123517  0.22440350  1.0
  Ni  Ni286  1  0.89580367  0.61456850  0.22440350  1.0
  Ni  Ni287  1  0.89580367  0.94790183  0.22440350  1.0
  Ni  Ni288  1  0.05209817  0.10419633  0.22440350  1.0
  Ni  Ni289  1  0.05209817  0.43752967  0.22440350  1.0
  Ni  Ni290  1  0.05209817  0.77086300  0.22440350  1.0
  Ni  Ni291  1  0.38543150  0.10419633  0.22440350  1.0
  Ni  Ni292  1  0.38543150  0.43752967  0.22440350  1.0
  Ni  Ni293  1  0.38543150  0.77086300  0.22440350  1.0
  Ni  Ni294  1  0.71876483  0.10419633  0.22440350  1.0
  Ni  Ni295  1  0.71876483  0.43752967  0.22440350  1.0
  Ni  Ni296  1  0.71876483  0.77086300  0.22440350  1.0
  Ni  Ni297  1  0.22913700  0.28123517  0.02559650  1.0
  Ni  Ni298  1  0.22913700  0.61456850  0.02559650  1.0
  Ni  Ni299  1  0.22913700  0.94790183  0.02559650  1.0
  Ni  Ni300  1  0.56247033  0.28123517  0.02559650  1.0
  Ni  Ni301  1  0.56247033  0.61456850  0.02559650  1.0
  Ni  Ni302  1  0.56247033  0.94790183  0.02559650  1.0
  Ni  Ni303  1  0.89580367  0.28123517  0.02559650  1.0
  Ni  Ni304  1  0.89580367  0.61456850  0.02559650  1.0
  Ni  Ni305  1  0.89580367  0.94790183  0.02559650  1.0
  Ni  Ni306  1  0.05209817  0.28123517  0.22440350  1.0
  Ni  Ni307  1  0.05209817  0.61456850  0.22440350  1.0
  Ni  Ni308  1  0.05209817  0.94790183  0.22440350  1.0
  Ni  Ni309  1  0.38543150  0.28123517  0.22440350  1.0
  Ni  Ni310  1  0.38543150  0.61456850  0.22440350  1.0
  Ni  Ni311  1  0.38543150  0.94790183  0.22440350  1.0
  Ni  Ni312  1  0.71876483  0.28123517  0.22440350  1.0
  Ni  Ni313  1  0.71876483  0.61456850  0.22440350  1.0
  Ni  Ni314  1  0.71876483  0.94790183  0.22440350  1.0
  Ni  Ni315  1  0.28123517  0.05209817  0.47440350  1.0
  Ni  Ni316  1  0.28123517  0.38543150  0.47440350  1.0
  Ni  Ni317  1  0.28123517  0.71876483  0.47440350  1.0
  Ni  Ni318  1  0.61456850  0.05209817  0.47440350  1.0
  Ni  Ni319  1  0.61456850  0.38543150  0.47440350  1.0
  Ni  Ni320  1  0.61456850  0.71876483  0.47440350  1.0
  Ni  Ni321  1  0.94790183  0.05209817  0.47440350  1.0
  Ni  Ni322  1  0.94790183  0.38543150  0.47440350  1.0
  Ni  Ni323  1  0.94790183  0.71876483  0.47440350  1.0
  Ni  Ni324  1  0.10419633  0.05209817  0.47440350  1.0
  Ni  Ni325  1  0.10419633  0.38543150  0.47440350  1.0
  Ni  Ni326  1  0.10419633  0.71876483  0.47440350  1.0
  Ni  Ni327  1  0.43752967  0.05209817  0.47440350  1.0
  Ni  Ni328  1  0.43752967  0.38543150  0.47440350  1.0
  Ni  Ni329  1  0.43752967  0.71876483  0.47440350  1.0
  Ni  Ni330  1  0.77086300  0.05209817  0.47440350  1.0
  Ni  Ni331  1  0.77086300  0.38543150  0.47440350  1.0
  Ni  Ni332  1  0.77086300  0.71876483  0.47440350  1.0
  Ni  Ni333  1  0.28123517  0.22913700  0.47440350  1.0
  Ni  Ni334  1  0.28123517  0.56247033  0.47440350  1.0
  Ni  Ni335  1  0.28123517  0.89580367  0.47440350  1.0
  Ni  Ni336  1  0.61456850  0.22913700  0.47440350  1.0
  Ni  Ni337  1  0.61456850  0.56247033  0.47440350  1.0
  Ni  Ni338  1  0.61456850  0.89580367  0.47440350  1.0
  Ni  Ni339  1  0.94790183  0.22913700  0.47440350  1.0
  Ni  Ni340  1  0.94790183  0.56247033  0.47440350  1.0
  Ni  Ni341  1  0.94790183  0.89580367  0.47440350  1.0
  Ni  Ni342  1  0.22148800  0.27741067  0.32479100  1.0
  Ni  Ni343  1  0.22148800  0.61074400  0.32479100  1.0
  Ni  Ni344  1  0.22148800  0.94407733  0.32479100  1.0
  Ni  Ni345  1  0.55482133  0.27741067  0.32479100  1.0
  Ni  Ni346  1  0.55482133  0.61074400  0.32479100  1.0
  Ni  Ni347  1  0.55482133  0.94407733  0.32479100  1.0
  Ni  Ni348  1  0.88815467  0.27741067  0.32479100  1.0
  Ni  Ni349  1  0.88815467  0.61074400  0.32479100  1.0
  Ni  Ni350  1  0.88815467  0.94407733  0.32479100  1.0
  Ni  Ni351  1  0.27741067  0.22148800  0.07479100  1.0
  Ni  Ni352  1  0.27741067  0.55482133  0.07479100  1.0
  Ni  Ni353  1  0.27741067  0.88815467  0.07479100  1.0
  Ni  Ni354  1  0.61074400  0.22148800  0.07479100  1.0
  Ni  Ni355  1  0.61074400  0.55482133  0.07479100  1.0
  Ni  Ni356  1  0.61074400  0.88815467  0.07479100  1.0
  Ni  Ni357  1  0.94407733  0.22148800  0.07479100  1.0
  Ni  Ni358  1  0.94407733  0.55482133  0.07479100  1.0
  Ni  Ni359  1  0.94407733  0.88815467  0.07479100  1.0
