# generated using pymatgen
data_HfNi5
_symmetry_space_group_name_H-M   'P 1'
_cell_length_a   14.13012330
_cell_length_b   24.47409147
_cell_length_c   32.97028770
_cell_angle_alpha   73.22134512
_cell_angle_beta   60.00000000
_cell_angle_gamma   73.22134512
_symmetry_Int_Tables_number   1
_chemical_formula_structural   HfNi5
_chemical_formula_sum   'Hf54 Ni270'
_cell_volume   9309.57034145
_cell_formula_units_Z   54
loop_
 _symmetry_equiv_pos_site_id
 _symmetry_equiv_pos_as_xyz
  1  'x, y, z'
loop_
 _atom_site_type_symbol
 _atom_site_label
 _atom_site_symmetry_multiplicity
 _atom_site_fract_x
 _atom_site_fract_y
 _atom_site_fract_z
 _atom_site_occupancy
  Hf  Hf0  1  0.16666667  0.16666667  0.05800613  1.0
  Hf  Hf1  1  0.16666667  0.50000000  0.05800613  1.0
  Hf  Hf2  1  0.16666667  0.83333333  0.05800613  1.0
  Hf  Hf3  1  0.50000000  0.16666667  0.05800613  1.0
  Hf  Hf4  1  0.50000000  0.50000000  0.05800613  1.0
  Hf  Hf5  1  0.50000000  0.83333333  0.05800613  1.0
  Hf  Hf6  1  0.83333333  0.16666667  0.05800613  1.0
  Hf  Hf7  1  0.83333333  0.50000000  0.05800613  1.0
  Hf  Hf8  1  0.83333333  0.83333333  0.05800613  1.0
  Hf  Hf9  1  0.00000000  0.00000000  0.12943470  1.0
  Hf  Hf10  1  0.00000000  0.33333333  0.12943470  1.0
  Hf  Hf11  1  0.00000000  0.66666667  0.12943470  1.0
  Hf  Hf12  1  0.33333333  0.00000000  0.12943470  1.0
  Hf  Hf13  1  0.33333333  0.33333333  0.12943470  1.0
  Hf  Hf14  1  0.33333333  0.66666667  0.12943470  1.0
  Hf  Hf15  1  0.66666667  0.00000000  0.12943470  1.0
  Hf  Hf16  1  0.66666667  0.33333333  0.12943470  1.0
  Hf  Hf17  1  0.66666667  0.66666667  0.12943470  1.0
  Ni  Ni18  1  0.22930472  0.31208583  0.08485101  1.0
  Ni  Ni19  1  0.22930472  0.64541917  0.08485101  1.0
  Ni  Ni20  1  0.22930472  0.97875250  0.08485101  1.0
  Ni  Ni21  1  0.56263806  0.31208583  0.08485101  1.0
  Ni  Ni22  1  0.56263806  0.64541917  0.08485101  1.0
  Ni  Ni23  1  0.56263806  0.97875250  0.08485101  1.0
  Ni  Ni24  1  0.89597139  0.31208583  0.08485101  1.0
  Ni  Ni25  1  0.89597139  0.64541917  0.08485101  1.0
  Ni  Ni26  1  0.89597139  0.97875250  0.08485101  1.0
  Ni  Ni27  1  0.06263806  0.14541917  0.01342244  1.0
  Ni  Ni28  1  0.06263806  0.47875250  0.01342244  1.0
  Ni  Ni29  1  0.06263806  0.81208583  0.01342244  1.0
  Ni  Ni30  1  0.39597139  0.14541917  0.01342244  1.0
  Ni  Ni31  1  0.39597139  0.47875250  0.01342244  1.0
  Ni  Ni32  1  0.39597139  0.81208583  0.01342244  1.0
  Ni  Ni33  1  0.72930472  0.14541917  0.01342244  1.0
  Ni  Ni34  1  0.72930472  0.47875250  0.01342244  1.0
  Ni  Ni35  1  0.72930472  0.81208583  0.01342244  1.0
  Ni  Ni36  1  0.14652361  0.22930472  0.12032863  1.0
  Ni  Ni37  1  0.14652361  0.56263805  0.12032863  1.0
  Ni  Ni38  1  0.14652361  0.89597139  0.12032863  1.0
  Ni  Ni39  1  0.47985694  0.22930472  0.12032863  1.0
  Ni  Ni40  1  0.47985694  0.56263805  0.12032863  1.0
  Ni  Ni41  1  0.47985694  0.89597139  0.12032863  1.0
  Ni  Ni42  1  0.81319028  0.22930472  0.12032863  1.0
  Ni  Ni43  1  0.81319028  0.56263805  0.12032863  1.0
  Ni  Ni44  1  0.81319028  0.89597139  0.12032863  1.0
  Ni  Ni45  1  0.31319028  0.06263805  0.04890006  1.0
  Ni  Ni46  1  0.31319028  0.39597139  0.04890006  1.0
  Ni  Ni47  1  0.31319028  0.72930472  0.04890006  1.0
  Ni  Ni48  1  0.64652361  0.06263805  0.04890006  1.0
  Ni  Ni49  1  0.64652361  0.39597139  0.04890006  1.0
  Ni  Ni50  1  0.64652361  0.72930472  0.04890006  1.0
  Ni  Ni51  1  0.97985694  0.06263805  0.04890006  1.0
  Ni  Ni52  1  0.97985694  0.39597139  0.04890006  1.0
  Ni  Ni53  1  0.97985694  0.72930472  0.04890006  1.0
  Ni  Ni54  1  0.12500000  0.29166667  0.04014899  1.0
  Ni  Ni55  1  0.12500000  0.62500000  0.04014899  1.0
  Ni  Ni56  1  0.12500000  0.95833333  0.04014899  1.0
  Ni  Ni57  1  0.45833333  0.29166667  0.04014899  1.0
  Ni  Ni58  1  0.45833333  0.62500000  0.04014899  1.0
  Ni  Ni59  1  0.45833333  0.95833333  0.04014899  1.0
  Ni  Ni60  1  0.79166667  0.29166667  0.04014899  1.0
  Ni  Ni61  1  0.79166667  0.62500000  0.04014899  1.0
  Ni  Ni62  1  0.79166667  0.95833333  0.04014899  1.0
  Ni  Ni63  1  0.29166667  0.12500000  0.11157756  1.0
  Ni  Ni64  1  0.29166667  0.45833333  0.11157756  1.0
  Ni  Ni65  1  0.29166667  0.79166667  0.11157756  1.0
  Ni  Ni66  1  0.62500000  0.12500000  0.11157756  1.0
  Ni  Ni67  1  0.62500000  0.45833333  0.11157756  1.0
  Ni  Ni68  1  0.62500000  0.79166667  0.11157756  1.0
  Ni  Ni69  1  0.95833333  0.12500000  0.11157756  1.0
  Ni  Ni70  1  0.95833333  0.45833333  0.11157756  1.0
  Ni  Ni71  1  0.95833333  0.79166667  0.11157756  1.0
  Ni  Ni72  1  0.31208583  0.22930472  0.04937339  1.0
  Ni  Ni73  1  0.31208583  0.56263805  0.04937339  1.0
  Ni  Ni74  1  0.31208583  0.89597139  0.04937339  1.0
  Ni  Ni75  1  0.64541917  0.22930472  0.04937339  1.0
  Ni  Ni76  1  0.64541917  0.56263805  0.04937339  1.0
  Ni  Ni77  1  0.64541917  0.89597139  0.04937339  1.0
  Ni  Ni78  1  0.97875250  0.22930472  0.04937339  1.0
  Ni  Ni79  1  0.97875250  0.56263805  0.04937339  1.0
  Ni  Ni80  1  0.97875250  0.89597139  0.04937339  1.0
  Ni  Ni81  1  0.14541917  0.06263805  0.12080196  1.0
  Ni  Ni82  1  0.14541917  0.39597139  0.12080196  1.0
  Ni  Ni83  1  0.14541917  0.72930472  0.12080196  1.0
  Ni  Ni84  1  0.47875250  0.06263805  0.12080196  1.0
  Ni  Ni85  1  0.47875250  0.39597139  0.12080196  1.0
  Ni  Ni86  1  0.47875250  0.72930472  0.12080196  1.0
  Ni  Ni87  1  0.81208583  0.06263805  0.12080196  1.0
  Ni  Ni88  1  0.81208583  0.39597139  0.12080196  1.0
  Ni  Ni89  1  0.81208583  0.72930472  0.12080196  1.0
  Ni  Ni90  1  0.31208583  0.22930472  0.12032863  1.0
  Ni  Ni91  1  0.31208583  0.56263805  0.12032863  1.0
  Ni  Ni92  1  0.31208583  0.89597139  0.12032863  1.0
  Ni  Ni93  1  0.64541917  0.22930472  0.12032863  1.0
  Ni  Ni94  1  0.64541917  0.56263805  0.12032863  1.0
  Ni  Ni95  1  0.64541917  0.89597139  0.12032863  1.0
  Ni  Ni96  1  0.97875250  0.22930472  0.12032863  1.0
  Ni  Ni97  1  0.97875250  0.56263805  0.12032863  1.0
  Ni  Ni98  1  0.97875250  0.89597139  0.12032863  1.0
  Ni  Ni99  1  0.14541917  0.06263805  0.04890006  1.0
  Ni  Ni100  1  0.14541917  0.39597139  0.04890006  1.0
  Ni  Ni101  1  0.14541917  0.72930472  0.04890006  1.0
  Ni  Ni102  1  0.47875250  0.06263805  0.04890006  1.0
  Ni  Ni103  1  0.47875250  0.39597139  0.04890006  1.0
  Ni  Ni104  1  0.47875250  0.72930472  0.04890006  1.0
  Ni  Ni105  1  0.81208583  0.06263805  0.04890006  1.0
  Ni  Ni106  1  0.81208583  0.39597139  0.04890006  1.0
  Ni  Ni107  1  0.81208583  0.72930472  0.04890006  1.0
  Hf  Hf108  1  0.16666667  0.16666667  0.20086327  1.0
  Hf  Hf109  1  0.16666667  0.50000000  0.20086327  1.0
  Hf  Hf110  1  0.16666667  0.83333333  0.20086327  1.0
  Hf  Hf111  1  0.50000000  0.16666667  0.20086327  1.0
  Hf  Hf112  1  0.50000000  0.50000000  0.20086327  1.0
  Hf  Hf113  1  0.50000000  0.83333333  0.20086327  1.0
  Hf  Hf114  1  0.83333333  0.16666667  0.20086327  1.0
  Hf  Hf115  1  0.83333333  0.50000000  0.20086327  1.0
  Hf  Hf116  1  0.83333333  0.83333333  0.20086327  1.0
  Hf  Hf117  1  0.00000000  0.00000000  0.27229185  1.0
  Hf  Hf118  1  0.00000000  0.33333333  0.27229185  1.0
  Hf  Hf119  1  0.00000000  0.66666667  0.27229185  1.0
  Hf  Hf120  1  0.33333333  0.00000000  0.27229185  1.0
  Hf  Hf121  1  0.33333333  0.33333333  0.27229185  1.0
  Hf  Hf122  1  0.33333333  0.66666667  0.27229185  1.0
  Hf  Hf123  1  0.66666667  0.00000000  0.27229185  1.0
  Hf  Hf124  1  0.66666667  0.33333333  0.27229185  1.0
  Hf  Hf125  1  0.66666667  0.66666667  0.27229185  1.0
  Ni  Ni126  1  0.22930472  0.31208583  0.22770815  1.0
  Ni  Ni127  1  0.22930472  0.64541917  0.22770815  1.0
  Ni  Ni128  1  0.22930472  0.97875250  0.22770815  1.0
  Ni  Ni129  1  0.56263806  0.31208583  0.22770815  1.0
  Ni  Ni130  1  0.56263806  0.64541917  0.22770815  1.0
  Ni  Ni131  1  0.56263806  0.97875250  0.22770815  1.0
  Ni  Ni132  1  0.89597139  0.31208583  0.22770815  1.0
  Ni  Ni133  1  0.89597139  0.64541917  0.22770815  1.0
  Ni  Ni134  1  0.89597139  0.97875250  0.22770815  1.0
  Ni  Ni135  1  0.06263806  0.14541917  0.15627958  1.0
  Ni  Ni136  1  0.06263806  0.47875250  0.15627958  1.0
  Ni  Ni137  1  0.06263806  0.81208583  0.15627958  1.0
  Ni  Ni138  1  0.39597139  0.14541917  0.15627958  1.0
  Ni  Ni139  1  0.39597139  0.47875250  0.15627958  1.0
  Ni  Ni140  1  0.39597139  0.81208583  0.15627958  1.0
  Ni  Ni141  1  0.72930472  0.14541917  0.15627958  1.0
  Ni  Ni142  1  0.72930472  0.47875250  0.15627958  1.0
  Ni  Ni143  1  0.72930472  0.81208583  0.15627958  1.0
  Ni  Ni144  1  0.14652361  0.22930472  0.26318577  1.0
  Ni  Ni145  1  0.14652361  0.56263805  0.26318577  1.0
  Ni  Ni146  1  0.14652361  0.89597139  0.26318577  1.0
  Ni  Ni147  1  0.47985694  0.22930472  0.26318577  1.0
  Ni  Ni148  1  0.47985694  0.56263805  0.26318577  1.0
  Ni  Ni149  1  0.47985694  0.89597139  0.26318577  1.0
  Ni  Ni150  1  0.81319028  0.22930472  0.26318577  1.0
  Ni  Ni151  1  0.81319028  0.56263805  0.26318577  1.0
  Ni  Ni152  1  0.81319028  0.89597139  0.26318577  1.0
  Ni  Ni153  1  0.31319028  0.06263805  0.19175720  1.0
  Ni  Ni154  1  0.31319028  0.39597139  0.19175720  1.0
  Ni  Ni155  1  0.31319028  0.72930472  0.19175720  1.0
  Ni  Ni156  1  0.64652361  0.06263805  0.19175720  1.0
  Ni  Ni157  1  0.64652361  0.39597139  0.19175720  1.0
  Ni  Ni158  1  0.64652361  0.72930472  0.19175720  1.0
  Ni  Ni159  1  0.97985694  0.06263805  0.19175720  1.0
  Ni  Ni160  1  0.97985694  0.39597139  0.19175720  1.0
  Ni  Ni161  1  0.97985694  0.72930472  0.19175720  1.0
  Ni  Ni162  1  0.12500000  0.29166667  0.18300613  1.0
  Ni  Ni163  1  0.12500000  0.62500000  0.18300613  1.0
  Ni  Ni164  1  0.12500000  0.95833333  0.18300613  1.0
  Ni  Ni165  1  0.45833333  0.29166667  0.18300613  1.0
  Ni  Ni166  1  0.45833333  0.62500000  0.18300613  1.0
  Ni  Ni167  1  0.45833333  0.95833333  0.18300613  1.0
  Ni  Ni168  1  0.79166667  0.29166667  0.18300613  1.0
  Ni  Ni169  1  0.79166667  0.62500000  0.18300613  1.0
  Ni  Ni170  1  0.79166667  0.95833333  0.18300613  1.0
  Ni  Ni171  1  0.29166667  0.12500000  0.25443470  1.0
  Ni  Ni172  1  0.29166667  0.45833333  0.25443470  1.0
  Ni  Ni173  1  0.29166667  0.79166667  0.25443470  1.0
  Ni  Ni174  1  0.62500000  0.12500000  0.25443470  1.0
  Ni  Ni175  1  0.62500000  0.45833333  0.25443470  1.0
  Ni  Ni176  1  0.62500000  0.79166667  0.25443470  1.0
  Ni  Ni177  1  0.95833333  0.12500000  0.25443470  1.0
  Ni  Ni178  1  0.95833333  0.45833333  0.25443470  1.0
  Ni  Ni179  1  0.95833333  0.79166667  0.25443470  1.0
  Ni  Ni180  1  0.31208583  0.22930472  0.19223053  1.0
  Ni  Ni181  1  0.31208583  0.56263805  0.19223053  1.0
  Ni  Ni182  1  0.31208583  0.89597139  0.19223053  1.0
  Ni  Ni183  1  0.64541917  0.22930472  0.19223053  1.0
  Ni  Ni184  1  0.64541917  0.56263805  0.19223053  1.0
  Ni  Ni185  1  0.64541917  0.89597139  0.19223053  1.0
  Ni  Ni186  1  0.97875250  0.22930472  0.19223053  1.0
  Ni  Ni187  1  0.97875250  0.56263805  0.19223053  1.0
  Ni  Ni188  1  0.97875250  0.89597139  0.19223053  1.0
  Ni  Ni189  1  0.14541917  0.06263805  0.26365911  1.0
  Ni  Ni190  1  0.14541917  0.39597139  0.26365911  1.0
  Ni  Ni191  1  0.14541917  0.72930472  0.26365911  1.0
  Ni  Ni192  1  0.47875250  0.06263805  0.26365911  1.0
  Ni  Ni193  1  0.47875250  0.39597139  0.26365911  1.0
  Ni  Ni194  1  0.47875250  0.72930472  0.26365911  1.0
  Ni  Ni195  1  0.81208583  0.06263805  0.26365911  1.0
  Ni  Ni196  1  0.81208583  0.39597139  0.26365911  1.0
  Ni  Ni197  1  0.81208583  0.72930472  0.26365911  1.0
  Ni  Ni198  1  0.31208583  0.22930472  0.26318577  1.0
  Ni  Ni199  1  0.31208583  0.56263805  0.26318577  1.0
  Ni  Ni200  1  0.31208583  0.89597139  0.26318577  1.0
  Ni  Ni201  1  0.64541917  0.22930472  0.26318577  1.0
  Ni  Ni202  1  0.64541917  0.56263805  0.26318577  1.0
  Ni  Ni203  1  0.64541917  0.89597139  0.26318577  1.0
  Ni  Ni204  1  0.97875250  0.22930472  0.26318577  1.0
  Ni  Ni205  1  0.97875250  0.56263805  0.26318577  1.0
  Ni  Ni206  1  0.97875250  0.89597139  0.26318577  1.0
  Ni  Ni207  1  0.14541917  0.06263805  0.19175720  1.0
  Ni  Ni208  1  0.14541917  0.39597139  0.19175720  1.0
  Ni  Ni209  1  0.14541917  0.72930472  0.19175720  1.0
  Ni  Ni210  1  0.47875250  0.06263805  0.19175720  1.0
  Ni  Ni211  1  0.47875250  0.39597139  0.19175720  1.0
  Ni  Ni212  1  0.47875250  0.72930472  0.19175720  1.0
  Ni  Ni213  1  0.81208583  0.06263805  0.19175720  1.0
  Ni  Ni214  1  0.81208583  0.39597139  0.19175720  1.0
  Ni  Ni215  1  0.81208583  0.72930472  0.19175720  1.0
  Hf  Hf216  1  0.16666667  0.16666667  0.34372042  1.0
  Hf  Hf217  1  0.16666667  0.50000000  0.34372042  1.0
  Hf  Hf218  1  0.16666667  0.83333333  0.34372042  1.0
  Hf  Hf219  1  0.50000000  0.16666667  0.34372042  1.0
  Hf  Hf220  1  0.50000000  0.50000000  0.34372042  1.0
  Hf  Hf221  1  0.50000000  0.83333333  0.34372042  1.0
  Hf  Hf222  1  0.83333333  0.16666667  0.34372042  1.0
  Hf  Hf223  1  0.83333333  0.50000000  0.34372042  1.0
  Hf  Hf224  1  0.83333333  0.83333333  0.34372042  1.0
  Hf  Hf225  1  0.00000000  0.00000000  0.41514899  1.0
  Hf  Hf226  1  0.00000000  0.33333333  0.41514899  1.0
  Hf  Hf227  1  0.00000000  0.66666667  0.41514899  1.0
  Hf  Hf228  1  0.33333333  0.00000000  0.41514899  1.0
  Hf  Hf229  1  0.33333333  0.33333333  0.41514899  1.0
  Hf  Hf230  1  0.33333333  0.66666667  0.41514899  1.0
  Hf  Hf231  1  0.66666667  0.00000000  0.41514899  1.0
  Hf  Hf232  1  0.66666667  0.33333333  0.41514899  1.0
  Hf  Hf233  1  0.66666667  0.66666667  0.41514899  1.0
  Ni  Ni234  1  0.22930472  0.31208583  0.37056530  1.0
  Ni  Ni235  1  0.22930472  0.64541917  0.37056530  1.0
  Ni  Ni236  1  0.22930472  0.97875250  0.37056530  1.0
  Ni  Ni237  1  0.56263806  0.31208583  0.37056530  1.0
  Ni  Ni238  1  0.56263806  0.64541917  0.37056530  1.0
  Ni  Ni239  1  0.56263806  0.97875250  0.37056530  1.0
  Ni  Ni240  1  0.89597139  0.31208583  0.37056530  1.0
  Ni  Ni241  1  0.89597139  0.64541917  0.37056530  1.0
  Ni  Ni242  1  0.89597139  0.97875250  0.37056530  1.0
  Ni  Ni243  1  0.06263806  0.14541917  0.29913673  1.0
  Ni  Ni244  1  0.06263806  0.47875250  0.29913673  1.0
  Ni  Ni245  1  0.06263806  0.81208583  0.29913673  1.0
  Ni  Ni246  1  0.39597139  0.14541917  0.29913673  1.0
  Ni  Ni247  1  0.39597139  0.47875250  0.29913673  1.0
  Ni  Ni248  1  0.39597139  0.81208583  0.29913673  1.0
  Ni  Ni249  1  0.72930472  0.14541917  0.29913673  1.0
  Ni  Ni250  1  0.72930472  0.47875250  0.29913673  1.0
  Ni  Ni251  1  0.72930472  0.81208583  0.29913673  1.0
  Ni  Ni252  1  0.14652361  0.22930472  0.40604292  1.0
  Ni  Ni253  1  0.14652361  0.56263805  0.40604292  1.0
  Ni  Ni254  1  0.14652361  0.89597139  0.40604292  1.0
  Ni  Ni255  1  0.47985694  0.22930472  0.40604292  1.0
  Ni  Ni256  1  0.47985694  0.56263805  0.40604292  1.0
  Ni  Ni257  1  0.47985694  0.89597139  0.40604292  1.0
  Ni  Ni258  1  0.81319028  0.22930472  0.40604292  1.0
  Ni  Ni259  1  0.81319028  0.56263805  0.40604292  1.0
  Ni  Ni260  1  0.81319028  0.89597139  0.40604292  1.0
  Ni  Ni261  1  0.31319028  0.06263805  0.33461435  1.0
  Ni  Ni262  1  0.31319028  0.39597139  0.33461435  1.0
  Ni  Ni263  1  0.31319028  0.72930472  0.33461435  1.0
  Ni  Ni264  1  0.64652361  0.06263805  0.33461434  1.0
  Ni  Ni265  1  0.64652361  0.39597139  0.33461435  1.0
  Ni  Ni266  1  0.64652361  0.72930472  0.33461435  1.0
  Ni  Ni267  1  0.97985694  0.06263805  0.33461435  1.0
  Ni  Ni268  1  0.97985694  0.39597139  0.33461435  1.0
  Ni  Ni269  1  0.97985694  0.72930472  0.33461435  1.0
  Ni  Ni270  1  0.12500000  0.29166667  0.32586327  1.0
  Ni  Ni271  1  0.12500000  0.62500000  0.32586327  1.0
  Ni  Ni272  1  0.12500000  0.95833333  0.32586327  1.0
  Ni  Ni273  1  0.45833333  0.29166667  0.32586327  1.0
  Ni  Ni274  1  0.45833333  0.62500000  0.32586327  1.0
  Ni  Ni275  1  0.45833333  0.95833333  0.32586327  1.0
  Ni  Ni276  1  0.79166667  0.29166667  0.32586327  1.0
  Ni  Ni277  1  0.79166667  0.62500000  0.32586327  1.0
  Ni  Ni278  1  0.79166667  0.95833333  0.32586327  1.0
  Ni  Ni279  1  0.29166667  0.12500000  0.39729185  1.0
  Ni  Ni280  1  0.29166667  0.45833333  0.39729185  1.0
  Ni  Ni281  1  0.29166667  0.79166667  0.39729185  1.0
  Ni  Ni282  1  0.62500000  0.12500000  0.39729185  1.0
  Ni  Ni283  1  0.62500000  0.45833333  0.39729185  1.0
  Ni  Ni284  1  0.62500000  0.79166667  0.39729185  1.0
  Ni  Ni285  1  0.95833333  0.12500000  0.39729185  1.0
  Ni  Ni286  1  0.95833333  0.45833333  0.39729185  1.0
  Ni  Ni287  1  0.95833333  0.79166667  0.39729185  1.0
  Ni  Ni288  1  0.31208583  0.22930472  0.33508768  1.0
  Ni  Ni289  1  0.31208583  0.56263805  0.33508768  1.0
  Ni  Ni290  1  0.31208583  0.89597139  0.33508768  1.0
  Ni  Ni291  1  0.64541917  0.22930472  0.33508768  1.0
  Ni  Ni292  1  0.64541917  0.56263805  0.33508768  1.0
  Ni  Ni293  1  0.64541917  0.89597139  0.33508768  1.0
  Ni  Ni294  1  0.97875250  0.22930472  0.33508768  1.0
  Ni  Ni295  1  0.97875250  0.56263805  0.33508768  1.0
  Ni  Ni296  1  0.97875250  0.89597139  0.33508768  1.0
  Ni  Ni297  1  0.14541917  0.06263805  0.40651625  1.0
  Ni  Ni298  1  0.14541917  0.39597139  0.40651625  1.0
  Ni  Ni299  1  0.14541917  0.72930472  0.40651625  1.0
  Ni  Ni300  1  0.47875250  0.06263805  0.40651625  1.0
  Ni  Ni301  1  0.47875250  0.39597139  0.40651625  1.0
  Ni  Ni302  1  0.47875250  0.72930472  0.40651625  1.0
  Ni  Ni303  1  0.81208583  0.06263805  0.40651625  1.0
  Ni  Ni304  1  0.81208583  0.39597139  0.40651625  1.0
  Ni  Ni305  1  0.81208583  0.72930472  0.40651625  1.0
  Ni  Ni306  1  0.31208583  0.22930472  0.40604292  1.0
  Ni  Ni307  1  0.31208583  0.56263805  0.40604292  1.0
  Ni  Ni308  1  0.31208583  0.89597139  0.40604292  1.0
  Ni  Ni309  1  0.64541917  0.22930472  0.40604292  1.0
  Ni  Ni310  1  0.64541917  0.56263805  0.40604292  1.0
  Ni  Ni311  1  0.64541917  0.89597139  0.40604292  1.0
  Ni  Ni312  1  0.97875250  0.22930472  0.40604292  1.0
  Ni  Ni313  1  0.97875250  0.56263805  0.40604292  1.0
  Ni  Ni314  1  0.97875250  0.89597139  0.40604292  1.0
  Ni  Ni315  1  0.14541917  0.06263805  0.33461434  1.0
  Ni  Ni316  1  0.14541917  0.39597139  0.33461434  1.0
  Ni  Ni317  1  0.14541917  0.72930472  0.33461434  1.0
  Ni  Ni318  1  0.47875250  0.06263805  0.33461434  1.0
  Ni  Ni319  1  0.47875250  0.39597139  0.33461434  1.0
  Ni  Ni320  1  0.47875250  0.72930472  0.33461434  1.0
  Ni  Ni321  1  0.81208583  0.06263805  0.33461434  1.0
  Ni  Ni322  1  0.81208583  0.39597139  0.33461434  1.0
  Ni  Ni323  1  0.81208583  0.72930472  0.33461434  1.0
