# generated using pymatgen
data_HfNi3
_symmetry_space_group_name_H-M   'P 1'
_cell_length_a   15.80516340
_cell_length_b   15.80516340
_cell_length_c   35.53654060
_cell_angle_alpha   111.75458294
_cell_angle_beta   111.75458294
_cell_angle_gamma   60.00000000
_symmetry_Int_Tables_number   1
_chemical_formula_structural   HfNi3
_chemical_formula_sum   'Hf54 Ni162'
_cell_volume   6948.21118732
_cell_formula_units_Z   54
loop_
 _symmetry_equiv_pos_site_id
 _symmetry_equiv_pos_as_xyz
  1  'x, y, z'
loop_
 _atom_site_type_symbol
 _atom_site_label
 _atom_site_symmetry_multiplicity
 _atom_site_fract_x
 _atom_site_fract_y
 _atom_site_fract_z
 _atom_site_occupancy
  Hf  Hf0  1  0.26040833  0.26040833  0.03571230  1.0
  Hf  Hf1  1  0.26040833  0.59374167  0.03571230  1.0
  Hf  Hf2  1  0.26040833  0.92707500  0.03571230  1.0
  Hf  Hf3  1  0.59374167  0.26040833  0.03571230  1.0
  Hf  Hf4  1  0.59374167  0.59374167  0.03571230  1.0
  Hf  Hf5  1  0.59374167  0.92707500  0.03571230  1.0
  Hf  Hf6  1  0.92707500  0.26040833  0.03571230  1.0
  Hf  Hf7  1  0.92707500  0.59374167  0.03571230  1.0
  Hf  Hf8  1  0.92707500  0.92707500  0.03571230  1.0
  Hf  Hf9  1  0.07292500  0.07292500  0.09824230  1.0
  Hf  Hf10  1  0.07292500  0.40625833  0.09824230  1.0
  Hf  Hf11  1  0.07292500  0.73959167  0.09824230  1.0
  Hf  Hf12  1  0.40625833  0.07292500  0.09824230  1.0
  Hf  Hf13  1  0.40625833  0.40625833  0.09824230  1.0
  Hf  Hf14  1  0.40625833  0.73959167  0.09824230  1.0
  Hf  Hf15  1  0.73959167  0.07292500  0.09824230  1.0
  Hf  Hf16  1  0.73959167  0.40625833  0.09824230  1.0
  Hf  Hf17  1  0.73959167  0.73959167  0.09824230  1.0
  Hf  Hf18  1  0.00000000  0.00000000  0.16697730  1.0
  Hf  Hf19  1  0.00000000  0.33333333  0.16697730  1.0
  Hf  Hf20  1  0.00000000  0.66666667  0.16697730  1.0
  Hf  Hf21  1  0.33333333  0.00000000  0.16697730  1.0
  Hf  Hf22  1  0.33333333  0.33333333  0.16697730  1.0
  Hf  Hf23  1  0.33333333  0.66666667  0.16697730  1.0
  Hf  Hf24  1  0.66666667  0.00000000  0.16697730  1.0
  Hf  Hf25  1  0.66666667  0.33333333  0.16697730  1.0
  Hf  Hf26  1  0.66666667  0.66666667  0.16697730  1.0
  Ni  Ni27  1  0.08142233  0.23758433  0.10093190  1.0
  Ni  Ni28  1  0.08142233  0.57091767  0.10093190  1.0
  Ni  Ni29  1  0.08142233  0.90425100  0.10093190  1.0
  Ni  Ni30  1  0.41475567  0.23758433  0.10093190  1.0
  Ni  Ni31  1  0.41475567  0.57091767  0.10093190  1.0
  Ni  Ni32  1  0.41475567  0.90425100  0.10093190  1.0
  Ni  Ni33  1  0.74808900  0.23758433  0.10093190  1.0
  Ni  Ni34  1  0.74808900  0.57091767  0.10093190  1.0
  Ni  Ni35  1  0.74808900  0.90425100  0.10093190  1.0
  Ni  Ni36  1  0.23758433  0.23758433  0.10093190  1.0
  Ni  Ni37  1  0.23758433  0.57091767  0.10093190  1.0
  Ni  Ni38  1  0.23758433  0.90425100  0.10093190  1.0
  Ni  Ni39  1  0.57091767  0.23758433  0.10093190  1.0
  Ni  Ni40  1  0.57091767  0.57091767  0.10093190  1.0
  Ni  Ni41  1  0.57091767  0.90425100  0.10093190  1.0
  Ni  Ni42  1  0.90425100  0.23758433  0.10093190  1.0
  Ni  Ni43  1  0.90425100  0.57091767  0.10093190  1.0
  Ni  Ni44  1  0.90425100  0.90425100  0.10093190  1.0
  Ni  Ni45  1  0.23758433  0.08142233  0.10093190  1.0
  Ni  Ni46  1  0.23758433  0.41475567  0.10093190  1.0
  Ni  Ni47  1  0.23758433  0.74808900  0.10093190  1.0
  Ni  Ni48  1  0.57091767  0.08142233  0.10093190  1.0
  Ni  Ni49  1  0.57091767  0.41475567  0.10093190  1.0
  Ni  Ni50  1  0.57091767  0.74808900  0.10093190  1.0
  Ni  Ni51  1  0.90425100  0.08142233  0.10093190  1.0
  Ni  Ni52  1  0.90425100  0.41475567  0.10093190  1.0
  Ni  Ni53  1  0.90425100  0.74808900  0.10093190  1.0
  Ni  Ni54  1  0.16666667  0.00000000  0.16697730  1.0
  Ni  Ni55  1  0.16666667  0.33333333  0.16697730  1.0
  Ni  Ni56  1  0.16666667  0.66666667  0.16697730  1.0
  Ni  Ni57  1  0.50000000  0.00000000  0.16697730  1.0
  Ni  Ni58  1  0.50000000  0.33333333  0.16697730  1.0
  Ni  Ni59  1  0.50000000  0.66666667  0.16697730  1.0
  Ni  Ni60  1  0.83333333  0.00000000  0.16697730  1.0
  Ni  Ni61  1  0.83333333  0.33333333  0.16697730  1.0
  Ni  Ni62  1  0.83333333  0.66666667  0.16697730  1.0
  Ni  Ni63  1  0.16666667  0.16666667  0.16697730  1.0
  Ni  Ni64  1  0.16666667  0.50000000  0.16697730  1.0
  Ni  Ni65  1  0.16666667  0.83333333  0.16697730  1.0
  Ni  Ni66  1  0.50000000  0.16666667  0.16697730  1.0
  Ni  Ni67  1  0.50000000  0.50000000  0.16697730  1.0
  Ni  Ni68  1  0.50000000  0.83333333  0.16697730  1.0
  Ni  Ni69  1  0.83333333  0.16666667  0.16697730  1.0
  Ni  Ni70  1  0.83333333  0.50000000  0.16697730  1.0
  Ni  Ni71  1  0.83333333  0.83333333  0.16697730  1.0
  Ni  Ni72  1  0.00000000  0.16666667  0.16697730  1.0
  Ni  Ni73  1  0.00000000  0.50000000  0.16697730  1.0
  Ni  Ni74  1  1.00000000  0.83333333  0.16697730  1.0
  Ni  Ni75  1  0.33333333  0.16666667  0.16697730  1.0
  Ni  Ni76  1  0.33333333  0.50000000  0.16697730  1.0
  Ni  Ni77  1  0.33333333  0.83333333  0.16697730  1.0
  Ni  Ni78  1  0.66666667  0.16666667  0.16697730  1.0
  Ni  Ni79  1  0.66666667  0.50000000  0.16697730  1.0
  Ni  Ni80  1  0.66666667  0.83333333  0.16697730  1.0
  Ni  Ni81  1  0.09574900  0.25191100  0.03302270  1.0
  Ni  Ni82  1  0.09574900  0.58524433  0.03302270  1.0
  Ni  Ni83  1  0.09574900  0.91857767  0.03302270  1.0
  Ni  Ni84  1  0.42908233  0.25191100  0.03302270  1.0
  Ni  Ni85  1  0.42908233  0.58524433  0.03302270  1.0
  Ni  Ni86  1  0.42908233  0.91857767  0.03302270  1.0
  Ni  Ni87  1  0.76241567  0.25191100  0.03302270  1.0
  Ni  Ni88  1  0.76241567  0.58524433  0.03302270  1.0
  Ni  Ni89  1  0.76241567  0.91857767  0.03302270  1.0
  Ni  Ni90  1  0.09574900  0.09574900  0.03302270  1.0
  Ni  Ni91  1  0.09574900  0.42908233  0.03302270  1.0
  Ni  Ni92  1  0.09574900  0.76241567  0.03302270  1.0
  Ni  Ni93  1  0.42908233  0.09574900  0.03302270  1.0
  Ni  Ni94  1  0.42908233  0.42908233  0.03302270  1.0
  Ni  Ni95  1  0.42908233  0.76241567  0.03302270  1.0
  Ni  Ni96  1  0.76241567  0.09574900  0.03302270  1.0
  Ni  Ni97  1  0.76241567  0.42908233  0.03302270  1.0
  Ni  Ni98  1  0.76241567  0.76241567  0.03302270  1.0
  Ni  Ni99  1  0.25191100  0.09574900  0.03302270  1.0
  Ni  Ni100  1  0.25191100  0.42908233  0.03302270  1.0
  Ni  Ni101  1  0.25191100  0.76241567  0.03302270  1.0
  Ni  Ni102  1  0.58524433  0.09574900  0.03302270  1.0
  Ni  Ni103  1  0.58524433  0.42908233  0.03302270  1.0
  Ni  Ni104  1  0.58524433  0.76241567  0.03302270  1.0
  Ni  Ni105  1  0.91857767  0.09574900  0.03302270  1.0
  Ni  Ni106  1  0.91857767  0.42908233  0.03302270  1.0
  Ni  Ni107  1  0.91857767  0.76241567  0.03302270  1.0
  Hf  Hf108  1  0.26040833  0.26040833  0.23571230  1.0
  Hf  Hf109  1  0.26040833  0.59374167  0.23571230  1.0
  Hf  Hf110  1  0.26040833  0.92707500  0.23571230  1.0
  Hf  Hf111  1  0.59374167  0.26040833  0.23571230  1.0
  Hf  Hf112  1  0.59374167  0.59374167  0.23571230  1.0
  Hf  Hf113  1  0.59374167  0.92707500  0.23571230  1.0
  Hf  Hf114  1  0.92707500  0.26040833  0.23571230  1.0
  Hf  Hf115  1  0.92707500  0.59374167  0.23571230  1.0
  Hf  Hf116  1  0.92707500  0.92707500  0.23571230  1.0
  Hf  Hf117  1  0.07292500  0.07292500  0.29824230  1.0
  Hf  Hf118  1  0.07292500  0.40625833  0.29824230  1.0
  Hf  Hf119  1  0.07292500  0.73959167  0.29824230  1.0
  Hf  Hf120  1  0.40625833  0.07292500  0.29824230  1.0
  Hf  Hf121  1  0.40625833  0.40625833  0.29824230  1.0
  Hf  Hf122  1  0.40625833  0.73959167  0.29824230  1.0
  Hf  Hf123  1  0.73959167  0.07292500  0.29824230  1.0
  Hf  Hf124  1  0.73959167  0.40625833  0.29824230  1.0
  Hf  Hf125  1  0.73959167  0.73959167  0.29824230  1.0
  Hf  Hf126  1  0.00000000  0.00000000  0.36697730  1.0
  Hf  Hf127  1  0.00000000  0.33333333  0.36697730  1.0
  Hf  Hf128  1  0.00000000  0.66666667  0.36697730  1.0
  Hf  Hf129  1  0.33333333  0.00000000  0.36697730  1.0
  Hf  Hf130  1  0.33333333  0.33333333  0.36697730  1.0
  Hf  Hf131  1  0.33333333  0.66666667  0.36697730  1.0
  Hf  Hf132  1  0.66666667  0.00000000  0.36697730  1.0
  Hf  Hf133  1  0.66666667  0.33333333  0.36697730  1.0
  Hf  Hf134  1  0.66666667  0.66666667  0.36697730  1.0
  Ni  Ni135  1  0.08142233  0.23758433  0.30093190  1.0
  Ni  Ni136  1  0.08142233  0.57091767  0.30093190  1.0
  Ni  Ni137  1  0.08142233  0.90425100  0.30093190  1.0
  Ni  Ni138  1  0.41475567  0.23758433  0.30093190  1.0
  Ni  Ni139  1  0.41475567  0.57091767  0.30093190  1.0
  Ni  Ni140  1  0.41475567  0.90425100  0.30093190  1.0
  Ni  Ni141  1  0.74808900  0.23758433  0.30093190  1.0
  Ni  Ni142  1  0.74808900  0.57091767  0.30093190  1.0
  Ni  Ni143  1  0.74808900  0.90425100  0.30093190  1.0
  Ni  Ni144  1  0.23758433  0.23758433  0.30093190  1.0
  Ni  Ni145  1  0.23758433  0.57091767  0.30093190  1.0
  Ni  Ni146  1  0.23758433  0.90425100  0.30093190  1.0
  Ni  Ni147  1  0.57091767  0.23758433  0.30093190  1.0
  Ni  Ni148  1  0.57091767  0.57091767  0.30093190  1.0
  Ni  Ni149  1  0.57091767  0.90425100  0.30093190  1.0
  Ni  Ni150  1  0.90425100  0.23758433  0.30093190  1.0
  Ni  Ni151  1  0.90425100  0.57091767  0.30093190  1.0
  Ni  Ni152  1  0.90425100  0.90425100  0.30093190  1.0
  Ni  Ni153  1  0.23758433  0.08142233  0.30093190  1.0
  Ni  Ni154  1  0.23758433  0.41475567  0.30093190  1.0
  Ni  Ni155  1  0.23758433  0.74808900  0.30093190  1.0
  Ni  Ni156  1  0.57091767  0.08142233  0.30093190  1.0
  Ni  Ni157  1  0.57091767  0.41475567  0.30093190  1.0
  Ni  Ni158  1  0.57091767  0.74808900  0.30093190  1.0
  Ni  Ni159  1  0.90425100  0.08142233  0.30093190  1.0
  Ni  Ni160  1  0.90425100  0.41475567  0.30093190  1.0
  Ni  Ni161  1  0.90425100  0.74808900  0.30093190  1.0
  Ni  Ni162  1  0.16666667  0.00000000  0.36697730  1.0
  Ni  Ni163  1  0.16666667  0.33333333  0.36697730  1.0
  Ni  Ni164  1  0.16666667  0.66666667  0.36697730  1.0
  Ni  Ni165  1  0.50000000  0.00000000  0.36697730  1.0
  Ni  Ni166  1  0.50000000  0.33333333  0.36697730  1.0
  Ni  Ni167  1  0.50000000  0.66666667  0.36697730  1.0
  Ni  Ni168  1  0.83333333  0.00000000  0.36697730  1.0
  Ni  Ni169  1  0.83333333  0.33333333  0.36697730  1.0
  Ni  Ni170  1  0.83333333  0.66666667  0.36697730  1.0
  Ni  Ni171  1  0.16666667  0.16666667  0.36697730  1.0
  Ni  Ni172  1  0.16666667  0.50000000  0.36697730  1.0
  Ni  Ni173  1  0.16666667  0.83333333  0.36697730  1.0
  Ni  Ni174  1  0.50000000  0.16666667  0.36697730  1.0
  Ni  Ni175  1  0.50000000  0.50000000  0.36697730  1.0
  Ni  Ni176  1  0.50000000  0.83333333  0.36697730  1.0
  Ni  Ni177  1  0.83333333  0.16666667  0.36697730  1.0
  Ni  Ni178  1  0.83333333  0.50000000  0.36697730  1.0
  Ni  Ni179  1  0.83333333  0.83333333  0.36697730  1.0
  Ni  Ni180  1  0.00000000  0.16666667  0.36697730  1.0
  Ni  Ni181  1  0.00000000  0.50000000  0.36697730  1.0
  Ni  Ni182  1  1.00000000  0.83333333  0.36697730  1.0
  Ni  Ni183  1  0.33333333  0.16666667  0.36697730  1.0
  Ni  Ni184  1  0.33333333  0.50000000  0.36697730  1.0
  Ni  Ni185  1  0.33333333  0.83333333  0.36697730  1.0
  Ni  Ni186  1  0.66666667  0.16666667  0.36697730  1.0
  Ni  Ni187  1  0.66666667  0.50000000  0.36697730  1.0
  Ni  Ni188  1  0.66666667  0.83333333  0.36697730  1.0
  Ni  Ni189  1  0.09574900  0.25191100  0.23302270  1.0
  Ni  Ni190  1  0.09574900  0.58524433  0.23302270  1.0
  Ni  Ni191  1  0.09574900  0.91857767  0.23302270  1.0
  Ni  Ni192  1  0.42908233  0.25191100  0.23302270  1.0
  Ni  Ni193  1  0.42908233  0.58524433  0.23302270  1.0
  Ni  Ni194  1  0.42908233  0.91857767  0.23302270  1.0
  Ni  Ni195  1  0.76241567  0.25191100  0.23302270  1.0
  Ni  Ni196  1  0.76241567  0.58524433  0.23302270  1.0
  Ni  Ni197  1  0.76241567  0.91857767  0.23302270  1.0
  Ni  Ni198  1  0.09574900  0.09574900  0.23302270  1.0
  Ni  Ni199  1  0.09574900  0.42908233  0.23302270  1.0
  Ni  Ni200  1  0.09574900  0.76241567  0.23302270  1.0
  Ni  Ni201  1  0.42908233  0.09574900  0.23302270  1.0
  Ni  Ni202  1  0.42908233  0.42908233  0.23302270  1.0
  Ni  Ni203  1  0.42908233  0.76241567  0.23302270  1.0
  Ni  Ni204  1  0.76241567  0.09574900  0.23302270  1.0
  Ni  Ni205  1  0.76241567  0.42908233  0.23302270  1.0
  Ni  Ni206  1  0.76241567  0.76241567  0.23302270  1.0
  Ni  Ni207  1  0.25191100  0.09574900  0.23302270  1.0
  Ni  Ni208  1  0.25191100  0.42908233  0.23302270  1.0
  Ni  Ni209  1  0.25191100  0.76241567  0.23302270  1.0
  Ni  Ni210  1  0.58524433  0.09574900  0.23302270  1.0
  Ni  Ni211  1  0.58524433  0.42908233  0.23302270  1.0
  Ni  Ni212  1  0.58524433  0.76241567  0.23302270  1.0
  Ni  Ni213  1  0.91857767  0.09574900  0.23302270  1.0
  Ni  Ni214  1  0.91857767  0.42908233  0.23302270  1.0
  Ni  Ni215  1  0.91857767  0.76241567  0.23302270  1.0
