# generated using pymatgen
data_HfNi5
_symmetry_space_group_name_H-M   'P 1'
_cell_length_a   14.13012330
_cell_length_b   34.61159209
_cell_length_c   27.46402308
_cell_angle_alpha   98.04946698
_cell_angle_beta   90.00000000
_cell_angle_gamma   90.00000000
_symmetry_Int_Tables_number   1
_chemical_formula_structural   HfNi5
_chemical_formula_sum   'Hf72 Ni360'
_cell_volume   13299.38620207
_cell_formula_units_Z   72
loop_
 _symmetry_equiv_pos_site_id
 _symmetry_equiv_pos_as_xyz
  1  'x, y, z'
loop_
 _atom_site_type_symbol
 _atom_site_label
 _atom_site_symmetry_multiplicity
 _atom_site_fract_x
 _atom_site_fract_y
 _atom_site_fract_z
 _atom_site_occupancy
  Hf  Hf0  1  0.00000000  0.24591617  0.08741717  1.0
  Hf  Hf1  1  0.00000000  0.57924950  0.08741717  1.0
  Hf  Hf2  1  0.00000000  0.91258283  0.08741717  1.0
  Hf  Hf3  1  0.33333333  0.24591617  0.08741717  1.0
  Hf  Hf4  1  0.33333333  0.57924950  0.08741717  1.0
  Hf  Hf5  1  0.33333333  0.91258283  0.08741717  1.0
  Hf  Hf6  1  0.66666667  0.24591617  0.08741717  1.0
  Hf  Hf7  1  0.66666667  0.57924950  0.08741717  1.0
  Hf  Hf8  1  0.66666667  0.91258283  0.08741717  1.0
  Hf  Hf9  1  0.16666667  0.12924950  0.03741717  1.0
  Hf  Hf10  1  0.16666667  0.46258283  0.03741717  1.0
  Hf  Hf11  1  0.16666667  0.79591617  0.03741717  1.0
  Hf  Hf12  1  0.50000000  0.12924950  0.03741717  1.0
  Hf  Hf13  1  0.50000000  0.46258283  0.03741717  1.0
  Hf  Hf14  1  0.50000000  0.79591617  0.03741717  1.0
  Hf  Hf15  1  0.83333333  0.12924950  0.03741717  1.0
  Hf  Hf16  1  0.83333333  0.46258283  0.03741717  1.0
  Hf  Hf17  1  0.83333333  0.79591617  0.03741717  1.0
  Hf  Hf18  1  0.33333333  0.14591617  0.18741717  1.0
  Hf  Hf19  1  0.33333333  0.47924950  0.18741717  1.0
  Hf  Hf20  1  0.33333333  0.81258283  0.18741717  1.0
  Hf  Hf21  1  0.66666667  0.14591617  0.18741717  1.0
  Hf  Hf22  1  0.66666667  0.47924950  0.18741717  1.0
  Hf  Hf23  1  0.66666667  0.81258283  0.18741717  1.0
  Hf  Hf24  1  0.00000000  0.14591617  0.18741717  1.0
  Hf  Hf25  1  0.00000000  0.47924950  0.18741717  1.0
  Hf  Hf26  1  0.00000000  0.81258283  0.18741717  1.0
  Hf  Hf27  1  0.16666667  0.02924950  0.13741717  1.0
  Hf  Hf28  1  0.16666667  0.36258283  0.13741717  1.0
  Hf  Hf29  1  0.16666667  0.69591617  0.13741717  1.0
  Hf  Hf30  1  0.50000000  0.02924950  0.13741717  1.0
  Hf  Hf31  1  0.50000000  0.36258283  0.13741717  1.0
  Hf  Hf32  1  0.50000000  0.69591617  0.13741717  1.0
  Hf  Hf33  1  0.83333333  0.02924950  0.13741717  1.0
  Hf  Hf34  1  0.83333333  0.36258283  0.13741717  1.0
  Hf  Hf35  1  0.83333333  0.69591617  0.13741717  1.0
  Hf  Hf36  1  0.33333333  0.04591617  0.28741717  1.0
  Hf  Hf37  1  0.33333333  0.37924950  0.28741717  1.0
  Hf  Hf38  1  0.33333333  0.71258283  0.28741717  1.0
  Hf  Hf39  1  0.66666667  0.04591617  0.28741717  1.0
  Hf  Hf40  1  0.66666667  0.37924950  0.28741717  1.0
  Hf  Hf41  1  0.66666667  0.71258283  0.28741717  1.0
  Hf  Hf42  1  1.00000000  0.04591617  0.28741717  1.0
  Hf  Hf43  1  1.00000000  0.37924950  0.28741717  1.0
  Hf  Hf44  1  1.00000000  0.71258283  0.28741717  1.0
  Hf  Hf45  1  0.16666667  0.26258283  0.23741717  1.0
  Hf  Hf46  1  0.16666667  0.59591617  0.23741717  1.0
  Hf  Hf47  1  0.16666667  0.92924950  0.23741717  1.0
  Hf  Hf48  1  0.50000000  0.26258283  0.23741717  1.0
  Hf  Hf49  1  0.50000000  0.59591617  0.23741717  1.0
  Hf  Hf50  1  0.50000000  0.92924950  0.23741717  1.0
  Hf  Hf51  1  0.83333333  0.26258283  0.23741717  1.0
  Hf  Hf52  1  0.83333333  0.59591617  0.23741717  1.0
  Hf  Hf53  1  0.83333333  0.92924950  0.23741717  1.0
  Hf  Hf54  1  0.33333333  0.27924950  0.38741717  1.0
  Hf  Hf55  1  0.33333333  0.61258283  0.38741717  1.0
  Hf  Hf56  1  0.33333333  0.94591617  0.38741717  1.0
  Hf  Hf57  1  0.66666667  0.27924950  0.38741717  1.0
  Hf  Hf58  1  0.66666667  0.61258283  0.38741717  1.0
  Hf  Hf59  1  0.66666667  0.94591617  0.38741717  1.0
  Hf  Hf60  1  0.00000000  0.27924950  0.38741717  1.0
  Hf  Hf61  1  0.00000000  0.61258283  0.38741717  1.0
  Hf  Hf62  1  1.00000000  0.94591617  0.38741717  1.0
  Hf  Hf63  1  0.16666667  0.16258283  0.33741717  1.0
  Hf  Hf64  1  0.16666667  0.49591617  0.33741717  1.0
  Hf  Hf65  1  0.16666667  0.82924950  0.33741717  1.0
  Hf  Hf66  1  0.50000000  0.16258283  0.33741717  1.0
  Hf  Hf67  1  0.50000000  0.49591617  0.33741717  1.0
  Hf  Hf68  1  0.50000000  0.82924950  0.33741717  1.0
  Hf  Hf69  1  0.83333333  0.16258283  0.33741717  1.0
  Hf  Hf70  1  0.83333333  0.49591617  0.33741717  1.0
  Hf  Hf71  1  0.83333333  0.82924950  0.33741717  1.0
  Ni  Ni72  1  0.08278111  0.06269328  0.06258283  1.0
  Ni  Ni73  1  0.08278111  0.39602661  0.06258283  1.0
  Ni  Ni74  1  0.08278111  0.72935995  0.06258283  1.0
  Ni  Ni75  1  0.41611444  0.06269328  0.06258283  1.0
  Ni  Ni76  1  0.41611444  0.39602661  0.06258283  1.0
  Ni  Ni77  1  0.41611444  0.72935995  0.06258283  1.0
  Ni  Ni78  1  0.74944778  0.06269328  0.06258283  1.0
  Ni  Ni79  1  0.74944778  0.39602661  0.06258283  1.0
  Ni  Ni80  1  0.74944778  0.72935995  0.06258283  1.0
  Ni  Ni81  1  0.24944778  0.27935995  0.01258283  1.0
  Ni  Ni82  1  0.24944778  0.61269328  0.01258283  1.0
  Ni  Ni83  1  0.24944778  0.94602661  0.01258283  1.0
  Ni  Ni84  1  0.58278111  0.27935995  0.01258283  1.0
  Ni  Ni85  1  0.58278111  0.61269328  0.01258283  1.0
  Ni  Ni86  1  0.58278111  0.94602661  0.01258283  1.0
  Ni  Ni87  1  0.91611445  0.27935995  0.01258283  1.0
  Ni  Ni88  1  0.91611444  0.61269328  0.01258283  1.0
  Ni  Ni89  1  0.91611444  0.94602661  0.01258283  1.0
  Ni  Ni90  1  0.00000000  0.17097139  0.03708583  1.0
  Ni  Ni91  1  0.00000000  0.50430472  0.03708583  1.0
  Ni  Ni92  1  0.00000000  0.83763806  0.03708583  1.0
  Ni  Ni93  1  0.33333333  0.17097139  0.03708583  1.0
  Ni  Ni94  1  0.33333333  0.50430472  0.03708583  1.0
  Ni  Ni95  1  0.33333333  0.83763806  0.03708583  1.0
  Ni  Ni96  1  0.66666667  0.17097139  0.03708583  1.0
  Ni  Ni97  1  0.66666667  0.50430472  0.03708583  1.0
  Ni  Ni98  1  0.66666667  0.83763806  0.03708583  1.0
  Ni  Ni99  1  0.16666667  0.28763806  0.08708583  1.0
  Ni  Ni100  1  0.16666667  0.62097139  0.08708583  1.0
  Ni  Ni101  1  0.16666667  0.95430472  0.08708583  1.0
  Ni  Ni102  1  0.50000000  0.28763806  0.08708583  1.0
  Ni  Ni103  1  0.50000000  0.62097139  0.08708583  1.0
  Ni  Ni104  1  0.50000000  0.95430472  0.08708583  1.0
  Ni  Ni105  1  0.83333333  0.28763806  0.08708583  1.0
  Ni  Ni106  1  0.83333333  0.62097139  0.08708583  1.0
  Ni  Ni107  1  0.83333333  0.95430472  0.08708583  1.0
  Ni  Ni108  1  0.00000000  0.32924950  0.08741717  1.0
  Ni  Ni109  1  0.00000000  0.66258283  0.08741717  1.0
  Ni  Ni110  1  0.00000000  0.99591617  0.08741717  1.0
  Ni  Ni111  1  0.33333333  0.32924950  0.08741717  1.0
  Ni  Ni112  1  0.33333333  0.66258283  0.08741717  1.0
  Ni  Ni113  1  0.33333333  0.99591617  0.08741717  1.0
  Ni  Ni114  1  0.66666667  0.32924950  0.08741717  1.0
  Ni  Ni115  1  0.66666667  0.66258283  0.08741717  1.0
  Ni  Ni116  1  0.66666667  0.99591617  0.08741717  1.0
  Ni  Ni117  1  0.16666667  0.21258283  0.03741717  1.0
  Ni  Ni118  1  0.16666667  0.54591617  0.03741717  1.0
  Ni  Ni119  1  0.16666667  0.87924950  0.03741717  1.0
  Ni  Ni120  1  0.50000000  0.21258283  0.03741717  1.0
  Ni  Ni121  1  0.50000000  0.54591617  0.03741717  1.0
  Ni  Ni122  1  0.50000000  0.87924950  0.03741717  1.0
  Ni  Ni123  1  0.83333333  0.21258283  0.03741717  1.0
  Ni  Ni124  1  0.83333333  0.54591617  0.03741717  1.0
  Ni  Ni125  1  0.83333333  0.87924950  0.03741717  1.0
  Ni  Ni126  1  0.00000000  0.12064006  0.08741717  1.0
  Ni  Ni127  1  0.00000000  0.45397339  0.08741717  1.0
  Ni  Ni128  1  0.00000000  0.78730672  0.08741717  1.0
  Ni  Ni129  1  0.33333333  0.12064006  0.08741717  1.0
  Ni  Ni130  1  0.33333333  0.45397339  0.08741717  1.0
  Ni  Ni131  1  0.33333333  0.78730672  0.08741717  1.0
  Ni  Ni132  1  0.66666667  0.12064006  0.08741717  1.0
  Ni  Ni133  1  0.66666667  0.45397339  0.08741717  1.0
  Ni  Ni134  1  0.66666667  0.78730672  0.08741717  1.0
  Ni  Ni135  1  0.16666667  0.00397339  0.03741717  1.0
  Ni  Ni136  1  0.16666667  0.33730672  0.03741717  1.0
  Ni  Ni137  1  0.16666667  0.67064006  0.03741717  1.0
  Ni  Ni138  1  0.50000000  0.00397339  0.03741717  1.0
  Ni  Ni139  1  0.50000000  0.33730672  0.03741717  1.0
  Ni  Ni140  1  0.50000000  0.67064006  0.03741717  1.0
  Ni  Ni141  1  0.83333333  0.00397339  0.03741717  1.0
  Ni  Ni142  1  0.83333333  0.33730672  0.03741717  1.0
  Ni  Ni143  1  0.83333333  0.67064006  0.03741717  1.0
  Ni  Ni144  1  0.25055222  0.06269328  0.06258283  1.0
  Ni  Ni145  1  0.25055222  0.39602661  0.06258283  1.0
  Ni  Ni146  1  0.25055222  0.72935995  0.06258283  1.0
  Ni  Ni147  1  0.58388555  0.06269328  0.06258283  1.0
  Ni  Ni148  1  0.58388555  0.39602661  0.06258283  1.0
  Ni  Ni149  1  0.58388556  0.72935995  0.06258283  1.0
  Ni  Ni150  1  0.91721889  0.06269328  0.06258283  1.0
  Ni  Ni151  1  0.91721889  0.39602661  0.06258283  1.0
  Ni  Ni152  1  0.91721889  0.72935995  0.06258283  1.0
  Ni  Ni153  1  0.08388555  0.27935995  0.01258283  1.0
  Ni  Ni154  1  0.08388555  0.61269328  0.01258283  1.0
  Ni  Ni155  1  0.08388555  0.94602661  0.01258283  1.0
  Ni  Ni156  1  0.41721889  0.27935995  0.01258283  1.0
  Ni  Ni157  1  0.41721889  0.61269328  0.01258283  1.0
  Ni  Ni158  1  0.41721889  0.94602661  0.01258283  1.0
  Ni  Ni159  1  0.75055222  0.27935995  0.01258283  1.0
  Ni  Ni160  1  0.75055222  0.61269328  0.01258283  1.0
  Ni  Ni161  1  0.75055222  0.94602661  0.01258283  1.0
  Ni  Ni162  1  0.08278111  0.29602661  0.16258283  1.0
  Ni  Ni163  1  0.08278111  0.62935995  0.16258283  1.0
  Ni  Ni164  1  0.08278111  0.96269328  0.16258283  1.0
  Ni  Ni165  1  0.41611445  0.29602661  0.16258283  1.0
  Ni  Ni166  1  0.41611444  0.62935995  0.16258283  1.0
  Ni  Ni167  1  0.41611444  0.96269328  0.16258283  1.0
  Ni  Ni168  1  0.74944778  0.29602661  0.16258283  1.0
  Ni  Ni169  1  0.74944778  0.62935995  0.16258283  1.0
  Ni  Ni170  1  0.74944778  0.96269328  0.16258283  1.0
  Ni  Ni171  1  0.24944778  0.17935995  0.11258283  1.0
  Ni  Ni172  1  0.24944778  0.51269328  0.11258283  1.0
  Ni  Ni173  1  0.24944778  0.84602661  0.11258283  1.0
  Ni  Ni174  1  0.58278111  0.17935995  0.11258283  1.0
  Ni  Ni175  1  0.58278111  0.51269328  0.11258283  1.0
  Ni  Ni176  1  0.58278111  0.84602661  0.11258283  1.0
  Ni  Ni177  1  0.91611445  0.17935995  0.11258283  1.0
  Ni  Ni178  1  0.91611444  0.51269328  0.11258283  1.0
  Ni  Ni179  1  0.91611444  0.84602661  0.11258283  1.0
  Ni  Ni180  1  0.00000000  0.07097139  0.13708583  1.0
  Ni  Ni181  1  0.00000000  0.40430472  0.13708583  1.0
  Ni  Ni182  1  0.00000000  0.73763806  0.13708583  1.0
  Ni  Ni183  1  0.33333333  0.07097139  0.13708583  1.0
  Ni  Ni184  1  0.33333333  0.40430472  0.13708583  1.0
  Ni  Ni185  1  0.33333333  0.73763806  0.13708583  1.0
  Ni  Ni186  1  0.66666667  0.07097139  0.13708583  1.0
  Ni  Ni187  1  0.66666667  0.40430472  0.13708583  1.0
  Ni  Ni188  1  0.66666667  0.73763806  0.13708583  1.0
  Ni  Ni189  1  0.16666667  0.18763806  0.18708583  1.0
  Ni  Ni190  1  0.16666667  0.52097139  0.18708583  1.0
  Ni  Ni191  1  0.16666667  0.85430472  0.18708583  1.0
  Ni  Ni192  1  0.50000000  0.18763806  0.18708583  1.0
  Ni  Ni193  1  0.50000000  0.52097139  0.18708583  1.0
  Ni  Ni194  1  0.50000000  0.85430472  0.18708583  1.0
  Ni  Ni195  1  0.83333333  0.18763806  0.18708583  1.0
  Ni  Ni196  1  0.83333333  0.52097139  0.18708583  1.0
  Ni  Ni197  1  0.83333333  0.85430472  0.18708583  1.0
  Ni  Ni198  1  0.33333333  0.22924950  0.18741717  1.0
  Ni  Ni199  1  0.33333333  0.56258283  0.18741717  1.0
  Ni  Ni200  1  0.33333333  0.89591617  0.18741717  1.0
  Ni  Ni201  1  0.66666667  0.22924950  0.18741717  1.0
  Ni  Ni202  1  0.66666667  0.56258283  0.18741717  1.0
  Ni  Ni203  1  0.66666667  0.89591617  0.18741717  1.0
  Ni  Ni204  1  0.00000000  0.22924950  0.18741717  1.0
  Ni  Ni205  1  0.00000000  0.56258283  0.18741717  1.0
  Ni  Ni206  1  0.00000000  0.89591617  0.18741717  1.0
  Ni  Ni207  1  0.16666667  0.11258283  0.13741717  1.0
  Ni  Ni208  1  0.16666667  0.44591617  0.13741717  1.0
  Ni  Ni209  1  0.16666667  0.77924950  0.13741717  1.0
  Ni  Ni210  1  0.50000000  0.11258283  0.13741717  1.0
  Ni  Ni211  1  0.50000000  0.44591617  0.13741717  1.0
  Ni  Ni212  1  0.50000000  0.77924950  0.13741717  1.0
  Ni  Ni213  1  0.83333333  0.11258283  0.13741717  1.0
  Ni  Ni214  1  0.83333333  0.44591617  0.13741717  1.0
  Ni  Ni215  1  0.83333333  0.77924950  0.13741717  1.0
  Ni  Ni216  1  0.33333333  0.02064006  0.18741717  1.0
  Ni  Ni217  1  0.33333333  0.35397339  0.18741717  1.0
  Ni  Ni218  1  0.33333333  0.68730672  0.18741717  1.0
  Ni  Ni219  1  0.66666667  0.02064006  0.18741717  1.0
  Ni  Ni220  1  0.66666667  0.35397339  0.18741717  1.0
  Ni  Ni221  1  0.66666667  0.68730672  0.18741717  1.0
  Ni  Ni222  1  0.00000000  0.02064006  0.18741717  1.0
  Ni  Ni223  1  0.00000000  0.35397339  0.18741717  1.0
  Ni  Ni224  1  0.00000000  0.68730672  0.18741717  1.0
  Ni  Ni225  1  0.16666667  0.23730672  0.13741717  1.0
  Ni  Ni226  1  0.16666667  0.57064006  0.13741717  1.0
  Ni  Ni227  1  0.16666667  0.90397339  0.13741717  1.0
  Ni  Ni228  1  0.50000000  0.23730672  0.13741717  1.0
  Ni  Ni229  1  0.50000000  0.57064006  0.13741717  1.0
  Ni  Ni230  1  0.50000000  0.90397339  0.13741717  1.0
  Ni  Ni231  1  0.83333333  0.23730672  0.13741717  1.0
  Ni  Ni232  1  0.83333333  0.57064006  0.13741717  1.0
  Ni  Ni233  1  0.83333333  0.90397339  0.13741717  1.0
  Ni  Ni234  1  0.25055222  0.29602661  0.16258283  1.0
  Ni  Ni235  1  0.25055222  0.62935995  0.16258283  1.0
  Ni  Ni236  1  0.25055222  0.96269328  0.16258283  1.0
  Ni  Ni237  1  0.58388556  0.29602661  0.16258283  1.0
  Ni  Ni238  1  0.58388556  0.62935995  0.16258283  1.0
  Ni  Ni239  1  0.58388555  0.96269328  0.16258283  1.0
  Ni  Ni240  1  0.91721889  0.29602661  0.16258283  1.0
  Ni  Ni241  1  0.91721889  0.62935995  0.16258283  1.0
  Ni  Ni242  1  0.91721889  0.96269328  0.16258283  1.0
  Ni  Ni243  1  0.08388555  0.17935995  0.11258283  1.0
  Ni  Ni244  1  0.08388555  0.51269328  0.11258283  1.0
  Ni  Ni245  1  0.08388555  0.84602661  0.11258283  1.0
  Ni  Ni246  1  0.41721889  0.17935995  0.11258283  1.0
  Ni  Ni247  1  0.41721889  0.51269328  0.11258283  1.0
  Ni  Ni248  1  0.41721889  0.84602661  0.11258283  1.0
  Ni  Ni249  1  0.75055222  0.17935995  0.11258283  1.0
  Ni  Ni250  1  0.75055222  0.51269328  0.11258283  1.0
  Ni  Ni251  1  0.75055222  0.84602661  0.11258283  1.0
  Ni  Ni252  1  0.08278111  0.19602661  0.26258283  1.0
  Ni  Ni253  1  0.08278111  0.52935995  0.26258283  1.0
  Ni  Ni254  1  0.08278111  0.86269328  0.26258283  1.0
  Ni  Ni255  1  0.41611444  0.19602661  0.26258283  1.0
  Ni  Ni256  1  0.41611444  0.52935995  0.26258283  1.0
  Ni  Ni257  1  0.41611444  0.86269328  0.26258283  1.0
  Ni  Ni258  1  0.74944778  0.19602661  0.26258283  1.0
  Ni  Ni259  1  0.74944778  0.52935995  0.26258283  1.0
  Ni  Ni260  1  0.74944778  0.86269328  0.26258283  1.0
  Ni  Ni261  1  0.24944778  0.07935995  0.21258283  1.0
  Ni  Ni262  1  0.24944778  0.41269328  0.21258283  1.0
  Ni  Ni263  1  0.24944778  0.74602661  0.21258283  1.0
  Ni  Ni264  1  0.58278111  0.07935995  0.21258283  1.0
  Ni  Ni265  1  0.58278111  0.41269328  0.21258283  1.0
  Ni  Ni266  1  0.58278111  0.74602661  0.21258283  1.0
  Ni  Ni267  1  0.91611444  0.07935995  0.21258283  1.0
  Ni  Ni268  1  0.91611444  0.41269328  0.21258283  1.0
  Ni  Ni269  1  0.91611444  0.74602661  0.21258283  1.0
  Ni  Ni270  1  0.00000000  0.30430472  0.23708583  1.0
  Ni  Ni271  1  0.00000000  0.63763806  0.23708583  1.0
  Ni  Ni272  1  0.00000000  0.97097139  0.23708583  1.0
  Ni  Ni273  1  0.33333333  0.30430472  0.23708583  1.0
  Ni  Ni274  1  0.33333333  0.63763806  0.23708583  1.0
  Ni  Ni275  1  0.33333333  0.97097139  0.23708583  1.0
  Ni  Ni276  1  0.66666667  0.30430472  0.23708583  1.0
  Ni  Ni277  1  0.66666667  0.63763806  0.23708583  1.0
  Ni  Ni278  1  0.66666667  0.97097139  0.23708583  1.0
  Ni  Ni279  1  0.16666667  0.08763806  0.28708583  1.0
  Ni  Ni280  1  0.16666667  0.42097139  0.28708583  1.0
  Ni  Ni281  1  0.16666667  0.75430472  0.28708583  1.0
  Ni  Ni282  1  0.50000000  0.08763806  0.28708583  1.0
  Ni  Ni283  1  0.50000000  0.42097139  0.28708583  1.0
  Ni  Ni284  1  0.50000000  0.75430472  0.28708583  1.0
  Ni  Ni285  1  0.83333333  0.08763806  0.28708583  1.0
  Ni  Ni286  1  0.83333333  0.42097139  0.28708583  1.0
  Ni  Ni287  1  0.83333333  0.75430472  0.28708583  1.0
  Ni  Ni288  1  0.33333333  0.12924950  0.28741717  1.0
  Ni  Ni289  1  0.33333333  0.46258283  0.28741717  1.0
  Ni  Ni290  1  0.33333333  0.79591617  0.28741717  1.0
  Ni  Ni291  1  0.66666667  0.12924950  0.28741717  1.0
  Ni  Ni292  1  0.66666667  0.46258283  0.28741717  1.0
  Ni  Ni293  1  0.66666667  0.79591617  0.28741717  1.0
  Ni  Ni294  1  0.00000000  0.12924950  0.28741717  1.0
  Ni  Ni295  1  0.00000000  0.46258283  0.28741717  1.0
  Ni  Ni296  1  0.00000000  0.79591617  0.28741717  1.0
  Ni  Ni297  1  0.16666667  0.01258283  0.23741717  1.0
  Ni  Ni298  1  0.16666667  0.34591617  0.23741717  1.0
  Ni  Ni299  1  0.16666667  0.67924950  0.23741717  1.0
  Ni  Ni300  1  0.50000000  0.01258283  0.23741717  1.0
  Ni  Ni301  1  0.50000000  0.34591617  0.23741717  1.0
  Ni  Ni302  1  0.50000000  0.67924950  0.23741717  1.0
  Ni  Ni303  1  0.83333333  0.01258283  0.23741717  1.0
  Ni  Ni304  1  0.83333333  0.34591617  0.23741717  1.0
  Ni  Ni305  1  0.83333333  0.67924950  0.23741717  1.0
  Ni  Ni306  1  0.00000000  0.25397339  0.28741717  1.0
  Ni  Ni307  1  0.00000000  0.58730672  0.28741717  1.0
  Ni  Ni308  1  0.00000000  0.92064006  0.28741717  1.0
  Ni  Ni309  1  0.33333333  0.25397339  0.28741717  1.0
  Ni  Ni310  1  0.33333333  0.58730672  0.28741717  1.0
  Ni  Ni311  1  0.33333333  0.92064006  0.28741717  1.0
  Ni  Ni312  1  0.66666667  0.25397339  0.28741717  1.0
  Ni  Ni313  1  0.66666667  0.58730672  0.28741717  1.0
  Ni  Ni314  1  0.66666667  0.92064006  0.28741717  1.0
  Ni  Ni315  1  0.16666667  0.13730672  0.23741717  1.0
  Ni  Ni316  1  0.16666667  0.47064006  0.23741717  1.0
  Ni  Ni317  1  0.16666667  0.80397339  0.23741717  1.0
  Ni  Ni318  1  0.50000000  0.13730672  0.23741717  1.0
  Ni  Ni319  1  0.50000000  0.47064006  0.23741717  1.0
  Ni  Ni320  1  0.50000000  0.80397339  0.23741717  1.0
  Ni  Ni321  1  0.83333333  0.13730672  0.23741717  1.0
  Ni  Ni322  1  0.83333333  0.47064006  0.23741717  1.0
  Ni  Ni323  1  0.83333333  0.80397339  0.23741717  1.0
  Ni  Ni324  1  0.25055222  0.19602661  0.26258283  1.0
  Ni  Ni325  1  0.25055222  0.52935995  0.26258283  1.0
  Ni  Ni326  1  0.25055222  0.86269328  0.26258283  1.0
  Ni  Ni327  1  0.58388556  0.19602661  0.26258283  1.0
  Ni  Ni328  1  0.58388556  0.52935995  0.26258283  1.0
  Ni  Ni329  1  0.58388555  0.86269328  0.26258283  1.0
  Ni  Ni330  1  0.91721889  0.19602661  0.26258283  1.0
  Ni  Ni331  1  0.91721889  0.52935995  0.26258283  1.0
  Ni  Ni332  1  0.91721889  0.86269328  0.26258283  1.0
  Ni  Ni333  1  0.08388555  0.07935995  0.21258283  1.0
  Ni  Ni334  1  0.08388555  0.41269328  0.21258283  1.0
  Ni  Ni335  1  0.08388555  0.74602661  0.21258283  1.0
  Ni  Ni336  1  0.41721889  0.07935995  0.21258283  1.0
  Ni  Ni337  1  0.41721889  0.41269328  0.21258283  1.0
  Ni  Ni338  1  0.41721889  0.74602661  0.21258283  1.0
  Ni  Ni339  1  0.75055222  0.07935995  0.21258283  1.0
  Ni  Ni340  1  0.75055222  0.41269328  0.21258283  1.0
  Ni  Ni341  1  0.75055222  0.74602661  0.21258283  1.0
  Ni  Ni342  1  0.08278111  0.09602661  0.36258283  1.0
  Ni  Ni343  1  0.08278111  0.42935995  0.36258283  1.0
  Ni  Ni344  1  0.08278111  0.76269328  0.36258283  1.0
  Ni  Ni345  1  0.41611444  0.09602661  0.36258283  1.0
  Ni  Ni346  1  0.41611444  0.42935995  0.36258283  1.0
  Ni  Ni347  1  0.41611444  0.76269328  0.36258283  1.0
  Ni  Ni348  1  0.74944778  0.09602661  0.36258283  1.0
  Ni  Ni349  1  0.74944778  0.42935995  0.36258283  1.0
  Ni  Ni350  1  0.74944778  0.76269328  0.36258283  1.0
  Ni  Ni351  1  0.24944778  0.31269328  0.31258283  1.0
  Ni  Ni352  1  0.24944778  0.64602661  0.31258283  1.0
  Ni  Ni353  1  0.24944778  0.97935995  0.31258283  1.0
  Ni  Ni354  1  0.58278111  0.31269328  0.31258283  1.0
  Ni  Ni355  1  0.58278111  0.64602661  0.31258283  1.0
  Ni  Ni356  1  0.58278111  0.97935995  0.31258283  1.0
  Ni  Ni357  1  0.91611445  0.31269328  0.31258283  1.0
  Ni  Ni358  1  0.91611444  0.64602661  0.31258283  1.0
  Ni  Ni359  1  0.91611444  0.97935995  0.31258283  1.0
  Ni  Ni360  1  0.00000000  0.20430472  0.33708583  1.0
  Ni  Ni361  1  0.00000000  0.53763806  0.33708583  1.0
  Ni  Ni362  1  0.00000000  0.87097139  0.33708583  1.0
  Ni  Ni363  1  0.33333333  0.20430472  0.33708583  1.0
  Ni  Ni364  1  0.33333333  0.53763806  0.33708583  1.0
  Ni  Ni365  1  0.33333333  0.87097139  0.33708583  1.0
  Ni  Ni366  1  0.66666667  0.20430472  0.33708583  1.0
  Ni  Ni367  1  0.66666667  0.53763806  0.33708583  1.0
  Ni  Ni368  1  0.66666667  0.87097139  0.33708583  1.0
  Ni  Ni369  1  0.16666667  0.32097139  0.38708583  1.0
  Ni  Ni370  1  0.16666667  0.65430472  0.38708583  1.0
  Ni  Ni371  1  0.16666667  0.98763806  0.38708583  1.0
  Ni  Ni372  1  0.50000000  0.32097139  0.38708583  1.0
  Ni  Ni373  1  0.50000000  0.65430472  0.38708583  1.0
  Ni  Ni374  1  0.50000000  0.98763806  0.38708583  1.0
  Ni  Ni375  1  0.83333333  0.32097139  0.38708583  1.0
  Ni  Ni376  1  0.83333333  0.65430472  0.38708583  1.0
  Ni  Ni377  1  0.83333333  0.98763806  0.38708583  1.0
  Ni  Ni378  1  0.33333333  0.02924950  0.38741717  1.0
  Ni  Ni379  1  0.33333333  0.36258283  0.38741717  1.0
  Ni  Ni380  1  0.33333333  0.69591617  0.38741717  1.0
  Ni  Ni381  1  0.66666667  0.02924950  0.38741717  1.0
  Ni  Ni382  1  0.66666667  0.36258283  0.38741717  1.0
  Ni  Ni383  1  0.66666667  0.69591617  0.38741717  1.0
  Ni  Ni384  1  1.00000000  0.02924950  0.38741717  1.0
  Ni  Ni385  1  1.00000000  0.36258283  0.38741717  1.0
  Ni  Ni386  1  1.00000000  0.69591617  0.38741717  1.0
  Ni  Ni387  1  0.16666667  0.24591617  0.33741717  1.0
  Ni  Ni388  1  0.16666667  0.57924950  0.33741717  1.0
  Ni  Ni389  1  0.16666667  0.91258283  0.33741717  1.0
  Ni  Ni390  1  0.50000000  0.24591617  0.33741717  1.0
  Ni  Ni391  1  0.50000000  0.57924950  0.33741717  1.0
  Ni  Ni392  1  0.50000000  0.91258283  0.33741717  1.0
  Ni  Ni393  1  0.83333333  0.24591617  0.33741717  1.0
  Ni  Ni394  1  0.83333333  0.57924950  0.33741717  1.0
  Ni  Ni395  1  0.83333333  0.91258283  0.33741717  1.0
  Ni  Ni396  1  0.33333333  0.15397339  0.38741717  1.0
  Ni  Ni397  1  0.33333333  0.48730672  0.38741717  1.0
  Ni  Ni398  1  0.33333333  0.82064006  0.38741717  1.0
  Ni  Ni399  1  0.66666667  0.15397339  0.38741717  1.0
  Ni  Ni400  1  0.66666667  0.48730672  0.38741717  1.0
  Ni  Ni401  1  0.66666667  0.82064006  0.38741717  1.0
  Ni  Ni402  1  0.00000000  0.15397339  0.38741717  1.0
  Ni  Ni403  1  0.00000000  0.48730672  0.38741717  1.0
  Ni  Ni404  1  0.00000000  0.82064006  0.38741717  1.0
  Ni  Ni405  1  0.16666667  0.03730672  0.33741717  1.0
  Ni  Ni406  1  0.16666667  0.37064006  0.33741717  1.0
  Ni  Ni407  1  0.16666667  0.70397339  0.33741717  1.0
  Ni  Ni408  1  0.50000000  0.03730672  0.33741717  1.0
  Ni  Ni409  1  0.50000000  0.37064006  0.33741717  1.0
  Ni  Ni410  1  0.50000000  0.70397339  0.33741717  1.0
  Ni  Ni411  1  0.83333333  0.03730672  0.33741717  1.0
  Ni  Ni412  1  0.83333333  0.37064006  0.33741717  1.0
  Ni  Ni413  1  0.83333333  0.70397339  0.33741717  1.0
  Ni  Ni414  1  0.25055222  0.09602661  0.36258283  1.0
  Ni  Ni415  1  0.25055222  0.42935995  0.36258283  1.0
  Ni  Ni416  1  0.25055222  0.76269328  0.36258283  1.0
  Ni  Ni417  1  0.58388556  0.09602661  0.36258283  1.0
  Ni  Ni418  1  0.58388556  0.42935995  0.36258283  1.0
  Ni  Ni419  1  0.58388555  0.76269328  0.36258283  1.0
  Ni  Ni420  1  0.91721889  0.09602661  0.36258283  1.0
  Ni  Ni421  1  0.91721889  0.42935995  0.36258283  1.0
  Ni  Ni422  1  0.91721889  0.76269328  0.36258283  1.0
  Ni  Ni423  1  0.08388555  0.31269328  0.31258283  1.0
  Ni  Ni424  1  0.08388555  0.64602661  0.31258283  1.0
  Ni  Ni425  1  0.08388555  0.97935995  0.31258283  1.0
  Ni  Ni426  1  0.41721889  0.31269328  0.31258283  1.0
  Ni  Ni427  1  0.41721889  0.64602661  0.31258283  1.0
  Ni  Ni428  1  0.41721889  0.97935995  0.31258283  1.0
  Ni  Ni429  1  0.75055222  0.31269328  0.31258283  1.0
  Ni  Ni430  1  0.75055222  0.64602661  0.31258283  1.0
  Ni  Ni431  1  0.75055222  0.97935995  0.31258283  1.0
