# generated using pymatgen
data_HfNi3
_symmetry_space_group_name_H-M   'P 1'
_cell_length_a   15.80516340
_cell_length_b   26.54105591
_cell_length_c   33.36969088
_cell_angle_alpha   96.91031892
_cell_angle_beta   90.00000000
_cell_angle_gamma   90.00000000
_symmetry_Int_Tables_number   1
_chemical_formula_structural   HfNi3
_chemical_formula_sum   'Hf108 Ni324'
_cell_volume   13896.42237463
_cell_formula_units_Z   108
loop_
 _symmetry_equiv_pos_site_id
 _symmetry_equiv_pos_as_xyz
  1  'x, y, z'
loop_
 _atom_site_type_symbol
 _atom_site_label
 _atom_site_symmetry_multiplicity
 _atom_site_fract_x
 _atom_site_fract_y
 _atom_site_fract_z
 _atom_site_occupancy
  Hf  Hf0  1  0.00000000  0.29647233  0.89180800  1.0
  Hf  Hf1  1  0.00000000  0.62980567  0.89180800  1.0
  Hf  Hf2  1  0.00000000  0.96313900  0.89180800  1.0
  Hf  Hf3  1  0.33333333  0.29647233  0.89180800  1.0
  Hf  Hf4  1  0.33333333  0.62980567  0.89180800  1.0
  Hf  Hf5  1  0.33333333  0.96313900  0.89180800  1.0
  Hf  Hf6  1  0.66666667  0.29647233  0.89180800  1.0
  Hf  Hf7  1  0.66666667  0.62980567  0.89180800  1.0
  Hf  Hf8  1  0.66666667  0.96313900  0.89180800  1.0
  Hf  Hf9  1  0.16666667  0.09647233  0.99180800  1.0
  Hf  Hf10  1  0.16666667  0.42980567  0.99180800  1.0
  Hf  Hf11  1  0.16666667  0.76313900  0.99180800  1.0
  Hf  Hf12  1  0.50000000  0.09647233  0.99180800  1.0
  Hf  Hf13  1  0.50000000  0.42980567  0.99180800  1.0
  Hf  Hf14  1  0.50000000  0.76313900  0.99180800  1.0
  Hf  Hf15  1  0.83333333  0.09647233  0.99180800  1.0
  Hf  Hf16  1  0.83333333  0.42980567  0.99180800  1.0
  Hf  Hf17  1  0.83333333  0.76313900  0.99180800  1.0
  Hf  Hf18  1  0.00000000  0.10066233  0.91678800  1.0
  Hf  Hf19  1  0.00000000  0.43399567  0.91678800  1.0
  Hf  Hf20  1  0.00000000  0.76732900  0.91678800  1.0
  Hf  Hf21  1  0.33333333  0.10066233  0.91678800  1.0
  Hf  Hf22  1  0.33333333  0.43399567  0.91678800  1.0
  Hf  Hf23  1  0.33333333  0.76732900  0.91678800  1.0
  Hf  Hf24  1  0.66666667  0.10066233  0.91678800  1.0
  Hf  Hf25  1  0.66666667  0.43399567  0.91678800  1.0
  Hf  Hf26  1  0.66666667  0.76732900  0.91678800  1.0
  Hf  Hf27  1  0.16666667  0.30066233  0.81678800  1.0
  Hf  Hf28  1  0.16666667  0.63399567  0.81678800  1.0
  Hf  Hf29  1  0.16666667  0.96732900  0.81678800  1.0
  Hf  Hf30  1  0.50000000  0.30066233  0.81678800  1.0
  Hf  Hf31  1  0.50000000  0.63399567  0.81678800  1.0
  Hf  Hf32  1  0.50000000  0.96732900  0.81678800  1.0
  Hf  Hf33  1  0.83333333  0.30066233  0.81678800  1.0
  Hf  Hf34  1  0.83333333  0.63399567  0.81678800  1.0
  Hf  Hf35  1  0.83333333  0.96732900  0.81678800  1.0
  Hf  Hf36  1  0.33333333  0.06523400  0.80429800  1.0
  Hf  Hf37  1  0.33333333  0.39856733  0.80429800  1.0
  Hf  Hf38  1  0.33333333  0.73190067  0.80429800  1.0
  Hf  Hf39  1  0.66666667  0.06523400  0.80429800  1.0
  Hf  Hf40  1  0.66666667  0.39856733  0.80429800  1.0
  Hf  Hf41  1  0.66666667  0.73190067  0.80429800  1.0
  Hf  Hf42  1  1.00000000  0.06523400  0.80429800  1.0
  Hf  Hf43  1  0.00000000  0.39856733  0.80429800  1.0
  Hf  Hf44  1  0.00000000  0.73190067  0.80429800  1.0
  Hf  Hf45  1  0.16666667  0.19856733  0.90429800  1.0
  Hf  Hf46  1  0.16666667  0.53190067  0.90429800  1.0
  Hf  Hf47  1  0.16666667  0.86523400  0.90429800  1.0
  Hf  Hf48  1  0.50000000  0.19856733  0.90429800  1.0
  Hf  Hf49  1  0.50000000  0.53190067  0.90429800  1.0
  Hf  Hf50  1  0.50000000  0.86523400  0.90429800  1.0
  Hf  Hf51  1  0.83333333  0.19856733  0.90429800  1.0
  Hf  Hf52  1  0.83333333  0.53190067  0.90429800  1.0
  Hf  Hf53  1  0.83333333  0.86523400  0.90429800  1.0
  Hf  Hf54  1  0.33333333  0.02980567  0.69180800  1.0
  Hf  Hf55  1  0.33333333  0.36313900  0.69180800  1.0
  Hf  Hf56  1  0.33333333  0.69647233  0.69180800  1.0
  Hf  Hf57  1  0.66666667  0.02980567  0.69180800  1.0
  Hf  Hf58  1  0.66666667  0.36313900  0.69180800  1.0
  Hf  Hf59  1  0.66666667  0.69647233  0.69180800  1.0
  Hf  Hf60  1  1.00000000  0.02980567  0.69180800  1.0
  Hf  Hf61  1  1.00000000  0.36313900  0.69180800  1.0
  Hf  Hf62  1  1.00000000  0.69647233  0.69180800  1.0
  Hf  Hf63  1  0.16666667  0.16313900  0.79180800  1.0
  Hf  Hf64  1  0.16666667  0.49647233  0.79180800  1.0
  Hf  Hf65  1  0.16666667  0.82980567  0.79180800  1.0
  Hf  Hf66  1  0.50000000  0.16313900  0.79180800  1.0
  Hf  Hf67  1  0.50000000  0.49647233  0.79180800  1.0
  Hf  Hf68  1  0.50000000  0.82980567  0.79180800  1.0
  Hf  Hf69  1  0.83333333  0.16313900  0.79180800  1.0
  Hf  Hf70  1  0.83333333  0.49647233  0.79180800  1.0
  Hf  Hf71  1  0.83333333  0.82980567  0.79180800  1.0
  Hf  Hf72  1  0.33333333  0.16732900  0.71678800  1.0
  Hf  Hf73  1  0.33333333  0.50066233  0.71678800  1.0
  Hf  Hf74  1  0.33333333  0.83399567  0.71678800  1.0
  Hf  Hf75  1  0.66666667  0.16732900  0.71678800  1.0
  Hf  Hf76  1  0.66666667  0.50066233  0.71678800  1.0
  Hf  Hf77  1  0.66666667  0.83399567  0.71678800  1.0
  Hf  Hf78  1  1.00000000  0.16732900  0.71678800  1.0
  Hf  Hf79  1  1.00000000  0.50066233  0.71678800  1.0
  Hf  Hf80  1  1.00000000  0.83399567  0.71678800  1.0
  Hf  Hf81  1  0.16666667  0.03399567  0.61678800  1.0
  Hf  Hf82  1  0.16666667  0.36732900  0.61678800  1.0
  Hf  Hf83  1  0.16666667  0.70066233  0.61678800  1.0
  Hf  Hf84  1  0.50000000  0.03399567  0.61678800  1.0
  Hf  Hf85  1  0.50000000  0.36732900  0.61678800  1.0
  Hf  Hf86  1  0.50000000  0.70066233  0.61678800  1.0
  Hf  Hf87  1  0.83333333  0.03399567  0.61678800  1.0
  Hf  Hf88  1  0.83333333  0.36732900  0.61678800  1.0
  Hf  Hf89  1  0.83333333  0.70066233  0.61678800  1.0
  Hf  Hf90  1  0.33333333  0.13190067  0.60429800  1.0
  Hf  Hf91  1  0.33333333  0.46523400  0.60429800  1.0
  Hf  Hf92  1  0.33333333  0.79856733  0.60429800  1.0
  Hf  Hf93  1  0.66666667  0.13190067  0.60429800  1.0
  Hf  Hf94  1  0.66666667  0.46523400  0.60429800  1.0
  Hf  Hf95  1  0.66666667  0.79856733  0.60429800  1.0
  Hf  Hf96  1  1.00000000  0.13190067  0.60429800  1.0
  Hf  Hf97  1  1.00000000  0.46523400  0.60429800  1.0
  Hf  Hf98  1  1.00000000  0.79856733  0.60429800  1.0
  Hf  Hf99  1  0.16666667  0.26523400  0.70429800  1.0
  Hf  Hf100  1  0.16666667  0.59856733  0.70429800  1.0
  Hf  Hf101  1  0.16666667  0.93190067  0.70429800  1.0
  Hf  Hf102  1  0.50000000  0.26523400  0.70429800  1.0
  Hf  Hf103  1  0.50000000  0.59856733  0.70429800  1.0
  Hf  Hf104  1  0.50000000  0.93190067  0.70429800  1.0
  Hf  Hf105  1  0.83333333  0.26523400  0.70429800  1.0
  Hf  Hf106  1  0.83333333  0.59856733  0.70429800  1.0
  Hf  Hf107  1  0.83333333  0.93190067  0.70429800  1.0
  Ni  Ni108  1  0.07808100  0.17082153  0.96604540  1.0
  Ni  Ni109  1  0.07808100  0.50415487  0.96604540  1.0
  Ni  Ni110  1  0.07808100  0.83748820  0.96604540  1.0
  Ni  Ni111  1  0.41141433  0.17082153  0.96604540  1.0
  Ni  Ni112  1  0.41141433  0.50415487  0.96604540  1.0
  Ni  Ni113  1  0.41141433  0.83748820  0.96604540  1.0
  Ni  Ni114  1  0.74474767  0.17082153  0.96604540  1.0
  Ni  Ni115  1  0.74474767  0.50415487  0.96604540  1.0
  Ni  Ni116  1  0.74474767  0.83748820  0.96604540  1.0
  Ni  Ni117  1  0.24474767  0.03748820  0.86604540  1.0
  Ni  Ni118  1  0.24474767  0.37082153  0.86604540  1.0
  Ni  Ni119  1  0.24474767  0.70415487  0.86604540  1.0
  Ni  Ni120  1  0.57808100  0.03748820  0.86604540  1.0
  Ni  Ni121  1  0.57808100  0.37082153  0.86604540  1.0
  Ni  Ni122  1  0.57808100  0.70415487  0.86604540  1.0
  Ni  Ni123  1  0.91141433  0.03748820  0.86604540  1.0
  Ni  Ni124  1  0.91141433  0.37082153  0.86604540  1.0
  Ni  Ni125  1  0.91141433  0.70415487  0.86604540  1.0
  Ni  Ni126  1  0.00000000  0.29995300  0.81289400  1.0
  Ni  Ni127  1  0.00000000  0.63328633  0.81289400  1.0
  Ni  Ni128  1  0.00000000  0.96661967  0.81289400  1.0
  Ni  Ni129  1  0.33333333  0.29995300  0.81289400  1.0
  Ni  Ni130  1  0.33333333  0.63328633  0.81289400  1.0
  Ni  Ni131  1  0.33333333  0.96661967  0.81289400  1.0
  Ni  Ni132  1  0.66666667  0.29995300  0.81289400  1.0
  Ni  Ni133  1  0.66666667  0.63328633  0.81289400  1.0
  Ni  Ni134  1  0.66666667  0.96661967  0.81289400  1.0
  Ni  Ni135  1  0.16666667  0.09995300  0.91289400  1.0
  Ni  Ni136  1  0.16666667  0.43328633  0.91289400  1.0
  Ni  Ni137  1  0.16666667  0.76661967  0.91289400  1.0
  Ni  Ni138  1  0.50000000  0.09995300  0.91289400  1.0
  Ni  Ni139  1  0.50000000  0.43328633  0.91289400  1.0
  Ni  Ni140  1  0.50000000  0.76661967  0.91289400  1.0
  Ni  Ni141  1  0.83333333  0.09995300  0.91289400  1.0
  Ni  Ni142  1  0.83333333  0.43328633  0.91289400  1.0
  Ni  Ni143  1  0.83333333  0.76661967  0.91289400  1.0
  Ni  Ni144  1  0.25525233  0.17082153  0.96604540  1.0
  Ni  Ni145  1  0.25525233  0.50415487  0.96604540  1.0
  Ni  Ni146  1  0.25525233  0.83748820  0.96604540  1.0
  Ni  Ni147  1  0.58858567  0.17082153  0.96604540  1.0
  Ni  Ni148  1  0.58858567  0.50415487  0.96604540  1.0
  Ni  Ni149  1  0.58858567  0.83748820  0.96604540  1.0
  Ni  Ni150  1  0.92191900  0.17082153  0.96604540  1.0
  Ni  Ni151  1  0.92191900  0.50415487  0.96604540  1.0
  Ni  Ni152  1  0.92191900  0.83748820  0.96604540  1.0
  Ni  Ni153  1  0.08858567  0.03748820  0.86604540  1.0
  Ni  Ni154  1  0.08858567  0.37082153  0.86604540  1.0
  Ni  Ni155  1  0.08858567  0.70415487  0.86604540  1.0
  Ni  Ni156  1  0.42191900  0.03748820  0.86604540  1.0
  Ni  Ni157  1  0.42191900  0.37082153  0.86604540  1.0
  Ni  Ni158  1  0.42191900  0.70415487  0.86604540  1.0
  Ni  Ni159  1  0.75525233  0.03748820  0.86604540  1.0
  Ni  Ni160  1  0.75525233  0.37082153  0.86604540  1.0
  Ni  Ni161  1  0.75525233  0.70415487  0.86604540  1.0
  Ni  Ni162  1  0.25000000  0.13190067  0.85429800  1.0
  Ni  Ni163  1  0.25000000  0.46523400  0.85429800  1.0
  Ni  Ni164  1  0.25000000  0.79856733  0.85429800  1.0
  Ni  Ni165  1  0.58333333  0.13190067  0.85429800  1.0
  Ni  Ni166  1  0.58333333  0.46523400  0.85429800  1.0
  Ni  Ni167  1  0.58333333  0.79856733  0.85429800  1.0
  Ni  Ni168  1  0.91666667  0.13190067  0.85429800  1.0
  Ni  Ni169  1  0.91666667  0.46523400  0.85429800  1.0
  Ni  Ni170  1  0.91666667  0.79856733  0.85429800  1.0
  Ni  Ni171  1  0.08333333  0.26523400  0.95429800  1.0
  Ni  Ni172  1  0.08333333  0.59856733  0.95429800  1.0
  Ni  Ni173  1  0.08333333  0.93190067  0.95429800  1.0
  Ni  Ni174  1  0.41666667  0.26523400  0.95429800  1.0
  Ni  Ni175  1  0.41666667  0.59856733  0.95429800  1.0
  Ni  Ni176  1  0.41666667  0.93190067  0.95429800  1.0
  Ni  Ni177  1  0.75000000  0.26523400  0.95429800  1.0
  Ni  Ni178  1  0.75000000  0.59856733  0.95429800  1.0
  Ni  Ni179  1  0.75000000  0.93190067  0.95429800  1.0
  Ni  Ni180  1  0.33333333  0.19856733  0.90429800  1.0
  Ni  Ni181  1  0.33333333  0.53190067  0.90429800  1.0
  Ni  Ni182  1  0.33333333  0.86523400  0.90429800  1.0
  Ni  Ni183  1  0.66666667  0.19856733  0.90429800  1.0
  Ni  Ni184  1  0.66666667  0.53190067  0.90429800  1.0
  Ni  Ni185  1  0.66666667  0.86523400  0.90429800  1.0
  Ni  Ni186  1  1.00000000  0.19856733  0.90429800  1.0
  Ni  Ni187  1  1.00000000  0.53190067  0.90429800  1.0
  Ni  Ni188  1  1.00000000  0.86523400  0.90429800  1.0
  Ni  Ni189  1  0.16666667  0.06523400  0.80429800  1.0
  Ni  Ni190  1  0.16666667  0.39856733  0.80429800  1.0
  Ni  Ni191  1  0.16666667  0.73190067  0.80429800  1.0
  Ni  Ni192  1  0.50000000  0.06523400  0.80429800  1.0
  Ni  Ni193  1  0.50000000  0.39856733  0.80429800  1.0
  Ni  Ni194  1  0.50000000  0.73190067  0.80429800  1.0
  Ni  Ni195  1  0.83333333  0.06523400  0.80429800  1.0
  Ni  Ni196  1  0.83333333  0.39856733  0.80429800  1.0
  Ni  Ni197  1  0.83333333  0.73190067  0.80429800  1.0
  Ni  Ni198  1  0.08333333  0.13190067  0.85429800  1.0
  Ni  Ni199  1  0.08333333  0.46523400  0.85429800  1.0
  Ni  Ni200  1  0.08333333  0.79856733  0.85429800  1.0
  Ni  Ni201  1  0.41666667  0.13190067  0.85429800  1.0
  Ni  Ni202  1  0.41666667  0.46523400  0.85429800  1.0
  Ni  Ni203  1  0.41666667  0.79856733  0.85429800  1.0
  Ni  Ni204  1  0.75000000  0.13190067  0.85429800  1.0
  Ni  Ni205  1  0.75000000  0.46523400  0.85429800  1.0
  Ni  Ni206  1  0.75000000  0.79856733  0.85429800  1.0
  Ni  Ni207  1  0.25000000  0.26523400  0.95429800  1.0
  Ni  Ni208  1  0.25000000  0.59856733  0.95429800  1.0
  Ni  Ni209  1  0.25000000  0.93190067  0.95429800  1.0
  Ni  Ni210  1  0.58333333  0.26523400  0.95429800  1.0
  Ni  Ni211  1  0.58333333  0.59856733  0.95429800  1.0
  Ni  Ni212  1  0.58333333  0.93190067  0.95429800  1.0
  Ni  Ni213  1  0.91666667  0.26523400  0.95429800  1.0
  Ni  Ni214  1  0.91666667  0.59856733  0.95429800  1.0
  Ni  Ni215  1  0.91666667  0.93190067  0.95429800  1.0
  Ni  Ni216  1  0.07808100  0.22631313  0.84255060  1.0
  Ni  Ni217  1  0.07808100  0.55964647  0.84255060  1.0
  Ni  Ni218  1  0.07808100  0.89297980  0.84255060  1.0
  Ni  Ni219  1  0.41141433  0.22631313  0.84255060  1.0
  Ni  Ni220  1  0.41141433  0.55964647  0.84255060  1.0
  Ni  Ni221  1  0.41141433  0.89297980  0.84255060  1.0
  Ni  Ni222  1  0.74474767  0.22631313  0.84255060  1.0
  Ni  Ni223  1  0.74474767  0.55964647  0.84255060  1.0
  Ni  Ni224  1  0.74474767  0.89297980  0.84255060  1.0
  Ni  Ni225  1  0.24474767  0.02631313  0.94255060  1.0
  Ni  Ni226  1  0.24474767  0.35964647  0.94255060  1.0
  Ni  Ni227  1  0.24474767  0.69297980  0.94255060  1.0
  Ni  Ni228  1  0.57808100  0.02631313  0.94255060  1.0
  Ni  Ni229  1  0.57808100  0.35964647  0.94255060  1.0
  Ni  Ni230  1  0.57808100  0.69297980  0.94255060  1.0
  Ni  Ni231  1  0.91141433  0.02631313  0.94255060  1.0
  Ni  Ni232  1  0.91141433  0.35964647  0.94255060  1.0
  Ni  Ni233  1  0.91141433  0.69297980  0.94255060  1.0
  Ni  Ni234  1  0.33333333  0.09718167  0.99570200  1.0
  Ni  Ni235  1  0.33333333  0.43051500  0.99570200  1.0
  Ni  Ni236  1  0.33333333  0.76384833  0.99570200  1.0
  Ni  Ni237  1  0.66666667  0.09718167  0.99570200  1.0
  Ni  Ni238  1  0.66666667  0.43051500  0.99570200  1.0
  Ni  Ni239  1  0.66666667  0.76384833  0.99570200  1.0
  Ni  Ni240  1  1.00000000  0.09718167  0.99570200  1.0
  Ni  Ni241  1  0.00000000  0.43051500  0.99570200  1.0
  Ni  Ni242  1  0.00000000  0.76384833  0.99570200  1.0
  Ni  Ni243  1  0.16666667  0.29718167  0.89570200  1.0
  Ni  Ni244  1  0.16666667  0.63051500  0.89570200  1.0
  Ni  Ni245  1  0.16666667  0.96384833  0.89570200  1.0
  Ni  Ni246  1  0.50000000  0.29718167  0.89570200  1.0
  Ni  Ni247  1  0.50000000  0.63051500  0.89570200  1.0
  Ni  Ni248  1  0.50000000  0.96384833  0.89570200  1.0
  Ni  Ni249  1  0.83333333  0.29718167  0.89570200  1.0
  Ni  Ni250  1  0.83333333  0.63051500  0.89570200  1.0
  Ni  Ni251  1  0.83333333  0.96384833  0.89570200  1.0
  Ni  Ni252  1  0.25525233  0.22631313  0.84255060  1.0
  Ni  Ni253  1  0.25525233  0.55964647  0.84255060  1.0
  Ni  Ni254  1  0.25525233  0.89297980  0.84255060  1.0
  Ni  Ni255  1  0.58858567  0.22631313  0.84255060  1.0
  Ni  Ni256  1  0.58858567  0.55964647  0.84255060  1.0
  Ni  Ni257  1  0.58858567  0.89297980  0.84255060  1.0
  Ni  Ni258  1  0.92191900  0.22631313  0.84255060  1.0
  Ni  Ni259  1  0.92191900  0.55964647  0.84255060  1.0
  Ni  Ni260  1  0.92191900  0.89297980  0.84255060  1.0
  Ni  Ni261  1  0.08858567  0.02631313  0.94255060  1.0
  Ni  Ni262  1  0.08858567  0.35964647  0.94255060  1.0
  Ni  Ni263  1  0.08858567  0.69297980  0.94255060  1.0
  Ni  Ni264  1  0.42191900  0.02631313  0.94255060  1.0
  Ni  Ni265  1  0.42191900  0.35964647  0.94255060  1.0
  Ni  Ni266  1  0.42191900  0.69297980  0.94255060  1.0
  Ni  Ni267  1  0.75525233  0.02631313  0.94255060  1.0
  Ni  Ni268  1  0.75525233  0.35964647  0.94255060  1.0
  Ni  Ni269  1  0.75525233  0.69297980  0.94255060  1.0
  Ni  Ni270  1  0.07808100  0.23748820  0.76604540  1.0
  Ni  Ni271  1  0.07808100  0.57082153  0.76604540  1.0
  Ni  Ni272  1  0.07808100  0.90415487  0.76604540  1.0
  Ni  Ni273  1  0.41141433  0.23748820  0.76604540  1.0
  Ni  Ni274  1  0.41141433  0.57082153  0.76604540  1.0
  Ni  Ni275  1  0.41141433  0.90415487  0.76604540  1.0
  Ni  Ni276  1  0.74474767  0.23748820  0.76604540  1.0
  Ni  Ni277  1  0.74474767  0.57082153  0.76604540  1.0
  Ni  Ni278  1  0.74474767  0.90415487  0.76604540  1.0
  Ni  Ni279  1  0.24474767  0.10415487  0.66604540  1.0
  Ni  Ni280  1  0.24474767  0.43748820  0.66604540  1.0
  Ni  Ni281  1  0.24474767  0.77082153  0.66604540  1.0
  Ni  Ni282  1  0.57808100  0.10415487  0.66604540  1.0
  Ni  Ni283  1  0.57808100  0.43748820  0.66604540  1.0
  Ni  Ni284  1  0.57808100  0.77082153  0.66604540  1.0
  Ni  Ni285  1  0.91141433  0.10415487  0.66604540  1.0
  Ni  Ni286  1  0.91141433  0.43748820  0.66604540  1.0
  Ni  Ni287  1  0.91141433  0.77082153  0.66604540  1.0
  Ni  Ni288  1  0.00000000  0.03328633  0.61289400  1.0
  Ni  Ni289  1  0.00000000  0.36661967  0.61289400  1.0
  Ni  Ni290  1  0.00000000  0.69995300  0.61289400  1.0
  Ni  Ni291  1  0.33333333  0.03328633  0.61289400  1.0
  Ni  Ni292  1  0.33333333  0.36661967  0.61289400  1.0
  Ni  Ni293  1  0.33333333  0.69995300  0.61289400  1.0
  Ni  Ni294  1  0.66666667  0.03328633  0.61289400  1.0
  Ni  Ni295  1  0.66666667  0.36661967  0.61289400  1.0
  Ni  Ni296  1  0.66666667  0.69995300  0.61289400  1.0
  Ni  Ni297  1  0.16666667  0.16661967  0.71289400  1.0
  Ni  Ni298  1  0.16666667  0.49995300  0.71289400  1.0
  Ni  Ni299  1  0.16666667  0.83328633  0.71289400  1.0
  Ni  Ni300  1  0.50000000  0.16661967  0.71289400  1.0
  Ni  Ni301  1  0.50000000  0.49995300  0.71289400  1.0
  Ni  Ni302  1  0.50000000  0.83328633  0.71289400  1.0
  Ni  Ni303  1  0.83333333  0.16661967  0.71289400  1.0
  Ni  Ni304  1  0.83333333  0.49995300  0.71289400  1.0
  Ni  Ni305  1  0.83333333  0.83328633  0.71289400  1.0
  Ni  Ni306  1  0.25525233  0.23748820  0.76604540  1.0
  Ni  Ni307  1  0.25525233  0.57082153  0.76604540  1.0
  Ni  Ni308  1  0.25525233  0.90415487  0.76604540  1.0
  Ni  Ni309  1  0.58858567  0.23748820  0.76604540  1.0
  Ni  Ni310  1  0.58858567  0.57082153  0.76604540  1.0
  Ni  Ni311  1  0.58858567  0.90415487  0.76604540  1.0
  Ni  Ni312  1  0.92191900  0.23748820  0.76604540  1.0
  Ni  Ni313  1  0.92191900  0.57082153  0.76604540  1.0
  Ni  Ni314  1  0.92191900  0.90415487  0.76604540  1.0
  Ni  Ni315  1  0.08858567  0.10415487  0.66604540  1.0
  Ni  Ni316  1  0.08858567  0.43748820  0.66604540  1.0
  Ni  Ni317  1  0.08858567  0.77082153  0.66604540  1.0
  Ni  Ni318  1  0.42191900  0.10415487  0.66604540  1.0
  Ni  Ni319  1  0.42191900  0.43748820  0.66604540  1.0
  Ni  Ni320  1  0.42191900  0.77082153  0.66604540  1.0
  Ni  Ni321  1  0.75525233  0.10415487  0.66604540  1.0
  Ni  Ni322  1  0.75525233  0.43748820  0.66604540  1.0
  Ni  Ni323  1  0.75525233  0.77082153  0.66604540  1.0
  Ni  Ni324  1  0.25000000  0.19856733  0.65429800  1.0
  Ni  Ni325  1  0.25000000  0.53190067  0.65429800  1.0
  Ni  Ni326  1  0.25000000  0.86523400  0.65429800  1.0
  Ni  Ni327  1  0.58333333  0.19856733  0.65429800  1.0
  Ni  Ni328  1  0.58333333  0.53190067  0.65429800  1.0
  Ni  Ni329  1  0.58333333  0.86523400  0.65429800  1.0
  Ni  Ni330  1  0.91666667  0.19856733  0.65429800  1.0
  Ni  Ni331  1  0.91666667  0.53190067  0.65429800  1.0
  Ni  Ni332  1  0.91666667  0.86523400  0.65429800  1.0
  Ni  Ni333  1  0.08333333  0.33190067  0.75429800  1.0
  Ni  Ni334  1  0.08333333  0.66523400  0.75429800  1.0
  Ni  Ni335  1  0.08333333  0.99856733  0.75429800  1.0
  Ni  Ni336  1  0.41666667  0.33190067  0.75429800  1.0
  Ni  Ni337  1  0.41666667  0.66523400  0.75429800  1.0
  Ni  Ni338  1  0.41666667  0.99856733  0.75429800  1.0
  Ni  Ni339  1  0.75000000  0.33190067  0.75429800  1.0
  Ni  Ni340  1  0.75000000  0.66523400  0.75429800  1.0
  Ni  Ni341  1  0.75000000  0.99856733  0.75429800  1.0
  Ni  Ni342  1  0.33333333  0.26523400  0.70429800  1.0
  Ni  Ni343  1  0.33333333  0.59856733  0.70429800  1.0
  Ni  Ni344  1  0.33333333  0.93190067  0.70429800  1.0
  Ni  Ni345  1  0.66666667  0.26523400  0.70429800  1.0
  Ni  Ni346  1  0.66666667  0.59856733  0.70429800  1.0
  Ni  Ni347  1  0.66666667  0.93190067  0.70429800  1.0
  Ni  Ni348  1  1.00000000  0.26523400  0.70429800  1.0
  Ni  Ni349  1  1.00000000  0.59856733  0.70429800  1.0
  Ni  Ni350  1  1.00000000  0.93190067  0.70429800  1.0
  Ni  Ni351  1  0.16666667  0.13190067  0.60429800  1.0
  Ni  Ni352  1  0.16666667  0.46523400  0.60429800  1.0
  Ni  Ni353  1  0.16666667  0.79856733  0.60429800  1.0
  Ni  Ni354  1  0.50000000  0.13190067  0.60429800  1.0
  Ni  Ni355  1  0.50000000  0.46523400  0.60429800  1.0
  Ni  Ni356  1  0.50000000  0.79856733  0.60429800  1.0
  Ni  Ni357  1  0.83333333  0.13190067  0.60429800  1.0
  Ni  Ni358  1  0.83333333  0.46523400  0.60429800  1.0
  Ni  Ni359  1  0.83333333  0.79856733  0.60429800  1.0
  Ni  Ni360  1  0.08333333  0.19856733  0.65429800  1.0
  Ni  Ni361  1  0.08333333  0.53190067  0.65429800  1.0
  Ni  Ni362  1  0.08333333  0.86523400  0.65429800  1.0
  Ni  Ni363  1  0.41666667  0.19856733  0.65429800  1.0
  Ni  Ni364  1  0.41666667  0.53190067  0.65429800  1.0
  Ni  Ni365  1  0.41666667  0.86523400  0.65429800  1.0
  Ni  Ni366  1  0.75000000  0.19856733  0.65429800  1.0
  Ni  Ni367  1  0.75000000  0.53190067  0.65429800  1.0
  Ni  Ni368  1  0.75000000  0.86523400  0.65429800  1.0
  Ni  Ni369  1  0.25000000  0.33190067  0.75429800  1.0
  Ni  Ni370  1  0.25000000  0.66523400  0.75429800  1.0
  Ni  Ni371  1  0.25000000  0.99856733  0.75429800  1.0
  Ni  Ni372  1  0.58333333  0.33190067  0.75429800  1.0
  Ni  Ni373  1  0.58333333  0.66523400  0.75429800  1.0
  Ni  Ni374  1  0.58333333  0.99856733  0.75429800  1.0
  Ni  Ni375  1  0.91666667  0.33190067  0.75429800  1.0
  Ni  Ni376  1  0.91666667  0.66523400  0.75429800  1.0
  Ni  Ni377  1  0.91666667  0.99856733  0.75429800  1.0
  Ni  Ni378  1  0.07808100  0.29297980  0.64255060  1.0
  Ni  Ni379  1  0.07808100  0.62631313  0.64255060  1.0
  Ni  Ni380  1  0.07808100  0.95964647  0.64255060  1.0
  Ni  Ni381  1  0.41141433  0.29297980  0.64255060  1.0
  Ni  Ni382  1  0.41141433  0.62631313  0.64255060  1.0
  Ni  Ni383  1  0.41141433  0.95964647  0.64255060  1.0
  Ni  Ni384  1  0.74474767  0.29297980  0.64255060  1.0
  Ni  Ni385  1  0.74474767  0.62631313  0.64255060  1.0
  Ni  Ni386  1  0.74474767  0.95964647  0.64255060  1.0
  Ni  Ni387  1  0.24474767  0.09297980  0.74255060  1.0
  Ni  Ni388  1  0.24474767  0.42631313  0.74255060  1.0
  Ni  Ni389  1  0.24474767  0.75964647  0.74255060  1.0
  Ni  Ni390  1  0.57808100  0.09297980  0.74255060  1.0
  Ni  Ni391  1  0.57808100  0.42631313  0.74255060  1.0
  Ni  Ni392  1  0.57808100  0.75964647  0.74255060  1.0
  Ni  Ni393  1  0.91141433  0.09297980  0.74255060  1.0
  Ni  Ni394  1  0.91141433  0.42631313  0.74255060  1.0
  Ni  Ni395  1  0.91141433  0.75964647  0.74255060  1.0
  Ni  Ni396  1  0.33333333  0.16384833  0.79570200  1.0
  Ni  Ni397  1  0.33333333  0.49718167  0.79570200  1.0
  Ni  Ni398  1  0.33333333  0.83051500  0.79570200  1.0
  Ni  Ni399  1  0.66666667  0.16384833  0.79570200  1.0
  Ni  Ni400  1  0.66666667  0.49718167  0.79570200  1.0
  Ni  Ni401  1  0.66666667  0.83051500  0.79570200  1.0
  Ni  Ni402  1  1.00000000  0.16384833  0.79570200  1.0
  Ni  Ni403  1  1.00000000  0.49718167  0.79570200  1.0
  Ni  Ni404  1  1.00000000  0.83051500  0.79570200  1.0
  Ni  Ni405  1  0.16666667  0.03051500  0.69570200  1.0
  Ni  Ni406  1  0.16666667  0.36384833  0.69570200  1.0
  Ni  Ni407  1  0.16666667  0.69718167  0.69570200  1.0
  Ni  Ni408  1  0.50000000  0.03051500  0.69570200  1.0
  Ni  Ni409  1  0.50000000  0.36384833  0.69570200  1.0
  Ni  Ni410  1  0.50000000  0.69718167  0.69570200  1.0
  Ni  Ni411  1  0.83333333  0.03051500  0.69570200  1.0
  Ni  Ni412  1  0.83333333  0.36384833  0.69570200  1.0
  Ni  Ni413  1  0.83333333  0.69718167  0.69570200  1.0
  Ni  Ni414  1  0.25525233  0.29297980  0.64255060  1.0
  Ni  Ni415  1  0.25525233  0.62631313  0.64255060  1.0
  Ni  Ni416  1  0.25525233  0.95964647  0.64255060  1.0
  Ni  Ni417  1  0.58858567  0.29297980  0.64255060  1.0
  Ni  Ni418  1  0.58858567  0.62631313  0.64255060  1.0
  Ni  Ni419  1  0.58858567  0.95964647  0.64255060  1.0
  Ni  Ni420  1  0.92191900  0.29297980  0.64255060  1.0
  Ni  Ni421  1  0.92191900  0.62631313  0.64255060  1.0
  Ni  Ni422  1  0.92191900  0.95964647  0.64255060  1.0
  Ni  Ni423  1  0.08858567  0.09297980  0.74255060  1.0
  Ni  Ni424  1  0.08858567  0.42631313  0.74255060  1.0
  Ni  Ni425  1  0.08858567  0.75964647  0.74255060  1.0
  Ni  Ni426  1  0.42191900  0.09297980  0.74255060  1.0
  Ni  Ni427  1  0.42191900  0.42631313  0.74255060  1.0
  Ni  Ni428  1  0.42191900  0.75964647  0.74255060  1.0
  Ni  Ni429  1  0.75525233  0.09297980  0.74255060  1.0
  Ni  Ni430  1  0.75525233  0.42631313  0.74255060  1.0
  Ni  Ni431  1  0.75525233  0.75964647  0.74255060  1.0
