# generated using pymatgen
data_HfNi
_symmetry_space_group_name_H-M   'P 1'
_cell_length_a   19.71760950
_cell_length_b   28.97437047
_cell_length_c   27.16069477
_cell_angle_alpha   95.43404309
_cell_angle_beta   92.74383842
_cell_angle_gamma   101.01127556
_symmetry_Int_Tables_number   1
_chemical_formula_structural   HfNi
_chemical_formula_sum   'Hf180 Ni180'
_cell_volume   15128.34140897
_cell_formula_units_Z   180
loop_
 _symmetry_equiv_pos_site_id
 _symmetry_equiv_pos_as_xyz
  1  'x, y, z'
loop_
 _atom_site_type_symbol
 _atom_site_label
 _atom_site_symmetry_multiplicity
 _atom_site_fract_x
 _atom_site_fract_y
 _atom_site_fract_z
 _atom_site_occupancy
  Hf  Hf0  1  0.01575926  0.22402941  0.02344935  1.0
  Hf  Hf1  1  0.01575926  0.55736274  0.02344935  1.0
  Hf  Hf2  1  0.01575926  0.89069608  0.02344935  1.0
  Hf  Hf3  1  0.34909259  0.22402941  0.02344935  1.0
  Hf  Hf4  1  0.34909259  0.55736274  0.02344935  1.0
  Hf  Hf5  1  0.34909259  0.89069608  0.02344935  1.0
  Hf  Hf6  1  0.68242592  0.22402941  0.02344935  1.0
  Hf  Hf7  1  0.68242592  0.55736274  0.02344935  1.0
  Hf  Hf8  1  0.68242592  0.89069608  0.02344935  1.0
  Hf  Hf9  1  0.11832336  0.12146531  0.06191088  1.0
  Hf  Hf10  1  0.11832336  0.45479864  0.06191088  1.0
  Hf  Hf11  1  0.11832336  0.78813197  0.06191088  1.0
  Hf  Hf12  1  0.45165669  0.12146531  0.06191088  1.0
  Hf  Hf13  1  0.45165669  0.45479864  0.06191088  1.0
  Hf  Hf14  1  0.45165669  0.78813197  0.06191088  1.0
  Hf  Hf15  1  0.78499003  0.12146531  0.06191088  1.0
  Hf  Hf16  1  0.78499003  0.45479864  0.06191088  1.0
  Hf  Hf17  1  0.78499003  0.78813197  0.06191088  1.0
  Hf  Hf18  1  0.18936895  0.23750905  0.05347373  1.0
  Hf  Hf19  1  0.18936895  0.57084238  0.05347373  1.0
  Hf  Hf20  1  0.18936895  0.90417572  0.05347373  1.0
  Hf  Hf21  1  0.52270228  0.23750905  0.05347373  1.0
  Hf  Hf22  1  0.52270228  0.57084238  0.05347373  1.0
  Hf  Hf23  1  0.52270228  0.90417572  0.05347373  1.0
  Hf  Hf24  1  0.85603562  0.23750905  0.05347373  1.0
  Hf  Hf25  1  0.85603562  0.57084238  0.05347373  1.0
  Hf  Hf26  1  0.85603562  0.90417572  0.05347373  1.0
  Hf  Hf27  1  0.08680485  0.00673982  0.01501219  1.0
  Hf  Hf28  1  0.08680485  0.34007315  0.01501219  1.0
  Hf  Hf29  1  0.08680485  0.67340649  0.01501219  1.0
  Hf  Hf30  1  0.42013818  0.00673982  0.01501219  1.0
  Hf  Hf31  1  0.42013818  0.34007315  0.01501219  1.0
  Hf  Hf32  1  0.42013818  0.67340649  0.01501219  1.0
  Hf  Hf33  1  0.75347151  0.00673982  0.01501219  1.0
  Hf  Hf34  1  0.75347151  0.34007315  0.01501219  1.0
  Hf  Hf35  1  0.75347151  0.67340649  0.01501219  1.0
  Hf  Hf36  1  0.22088746  0.01890121  0.10037242  1.0
  Hf  Hf37  1  0.22088746  0.35223454  0.10037242  1.0
  Hf  Hf38  1  0.22088746  0.68556787  0.10037242  1.0
  Hf  Hf39  1  0.55422079  0.01890121  0.10037242  1.0
  Hf  Hf40  1  0.55422079  0.35223454  0.10037242  1.0
  Hf  Hf41  1  0.55422079  0.68556787  0.10037242  1.0
  Hf  Hf42  1  0.88755413  0.01890121  0.10037242  1.0
  Hf  Hf43  1  0.88755413  0.35223454  0.10037242  1.0
  Hf  Hf44  1  0.88755413  0.68556787  0.10037242  1.0
  Hf  Hf45  1  0.32345156  0.24967044  0.13883396  1.0
  Hf  Hf46  1  0.32345156  0.58300377  0.13883396  1.0
  Hf  Hf47  1  0.32345156  0.91633710  0.13883396  1.0
  Hf  Hf48  1  0.65678490  0.24967044  0.13883396  1.0
  Hf  Hf49  1  0.65678490  0.58300377  0.13883396  1.0
  Hf  Hf50  1  0.65678490  0.91633710  0.13883396  1.0
  Hf  Hf51  1  0.99011823  0.24967044  0.13883396  1.0
  Hf  Hf52  1  0.99011823  0.58300377  0.13883396  1.0
  Hf  Hf53  1  0.99011823  0.91633710  0.13883396  1.0
  Hf  Hf54  1  0.06116382  0.03238085  0.13039681  1.0
  Hf  Hf55  1  0.06116382  0.36571418  0.13039681  1.0
  Hf  Hf56  1  0.06116382  0.69904751  0.13039681  1.0
  Hf  Hf57  1  0.39449715  0.03238085  0.13039681  1.0
  Hf  Hf58  1  0.39449715  0.36571418  0.13039681  1.0
  Hf  Hf59  1  0.39449715  0.69904751  0.13039681  1.0
  Hf  Hf60  1  0.72783049  0.03238085  0.13039681  1.0
  Hf  Hf61  1  0.72783049  0.36571418  0.13039681  1.0
  Hf  Hf62  1  0.72783049  0.69904751  0.13039681  1.0
  Hf  Hf63  1  0.29193305  0.13494495  0.09193527  1.0
  Hf  Hf64  1  0.29193305  0.46827828  0.09193527  1.0
  Hf  Hf65  1  0.29193305  0.80161162  0.09193527  1.0
  Hf  Hf66  1  0.62526638  0.13494495  0.09193527  1.0
  Hf  Hf67  1  0.62526638  0.46827828  0.09193527  1.0
  Hf  Hf68  1  0.62526638  0.80161162  0.09193527  1.0
  Hf  Hf69  1  0.95859972  0.13494495  0.09193527  1.0
  Hf  Hf70  1  0.95859972  0.46827828  0.09193527  1.0
  Hf  Hf71  1  0.95859972  0.80161162  0.09193527  1.0
  Hf  Hf72  1  0.09268233  0.14710633  0.17729550  1.0
  Hf  Hf73  1  0.09268233  0.48043967  0.17729550  1.0
  Hf  Hf74  1  0.09268233  0.81377300  0.17729550  1.0
  Hf  Hf75  1  0.42601567  0.14710633  0.17729550  1.0
  Hf  Hf76  1  0.42601567  0.48043967  0.17729550  1.0
  Hf  Hf77  1  0.42601567  0.81377300  0.17729550  1.0
  Hf  Hf78  1  0.75934900  0.14710633  0.17729550  1.0
  Hf  Hf79  1  0.75934900  0.48043967  0.17729550  1.0
  Hf  Hf80  1  0.75934900  0.81377300  0.17729550  1.0
  Hf  Hf81  1  0.19524644  0.04454223  0.21575704  1.0
  Hf  Hf82  1  0.19524644  0.37787556  0.21575704  1.0
  Hf  Hf83  1  0.19524644  0.71120890  0.21575704  1.0
  Hf  Hf84  1  0.52857977  0.04454223  0.21575704  1.0
  Hf  Hf85  1  0.52857977  0.37787556  0.21575704  1.0
  Hf  Hf86  1  0.52857977  0.71120890  0.21575704  1.0
  Hf  Hf87  1  0.86191310  0.04454223  0.21575704  1.0
  Hf  Hf88  1  0.86191310  0.37787556  0.21575704  1.0
  Hf  Hf89  1  0.86191310  0.71120890  0.21575704  1.0
  Hf  Hf90  1  0.26629203  0.16058597  0.20731988  1.0
  Hf  Hf91  1  0.26629203  0.49391931  0.20731988  1.0
  Hf  Hf92  1  0.26629203  0.82725264  0.20731988  1.0
  Hf  Hf93  1  0.59962536  0.16058597  0.20731988  1.0
  Hf  Hf94  1  0.59962536  0.49391931  0.20731988  1.0
  Hf  Hf95  1  0.59962536  0.82725264  0.20731988  1.0
  Hf  Hf96  1  0.93295869  0.16058597  0.20731988  1.0
  Hf  Hf97  1  0.93295869  0.49391931  0.20731988  1.0
  Hf  Hf98  1  0.93295869  0.82725264  0.20731988  1.0
  Hf  Hf99  1  0.16372792  0.26315008  0.16885835  1.0
  Hf  Hf100  1  0.16372792  0.59648341  0.16885835  1.0
  Hf  Hf101  1  0.16372792  0.92981674  0.16885835  1.0
  Hf  Hf102  1  0.49706126  0.26315008  0.16885835  1.0
  Hf  Hf103  1  0.49706126  0.59648341  0.16885835  1.0
  Hf  Hf104  1  0.49706126  0.92981674  0.16885835  1.0
  Hf  Hf105  1  0.83039459  0.26315008  0.16885835  1.0
  Hf  Hf106  1  0.83039459  0.59648341  0.16885835  1.0
  Hf  Hf107  1  0.83039459  0.92981674  0.16885835  1.0
  Hf  Hf108  1  0.29781054  0.27531146  0.25421858  1.0
  Hf  Hf109  1  0.29781054  0.60864479  0.25421858  1.0
  Hf  Hf110  1  0.29781054  0.94197813  0.25421858  1.0
  Hf  Hf111  1  0.63114387  0.27531146  0.25421858  1.0
  Hf  Hf112  1  0.63114387  0.60864479  0.25421858  1.0
  Hf  Hf113  1  0.63114387  0.94197813  0.25421858  1.0
  Hf  Hf114  1  0.96447721  0.27531146  0.25421858  1.0
  Hf  Hf115  1  0.96447721  0.60864479  0.25421858  1.0
  Hf  Hf116  1  0.96447721  0.94197813  0.25421858  1.0
  Hf  Hf117  1  0.06704131  0.17274736  0.29268012  1.0
  Hf  Hf118  1  0.06704131  0.50608069  0.29268012  1.0
  Hf  Hf119  1  0.06704131  0.83941403  0.29268012  1.0
  Hf  Hf120  1  0.40037464  0.17274736  0.29268012  1.0
  Hf  Hf121  1  0.40037464  0.50608069  0.29268012  1.0
  Hf  Hf122  1  0.40037464  0.83941403  0.29268012  1.0
  Hf  Hf123  1  0.73370797  0.17274736  0.29268012  1.0
  Hf  Hf124  1  0.73370797  0.50608069  0.29268012  1.0
  Hf  Hf125  1  0.73370797  0.83941403  0.29268012  1.0
  Hf  Hf126  1  0.13808690  0.28879110  0.28424296  1.0
  Hf  Hf127  1  0.13808690  0.62212444  0.28424296  1.0
  Hf  Hf128  1  0.13808690  0.95545777  0.28424296  1.0
  Hf  Hf129  1  0.47142023  0.28879110  0.28424296  1.0
  Hf  Hf130  1  0.47142023  0.62212444  0.28424296  1.0
  Hf  Hf131  1  0.47142023  0.95545777  0.28424296  1.0
  Hf  Hf132  1  0.80475356  0.28879110  0.28424296  1.0
  Hf  Hf133  1  0.80475356  0.62212444  0.28424296  1.0
  Hf  Hf134  1  0.80475356  0.95545777  0.28424296  1.0
  Hf  Hf135  1  0.03552279  0.05802187  0.24578142  1.0
  Hf  Hf136  1  0.03552279  0.39135521  0.24578142  1.0
  Hf  Hf137  1  0.03552279  0.72468854  0.24578142  1.0
  Hf  Hf138  1  0.36885613  0.05802187  0.24578142  1.0
  Hf  Hf139  1  0.36885613  0.39135521  0.24578142  1.0
  Hf  Hf140  1  0.36885613  0.72468854  0.24578142  1.0
  Hf  Hf141  1  0.70218946  0.05802187  0.24578142  1.0
  Hf  Hf142  1  0.70218946  0.39135521  0.24578142  1.0
  Hf  Hf143  1  0.70218946  0.72468854  0.24578142  1.0
  Hf  Hf144  1  0.16960541  0.07018326  0.33114165  1.0
  Hf  Hf145  1  0.16960541  0.40351659  0.33114165  1.0
  Hf  Hf146  1  0.16960541  0.73684992  0.33114165  1.0
  Hf  Hf147  1  0.50293874  0.07018326  0.33114165  1.0
  Hf  Hf148  1  0.50293874  0.40351659  0.33114165  1.0
  Hf  Hf149  1  0.50293874  0.73684992  0.33114165  1.0
  Hf  Hf150  1  0.83627208  0.07018326  0.33114165  1.0
  Hf  Hf151  1  0.83627208  0.40351659  0.33114165  1.0
  Hf  Hf152  1  0.83627208  0.73684992  0.33114165  1.0
  Hf  Hf153  1  0.27216951  0.30095249  0.36960319  1.0
  Hf  Hf154  1  0.27216951  0.63428582  0.36960319  1.0
  Hf  Hf155  1  0.27216951  0.96761915  0.36960319  1.0
  Hf  Hf156  1  0.60550285  0.30095249  0.36960319  1.0
  Hf  Hf157  1  0.60550285  0.63428582  0.36960319  1.0
  Hf  Hf158  1  0.60550285  0.96761915  0.36960319  1.0
  Hf  Hf159  1  0.93883618  0.30095249  0.36960319  1.0
  Hf  Hf160  1  0.93883618  0.63428582  0.36960319  1.0
  Hf  Hf161  1  0.93883618  0.96761915  0.36960319  1.0
  Hf  Hf162  1  0.00988177  0.08366290  0.36116604  1.0
  Hf  Hf163  1  0.00988177  0.41699623  0.36116604  1.0
  Hf  Hf164  1  0.00988177  0.75032956  0.36116604  1.0
  Hf  Hf165  1  0.34321510  0.08366290  0.36116604  1.0
  Hf  Hf166  1  0.34321510  0.41699623  0.36116604  1.0
  Hf  Hf167  1  0.34321510  0.75032956  0.36116604  1.0
  Hf  Hf168  1  0.67654844  0.08366290  0.36116604  1.0
  Hf  Hf169  1  0.67654844  0.41699623  0.36116604  1.0
  Hf  Hf170  1  0.67654844  0.75032956  0.36116604  1.0
  Hf  Hf171  1  0.24065100  0.18622700  0.32270450  1.0
  Hf  Hf172  1  0.24065100  0.51956033  0.32270450  1.0
  Hf  Hf173  1  0.24065100  0.85289367  0.32270450  1.0
  Hf  Hf174  1  0.57398433  0.18622700  0.32270450  1.0
  Hf  Hf175  1  0.57398433  0.51956033  0.32270450  1.0
  Hf  Hf176  1  0.57398433  0.85289367  0.32270450  1.0
  Hf  Hf177  1  0.90731767  0.18622700  0.32270450  1.0
  Hf  Hf178  1  0.90731767  0.51956033  0.32270450  1.0
  Hf  Hf179  1  0.90731767  0.85289367  0.32270450  1.0
  Ni  Ni180  1  0.22879710  0.16034356  0.01283504  1.0
  Ni  Ni181  1  0.22879710  0.49367690  0.01283504  1.0
  Ni  Ni182  1  0.22879710  0.82701023  0.01283504  1.0
  Ni  Ni183  1  0.56213044  0.16034356  0.01283504  1.0
  Ni  Ni184  1  0.56213044  0.49367690  0.01283504  1.0
  Ni  Ni185  1  0.56213044  0.82701023  0.01283504  1.0
  Ni  Ni186  1  0.89546377  0.16034356  0.01283504  1.0
  Ni  Ni187  1  0.89546377  0.49367690  0.01283504  1.0
  Ni  Ni188  1  0.89546377  0.82701023  0.01283504  1.0
  Ni  Ni189  1  0.33136121  0.05777946  0.05129658  1.0
  Ni  Ni190  1  0.33136121  0.39111279  0.05129658  1.0
  Ni  Ni191  1  0.33136121  0.72444613  0.05129658  1.0
  Ni  Ni192  1  0.66469454  0.05777946  0.05129658  1.0
  Ni  Ni193  1  0.66469454  0.39111279  0.05129658  1.0
  Ni  Ni194  1  0.66469454  0.72444613  0.05129658  1.0
  Ni  Ni195  1  0.99802787  0.05777946  0.05129658  1.0
  Ni  Ni196  1  0.99802787  0.39111279  0.05129658  1.0
  Ni  Ni197  1  0.99802787  0.72444613  0.05129658  1.0
  Ni  Ni198  1  0.30966444  0.30119490  0.06408804  1.0
  Ni  Ni199  1  0.30966444  0.63452823  0.06408804  1.0
  Ni  Ni200  1  0.30966444  0.96786156  0.06408804  1.0
  Ni  Ni201  1  0.64299777  0.30119490  0.06408804  1.0
  Ni  Ni202  1  0.64299777  0.63452823  0.06408804  1.0
  Ni  Ni203  1  0.64299777  0.96786156  0.06408804  1.0
  Ni  Ni204  1  0.97633110  0.30119490  0.06408804  1.0
  Ni  Ni205  1  0.97633110  0.63452823  0.06408804  1.0
  Ni  Ni206  1  0.97633110  0.96786156  0.06408804  1.0
  Ni  Ni207  1  0.20710033  0.07042567  0.02562650  1.0
  Ni  Ni208  1  0.20710033  0.40375900  0.02562650  1.0
  Ni  Ni209  1  0.20710033  0.73709233  0.02562650  1.0
  Ni  Ni210  1  0.54043367  0.07042567  0.02562650  1.0
  Ni  Ni211  1  0.54043367  0.40375900  0.02562650  1.0
  Ni  Ni212  1  0.54043367  0.73709233  0.02562650  1.0
  Ni  Ni213  1  0.87376700  0.07042567  0.02562650  1.0
  Ni  Ni214  1  0.87376700  0.40375900  0.02562650  1.0
  Ni  Ni215  1  0.87376700  0.73709233  0.02562650  1.0
  Ni  Ni216  1  0.10059197  0.28854869  0.08975812  1.0
  Ni  Ni217  1  0.10059197  0.62188203  0.08975812  1.0
  Ni  Ni218  1  0.10059197  0.95521536  0.08975812  1.0
  Ni  Ni219  1  0.43392531  0.28854869  0.08975812  1.0
  Ni  Ni220  1  0.43392531  0.62188203  0.08975812  1.0
  Ni  Ni221  1  0.43392531  0.95521536  0.08975812  1.0
  Ni  Ni222  1  0.76725864  0.28854869  0.08975812  1.0
  Ni  Ni223  1  0.76725864  0.62188203  0.08975812  1.0
  Ni  Ni224  1  0.76725864  0.95521536  0.08975812  1.0
  Ni  Ni225  1  0.20315608  0.18598459  0.12821965  1.0
  Ni  Ni226  1  0.20315608  0.51931792  0.12821965  1.0
  Ni  Ni227  1  0.20315608  0.85265126  0.12821965  1.0
  Ni  Ni228  1  0.53648941  0.18598459  0.12821965  1.0
  Ni  Ni229  1  0.53648941  0.51931792  0.12821965  1.0
  Ni  Ni230  1  0.53648941  0.85265126  0.12821965  1.0
  Ni  Ni231  1  0.86982274  0.18598459  0.12821965  1.0
  Ni  Ni232  1  0.86982274  0.51931792  0.12821965  1.0
  Ni  Ni233  1  0.86982274  0.85265126  0.12821965  1.0
  Ni  Ni234  1  0.18145931  0.09606669  0.14101112  1.0
  Ni  Ni235  1  0.18145931  0.42940003  0.14101112  1.0
  Ni  Ni236  1  0.18145931  0.76273336  0.14101112  1.0
  Ni  Ni237  1  0.51479264  0.09606669  0.14101112  1.0
  Ni  Ni238  1  0.51479264  0.42940003  0.14101112  1.0
  Ni  Ni239  1  0.51479264  0.76273336  0.14101112  1.0
  Ni  Ni240  1  0.84812597  0.09606669  0.14101112  1.0
  Ni  Ni241  1  0.84812597  0.42940003  0.14101112  1.0
  Ni  Ni242  1  0.84812597  0.76273336  0.14101112  1.0
  Ni  Ni243  1  0.07889521  0.19863079  0.10254958  1.0
  Ni  Ni244  1  0.07889521  0.53196413  0.10254958  1.0
  Ni  Ni245  1  0.07889521  0.86529746  0.10254958  1.0
  Ni  Ni246  1  0.41222854  0.19863079  0.10254958  1.0
  Ni  Ni247  1  0.41222854  0.53196413  0.10254958  1.0
  Ni  Ni248  1  0.41222854  0.86529746  0.10254958  1.0
  Ni  Ni249  1  0.74556187  0.19863079  0.10254958  1.0
  Ni  Ni250  1  0.74556187  0.53196413  0.10254958  1.0
  Ni  Ni251  1  0.74556187  0.86529746  0.10254958  1.0
  Ni  Ni252  1  0.30572018  0.08342049  0.16668119  1.0
  Ni  Ni253  1  0.30572018  0.41675382  0.16668119  1.0
  Ni  Ni254  1  0.30572018  0.75008715  0.16668119  1.0
  Ni  Ni255  1  0.63905351  0.08342049  0.16668119  1.0
  Ni  Ni256  1  0.63905351  0.41675382  0.16668119  1.0
  Ni  Ni257  1  0.63905351  0.75008715  0.16668119  1.0
  Ni  Ni258  1  0.97238685  0.08342049  0.16668119  1.0
  Ni  Ni259  1  0.97238685  0.41675382  0.16668119  1.0
  Ni  Ni260  1  0.97238685  0.75008715  0.16668119  1.0
  Ni  Ni261  1  0.07495095  0.31418972  0.20514273  1.0
  Ni  Ni262  1  0.07495095  0.64752305  0.20514273  1.0
  Ni  Ni263  1  0.07495095  0.98085638  0.20514273  1.0
  Ni  Ni264  1  0.40828428  0.31418972  0.20514273  1.0
  Ni  Ni265  1  0.40828428  0.64752305  0.20514273  1.0
  Ni  Ni266  1  0.40828428  0.98085638  0.20514273  1.0
  Ni  Ni267  1  0.74161762  0.31418972  0.20514273  1.0
  Ni  Ni268  1  0.74161762  0.64752305  0.20514273  1.0
  Ni  Ni269  1  0.74161762  0.98085638  0.20514273  1.0
  Ni  Ni270  1  0.05325418  0.22427182  0.21793419  1.0
  Ni  Ni271  1  0.05325418  0.55760515  0.21793419  1.0
  Ni  Ni272  1  0.05325418  0.89093849  0.21793419  1.0
  Ni  Ni273  1  0.38658751  0.22427182  0.21793419  1.0
  Ni  Ni274  1  0.38658751  0.55760515  0.21793419  1.0
  Ni  Ni275  1  0.38658751  0.89093849  0.21793419  1.0
  Ni  Ni276  1  0.71992085  0.22427182  0.21793419  1.0
  Ni  Ni277  1  0.71992085  0.55760515  0.21793419  1.0
  Ni  Ni278  1  0.71992085  0.89093849  0.21793419  1.0
  Ni  Ni279  1  0.28402341  0.32683592  0.17947265  1.0
  Ni  Ni280  1  0.28402341  0.66016926  0.17947265  1.0
  Ni  Ni281  1  0.28402341  0.99350259  0.17947265  1.0
  Ni  Ni282  1  0.61735674  0.32683592  0.17947265  1.0
  Ni  Ni283  1  0.61735674  0.66016926  0.17947265  1.0
  Ni  Ni284  1  0.61735674  0.99350259  0.17947265  1.0
  Ni  Ni285  1  0.95069008  0.32683592  0.17947265  1.0
  Ni  Ni286  1  0.95069008  0.66016926  0.17947265  1.0
  Ni  Ni287  1  0.95069008  0.99350259  0.17947265  1.0
  Ni  Ni288  1  0.17751505  0.21162562  0.24360427  1.0
  Ni  Ni289  1  0.17751505  0.54495895  0.24360427  1.0
  Ni  Ni290  1  0.17751505  0.87829228  0.24360427  1.0
  Ni  Ni291  1  0.51084838  0.21162562  0.24360427  1.0
  Ni  Ni292  1  0.51084838  0.54495895  0.24360427  1.0
  Ni  Ni293  1  0.51084838  0.87829228  0.24360427  1.0
  Ni  Ni294  1  0.84418172  0.21162562  0.24360427  1.0
  Ni  Ni295  1  0.84418172  0.54495895  0.24360427  1.0
  Ni  Ni296  1  0.84418172  0.87829228  0.24360427  1.0
  Ni  Ni297  1  0.28007915  0.10906151  0.28206581  1.0
  Ni  Ni298  1  0.28007915  0.44239485  0.28206581  1.0
  Ni  Ni299  1  0.28007915  0.77572818  0.28206581  1.0
  Ni  Ni300  1  0.61341249  0.10906151  0.28206581  1.0
  Ni  Ni301  1  0.61341249  0.44239485  0.28206581  1.0
  Ni  Ni302  1  0.61341249  0.77572818  0.28206581  1.0
  Ni  Ni303  1  0.94674582  0.10906151  0.28206581  1.0
  Ni  Ni304  1  0.94674582  0.44239485  0.28206581  1.0
  Ni  Ni305  1  0.94674582  0.77572818  0.28206581  1.0
  Ni  Ni306  1  0.25838238  0.01914362  0.29485727  1.0
  Ni  Ni307  1  0.25838238  0.35247695  0.29485727  1.0
  Ni  Ni308  1  0.25838238  0.68581028  0.29485727  1.0
  Ni  Ni309  1  0.59171572  0.01914362  0.29485727  1.0
  Ni  Ni310  1  0.59171572  0.35247695  0.29485727  1.0
  Ni  Ni311  1  0.59171572  0.68581028  0.29485727  1.0
  Ni  Ni312  1  0.92504905  0.01914362  0.29485727  1.0
  Ni  Ni313  1  0.92504905  0.35247695  0.29485727  1.0
  Ni  Ni314  1  0.92504905  0.68581028  0.29485727  1.0
  Ni  Ni315  1  0.15581828  0.12170772  0.25639573  1.0
  Ni  Ni316  1  0.15581828  0.45504105  0.25639573  1.0
  Ni  Ni317  1  0.15581828  0.78837438  0.25639573  1.0
  Ni  Ni318  1  0.48915162  0.12170772  0.25639573  1.0
  Ni  Ni319  1  0.48915162  0.45504105  0.25639573  1.0
  Ni  Ni320  1  0.48915162  0.78837438  0.25639573  1.0
  Ni  Ni321  1  0.82248495  0.12170772  0.25639573  1.0
  Ni  Ni322  1  0.82248495  0.45504105  0.25639573  1.0
  Ni  Ni323  1  0.82248495  0.78837438  0.25639573  1.0
  Ni  Ni324  1  0.04930992  0.00649741  0.32052735  1.0
  Ni  Ni325  1  0.04930992  0.33983074  0.32052735  1.0
  Ni  Ni326  1  0.04930992  0.67316408  0.32052735  1.0
  Ni  Ni327  1  0.38264326  0.00649741  0.32052735  1.0
  Ni  Ni328  1  0.38264326  0.33983074  0.32052735  1.0
  Ni  Ni329  1  0.38264326  0.67316408  0.32052735  1.0
  Ni  Ni330  1  0.71597659  0.00649741  0.32052735  1.0
  Ni  Ni331  1  0.71597659  0.33983074  0.32052735  1.0
  Ni  Ni332  1  0.71597659  0.67316408  0.32052735  1.0
  Ni  Ni333  1  0.15187403  0.23726664  0.35898888  1.0
  Ni  Ni334  1  0.15187403  0.57059997  0.35898888  1.0
  Ni  Ni335  1  0.15187403  0.90393331  0.35898888  1.0
  Ni  Ni336  1  0.48520736  0.23726664  0.35898888  1.0
  Ni  Ni337  1  0.48520736  0.57059997  0.35898888  1.0
  Ni  Ni338  1  0.48520736  0.90393331  0.35898888  1.0
  Ni  Ni339  1  0.81854069  0.23726664  0.35898888  1.0
  Ni  Ni340  1  0.81854069  0.57059997  0.35898888  1.0
  Ni  Ni341  1  0.81854069  0.90393331  0.35898888  1.0
  Ni  Ni342  1  0.13017726  0.14734874  0.37178035  1.0
  Ni  Ni343  1  0.13017726  0.48068208  0.37178035  1.0
  Ni  Ni344  1  0.13017726  0.81401541  0.37178035  1.0
  Ni  Ni345  1  0.46351059  0.14734874  0.37178035  1.0
  Ni  Ni346  1  0.46351059  0.48068208  0.37178035  1.0
  Ni  Ni347  1  0.46351059  0.81401541  0.37178035  1.0
  Ni  Ni348  1  0.79684392  0.14734874  0.37178035  1.0
  Ni  Ni349  1  0.79684392  0.48068208  0.37178035  1.0
  Ni  Ni350  1  0.79684392  0.81401541  0.37178035  1.0
  Ni  Ni351  1  0.02761315  0.24991285  0.33331881  1.0
  Ni  Ni352  1  0.02761315  0.58324618  0.33331881  1.0
  Ni  Ni353  1  0.02761315  0.91657951  0.33331881  1.0
  Ni  Ni354  1  0.36094649  0.24991285  0.33331881  1.0
  Ni  Ni355  1  0.36094649  0.58324618  0.33331881  1.0
  Ni  Ni356  1  0.36094649  0.91657951  0.33331881  1.0
  Ni  Ni357  1  0.69427982  0.24991285  0.33331881  1.0
  Ni  Ni358  1  0.69427982  0.58324618  0.33331881  1.0
  Ni  Ni359  1  0.69427982  0.91657951  0.33331881  1.0
