# generated using pymatgen
data_HfNi
_symmetry_space_group_name_H-M   'P 1'
_cell_length_a   15.44476560
_cell_length_b   19.71760950
_cell_length_c   49.02951600
_cell_angle_alpha   51.56354402
_cell_angle_beta   90.00000000
_cell_angle_gamma   51.06853838
_symmetry_Int_Tables_number   1
_chemical_formula_structural   HfNi
_chemical_formula_sum   'Hf90 Ni90'
_cell_volume   6982.31141953
_cell_formula_units_Z   90
loop_
 _symmetry_equiv_pos_site_id
 _symmetry_equiv_pos_as_xyz
  1  'x, y, z'
loop_
 _atom_site_type_symbol
 _atom_site_label
 _atom_site_symmetry_multiplicity
 _atom_site_fract_x
 _atom_site_fract_y
 _atom_site_fract_z
 _atom_site_occupancy
  Hf  Hf0  1  0.04677233  0.04677233  0.05080692  1.0
  Hf  Hf1  1  0.04677233  0.38010567  0.05080692  1.0
  Hf  Hf2  1  0.04677233  0.71343900  0.05080692  1.0
  Hf  Hf3  1  0.38010567  0.04677233  0.05080692  1.0
  Hf  Hf4  1  0.38010567  0.38010567  0.05080692  1.0
  Hf  Hf5  1  0.38010567  0.71343900  0.05080692  1.0
  Hf  Hf6  1  0.71343900  0.04677233  0.05080692  1.0
  Hf  Hf7  1  0.71343900  0.38010567  0.05080692  1.0
  Hf  Hf8  1  0.71343900  0.71343900  0.05080692  1.0
  Hf  Hf9  1  0.28656100  0.28656100  0.03252642  1.0
  Hf  Hf10  1  0.28656100  0.61989433  0.03252642  1.0
  Hf  Hf11  1  0.28656100  0.95322767  0.03252642  1.0
  Hf  Hf12  1  0.61989433  0.28656100  0.03252642  1.0
  Hf  Hf13  1  0.61989433  0.61989433  0.03252642  1.0
  Hf  Hf14  1  0.61989433  0.95322767  0.03252642  1.0
  Hf  Hf15  1  0.95322767  0.28656100  0.03252642  1.0
  Hf  Hf16  1  0.95322767  0.61989433  0.03252642  1.0
  Hf  Hf17  1  0.95322767  0.95322767  0.03252642  1.0
  Ni  Ni18  1  0.13876300  0.13876300  0.02780925  1.0
  Ni  Ni19  1  0.13876300  0.47209633  0.02780925  1.0
  Ni  Ni20  1  0.13876300  0.80542967  0.02780925  1.0
  Ni  Ni21  1  0.47209633  0.13876300  0.02780925  1.0
  Ni  Ni22  1  0.47209633  0.47209633  0.02780925  1.0
  Ni  Ni23  1  0.47209633  0.80542967  0.02780925  1.0
  Ni  Ni24  1  0.80542967  0.13876300  0.02780925  1.0
  Ni  Ni25  1  0.80542967  0.47209633  0.02780925  1.0
  Ni  Ni26  1  0.80542967  0.80542967  0.02780925  1.0
  Ni  Ni27  1  0.19457033  0.19457033  0.05552408  1.0
  Ni  Ni28  1  0.19457033  0.52790367  0.05552408  1.0
  Ni  Ni29  1  0.19457033  0.86123700  0.05552408  1.0
  Ni  Ni30  1  0.52790367  0.19457033  0.05552408  1.0
  Ni  Ni31  1  0.52790367  0.52790367  0.05552408  1.0
  Ni  Ni32  1  0.52790367  0.86123700  0.05552408  1.0
  Ni  Ni33  1  0.86123700  0.19457033  0.05552408  1.0
  Ni  Ni34  1  0.86123700  0.52790367  0.05552408  1.0
  Ni  Ni35  1  0.86123700  0.86123700  0.05552408  1.0
  Hf  Hf36  1  0.04677233  0.04677233  0.13414025  1.0
  Hf  Hf37  1  0.04677233  0.38010567  0.13414025  1.0
  Hf  Hf38  1  0.04677233  0.71343900  0.13414025  1.0
  Hf  Hf39  1  0.38010567  0.04677233  0.13414025  1.0
  Hf  Hf40  1  0.38010567  0.38010567  0.13414025  1.0
  Hf  Hf41  1  0.38010567  0.71343900  0.13414025  1.0
  Hf  Hf42  1  0.71343900  0.04677233  0.13414025  1.0
  Hf  Hf43  1  0.71343900  0.38010567  0.13414025  1.0
  Hf  Hf44  1  0.71343900  0.71343900  0.13414025  1.0
  Hf  Hf45  1  0.28656100  0.28656100  0.11585975  1.0
  Hf  Hf46  1  0.28656100  0.61989433  0.11585975  1.0
  Hf  Hf47  1  0.28656100  0.95322767  0.11585975  1.0
  Hf  Hf48  1  0.61989433  0.28656100  0.11585975  1.0
  Hf  Hf49  1  0.61989433  0.61989433  0.11585975  1.0
  Hf  Hf50  1  0.61989433  0.95322767  0.11585975  1.0
  Hf  Hf51  1  0.95322767  0.28656100  0.11585975  1.0
  Hf  Hf52  1  0.95322767  0.61989433  0.11585975  1.0
  Hf  Hf53  1  0.95322767  0.95322767  0.11585975  1.0
  Ni  Ni54  1  0.13876300  0.13876300  0.11114258  1.0
  Ni  Ni55  1  0.13876300  0.47209633  0.11114258  1.0
  Ni  Ni56  1  0.13876300  0.80542967  0.11114258  1.0
  Ni  Ni57  1  0.47209633  0.13876300  0.11114258  1.0
  Ni  Ni58  1  0.47209633  0.47209633  0.11114258  1.0
  Ni  Ni59  1  0.47209633  0.80542967  0.11114258  1.0
  Ni  Ni60  1  0.80542967  0.13876300  0.11114258  1.0
  Ni  Ni61  1  0.80542967  0.47209633  0.11114258  1.0
  Ni  Ni62  1  0.80542967  0.80542967  0.11114258  1.0
  Ni  Ni63  1  0.19457033  0.19457033  0.13885742  1.0
  Ni  Ni64  1  0.19457033  0.52790367  0.13885742  1.0
  Ni  Ni65  1  0.19457033  0.86123700  0.13885742  1.0
  Ni  Ni66  1  0.52790367  0.19457033  0.13885742  1.0
  Ni  Ni67  1  0.52790367  0.52790367  0.13885742  1.0
  Ni  Ni68  1  0.52790367  0.86123700  0.13885742  1.0
  Ni  Ni69  1  0.86123700  0.19457033  0.13885742  1.0
  Ni  Ni70  1  0.86123700  0.52790367  0.13885742  1.0
  Ni  Ni71  1  0.86123700  0.86123700  0.13885742  1.0
  Hf  Hf72  1  0.04677233  0.04677233  0.21747358  1.0
  Hf  Hf73  1  0.04677233  0.38010567  0.21747358  1.0
  Hf  Hf74  1  0.04677233  0.71343900  0.21747358  1.0
  Hf  Hf75  1  0.38010567  0.04677233  0.21747358  1.0
  Hf  Hf76  1  0.38010567  0.38010567  0.21747358  1.0
  Hf  Hf77  1  0.38010567  0.71343900  0.21747358  1.0
  Hf  Hf78  1  0.71343900  0.04677233  0.21747358  1.0
  Hf  Hf79  1  0.71343900  0.38010567  0.21747358  1.0
  Hf  Hf80  1  0.71343900  0.71343900  0.21747358  1.0
  Hf  Hf81  1  0.28656100  0.28656100  0.19919308  1.0
  Hf  Hf82  1  0.28656100  0.61989433  0.19919308  1.0
  Hf  Hf83  1  0.28656100  0.95322767  0.19919308  1.0
  Hf  Hf84  1  0.61989433  0.28656100  0.19919308  1.0
  Hf  Hf85  1  0.61989433  0.61989433  0.19919308  1.0
  Hf  Hf86  1  0.61989433  0.95322767  0.19919308  1.0
  Hf  Hf87  1  0.95322767  0.28656100  0.19919308  1.0
  Hf  Hf88  1  0.95322767  0.61989433  0.19919308  1.0
  Hf  Hf89  1  0.95322767  0.95322767  0.19919308  1.0
  Ni  Ni90  1  0.13876300  0.13876300  0.19447592  1.0
  Ni  Ni91  1  0.13876300  0.47209633  0.19447592  1.0
  Ni  Ni92  1  0.13876300  0.80542967  0.19447592  1.0
  Ni  Ni93  1  0.47209633  0.13876300  0.19447592  1.0
  Ni  Ni94  1  0.47209633  0.47209633  0.19447592  1.0
  Ni  Ni95  1  0.47209633  0.80542967  0.19447592  1.0
  Ni  Ni96  1  0.80542967  0.13876300  0.19447592  1.0
  Ni  Ni97  1  0.80542967  0.47209633  0.19447592  1.0
  Ni  Ni98  1  0.80542967  0.80542967  0.19447592  1.0
  Ni  Ni99  1  0.19457033  0.19457033  0.22219075  1.0
  Ni  Ni100  1  0.19457033  0.52790367  0.22219075  1.0
  Ni  Ni101  1  0.19457033  0.86123700  0.22219075  1.0
  Ni  Ni102  1  0.52790367  0.19457033  0.22219075  1.0
  Ni  Ni103  1  0.52790367  0.52790367  0.22219075  1.0
  Ni  Ni104  1  0.52790367  0.86123700  0.22219075  1.0
  Ni  Ni105  1  0.86123700  0.19457033  0.22219075  1.0
  Ni  Ni106  1  0.86123700  0.52790367  0.22219075  1.0
  Ni  Ni107  1  0.86123700  0.86123700  0.22219075  1.0
  Hf  Hf108  1  0.04677233  0.04677233  0.30080692  1.0
  Hf  Hf109  1  0.04677233  0.38010567  0.30080692  1.0
  Hf  Hf110  1  0.04677233  0.71343900  0.30080692  1.0
  Hf  Hf111  1  0.38010567  0.04677233  0.30080692  1.0
  Hf  Hf112  1  0.38010567  0.38010567  0.30080692  1.0
  Hf  Hf113  1  0.38010567  0.71343900  0.30080692  1.0
  Hf  Hf114  1  0.71343900  0.04677233  0.30080692  1.0
  Hf  Hf115  1  0.71343900  0.38010567  0.30080692  1.0
  Hf  Hf116  1  0.71343900  0.71343900  0.30080692  1.0
  Hf  Hf117  1  0.28656100  0.28656100  0.28252642  1.0
  Hf  Hf118  1  0.28656100  0.61989433  0.28252642  1.0
  Hf  Hf119  1  0.28656100  0.95322767  0.28252642  1.0
  Hf  Hf120  1  0.61989433  0.28656100  0.28252642  1.0
  Hf  Hf121  1  0.61989433  0.61989433  0.28252642  1.0
  Hf  Hf122  1  0.61989433  0.95322767  0.28252642  1.0
  Hf  Hf123  1  0.95322767  0.28656100  0.28252642  1.0
  Hf  Hf124  1  0.95322767  0.61989433  0.28252642  1.0
  Hf  Hf125  1  0.95322767  0.95322767  0.28252642  1.0
  Ni  Ni126  1  0.13876300  0.13876300  0.27780925  1.0
  Ni  Ni127  1  0.13876300  0.47209633  0.27780925  1.0
  Ni  Ni128  1  0.13876300  0.80542967  0.27780925  1.0
  Ni  Ni129  1  0.47209633  0.13876300  0.27780925  1.0
  Ni  Ni130  1  0.47209633  0.47209633  0.27780925  1.0
  Ni  Ni131  1  0.47209633  0.80542967  0.27780925  1.0
  Ni  Ni132  1  0.80542967  0.13876300  0.27780925  1.0
  Ni  Ni133  1  0.80542967  0.47209633  0.27780925  1.0
  Ni  Ni134  1  0.80542967  0.80542967  0.27780925  1.0
  Ni  Ni135  1  0.19457033  0.19457033  0.30552408  1.0
  Ni  Ni136  1  0.19457033  0.52790367  0.30552408  1.0
  Ni  Ni137  1  0.19457033  0.86123700  0.30552408  1.0
  Ni  Ni138  1  0.52790367  0.19457033  0.30552408  1.0
  Ni  Ni139  1  0.52790367  0.52790367  0.30552408  1.0
  Ni  Ni140  1  0.52790367  0.86123700  0.30552408  1.0
  Ni  Ni141  1  0.86123700  0.19457033  0.30552408  1.0
  Ni  Ni142  1  0.86123700  0.52790367  0.30552408  1.0
  Ni  Ni143  1  0.86123700  0.86123700  0.30552408  1.0
  Hf  Hf144  1  0.04677233  0.04677233  0.38414025  1.0
  Hf  Hf145  1  0.04677233  0.38010567  0.38414025  1.0
  Hf  Hf146  1  0.04677233  0.71343900  0.38414025  1.0
  Hf  Hf147  1  0.38010567  0.04677233  0.38414025  1.0
  Hf  Hf148  1  0.38010567  0.38010567  0.38414025  1.0
  Hf  Hf149  1  0.38010567  0.71343900  0.38414025  1.0
  Hf  Hf150  1  0.71343900  0.04677233  0.38414025  1.0
  Hf  Hf151  1  0.71343900  0.38010567  0.38414025  1.0
  Hf  Hf152  1  0.71343900  0.71343900  0.38414025  1.0
  Hf  Hf153  1  0.28656100  0.28656100  0.36585975  1.0
  Hf  Hf154  1  0.28656100  0.61989433  0.36585975  1.0
  Hf  Hf155  1  0.28656100  0.95322767  0.36585975  1.0
  Hf  Hf156  1  0.61989433  0.28656100  0.36585975  1.0
  Hf  Hf157  1  0.61989433  0.61989433  0.36585975  1.0
  Hf  Hf158  1  0.61989433  0.95322767  0.36585975  1.0
  Hf  Hf159  1  0.95322767  0.28656100  0.36585975  1.0
  Hf  Hf160  1  0.95322767  0.61989433  0.36585975  1.0
  Hf  Hf161  1  0.95322767  0.95322767  0.36585975  1.0
  Ni  Ni162  1  0.13876300  0.13876300  0.36114258  1.0
  Ni  Ni163  1  0.13876300  0.47209633  0.36114258  1.0
  Ni  Ni164  1  0.13876300  0.80542967  0.36114258  1.0
  Ni  Ni165  1  0.47209633  0.13876300  0.36114258  1.0
  Ni  Ni166  1  0.47209633  0.47209633  0.36114258  1.0
  Ni  Ni167  1  0.47209633  0.80542967  0.36114258  1.0
  Ni  Ni168  1  0.80542967  0.13876300  0.36114258  1.0
  Ni  Ni169  1  0.80542967  0.47209633  0.36114258  1.0
  Ni  Ni170  1  0.80542967  0.80542967  0.36114258  1.0
  Ni  Ni171  1  0.19457033  0.19457033  0.38885742  1.0
  Ni  Ni172  1  0.19457033  0.52790367  0.38885742  1.0
  Ni  Ni173  1  0.19457033  0.86123700  0.38885742  1.0
  Ni  Ni174  1  0.52790367  0.19457033  0.38885742  1.0
  Ni  Ni175  1  0.52790367  0.52790367  0.38885742  1.0
  Ni  Ni176  1  0.52790367  0.86123700  0.38885742  1.0
  Ni  Ni177  1  0.86123700  0.19457033  0.38885742  1.0
  Ni  Ni178  1  0.86123700  0.52790367  0.38885742  1.0
  Ni  Ni179  1  0.86123700  0.86123700  0.38885742  1.0
