# generated using pymatgen
data_HfNi
_symmetry_space_group_name_H-M   'P 1'
_cell_length_a   9.71335799
_cell_length_b   19.71760950
_cell_length_c   36.77213700
_cell_angle_alpha   128.43645598
_cell_angle_beta   90.00000000
_cell_angle_gamma   75.74063239
_symmetry_Int_Tables_number   1
_chemical_formula_structural   HfNi
_chemical_formula_sum   'Hf72 Ni72'
_cell_volume   5236.73356464
_cell_formula_units_Z   72
loop_
 _symmetry_equiv_pos_site_id
 _symmetry_equiv_pos_as_xyz
  1  'x, y, z'
loop_
 _atom_site_type_symbol
 _atom_site_label
 _atom_site_symmetry_multiplicity
 _atom_site_fract_x
 _atom_site_fract_y
 _atom_site_fract_z
 _atom_site_occupancy
  Hf  Hf0  1  0.28656100  0.09354467  0.05895933  1.0
  Hf  Hf1  1  0.28656100  0.42687800  0.05895933  1.0
  Hf  Hf2  1  0.28656100  0.76021133  0.05895933  1.0
  Hf  Hf3  1  0.61989433  0.09354467  0.05895933  1.0
  Hf  Hf4  1  0.61989433  0.42687800  0.05895933  1.0
  Hf  Hf5  1  0.61989433  0.76021133  0.05895933  1.0
  Hf  Hf6  1  0.95322767  0.09354467  0.05895933  1.0
  Hf  Hf7  1  0.95322767  0.42687800  0.05895933  1.0
  Hf  Hf8  1  0.95322767  0.76021133  0.05895933  1.0
  Hf  Hf9  1  0.04677233  0.23978867  0.05215178  1.0
  Hf  Hf10  1  0.04677233  0.57312200  0.05215178  1.0
  Hf  Hf11  1  0.04677233  0.90645533  0.05215178  1.0
  Hf  Hf12  1  0.38010567  0.23978867  0.05215178  1.0
  Hf  Hf13  1  0.38010567  0.57312200  0.05215178  1.0
  Hf  Hf14  1  0.38010567  0.90645533  0.05215178  1.0
  Hf  Hf15  1  0.71343900  0.23978867  0.05215178  1.0
  Hf  Hf16  1  0.71343900  0.57312200  0.05215178  1.0
  Hf  Hf17  1  0.71343900  0.90645533  0.05215178  1.0
  Ni  Ni18  1  0.19457033  0.27752600  0.00917533  1.0
  Ni  Ni19  1  0.19457033  0.61085933  0.00917533  1.0
  Ni  Ni20  1  0.19457033  0.94419267  0.00917533  1.0
  Ni  Ni21  1  0.52790367  0.27752600  0.00917533  1.0
  Ni  Ni22  1  0.52790367  0.61085933  0.00917533  1.0
  Ni  Ni23  1  0.52790367  0.94419267  0.00917533  1.0
  Ni  Ni24  1  0.86123700  0.27752600  0.00917533  1.0
  Ni  Ni25  1  0.86123700  0.61085933  0.00917533  1.0
  Ni  Ni26  1  0.86123700  0.94419267  0.00917533  1.0
  Ni  Ni27  1  0.13876300  0.05580733  0.10193578  1.0
  Ni  Ni28  1  0.13876300  0.38914067  0.10193578  1.0
  Ni  Ni29  1  0.13876300  0.72247400  0.10193578  1.0
  Ni  Ni30  1  0.47209633  0.05580733  0.10193578  1.0
  Ni  Ni31  1  0.47209633  0.38914067  0.10193578  1.0
  Ni  Ni32  1  0.47209633  0.72247400  0.10193578  1.0
  Ni  Ni33  1  0.80542967  0.05580733  0.10193578  1.0
  Ni  Ni34  1  0.80542967  0.38914067  0.10193578  1.0
  Ni  Ni35  1  0.80542967  0.72247400  0.10193578  1.0
  Hf  Hf36  1  0.28656100  0.09354467  0.17007044  1.0
  Hf  Hf37  1  0.28656100  0.42687800  0.17007044  1.0
  Hf  Hf38  1  0.28656100  0.76021133  0.17007044  1.0
  Hf  Hf39  1  0.61989433  0.09354467  0.17007044  1.0
  Hf  Hf40  1  0.61989433  0.42687800  0.17007044  1.0
  Hf  Hf41  1  0.61989433  0.76021133  0.17007044  1.0
  Hf  Hf42  1  0.95322767  0.09354467  0.17007044  1.0
  Hf  Hf43  1  0.95322767  0.42687800  0.17007044  1.0
  Hf  Hf44  1  0.95322767  0.76021133  0.17007044  1.0
  Hf  Hf45  1  0.04677233  0.23978867  0.16326289  1.0
  Hf  Hf46  1  0.04677233  0.57312200  0.16326289  1.0
  Hf  Hf47  1  0.04677233  0.90645533  0.16326289  1.0
  Hf  Hf48  1  0.38010567  0.23978867  0.16326289  1.0
  Hf  Hf49  1  0.38010567  0.57312200  0.16326289  1.0
  Hf  Hf50  1  0.38010567  0.90645533  0.16326289  1.0
  Hf  Hf51  1  0.71343900  0.23978867  0.16326289  1.0
  Hf  Hf52  1  0.71343900  0.57312200  0.16326289  1.0
  Hf  Hf53  1  0.71343900  0.90645533  0.16326289  1.0
  Ni  Ni54  1  0.19457033  0.27752600  0.12028644  1.0
  Ni  Ni55  1  0.19457033  0.61085933  0.12028644  1.0
  Ni  Ni56  1  0.19457033  0.94419267  0.12028644  1.0
  Ni  Ni57  1  0.52790367  0.27752600  0.12028644  1.0
  Ni  Ni58  1  0.52790367  0.61085933  0.12028644  1.0
  Ni  Ni59  1  0.52790367  0.94419267  0.12028644  1.0
  Ni  Ni60  1  0.86123700  0.27752600  0.12028644  1.0
  Ni  Ni61  1  0.86123700  0.61085933  0.12028644  1.0
  Ni  Ni62  1  0.86123700  0.94419267  0.12028644  1.0
  Ni  Ni63  1  0.13876300  0.05580733  0.21304689  1.0
  Ni  Ni64  1  0.13876300  0.38914067  0.21304689  1.0
  Ni  Ni65  1  0.13876300  0.72247400  0.21304689  1.0
  Ni  Ni66  1  0.47209633  0.05580733  0.21304689  1.0
  Ni  Ni67  1  0.47209633  0.38914067  0.21304689  1.0
  Ni  Ni68  1  0.47209633  0.72247400  0.21304689  1.0
  Ni  Ni69  1  0.80542967  0.05580733  0.21304689  1.0
  Ni  Ni70  1  0.80542967  0.38914067  0.21304689  1.0
  Ni  Ni71  1  0.80542967  0.72247400  0.21304689  1.0
  Hf  Hf72  1  0.28656100  0.09354467  0.28118156  1.0
  Hf  Hf73  1  0.28656100  0.42687800  0.28118156  1.0
  Hf  Hf74  1  0.28656100  0.76021133  0.28118156  1.0
  Hf  Hf75  1  0.61989433  0.09354467  0.28118156  1.0
  Hf  Hf76  1  0.61989433  0.42687800  0.28118156  1.0
  Hf  Hf77  1  0.61989433  0.76021133  0.28118156  1.0
  Hf  Hf78  1  0.95322767  0.09354467  0.28118156  1.0
  Hf  Hf79  1  0.95322767  0.42687800  0.28118156  1.0
  Hf  Hf80  1  0.95322767  0.76021133  0.28118156  1.0
  Hf  Hf81  1  0.04677233  0.23978867  0.27437400  1.0
  Hf  Hf82  1  0.04677233  0.57312200  0.27437400  1.0
  Hf  Hf83  1  0.04677233  0.90645533  0.27437400  1.0
  Hf  Hf84  1  0.38010567  0.23978867  0.27437400  1.0
  Hf  Hf85  1  0.38010567  0.57312200  0.27437400  1.0
  Hf  Hf86  1  0.38010567  0.90645533  0.27437400  1.0
  Hf  Hf87  1  0.71343900  0.23978867  0.27437400  1.0
  Hf  Hf88  1  0.71343900  0.57312200  0.27437400  1.0
  Hf  Hf89  1  0.71343900  0.90645533  0.27437400  1.0
  Ni  Ni90  1  0.19457033  0.27752600  0.23139756  1.0
  Ni  Ni91  1  0.19457033  0.61085933  0.23139756  1.0
  Ni  Ni92  1  0.19457033  0.94419267  0.23139756  1.0
  Ni  Ni93  1  0.52790367  0.27752600  0.23139756  1.0
  Ni  Ni94  1  0.52790367  0.61085933  0.23139756  1.0
  Ni  Ni95  1  0.52790367  0.94419267  0.23139756  1.0
  Ni  Ni96  1  0.86123700  0.27752600  0.23139756  1.0
  Ni  Ni97  1  0.86123700  0.61085933  0.23139756  1.0
  Ni  Ni98  1  0.86123700  0.94419267  0.23139756  1.0
  Ni  Ni99  1  0.13876300  0.05580733  0.32415800  1.0
  Ni  Ni100  1  0.13876300  0.38914067  0.32415800  1.0
  Ni  Ni101  1  0.13876300  0.72247400  0.32415800  1.0
  Ni  Ni102  1  0.47209633  0.05580733  0.32415800  1.0
  Ni  Ni103  1  0.47209633  0.38914067  0.32415800  1.0
  Ni  Ni104  1  0.47209633  0.72247400  0.32415800  1.0
  Ni  Ni105  1  0.80542967  0.05580733  0.32415800  1.0
  Ni  Ni106  1  0.80542967  0.38914067  0.32415800  1.0
  Ni  Ni107  1  0.80542967  0.72247400  0.32415800  1.0
  Hf  Hf108  1  0.28656100  0.09354467  0.39229267  1.0
  Hf  Hf109  1  0.28656100  0.42687800  0.39229267  1.0
  Hf  Hf110  1  0.28656100  0.76021133  0.39229267  1.0
  Hf  Hf111  1  0.61989433  0.09354467  0.39229267  1.0
  Hf  Hf112  1  0.61989433  0.42687800  0.39229267  1.0
  Hf  Hf113  1  0.61989433  0.76021133  0.39229267  1.0
  Hf  Hf114  1  0.95322767  0.09354467  0.39229267  1.0
  Hf  Hf115  1  0.95322767  0.42687800  0.39229267  1.0
  Hf  Hf116  1  0.95322767  0.76021133  0.39229267  1.0
  Hf  Hf117  1  0.04677233  0.23978867  0.38548511  1.0
  Hf  Hf118  1  0.04677233  0.57312200  0.38548511  1.0
  Hf  Hf119  1  0.04677233  0.90645533  0.38548511  1.0
  Hf  Hf120  1  0.38010567  0.23978867  0.38548511  1.0
  Hf  Hf121  1  0.38010567  0.57312200  0.38548511  1.0
  Hf  Hf122  1  0.38010567  0.90645533  0.38548511  1.0
  Hf  Hf123  1  0.71343900  0.23978867  0.38548511  1.0
  Hf  Hf124  1  0.71343900  0.57312200  0.38548511  1.0
  Hf  Hf125  1  0.71343900  0.90645533  0.38548511  1.0
  Ni  Ni126  1  0.19457033  0.27752600  0.34250867  1.0
  Ni  Ni127  1  0.19457033  0.61085933  0.34250867  1.0
  Ni  Ni128  1  0.19457033  0.94419267  0.34250867  1.0
  Ni  Ni129  1  0.52790367  0.27752600  0.34250867  1.0
  Ni  Ni130  1  0.52790367  0.61085933  0.34250867  1.0
  Ni  Ni131  1  0.52790367  0.94419267  0.34250867  1.0
  Ni  Ni132  1  0.86123700  0.27752600  0.34250867  1.0
  Ni  Ni133  1  0.86123700  0.61085933  0.34250867  1.0
  Ni  Ni134  1  0.86123700  0.94419267  0.34250867  1.0
  Ni  Ni135  1  0.13876300  0.05580733  0.43526911  1.0
  Ni  Ni136  1  0.13876300  0.38914067  0.43526911  1.0
  Ni  Ni137  1  0.13876300  0.72247400  0.43526911  1.0
  Ni  Ni138  1  0.47209633  0.05580733  0.43526911  1.0
  Ni  Ni139  1  0.47209633  0.38914067  0.43526911  1.0
  Ni  Ni140  1  0.47209633  0.72247400  0.43526911  1.0
  Ni  Ni141  1  0.80542967  0.05580733  0.43526911  1.0
  Ni  Ni142  1  0.80542967  0.38914067  0.43526911  1.0
  Ni  Ni143  1  0.80542967  0.72247400  0.43526911  1.0
