# generated using pymatgen
data_HfNi3
_symmetry_space_group_name_H-M   'P 1'
_cell_length_a   15.80516340
_cell_length_b   30.89062704
_cell_length_c   35.53654060
_cell_angle_alpha   59.95990767
_cell_angle_beta   68.24541705
_cell_angle_gamma   75.17754910
_symmetry_Int_Tables_number   1
_chemical_formula_structural   HfNi3
_chemical_formula_sum   'Hf108 Ni324'
_cell_volume   13896.42237463
_cell_formula_units_Z   108
loop_
 _symmetry_equiv_pos_site_id
 _symmetry_equiv_pos_as_xyz
  1  'x, y, z'
loop_
 _atom_site_type_symbol
 _atom_site_label
 _atom_site_symmetry_multiplicity
 _atom_site_fract_x
 _atom_site_fract_y
 _atom_site_fract_z
 _atom_site_occupancy
  Hf  Hf0  1  0.10938750  0.29687083  0.08584855  1.0
  Hf  Hf1  1  0.10938750  0.63020417  0.08584855  1.0
  Hf  Hf2  1  0.10938750  0.96353750  0.08584855  1.0
  Hf  Hf3  1  0.44272083  0.29687083  0.08584855  1.0
  Hf  Hf4  1  0.44272083  0.63020417  0.08584855  1.0
  Hf  Hf5  1  0.44272083  0.96353750  0.08584855  1.0
  Hf  Hf6  1  0.77605417  0.29687083  0.08584855  1.0
  Hf  Hf7  1  0.77605417  0.63020417  0.08584855  1.0
  Hf  Hf8  1  0.77605417  0.96353750  0.08584855  1.0
  Hf  Hf9  1  0.27605417  0.13020417  0.18584855  1.0
  Hf  Hf10  1  0.27605417  0.46353750  0.18584855  1.0
  Hf  Hf11  1  0.27605417  0.79687083  0.18584855  1.0
  Hf  Hf12  1  0.60938750  0.13020417  0.18584855  1.0
  Hf  Hf13  1  0.60938750  0.46353750  0.18584855  1.0
  Hf  Hf14  1  0.60938750  0.79687083  0.18584855  1.0
  Hf  Hf15  1  0.94272083  0.13020417  0.18584855  1.0
  Hf  Hf16  1  0.94272083  0.46353750  0.18584855  1.0
  Hf  Hf17  1  0.94272083  0.79687083  0.18584855  1.0
  Hf  Hf18  1  0.05727917  0.20312917  0.00462355  1.0
  Hf  Hf19  1  0.05727917  0.53646250  0.00462355  1.0
  Hf  Hf20  1  0.05727917  0.86979583  0.00462355  1.0
  Hf  Hf21  1  0.39061250  0.20312917  0.00462355  1.0
  Hf  Hf22  1  0.39061250  0.53646250  0.00462355  1.0
  Hf  Hf23  1  0.39061250  0.86979583  0.00462355  1.0
  Hf  Hf24  1  0.72394583  0.20312917  0.00462355  1.0
  Hf  Hf25  1  0.72394583  0.53646250  0.00462355  1.0
  Hf  Hf26  1  0.72394583  0.86979583  0.00462355  1.0
  Hf  Hf27  1  0.22394583  0.03646250  0.10462355  1.0
  Hf  Hf28  1  0.22394583  0.36979583  0.10462355  1.0
  Hf  Hf29  1  0.22394583  0.70312917  0.10462355  1.0
  Hf  Hf30  1  0.55727917  0.03646250  0.10462355  1.0
  Hf  Hf31  1  0.55727917  0.36979583  0.10462355  1.0
  Hf  Hf32  1  0.55727917  0.70312917  0.10462355  1.0
  Hf  Hf33  1  0.89061250  0.03646250  0.10462355  1.0
  Hf  Hf34  1  0.89061250  0.36979583  0.10462355  1.0
  Hf  Hf35  1  0.89061250  0.70312917  0.10462355  1.0
  Hf  Hf36  1  0.16666667  0.16666667  0.09523605  1.0
  Hf  Hf37  1  0.16666667  0.50000000  0.09523605  1.0
  Hf  Hf38  1  0.16666667  0.83333333  0.09523605  1.0
  Hf  Hf39  1  0.50000000  0.16666667  0.09523605  1.0
  Hf  Hf40  1  0.50000000  0.50000000  0.09523605  1.0
  Hf  Hf41  1  0.50000000  0.83333333  0.09523605  1.0
  Hf  Hf42  1  0.83333333  0.16666667  0.09523605  1.0
  Hf  Hf43  1  0.83333333  0.50000000  0.09523605  1.0
  Hf  Hf44  1  0.83333333  0.83333333  0.09523605  1.0
  Hf  Hf45  1  0.00000000  0.00000000  0.19523605  1.0
  Hf  Hf46  1  0.00000000  0.33333333  0.19523605  1.0
  Hf  Hf47  1  0.00000000  0.66666667  0.19523605  1.0
  Hf  Hf48  1  0.33333333  0.00000000  0.19523605  1.0
  Hf  Hf49  1  0.33333333  0.33333333  0.19523605  1.0
  Hf  Hf50  1  0.33333333  0.66666667  0.19523605  1.0
  Hf  Hf51  1  0.66666667  0.00000000  0.19523605  1.0
  Hf  Hf52  1  0.66666667  0.33333333  0.19523605  1.0
  Hf  Hf53  1  0.66666667  0.66666667  0.19523605  1.0
  Ni  Ni54  1  0.14362350  0.28545883  0.15791535  1.0
  Ni  Ni55  1  0.14362350  0.61879217  0.15791535  1.0
  Ni  Ni56  1  0.14362350  0.95212550  0.15791535  1.0
  Ni  Ni57  1  0.47695683  0.28545883  0.15791535  1.0
  Ni  Ni58  1  0.47695683  0.61879217  0.15791535  1.0
  Ni  Ni59  1  0.47695683  0.95212550  0.15791535  1.0
  Ni  Ni60  1  0.81029017  0.28545883  0.15791535  1.0
  Ni  Ni61  1  0.81029017  0.61879217  0.15791535  1.0
  Ni  Ni62  1  0.81029017  0.95212550  0.15791535  1.0
  Ni  Ni63  1  0.31029017  0.11879217  0.05791535  1.0
  Ni  Ni64  1  0.31029017  0.45212550  0.05791535  1.0
  Ni  Ni65  1  0.31029017  0.78545883  0.05791535  1.0
  Ni  Ni66  1  0.64362350  0.11879217  0.05791535  1.0
  Ni  Ni67  1  0.64362350  0.45212550  0.05791535  1.0
  Ni  Ni68  1  0.64362350  0.78545883  0.05791535  1.0
  Ni  Ni69  1  0.97695683  0.11879217  0.05791535  1.0
  Ni  Ni70  1  0.97695683  0.45212550  0.05791535  1.0
  Ni  Ni71  1  0.97695683  0.78545883  0.05791535  1.0
  Ni  Ni72  1  0.29978550  0.28545883  0.15791535  1.0
  Ni  Ni73  1  0.29978550  0.61879217  0.15791535  1.0
  Ni  Ni74  1  0.29978550  0.95212550  0.15791535  1.0
  Ni  Ni75  1  0.63311883  0.28545883  0.15791535  1.0
  Ni  Ni76  1  0.63311883  0.61879217  0.15791535  1.0
  Ni  Ni77  1  0.63311883  0.95212550  0.15791535  1.0
  Ni  Ni78  1  0.96645217  0.28545883  0.15791535  1.0
  Ni  Ni79  1  0.96645217  0.61879217  0.15791535  1.0
  Ni  Ni80  1  0.96645217  0.95212550  0.15791535  1.0
  Ni  Ni81  1  0.13311883  0.11879217  0.05791535  1.0
  Ni  Ni82  1  0.13311883  0.45212550  0.05791535  1.0
  Ni  Ni83  1  0.13311883  0.78545883  0.05791535  1.0
  Ni  Ni84  1  0.46645217  0.11879217  0.05791535  1.0
  Ni  Ni85  1  0.46645217  0.45212550  0.05791535  1.0
  Ni  Ni86  1  0.46645217  0.78545883  0.05791535  1.0
  Ni  Ni87  1  0.79978550  0.11879217  0.05791535  1.0
  Ni  Ni88  1  0.79978550  0.45212550  0.05791535  1.0
  Ni  Ni89  1  0.79978550  0.78545883  0.05791535  1.0
  Ni  Ni90  1  0.22170450  0.20737783  0.00476395  1.0
  Ni  Ni91  1  0.22170450  0.54071117  0.00476395  1.0
  Ni  Ni92  1  0.22170450  0.87404450  0.00476395  1.0
  Ni  Ni93  1  0.55503783  0.20737783  0.00476395  1.0
  Ni  Ni94  1  0.55503783  0.54071117  0.00476395  1.0
  Ni  Ni95  1  0.55503783  0.87404450  0.00476395  1.0
  Ni  Ni96  1  0.88837117  0.20737783  0.00476395  1.0
  Ni  Ni97  1  0.88837117  0.54071117  0.00476395  1.0
  Ni  Ni98  1  0.88837117  0.87404450  0.00476395  1.0
  Ni  Ni99  1  0.05503783  0.04071117  0.10476395  1.0
  Ni  Ni100  1  0.05503783  0.37404450  0.10476395  1.0
  Ni  Ni101  1  0.05503783  0.70737783  0.10476395  1.0
  Ni  Ni102  1  0.38837117  0.04071117  0.10476395  1.0
  Ni  Ni103  1  0.38837117  0.37404450  0.10476395  1.0
  Ni  Ni104  1  0.38837117  0.70737783  0.10476395  1.0
  Ni  Ni105  1  0.72170450  0.04071117  0.10476395  1.0
  Ni  Ni106  1  0.72170450  0.37404450  0.10476395  1.0
  Ni  Ni107  1  0.72170450  0.70737783  0.10476395  1.0
  Ni  Ni108  1  0.33333333  0.16666667  0.09523605  1.0
  Ni  Ni109  1  0.33333333  0.50000000  0.09523605  1.0
  Ni  Ni110  1  0.33333333  0.83333333  0.09523605  1.0
  Ni  Ni111  1  0.66666667  0.16666667  0.09523605  1.0
  Ni  Ni112  1  0.66666667  0.50000000  0.09523605  1.0
  Ni  Ni113  1  0.66666667  0.83333333  0.09523605  1.0
  Ni  Ni114  1  1.00000000  0.16666667  0.09523605  1.0
  Ni  Ni115  1  1.00000000  0.50000000  0.09523605  1.0
  Ni  Ni116  1  0.00000000  0.83333333  0.09523605  1.0
  Ni  Ni117  1  0.16666667  0.00000000  0.19523605  1.0
  Ni  Ni118  1  0.16666667  0.33333333  0.19523605  1.0
  Ni  Ni119  1  0.16666667  0.66666667  0.19523605  1.0
  Ni  Ni120  1  0.50000000  0.00000000  0.19523605  1.0
  Ni  Ni121  1  0.50000000  0.33333333  0.19523605  1.0
  Ni  Ni122  1  0.50000000  0.66666667  0.19523605  1.0
  Ni  Ni123  1  0.83333333  0.00000000  0.19523605  1.0
  Ni  Ni124  1  0.83333333  0.33333333  0.19523605  1.0
  Ni  Ni125  1  0.83333333  0.66666667  0.19523605  1.0
  Ni  Ni126  1  0.08333333  0.25000000  0.04523605  1.0
  Ni  Ni127  1  0.08333333  0.58333333  0.04523605  1.0
  Ni  Ni128  1  0.08333333  0.91666667  0.04523605  1.0
  Ni  Ni129  1  0.41666667  0.25000000  0.04523605  1.0
  Ni  Ni130  1  0.41666667  0.58333333  0.04523605  1.0
  Ni  Ni131  1  0.41666667  0.91666667  0.04523605  1.0
  Ni  Ni132  1  0.75000000  0.25000000  0.04523605  1.0
  Ni  Ni133  1  0.75000000  0.58333333  0.04523605  1.0
  Ni  Ni134  1  0.75000000  0.91666667  0.04523605  1.0
  Ni  Ni135  1  0.25000000  0.08333333  0.14523605  1.0
  Ni  Ni136  1  0.25000000  0.41666667  0.14523605  1.0
  Ni  Ni137  1  0.25000000  0.75000000  0.14523605  1.0
  Ni  Ni138  1  0.58333333  0.08333333  0.14523605  1.0
  Ni  Ni139  1  0.58333333  0.41666667  0.14523605  1.0
  Ni  Ni140  1  0.58333333  0.75000000  0.14523605  1.0
  Ni  Ni141  1  0.91666667  0.08333333  0.14523605  1.0
  Ni  Ni142  1  0.91666667  0.41666667  0.14523605  1.0
  Ni  Ni143  1  0.91666667  0.75000000  0.14523605  1.0
  Ni  Ni144  1  0.25000000  0.25000000  0.04523605  1.0
  Ni  Ni145  1  0.25000000  0.58333333  0.04523605  1.0
  Ni  Ni146  1  0.25000000  0.91666667  0.04523605  1.0
  Ni  Ni147  1  0.58333333  0.25000000  0.04523605  1.0
  Ni  Ni148  1  0.58333333  0.58333333  0.04523605  1.0
  Ni  Ni149  1  0.58333333  0.91666667  0.04523605  1.0
  Ni  Ni150  1  0.91666667  0.25000000  0.04523605  1.0
  Ni  Ni151  1  0.91666667  0.58333333  0.04523605  1.0
  Ni  Ni152  1  0.91666667  0.91666667  0.04523605  1.0
  Ni  Ni153  1  0.08333333  0.08333333  0.14523605  1.0
  Ni  Ni154  1  0.08333333  0.41666667  0.14523605  1.0
  Ni  Ni155  1  0.08333333  0.75000000  0.14523605  1.0
  Ni  Ni156  1  0.41666667  0.08333333  0.14523605  1.0
  Ni  Ni157  1  0.41666667  0.41666667  0.14523605  1.0
  Ni  Ni158  1  0.41666667  0.75000000  0.14523605  1.0
  Ni  Ni159  1  0.75000000  0.08333333  0.14523605  1.0
  Ni  Ni160  1  0.75000000  0.41666667  0.14523605  1.0
  Ni  Ni161  1  0.75000000  0.75000000  0.14523605  1.0
  Ni  Ni162  1  0.27829550  0.29262217  0.08570815  1.0
  Ni  Ni163  1  0.27829550  0.62595550  0.08570815  1.0
  Ni  Ni164  1  0.27829550  0.95928883  0.08570815  1.0
  Ni  Ni165  1  0.61162883  0.29262217  0.08570815  1.0
  Ni  Ni166  1  0.61162883  0.62595550  0.08570815  1.0
  Ni  Ni167  1  0.61162883  0.95928883  0.08570815  1.0
  Ni  Ni168  1  0.94496217  0.29262217  0.08570815  1.0
  Ni  Ni169  1  0.94496217  0.62595550  0.08570815  1.0
  Ni  Ni170  1  0.94496217  0.95928883  0.08570815  1.0
  Ni  Ni171  1  0.11162883  0.12595550  0.18570815  1.0
  Ni  Ni172  1  0.11162883  0.45928883  0.18570815  1.0
  Ni  Ni173  1  0.11162883  0.79262217  0.18570815  1.0
  Ni  Ni174  1  0.44496217  0.12595550  0.18570815  1.0
  Ni  Ni175  1  0.44496217  0.45928883  0.18570815  1.0
  Ni  Ni176  1  0.44496217  0.79262217  0.18570815  1.0
  Ni  Ni177  1  0.77829550  0.12595550  0.18570815  1.0
  Ni  Ni178  1  0.77829550  0.45928883  0.18570815  1.0
  Ni  Ni179  1  0.77829550  0.79262217  0.18570815  1.0
  Ni  Ni180  1  0.20021450  0.21454117  0.13255675  1.0
  Ni  Ni181  1  0.20021450  0.54787450  0.13255675  1.0
  Ni  Ni182  1  0.20021450  0.88120783  0.13255675  1.0
  Ni  Ni183  1  0.53354783  0.21454117  0.13255675  1.0
  Ni  Ni184  1  0.53354783  0.54787450  0.13255675  1.0
  Ni  Ni185  1  0.53354783  0.88120783  0.13255675  1.0
  Ni  Ni186  1  0.86688117  0.21454117  0.13255675  1.0
  Ni  Ni187  1  0.86688117  0.54787450  0.13255675  1.0
  Ni  Ni188  1  0.86688117  0.88120783  0.13255675  1.0
  Ni  Ni189  1  0.03354783  0.04787450  0.03255675  1.0
  Ni  Ni190  1  0.03354783  0.38120783  0.03255675  1.0
  Ni  Ni191  1  0.03354783  0.71454117  0.03255675  1.0
  Ni  Ni192  1  0.36688117  0.04787450  0.03255675  1.0
  Ni  Ni193  1  0.36688117  0.38120783  0.03255675  1.0
  Ni  Ni194  1  0.36688117  0.71454117  0.03255675  1.0
  Ni  Ni195  1  0.70021450  0.04787450  0.03255675  1.0
  Ni  Ni196  1  0.70021450  0.38120783  0.03255675  1.0
  Ni  Ni197  1  0.70021450  0.71454117  0.03255675  1.0
  Ni  Ni198  1  0.02304317  0.21454117  0.13255675  1.0
  Ni  Ni199  1  0.02304317  0.54787450  0.13255675  1.0
  Ni  Ni200  1  0.02304317  0.88120783  0.13255675  1.0
  Ni  Ni201  1  0.35637650  0.21454117  0.13255675  1.0
  Ni  Ni202  1  0.35637650  0.54787450  0.13255675  1.0
  Ni  Ni203  1  0.35637650  0.88120783  0.13255675  1.0
  Ni  Ni204  1  0.68970983  0.21454117  0.13255675  1.0
  Ni  Ni205  1  0.68970983  0.54787450  0.13255675  1.0
  Ni  Ni206  1  0.68970983  0.88120783  0.13255675  1.0
  Ni  Ni207  1  0.18970983  0.04787450  0.03255675  1.0
  Ni  Ni208  1  0.18970983  0.38120783  0.03255675  1.0
  Ni  Ni209  1  0.18970983  0.71454117  0.03255675  1.0
  Ni  Ni210  1  0.52304317  0.04787450  0.03255675  1.0
  Ni  Ni211  1  0.52304317  0.38120783  0.03255675  1.0
  Ni  Ni212  1  0.52304317  0.71454117  0.03255675  1.0
  Ni  Ni213  1  0.85637650  0.04787450  0.03255675  1.0
  Ni  Ni214  1  0.85637650  0.38120783  0.03255675  1.0
  Ni  Ni215  1  0.85637650  0.71454117  0.03255675  1.0
  Hf  Hf216  1  0.10938750  0.29687083  0.28584855  1.0
  Hf  Hf217  1  0.10938750  0.63020417  0.28584855  1.0
  Hf  Hf218  1  0.10938750  0.96353750  0.28584855  1.0
  Hf  Hf219  1  0.44272083  0.29687083  0.28584855  1.0
  Hf  Hf220  1  0.44272083  0.63020417  0.28584855  1.0
  Hf  Hf221  1  0.44272083  0.96353750  0.28584855  1.0
  Hf  Hf222  1  0.77605417  0.29687083  0.28584855  1.0
  Hf  Hf223  1  0.77605417  0.63020417  0.28584855  1.0
  Hf  Hf224  1  0.77605417  0.96353750  0.28584855  1.0
  Hf  Hf225  1  0.27605417  0.13020417  0.38584855  1.0
  Hf  Hf226  1  0.27605417  0.46353750  0.38584855  1.0
  Hf  Hf227  1  0.27605417  0.79687083  0.38584855  1.0
  Hf  Hf228  1  0.60938750  0.13020417  0.38584855  1.0
  Hf  Hf229  1  0.60938750  0.46353750  0.38584855  1.0
  Hf  Hf230  1  0.60938750  0.79687083  0.38584855  1.0
  Hf  Hf231  1  0.94272083  0.13020417  0.38584855  1.0
  Hf  Hf232  1  0.94272083  0.46353750  0.38584855  1.0
  Hf  Hf233  1  0.94272083  0.79687083  0.38584855  1.0
  Hf  Hf234  1  0.05727917  0.20312917  0.20462355  1.0
  Hf  Hf235  1  0.05727917  0.53646250  0.20462355  1.0
  Hf  Hf236  1  0.05727917  0.86979583  0.20462355  1.0
  Hf  Hf237  1  0.39061250  0.20312917  0.20462355  1.0
  Hf  Hf238  1  0.39061250  0.53646250  0.20462355  1.0
  Hf  Hf239  1  0.39061250  0.86979583  0.20462355  1.0
  Hf  Hf240  1  0.72394583  0.20312917  0.20462355  1.0
  Hf  Hf241  1  0.72394583  0.53646250  0.20462355  1.0
  Hf  Hf242  1  0.72394583  0.86979583  0.20462355  1.0
  Hf  Hf243  1  0.22394583  0.03646250  0.30462355  1.0
  Hf  Hf244  1  0.22394583  0.36979583  0.30462355  1.0
  Hf  Hf245  1  0.22394583  0.70312917  0.30462355  1.0
  Hf  Hf246  1  0.55727917  0.03646250  0.30462355  1.0
  Hf  Hf247  1  0.55727917  0.36979583  0.30462355  1.0
  Hf  Hf248  1  0.55727917  0.70312917  0.30462355  1.0
  Hf  Hf249  1  0.89061250  0.03646250  0.30462355  1.0
  Hf  Hf250  1  0.89061250  0.36979583  0.30462355  1.0
  Hf  Hf251  1  0.89061250  0.70312917  0.30462355  1.0
  Hf  Hf252  1  0.16666667  0.16666667  0.29523605  1.0
  Hf  Hf253  1  0.16666667  0.50000000  0.29523605  1.0
  Hf  Hf254  1  0.16666667  0.83333333  0.29523605  1.0
  Hf  Hf255  1  0.50000000  0.16666667  0.29523605  1.0
  Hf  Hf256  1  0.50000000  0.50000000  0.29523605  1.0
  Hf  Hf257  1  0.50000000  0.83333333  0.29523605  1.0
  Hf  Hf258  1  0.83333333  0.16666667  0.29523605  1.0
  Hf  Hf259  1  0.83333333  0.50000000  0.29523605  1.0
  Hf  Hf260  1  0.83333333  0.83333333  0.29523605  1.0
  Hf  Hf261  1  0.00000000  0.00000000  0.39523605  1.0
  Hf  Hf262  1  0.00000000  0.33333333  0.39523605  1.0
  Hf  Hf263  1  0.00000000  0.66666667  0.39523605  1.0
  Hf  Hf264  1  0.33333333  0.00000000  0.39523605  1.0
  Hf  Hf265  1  0.33333333  0.33333333  0.39523605  1.0
  Hf  Hf266  1  0.33333333  0.66666667  0.39523605  1.0
  Hf  Hf267  1  0.66666667  0.00000000  0.39523605  1.0
  Hf  Hf268  1  0.66666667  0.33333333  0.39523605  1.0
  Hf  Hf269  1  0.66666667  0.66666667  0.39523605  1.0
  Ni  Ni270  1  0.14362350  0.28545883  0.35791535  1.0
  Ni  Ni271  1  0.14362350  0.61879217  0.35791535  1.0
  Ni  Ni272  1  0.14362350  0.95212550  0.35791535  1.0
  Ni  Ni273  1  0.47695683  0.28545883  0.35791535  1.0
  Ni  Ni274  1  0.47695683  0.61879217  0.35791535  1.0
  Ni  Ni275  1  0.47695683  0.95212550  0.35791535  1.0
  Ni  Ni276  1  0.81029017  0.28545883  0.35791535  1.0
  Ni  Ni277  1  0.81029017  0.61879217  0.35791535  1.0
  Ni  Ni278  1  0.81029017  0.95212550  0.35791535  1.0
  Ni  Ni279  1  0.31029017  0.11879217  0.25791535  1.0
  Ni  Ni280  1  0.31029017  0.45212550  0.25791535  1.0
  Ni  Ni281  1  0.31029017  0.78545883  0.25791535  1.0
  Ni  Ni282  1  0.64362350  0.11879217  0.25791535  1.0
  Ni  Ni283  1  0.64362350  0.45212550  0.25791535  1.0
  Ni  Ni284  1  0.64362350  0.78545883  0.25791535  1.0
  Ni  Ni285  1  0.97695683  0.11879217  0.25791535  1.0
  Ni  Ni286  1  0.97695683  0.45212550  0.25791535  1.0
  Ni  Ni287  1  0.97695683  0.78545883  0.25791535  1.0
  Ni  Ni288  1  0.29978550  0.28545883  0.35791535  1.0
  Ni  Ni289  1  0.29978550  0.61879217  0.35791535  1.0
  Ni  Ni290  1  0.29978550  0.95212550  0.35791535  1.0
  Ni  Ni291  1  0.63311883  0.28545883  0.35791535  1.0
  Ni  Ni292  1  0.63311883  0.61879217  0.35791535  1.0
  Ni  Ni293  1  0.63311883  0.95212550  0.35791535  1.0
  Ni  Ni294  1  0.96645217  0.28545883  0.35791535  1.0
  Ni  Ni295  1  0.96645217  0.61879217  0.35791535  1.0
  Ni  Ni296  1  0.96645217  0.95212550  0.35791535  1.0
  Ni  Ni297  1  0.13311883  0.11879217  0.25791535  1.0
  Ni  Ni298  1  0.13311883  0.45212550  0.25791535  1.0
  Ni  Ni299  1  0.13311883  0.78545883  0.25791535  1.0
  Ni  Ni300  1  0.46645217  0.11879217  0.25791535  1.0
  Ni  Ni301  1  0.46645217  0.45212550  0.25791535  1.0
  Ni  Ni302  1  0.46645217  0.78545883  0.25791535  1.0
  Ni  Ni303  1  0.79978550  0.11879217  0.25791535  1.0
  Ni  Ni304  1  0.79978550  0.45212550  0.25791535  1.0
  Ni  Ni305  1  0.79978550  0.78545883  0.25791535  1.0
  Ni  Ni306  1  0.22170450  0.20737783  0.20476395  1.0
  Ni  Ni307  1  0.22170450  0.54071117  0.20476395  1.0
  Ni  Ni308  1  0.22170450  0.87404450  0.20476395  1.0
  Ni  Ni309  1  0.55503783  0.20737783  0.20476395  1.0
  Ni  Ni310  1  0.55503783  0.54071117  0.20476395  1.0
  Ni  Ni311  1  0.55503783  0.87404450  0.20476395  1.0
  Ni  Ni312  1  0.88837117  0.20737783  0.20476395  1.0
  Ni  Ni313  1  0.88837117  0.54071117  0.20476395  1.0
  Ni  Ni314  1  0.88837117  0.87404450  0.20476395  1.0
  Ni  Ni315  1  0.05503783  0.04071117  0.30476395  1.0
  Ni  Ni316  1  0.05503783  0.37404450  0.30476395  1.0
  Ni  Ni317  1  0.05503783  0.70737783  0.30476395  1.0
  Ni  Ni318  1  0.38837117  0.04071117  0.30476395  1.0
  Ni  Ni319  1  0.38837117  0.37404450  0.30476395  1.0
  Ni  Ni320  1  0.38837117  0.70737783  0.30476395  1.0
  Ni  Ni321  1  0.72170450  0.04071117  0.30476395  1.0
  Ni  Ni322  1  0.72170450  0.37404450  0.30476395  1.0
  Ni  Ni323  1  0.72170450  0.70737783  0.30476395  1.0
  Ni  Ni324  1  0.33333333  0.16666667  0.29523605  1.0
  Ni  Ni325  1  0.33333333  0.50000000  0.29523605  1.0
  Ni  Ni326  1  0.33333333  0.83333333  0.29523605  1.0
  Ni  Ni327  1  0.66666667  0.16666667  0.29523605  1.0
  Ni  Ni328  1  0.66666667  0.50000000  0.29523605  1.0
  Ni  Ni329  1  0.66666667  0.83333333  0.29523605  1.0
  Ni  Ni330  1  1.00000000  0.16666667  0.29523605  1.0
  Ni  Ni331  1  1.00000000  0.50000000  0.29523605  1.0
  Ni  Ni332  1  0.00000000  0.83333333  0.29523605  1.0
  Ni  Ni333  1  0.16666667  0.00000000  0.39523605  1.0
  Ni  Ni334  1  0.16666667  0.33333333  0.39523605  1.0
  Ni  Ni335  1  0.16666667  0.66666667  0.39523605  1.0
  Ni  Ni336  1  0.50000000  0.00000000  0.39523605  1.0
  Ni  Ni337  1  0.50000000  0.33333333  0.39523605  1.0
  Ni  Ni338  1  0.50000000  0.66666667  0.39523605  1.0
  Ni  Ni339  1  0.83333333  0.00000000  0.39523605  1.0
  Ni  Ni340  1  0.83333333  0.33333333  0.39523605  1.0
  Ni  Ni341  1  0.83333333  0.66666667  0.39523605  1.0
  Ni  Ni342  1  0.08333333  0.25000000  0.24523605  1.0
  Ni  Ni343  1  0.08333333  0.58333333  0.24523605  1.0
  Ni  Ni344  1  0.08333333  0.91666667  0.24523605  1.0
  Ni  Ni345  1  0.41666667  0.25000000  0.24523605  1.0
  Ni  Ni346  1  0.41666667  0.58333333  0.24523605  1.0
  Ni  Ni347  1  0.41666667  0.91666667  0.24523605  1.0
  Ni  Ni348  1  0.75000000  0.25000000  0.24523605  1.0
  Ni  Ni349  1  0.75000000  0.58333333  0.24523605  1.0
  Ni  Ni350  1  0.75000000  0.91666667  0.24523605  1.0
  Ni  Ni351  1  0.25000000  0.08333333  0.34523605  1.0
  Ni  Ni352  1  0.25000000  0.41666667  0.34523605  1.0
  Ni  Ni353  1  0.25000000  0.75000000  0.34523605  1.0
  Ni  Ni354  1  0.58333333  0.08333333  0.34523605  1.0
  Ni  Ni355  1  0.58333333  0.41666667  0.34523605  1.0
  Ni  Ni356  1  0.58333333  0.75000000  0.34523605  1.0
  Ni  Ni357  1  0.91666667  0.08333333  0.34523605  1.0
  Ni  Ni358  1  0.91666667  0.41666667  0.34523605  1.0
  Ni  Ni359  1  0.91666667  0.75000000  0.34523605  1.0
  Ni  Ni360  1  0.25000000  0.25000000  0.24523605  1.0
  Ni  Ni361  1  0.25000000  0.58333333  0.24523605  1.0
  Ni  Ni362  1  0.25000000  0.91666667  0.24523605  1.0
  Ni  Ni363  1  0.58333333  0.25000000  0.24523605  1.0
  Ni  Ni364  1  0.58333333  0.58333333  0.24523605  1.0
  Ni  Ni365  1  0.58333333  0.91666667  0.24523605  1.0
  Ni  Ni366  1  0.91666667  0.25000000  0.24523605  1.0
  Ni  Ni367  1  0.91666667  0.58333333  0.24523605  1.0
  Ni  Ni368  1  0.91666667  0.91666667  0.24523605  1.0
  Ni  Ni369  1  0.08333333  0.08333333  0.34523605  1.0
  Ni  Ni370  1  0.08333333  0.41666667  0.34523605  1.0
  Ni  Ni371  1  0.08333333  0.75000000  0.34523605  1.0
  Ni  Ni372  1  0.41666667  0.08333333  0.34523605  1.0
  Ni  Ni373  1  0.41666667  0.41666667  0.34523605  1.0
  Ni  Ni374  1  0.41666667  0.75000000  0.34523605  1.0
  Ni  Ni375  1  0.75000000  0.08333333  0.34523605  1.0
  Ni  Ni376  1  0.75000000  0.41666667  0.34523605  1.0
  Ni  Ni377  1  0.75000000  0.75000000  0.34523605  1.0
  Ni  Ni378  1  0.27829550  0.29262217  0.28570815  1.0
  Ni  Ni379  1  0.27829550  0.62595550  0.28570815  1.0
  Ni  Ni380  1  0.27829550  0.95928883  0.28570815  1.0
  Ni  Ni381  1  0.61162883  0.29262217  0.28570815  1.0
  Ni  Ni382  1  0.61162883  0.62595550  0.28570815  1.0
  Ni  Ni383  1  0.61162883  0.95928883  0.28570815  1.0
  Ni  Ni384  1  0.94496217  0.29262217  0.28570815  1.0
  Ni  Ni385  1  0.94496217  0.62595550  0.28570815  1.0
  Ni  Ni386  1  0.94496217  0.95928883  0.28570815  1.0
  Ni  Ni387  1  0.11162883  0.12595550  0.38570815  1.0
  Ni  Ni388  1  0.11162883  0.45928883  0.38570815  1.0
  Ni  Ni389  1  0.11162883  0.79262217  0.38570815  1.0
  Ni  Ni390  1  0.44496217  0.12595550  0.38570815  1.0
  Ni  Ni391  1  0.44496217  0.45928883  0.38570815  1.0
  Ni  Ni392  1  0.44496217  0.79262217  0.38570815  1.0
  Ni  Ni393  1  0.77829550  0.12595550  0.38570815  1.0
  Ni  Ni394  1  0.77829550  0.45928883  0.38570815  1.0
  Ni  Ni395  1  0.77829550  0.79262217  0.38570815  1.0
  Ni  Ni396  1  0.20021450  0.21454117  0.33255675  1.0
  Ni  Ni397  1  0.20021450  0.54787450  0.33255675  1.0
  Ni  Ni398  1  0.20021450  0.88120783  0.33255675  1.0
  Ni  Ni399  1  0.53354783  0.21454117  0.33255675  1.0
  Ni  Ni400  1  0.53354783  0.54787450  0.33255675  1.0
  Ni  Ni401  1  0.53354783  0.88120783  0.33255675  1.0
  Ni  Ni402  1  0.86688117  0.21454117  0.33255675  1.0
  Ni  Ni403  1  0.86688117  0.54787450  0.33255675  1.0
  Ni  Ni404  1  0.86688117  0.88120783  0.33255675  1.0
  Ni  Ni405  1  0.03354783  0.04787450  0.23255675  1.0
  Ni  Ni406  1  0.03354783  0.38120783  0.23255675  1.0
  Ni  Ni407  1  0.03354783  0.71454117  0.23255675  1.0
  Ni  Ni408  1  0.36688117  0.04787450  0.23255675  1.0
  Ni  Ni409  1  0.36688117  0.38120783  0.23255675  1.0
  Ni  Ni410  1  0.36688117  0.71454117  0.23255675  1.0
  Ni  Ni411  1  0.70021450  0.04787450  0.23255675  1.0
  Ni  Ni412  1  0.70021450  0.38120783  0.23255675  1.0
  Ni  Ni413  1  0.70021450  0.71454117  0.23255675  1.0
  Ni  Ni414  1  0.02304317  0.21454117  0.33255675  1.0
  Ni  Ni415  1  0.02304317  0.54787450  0.33255675  1.0
  Ni  Ni416  1  0.02304317  0.88120783  0.33255675  1.0
  Ni  Ni417  1  0.35637650  0.21454117  0.33255675  1.0
  Ni  Ni418  1  0.35637650  0.54787450  0.33255675  1.0
  Ni  Ni419  1  0.35637650  0.88120783  0.33255675  1.0
  Ni  Ni420  1  0.68970983  0.21454117  0.33255675  1.0
  Ni  Ni421  1  0.68970983  0.54787450  0.33255675  1.0
  Ni  Ni422  1  0.68970983  0.88120783  0.33255675  1.0
  Ni  Ni423  1  0.18970983  0.04787450  0.23255675  1.0
  Ni  Ni424  1  0.18970983  0.38120783  0.23255675  1.0
  Ni  Ni425  1  0.18970983  0.71454117  0.23255675  1.0
  Ni  Ni426  1  0.52304317  0.04787450  0.23255675  1.0
  Ni  Ni427  1  0.52304317  0.38120783  0.23255675  1.0
  Ni  Ni428  1  0.52304317  0.71454117  0.23255675  1.0
  Ni  Ni429  1  0.85637650  0.04787450  0.23255675  1.0
  Ni  Ni430  1  0.85637650  0.38120783  0.23255675  1.0
  Ni  Ni431  1  0.85637650  0.71454117  0.23255675  1.0
