# generated using pymatgen
data_HfNi5
_symmetry_space_group_name_H-M   'P 1'
_cell_length_a   19.98301201
_cell_length_b   24.47409147
_cell_length_c   29.78891550
_cell_angle_alpha   90.00000000
_cell_angle_beta   90.00000000
_cell_angle_gamma   114.09484255
_symmetry_Int_Tables_number   1
_chemical_formula_structural   HfNi5
_chemical_formula_sum   'Hf72 Ni360'
_cell_volume   13299.38620207
_cell_formula_units_Z   72
loop_
 _symmetry_equiv_pos_site_id
 _symmetry_equiv_pos_as_xyz
  1  'x, y, z'
loop_
 _atom_site_type_symbol
 _atom_site_label
 _atom_site_symmetry_multiplicity
 _atom_site_fract_x
 _atom_site_fract_y
 _atom_site_fract_z
 _atom_site_occupancy
  Hf  Hf0  1  0.08758283  0.19586094  0.04379142  1.0
  Hf  Hf1  1  0.08758283  0.52919428  0.04379142  1.0
  Hf  Hf2  1  0.08758283  0.86252761  0.04379142  1.0
  Hf  Hf3  1  0.42091617  0.19586094  0.04379142  1.0
  Hf  Hf4  1  0.42091617  0.52919428  0.04379142  1.0
  Hf  Hf5  1  0.42091617  0.86252761  0.04379142  1.0
  Hf  Hf6  1  0.75424950  0.19586094  0.04379142  1.0
  Hf  Hf7  1  0.75424950  0.52919428  0.04379142  1.0
  Hf  Hf8  1  0.75424950  0.86252761  0.04379142  1.0
  Hf  Hf9  1  0.18758283  0.06252761  0.09379142  1.0
  Hf  Hf10  1  0.18758283  0.39586094  0.09379142  1.0
  Hf  Hf11  1  0.18758283  0.72919428  0.09379142  1.0
  Hf  Hf12  1  0.52091617  0.06252761  0.09379142  1.0
  Hf  Hf13  1  0.52091617  0.39586094  0.09379142  1.0
  Hf  Hf14  1  0.52091617  0.72919428  0.09379142  1.0
  Hf  Hf15  1  0.85424950  0.06252761  0.09379142  1.0
  Hf  Hf16  1  0.85424950  0.39586094  0.09379142  1.0
  Hf  Hf17  1  0.85424950  0.72919428  0.09379142  1.0
  Hf  Hf18  1  0.28758283  0.26252761  0.14379142  1.0
  Hf  Hf19  1  0.28758283  0.59586094  0.14379142  1.0
  Hf  Hf20  1  0.28758283  0.92919428  0.14379142  1.0
  Hf  Hf21  1  0.62091617  0.26252761  0.14379142  1.0
  Hf  Hf22  1  0.62091617  0.59586094  0.14379142  1.0
  Hf  Hf23  1  0.62091617  0.92919428  0.14379142  1.0
  Hf  Hf24  1  0.95424950  0.26252761  0.14379142  1.0
  Hf  Hf25  1  0.95424950  0.59586094  0.14379142  1.0
  Hf  Hf26  1  0.95424950  0.92919428  0.14379142  1.0
  Hf  Hf27  1  0.05424950  0.12919428  0.19379142  1.0
  Hf  Hf28  1  0.05424950  0.46252761  0.19379142  1.0
  Hf  Hf29  1  0.05424950  0.79586094  0.19379142  1.0
  Hf  Hf30  1  0.38758283  0.12919428  0.19379142  1.0
  Hf  Hf31  1  0.38758283  0.46252761  0.19379142  1.0
  Hf  Hf32  1  0.38758283  0.79586094  0.19379142  1.0
  Hf  Hf33  1  0.72091617  0.12919428  0.19379142  1.0
  Hf  Hf34  1  0.72091617  0.46252761  0.19379142  1.0
  Hf  Hf35  1  0.72091617  0.79586094  0.19379142  1.0
  Hf  Hf36  1  0.15424950  0.32919428  0.24379142  1.0
  Hf  Hf37  1  0.15424950  0.66252761  0.24379142  1.0
  Hf  Hf38  1  0.15424950  0.99586094  0.24379142  1.0
  Hf  Hf39  1  0.48758283  0.32919428  0.24379142  1.0
  Hf  Hf40  1  0.48758283  0.66252761  0.24379142  1.0
  Hf  Hf41  1  0.48758283  0.99586094  0.24379142  1.0
  Hf  Hf42  1  0.82091617  0.32919428  0.24379142  1.0
  Hf  Hf43  1  0.82091617  0.66252761  0.24379142  1.0
  Hf  Hf44  1  0.82091617  0.99586094  0.24379142  1.0
  Hf  Hf45  1  0.25424950  0.19586094  0.29379142  1.0
  Hf  Hf46  1  0.25424950  0.52919428  0.29379142  1.0
  Hf  Hf47  1  0.25424950  0.86252761  0.29379142  1.0
  Hf  Hf48  1  0.58758283  0.19586094  0.29379142  1.0
  Hf  Hf49  1  0.58758283  0.52919428  0.29379142  1.0
  Hf  Hf50  1  0.58758283  0.86252761  0.29379142  1.0
  Hf  Hf51  1  0.92091617  0.19586094  0.29379142  1.0
  Hf  Hf52  1  0.92091617  0.52919428  0.29379142  1.0
  Hf  Hf53  1  0.92091617  0.86252761  0.29379142  1.0
  Hf  Hf54  1  0.02091617  0.06252761  0.34379142  1.0
  Hf  Hf55  1  0.02091617  0.39586094  0.34379142  1.0
  Hf  Hf56  1  0.02091617  0.72919428  0.34379142  1.0
  Hf  Hf57  1  0.35424950  0.06252761  0.34379142  1.0
  Hf  Hf58  1  0.35424950  0.39586094  0.34379142  1.0
  Hf  Hf59  1  0.35424950  0.72919428  0.34379142  1.0
  Hf  Hf60  1  0.68758283  0.06252761  0.34379142  1.0
  Hf  Hf61  1  0.68758283  0.39586094  0.34379142  1.0
  Hf  Hf62  1  0.68758283  0.72919428  0.34379142  1.0
  Hf  Hf63  1  0.12091617  0.26252761  0.39379142  1.0
  Hf  Hf64  1  0.12091617  0.59586094  0.39379142  1.0
  Hf  Hf65  1  0.12091617  0.92919428  0.39379142  1.0
  Hf  Hf66  1  0.45424950  0.26252761  0.39379142  1.0
  Hf  Hf67  1  0.45424950  0.59586094  0.39379142  1.0
  Hf  Hf68  1  0.45424950  0.92919428  0.39379142  1.0
  Hf  Hf69  1  0.78758283  0.26252761  0.39379142  1.0
  Hf  Hf70  1  0.78758283  0.59586094  0.39379142  1.0
  Hf  Hf71  1  0.78758283  0.92919428  0.39379142  1.0
  Ni  Ni72  1  0.10458083  0.31263806  0.03104292  1.0
  Ni  Ni73  1  0.10458083  0.64597139  0.03104292  1.0
  Ni  Ni74  1  0.10458083  0.97930472  0.03104292  1.0
  Ni  Ni75  1  0.43791417  0.31263806  0.03104292  1.0
  Ni  Ni76  1  0.43791417  0.64597139  0.03104292  1.0
  Ni  Ni77  1  0.43791417  0.97930472  0.03104292  1.0
  Ni  Ni78  1  0.77124750  0.31263806  0.03104292  1.0
  Ni  Ni79  1  0.77124750  0.64597139  0.03104292  1.0
  Ni  Ni80  1  0.77124750  0.97930472  0.03104292  1.0
  Ni  Ni81  1  0.20458083  0.17930472  0.08104292  1.0
  Ni  Ni82  1  0.20458083  0.51263806  0.08104292  1.0
  Ni  Ni83  1  0.20458083  0.84597139  0.08104292  1.0
  Ni  Ni84  1  0.53791417  0.17930472  0.08104292  1.0
  Ni  Ni85  1  0.53791417  0.51263806  0.08104292  1.0
  Ni  Ni86  1  0.53791417  0.84597139  0.08104292  1.0
  Ni  Ni87  1  0.87124750  0.17930472  0.08104292  1.0
  Ni  Ni88  1  0.87124750  0.51263806  0.08104292  1.0
  Ni  Ni89  1  0.87124750  0.84597139  0.08104292  1.0
  Ni  Ni90  1  0.32113706  0.07908383  0.05653992  1.0
  Ni  Ni91  1  0.32113706  0.41241717  0.05653992  1.0
  Ni  Ni92  1  0.32113706  0.74575050  0.05653992  1.0
  Ni  Ni93  1  0.65447039  0.07908383  0.05653992  1.0
  Ni  Ni94  1  0.65447039  0.41241717  0.05653992  1.0
  Ni  Ni95  1  0.65447039  0.74575050  0.05653992  1.0
  Ni  Ni96  1  0.98780372  0.07908383  0.05653992  1.0
  Ni  Ni97  1  0.98780372  0.41241717  0.05653992  1.0
  Ni  Ni98  1  0.98780372  0.74575050  0.05653992  1.0
  Ni  Ni99  1  0.22113706  0.21241717  0.00653992  1.0
  Ni  Ni100  1  0.22113706  0.54575050  0.00653992  1.0
  Ni  Ni101  1  0.22113706  0.87908383  0.00653992  1.0
  Ni  Ni102  1  0.55447039  0.21241717  0.00653992  1.0
  Ni  Ni103  1  0.55447039  0.54575050  0.00653992  1.0
  Ni  Ni104  1  0.55447039  0.87908383  0.00653992  1.0
  Ni  Ni105  1  0.88780372  0.21241717  0.00653992  1.0
  Ni  Ni106  1  0.88780372  0.54575050  0.00653992  1.0
  Ni  Ni107  1  0.88780372  0.87908383  0.00653992  1.0
  Ni  Ni108  1  0.22091617  0.29586094  0.06879142  1.0
  Ni  Ni109  1  0.22091617  0.62919428  0.06879142  1.0
  Ni  Ni110  1  0.22091617  0.96252761  0.06879142  1.0
  Ni  Ni111  1  0.55424950  0.29586094  0.06879142  1.0
  Ni  Ni112  1  0.55424950  0.62919428  0.06879142  1.0
  Ni  Ni113  1  0.55424950  0.96252761  0.06879142  1.0
  Ni  Ni114  1  0.88758283  0.29586094  0.06879142  1.0
  Ni  Ni115  1  0.88758283  0.62919428  0.06879142  1.0
  Ni  Ni116  1  0.88758283  0.96252761  0.06879142  1.0
  Ni  Ni117  1  0.12091617  0.09586094  0.01879142  1.0
  Ni  Ni118  1  0.12091617  0.42919428  0.01879142  1.0
  Ni  Ni119  1  0.12091617  0.76252761  0.01879142  1.0
  Ni  Ni120  1  0.45424950  0.09586094  0.01879142  1.0
  Ni  Ni121  1  0.45424950  0.42919428  0.01879142  1.0
  Ni  Ni122  1  0.45424950  0.76252761  0.01879142  1.0
  Ni  Ni123  1  0.78758283  0.09586094  0.01879142  1.0
  Ni  Ni124  1  0.78758283  0.42919428  0.01879142  1.0
  Ni  Ni125  1  0.78758283  0.76252761  0.01879142  1.0
  Ni  Ni126  1  0.22047439  0.04552961  0.00620858  1.0
  Ni  Ni127  1  0.22047439  0.37886295  0.00620858  1.0
  Ni  Ni128  1  0.22047439  0.71219628  0.00620858  1.0
  Ni  Ni129  1  0.55380772  0.04552961  0.00620858  1.0
  Ni  Ni130  1  0.55380772  0.37886295  0.00620858  1.0
  Ni  Ni131  1  0.55380772  0.71219628  0.00620858  1.0
  Ni  Ni132  1  0.88714106  0.04552961  0.00620858  1.0
  Ni  Ni133  1  0.88714106  0.37886295  0.00620858  1.0
  Ni  Ni134  1  0.88714106  0.71219628  0.00620858  1.0
  Ni  Ni135  1  0.32047439  0.24552961  0.05620858  1.0
  Ni  Ni136  1  0.32047439  0.57886295  0.05620858  1.0
  Ni  Ni137  1  0.32047439  0.91219628  0.05620858  1.0
  Ni  Ni138  1  0.65380772  0.24552961  0.05620858  1.0
  Ni  Ni139  1  0.65380772  0.57886295  0.05620858  1.0
  Ni  Ni140  1  0.65380772  0.91219628  0.05620858  1.0
  Ni  Ni141  1  0.98714106  0.24552961  0.05620858  1.0
  Ni  Ni142  1  0.98714106  0.57886295  0.05620858  1.0
  Ni  Ni143  1  0.98714106  0.91219628  0.05620858  1.0
  Ni  Ni144  1  0.03747239  0.01285895  0.08137425  1.0
  Ni  Ni145  1  0.03747239  0.34619228  0.08137425  1.0
  Ni  Ni146  1  0.03747239  0.67952561  0.08137425  1.0
  Ni  Ni147  1  0.37080572  0.01285895  0.08137425  1.0
  Ni  Ni148  1  0.37080572  0.34619228  0.08137425  1.0
  Ni  Ni149  1  0.37080572  0.67952561  0.08137425  1.0
  Ni  Ni150  1  0.70413906  0.01285895  0.08137425  1.0
  Ni  Ni151  1  0.70413906  0.34619228  0.08137425  1.0
  Ni  Ni152  1  0.70413906  0.67952561  0.08137425  1.0
  Ni  Ni153  1  0.27080572  0.14619228  0.03137425  1.0
  Ni  Ni154  1  0.27080572  0.47952561  0.03137425  1.0
  Ni  Ni155  1  0.27080572  0.81285894  0.03137425  1.0
  Ni  Ni156  1  0.60413906  0.14619228  0.03137425  1.0
  Ni  Ni157  1  0.60413906  0.47952561  0.03137425  1.0
  Ni  Ni158  1  0.60413906  0.81285894  0.03137425  1.0
  Ni  Ni159  1  0.93747239  0.14619228  0.03137425  1.0
  Ni  Ni160  1  0.93747239  0.47952561  0.03137425  1.0
  Ni  Ni161  1  0.93747239  0.81285894  0.03137425  1.0
  Ni  Ni162  1  0.30458083  0.04597139  0.13104292  1.0
  Ni  Ni163  1  0.30458083  0.37930472  0.13104292  1.0
  Ni  Ni164  1  0.30458083  0.71263806  0.13104292  1.0
  Ni  Ni165  1  0.63791417  0.04597139  0.13104292  1.0
  Ni  Ni166  1  0.63791417  0.37930472  0.13104292  1.0
  Ni  Ni167  1  0.63791417  0.71263806  0.13104292  1.0
  Ni  Ni168  1  0.97124750  0.04597139  0.13104292  1.0
  Ni  Ni169  1  0.97124750  0.37930472  0.13104292  1.0
  Ni  Ni170  1  0.97124750  0.71263806  0.13104292  1.0
  Ni  Ni171  1  0.07124750  0.24597139  0.18104292  1.0
  Ni  Ni172  1  0.07124750  0.57930472  0.18104292  1.0
  Ni  Ni173  1  0.07124750  0.91263806  0.18104292  1.0
  Ni  Ni174  1  0.40458083  0.24597139  0.18104292  1.0
  Ni  Ni175  1  0.40458083  0.57930472  0.18104292  1.0
  Ni  Ni176  1  0.40458083  0.91263806  0.18104292  1.0
  Ni  Ni177  1  0.73791417  0.24597139  0.18104292  1.0
  Ni  Ni178  1  0.73791417  0.57930472  0.18104292  1.0
  Ni  Ni179  1  0.73791417  0.91263806  0.18104292  1.0
  Ni  Ni180  1  0.18780372  0.14575050  0.15653992  1.0
  Ni  Ni181  1  0.18780372  0.47908383  0.15653992  1.0
  Ni  Ni182  1  0.18780372  0.81241717  0.15653992  1.0
  Ni  Ni183  1  0.52113706  0.14575050  0.15653992  1.0
  Ni  Ni184  1  0.52113706  0.47908383  0.15653992  1.0
  Ni  Ni185  1  0.52113706  0.81241717  0.15653992  1.0
  Ni  Ni186  1  0.85447039  0.14575050  0.15653992  1.0
  Ni  Ni187  1  0.85447039  0.47908383  0.15653992  1.0
  Ni  Ni188  1  0.85447039  0.81241717  0.15653992  1.0
  Ni  Ni189  1  0.08780372  0.27908383  0.10653992  1.0
  Ni  Ni190  1  0.08780372  0.61241717  0.10653992  1.0
  Ni  Ni191  1  0.08780372  0.94575050  0.10653992  1.0
  Ni  Ni192  1  0.42113706  0.27908383  0.10653992  1.0
  Ni  Ni193  1  0.42113706  0.61241717  0.10653992  1.0
  Ni  Ni194  1  0.42113706  0.94575050  0.10653992  1.0
  Ni  Ni195  1  0.75447039  0.27908383  0.10653992  1.0
  Ni  Ni196  1  0.75447039  0.61241717  0.10653992  1.0
  Ni  Ni197  1  0.75447039  0.94575050  0.10653992  1.0
  Ni  Ni198  1  0.08758283  0.02919428  0.16879142  1.0
  Ni  Ni199  1  0.08758283  0.36252761  0.16879142  1.0
  Ni  Ni200  1  0.08758283  0.69586094  0.16879142  1.0
  Ni  Ni201  1  0.42091617  0.02919428  0.16879142  1.0
  Ni  Ni202  1  0.42091617  0.36252761  0.16879142  1.0
  Ni  Ni203  1  0.42091617  0.69586094  0.16879142  1.0
  Ni  Ni204  1  0.75424950  0.02919428  0.16879142  1.0
  Ni  Ni205  1  0.75424950  0.36252761  0.16879142  1.0
  Ni  Ni206  1  0.75424950  0.69586094  0.16879142  1.0
  Ni  Ni207  1  0.32091617  0.16252761  0.11879142  1.0
  Ni  Ni208  1  0.32091617  0.49586094  0.11879142  1.0
  Ni  Ni209  1  0.32091617  0.82919428  0.11879142  1.0
  Ni  Ni210  1  0.65424950  0.16252761  0.11879142  1.0
  Ni  Ni211  1  0.65424950  0.49586094  0.11879142  1.0
  Ni  Ni212  1  0.65424950  0.82919428  0.11879142  1.0
  Ni  Ni213  1  0.98758283  0.16252761  0.11879142  1.0
  Ni  Ni214  1  0.98758283  0.49586094  0.11879142  1.0
  Ni  Ni215  1  0.98758283  0.82919428  0.11879142  1.0
  Ni  Ni216  1  0.08714106  0.11219628  0.10620858  1.0
  Ni  Ni217  1  0.08714106  0.44552961  0.10620858  1.0
  Ni  Ni218  1  0.08714106  0.77886295  0.10620858  1.0
  Ni  Ni219  1  0.42047439  0.11219628  0.10620858  1.0
  Ni  Ni220  1  0.42047439  0.44552961  0.10620858  1.0
  Ni  Ni221  1  0.42047439  0.77886295  0.10620858  1.0
  Ni  Ni222  1  0.75380772  0.11219628  0.10620858  1.0
  Ni  Ni223  1  0.75380772  0.44552961  0.10620858  1.0
  Ni  Ni224  1  0.75380772  0.77886295  0.10620858  1.0
  Ni  Ni225  1  0.18714106  0.31219628  0.15620858  1.0
  Ni  Ni226  1  0.18714106  0.64552961  0.15620858  1.0
  Ni  Ni227  1  0.18714106  0.97886295  0.15620858  1.0
  Ni  Ni228  1  0.52047439  0.31219628  0.15620858  1.0
  Ni  Ni229  1  0.52047439  0.64552961  0.15620858  1.0
  Ni  Ni230  1  0.52047439  0.97886295  0.15620858  1.0
  Ni  Ni231  1  0.85380772  0.31219628  0.15620858  1.0
  Ni  Ni232  1  0.85380772  0.64552961  0.15620858  1.0
  Ni  Ni233  1  0.85380772  0.97886295  0.15620858  1.0
  Ni  Ni234  1  0.23747239  0.07952561  0.18137425  1.0
  Ni  Ni235  1  0.23747239  0.41285895  0.18137425  1.0
  Ni  Ni236  1  0.23747239  0.74619228  0.18137425  1.0
  Ni  Ni237  1  0.57080572  0.07952561  0.18137425  1.0
  Ni  Ni238  1  0.57080572  0.41285895  0.18137425  1.0
  Ni  Ni239  1  0.57080572  0.74619228  0.18137425  1.0
  Ni  Ni240  1  0.90413906  0.07952561  0.18137425  1.0
  Ni  Ni241  1  0.90413906  0.41285895  0.18137425  1.0
  Ni  Ni242  1  0.90413906  0.74619228  0.18137425  1.0
  Ni  Ni243  1  0.13747239  0.21285895  0.13137425  1.0
  Ni  Ni244  1  0.13747239  0.54619228  0.13137425  1.0
  Ni  Ni245  1  0.13747239  0.87952561  0.13137425  1.0
  Ni  Ni246  1  0.47080572  0.21285895  0.13137425  1.0
  Ni  Ni247  1  0.47080572  0.54619228  0.13137425  1.0
  Ni  Ni248  1  0.47080572  0.87952561  0.13137425  1.0
  Ni  Ni249  1  0.80413906  0.21285895  0.13137425  1.0
  Ni  Ni250  1  0.80413906  0.54619228  0.13137425  1.0
  Ni  Ni251  1  0.80413906  0.87952561  0.13137425  1.0
  Ni  Ni252  1  0.17124750  0.11263806  0.23104292  1.0
  Ni  Ni253  1  0.17124750  0.44597139  0.23104292  1.0
  Ni  Ni254  1  0.17124750  0.77930472  0.23104292  1.0
  Ni  Ni255  1  0.50458083  0.11263806  0.23104292  1.0
  Ni  Ni256  1  0.50458083  0.44597139  0.23104292  1.0
  Ni  Ni257  1  0.50458083  0.77930472  0.23104292  1.0
  Ni  Ni258  1  0.83791417  0.11263806  0.23104292  1.0
  Ni  Ni259  1  0.83791417  0.44597139  0.23104292  1.0
  Ni  Ni260  1  0.83791417  0.77930472  0.23104292  1.0
  Ni  Ni261  1  0.27124750  0.31263806  0.28104292  1.0
  Ni  Ni262  1  0.27124750  0.64597139  0.28104292  1.0
  Ni  Ni263  1  0.27124750  0.97930472  0.28104292  1.0
  Ni  Ni264  1  0.60458083  0.31263806  0.28104292  1.0
  Ni  Ni265  1  0.60458083  0.64597139  0.28104292  1.0
  Ni  Ni266  1  0.60458083  0.97930472  0.28104292  1.0
  Ni  Ni267  1  0.93791417  0.31263806  0.28104292  1.0
  Ni  Ni268  1  0.93791417  0.64597139  0.28104292  1.0
  Ni  Ni269  1  0.93791417  0.97930472  0.28104292  1.0
  Ni  Ni270  1  0.05447039  0.21241717  0.25653992  1.0
  Ni  Ni271  1  0.05447039  0.54575050  0.25653992  1.0
  Ni  Ni272  1  0.05447039  0.87908383  0.25653992  1.0
  Ni  Ni273  1  0.38780372  0.21241717  0.25653992  1.0
  Ni  Ni274  1  0.38780372  0.54575050  0.25653992  1.0
  Ni  Ni275  1  0.38780372  0.87908383  0.25653992  1.0
  Ni  Ni276  1  0.72113706  0.21241717  0.25653992  1.0
  Ni  Ni277  1  0.72113706  0.54575050  0.25653992  1.0
  Ni  Ni278  1  0.72113706  0.87908383  0.25653992  1.0
  Ni  Ni279  1  0.28780372  0.01241717  0.20653992  1.0
  Ni  Ni280  1  0.28780372  0.34575050  0.20653992  1.0
  Ni  Ni281  1  0.28780372  0.67908383  0.20653992  1.0
  Ni  Ni282  1  0.62113706  0.01241717  0.20653992  1.0
  Ni  Ni283  1  0.62113706  0.34575050  0.20653992  1.0
  Ni  Ni284  1  0.62113706  0.67908383  0.20653992  1.0
  Ni  Ni285  1  0.95447039  0.01241717  0.20653992  1.0
  Ni  Ni286  1  0.95447039  0.34575050  0.20653992  1.0
  Ni  Ni287  1  0.95447039  0.67908383  0.20653992  1.0
  Ni  Ni288  1  0.28758283  0.09586094  0.26879142  1.0
  Ni  Ni289  1  0.28758283  0.42919428  0.26879142  1.0
  Ni  Ni290  1  0.28758283  0.76252761  0.26879142  1.0
  Ni  Ni291  1  0.62091617  0.09586094  0.26879142  1.0
  Ni  Ni292  1  0.62091617  0.42919428  0.26879142  1.0
  Ni  Ni293  1  0.62091617  0.76252761  0.26879142  1.0
  Ni  Ni294  1  0.95424950  0.09586094  0.26879142  1.0
  Ni  Ni295  1  0.95424950  0.42919428  0.26879142  1.0
  Ni  Ni296  1  0.95424950  0.76252761  0.26879142  1.0
  Ni  Ni297  1  0.18758283  0.22919428  0.21879142  1.0
  Ni  Ni298  1  0.18758283  0.56252761  0.21879142  1.0
  Ni  Ni299  1  0.18758283  0.89586094  0.21879142  1.0
  Ni  Ni300  1  0.52091617  0.22919428  0.21879142  1.0
  Ni  Ni301  1  0.52091617  0.56252761  0.21879142  1.0
  Ni  Ni302  1  0.52091617  0.89586094  0.21879142  1.0
  Ni  Ni303  1  0.85424950  0.22919428  0.21879142  1.0
  Ni  Ni304  1  0.85424950  0.56252761  0.21879142  1.0
  Ni  Ni305  1  0.85424950  0.89586094  0.21879142  1.0
  Ni  Ni306  1  0.28714106  0.17886295  0.20620858  1.0
  Ni  Ni307  1  0.28714106  0.51219628  0.20620858  1.0
  Ni  Ni308  1  0.28714106  0.84552961  0.20620858  1.0
  Ni  Ni309  1  0.62047439  0.17886295  0.20620858  1.0
  Ni  Ni310  1  0.62047439  0.51219628  0.20620858  1.0
  Ni  Ni311  1  0.62047439  0.84552961  0.20620858  1.0
  Ni  Ni312  1  0.95380772  0.17886295  0.20620858  1.0
  Ni  Ni313  1  0.95380772  0.51219628  0.20620858  1.0
  Ni  Ni314  1  0.95380772  0.84552961  0.20620858  1.0
  Ni  Ni315  1  0.05380772  0.04552961  0.25620858  1.0
  Ni  Ni316  1  0.05380772  0.37886295  0.25620858  1.0
  Ni  Ni317  1  0.05380772  0.71219628  0.25620858  1.0
  Ni  Ni318  1  0.38714106  0.04552961  0.25620858  1.0
  Ni  Ni319  1  0.38714106  0.37886295  0.25620858  1.0
  Ni  Ni320  1  0.38714106  0.71219628  0.25620858  1.0
  Ni  Ni321  1  0.72047439  0.04552961  0.25620858  1.0
  Ni  Ni322  1  0.72047439  0.37886295  0.25620858  1.0
  Ni  Ni323  1  0.72047439  0.71219628  0.25620858  1.0
  Ni  Ni324  1  0.10413906  0.14619228  0.28137425  1.0
  Ni  Ni325  1  0.10413906  0.47952561  0.28137425  1.0
  Ni  Ni326  1  0.10413906  0.81285894  0.28137425  1.0
  Ni  Ni327  1  0.43747239  0.14619228  0.28137425  1.0
  Ni  Ni328  1  0.43747239  0.47952561  0.28137425  1.0
  Ni  Ni329  1  0.43747239  0.81285894  0.28137425  1.0
  Ni  Ni330  1  0.77080572  0.14619228  0.28137425  1.0
  Ni  Ni331  1  0.77080572  0.47952561  0.28137425  1.0
  Ni  Ni332  1  0.77080572  0.81285894  0.28137425  1.0
  Ni  Ni333  1  0.00413906  0.27952561  0.23137425  1.0
  Ni  Ni334  1  0.00413906  0.61285895  0.23137425  1.0
  Ni  Ni335  1  0.00413906  0.94619228  0.23137425  1.0
  Ni  Ni336  1  0.33747239  0.27952561  0.23137425  1.0
  Ni  Ni337  1  0.33747239  0.61285895  0.23137425  1.0
  Ni  Ni338  1  0.33747239  0.94619228  0.23137425  1.0
  Ni  Ni339  1  0.67080572  0.27952561  0.23137425  1.0
  Ni  Ni340  1  0.67080572  0.61285895  0.23137425  1.0
  Ni  Ni341  1  0.67080572  0.94619228  0.23137425  1.0
  Ni  Ni342  1  0.03791417  0.17930472  0.33104292  1.0
  Ni  Ni343  1  0.03791417  0.51263806  0.33104292  1.0
  Ni  Ni344  1  0.03791417  0.84597139  0.33104292  1.0
  Ni  Ni345  1  0.37124750  0.17930472  0.33104292  1.0
  Ni  Ni346  1  0.37124750  0.51263806  0.33104292  1.0
  Ni  Ni347  1  0.37124750  0.84597139  0.33104292  1.0
  Ni  Ni348  1  0.70458083  0.17930472  0.33104292  1.0
  Ni  Ni349  1  0.70458083  0.51263806  0.33104292  1.0
  Ni  Ni350  1  0.70458083  0.84597139  0.33104292  1.0
  Ni  Ni351  1  0.13791417  0.04597139  0.38104292  1.0
  Ni  Ni352  1  0.13791417  0.37930472  0.38104292  1.0
  Ni  Ni353  1  0.13791417  0.71263806  0.38104292  1.0
  Ni  Ni354  1  0.47124750  0.04597139  0.38104292  1.0
  Ni  Ni355  1  0.47124750  0.37930472  0.38104292  1.0
  Ni  Ni356  1  0.47124750  0.71263806  0.38104292  1.0
  Ni  Ni357  1  0.80458083  0.04597139  0.38104292  1.0
  Ni  Ni358  1  0.80458083  0.37930472  0.38104292  1.0
  Ni  Ni359  1  0.80458083  0.71263806  0.38104292  1.0
  Ni  Ni360  1  0.25447039  0.27908383  0.35653992  1.0
  Ni  Ni361  1  0.25447039  0.61241717  0.35653992  1.0
  Ni  Ni362  1  0.25447039  0.94575050  0.35653992  1.0
  Ni  Ni363  1  0.58780372  0.27908383  0.35653992  1.0
  Ni  Ni364  1  0.58780372  0.61241717  0.35653992  1.0
  Ni  Ni365  1  0.58780372  0.94575050  0.35653992  1.0
  Ni  Ni366  1  0.92113706  0.27908383  0.35653992  1.0
  Ni  Ni367  1  0.92113706  0.61241717  0.35653992  1.0
  Ni  Ni368  1  0.92113706  0.94575050  0.35653992  1.0
  Ni  Ni369  1  0.15447039  0.07908383  0.30653992  1.0
  Ni  Ni370  1  0.15447039  0.41241717  0.30653992  1.0
  Ni  Ni371  1  0.15447039  0.74575050  0.30653992  1.0
  Ni  Ni372  1  0.48780372  0.07908383  0.30653992  1.0
  Ni  Ni373  1  0.48780372  0.41241717  0.30653992  1.0
  Ni  Ni374  1  0.48780372  0.74575050  0.30653992  1.0
  Ni  Ni375  1  0.82113706  0.07908383  0.30653992  1.0
  Ni  Ni376  1  0.82113706  0.41241717  0.30653992  1.0
  Ni  Ni377  1  0.82113706  0.74575050  0.30653992  1.0
  Ni  Ni378  1  0.15424950  0.16252761  0.36879142  1.0
  Ni  Ni379  1  0.15424950  0.49586094  0.36879142  1.0
  Ni  Ni380  1  0.15424950  0.82919428  0.36879142  1.0
  Ni  Ni381  1  0.48758283  0.16252761  0.36879142  1.0
  Ni  Ni382  1  0.48758283  0.49586094  0.36879142  1.0
  Ni  Ni383  1  0.48758283  0.82919428  0.36879142  1.0
  Ni  Ni384  1  0.82091617  0.16252761  0.36879142  1.0
  Ni  Ni385  1  0.82091617  0.49586094  0.36879142  1.0
  Ni  Ni386  1  0.82091617  0.82919428  0.36879142  1.0
  Ni  Ni387  1  0.05424950  0.29586094  0.31879142  1.0
  Ni  Ni388  1  0.05424950  0.62919428  0.31879142  1.0
  Ni  Ni389  1  0.05424950  0.96252761  0.31879142  1.0
  Ni  Ni390  1  0.38758283  0.29586094  0.31879142  1.0
  Ni  Ni391  1  0.38758283  0.62919428  0.31879142  1.0
  Ni  Ni392  1  0.38758283  0.96252761  0.31879142  1.0
  Ni  Ni393  1  0.72091617  0.29586094  0.31879142  1.0
  Ni  Ni394  1  0.72091617  0.62919428  0.31879142  1.0
  Ni  Ni395  1  0.72091617  0.96252761  0.31879142  1.0
  Ni  Ni396  1  0.15380772  0.24552961  0.30620858  1.0
  Ni  Ni397  1  0.15380772  0.57886295  0.30620858  1.0
  Ni  Ni398  1  0.15380772  0.91219628  0.30620858  1.0
  Ni  Ni399  1  0.48714106  0.24552961  0.30620858  1.0
  Ni  Ni400  1  0.48714106  0.57886295  0.30620858  1.0
  Ni  Ni401  1  0.48714106  0.91219628  0.30620858  1.0
  Ni  Ni402  1  0.82047439  0.24552961  0.30620858  1.0
  Ni  Ni403  1  0.82047439  0.57886295  0.30620858  1.0
  Ni  Ni404  1  0.82047439  0.91219628  0.30620858  1.0
  Ni  Ni405  1  0.25380772  0.11219628  0.35620858  1.0
  Ni  Ni406  1  0.25380772  0.44552961  0.35620858  1.0
  Ni  Ni407  1  0.25380772  0.77886295  0.35620858  1.0
  Ni  Ni408  1  0.58714106  0.11219628  0.35620858  1.0
  Ni  Ni409  1  0.58714106  0.44552961  0.35620858  1.0
  Ni  Ni410  1  0.58714106  0.77886295  0.35620858  1.0
  Ni  Ni411  1  0.92047439  0.11219628  0.35620858  1.0
  Ni  Ni412  1  0.92047439  0.44552961  0.35620858  1.0
  Ni  Ni413  1  0.92047439  0.77886295  0.35620858  1.0
  Ni  Ni414  1  0.30413906  0.21285895  0.38137425  1.0
  Ni  Ni415  1  0.30413906  0.54619228  0.38137425  1.0
  Ni  Ni416  1  0.30413906  0.87952561  0.38137425  1.0
  Ni  Ni417  1  0.63747239  0.21285895  0.38137425  1.0
  Ni  Ni418  1  0.63747239  0.54619228  0.38137425  1.0
  Ni  Ni419  1  0.63747239  0.87952561  0.38137425  1.0
  Ni  Ni420  1  0.97080572  0.21285895  0.38137425  1.0
  Ni  Ni421  1  0.97080572  0.54619228  0.38137425  1.0
  Ni  Ni422  1  0.97080572  0.87952561  0.38137425  1.0
  Ni  Ni423  1  0.20413906  0.01285895  0.33137425  1.0
  Ni  Ni424  1  0.20413906  0.34619228  0.33137425  1.0
  Ni  Ni425  1  0.20413906  0.67952561  0.33137425  1.0
  Ni  Ni426  1  0.53747239  0.01285895  0.33137425  1.0
  Ni  Ni427  1  0.53747239  0.34619228  0.33137425  1.0
  Ni  Ni428  1  0.53747239  0.67952561  0.33137425  1.0
  Ni  Ni429  1  0.87080572  0.01285895  0.33137425  1.0
  Ni  Ni430  1  0.87080572  0.34619228  0.33137425  1.0
  Ni  Ni431  1  0.87080572  0.67952561  0.33137425  1.0
