# generated using pymatgen
data_HfNi2
_symmetry_space_group_name_H-M   'P 1'
_cell_length_a   14.66409357
_cell_length_b   35.91954679
_cell_length_c   28.50187473
_cell_angle_alpha   98.04946698
_cell_angle_beta   90.00000000
_cell_angle_gamma   90.00000000
_symmetry_Int_Tables_number   1
_chemical_formula_structural   HfNi2
_chemical_formula_sum   'Hf144 Ni288'
_cell_volume   14864.81171402
_cell_formula_units_Z   144
loop_
 _symmetry_equiv_pos_site_id
 _symmetry_equiv_pos_as_xyz
  1  'x, y, z'
loop_
 _atom_site_type_symbol
 _atom_site_label
 _atom_site_symmetry_multiplicity
 _atom_site_fract_x
 _atom_site_fract_y
 _atom_site_fract_z
 _atom_site_occupancy
  Hf  Hf0  1  0.00000000  0.07916667  0.08750000  1.0
  Hf  Hf1  1  0.00000000  0.41250000  0.08750000  1.0
  Hf  Hf2  1  0.00000000  0.74583333  0.08750000  1.0
  Hf  Hf3  1  0.33333333  0.07916667  0.08750000  1.0
  Hf  Hf4  1  0.33333333  0.41250000  0.08750000  1.0
  Hf  Hf5  1  0.33333333  0.74583333  0.08750000  1.0
  Hf  Hf6  1  0.66666667  0.07916667  0.08750000  1.0
  Hf  Hf7  1  0.66666667  0.41250000  0.08750000  1.0
  Hf  Hf8  1  0.66666667  0.74583333  0.08750000  1.0
  Hf  Hf9  1  0.16666667  0.29583333  0.03750000  1.0
  Hf  Hf10  1  0.16666667  0.62916667  0.03750000  1.0
  Hf  Hf11  1  0.16666667  0.96250000  0.03750000  1.0
  Hf  Hf12  1  0.50000000  0.29583333  0.03750000  1.0
  Hf  Hf13  1  0.50000000  0.62916667  0.03750000  1.0
  Hf  Hf14  1  0.50000000  0.96250000  0.03750000  1.0
  Hf  Hf15  1  0.83333333  0.29583333  0.03750000  1.0
  Hf  Hf16  1  0.83333333  0.62916667  0.03750000  1.0
  Hf  Hf17  1  0.83333333  0.96250000  0.03750000  1.0
  Hf  Hf18  1  0.33333333  0.32916667  0.08750000  1.0
  Hf  Hf19  1  0.33333333  0.66250000  0.08750000  1.0
  Hf  Hf20  1  0.33333333  0.99583333  0.08750000  1.0
  Hf  Hf21  1  0.66666667  0.32916667  0.08750000  1.0
  Hf  Hf22  1  0.66666667  0.66250000  0.08750000  1.0
  Hf  Hf23  1  0.66666667  0.99583333  0.08750000  1.0
  Hf  Hf24  1  1.00000000  0.32916667  0.08750000  1.0
  Hf  Hf25  1  1.00000000  0.66250000  0.08750000  1.0
  Hf  Hf26  1  1.00000000  0.99583333  0.08750000  1.0
  Hf  Hf27  1  0.16666667  0.21250000  0.03750000  1.0
  Hf  Hf28  1  0.16666667  0.54583333  0.03750000  1.0
  Hf  Hf29  1  0.16666667  0.87916667  0.03750000  1.0
  Hf  Hf30  1  0.50000000  0.21250000  0.03750000  1.0
  Hf  Hf31  1  0.50000000  0.54583333  0.03750000  1.0
  Hf  Hf32  1  0.50000000  0.87916667  0.03750000  1.0
  Hf  Hf33  1  0.83333333  0.21250000  0.03750000  1.0
  Hf  Hf34  1  0.83333333  0.54583333  0.03750000  1.0
  Hf  Hf35  1  0.83333333  0.87916667  0.03750000  1.0
  Hf  Hf36  1  0.33333333  0.31250000  0.18750000  1.0
  Hf  Hf37  1  0.33333333  0.64583333  0.18750000  1.0
  Hf  Hf38  1  0.33333333  0.97916667  0.18750000  1.0
  Hf  Hf39  1  0.66666667  0.31250000  0.18750000  1.0
  Hf  Hf40  1  0.66666667  0.64583333  0.18750000  1.0
  Hf  Hf41  1  0.66666667  0.97916667  0.18750000  1.0
  Hf  Hf42  1  1.00000000  0.31250000  0.18750000  1.0
  Hf  Hf43  1  1.00000000  0.64583333  0.18750000  1.0
  Hf  Hf44  1  1.00000000  0.97916667  0.18750000  1.0
  Hf  Hf45  1  0.16666667  0.19583333  0.13750000  1.0
  Hf  Hf46  1  0.16666667  0.52916667  0.13750000  1.0
  Hf  Hf47  1  0.16666667  0.86250000  0.13750000  1.0
  Hf  Hf48  1  0.50000000  0.19583333  0.13750000  1.0
  Hf  Hf49  1  0.50000000  0.52916667  0.13750000  1.0
  Hf  Hf50  1  0.50000000  0.86250000  0.13750000  1.0
  Hf  Hf51  1  0.83333333  0.19583333  0.13750000  1.0
  Hf  Hf52  1  0.83333333  0.52916667  0.13750000  1.0
  Hf  Hf53  1  0.83333333  0.86250000  0.13750000  1.0
  Hf  Hf54  1  0.33333333  0.22916667  0.18750000  1.0
  Hf  Hf55  1  0.33333333  0.56250000  0.18750000  1.0
  Hf  Hf56  1  0.33333333  0.89583333  0.18750000  1.0
  Hf  Hf57  1  0.66666667  0.22916667  0.18750000  1.0
  Hf  Hf58  1  0.66666667  0.56250000  0.18750000  1.0
  Hf  Hf59  1  0.66666667  0.89583333  0.18750000  1.0
  Hf  Hf60  1  1.00000000  0.22916667  0.18750000  1.0
  Hf  Hf61  1  1.00000000  0.56250000  0.18750000  1.0
  Hf  Hf62  1  1.00000000  0.89583333  0.18750000  1.0
  Hf  Hf63  1  0.16666667  0.11250000  0.13750000  1.0
  Hf  Hf64  1  0.16666667  0.44583333  0.13750000  1.0
  Hf  Hf65  1  0.16666667  0.77916667  0.13750000  1.0
  Hf  Hf66  1  0.50000000  0.11250000  0.13750000  1.0
  Hf  Hf67  1  0.50000000  0.44583333  0.13750000  1.0
  Hf  Hf68  1  0.50000000  0.77916667  0.13750000  1.0
  Hf  Hf69  1  0.83333333  0.11250000  0.13750000  1.0
  Hf  Hf70  1  0.83333333  0.44583333  0.13750000  1.0
  Hf  Hf71  1  0.83333333  0.77916667  0.13750000  1.0
  Hf  Hf72  1  0.33333333  0.21250000  0.28750000  1.0
  Hf  Hf73  1  0.33333333  0.54583333  0.28750000  1.0
  Hf  Hf74  1  0.33333333  0.87916667  0.28750000  1.0
  Hf  Hf75  1  0.66666667  0.21250000  0.28750000  1.0
  Hf  Hf76  1  0.66666667  0.54583333  0.28750000  1.0
  Hf  Hf77  1  0.66666667  0.87916667  0.28750000  1.0
  Hf  Hf78  1  1.00000000  0.21250000  0.28750000  1.0
  Hf  Hf79  1  1.00000000  0.54583333  0.28750000  1.0
  Hf  Hf80  1  1.00000000  0.87916667  0.28750000  1.0
  Hf  Hf81  1  0.16666667  0.09583333  0.23750000  1.0
  Hf  Hf82  1  0.16666667  0.42916667  0.23750000  1.0
  Hf  Hf83  1  0.16666667  0.76250000  0.23750000  1.0
  Hf  Hf84  1  0.50000000  0.09583333  0.23750000  1.0
  Hf  Hf85  1  0.50000000  0.42916667  0.23750000  1.0
  Hf  Hf86  1  0.50000000  0.76250000  0.23750000  1.0
  Hf  Hf87  1  0.83333333  0.09583333  0.23750000  1.0
  Hf  Hf88  1  0.83333333  0.42916667  0.23750000  1.0
  Hf  Hf89  1  0.83333333  0.76250000  0.23750000  1.0
  Hf  Hf90  1  0.33333333  0.12916667  0.28750000  1.0
  Hf  Hf91  1  0.33333333  0.46250000  0.28750000  1.0
  Hf  Hf92  1  0.33333333  0.79583333  0.28750000  1.0
  Hf  Hf93  1  0.66666667  0.12916667  0.28750000  1.0
  Hf  Hf94  1  0.66666667  0.46250000  0.28750000  1.0
  Hf  Hf95  1  0.66666667  0.79583333  0.28750000  1.0
  Hf  Hf96  1  1.00000000  0.12916667  0.28750000  1.0
  Hf  Hf97  1  1.00000000  0.46250000  0.28750000  1.0
  Hf  Hf98  1  1.00000000  0.79583333  0.28750000  1.0
  Hf  Hf99  1  0.16666667  0.01250000  0.23750000  1.0
  Hf  Hf100  1  0.16666667  0.34583333  0.23750000  1.0
  Hf  Hf101  1  0.16666667  0.67916667  0.23750000  1.0
  Hf  Hf102  1  0.50000000  0.01250000  0.23750000  1.0
  Hf  Hf103  1  0.50000000  0.34583333  0.23750000  1.0
  Hf  Hf104  1  0.50000000  0.67916667  0.23750000  1.0
  Hf  Hf105  1  0.83333333  0.01250000  0.23750000  1.0
  Hf  Hf106  1  0.83333333  0.34583333  0.23750000  1.0
  Hf  Hf107  1  0.83333333  0.67916667  0.23750000  1.0
  Hf  Hf108  1  0.33333333  0.11250000  0.38750000  1.0
  Hf  Hf109  1  0.33333333  0.44583333  0.38750000  1.0
  Hf  Hf110  1  0.33333333  0.77916667  0.38750000  1.0
  Hf  Hf111  1  0.66666667  0.11250000  0.38750000  1.0
  Hf  Hf112  1  0.66666667  0.44583333  0.38750000  1.0
  Hf  Hf113  1  0.66666667  0.77916667  0.38750000  1.0
  Hf  Hf114  1  1.00000000  0.11250000  0.38750000  1.0
  Hf  Hf115  1  1.00000000  0.44583333  0.38750000  1.0
  Hf  Hf116  1  1.00000000  0.77916667  0.38750000  1.0
  Hf  Hf117  1  0.16666667  0.32916667  0.33750000  1.0
  Hf  Hf118  1  0.16666667  0.66250000  0.33750000  1.0
  Hf  Hf119  1  0.16666667  0.99583333  0.33750000  1.0
  Hf  Hf120  1  0.50000000  0.32916667  0.33750000  1.0
  Hf  Hf121  1  0.50000000  0.66250000  0.33750000  1.0
  Hf  Hf122  1  0.50000000  0.99583333  0.33750000  1.0
  Hf  Hf123  1  0.83333333  0.32916667  0.33750000  1.0
  Hf  Hf124  1  0.83333333  0.66250000  0.33750000  1.0
  Hf  Hf125  1  0.83333333  0.99583333  0.33750000  1.0
  Hf  Hf126  1  0.33333333  0.02916667  0.38750000  1.0
  Hf  Hf127  1  0.33333333  0.36250000  0.38750000  1.0
  Hf  Hf128  1  0.33333333  0.69583333  0.38750000  1.0
  Hf  Hf129  1  0.66666667  0.02916667  0.38750000  1.0
  Hf  Hf130  1  0.66666667  0.36250000  0.38750000  1.0
  Hf  Hf131  1  0.66666667  0.69583333  0.38750000  1.0
  Hf  Hf132  1  1.00000000  0.02916667  0.38750000  1.0
  Hf  Hf133  1  1.00000000  0.36250000  0.38750000  1.0
  Hf  Hf134  1  1.00000000  0.69583333  0.38750000  1.0
  Hf  Hf135  1  0.16666667  0.24583333  0.33750000  1.0
  Hf  Hf136  1  0.16666667  0.57916667  0.33750000  1.0
  Hf  Hf137  1  0.16666667  0.91250000  0.33750000  1.0
  Hf  Hf138  1  0.50000000  0.24583333  0.33750000  1.0
  Hf  Hf139  1  0.50000000  0.57916667  0.33750000  1.0
  Hf  Hf140  1  0.50000000  0.91250000  0.33750000  1.0
  Hf  Hf141  1  0.83333333  0.24583333  0.33750000  1.0
  Hf  Hf142  1  0.83333333  0.57916667  0.33750000  1.0
  Hf  Hf143  1  0.83333333  0.91250000  0.33750000  1.0
  Ni  Ni144  1  0.33333333  0.20416667  0.08750000  1.0
  Ni  Ni145  1  0.33333333  0.53750000  0.08750000  1.0
  Ni  Ni146  1  0.33333333  0.87083333  0.08750000  1.0
  Ni  Ni147  1  0.66666667  0.20416667  0.08750000  1.0
  Ni  Ni148  1  0.66666667  0.53750000  0.08750000  1.0
  Ni  Ni149  1  0.66666667  0.87083333  0.08750000  1.0
  Ni  Ni150  1  1.00000000  0.20416667  0.08750000  1.0
  Ni  Ni151  1  1.00000000  0.53750000  0.08750000  1.0
  Ni  Ni152  1  1.00000000  0.87083333  0.08750000  1.0
  Ni  Ni153  1  0.16666667  0.08750000  0.03750000  1.0
  Ni  Ni154  1  0.16666667  0.42083333  0.03750000  1.0
  Ni  Ni155  1  0.16666667  0.75416667  0.03750000  1.0
  Ni  Ni156  1  0.50000000  0.08750000  0.03750000  1.0
  Ni  Ni157  1  0.50000000  0.42083333  0.03750000  1.0
  Ni  Ni158  1  0.50000000  0.75416667  0.03750000  1.0
  Ni  Ni159  1  0.83333333  0.08750000  0.03750000  1.0
  Ni  Ni160  1  0.83333333  0.42083333  0.03750000  1.0
  Ni  Ni161  1  0.83333333  0.75416667  0.03750000  1.0
  Ni  Ni162  1  0.00000000  0.25416667  0.03750000  1.0
  Ni  Ni163  1  0.00000000  0.58750000  0.03750000  1.0
  Ni  Ni164  1  0.00000000  0.92083333  0.03750000  1.0
  Ni  Ni165  1  0.33333333  0.25416667  0.03750000  1.0
  Ni  Ni166  1  0.33333333  0.58750000  0.03750000  1.0
  Ni  Ni167  1  0.33333333  0.92083333  0.03750000  1.0
  Ni  Ni168  1  0.66666667  0.25416667  0.03750000  1.0
  Ni  Ni169  1  0.66666667  0.58750000  0.03750000  1.0
  Ni  Ni170  1  0.66666667  0.92083333  0.03750000  1.0
  Ni  Ni171  1  0.16666667  0.03750000  0.08750000  1.0
  Ni  Ni172  1  0.16666667  0.37083333  0.08750000  1.0
  Ni  Ni173  1  0.16666667  0.70416667  0.08750000  1.0
  Ni  Ni174  1  0.50000000  0.03750000  0.08750000  1.0
  Ni  Ni175  1  0.50000000  0.37083333  0.08750000  1.0
  Ni  Ni176  1  0.50000000  0.70416667  0.08750000  1.0
  Ni  Ni177  1  0.83333333  0.03750000  0.08750000  1.0
  Ni  Ni178  1  0.83333333  0.37083333  0.08750000  1.0
  Ni  Ni179  1  0.83333333  0.70416667  0.08750000  1.0
  Ni  Ni180  1  0.25000000  0.14583333  0.06250000  1.0
  Ni  Ni181  1  0.25000000  0.47916667  0.06250000  1.0
  Ni  Ni182  1  0.25000000  0.81250000  0.06250000  1.0
  Ni  Ni183  1  0.58333333  0.14583333  0.06250000  1.0
  Ni  Ni184  1  0.58333333  0.47916667  0.06250000  1.0
  Ni  Ni185  1  0.58333333  0.81250000  0.06250000  1.0
  Ni  Ni186  1  0.91666667  0.14583333  0.06250000  1.0
  Ni  Ni187  1  0.91666667  0.47916667  0.06250000  1.0
  Ni  Ni188  1  0.91666667  0.81250000  0.06250000  1.0
  Ni  Ni189  1  0.08333333  0.02916667  0.01250000  1.0
  Ni  Ni190  1  0.08333333  0.36250000  0.01250000  1.0
  Ni  Ni191  1  0.08333333  0.69583333  0.01250000  1.0
  Ni  Ni192  1  0.41666667  0.02916667  0.01250000  1.0
  Ni  Ni193  1  0.41666667  0.36250000  0.01250000  1.0
  Ni  Ni194  1  0.41666667  0.69583333  0.01250000  1.0
  Ni  Ni195  1  0.75000000  0.02916667  0.01250000  1.0
  Ni  Ni196  1  0.75000000  0.36250000  0.01250000  1.0
  Ni  Ni197  1  0.75000000  0.69583333  0.01250000  1.0
  Ni  Ni198  1  0.08333333  0.14583333  0.06250000  1.0
  Ni  Ni199  1  0.08333333  0.47916667  0.06250000  1.0
  Ni  Ni200  1  0.08333333  0.81250000  0.06250000  1.0
  Ni  Ni201  1  0.41666667  0.14583333  0.06250000  1.0
  Ni  Ni202  1  0.41666667  0.47916667  0.06250000  1.0
  Ni  Ni203  1  0.41666667  0.81250000  0.06250000  1.0
  Ni  Ni204  1  0.75000000  0.14583333  0.06250000  1.0
  Ni  Ni205  1  0.75000000  0.47916667  0.06250000  1.0
  Ni  Ni206  1  0.75000000  0.81250000  0.06250000  1.0
  Ni  Ni207  1  0.25000000  0.02916667  0.01250000  1.0
  Ni  Ni208  1  0.25000000  0.36250000  0.01250000  1.0
  Ni  Ni209  1  0.25000000  0.69583333  0.01250000  1.0
  Ni  Ni210  1  0.58333333  0.02916667  0.01250000  1.0
  Ni  Ni211  1  0.58333333  0.36250000  0.01250000  1.0
  Ni  Ni212  1  0.58333333  0.69583333  0.01250000  1.0
  Ni  Ni213  1  0.91666667  0.02916667  0.01250000  1.0
  Ni  Ni214  1  0.91666667  0.36250000  0.01250000  1.0
  Ni  Ni215  1  0.91666667  0.69583333  0.01250000  1.0
  Ni  Ni216  1  0.33333333  0.10416667  0.18750000  1.0
  Ni  Ni217  1  0.33333333  0.43750000  0.18750000  1.0
  Ni  Ni218  1  0.33333333  0.77083333  0.18750000  1.0
  Ni  Ni219  1  0.66666667  0.10416667  0.18750000  1.0
  Ni  Ni220  1  0.66666667  0.43750000  0.18750000  1.0
  Ni  Ni221  1  0.66666667  0.77083333  0.18750000  1.0
  Ni  Ni222  1  1.00000000  0.10416667  0.18750000  1.0
  Ni  Ni223  1  1.00000000  0.43750000  0.18750000  1.0
  Ni  Ni224  1  1.00000000  0.77083333  0.18750000  1.0
  Ni  Ni225  1  0.16666667  0.32083333  0.13750000  1.0
  Ni  Ni226  1  0.16666667  0.65416667  0.13750000  1.0
  Ni  Ni227  1  0.16666667  0.98750000  0.13750000  1.0
  Ni  Ni228  1  0.50000000  0.32083333  0.13750000  1.0
  Ni  Ni229  1  0.50000000  0.65416667  0.13750000  1.0
  Ni  Ni230  1  0.50000000  0.98750000  0.13750000  1.0
  Ni  Ni231  1  0.83333333  0.32083333  0.13750000  1.0
  Ni  Ni232  1  0.83333333  0.65416667  0.13750000  1.0
  Ni  Ni233  1  0.83333333  0.98750000  0.13750000  1.0
  Ni  Ni234  1  0.33333333  0.15416667  0.13750000  1.0
  Ni  Ni235  1  0.33333333  0.48750000  0.13750000  1.0
  Ni  Ni236  1  0.33333333  0.82083333  0.13750000  1.0
  Ni  Ni237  1  0.66666667  0.15416667  0.13750000  1.0
  Ni  Ni238  1  0.66666667  0.48750000  0.13750000  1.0
  Ni  Ni239  1  0.66666667  0.82083333  0.13750000  1.0
  Ni  Ni240  1  1.00000000  0.15416667  0.13750000  1.0
  Ni  Ni241  1  1.00000000  0.48750000  0.13750000  1.0
  Ni  Ni242  1  1.00000000  0.82083333  0.13750000  1.0
  Ni  Ni243  1  0.16666667  0.27083333  0.18750000  1.0
  Ni  Ni244  1  0.16666667  0.60416667  0.18750000  1.0
  Ni  Ni245  1  0.16666667  0.93750000  0.18750000  1.0
  Ni  Ni246  1  0.50000000  0.27083333  0.18750000  1.0
  Ni  Ni247  1  0.50000000  0.60416667  0.18750000  1.0
  Ni  Ni248  1  0.50000000  0.93750000  0.18750000  1.0
  Ni  Ni249  1  0.83333333  0.27083333  0.18750000  1.0
  Ni  Ni250  1  0.83333333  0.60416667  0.18750000  1.0
  Ni  Ni251  1  0.83333333  0.93750000  0.18750000  1.0
  Ni  Ni252  1  0.25000000  0.04583333  0.16250000  1.0
  Ni  Ni253  1  0.25000000  0.37916667  0.16250000  1.0
  Ni  Ni254  1  0.25000000  0.71250000  0.16250000  1.0
  Ni  Ni255  1  0.58333333  0.04583333  0.16250000  1.0
  Ni  Ni256  1  0.58333333  0.37916667  0.16250000  1.0
  Ni  Ni257  1  0.58333333  0.71250000  0.16250000  1.0
  Ni  Ni258  1  0.91666667  0.04583333  0.16250000  1.0
  Ni  Ni259  1  0.91666667  0.37916667  0.16250000  1.0
  Ni  Ni260  1  0.91666667  0.71250000  0.16250000  1.0
  Ni  Ni261  1  0.08333333  0.26250000  0.11250000  1.0
  Ni  Ni262  1  0.08333333  0.59583333  0.11250000  1.0
  Ni  Ni263  1  0.08333333  0.92916667  0.11250000  1.0
  Ni  Ni264  1  0.41666667  0.26250000  0.11250000  1.0
  Ni  Ni265  1  0.41666667  0.59583333  0.11250000  1.0
  Ni  Ni266  1  0.41666667  0.92916667  0.11250000  1.0
  Ni  Ni267  1  0.75000000  0.26250000  0.11250000  1.0
  Ni  Ni268  1  0.75000000  0.59583333  0.11250000  1.0
  Ni  Ni269  1  0.75000000  0.92916667  0.11250000  1.0
  Ni  Ni270  1  0.08333333  0.04583333  0.16250000  1.0
  Ni  Ni271  1  0.08333333  0.37916667  0.16250000  1.0
  Ni  Ni272  1  0.08333333  0.71250000  0.16250000  1.0
  Ni  Ni273  1  0.41666667  0.04583333  0.16250000  1.0
  Ni  Ni274  1  0.41666667  0.37916667  0.16250000  1.0
  Ni  Ni275  1  0.41666667  0.71250000  0.16250000  1.0
  Ni  Ni276  1  0.75000000  0.04583333  0.16250000  1.0
  Ni  Ni277  1  0.75000000  0.37916667  0.16250000  1.0
  Ni  Ni278  1  0.75000000  0.71250000  0.16250000  1.0
  Ni  Ni279  1  0.25000000  0.26250000  0.11250000  1.0
  Ni  Ni280  1  0.25000000  0.59583333  0.11250000  1.0
  Ni  Ni281  1  0.25000000  0.92916667  0.11250000  1.0
  Ni  Ni282  1  0.58333333  0.26250000  0.11250000  1.0
  Ni  Ni283  1  0.58333333  0.59583333  0.11250000  1.0
  Ni  Ni284  1  0.58333333  0.92916667  0.11250000  1.0
  Ni  Ni285  1  0.91666667  0.26250000  0.11250000  1.0
  Ni  Ni286  1  0.91666667  0.59583333  0.11250000  1.0
  Ni  Ni287  1  0.91666667  0.92916667  0.11250000  1.0
  Ni  Ni288  1  0.33333333  0.00416667  0.28750000  1.0
  Ni  Ni289  1  0.33333333  0.33750000  0.28750000  1.0
  Ni  Ni290  1  0.33333333  0.67083333  0.28750000  1.0
  Ni  Ni291  1  0.66666667  0.00416667  0.28750000  1.0
  Ni  Ni292  1  0.66666667  0.33750000  0.28750000  1.0
  Ni  Ni293  1  0.66666667  0.67083333  0.28750000  1.0
  Ni  Ni294  1  1.00000000  0.00416667  0.28750000  1.0
  Ni  Ni295  1  1.00000000  0.33750000  0.28750000  1.0
  Ni  Ni296  1  1.00000000  0.67083333  0.28750000  1.0
  Ni  Ni297  1  0.16666667  0.22083333  0.23750000  1.0
  Ni  Ni298  1  0.16666667  0.55416667  0.23750000  1.0
  Ni  Ni299  1  0.16666667  0.88750000  0.23750000  1.0
  Ni  Ni300  1  0.50000000  0.22083333  0.23750000  1.0
  Ni  Ni301  1  0.50000000  0.55416667  0.23750000  1.0
  Ni  Ni302  1  0.50000000  0.88750000  0.23750000  1.0
  Ni  Ni303  1  0.83333333  0.22083333  0.23750000  1.0
  Ni  Ni304  1  0.83333333  0.55416667  0.23750000  1.0
  Ni  Ni305  1  0.83333333  0.88750000  0.23750000  1.0
  Ni  Ni306  1  0.33333333  0.05416667  0.23750000  1.0
  Ni  Ni307  1  0.33333333  0.38750000  0.23750000  1.0
  Ni  Ni308  1  0.33333333  0.72083333  0.23750000  1.0
  Ni  Ni309  1  0.66666667  0.05416667  0.23750000  1.0
  Ni  Ni310  1  0.66666667  0.38750000  0.23750000  1.0
  Ni  Ni311  1  0.66666667  0.72083333  0.23750000  1.0
  Ni  Ni312  1  1.00000000  0.05416667  0.23750000  1.0
  Ni  Ni313  1  1.00000000  0.38750000  0.23750000  1.0
  Ni  Ni314  1  1.00000000  0.72083333  0.23750000  1.0
  Ni  Ni315  1  0.16666667  0.17083333  0.28750000  1.0
  Ni  Ni316  1  0.16666667  0.50416667  0.28750000  1.0
  Ni  Ni317  1  0.16666667  0.83750000  0.28750000  1.0
  Ni  Ni318  1  0.50000000  0.17083333  0.28750000  1.0
  Ni  Ni319  1  0.50000000  0.50416667  0.28750000  1.0
  Ni  Ni320  1  0.50000000  0.83750000  0.28750000  1.0
  Ni  Ni321  1  0.83333333  0.17083333  0.28750000  1.0
  Ni  Ni322  1  0.83333333  0.50416667  0.28750000  1.0
  Ni  Ni323  1  0.83333333  0.83750000  0.28750000  1.0
  Ni  Ni324  1  0.25000000  0.27916667  0.26250000  1.0
  Ni  Ni325  1  0.25000000  0.61250000  0.26250000  1.0
  Ni  Ni326  1  0.25000000  0.94583333  0.26250000  1.0
  Ni  Ni327  1  0.58333333  0.27916667  0.26250000  1.0
  Ni  Ni328  1  0.58333333  0.61250000  0.26250000  1.0
  Ni  Ni329  1  0.58333333  0.94583333  0.26250000  1.0
  Ni  Ni330  1  0.91666667  0.27916667  0.26250000  1.0
  Ni  Ni331  1  0.91666667  0.61250000  0.26250000  1.0
  Ni  Ni332  1  0.91666667  0.94583333  0.26250000  1.0
  Ni  Ni333  1  0.08333333  0.16250000  0.21250000  1.0
  Ni  Ni334  1  0.08333333  0.49583333  0.21250000  1.0
  Ni  Ni335  1  0.08333333  0.82916667  0.21250000  1.0
  Ni  Ni336  1  0.41666667  0.16250000  0.21250000  1.0
  Ni  Ni337  1  0.41666667  0.49583333  0.21250000  1.0
  Ni  Ni338  1  0.41666667  0.82916667  0.21250000  1.0
  Ni  Ni339  1  0.75000000  0.16250000  0.21250000  1.0
  Ni  Ni340  1  0.75000000  0.49583333  0.21250000  1.0
  Ni  Ni341  1  0.75000000  0.82916667  0.21250000  1.0
  Ni  Ni342  1  0.08333333  0.27916667  0.26250000  1.0
  Ni  Ni343  1  0.08333333  0.61250000  0.26250000  1.0
  Ni  Ni344  1  0.08333333  0.94583333  0.26250000  1.0
  Ni  Ni345  1  0.41666667  0.27916667  0.26250000  1.0
  Ni  Ni346  1  0.41666667  0.61250000  0.26250000  1.0
  Ni  Ni347  1  0.41666667  0.94583333  0.26250000  1.0
  Ni  Ni348  1  0.75000000  0.27916667  0.26250000  1.0
  Ni  Ni349  1  0.75000000  0.61250000  0.26250000  1.0
  Ni  Ni350  1  0.75000000  0.94583333  0.26250000  1.0
  Ni  Ni351  1  0.25000000  0.16250000  0.21250000  1.0
  Ni  Ni352  1  0.25000000  0.49583333  0.21250000  1.0
  Ni  Ni353  1  0.25000000  0.82916667  0.21250000  1.0
  Ni  Ni354  1  0.58333333  0.16250000  0.21250000  1.0
  Ni  Ni355  1  0.58333333  0.49583333  0.21250000  1.0
  Ni  Ni356  1  0.58333333  0.82916667  0.21250000  1.0
  Ni  Ni357  1  0.91666667  0.16250000  0.21250000  1.0
  Ni  Ni358  1  0.91666667  0.49583333  0.21250000  1.0
  Ni  Ni359  1  0.91666667  0.82916667  0.21250000  1.0
  Ni  Ni360  1  0.33333333  0.23750000  0.38750000  1.0
  Ni  Ni361  1  0.33333333  0.57083333  0.38750000  1.0
  Ni  Ni362  1  0.33333333  0.90416667  0.38750000  1.0
  Ni  Ni363  1  0.66666667  0.23750000  0.38750000  1.0
  Ni  Ni364  1  0.66666667  0.57083333  0.38750000  1.0
  Ni  Ni365  1  0.66666667  0.90416667  0.38750000  1.0
  Ni  Ni366  1  1.00000000  0.23750000  0.38750000  1.0
  Ni  Ni367  1  1.00000000  0.57083333  0.38750000  1.0
  Ni  Ni368  1  1.00000000  0.90416667  0.38750000  1.0
  Ni  Ni369  1  0.16666667  0.12083333  0.33750000  1.0
  Ni  Ni370  1  0.16666667  0.45416667  0.33750000  1.0
  Ni  Ni371  1  0.16666667  0.78750000  0.33750000  1.0
  Ni  Ni372  1  0.50000000  0.12083333  0.33750000  1.0
  Ni  Ni373  1  0.50000000  0.45416667  0.33750000  1.0
  Ni  Ni374  1  0.50000000  0.78750000  0.33750000  1.0
  Ni  Ni375  1  0.83333333  0.12083333  0.33750000  1.0
  Ni  Ni376  1  0.83333333  0.45416667  0.33750000  1.0
  Ni  Ni377  1  0.83333333  0.78750000  0.33750000  1.0
  Ni  Ni378  1  0.33333333  0.28750000  0.33750000  1.0
  Ni  Ni379  1  0.33333333  0.62083333  0.33750000  1.0
  Ni  Ni380  1  0.33333333  0.95416667  0.33750000  1.0
  Ni  Ni381  1  0.66666667  0.28750000  0.33750000  1.0
  Ni  Ni382  1  0.66666667  0.62083333  0.33750000  1.0
  Ni  Ni383  1  0.66666667  0.95416667  0.33750000  1.0
  Ni  Ni384  1  1.00000000  0.28750000  0.33750000  1.0
  Ni  Ni385  1  1.00000000  0.62083333  0.33750000  1.0
  Ni  Ni386  1  1.00000000  0.95416667  0.33750000  1.0
  Ni  Ni387  1  0.16666667  0.07083333  0.38750000  1.0
  Ni  Ni388  1  0.16666667  0.40416667  0.38750000  1.0
  Ni  Ni389  1  0.16666667  0.73750000  0.38750000  1.0
  Ni  Ni390  1  0.50000000  0.07083333  0.38750000  1.0
  Ni  Ni391  1  0.50000000  0.40416667  0.38750000  1.0
  Ni  Ni392  1  0.50000000  0.73750000  0.38750000  1.0
  Ni  Ni393  1  0.83333333  0.07083333  0.38750000  1.0
  Ni  Ni394  1  0.83333333  0.40416667  0.38750000  1.0
  Ni  Ni395  1  0.83333333  0.73750000  0.38750000  1.0
  Ni  Ni396  1  0.25000000  0.17916667  0.36250000  1.0
  Ni  Ni397  1  0.25000000  0.51250000  0.36250000  1.0
  Ni  Ni398  1  0.25000000  0.84583333  0.36250000  1.0
  Ni  Ni399  1  0.58333333  0.17916667  0.36250000  1.0
  Ni  Ni400  1  0.58333333  0.51250000  0.36250000  1.0
  Ni  Ni401  1  0.58333333  0.84583333  0.36250000  1.0
  Ni  Ni402  1  0.91666667  0.17916667  0.36250000  1.0
  Ni  Ni403  1  0.91666667  0.51250000  0.36250000  1.0
  Ni  Ni404  1  0.91666667  0.84583333  0.36250000  1.0
  Ni  Ni405  1  0.08333333  0.06250000  0.31250000  1.0
  Ni  Ni406  1  0.08333333  0.39583333  0.31250000  1.0
  Ni  Ni407  1  0.08333333  0.72916667  0.31250000  1.0
  Ni  Ni408  1  0.41666667  0.06250000  0.31250000  1.0
  Ni  Ni409  1  0.41666667  0.39583333  0.31250000  1.0
  Ni  Ni410  1  0.41666667  0.72916667  0.31250000  1.0
  Ni  Ni411  1  0.75000000  0.06250000  0.31250000  1.0
  Ni  Ni412  1  0.75000000  0.39583333  0.31250000  1.0
  Ni  Ni413  1  0.75000000  0.72916667  0.31250000  1.0
  Ni  Ni414  1  0.08333333  0.17916667  0.36250000  1.0
  Ni  Ni415  1  0.08333333  0.51250000  0.36250000  1.0
  Ni  Ni416  1  0.08333333  0.84583333  0.36250000  1.0
  Ni  Ni417  1  0.41666667  0.17916667  0.36250000  1.0
  Ni  Ni418  1  0.41666667  0.51250000  0.36250000  1.0
  Ni  Ni419  1  0.41666667  0.84583333  0.36250000  1.0
  Ni  Ni420  1  0.75000000  0.17916667  0.36250000  1.0
  Ni  Ni421  1  0.75000000  0.51250000  0.36250000  1.0
  Ni  Ni422  1  0.75000000  0.84583333  0.36250000  1.0
  Ni  Ni423  1  0.25000000  0.06250000  0.31250000  1.0
  Ni  Ni424  1  0.25000000  0.39583333  0.31250000  1.0
  Ni  Ni425  1  0.25000000  0.72916667  0.31250000  1.0
  Ni  Ni426  1  0.58333333  0.06250000  0.31250000  1.0
  Ni  Ni427  1  0.58333333  0.39583333  0.31250000  1.0
  Ni  Ni428  1  0.58333333  0.72916667  0.31250000  1.0
  Ni  Ni429  1  0.91666667  0.06250000  0.31250000  1.0
  Ni  Ni430  1  0.91666667  0.39583333  0.31250000  1.0
  Ni  Ni431  1  0.91666667  0.72916667  0.31250000  1.0
