# generated using pymatgen
data_HfNi2
_symmetry_space_group_name_H-M   'P 1'
_cell_length_a   14.66409357
_cell_length_b   20.73816001
_cell_length_c   34.21621833
_cell_angle_alpha   90.00000000
_cell_angle_beta   90.00000000
_cell_angle_gamma   90.00000000
_symmetry_Int_Tables_number   1
_chemical_formula_structural   HfNi2
_chemical_formula_sum   'Hf108 Ni216'
_cell_volume   10405.36819981
_cell_formula_units_Z   108
loop_
 _symmetry_equiv_pos_site_id
 _symmetry_equiv_pos_as_xyz
  1  'x, y, z'
loop_
 _atom_site_type_symbol
 _atom_site_label
 _atom_site_symmetry_multiplicity
 _atom_site_fract_x
 _atom_site_fract_y
 _atom_site_fract_z
 _atom_site_occupancy
  Hf  Hf0  1  0.00000000  0.16666667  0.87500000  1.0
  Hf  Hf1  1  0.00000000  0.50000000  0.87500000  1.0
  Hf  Hf2  1  0.00000000  0.83333333  0.87500000  1.0
  Hf  Hf3  1  0.33333333  0.16666667  0.87500000  1.0
  Hf  Hf4  1  0.33333333  0.50000000  0.87500000  1.0
  Hf  Hf5  1  0.33333333  0.83333333  0.87500000  1.0
  Hf  Hf6  1  0.66666667  0.16666667  0.87500000  1.0
  Hf  Hf7  1  0.66666667  0.50000000  0.87500000  1.0
  Hf  Hf8  1  0.66666667  0.83333333  0.87500000  1.0
  Hf  Hf9  1  0.16666667  0.33333333  0.94642857  1.0
  Hf  Hf10  1  0.16666667  0.66666667  0.94642857  1.0
  Hf  Hf11  1  0.16666667  0.00000000  0.94642857  1.0
  Hf  Hf12  1  0.50000000  0.33333333  0.94642857  1.0
  Hf  Hf13  1  0.50000000  0.66666667  0.94642857  1.0
  Hf  Hf14  1  0.50000000  0.00000000  0.94642857  1.0
  Hf  Hf15  1  0.83333333  0.33333333  0.94642857  1.0
  Hf  Hf16  1  0.83333333  0.66666667  0.94642857  1.0
  Hf  Hf17  1  0.83333333  0.00000000  0.94642857  1.0
  Hf  Hf18  1  0.00000000  0.25000000  0.94642857  1.0
  Hf  Hf19  1  0.00000000  0.58333333  0.94642857  1.0
  Hf  Hf20  1  0.00000000  0.91666667  0.94642857  1.0
  Hf  Hf21  1  0.33333333  0.25000000  0.94642857  1.0
  Hf  Hf22  1  0.33333333  0.58333333  0.94642857  1.0
  Hf  Hf23  1  0.33333333  0.91666667  0.94642857  1.0
  Hf  Hf24  1  0.66666667  0.25000000  0.94642857  1.0
  Hf  Hf25  1  0.66666667  0.58333333  0.94642857  1.0
  Hf  Hf26  1  0.66666667  0.91666667  0.94642857  1.0
  Hf  Hf27  1  0.16666667  0.08333333  0.87500000  1.0
  Hf  Hf28  1  0.16666667  0.41666667  0.87500000  1.0
  Hf  Hf29  1  0.16666667  0.75000000  0.87500000  1.0
  Hf  Hf30  1  0.50000000  0.08333333  0.87500000  1.0
  Hf  Hf31  1  0.50000000  0.41666667  0.87500000  1.0
  Hf  Hf32  1  0.50000000  0.75000000  0.87500000  1.0
  Hf  Hf33  1  0.83333333  0.08333333  0.87500000  1.0
  Hf  Hf34  1  0.83333333  0.41666667  0.87500000  1.0
  Hf  Hf35  1  0.83333333  0.75000000  0.87500000  1.0
  Hf  Hf36  1  0.00000000  0.16666667  0.73214286  1.0
  Hf  Hf37  1  0.00000000  0.50000000  0.73214286  1.0
  Hf  Hf38  1  0.00000000  0.83333333  0.73214286  1.0
  Hf  Hf39  1  0.33333333  0.16666667  0.73214286  1.0
  Hf  Hf40  1  0.33333333  0.50000000  0.73214286  1.0
  Hf  Hf41  1  0.33333333  0.83333333  0.73214286  1.0
  Hf  Hf42  1  0.66666667  0.16666667  0.73214286  1.0
  Hf  Hf43  1  0.66666667  0.50000000  0.73214286  1.0
  Hf  Hf44  1  0.66666667  0.83333333  0.73214286  1.0
  Hf  Hf45  1  0.16666667  0.33333333  0.80357143  1.0
  Hf  Hf46  1  0.16666667  0.66666667  0.80357143  1.0
  Hf  Hf47  1  0.16666667  0.00000000  0.80357143  1.0
  Hf  Hf48  1  0.50000000  0.33333333  0.80357143  1.0
  Hf  Hf49  1  0.50000000  0.66666667  0.80357143  1.0
  Hf  Hf50  1  0.50000000  0.00000000  0.80357143  1.0
  Hf  Hf51  1  0.83333333  0.33333333  0.80357143  1.0
  Hf  Hf52  1  0.83333333  0.66666667  0.80357143  1.0
  Hf  Hf53  1  0.83333333  0.00000000  0.80357143  1.0
  Hf  Hf54  1  0.00000000  0.25000000  0.80357143  1.0
  Hf  Hf55  1  0.00000000  0.58333333  0.80357143  1.0
  Hf  Hf56  1  0.00000000  0.91666667  0.80357143  1.0
  Hf  Hf57  1  0.33333333  0.25000000  0.80357143  1.0
  Hf  Hf58  1  0.33333333  0.58333333  0.80357143  1.0
  Hf  Hf59  1  0.33333333  0.91666667  0.80357143  1.0
  Hf  Hf60  1  0.66666667  0.25000000  0.80357143  1.0
  Hf  Hf61  1  0.66666667  0.58333333  0.80357143  1.0
  Hf  Hf62  1  0.66666667  0.91666667  0.80357143  1.0
  Hf  Hf63  1  0.16666667  0.08333333  0.73214286  1.0
  Hf  Hf64  1  0.16666667  0.41666667  0.73214286  1.0
  Hf  Hf65  1  0.16666667  0.75000000  0.73214286  1.0
  Hf  Hf66  1  0.50000000  0.08333333  0.73214286  1.0
  Hf  Hf67  1  0.50000000  0.41666667  0.73214286  1.0
  Hf  Hf68  1  0.50000000  0.75000000  0.73214286  1.0
  Hf  Hf69  1  0.83333333  0.08333333  0.73214286  1.0
  Hf  Hf70  1  0.83333333  0.41666667  0.73214286  1.0
  Hf  Hf71  1  0.83333333  0.75000000  0.73214286  1.0
  Hf  Hf72  1  0.00000000  0.16666667  0.58928571  1.0
  Hf  Hf73  1  0.00000000  0.50000000  0.58928571  1.0
  Hf  Hf74  1  0.00000000  0.83333333  0.58928571  1.0
  Hf  Hf75  1  0.33333333  0.16666667  0.58928571  1.0
  Hf  Hf76  1  0.33333333  0.50000000  0.58928571  1.0
  Hf  Hf77  1  0.33333333  0.83333333  0.58928571  1.0
  Hf  Hf78  1  0.66666667  0.16666667  0.58928571  1.0
  Hf  Hf79  1  0.66666667  0.50000000  0.58928571  1.0
  Hf  Hf80  1  0.66666667  0.83333333  0.58928571  1.0
  Hf  Hf81  1  0.16666667  0.33333333  0.66071429  1.0
  Hf  Hf82  1  0.16666667  0.66666667  0.66071429  1.0
  Hf  Hf83  1  0.16666667  0.00000000  0.66071429  1.0
  Hf  Hf84  1  0.50000000  0.33333333  0.66071429  1.0
  Hf  Hf85  1  0.50000000  0.66666667  0.66071429  1.0
  Hf  Hf86  1  0.50000000  0.00000000  0.66071429  1.0
  Hf  Hf87  1  0.83333333  0.33333333  0.66071429  1.0
  Hf  Hf88  1  0.83333333  0.66666667  0.66071429  1.0
  Hf  Hf89  1  0.83333333  0.00000000  0.66071429  1.0
  Hf  Hf90  1  0.00000000  0.25000000  0.66071429  1.0
  Hf  Hf91  1  0.00000000  0.58333333  0.66071429  1.0
  Hf  Hf92  1  0.00000000  0.91666667  0.66071429  1.0
  Hf  Hf93  1  0.33333333  0.25000000  0.66071429  1.0
  Hf  Hf94  1  0.33333333  0.58333333  0.66071429  1.0
  Hf  Hf95  1  0.33333333  0.91666667  0.66071429  1.0
  Hf  Hf96  1  0.66666667  0.25000000  0.66071429  1.0
  Hf  Hf97  1  0.66666667  0.58333333  0.66071429  1.0
  Hf  Hf98  1  0.66666667  0.91666667  0.66071429  1.0
  Hf  Hf99  1  0.16666667  0.08333333  0.58928571  1.0
  Hf  Hf100  1  0.16666667  0.41666667  0.58928571  1.0
  Hf  Hf101  1  0.16666667  0.75000000  0.58928571  1.0
  Hf  Hf102  1  0.50000000  0.08333333  0.58928571  1.0
  Hf  Hf103  1  0.50000000  0.41666667  0.58928571  1.0
  Hf  Hf104  1  0.50000000  0.75000000  0.58928571  1.0
  Hf  Hf105  1  0.83333333  0.08333333  0.58928571  1.0
  Hf  Hf106  1  0.83333333  0.41666667  0.58928571  1.0
  Hf  Hf107  1  0.83333333  0.75000000  0.58928571  1.0
  Ni  Ni108  1  0.00000000  0.04166667  0.98214286  1.0
  Ni  Ni109  1  0.00000000  0.37500000  0.98214286  1.0
  Ni  Ni110  1  0.00000000  0.70833333  0.98214286  1.0
  Ni  Ni111  1  0.33333333  0.04166667  0.98214286  1.0
  Ni  Ni112  1  0.33333333  0.37500000  0.98214286  1.0
  Ni  Ni113  1  0.33333333  0.70833333  0.98214286  1.0
  Ni  Ni114  1  0.66666667  0.04166667  0.98214286  1.0
  Ni  Ni115  1  0.66666667  0.37500000  0.98214286  1.0
  Ni  Ni116  1  0.66666667  0.70833333  0.98214286  1.0
  Ni  Ni117  1  0.16666667  0.20833333  0.91071429  1.0
  Ni  Ni118  1  0.16666667  0.54166667  0.91071429  1.0
  Ni  Ni119  1  0.16666667  0.87500000  0.91071429  1.0
  Ni  Ni120  1  0.50000000  0.20833333  0.91071429  1.0
  Ni  Ni121  1  0.50000000  0.54166667  0.91071429  1.0
  Ni  Ni122  1  0.50000000  0.87500000  0.91071429  1.0
  Ni  Ni123  1  0.83333333  0.20833333  0.91071429  1.0
  Ni  Ni124  1  0.83333333  0.54166667  0.91071429  1.0
  Ni  Ni125  1  0.83333333  0.87500000  0.91071429  1.0
  Ni  Ni126  1  0.00000000  0.04166667  0.91071429  1.0
  Ni  Ni127  1  0.00000000  0.37500000  0.91071429  1.0
  Ni  Ni128  1  0.00000000  0.70833333  0.91071429  1.0
  Ni  Ni129  1  0.33333333  0.04166667  0.91071429  1.0
  Ni  Ni130  1  0.33333333  0.37500000  0.91071429  1.0
  Ni  Ni131  1  0.33333333  0.70833333  0.91071429  1.0
  Ni  Ni132  1  0.66666667  0.04166667  0.91071429  1.0
  Ni  Ni133  1  0.66666667  0.37500000  0.91071429  1.0
  Ni  Ni134  1  0.66666667  0.70833333  0.91071429  1.0
  Ni  Ni135  1  0.16666667  0.20833333  0.98214286  1.0
  Ni  Ni136  1  0.16666667  0.54166667  0.98214286  1.0
  Ni  Ni137  1  0.16666667  0.87500000  0.98214286  1.0
  Ni  Ni138  1  0.50000000  0.20833333  0.98214286  1.0
  Ni  Ni139  1  0.50000000  0.54166667  0.98214286  1.0
  Ni  Ni140  1  0.50000000  0.87500000  0.98214286  1.0
  Ni  Ni141  1  0.83333333  0.20833333  0.98214286  1.0
  Ni  Ni142  1  0.83333333  0.54166667  0.98214286  1.0
  Ni  Ni143  1  0.83333333  0.87500000  0.98214286  1.0
  Ni  Ni144  1  0.25000000  0.12500000  0.94642857  1.0
  Ni  Ni145  1  0.25000000  0.45833333  0.94642857  1.0
  Ni  Ni146  1  0.25000000  0.79166667  0.94642857  1.0
  Ni  Ni147  1  0.58333333  0.12500000  0.94642857  1.0
  Ni  Ni148  1  0.58333333  0.45833333  0.94642857  1.0
  Ni  Ni149  1  0.58333333  0.79166667  0.94642857  1.0
  Ni  Ni150  1  0.91666667  0.12500000  0.94642857  1.0
  Ni  Ni151  1  0.91666667  0.45833333  0.94642857  1.0
  Ni  Ni152  1  0.91666667  0.79166667  0.94642857  1.0
  Ni  Ni153  1  0.08333333  0.29166667  0.87500000  1.0
  Ni  Ni154  1  0.08333333  0.62500000  0.87500000  1.0
  Ni  Ni155  1  0.08333333  0.95833333  0.87500000  1.0
  Ni  Ni156  1  0.41666667  0.29166667  0.87500000  1.0
  Ni  Ni157  1  0.41666667  0.62500000  0.87500000  1.0
  Ni  Ni158  1  0.41666667  0.95833333  0.87500000  1.0
  Ni  Ni159  1  0.75000000  0.29166667  0.87500000  1.0
  Ni  Ni160  1  0.75000000  0.62500000  0.87500000  1.0
  Ni  Ni161  1  0.75000000  0.95833333  0.87500000  1.0
  Ni  Ni162  1  0.08333333  0.12500000  0.94642857  1.0
  Ni  Ni163  1  0.08333333  0.45833333  0.94642857  1.0
  Ni  Ni164  1  0.08333333  0.79166667  0.94642857  1.0
  Ni  Ni165  1  0.41666667  0.12500000  0.94642857  1.0
  Ni  Ni166  1  0.41666667  0.45833333  0.94642857  1.0
  Ni  Ni167  1  0.41666667  0.79166667  0.94642857  1.0
  Ni  Ni168  1  0.75000000  0.12500000  0.94642857  1.0
  Ni  Ni169  1  0.75000000  0.45833333  0.94642857  1.0
  Ni  Ni170  1  0.75000000  0.79166667  0.94642857  1.0
  Ni  Ni171  1  0.25000000  0.29166667  0.87500000  1.0
  Ni  Ni172  1  0.25000000  0.62500000  0.87500000  1.0
  Ni  Ni173  1  0.25000000  0.95833333  0.87500000  1.0
  Ni  Ni174  1  0.58333333  0.29166667  0.87500000  1.0
  Ni  Ni175  1  0.58333333  0.62500000  0.87500000  1.0
  Ni  Ni176  1  0.58333333  0.95833333  0.87500000  1.0
  Ni  Ni177  1  0.91666667  0.29166667  0.87500000  1.0
  Ni  Ni178  1  0.91666667  0.62500000  0.87500000  1.0
  Ni  Ni179  1  0.91666667  0.95833333  0.87500000  1.0
  Ni  Ni180  1  0.33333333  0.04166667  0.83928571  1.0
  Ni  Ni181  1  0.33333333  0.37500000  0.83928571  1.0
  Ni  Ni182  1  0.33333333  0.70833333  0.83928571  1.0
  Ni  Ni183  1  0.66666667  0.04166667  0.83928571  1.0
  Ni  Ni184  1  0.66666667  0.37500000  0.83928571  1.0
  Ni  Ni185  1  0.66666667  0.70833333  0.83928571  1.0
  Ni  Ni186  1  1.00000000  0.04166667  0.83928571  1.0
  Ni  Ni187  1  1.00000000  0.37500000  0.83928571  1.0
  Ni  Ni188  1  1.00000000  0.70833333  0.83928571  1.0
  Ni  Ni189  1  0.16666667  0.20833333  0.76785714  1.0
  Ni  Ni190  1  0.16666667  0.54166667  0.76785714  1.0
  Ni  Ni191  1  0.16666667  0.87500000  0.76785714  1.0
  Ni  Ni192  1  0.50000000  0.20833333  0.76785714  1.0
  Ni  Ni193  1  0.50000000  0.54166667  0.76785714  1.0
  Ni  Ni194  1  0.50000000  0.87500000  0.76785714  1.0
  Ni  Ni195  1  0.83333333  0.20833333  0.76785714  1.0
  Ni  Ni196  1  0.83333333  0.54166667  0.76785714  1.0
  Ni  Ni197  1  0.83333333  0.87500000  0.76785714  1.0
  Ni  Ni198  1  0.00000000  0.04166667  0.76785714  1.0
  Ni  Ni199  1  0.00000000  0.37500000  0.76785714  1.0
  Ni  Ni200  1  0.00000000  0.70833333  0.76785714  1.0
  Ni  Ni201  1  0.33333333  0.04166667  0.76785714  1.0
  Ni  Ni202  1  0.33333333  0.37500000  0.76785714  1.0
  Ni  Ni203  1  0.33333333  0.70833333  0.76785714  1.0
  Ni  Ni204  1  0.66666667  0.04166667  0.76785714  1.0
  Ni  Ni205  1  0.66666667  0.37500000  0.76785714  1.0
  Ni  Ni206  1  0.66666667  0.70833333  0.76785714  1.0
  Ni  Ni207  1  0.16666667  0.20833333  0.83928571  1.0
  Ni  Ni208  1  0.16666667  0.54166667  0.83928571  1.0
  Ni  Ni209  1  0.16666667  0.87500000  0.83928571  1.0
  Ni  Ni210  1  0.50000000  0.20833333  0.83928571  1.0
  Ni  Ni211  1  0.50000000  0.54166667  0.83928571  1.0
  Ni  Ni212  1  0.50000000  0.87500000  0.83928571  1.0
  Ni  Ni213  1  0.83333333  0.20833333  0.83928571  1.0
  Ni  Ni214  1  0.83333333  0.54166667  0.83928571  1.0
  Ni  Ni215  1  0.83333333  0.87500000  0.83928571  1.0
  Ni  Ni216  1  0.25000000  0.12500000  0.80357143  1.0
  Ni  Ni217  1  0.25000000  0.45833333  0.80357143  1.0
  Ni  Ni218  1  0.25000000  0.79166667  0.80357143  1.0
  Ni  Ni219  1  0.58333333  0.12500000  0.80357143  1.0
  Ni  Ni220  1  0.58333333  0.45833333  0.80357143  1.0
  Ni  Ni221  1  0.58333333  0.79166667  0.80357143  1.0
  Ni  Ni222  1  0.91666667  0.12500000  0.80357143  1.0
  Ni  Ni223  1  0.91666667  0.45833333  0.80357143  1.0
  Ni  Ni224  1  0.91666667  0.79166667  0.80357143  1.0
  Ni  Ni225  1  0.08333333  0.29166667  0.73214286  1.0
  Ni  Ni226  1  0.08333333  0.62500000  0.73214286  1.0
  Ni  Ni227  1  0.08333333  0.95833333  0.73214286  1.0
  Ni  Ni228  1  0.41666667  0.29166667  0.73214286  1.0
  Ni  Ni229  1  0.41666667  0.62500000  0.73214286  1.0
  Ni  Ni230  1  0.41666667  0.95833333  0.73214286  1.0
  Ni  Ni231  1  0.75000000  0.29166667  0.73214286  1.0
  Ni  Ni232  1  0.75000000  0.62500000  0.73214286  1.0
  Ni  Ni233  1  0.75000000  0.95833333  0.73214286  1.0
  Ni  Ni234  1  0.08333333  0.12500000  0.80357143  1.0
  Ni  Ni235  1  0.08333333  0.45833333  0.80357143  1.0
  Ni  Ni236  1  0.08333333  0.79166667  0.80357143  1.0
  Ni  Ni237  1  0.41666667  0.12500000  0.80357143  1.0
  Ni  Ni238  1  0.41666667  0.45833333  0.80357143  1.0
  Ni  Ni239  1  0.41666667  0.79166667  0.80357143  1.0
  Ni  Ni240  1  0.75000000  0.12500000  0.80357143  1.0
  Ni  Ni241  1  0.75000000  0.45833333  0.80357143  1.0
  Ni  Ni242  1  0.75000000  0.79166667  0.80357143  1.0
  Ni  Ni243  1  0.25000000  0.29166667  0.73214286  1.0
  Ni  Ni244  1  0.25000000  0.62500000  0.73214286  1.0
  Ni  Ni245  1  0.25000000  0.95833333  0.73214286  1.0
  Ni  Ni246  1  0.58333333  0.29166667  0.73214286  1.0
  Ni  Ni247  1  0.58333333  0.62500000  0.73214286  1.0
  Ni  Ni248  1  0.58333333  0.95833333  0.73214286  1.0
  Ni  Ni249  1  0.91666667  0.29166667  0.73214286  1.0
  Ni  Ni250  1  0.91666667  0.62500000  0.73214286  1.0
  Ni  Ni251  1  0.91666667  0.95833333  0.73214286  1.0
  Ni  Ni252  1  0.00000000  0.04166667  0.69642857  1.0
  Ni  Ni253  1  0.00000000  0.37500000  0.69642857  1.0
  Ni  Ni254  1  0.00000000  0.70833333  0.69642857  1.0
  Ni  Ni255  1  0.33333333  0.04166667  0.69642857  1.0
  Ni  Ni256  1  0.33333333  0.37500000  0.69642857  1.0
  Ni  Ni257  1  0.33333333  0.70833333  0.69642857  1.0
  Ni  Ni258  1  0.66666667  0.04166667  0.69642857  1.0
  Ni  Ni259  1  0.66666667  0.37500000  0.69642857  1.0
  Ni  Ni260  1  0.66666667  0.70833333  0.69642857  1.0
  Ni  Ni261  1  0.16666667  0.20833333  0.62500000  1.0
  Ni  Ni262  1  0.16666667  0.54166667  0.62500000  1.0
  Ni  Ni263  1  0.16666667  0.87500000  0.62500000  1.0
  Ni  Ni264  1  0.50000000  0.20833333  0.62500000  1.0
  Ni  Ni265  1  0.50000000  0.54166667  0.62500000  1.0
  Ni  Ni266  1  0.50000000  0.87500000  0.62500000  1.0
  Ni  Ni267  1  0.83333333  0.20833333  0.62500000  1.0
  Ni  Ni268  1  0.83333333  0.54166667  0.62500000  1.0
  Ni  Ni269  1  0.83333333  0.87500000  0.62500000  1.0
  Ni  Ni270  1  0.00000000  0.04166667  0.62500000  1.0
  Ni  Ni271  1  0.00000000  0.37500000  0.62500000  1.0
  Ni  Ni272  1  0.00000000  0.70833333  0.62500000  1.0
  Ni  Ni273  1  0.33333333  0.04166667  0.62500000  1.0
  Ni  Ni274  1  0.33333333  0.37500000  0.62500000  1.0
  Ni  Ni275  1  0.33333333  0.70833333  0.62500000  1.0
  Ni  Ni276  1  0.66666667  0.04166667  0.62500000  1.0
  Ni  Ni277  1  0.66666667  0.37500000  0.62500000  1.0
  Ni  Ni278  1  0.66666667  0.70833333  0.62500000  1.0
  Ni  Ni279  1  0.16666667  0.20833333  0.69642857  1.0
  Ni  Ni280  1  0.16666667  0.54166667  0.69642857  1.0
  Ni  Ni281  1  0.16666667  0.87500000  0.69642857  1.0
  Ni  Ni282  1  0.50000000  0.20833333  0.69642857  1.0
  Ni  Ni283  1  0.50000000  0.54166667  0.69642857  1.0
  Ni  Ni284  1  0.50000000  0.87500000  0.69642857  1.0
  Ni  Ni285  1  0.83333333  0.20833333  0.69642857  1.0
  Ni  Ni286  1  0.83333333  0.54166667  0.69642857  1.0
  Ni  Ni287  1  0.83333333  0.87500000  0.69642857  1.0
  Ni  Ni288  1  0.25000000  0.12500000  0.66071429  1.0
  Ni  Ni289  1  0.25000000  0.45833333  0.66071429  1.0
  Ni  Ni290  1  0.25000000  0.79166667  0.66071429  1.0
  Ni  Ni291  1  0.58333333  0.12500000  0.66071429  1.0
  Ni  Ni292  1  0.58333333  0.45833333  0.66071429  1.0
  Ni  Ni293  1  0.58333333  0.79166667  0.66071429  1.0
  Ni  Ni294  1  0.91666667  0.12500000  0.66071429  1.0
  Ni  Ni295  1  0.91666667  0.45833333  0.66071429  1.0
  Ni  Ni296  1  0.91666667  0.79166667  0.66071429  1.0
  Ni  Ni297  1  0.08333333  0.29166667  0.58928571  1.0
  Ni  Ni298  1  0.08333333  0.62500000  0.58928571  1.0
  Ni  Ni299  1  0.08333333  0.95833333  0.58928571  1.0
  Ni  Ni300  1  0.41666667  0.29166667  0.58928571  1.0
  Ni  Ni301  1  0.41666667  0.62500000  0.58928571  1.0
  Ni  Ni302  1  0.41666667  0.95833333  0.58928571  1.0
  Ni  Ni303  1  0.75000000  0.29166667  0.58928571  1.0
  Ni  Ni304  1  0.75000000  0.62500000  0.58928571  1.0
  Ni  Ni305  1  0.75000000  0.95833333  0.58928571  1.0
  Ni  Ni306  1  0.08333333  0.12500000  0.66071429  1.0
  Ni  Ni307  1  0.08333333  0.45833333  0.66071429  1.0
  Ni  Ni308  1  0.08333333  0.79166667  0.66071429  1.0
  Ni  Ni309  1  0.41666667  0.12500000  0.66071429  1.0
  Ni  Ni310  1  0.41666667  0.45833333  0.66071429  1.0
  Ni  Ni311  1  0.41666667  0.79166667  0.66071429  1.0
  Ni  Ni312  1  0.75000000  0.12500000  0.66071429  1.0
  Ni  Ni313  1  0.75000000  0.45833333  0.66071429  1.0
  Ni  Ni314  1  0.75000000  0.79166667  0.66071429  1.0
  Ni  Ni315  1  0.25000000  0.29166667  0.58928571  1.0
  Ni  Ni316  1  0.25000000  0.62500000  0.58928571  1.0
  Ni  Ni317  1  0.25000000  0.95833333  0.58928571  1.0
  Ni  Ni318  1  0.58333333  0.29166667  0.58928571  1.0
  Ni  Ni319  1  0.58333333  0.62500000  0.58928571  1.0
  Ni  Ni320  1  0.58333333  0.95833333  0.58928571  1.0
  Ni  Ni321  1  0.91666667  0.29166667  0.58928571  1.0
  Ni  Ni322  1  0.91666667  0.62500000  0.58928571  1.0
  Ni  Ni323  1  0.91666667  0.95833333  0.58928571  1.0
