# generated using pymatgen
data_HfNi3
_symmetry_space_group_name_H-M   'P 1'
_cell_length_a   26.54105591
_cell_length_b   30.89062704
_cell_length_c   27.28390696
_cell_angle_alpha   88.98063666
_cell_angle_beta   84.59000088
_cell_angle_gamma   86.85490447
_symmetry_Int_Tables_number   1
_chemical_formula_structural   HfNi3
_chemical_formula_sum   'Hf162 Ni486'
_cell_volume   22234.27579941
_cell_formula_units_Z   162
loop_
 _symmetry_equiv_pos_site_id
 _symmetry_equiv_pos_as_xyz
  1  'x, y, z'
loop_
 _atom_site_type_symbol
 _atom_site_label
 _atom_site_symmetry_multiplicity
 _atom_site_fract_x
 _atom_site_fract_y
 _atom_site_fract_z
 _atom_site_occupancy
  Hf  Hf0  1  0.11394625  0.29817650  0.91212275  1.0
  Hf  Hf1  1  0.11394625  0.63150983  0.91212275  1.0
  Hf  Hf2  1  0.11394625  0.96484317  0.91212275  1.0
  Hf  Hf3  1  0.44727958  0.29817650  0.91212275  1.0
  Hf  Hf4  1  0.44727958  0.63150983  0.91212275  1.0
  Hf  Hf5  1  0.44727958  0.96484317  0.91212275  1.0
  Hf  Hf6  1  0.78061292  0.29817650  0.91212275  1.0
  Hf  Hf7  1  0.78061292  0.63150983  0.91212275  1.0
  Hf  Hf8  1  0.78061292  0.96484317  0.91212275  1.0
  Hf  Hf9  1  0.21811292  0.08984317  0.97462275  1.0
  Hf  Hf10  1  0.21811292  0.42317650  0.97462275  1.0
  Hf  Hf11  1  0.21811292  0.75650983  0.97462275  1.0
  Hf  Hf12  1  0.55144625  0.08984317  0.97462275  1.0
  Hf  Hf13  1  0.55144625  0.42317650  0.97462275  1.0
  Hf  Hf14  1  0.55144625  0.75650983  0.97462275  1.0
  Hf  Hf15  1  0.88477958  0.08984317  0.97462275  1.0
  Hf  Hf16  1  0.88477958  0.42317650  0.97462275  1.0
  Hf  Hf17  1  0.88477958  0.75650983  0.97462275  1.0
  Hf  Hf18  1  0.01761917  0.11586400  0.96681650  1.0
  Hf  Hf19  1  0.01761917  0.44919733  0.96681650  1.0
  Hf  Hf20  1  0.01761917  0.78253067  0.96681650  1.0
  Hf  Hf21  1  0.35095250  0.11586400  0.96681650  1.0
  Hf  Hf22  1  0.35095250  0.44919733  0.96681650  1.0
  Hf  Hf23  1  0.35095250  0.78253067  0.96681650  1.0
  Hf  Hf24  1  0.68428583  0.11586400  0.96681650  1.0
  Hf  Hf25  1  0.68428583  0.44919733  0.96681650  1.0
  Hf  Hf26  1  0.68428583  0.78253067  0.96681650  1.0
  Hf  Hf27  1  0.24678583  0.32419733  0.90431650  1.0
  Hf  Hf28  1  0.24678583  0.65753067  0.90431650  1.0
  Hf  Hf29  1  0.24678583  0.99086400  0.90431650  1.0
  Hf  Hf30  1  0.58011917  0.32419733  0.90431650  1.0
  Hf  Hf31  1  0.58011917  0.65753067  0.90431650  1.0
  Hf  Hf32  1  0.58011917  0.99086400  0.90431650  1.0
  Hf  Hf33  1  0.91345250  0.32419733  0.90431650  1.0
  Hf  Hf34  1  0.91345250  0.65753067  0.90431650  1.0
  Hf  Hf35  1  0.91345250  0.99086400  0.90431650  1.0
  Hf  Hf36  1  0.23244937  0.20702025  0.93946963  1.0
  Hf  Hf37  1  0.23244938  0.54035358  0.93946962  1.0
  Hf  Hf38  1  0.23244938  0.87368692  0.93946962  1.0
  Hf  Hf39  1  0.56578271  0.20702025  0.93946962  1.0
  Hf  Hf40  1  0.56578271  0.54035358  0.93946962  1.0
  Hf  Hf41  1  0.56578271  0.87368692  0.93946963  1.0
  Hf  Hf42  1  0.89911604  0.20702025  0.93946962  1.0
  Hf  Hf43  1  0.89911604  0.54035358  0.93946962  1.0
  Hf  Hf44  1  0.89911604  0.87368692  0.93946962  1.0
  Hf  Hf45  1  0.12828271  0.08202025  0.87696962  1.0
  Hf  Hf46  1  0.12828271  0.41535358  0.87696962  1.0
  Hf  Hf47  1  0.12828271  0.74868692  0.87696962  1.0
  Hf  Hf48  1  0.46161604  0.08202025  0.87696962  1.0
  Hf  Hf49  1  0.46161604  0.41535358  0.87696962  1.0
  Hf  Hf50  1  0.46161604  0.74868692  0.87696962  1.0
  Hf  Hf51  1  0.79494937  0.08202025  0.87696962  1.0
  Hf  Hf52  1  0.79494938  0.41535358  0.87696962  1.0
  Hf  Hf53  1  0.79494938  0.74868692  0.87696962  1.0
  Hf  Hf54  1  0.23894625  0.04817650  0.78712275  1.0
  Hf  Hf55  1  0.23894625  0.38150983  0.78712275  1.0
  Hf  Hf56  1  0.23894625  0.71484317  0.78712275  1.0
  Hf  Hf57  1  0.57227958  0.04817650  0.78712275  1.0
  Hf  Hf58  1  0.57227958  0.38150983  0.78712275  1.0
  Hf  Hf59  1  0.57227958  0.71484317  0.78712275  1.0
  Hf  Hf60  1  0.90561292  0.04817650  0.78712275  1.0
  Hf  Hf61  1  0.90561292  0.38150983  0.78712275  1.0
  Hf  Hf62  1  0.90561292  0.71484317  0.78712275  1.0
  Hf  Hf63  1  0.00977958  0.17317650  0.84962275  1.0
  Hf  Hf64  1  0.00977958  0.50650983  0.84962275  1.0
  Hf  Hf65  1  0.00977958  0.83984317  0.84962275  1.0
  Hf  Hf66  1  0.34311292  0.17317650  0.84962275  1.0
  Hf  Hf67  1  0.34311292  0.50650983  0.84962275  1.0
  Hf  Hf68  1  0.34311292  0.83984317  0.84962275  1.0
  Hf  Hf69  1  0.67644625  0.17317650  0.84962275  1.0
  Hf  Hf70  1  0.67644625  0.50650983  0.84962275  1.0
  Hf  Hf71  1  0.67644625  0.83984317  0.84962275  1.0
  Hf  Hf72  1  0.14261917  0.19919733  0.84181650  1.0
  Hf  Hf73  1  0.14261917  0.53253067  0.84181650  1.0
  Hf  Hf74  1  0.14261917  0.86586400  0.84181650  1.0
  Hf  Hf75  1  0.47595250  0.19919733  0.84181650  1.0
  Hf  Hf76  1  0.47595250  0.53253067  0.84181650  1.0
  Hf  Hf77  1  0.47595250  0.86586400  0.84181650  1.0
  Hf  Hf78  1  0.80928583  0.19919733  0.84181650  1.0
  Hf  Hf79  1  0.80928583  0.53253067  0.84181650  1.0
  Hf  Hf80  1  0.80928583  0.86586400  0.84181650  1.0
  Hf  Hf81  1  0.03845250  0.07419733  0.77931650  1.0
  Hf  Hf82  1  0.03845250  0.40753067  0.77931650  1.0
  Hf  Hf83  1  0.03845250  0.74086400  0.77931650  1.0
  Hf  Hf84  1  0.37178583  0.07419733  0.77931650  1.0
  Hf  Hf85  1  0.37178583  0.40753067  0.77931650  1.0
  Hf  Hf86  1  0.37178583  0.74086400  0.77931650  1.0
  Hf  Hf87  1  0.70511917  0.07419733  0.77931650  1.0
  Hf  Hf88  1  0.70511917  0.40753067  0.77931650  1.0
  Hf  Hf89  1  0.70511917  0.74086400  0.77931650  1.0
  Hf  Hf90  1  0.02411604  0.29035358  0.81446962  1.0
  Hf  Hf91  1  0.02411604  0.62368692  0.81446962  1.0
  Hf  Hf92  1  0.02411604  0.95702025  0.81446962  1.0
  Hf  Hf93  1  0.35744938  0.29035358  0.81446962  1.0
  Hf  Hf94  1  0.35744938  0.62368692  0.81446962  1.0
  Hf  Hf95  1  0.35744938  0.95702025  0.81446962  1.0
  Hf  Hf96  1  0.69078271  0.29035358  0.81446962  1.0
  Hf  Hf97  1  0.69078271  0.62368692  0.81446962  1.0
  Hf  Hf98  1  0.69078271  0.95702025  0.81446963  1.0
  Hf  Hf99  1  0.25328271  0.16535358  0.75196963  1.0
  Hf  Hf100  1  0.25328271  0.49868692  0.75196963  1.0
  Hf  Hf101  1  0.25328271  0.83202025  0.75196963  1.0
  Hf  Hf102  1  0.58661604  0.16535358  0.75196963  1.0
  Hf  Hf103  1  0.58661604  0.49868692  0.75196962  1.0
  Hf  Hf104  1  0.58661604  0.83202025  0.75196963  1.0
  Hf  Hf105  1  0.91994938  0.16535358  0.75196963  1.0
  Hf  Hf106  1  0.91994938  0.49868692  0.75196963  1.0
  Hf  Hf107  1  0.91994938  0.83202025  0.75196962  1.0
  Hf  Hf108  1  0.03061292  0.13150983  0.66212275  1.0
  Hf  Hf109  1  0.03061292  0.46484317  0.66212275  1.0
  Hf  Hf110  1  0.03061292  0.79817650  0.66212275  1.0
  Hf  Hf111  1  0.36394625  0.13150983  0.66212275  1.0
  Hf  Hf112  1  0.36394625  0.46484317  0.66212275  1.0
  Hf  Hf113  1  0.36394625  0.79817650  0.66212275  1.0
  Hf  Hf114  1  0.69727958  0.13150983  0.66212275  1.0
  Hf  Hf115  1  0.69727958  0.46484317  0.66212275  1.0
  Hf  Hf116  1  0.69727958  0.79817650  0.66212275  1.0
  Hf  Hf117  1  0.13477958  0.25650983  0.72462275  1.0
  Hf  Hf118  1  0.13477958  0.58984317  0.72462275  1.0
  Hf  Hf119  1  0.13477958  0.92317650  0.72462275  1.0
  Hf  Hf120  1  0.46811292  0.25650983  0.72462275  1.0
  Hf  Hf121  1  0.46811292  0.58984317  0.72462275  1.0
  Hf  Hf122  1  0.46811292  0.92317650  0.72462275  1.0
  Hf  Hf123  1  0.80144625  0.25650983  0.72462275  1.0
  Hf  Hf124  1  0.80144625  0.58984317  0.72462275  1.0
  Hf  Hf125  1  0.80144625  0.92317650  0.72462275  1.0
  Hf  Hf126  1  0.26761917  0.28253067  0.71681650  1.0
  Hf  Hf127  1  0.26761917  0.61586400  0.71681650  1.0
  Hf  Hf128  1  0.26761917  0.94919733  0.71681650  1.0
  Hf  Hf129  1  0.60095250  0.28253067  0.71681650  1.0
  Hf  Hf130  1  0.60095250  0.61586400  0.71681650  1.0
  Hf  Hf131  1  0.60095250  0.94919733  0.71681650  1.0
  Hf  Hf132  1  0.93428583  0.28253067  0.71681650  1.0
  Hf  Hf133  1  0.93428583  0.61586400  0.71681650  1.0
  Hf  Hf134  1  0.93428583  0.94919733  0.71681650  1.0
  Hf  Hf135  1  0.16345250  0.15753067  0.65431650  1.0
  Hf  Hf136  1  0.16345250  0.49086400  0.65431650  1.0
  Hf  Hf137  1  0.16345250  0.82419733  0.65431650  1.0
  Hf  Hf138  1  0.49678583  0.15753067  0.65431650  1.0
  Hf  Hf139  1  0.49678583  0.49086400  0.65431650  1.0
  Hf  Hf140  1  0.49678583  0.82419733  0.65431650  1.0
  Hf  Hf141  1  0.83011917  0.15753067  0.65431650  1.0
  Hf  Hf142  1  0.83011917  0.49086400  0.65431650  1.0
  Hf  Hf143  1  0.83011917  0.82419733  0.65431650  1.0
  Hf  Hf144  1  0.14911604  0.04035358  0.68946962  1.0
  Hf  Hf145  1  0.14911604  0.37368692  0.68946962  1.0
  Hf  Hf146  1  0.14911604  0.70702025  0.68946962  1.0
  Hf  Hf147  1  0.48244938  0.04035358  0.68946962  1.0
  Hf  Hf148  1  0.48244938  0.37368692  0.68946962  1.0
  Hf  Hf149  1  0.48244937  0.70702025  0.68946962  1.0
  Hf  Hf150  1  0.81578271  0.04035358  0.68946962  1.0
  Hf  Hf151  1  0.81578271  0.37368692  0.68946962  1.0
  Hf  Hf152  1  0.81578271  0.70702025  0.68946962  1.0
  Hf  Hf153  1  0.04494937  0.24868692  0.62696962  1.0
  Hf  Hf154  1  0.04494937  0.58202025  0.62696962  1.0
  Hf  Hf155  1  0.04494937  0.91535358  0.62696962  1.0
  Hf  Hf156  1  0.37828271  0.24868692  0.62696962  1.0
  Hf  Hf157  1  0.37828271  0.58202025  0.62696962  1.0
  Hf  Hf158  1  0.37828271  0.91535358  0.62696963  1.0
  Hf  Hf159  1  0.71161604  0.24868692  0.62696963  1.0
  Hf  Hf160  1  0.71161604  0.58202025  0.62696962  1.0
  Hf  Hf161  1  0.71161604  0.91535358  0.62696962  1.0
  Ni  Ni162  1  0.23638996  0.00764108  0.99928337  1.0
  Ni  Ni163  1  0.23638996  0.34097442  0.99928337  1.0
  Ni  Ni164  1  0.23638996  0.67430775  0.99928337  1.0
  Ni  Ni165  1  0.56972329  0.00764108  0.99928337  1.0
  Ni  Ni166  1  0.56972329  0.34097442  0.99928337  1.0
  Ni  Ni167  1  0.56972329  0.67430775  0.99928337  1.0
  Ni  Ni168  1  0.90305663  0.00764108  0.99928337  1.0
  Ni  Ni169  1  0.90305663  0.34097442  0.99928337  1.0
  Ni  Ni170  1  0.90305663  0.67430775  0.99928337  1.0
  Ni  Ni171  1  0.13222329  0.21597442  0.93678337  1.0
  Ni  Ni172  1  0.13222329  0.54930775  0.93678337  1.0
  Ni  Ni173  1  0.13222329  0.88264108  0.93678337  1.0
  Ni  Ni174  1  0.46555663  0.21597442  0.93678337  1.0
  Ni  Ni175  1  0.46555663  0.54930775  0.93678337  1.0
  Ni  Ni176  1  0.46555663  0.88264108  0.93678337  1.0
  Ni  Ni177  1  0.79888996  0.21597442  0.93678337  1.0
  Ni  Ni178  1  0.79888996  0.54930775  0.93678337  1.0
  Ni  Ni179  1  0.79888996  0.88264108  0.93678337  1.0
  Ni  Ni180  1  0.18758933  0.28241367  0.97000300  1.0
  Ni  Ni181  1  0.18758933  0.61574700  0.97000300  1.0
  Ni  Ni182  1  0.18758933  0.94908033  0.97000300  1.0
  Ni  Ni183  1  0.52092267  0.28241367  0.97000300  1.0
  Ni  Ni184  1  0.52092267  0.61574700  0.97000300  1.0
  Ni  Ni185  1  0.52092267  0.94908033  0.97000300  1.0
  Ni  Ni186  1  0.85425600  0.28241367  0.97000300  1.0
  Ni  Ni187  1  0.85425600  0.61574700  0.97000300  1.0
  Ni  Ni188  1  0.85425600  0.94908033  0.97000300  1.0
  Ni  Ni189  1  0.08342267  0.15741367  0.90750300  1.0
  Ni  Ni190  1  0.08342267  0.49074700  0.90750300  1.0
  Ni  Ni191  1  0.08342267  0.82408033  0.90750300  1.0
  Ni  Ni192  1  0.41675600  0.15741367  0.90750300  1.0
  Ni  Ni193  1  0.41675600  0.49074700  0.90750300  1.0
  Ni  Ni194  1  0.41675600  0.82408033  0.90750300  1.0
  Ni  Ni195  1  0.75008933  0.15741367  0.90750300  1.0
  Ni  Ni196  1  0.75008933  0.49074700  0.90750300  1.0
  Ni  Ni197  1  0.75008933  0.82408033  0.90750300  1.0
  Ni  Ni198  1  0.30282921  0.05193392  0.93284413  1.0
  Ni  Ni199  1  0.30282921  0.38526725  0.93284413  1.0
  Ni  Ni200  1  0.30282921  0.71860058  0.93284413  1.0
  Ni  Ni201  1  0.63616254  0.05193392  0.93284413  1.0
  Ni  Ni202  1  0.63616254  0.38526725  0.93284413  1.0
  Ni  Ni203  1  0.63616254  0.71860058  0.93284413  1.0
  Ni  Ni204  1  0.96949587  0.05193392  0.93284413  1.0
  Ni  Ni205  1  0.96949588  0.38526725  0.93284413  1.0
  Ni  Ni206  1  0.96949588  0.71860058  0.93284413  1.0
  Ni  Ni207  1  0.07366254  0.17693392  0.99534412  1.0
  Ni  Ni208  1  0.07366254  0.51026725  0.99534413  1.0
  Ni  Ni209  1  0.07366254  0.84360058  0.99534413  1.0
  Ni  Ni210  1  0.40699587  0.17693392  0.99534413  1.0
  Ni  Ni211  1  0.40699587  0.51026725  0.99534413  1.0
  Ni  Ni212  1  0.40699587  0.84360058  0.99534413  1.0
  Ni  Ni213  1  0.74032921  0.17693392  0.99534413  1.0
  Ni  Ni214  1  0.74032921  0.51026725  0.99534413  1.0
  Ni  Ni215  1  0.74032921  0.84360058  0.99534412  1.0
  Ni  Ni216  1  0.18036604  0.14452025  0.90821962  1.0
  Ni  Ni217  1  0.18036604  0.47785358  0.90821962  1.0
  Ni  Ni218  1  0.18036604  0.81118692  0.90821962  1.0
  Ni  Ni219  1  0.51369938  0.14452025  0.90821962  1.0
  Ni  Ni220  1  0.51369938  0.47785358  0.90821962  1.0
  Ni  Ni221  1  0.51369937  0.81118692  0.90821962  1.0
  Ni  Ni222  1  0.84703271  0.14452025  0.90821962  1.0
  Ni  Ni223  1  0.84703271  0.47785358  0.90821962  1.0
  Ni  Ni224  1  0.84703271  0.81118692  0.90821962  1.0
  Ni  Ni225  1  0.28453271  0.26952025  0.97071962  1.0
  Ni  Ni226  1  0.28453271  0.60285358  0.97071963  1.0
  Ni  Ni227  1  0.28453271  0.93618692  0.97071963  1.0
  Ni  Ni228  1  0.61786604  0.26952025  0.97071963  1.0
  Ni  Ni229  1  0.61786604  0.60285358  0.97071963  1.0
  Ni  Ni230  1  0.61786604  0.93618692  0.97071962  1.0
  Ni  Ni231  1  0.95119938  0.26952025  0.97071963  1.0
  Ni  Ni232  1  0.95119938  0.60285358  0.97071963  1.0
  Ni  Ni233  1  0.95119938  0.93618692  0.97071962  1.0
  Ni  Ni234  1  0.06578271  0.04035358  0.93946962  1.0
  Ni  Ni235  1  0.06578271  0.37368692  0.93946962  1.0
  Ni  Ni236  1  0.06578271  0.70702025  0.93946962  1.0
  Ni  Ni237  1  0.39911604  0.04035358  0.93946962  1.0
  Ni  Ni238  1  0.39911604  0.37368692  0.93946962  1.0
  Ni  Ni239  1  0.39911604  0.70702025  0.93946962  1.0
  Ni  Ni240  1  0.73244937  0.04035358  0.93946963  1.0
  Ni  Ni241  1  0.73244937  0.37368692  0.93946962  1.0
  Ni  Ni242  1  0.73244938  0.70702025  0.93946963  1.0
  Ni  Ni243  1  0.29494938  0.24868692  0.87696962  1.0
  Ni  Ni244  1  0.29494938  0.58202025  0.87696962  1.0
  Ni  Ni245  1  0.29494938  0.91535358  0.87696962  1.0
  Ni  Ni246  1  0.62828271  0.24868692  0.87696962  1.0
  Ni  Ni247  1  0.62828271  0.58202025  0.87696962  1.0
  Ni  Ni248  1  0.62828271  0.91535358  0.87696962  1.0
  Ni  Ni249  1  0.96161604  0.24868692  0.87696962  1.0
  Ni  Ni250  1  0.96161604  0.58202025  0.87696962  1.0
  Ni  Ni251  1  0.96161604  0.91535358  0.87696962  1.0
  Ni  Ni252  1  0.11786604  0.10285358  0.97071962  1.0
  Ni  Ni253  1  0.11786604  0.43618692  0.97071962  1.0
  Ni  Ni254  1  0.11786604  0.76952025  0.97071962  1.0
  Ni  Ni255  1  0.45119938  0.10285358  0.97071962  1.0
  Ni  Ni256  1  0.45119938  0.43618692  0.97071962  1.0
  Ni  Ni257  1  0.45119938  0.76952025  0.97071962  1.0
  Ni  Ni258  1  0.78453271  0.10285358  0.97071962  1.0
  Ni  Ni259  1  0.78453271  0.43618692  0.97071962  1.0
  Ni  Ni260  1  0.78453271  0.76952025  0.97071963  1.0
  Ni  Ni261  1  0.01369937  0.31118692  0.90821962  1.0
  Ni  Ni262  1  0.01369937  0.64452025  0.90821962  1.0
  Ni  Ni263  1  0.01369937  0.97785358  0.90821963  1.0
  Ni  Ni264  1  0.34703271  0.31118692  0.90821963  1.0
  Ni  Ni265  1  0.34703271  0.64452025  0.90821962  1.0
  Ni  Ni266  1  0.34703271  0.97785358  0.90821962  1.0
  Ni  Ni267  1  0.68036604  0.31118692  0.90821962  1.0
  Ni  Ni268  1  0.68036604  0.64452025  0.90821962  1.0
  Ni  Ni269  1  0.68036604  0.97785358  0.90821963  1.0
  Ni  Ni270  1  0.16206954  0.02877325  0.94609513  1.0
  Ni  Ni271  1  0.16206954  0.36210658  0.94609512  1.0
  Ni  Ni272  1  0.16206954  0.69543992  0.94609513  1.0
  Ni  Ni273  1  0.49540288  0.02877325  0.94609513  1.0
  Ni  Ni274  1  0.49540288  0.36210658  0.94609513  1.0
  Ni  Ni275  1  0.49540288  0.69543992  0.94609513  1.0
  Ni  Ni276  1  0.82873621  0.02877325  0.94609513  1.0
  Ni  Ni277  1  0.82873621  0.36210658  0.94609513  1.0
  Ni  Ni278  1  0.82873621  0.69543992  0.94609512  1.0
  Ni  Ni279  1  0.05790287  0.23710658  0.88359512  1.0
  Ni  Ni280  1  0.05790287  0.57043992  0.88359512  1.0
  Ni  Ni281  1  0.05790287  0.90377325  0.88359513  1.0
  Ni  Ni282  1  0.39123621  0.23710658  0.88359513  1.0
  Ni  Ni283  1  0.39123621  0.57043992  0.88359512  1.0
  Ni  Ni284  1  0.39123621  0.90377325  0.88359513  1.0
  Ni  Ni285  1  0.72456954  0.23710658  0.88359513  1.0
  Ni  Ni286  1  0.72456954  0.57043992  0.88359512  1.0
  Ni  Ni287  1  0.72456954  0.90377325  0.88359513  1.0
  Ni  Ni288  1  0.27730942  0.13162683  0.90893625  1.0
  Ni  Ni289  1  0.27730942  0.46496017  0.90893625  1.0
  Ni  Ni290  1  0.27730942  0.79829350  0.90893625  1.0
  Ni  Ni291  1  0.61064275  0.13162683  0.90893625  1.0
  Ni  Ni292  1  0.61064275  0.46496017  0.90893625  1.0
  Ni  Ni293  1  0.61064275  0.79829350  0.90893625  1.0
  Ni  Ni294  1  0.94397608  0.13162683  0.90893625  1.0
  Ni  Ni295  1  0.94397608  0.46496017  0.90893625  1.0
  Ni  Ni296  1  0.94397608  0.79829350  0.90893625  1.0
  Ni  Ni297  1  0.04814275  0.25662683  0.97143625  1.0
  Ni  Ni298  1  0.04814275  0.58996017  0.97143625  1.0
  Ni  Ni299  1  0.04814275  0.92329350  0.97143625  1.0
  Ni  Ni300  1  0.38147608  0.25662683  0.97143625  1.0
  Ni  Ni301  1  0.38147608  0.58996017  0.97143625  1.0
  Ni  Ni302  1  0.38147608  0.92329350  0.97143625  1.0
  Ni  Ni303  1  0.71480942  0.25662683  0.97143625  1.0
  Ni  Ni304  1  0.71480942  0.58996017  0.97143625  1.0
  Ni  Ni305  1  0.71480942  0.92329350  0.97143625  1.0
  Ni  Ni306  1  0.22850879  0.07306608  0.87965588  1.0
  Ni  Ni307  1  0.22850879  0.40639942  0.87965588  1.0
  Ni  Ni308  1  0.22850879  0.73973275  0.87965588  1.0
  Ni  Ni309  1  0.56184212  0.07306608  0.87965588  1.0
  Ni  Ni310  1  0.56184212  0.40639942  0.87965588  1.0
  Ni  Ni311  1  0.56184212  0.73973275  0.87965588  1.0
  Ni  Ni312  1  0.89517546  0.07306608  0.87965588  1.0
  Ni  Ni313  1  0.89517546  0.40639942  0.87965588  1.0
  Ni  Ni314  1  0.89517546  0.73973275  0.87965588  1.0
  Ni  Ni315  1  0.33267546  0.19806608  0.94215587  1.0
  Ni  Ni316  1  0.33267546  0.53139942  0.94215587  1.0
  Ni  Ni317  1  0.33267546  0.86473275  0.94215587  1.0
  Ni  Ni318  1  0.66600879  0.19806608  0.94215587  1.0
  Ni  Ni319  1  0.66600879  0.53139942  0.94215587  1.0
  Ni  Ni320  1  0.66600879  0.86473275  0.94215587  1.0
  Ni  Ni321  1  0.99934212  0.19806608  0.94215587  1.0
  Ni  Ni322  1  0.99934213  0.53139942  0.94215587  1.0
  Ni  Ni323  1  0.99934212  0.86473275  0.94215587  1.0
  Ni  Ni324  1  0.02805662  0.09097442  0.87428338  1.0
  Ni  Ni325  1  0.02805662  0.42430775  0.87428337  1.0
  Ni  Ni326  1  0.02805662  0.75764108  0.87428337  1.0
  Ni  Ni327  1  0.36138996  0.09097442  0.87428337  1.0
  Ni  Ni328  1  0.36138996  0.42430775  0.87428337  1.0
  Ni  Ni329  1  0.36138996  0.75764108  0.87428338  1.0
  Ni  Ni330  1  0.69472329  0.09097442  0.87428338  1.0
  Ni  Ni331  1  0.69472329  0.42430775  0.87428337  1.0
  Ni  Ni332  1  0.69472329  0.75764108  0.87428337  1.0
  Ni  Ni333  1  0.25722329  0.29930775  0.81178337  1.0
  Ni  Ni334  1  0.25722329  0.63264108  0.81178337  1.0
  Ni  Ni335  1  0.25722329  0.96597442  0.81178337  1.0
  Ni  Ni336  1  0.59055663  0.29930775  0.81178337  1.0
  Ni  Ni337  1  0.59055663  0.63264108  0.81178337  1.0
  Ni  Ni338  1  0.59055663  0.96597442  0.81178338  1.0
  Ni  Ni339  1  0.92388996  0.29930775  0.81178337  1.0
  Ni  Ni340  1  0.92388996  0.63264108  0.81178337  1.0
  Ni  Ni341  1  0.92388996  0.96597442  0.81178337  1.0
  Ni  Ni342  1  0.31258933  0.03241367  0.84500300  1.0
  Ni  Ni343  1  0.31258933  0.36574700  0.84500300  1.0
  Ni  Ni344  1  0.31258933  0.69908033  0.84500300  1.0
  Ni  Ni345  1  0.64592267  0.03241367  0.84500300  1.0
  Ni  Ni346  1  0.64592267  0.36574700  0.84500300  1.0
  Ni  Ni347  1  0.64592267  0.69908033  0.84500300  1.0
  Ni  Ni348  1  0.97925600  0.03241367  0.84500300  1.0
  Ni  Ni349  1  0.97925600  0.36574700  0.84500300  1.0
  Ni  Ni350  1  0.97925600  0.69908033  0.84500300  1.0
  Ni  Ni351  1  0.20842267  0.24074700  0.78250300  1.0
  Ni  Ni352  1  0.20842267  0.57408033  0.78250300  1.0
  Ni  Ni353  1  0.20842267  0.90741367  0.78250300  1.0
  Ni  Ni354  1  0.54175600  0.24074700  0.78250300  1.0
  Ni  Ni355  1  0.54175600  0.57408033  0.78250300  1.0
  Ni  Ni356  1  0.54175600  0.90741367  0.78250300  1.0
  Ni  Ni357  1  0.87508933  0.24074700  0.78250300  1.0
  Ni  Ni358  1  0.87508933  0.57408033  0.78250300  1.0
  Ni  Ni359  1  0.87508933  0.90741367  0.78250300  1.0
  Ni  Ni360  1  0.09449588  0.13526725  0.80784413  1.0
  Ni  Ni361  1  0.09449588  0.46860058  0.80784412  1.0
  Ni  Ni362  1  0.09449587  0.80193392  0.80784412  1.0
  Ni  Ni363  1  0.42782921  0.13526725  0.80784412  1.0
  Ni  Ni364  1  0.42782921  0.46860058  0.80784412  1.0
  Ni  Ni365  1  0.42782921  0.80193392  0.80784413  1.0
  Ni  Ni366  1  0.76116254  0.13526725  0.80784413  1.0
  Ni  Ni367  1  0.76116254  0.46860058  0.80784412  1.0
  Ni  Ni368  1  0.76116254  0.80193392  0.80784412  1.0
  Ni  Ni369  1  0.19866254  0.26026725  0.87034413  1.0
  Ni  Ni370  1  0.19866254  0.59360058  0.87034412  1.0
  Ni  Ni371  1  0.19866254  0.92693392  0.87034413  1.0
  Ni  Ni372  1  0.53199587  0.26026725  0.87034413  1.0
  Ni  Ni373  1  0.53199587  0.59360058  0.87034412  1.0
  Ni  Ni374  1  0.53199587  0.92693392  0.87034413  1.0
  Ni  Ni375  1  0.86532921  0.26026725  0.87034413  1.0
  Ni  Ni376  1  0.86532921  0.59360058  0.87034412  1.0
  Ni  Ni377  1  0.86532921  0.92693392  0.87034413  1.0
  Ni  Ni378  1  0.30536604  0.22785358  0.78321963  1.0
  Ni  Ni379  1  0.30536604  0.56118692  0.78321962  1.0
  Ni  Ni380  1  0.30536604  0.89452025  0.78321962  1.0
  Ni  Ni381  1  0.63869937  0.22785358  0.78321962  1.0
  Ni  Ni382  1  0.63869938  0.56118692  0.78321962  1.0
  Ni  Ni383  1  0.63869937  0.89452025  0.78321963  1.0
  Ni  Ni384  1  0.97203271  0.22785358  0.78321963  1.0
  Ni  Ni385  1  0.97203271  0.56118692  0.78321962  1.0
  Ni  Ni386  1  0.97203271  0.89452025  0.78321962  1.0
  Ni  Ni387  1  0.07619938  0.01952025  0.84571963  1.0
  Ni  Ni388  1  0.07619938  0.35285358  0.84571962  1.0
  Ni  Ni389  1  0.07619938  0.68618692  0.84571963  1.0
  Ni  Ni390  1  0.40953271  0.01952025  0.84571963  1.0
  Ni  Ni391  1  0.40953271  0.35285358  0.84571963  1.0
  Ni  Ni392  1  0.40953271  0.68618692  0.84571963  1.0
  Ni  Ni393  1  0.74286604  0.01952025  0.84571963  1.0
  Ni  Ni394  1  0.74286604  0.35285358  0.84571962  1.0
  Ni  Ni395  1  0.74286604  0.68618692  0.84571962  1.0
  Ni  Ni396  1  0.19078271  0.12368692  0.81446962  1.0
  Ni  Ni397  1  0.19078271  0.45702025  0.81446962  1.0
  Ni  Ni398  1  0.19078271  0.79035358  0.81446962  1.0
  Ni  Ni399  1  0.52411604  0.12368692  0.81446962  1.0
  Ni  Ni400  1  0.52411604  0.45702025  0.81446962  1.0
  Ni  Ni401  1  0.52411604  0.79035358  0.81446962  1.0
  Ni  Ni402  1  0.85744938  0.12368692  0.81446962  1.0
  Ni  Ni403  1  0.85744938  0.45702025  0.81446962  1.0
  Ni  Ni404  1  0.85744938  0.79035358  0.81446962  1.0
  Ni  Ni405  1  0.08661604  0.33202025  0.75196962  1.0
  Ni  Ni406  1  0.08661604  0.66535358  0.75196962  1.0
  Ni  Ni407  1  0.08661604  0.99868692  0.75196963  1.0
  Ni  Ni408  1  0.41994938  0.33202025  0.75196962  1.0
  Ni  Ni409  1  0.41994938  0.66535358  0.75196962  1.0
  Ni  Ni410  1  0.41994938  0.99868692  0.75196962  1.0
  Ni  Ni411  1  0.75328271  0.33202025  0.75196962  1.0
  Ni  Ni412  1  0.75328271  0.66535358  0.75196962  1.0
  Ni  Ni413  1  0.75328271  0.99868692  0.75196962  1.0
  Ni  Ni414  1  0.24286604  0.18618692  0.84571962  1.0
  Ni  Ni415  1  0.24286604  0.51952025  0.84571962  1.0
  Ni  Ni416  1  0.24286604  0.85285358  0.84571962  1.0
  Ni  Ni417  1  0.57619937  0.18618692  0.84571962  1.0
  Ni  Ni418  1  0.57619937  0.51952025  0.84571962  1.0
  Ni  Ni419  1  0.57619938  0.85285358  0.84571963  1.0
  Ni  Ni420  1  0.90953271  0.18618692  0.84571963  1.0
  Ni  Ni421  1  0.90953271  0.51952025  0.84571962  1.0
  Ni  Ni422  1  0.90953271  0.85285358  0.84571962  1.0
  Ni  Ni423  1  0.13869937  0.06118692  0.78321963  1.0
  Ni  Ni424  1  0.13869937  0.39452025  0.78321963  1.0
  Ni  Ni425  1  0.13869937  0.72785358  0.78321963  1.0
  Ni  Ni426  1  0.47203271  0.06118692  0.78321963  1.0
  Ni  Ni427  1  0.47203271  0.39452025  0.78321962  1.0
  Ni  Ni428  1  0.47203271  0.72785358  0.78321963  1.0
  Ni  Ni429  1  0.80536604  0.06118692  0.78321963  1.0
  Ni  Ni430  1  0.80536604  0.39452025  0.78321963  1.0
  Ni  Ni431  1  0.80536604  0.72785358  0.78321963  1.0
  Ni  Ni432  1  0.28706954  0.11210658  0.82109513  1.0
  Ni  Ni433  1  0.28706954  0.44543992  0.82109512  1.0
  Ni  Ni434  1  0.28706954  0.77877325  0.82109512  1.0
  Ni  Ni435  1  0.62040288  0.11210658  0.82109512  1.0
  Ni  Ni436  1  0.62040288  0.44543992  0.82109512  1.0
  Ni  Ni437  1  0.62040288  0.77877325  0.82109513  1.0
  Ni  Ni438  1  0.95373621  0.11210658  0.82109513  1.0
  Ni  Ni439  1  0.95373621  0.44543992  0.82109512  1.0
  Ni  Ni440  1  0.95373621  0.77877325  0.82109513  1.0
  Ni  Ni441  1  0.18290287  0.32043992  0.75859512  1.0
  Ni  Ni442  1  0.18290287  0.65377325  0.75859512  1.0
  Ni  Ni443  1  0.18290287  0.98710658  0.75859512  1.0
  Ni  Ni444  1  0.51623621  0.32043992  0.75859512  1.0
  Ni  Ni445  1  0.51623621  0.65377325  0.75859512  1.0
  Ni  Ni446  1  0.51623621  0.98710658  0.75859512  1.0
  Ni  Ni447  1  0.84956954  0.32043992  0.75859512  1.0
  Ni  Ni448  1  0.84956954  0.65377325  0.75859512  1.0
  Ni  Ni449  1  0.84956954  0.98710658  0.75859512  1.0
  Ni  Ni450  1  0.06897608  0.21496017  0.78393625  1.0
  Ni  Ni451  1  0.06897608  0.54829350  0.78393625  1.0
  Ni  Ni452  1  0.06897608  0.88162683  0.78393625  1.0
  Ni  Ni453  1  0.40230942  0.21496017  0.78393625  1.0
  Ni  Ni454  1  0.40230942  0.54829350  0.78393625  1.0
  Ni  Ni455  1  0.40230942  0.88162683  0.78393625  1.0
  Ni  Ni456  1  0.73564275  0.21496017  0.78393625  1.0
  Ni  Ni457  1  0.73564275  0.54829350  0.78393625  1.0
  Ni  Ni458  1  0.73564275  0.88162683  0.78393625  1.0
  Ni  Ni459  1  0.17314275  0.00662683  0.84643625  1.0
  Ni  Ni460  1  0.17314275  0.33996017  0.84643625  1.0
  Ni  Ni461  1  0.17314275  0.67329350  0.84643625  1.0
  Ni  Ni462  1  0.50647608  0.00662683  0.84643625  1.0
  Ni  Ni463  1  0.50647608  0.33996017  0.84643625  1.0
  Ni  Ni464  1  0.50647608  0.67329350  0.84643625  1.0
  Ni  Ni465  1  0.83980942  0.00662683  0.84643625  1.0
  Ni  Ni466  1  0.83980942  0.33996017  0.84643625  1.0
  Ni  Ni467  1  0.83980942  0.67329350  0.84643625  1.0
  Ni  Ni468  1  0.02017546  0.15639942  0.75465587  1.0
  Ni  Ni469  1  0.02017546  0.48973275  0.75465587  1.0
  Ni  Ni470  1  0.02017546  0.82306608  0.75465588  1.0
  Ni  Ni471  1  0.35350879  0.15639942  0.75465588  1.0
  Ni  Ni472  1  0.35350879  0.48973275  0.75465587  1.0
  Ni  Ni473  1  0.35350879  0.82306608  0.75465588  1.0
  Ni  Ni474  1  0.68684213  0.15639942  0.75465588  1.0
  Ni  Ni475  1  0.68684213  0.48973275  0.75465587  1.0
  Ni  Ni476  1  0.68684213  0.82306608  0.75465588  1.0
  Ni  Ni477  1  0.12434213  0.28139942  0.81715588  1.0
  Ni  Ni478  1  0.12434213  0.61473275  0.81715587  1.0
  Ni  Ni479  1  0.12434212  0.94806608  0.81715588  1.0
  Ni  Ni480  1  0.45767546  0.28139942  0.81715588  1.0
  Ni  Ni481  1  0.45767546  0.61473275  0.81715587  1.0
  Ni  Ni482  1  0.45767546  0.94806608  0.81715588  1.0
  Ni  Ni483  1  0.79100879  0.28139942  0.81715588  1.0
  Ni  Ni484  1  0.79100879  0.61473275  0.81715587  1.0
  Ni  Ni485  1  0.79100879  0.94806608  0.81715587  1.0
  Ni  Ni486  1  0.15305662  0.17430775  0.74928337  1.0
  Ni  Ni487  1  0.15305662  0.50764108  0.74928337  1.0
  Ni  Ni488  1  0.15305662  0.84097442  0.74928337  1.0
  Ni  Ni489  1  0.48638996  0.17430775  0.74928337  1.0
  Ni  Ni490  1  0.48638996  0.50764108  0.74928337  1.0
  Ni  Ni491  1  0.48638996  0.84097442  0.74928338  1.0
  Ni  Ni492  1  0.81972329  0.17430775  0.74928337  1.0
  Ni  Ni493  1  0.81972329  0.50764108  0.74928337  1.0
  Ni  Ni494  1  0.81972329  0.84097442  0.74928337  1.0
  Ni  Ni495  1  0.04888996  0.04930775  0.68678337  1.0
  Ni  Ni496  1  0.04888996  0.38264108  0.68678337  1.0
  Ni  Ni497  1  0.04888996  0.71597442  0.68678337  1.0
  Ni  Ni498  1  0.38222329  0.04930775  0.68678337  1.0
  Ni  Ni499  1  0.38222329  0.38264108  0.68678337  1.0
  Ni  Ni500  1  0.38222329  0.71597442  0.68678337  1.0
  Ni  Ni501  1  0.71555663  0.04930775  0.68678337  1.0
  Ni  Ni502  1  0.71555663  0.38264108  0.68678337  1.0
  Ni  Ni503  1  0.71555663  0.71597442  0.68678337  1.0
  Ni  Ni504  1  0.10425600  0.11574700  0.72000300  1.0
  Ni  Ni505  1  0.10425600  0.44908033  0.72000300  1.0
  Ni  Ni506  1  0.10425600  0.78241367  0.72000300  1.0
  Ni  Ni507  1  0.43758933  0.11574700  0.72000300  1.0
  Ni  Ni508  1  0.43758933  0.44908033  0.72000300  1.0
  Ni  Ni509  1  0.43758933  0.78241367  0.72000300  1.0
  Ni  Ni510  1  0.77092267  0.11574700  0.72000300  1.0
  Ni  Ni511  1  0.77092267  0.44908033  0.72000300  1.0
  Ni  Ni512  1  0.77092267  0.78241367  0.72000300  1.0
  Ni  Ni513  1  0.00008933  0.32408033  0.65750300  1.0
  Ni  Ni514  1  0.00008933  0.65741367  0.65750300  1.0
  Ni  Ni515  1  0.00008933  0.99074700  0.65750300  1.0
  Ni  Ni516  1  0.33342267  0.32408033  0.65750300  1.0
  Ni  Ni517  1  0.33342267  0.65741367  0.65750300  1.0
  Ni  Ni518  1  0.33342267  0.99074700  0.65750300  1.0
  Ni  Ni519  1  0.66675600  0.32408033  0.65750300  1.0
  Ni  Ni520  1  0.66675600  0.65741367  0.65750300  1.0
  Ni  Ni521  1  0.66675600  0.99074700  0.65750300  1.0
  Ni  Ni522  1  0.21949587  0.21860058  0.68284413  1.0
  Ni  Ni523  1  0.21949587  0.55193392  0.68284413  1.0
  Ni  Ni524  1  0.21949587  0.88526725  0.68284413  1.0
  Ni  Ni525  1  0.55282921  0.21860058  0.68284413  1.0
  Ni  Ni526  1  0.55282921  0.55193392  0.68284413  1.0
  Ni  Ni527  1  0.55282921  0.88526725  0.68284413  1.0
  Ni  Ni528  1  0.88616254  0.21860058  0.68284413  1.0
  Ni  Ni529  1  0.88616254  0.55193392  0.68284413  1.0
  Ni  Ni530  1  0.88616254  0.88526725  0.68284413  1.0
  Ni  Ni531  1  0.32366254  0.01026725  0.74534412  1.0
  Ni  Ni532  1  0.32366254  0.34360058  0.74534412  1.0
  Ni  Ni533  1  0.32366254  0.67693392  0.74534413  1.0
  Ni  Ni534  1  0.65699588  0.01026725  0.74534413  1.0
  Ni  Ni535  1  0.65699588  0.34360058  0.74534412  1.0
  Ni  Ni536  1  0.65699588  0.67693392  0.74534412  1.0
  Ni  Ni537  1  0.99032921  0.01026725  0.74534412  1.0
  Ni  Ni538  1  0.99032921  0.34360058  0.74534412  1.0
  Ni  Ni539  1  0.99032921  0.67693392  0.74534412  1.0
  Ni  Ni540  1  0.09703271  0.31118692  0.65821962  1.0
  Ni  Ni541  1  0.09703271  0.64452025  0.65821962  1.0
  Ni  Ni542  1  0.09703271  0.97785358  0.65821962  1.0
  Ni  Ni543  1  0.43036604  0.31118692  0.65821962  1.0
  Ni  Ni544  1  0.43036604  0.64452025  0.65821962  1.0
  Ni  Ni545  1  0.43036604  0.97785358  0.65821962  1.0
  Ni  Ni546  1  0.76369937  0.31118692  0.65821962  1.0
  Ni  Ni547  1  0.76369937  0.64452025  0.65821962  1.0
  Ni  Ni548  1  0.76369937  0.97785358  0.65821962  1.0
  Ni  Ni549  1  0.20119938  0.10285358  0.72071963  1.0
  Ni  Ni550  1  0.20119938  0.43618692  0.72071962  1.0
  Ni  Ni551  1  0.20119938  0.76952025  0.72071962  1.0
  Ni  Ni552  1  0.53453271  0.10285358  0.72071962  1.0
  Ni  Ni553  1  0.53453271  0.43618692  0.72071962  1.0
  Ni  Ni554  1  0.53453271  0.76952025  0.72071963  1.0
  Ni  Ni555  1  0.86786604  0.10285358  0.72071963  1.0
  Ni  Ni556  1  0.86786604  0.43618692  0.72071962  1.0
  Ni  Ni557  1  0.86786604  0.76952025  0.72071962  1.0
  Ni  Ni558  1  0.31578271  0.20702025  0.68946962  1.0
  Ni  Ni559  1  0.31578271  0.54035358  0.68946962  1.0
  Ni  Ni560  1  0.31578271  0.87368692  0.68946962  1.0
  Ni  Ni561  1  0.64911604  0.20702025  0.68946962  1.0
  Ni  Ni562  1  0.64911604  0.54035358  0.68946962  1.0
  Ni  Ni563  1  0.64911604  0.87368692  0.68946963  1.0
  Ni  Ni564  1  0.98244937  0.20702025  0.68946962  1.0
  Ni  Ni565  1  0.98244937  0.54035358  0.68946962  1.0
  Ni  Ni566  1  0.98244937  0.87368692  0.68946962  1.0
  Ni  Ni567  1  0.21161604  0.08202025  0.62696962  1.0
  Ni  Ni568  1  0.21161604  0.41535358  0.62696962  1.0
  Ni  Ni569  1  0.21161604  0.74868692  0.62696962  1.0
  Ni  Ni570  1  0.54494938  0.08202025  0.62696962  1.0
  Ni  Ni571  1  0.54494938  0.41535358  0.62696962  1.0
  Ni  Ni572  1  0.54494938  0.74868692  0.62696963  1.0
  Ni  Ni573  1  0.87828271  0.08202025  0.62696962  1.0
  Ni  Ni574  1  0.87828271  0.41535358  0.62696962  1.0
  Ni  Ni575  1  0.87828271  0.74868692  0.62696962  1.0
  Ni  Ni576  1  0.03453271  0.26952025  0.72071962  1.0
  Ni  Ni577  1  0.03453271  0.60285358  0.72071962  1.0
  Ni  Ni578  1  0.03453271  0.93618692  0.72071962  1.0
  Ni  Ni579  1  0.36786604  0.26952025  0.72071962  1.0
  Ni  Ni580  1  0.36786604  0.60285358  0.72071962  1.0
  Ni  Ni581  1  0.36786604  0.93618692  0.72071962  1.0
  Ni  Ni582  1  0.70119937  0.26952025  0.72071962  1.0
  Ni  Ni583  1  0.70119937  0.60285358  0.72071962  1.0
  Ni  Ni584  1  0.70119937  0.93618692  0.72071962  1.0
  Ni  Ni585  1  0.26369938  0.14452025  0.65821962  1.0
  Ni  Ni586  1  0.26369938  0.47785358  0.65821962  1.0
  Ni  Ni587  1  0.26369938  0.81118692  0.65821963  1.0
  Ni  Ni588  1  0.59703271  0.14452025  0.65821963  1.0
  Ni  Ni589  1  0.59703271  0.47785358  0.65821962  1.0
  Ni  Ni590  1  0.59703271  0.81118692  0.65821963  1.0
  Ni  Ni591  1  0.93036604  0.14452025  0.65821962  1.0
  Ni  Ni592  1  0.93036604  0.47785358  0.65821962  1.0
  Ni  Ni593  1  0.93036604  0.81118692  0.65821962  1.0
  Ni  Ni594  1  0.07873621  0.19543992  0.69609513  1.0
  Ni  Ni595  1  0.07873621  0.52877325  0.69609512  1.0
  Ni  Ni596  1  0.07873621  0.86210658  0.69609513  1.0
  Ni  Ni597  1  0.41206954  0.19543992  0.69609513  1.0
  Ni  Ni598  1  0.41206954  0.52877325  0.69609513  1.0
  Ni  Ni599  1  0.41206954  0.86210658  0.69609513  1.0
  Ni  Ni600  1  0.74540288  0.19543992  0.69609513  1.0
  Ni  Ni601  1  0.74540288  0.52877325  0.69609512  1.0
  Ni  Ni602  1  0.74540288  0.86210658  0.69609512  1.0
  Ni  Ni603  1  0.30790287  0.07043992  0.63359513  1.0
  Ni  Ni604  1  0.30790287  0.40377325  0.63359513  1.0
  Ni  Ni605  1  0.30790287  0.73710658  0.63359513  1.0
  Ni  Ni606  1  0.64123621  0.07043992  0.63359513  1.0
  Ni  Ni607  1  0.64123621  0.40377325  0.63359513  1.0
  Ni  Ni608  1  0.64123621  0.73710658  0.63359513  1.0
  Ni  Ni609  1  0.97456954  0.07043992  0.63359513  1.0
  Ni  Ni610  1  0.97456954  0.40377325  0.63359513  1.0
  Ni  Ni611  1  0.97456954  0.73710658  0.63359512  1.0
  Ni  Ni612  1  0.19397608  0.29829350  0.65893625  1.0
  Ni  Ni613  1  0.19397608  0.63162683  0.65893625  1.0
  Ni  Ni614  1  0.19397608  0.96496017  0.65893625  1.0
  Ni  Ni615  1  0.52730942  0.29829350  0.65893625  1.0
  Ni  Ni616  1  0.52730942  0.63162683  0.65893625  1.0
  Ni  Ni617  1  0.52730942  0.96496017  0.65893625  1.0
  Ni  Ni618  1  0.86064275  0.29829350  0.65893625  1.0
  Ni  Ni619  1  0.86064275  0.63162683  0.65893625  1.0
  Ni  Ni620  1  0.86064275  0.96496017  0.65893625  1.0
  Ni  Ni621  1  0.29814275  0.08996017  0.72143625  1.0
  Ni  Ni622  1  0.29814275  0.42329350  0.72143625  1.0
  Ni  Ni623  1  0.29814275  0.75662683  0.72143625  1.0
  Ni  Ni624  1  0.63147608  0.08996017  0.72143625  1.0
  Ni  Ni625  1  0.63147608  0.42329350  0.72143625  1.0
  Ni  Ni626  1  0.63147608  0.75662683  0.72143625  1.0
  Ni  Ni627  1  0.96480942  0.08996017  0.72143625  1.0
  Ni  Ni628  1  0.96480942  0.42329350  0.72143625  1.0
  Ni  Ni629  1  0.96480942  0.75662683  0.72143625  1.0
  Ni  Ni630  1  0.14517546  0.23973275  0.62965587  1.0
  Ni  Ni631  1  0.14517546  0.57306608  0.62965587  1.0
  Ni  Ni632  1  0.14517546  0.90639942  0.62965587  1.0
  Ni  Ni633  1  0.47850879  0.23973275  0.62965587  1.0
  Ni  Ni634  1  0.47850879  0.57306608  0.62965587  1.0
  Ni  Ni635  1  0.47850879  0.90639942  0.62965588  1.0
  Ni  Ni636  1  0.81184212  0.23973275  0.62965588  1.0
  Ni  Ni637  1  0.81184212  0.57306608  0.62965587  1.0
  Ni  Ni638  1  0.81184212  0.90639942  0.62965587  1.0
  Ni  Ni639  1  0.24934213  0.03139942  0.69215588  1.0
  Ni  Ni640  1  0.24934213  0.36473275  0.69215587  1.0
  Ni  Ni641  1  0.24934213  0.69806608  0.69215588  1.0
  Ni  Ni642  1  0.58267546  0.03139942  0.69215587  1.0
  Ni  Ni643  1  0.58267546  0.36473275  0.69215587  1.0
  Ni  Ni644  1  0.58267546  0.69806608  0.69215588  1.0
  Ni  Ni645  1  0.91600879  0.03139942  0.69215588  1.0
  Ni  Ni646  1  0.91600879  0.36473275  0.69215587  1.0
  Ni  Ni647  1  0.91600879  0.69806608  0.69215588  1.0
