# generated using pymatgen
data_HfNi
_symmetry_space_group_name_H-M   'P 1'
_cell_length_a   44.25119674
_cell_length_b   19.71760950
_cell_length_c   57.20110200
_cell_angle_alpha   51.56354402
_cell_angle_beta   90.00000000
_cell_angle_gamma   44.59901819
_symmetry_Int_Tables_number   1
_chemical_formula_structural   HfNi
_chemical_formula_sum   'Hf216 Ni216'
_cell_volume   16292.05997889
_cell_formula_units_Z   216
loop_
 _symmetry_equiv_pos_site_id
 _symmetry_equiv_pos_as_xyz
  1  'x, y, z'
loop_
 _atom_site_type_symbol
 _atom_site_label
 _atom_site_symmetry_multiplicity
 _atom_site_fract_x
 _atom_site_fract_y
 _atom_site_fract_z
 _atom_site_occupancy
  Hf  Hf0  1  0.19005283  0.19005283  0.01284582  1.0
  Hf  Hf1  1  0.19005283  0.52338617  0.01284582  1.0
  Hf  Hf2  1  0.19005283  0.85671950  0.01284582  1.0
  Hf  Hf3  1  0.52338617  0.19005283  0.01284582  1.0
  Hf  Hf4  1  0.52338617  0.52338617  0.01284582  1.0
  Hf  Hf5  1  0.52338617  0.85671950  0.01284582  1.0
  Hf  Hf6  1  0.85671950  0.19005283  0.01284582  1.0
  Hf  Hf7  1  0.85671950  0.52338617  0.01284582  1.0
  Hf  Hf8  1  0.85671950  0.85671950  0.01284582  1.0
  Hf  Hf9  1  0.02338617  0.02338617  0.04856011  1.0
  Hf  Hf10  1  0.02338617  0.35671950  0.04856011  1.0
  Hf  Hf11  1  0.02338617  0.69005283  0.04856011  1.0
  Hf  Hf12  1  0.35671950  0.02338617  0.04856011  1.0
  Hf  Hf13  1  0.35671950  0.35671950  0.04856011  1.0
  Hf  Hf14  1  0.35671950  0.69005283  0.04856011  1.0
  Hf  Hf15  1  0.69005283  0.02338617  0.04856011  1.0
  Hf  Hf16  1  0.69005283  0.35671950  0.04856011  1.0
  Hf  Hf17  1  0.69005283  0.69005283  0.04856011  1.0
  Hf  Hf18  1  0.30994717  0.30994717  0.02286846  1.0
  Hf  Hf19  1  0.30994717  0.64328050  0.02286846  1.0
  Hf  Hf20  1  0.30994717  0.97661383  0.02286846  1.0
  Hf  Hf21  1  0.64328050  0.30994717  0.02286846  1.0
  Hf  Hf22  1  0.64328050  0.64328050  0.02286846  1.0
  Hf  Hf23  1  0.64328050  0.97661383  0.02286846  1.0
  Hf  Hf24  1  0.97661383  0.30994717  0.02286846  1.0
  Hf  Hf25  1  0.97661383  0.64328050  0.02286846  1.0
  Hf  Hf26  1  0.97661383  0.97661383  0.02286846  1.0
  Hf  Hf27  1  0.14328050  0.14328050  0.05858275  1.0
  Hf  Hf28  1  0.14328050  0.47661383  0.05858275  1.0
  Hf  Hf29  1  0.14328050  0.80994717  0.05858275  1.0
  Hf  Hf30  1  0.47661383  0.14328050  0.05858275  1.0
  Hf  Hf31  1  0.47661383  0.47661383  0.05858275  1.0
  Hf  Hf32  1  0.47661383  0.80994717  0.05858275  1.0
  Hf  Hf33  1  0.80994717  0.14328050  0.05858275  1.0
  Hf  Hf34  1  0.80994717  0.47661383  0.05858275  1.0
  Hf  Hf35  1  0.80994717  0.80994717  0.05858275  1.0
  Ni  Ni36  1  0.23604817  0.23604817  0.00298968  1.0
  Ni  Ni37  1  0.23604817  0.56938150  0.00298968  1.0
  Ni  Ni38  1  0.23604817  0.90271483  0.00298968  1.0
  Ni  Ni39  1  0.56938150  0.23604817  0.00298968  1.0
  Ni  Ni40  1  0.56938150  0.56938150  0.00298968  1.0
  Ni  Ni41  1  0.56938150  0.90271483  0.00298968  1.0
  Ni  Ni42  1  0.90271483  0.23604817  0.00298968  1.0
  Ni  Ni43  1  0.90271483  0.56938150  0.00298968  1.0
  Ni  Ni44  1  0.90271483  0.90271483  0.00298968  1.0
  Ni  Ni45  1  0.06938150  0.06938150  0.03870396  1.0
  Ni  Ni46  1  0.06938150  0.40271483  0.03870396  1.0
  Ni  Ni47  1  0.06938150  0.73604817  0.03870396  1.0
  Ni  Ni48  1  0.40271483  0.06938150  0.03870396  1.0
  Ni  Ni49  1  0.40271483  0.40271483  0.03870396  1.0
  Ni  Ni50  1  0.40271483  0.73604817  0.03870396  1.0
  Ni  Ni51  1  0.73604817  0.06938150  0.03870396  1.0
  Ni  Ni52  1  0.73604817  0.40271483  0.03870396  1.0
  Ni  Ni53  1  0.73604817  0.73604817  0.03870396  1.0
  Ni  Ni54  1  0.26395183  0.26395183  0.03272461  1.0
  Ni  Ni55  1  0.26395183  0.59728517  0.03272461  1.0
  Ni  Ni56  1  0.26395183  0.93061850  0.03272461  1.0
  Ni  Ni57  1  0.59728517  0.26395183  0.03272461  1.0
  Ni  Ni58  1  0.59728517  0.59728517  0.03272461  1.0
  Ni  Ni59  1  0.59728517  0.93061850  0.03272461  1.0
  Ni  Ni60  1  0.93061850  0.26395183  0.03272461  1.0
  Ni  Ni61  1  0.93061850  0.59728517  0.03272461  1.0
  Ni  Ni62  1  0.93061850  0.93061850  0.03272461  1.0
  Ni  Ni63  1  0.09728517  0.09728517  0.06843889  1.0
  Ni  Ni64  1  0.09728517  0.43061850  0.06843889  1.0
  Ni  Ni65  1  0.09728517  0.76395183  0.06843889  1.0
  Ni  Ni66  1  0.43061850  0.09728517  0.06843889  1.0
  Ni  Ni67  1  0.43061850  0.43061850  0.06843889  1.0
  Ni  Ni68  1  0.43061850  0.76395183  0.06843889  1.0
  Ni  Ni69  1  0.76395183  0.09728517  0.06843889  1.0
  Ni  Ni70  1  0.76395183  0.43061850  0.06843889  1.0
  Ni  Ni71  1  0.76395183  0.76395183  0.06843889  1.0
  Hf  Hf72  1  0.19005283  0.19005283  0.08427439  1.0
  Hf  Hf73  1  0.19005283  0.52338617  0.08427439  1.0
  Hf  Hf74  1  0.19005283  0.85671950  0.08427439  1.0
  Hf  Hf75  1  0.52338617  0.19005283  0.08427439  1.0
  Hf  Hf76  1  0.52338617  0.52338617  0.08427439  1.0
  Hf  Hf77  1  0.52338617  0.85671950  0.08427439  1.0
  Hf  Hf78  1  0.85671950  0.19005283  0.08427439  1.0
  Hf  Hf79  1  0.85671950  0.52338617  0.08427439  1.0
  Hf  Hf80  1  0.85671950  0.85671950  0.08427439  1.0
  Hf  Hf81  1  0.02338617  0.02338617  0.11998868  1.0
  Hf  Hf82  1  0.02338617  0.35671950  0.11998868  1.0
  Hf  Hf83  1  0.02338617  0.69005283  0.11998868  1.0
  Hf  Hf84  1  0.35671950  0.02338617  0.11998868  1.0
  Hf  Hf85  1  0.35671950  0.35671950  0.11998868  1.0
  Hf  Hf86  1  0.35671950  0.69005283  0.11998868  1.0
  Hf  Hf87  1  0.69005283  0.02338617  0.11998868  1.0
  Hf  Hf88  1  0.69005283  0.35671950  0.11998868  1.0
  Hf  Hf89  1  0.69005283  0.69005283  0.11998868  1.0
  Hf  Hf90  1  0.30994717  0.30994717  0.09429704  1.0
  Hf  Hf91  1  0.30994717  0.64328050  0.09429704  1.0
  Hf  Hf92  1  0.30994717  0.97661383  0.09429704  1.0
  Hf  Hf93  1  0.64328050  0.30994717  0.09429704  1.0
  Hf  Hf94  1  0.64328050  0.64328050  0.09429704  1.0
  Hf  Hf95  1  0.64328050  0.97661383  0.09429704  1.0
  Hf  Hf96  1  0.97661383  0.30994717  0.09429704  1.0
  Hf  Hf97  1  0.97661383  0.64328050  0.09429704  1.0
  Hf  Hf98  1  0.97661383  0.97661383  0.09429704  1.0
  Hf  Hf99  1  0.14328050  0.14328050  0.13001132  1.0
  Hf  Hf100  1  0.14328050  0.47661383  0.13001132  1.0
  Hf  Hf101  1  0.14328050  0.80994717  0.13001132  1.0
  Hf  Hf102  1  0.47661383  0.14328050  0.13001132  1.0
  Hf  Hf103  1  0.47661383  0.47661383  0.13001132  1.0
  Hf  Hf104  1  0.47661383  0.80994717  0.13001132  1.0
  Hf  Hf105  1  0.80994717  0.14328050  0.13001132  1.0
  Hf  Hf106  1  0.80994717  0.47661383  0.13001132  1.0
  Hf  Hf107  1  0.80994717  0.80994717  0.13001132  1.0
  Ni  Ni108  1  0.23604817  0.23604817  0.07441825  1.0
  Ni  Ni109  1  0.23604817  0.56938150  0.07441825  1.0
  Ni  Ni110  1  0.23604817  0.90271483  0.07441825  1.0
  Ni  Ni111  1  0.56938150  0.23604817  0.07441825  1.0
  Ni  Ni112  1  0.56938150  0.56938150  0.07441825  1.0
  Ni  Ni113  1  0.56938150  0.90271483  0.07441825  1.0
  Ni  Ni114  1  0.90271483  0.23604817  0.07441825  1.0
  Ni  Ni115  1  0.90271483  0.56938150  0.07441825  1.0
  Ni  Ni116  1  0.90271483  0.90271483  0.07441825  1.0
  Ni  Ni117  1  0.06938150  0.06938150  0.11013254  1.0
  Ni  Ni118  1  0.06938150  0.40271483  0.11013254  1.0
  Ni  Ni119  1  0.06938150  0.73604817  0.11013254  1.0
  Ni  Ni120  1  0.40271483  0.06938150  0.11013254  1.0
  Ni  Ni121  1  0.40271483  0.40271483  0.11013254  1.0
  Ni  Ni122  1  0.40271483  0.73604817  0.11013254  1.0
  Ni  Ni123  1  0.73604817  0.06938150  0.11013254  1.0
  Ni  Ni124  1  0.73604817  0.40271483  0.11013254  1.0
  Ni  Ni125  1  0.73604817  0.73604817  0.11013254  1.0
  Ni  Ni126  1  0.26395183  0.26395183  0.10415318  1.0
  Ni  Ni127  1  0.26395183  0.59728517  0.10415318  1.0
  Ni  Ni128  1  0.26395183  0.93061850  0.10415318  1.0
  Ni  Ni129  1  0.59728517  0.26395183  0.10415318  1.0
  Ni  Ni130  1  0.59728517  0.59728517  0.10415318  1.0
  Ni  Ni131  1  0.59728517  0.93061850  0.10415318  1.0
  Ni  Ni132  1  0.93061850  0.26395183  0.10415318  1.0
  Ni  Ni133  1  0.93061850  0.59728517  0.10415318  1.0
  Ni  Ni134  1  0.93061850  0.93061850  0.10415318  1.0
  Ni  Ni135  1  0.09728517  0.09728517  0.13986746  1.0
  Ni  Ni136  1  0.09728517  0.43061850  0.13986746  1.0
  Ni  Ni137  1  0.09728517  0.76395183  0.13986746  1.0
  Ni  Ni138  1  0.43061850  0.09728517  0.13986746  1.0
  Ni  Ni139  1  0.43061850  0.43061850  0.13986746  1.0
  Ni  Ni140  1  0.43061850  0.76395183  0.13986746  1.0
  Ni  Ni141  1  0.76395183  0.09728517  0.13986746  1.0
  Ni  Ni142  1  0.76395183  0.43061850  0.13986746  1.0
  Ni  Ni143  1  0.76395183  0.76395183  0.13986746  1.0
  Hf  Hf144  1  0.19005283  0.19005283  0.15570296  1.0
  Hf  Hf145  1  0.19005283  0.52338617  0.15570296  1.0
  Hf  Hf146  1  0.19005283  0.85671950  0.15570296  1.0
  Hf  Hf147  1  0.52338617  0.19005283  0.15570296  1.0
  Hf  Hf148  1  0.52338617  0.52338617  0.15570296  1.0
  Hf  Hf149  1  0.52338617  0.85671950  0.15570296  1.0
  Hf  Hf150  1  0.85671950  0.19005283  0.15570296  1.0
  Hf  Hf151  1  0.85671950  0.52338617  0.15570296  1.0
  Hf  Hf152  1  0.85671950  0.85671950  0.15570296  1.0
  Hf  Hf153  1  0.02338617  0.02338617  0.19141725  1.0
  Hf  Hf154  1  0.02338617  0.35671950  0.19141725  1.0
  Hf  Hf155  1  0.02338617  0.69005283  0.19141725  1.0
  Hf  Hf156  1  0.35671950  0.02338617  0.19141725  1.0
  Hf  Hf157  1  0.35671950  0.35671950  0.19141725  1.0
  Hf  Hf158  1  0.35671950  0.69005283  0.19141725  1.0
  Hf  Hf159  1  0.69005283  0.02338617  0.19141725  1.0
  Hf  Hf160  1  0.69005283  0.35671950  0.19141725  1.0
  Hf  Hf161  1  0.69005283  0.69005283  0.19141725  1.0
  Hf  Hf162  1  0.30994717  0.30994717  0.16572561  1.0
  Hf  Hf163  1  0.30994717  0.64328050  0.16572561  1.0
  Hf  Hf164  1  0.30994717  0.97661383  0.16572561  1.0
  Hf  Hf165  1  0.64328050  0.30994717  0.16572561  1.0
  Hf  Hf166  1  0.64328050  0.64328050  0.16572561  1.0
  Hf  Hf167  1  0.64328050  0.97661383  0.16572561  1.0
  Hf  Hf168  1  0.97661383  0.30994717  0.16572561  1.0
  Hf  Hf169  1  0.97661383  0.64328050  0.16572561  1.0
  Hf  Hf170  1  0.97661383  0.97661383  0.16572561  1.0
  Hf  Hf171  1  0.14328050  0.14328050  0.20143989  1.0
  Hf  Hf172  1  0.14328050  0.47661383  0.20143989  1.0
  Hf  Hf173  1  0.14328050  0.80994717  0.20143989  1.0
  Hf  Hf174  1  0.47661383  0.14328050  0.20143989  1.0
  Hf  Hf175  1  0.47661383  0.47661383  0.20143989  1.0
  Hf  Hf176  1  0.47661383  0.80994717  0.20143989  1.0
  Hf  Hf177  1  0.80994717  0.14328050  0.20143989  1.0
  Hf  Hf178  1  0.80994717  0.47661383  0.20143989  1.0
  Hf  Hf179  1  0.80994717  0.80994717  0.20143989  1.0
  Ni  Ni180  1  0.23604817  0.23604817  0.14584682  1.0
  Ni  Ni181  1  0.23604817  0.56938150  0.14584682  1.0
  Ni  Ni182  1  0.23604817  0.90271483  0.14584682  1.0
  Ni  Ni183  1  0.56938150  0.23604817  0.14584682  1.0
  Ni  Ni184  1  0.56938150  0.56938150  0.14584682  1.0
  Ni  Ni185  1  0.56938150  0.90271483  0.14584682  1.0
  Ni  Ni186  1  0.90271483  0.23604817  0.14584682  1.0
  Ni  Ni187  1  0.90271483  0.56938150  0.14584682  1.0
  Ni  Ni188  1  0.90271483  0.90271483  0.14584682  1.0
  Ni  Ni189  1  0.06938150  0.06938150  0.18156111  1.0
  Ni  Ni190  1  0.06938150  0.40271483  0.18156111  1.0
  Ni  Ni191  1  0.06938150  0.73604817  0.18156111  1.0
  Ni  Ni192  1  0.40271483  0.06938150  0.18156111  1.0
  Ni  Ni193  1  0.40271483  0.40271483  0.18156111  1.0
  Ni  Ni194  1  0.40271483  0.73604817  0.18156111  1.0
  Ni  Ni195  1  0.73604817  0.06938150  0.18156111  1.0
  Ni  Ni196  1  0.73604817  0.40271483  0.18156111  1.0
  Ni  Ni197  1  0.73604817  0.73604817  0.18156111  1.0
  Ni  Ni198  1  0.26395183  0.26395183  0.17558175  1.0
  Ni  Ni199  1  0.26395183  0.59728517  0.17558175  1.0
  Ni  Ni200  1  0.26395183  0.93061850  0.17558175  1.0
  Ni  Ni201  1  0.59728517  0.26395183  0.17558175  1.0
  Ni  Ni202  1  0.59728517  0.59728517  0.17558175  1.0
  Ni  Ni203  1  0.59728517  0.93061850  0.17558175  1.0
  Ni  Ni204  1  0.93061850  0.26395183  0.17558175  1.0
  Ni  Ni205  1  0.93061850  0.59728517  0.17558175  1.0
  Ni  Ni206  1  0.93061850  0.93061850  0.17558175  1.0
  Ni  Ni207  1  0.09728517  0.09728517  0.21129604  1.0
  Ni  Ni208  1  0.09728517  0.43061850  0.21129604  1.0
  Ni  Ni209  1  0.09728517  0.76395183  0.21129604  1.0
  Ni  Ni210  1  0.43061850  0.09728517  0.21129604  1.0
  Ni  Ni211  1  0.43061850  0.43061850  0.21129604  1.0
  Ni  Ni212  1  0.43061850  0.76395183  0.21129604  1.0
  Ni  Ni213  1  0.76395183  0.09728517  0.21129604  1.0
  Ni  Ni214  1  0.76395183  0.43061850  0.21129604  1.0
  Ni  Ni215  1  0.76395183  0.76395183  0.21129604  1.0
  Hf  Hf216  1  0.19005283  0.19005283  0.22713154  1.0
  Hf  Hf217  1  0.19005283  0.52338617  0.22713154  1.0
  Hf  Hf218  1  0.19005283  0.85671950  0.22713154  1.0
  Hf  Hf219  1  0.52338617  0.19005283  0.22713154  1.0
  Hf  Hf220  1  0.52338617  0.52338617  0.22713154  1.0
  Hf  Hf221  1  0.52338617  0.85671950  0.22713154  1.0
  Hf  Hf222  1  0.85671950  0.19005283  0.22713154  1.0
  Hf  Hf223  1  0.85671950  0.52338617  0.22713154  1.0
  Hf  Hf224  1  0.85671950  0.85671950  0.22713154  1.0
  Hf  Hf225  1  0.02338617  0.02338617  0.26284582  1.0
  Hf  Hf226  1  0.02338617  0.35671950  0.26284582  1.0
  Hf  Hf227  1  0.02338617  0.69005283  0.26284582  1.0
  Hf  Hf228  1  0.35671950  0.02338617  0.26284582  1.0
  Hf  Hf229  1  0.35671950  0.35671950  0.26284582  1.0
  Hf  Hf230  1  0.35671950  0.69005283  0.26284582  1.0
  Hf  Hf231  1  0.69005283  0.02338617  0.26284582  1.0
  Hf  Hf232  1  0.69005283  0.35671950  0.26284582  1.0
  Hf  Hf233  1  0.69005283  0.69005283  0.26284582  1.0
  Hf  Hf234  1  0.30994717  0.30994717  0.23715418  1.0
  Hf  Hf235  1  0.30994717  0.64328050  0.23715418  1.0
  Hf  Hf236  1  0.30994717  0.97661383  0.23715418  1.0
  Hf  Hf237  1  0.64328050  0.30994717  0.23715418  1.0
  Hf  Hf238  1  0.64328050  0.64328050  0.23715418  1.0
  Hf  Hf239  1  0.64328050  0.97661383  0.23715418  1.0
  Hf  Hf240  1  0.97661383  0.30994717  0.23715418  1.0
  Hf  Hf241  1  0.97661383  0.64328050  0.23715418  1.0
  Hf  Hf242  1  0.97661383  0.97661383  0.23715418  1.0
  Hf  Hf243  1  0.14328050  0.14328050  0.27286846  1.0
  Hf  Hf244  1  0.14328050  0.47661383  0.27286846  1.0
  Hf  Hf245  1  0.14328050  0.80994717  0.27286846  1.0
  Hf  Hf246  1  0.47661383  0.14328050  0.27286846  1.0
  Hf  Hf247  1  0.47661383  0.47661383  0.27286846  1.0
  Hf  Hf248  1  0.47661383  0.80994717  0.27286846  1.0
  Hf  Hf249  1  0.80994717  0.14328050  0.27286846  1.0
  Hf  Hf250  1  0.80994717  0.47661383  0.27286846  1.0
  Hf  Hf251  1  0.80994717  0.80994717  0.27286846  1.0
  Ni  Ni252  1  0.23604817  0.23604817  0.21727539  1.0
  Ni  Ni253  1  0.23604817  0.56938150  0.21727539  1.0
  Ni  Ni254  1  0.23604817  0.90271483  0.21727539  1.0
  Ni  Ni255  1  0.56938150  0.23604817  0.21727539  1.0
  Ni  Ni256  1  0.56938150  0.56938150  0.21727539  1.0
  Ni  Ni257  1  0.56938150  0.90271483  0.21727539  1.0
  Ni  Ni258  1  0.90271483  0.23604817  0.21727539  1.0
  Ni  Ni259  1  0.90271483  0.56938150  0.21727539  1.0
  Ni  Ni260  1  0.90271483  0.90271483  0.21727539  1.0
  Ni  Ni261  1  0.06938150  0.06938150  0.25298968  1.0
  Ni  Ni262  1  0.06938150  0.40271483  0.25298968  1.0
  Ni  Ni263  1  0.06938150  0.73604817  0.25298968  1.0
  Ni  Ni264  1  0.40271483  0.06938150  0.25298968  1.0
  Ni  Ni265  1  0.40271483  0.40271483  0.25298968  1.0
  Ni  Ni266  1  0.40271483  0.73604817  0.25298968  1.0
  Ni  Ni267  1  0.73604817  0.06938150  0.25298968  1.0
  Ni  Ni268  1  0.73604817  0.40271483  0.25298968  1.0
  Ni  Ni269  1  0.73604817  0.73604817  0.25298968  1.0
  Ni  Ni270  1  0.26395183  0.26395183  0.24701032  1.0
  Ni  Ni271  1  0.26395183  0.59728517  0.24701032  1.0
  Ni  Ni272  1  0.26395183  0.93061850  0.24701032  1.0
  Ni  Ni273  1  0.59728517  0.26395183  0.24701032  1.0
  Ni  Ni274  1  0.59728517  0.59728517  0.24701032  1.0
  Ni  Ni275  1  0.59728517  0.93061850  0.24701032  1.0
  Ni  Ni276  1  0.93061850  0.26395183  0.24701032  1.0
  Ni  Ni277  1  0.93061850  0.59728517  0.24701032  1.0
  Ni  Ni278  1  0.93061850  0.93061850  0.24701032  1.0
  Ni  Ni279  1  0.09728517  0.09728517  0.28272461  1.0
  Ni  Ni280  1  0.09728517  0.43061850  0.28272461  1.0
  Ni  Ni281  1  0.09728517  0.76395183  0.28272461  1.0
  Ni  Ni282  1  0.43061850  0.09728517  0.28272461  1.0
  Ni  Ni283  1  0.43061850  0.43061850  0.28272461  1.0
  Ni  Ni284  1  0.43061850  0.76395183  0.28272461  1.0
  Ni  Ni285  1  0.76395183  0.09728517  0.28272461  1.0
  Ni  Ni286  1  0.76395183  0.43061850  0.28272461  1.0
  Ni  Ni287  1  0.76395183  0.76395183  0.28272461  1.0
  Hf  Hf288  1  0.19005283  0.19005283  0.29856011  1.0
  Hf  Hf289  1  0.19005283  0.52338617  0.29856011  1.0
  Hf  Hf290  1  0.19005283  0.85671950  0.29856011  1.0
  Hf  Hf291  1  0.52338617  0.19005283  0.29856011  1.0
  Hf  Hf292  1  0.52338617  0.52338617  0.29856011  1.0
  Hf  Hf293  1  0.52338617  0.85671950  0.29856011  1.0
  Hf  Hf294  1  0.85671950  0.19005283  0.29856011  1.0
  Hf  Hf295  1  0.85671950  0.52338617  0.29856011  1.0
  Hf  Hf296  1  0.85671950  0.85671950  0.29856011  1.0
  Hf  Hf297  1  0.02338617  0.02338617  0.33427439  1.0
  Hf  Hf298  1  0.02338617  0.35671950  0.33427439  1.0
  Hf  Hf299  1  0.02338617  0.69005283  0.33427439  1.0
  Hf  Hf300  1  0.35671950  0.02338617  0.33427439  1.0
  Hf  Hf301  1  0.35671950  0.35671950  0.33427439  1.0
  Hf  Hf302  1  0.35671950  0.69005283  0.33427439  1.0
  Hf  Hf303  1  0.69005283  0.02338617  0.33427439  1.0
  Hf  Hf304  1  0.69005283  0.35671950  0.33427439  1.0
  Hf  Hf305  1  0.69005283  0.69005283  0.33427439  1.0
  Hf  Hf306  1  0.30994717  0.30994717  0.30858275  1.0
  Hf  Hf307  1  0.30994717  0.64328050  0.30858275  1.0
  Hf  Hf308  1  0.30994717  0.97661383  0.30858275  1.0
  Hf  Hf309  1  0.64328050  0.30994717  0.30858275  1.0
  Hf  Hf310  1  0.64328050  0.64328050  0.30858275  1.0
  Hf  Hf311  1  0.64328050  0.97661383  0.30858275  1.0
  Hf  Hf312  1  0.97661383  0.30994717  0.30858275  1.0
  Hf  Hf313  1  0.97661383  0.64328050  0.30858275  1.0
  Hf  Hf314  1  0.97661383  0.97661383  0.30858275  1.0
  Hf  Hf315  1  0.14328050  0.14328050  0.34429704  1.0
  Hf  Hf316  1  0.14328050  0.47661383  0.34429704  1.0
  Hf  Hf317  1  0.14328050  0.80994717  0.34429704  1.0
  Hf  Hf318  1  0.47661383  0.14328050  0.34429704  1.0
  Hf  Hf319  1  0.47661383  0.47661383  0.34429704  1.0
  Hf  Hf320  1  0.47661383  0.80994717  0.34429704  1.0
  Hf  Hf321  1  0.80994717  0.14328050  0.34429704  1.0
  Hf  Hf322  1  0.80994717  0.47661383  0.34429704  1.0
  Hf  Hf323  1  0.80994717  0.80994717  0.34429704  1.0
  Ni  Ni324  1  0.23604817  0.23604817  0.28870396  1.0
  Ni  Ni325  1  0.23604817  0.56938150  0.28870396  1.0
  Ni  Ni326  1  0.23604817  0.90271483  0.28870396  1.0
  Ni  Ni327  1  0.56938150  0.23604817  0.28870396  1.0
  Ni  Ni328  1  0.56938150  0.56938150  0.28870396  1.0
  Ni  Ni329  1  0.56938150  0.90271483  0.28870396  1.0
  Ni  Ni330  1  0.90271483  0.23604817  0.28870396  1.0
  Ni  Ni331  1  0.90271483  0.56938150  0.28870396  1.0
  Ni  Ni332  1  0.90271483  0.90271483  0.28870396  1.0
  Ni  Ni333  1  0.06938150  0.06938150  0.32441825  1.0
  Ni  Ni334  1  0.06938150  0.40271483  0.32441825  1.0
  Ni  Ni335  1  0.06938150  0.73604817  0.32441825  1.0
  Ni  Ni336  1  0.40271483  0.06938150  0.32441825  1.0
  Ni  Ni337  1  0.40271483  0.40271483  0.32441825  1.0
  Ni  Ni338  1  0.40271483  0.73604817  0.32441825  1.0
  Ni  Ni339  1  0.73604817  0.06938150  0.32441825  1.0
  Ni  Ni340  1  0.73604817  0.40271483  0.32441825  1.0
  Ni  Ni341  1  0.73604817  0.73604817  0.32441825  1.0
  Ni  Ni342  1  0.26395183  0.26395183  0.31843889  1.0
  Ni  Ni343  1  0.26395183  0.59728517  0.31843889  1.0
  Ni  Ni344  1  0.26395183  0.93061850  0.31843889  1.0
  Ni  Ni345  1  0.59728517  0.26395183  0.31843889  1.0
  Ni  Ni346  1  0.59728517  0.59728517  0.31843889  1.0
  Ni  Ni347  1  0.59728517  0.93061850  0.31843889  1.0
  Ni  Ni348  1  0.93061850  0.26395183  0.31843889  1.0
  Ni  Ni349  1  0.93061850  0.59728517  0.31843889  1.0
  Ni  Ni350  1  0.93061850  0.93061850  0.31843889  1.0
  Ni  Ni351  1  0.09728517  0.09728517  0.35415318  1.0
  Ni  Ni352  1  0.09728517  0.43061850  0.35415318  1.0
  Ni  Ni353  1  0.09728517  0.76395183  0.35415318  1.0
  Ni  Ni354  1  0.43061850  0.09728517  0.35415318  1.0
  Ni  Ni355  1  0.43061850  0.43061850  0.35415318  1.0
  Ni  Ni356  1  0.43061850  0.76395183  0.35415318  1.0
  Ni  Ni357  1  0.76395183  0.09728517  0.35415318  1.0
  Ni  Ni358  1  0.76395183  0.43061850  0.35415318  1.0
  Ni  Ni359  1  0.76395183  0.76395183  0.35415318  1.0
  Hf  Hf360  1  0.19005283  0.19005283  0.36998868  1.0
  Hf  Hf361  1  0.19005283  0.52338617  0.36998868  1.0
  Hf  Hf362  1  0.19005283  0.85671950  0.36998868  1.0
  Hf  Hf363  1  0.52338617  0.19005283  0.36998868  1.0
  Hf  Hf364  1  0.52338617  0.52338617  0.36998868  1.0
  Hf  Hf365  1  0.52338617  0.85671950  0.36998868  1.0
  Hf  Hf366  1  0.85671950  0.19005283  0.36998868  1.0
  Hf  Hf367  1  0.85671950  0.52338617  0.36998868  1.0
  Hf  Hf368  1  0.85671950  0.85671950  0.36998868  1.0
  Hf  Hf369  1  0.02338617  0.02338617  0.40570296  1.0
  Hf  Hf370  1  0.02338617  0.35671950  0.40570296  1.0
  Hf  Hf371  1  0.02338617  0.69005283  0.40570296  1.0
  Hf  Hf372  1  0.35671950  0.02338617  0.40570296  1.0
  Hf  Hf373  1  0.35671950  0.35671950  0.40570296  1.0
  Hf  Hf374  1  0.35671950  0.69005283  0.40570296  1.0
  Hf  Hf375  1  0.69005283  0.02338617  0.40570296  1.0
  Hf  Hf376  1  0.69005283  0.35671950  0.40570296  1.0
  Hf  Hf377  1  0.69005283  0.69005283  0.40570296  1.0
  Hf  Hf378  1  0.30994717  0.30994717  0.38001132  1.0
  Hf  Hf379  1  0.30994717  0.64328050  0.38001132  1.0
  Hf  Hf380  1  0.30994717  0.97661383  0.38001132  1.0
  Hf  Hf381  1  0.64328050  0.30994717  0.38001132  1.0
  Hf  Hf382  1  0.64328050  0.64328050  0.38001132  1.0
  Hf  Hf383  1  0.64328050  0.97661383  0.38001132  1.0
  Hf  Hf384  1  0.97661383  0.30994717  0.38001132  1.0
  Hf  Hf385  1  0.97661383  0.64328050  0.38001132  1.0
  Hf  Hf386  1  0.97661383  0.97661383  0.38001132  1.0
  Hf  Hf387  1  0.14328050  0.14328050  0.41572561  1.0
  Hf  Hf388  1  0.14328050  0.47661383  0.41572561  1.0
  Hf  Hf389  1  0.14328050  0.80994717  0.41572561  1.0
  Hf  Hf390  1  0.47661383  0.14328050  0.41572561  1.0
  Hf  Hf391  1  0.47661383  0.47661383  0.41572561  1.0
  Hf  Hf392  1  0.47661383  0.80994717  0.41572561  1.0
  Hf  Hf393  1  0.80994717  0.14328050  0.41572561  1.0
  Hf  Hf394  1  0.80994717  0.47661383  0.41572561  1.0
  Hf  Hf395  1  0.80994717  0.80994717  0.41572561  1.0
  Ni  Ni396  1  0.23604817  0.23604817  0.36013254  1.0
  Ni  Ni397  1  0.23604817  0.56938150  0.36013254  1.0
  Ni  Ni398  1  0.23604817  0.90271483  0.36013254  1.0
  Ni  Ni399  1  0.56938150  0.23604817  0.36013254  1.0
  Ni  Ni400  1  0.56938150  0.56938150  0.36013254  1.0
  Ni  Ni401  1  0.56938150  0.90271483  0.36013254  1.0
  Ni  Ni402  1  0.90271483  0.23604817  0.36013254  1.0
  Ni  Ni403  1  0.90271483  0.56938150  0.36013254  1.0
  Ni  Ni404  1  0.90271483  0.90271483  0.36013254  1.0
  Ni  Ni405  1  0.06938150  0.06938150  0.39584682  1.0
  Ni  Ni406  1  0.06938150  0.40271483  0.39584682  1.0
  Ni  Ni407  1  0.06938150  0.73604817  0.39584682  1.0
  Ni  Ni408  1  0.40271483  0.06938150  0.39584682  1.0
  Ni  Ni409  1  0.40271483  0.40271483  0.39584682  1.0
  Ni  Ni410  1  0.40271483  0.73604817  0.39584682  1.0
  Ni  Ni411  1  0.73604817  0.06938150  0.39584682  1.0
  Ni  Ni412  1  0.73604817  0.40271483  0.39584682  1.0
  Ni  Ni413  1  0.73604817  0.73604817  0.39584682  1.0
  Ni  Ni414  1  0.26395183  0.26395183  0.38986746  1.0
  Ni  Ni415  1  0.26395183  0.59728517  0.38986746  1.0
  Ni  Ni416  1  0.26395183  0.93061850  0.38986746  1.0
  Ni  Ni417  1  0.59728517  0.26395183  0.38986746  1.0
  Ni  Ni418  1  0.59728517  0.59728517  0.38986746  1.0
  Ni  Ni419  1  0.59728517  0.93061850  0.38986746  1.0
  Ni  Ni420  1  0.93061850  0.26395183  0.38986746  1.0
  Ni  Ni421  1  0.93061850  0.59728517  0.38986746  1.0
  Ni  Ni422  1  0.93061850  0.93061850  0.38986746  1.0
  Ni  Ni423  1  0.09728517  0.09728517  0.42558175  1.0
  Ni  Ni424  1  0.09728517  0.43061850  0.42558175  1.0
  Ni  Ni425  1  0.09728517  0.76395183  0.42558175  1.0
  Ni  Ni426  1  0.43061850  0.09728517  0.42558175  1.0
  Ni  Ni427  1  0.43061850  0.43061850  0.42558175  1.0
  Ni  Ni428  1  0.43061850  0.76395183  0.42558175  1.0
  Ni  Ni429  1  0.76395183  0.09728517  0.42558175  1.0
  Ni  Ni430  1  0.76395183  0.43061850  0.42558175  1.0
  Ni  Ni431  1  0.76395183  0.76395183  0.42558175  1.0
