# generated using pymatgen
data_HfNi2
_symmetry_space_group_name_H-M   'P 1'
_cell_length_a   14.66409357
_cell_length_b   38.79754479
_cell_length_c   48.88031190
_cell_angle_alpha   40.89339465
_cell_angle_beta   60.00000000
_cell_angle_gamma   79.10660535
_symmetry_Int_Tables_number   1
_chemical_formula_structural   HfNi2
_chemical_formula_sum   'Hf144 Ni288'
_cell_volume   14864.81171402
_cell_formula_units_Z   144
loop_
 _symmetry_equiv_pos_site_id
 _symmetry_equiv_pos_as_xyz
  1  'x, y, z'
loop_
 _atom_site_type_symbol
 _atom_site_label
 _atom_site_symmetry_multiplicity
 _atom_site_fract_x
 _atom_site_fract_y
 _atom_site_fract_z
 _atom_site_occupancy
  Hf  Hf0  1  0.16666667  0.08333333  0.05937500  1.0
  Hf  Hf1  1  0.16666667  0.41666667  0.05937500  1.0
  Hf  Hf2  1  0.16666667  0.75000000  0.05937500  1.0
  Hf  Hf3  1  0.50000000  0.08333333  0.05937500  1.0
  Hf  Hf4  1  0.50000000  0.41666667  0.05937500  1.0
  Hf  Hf5  1  0.50000000  0.75000000  0.05937500  1.0
  Hf  Hf6  1  0.83333333  0.08333333  0.05937500  1.0
  Hf  Hf7  1  0.83333333  0.41666667  0.05937500  1.0
  Hf  Hf8  1  0.83333333  0.75000000  0.05937500  1.0
  Hf  Hf9  1  0.16666667  0.25000000  0.00937500  1.0
  Hf  Hf10  1  0.16666667  0.58333333  0.00937500  1.0
  Hf  Hf11  1  0.16666667  0.91666667  0.00937500  1.0
  Hf  Hf12  1  0.50000000  0.25000000  0.00937500  1.0
  Hf  Hf13  1  0.50000000  0.58333333  0.00937500  1.0
  Hf  Hf14  1  0.50000000  0.91666667  0.00937500  1.0
  Hf  Hf15  1  0.83333333  0.25000000  0.00937500  1.0
  Hf  Hf16  1  0.83333333  0.58333333  0.00937500  1.0
  Hf  Hf17  1  0.83333333  0.91666667  0.00937500  1.0
  Hf  Hf18  1  0.25000000  0.04166667  0.02187500  1.0
  Hf  Hf19  1  0.25000000  0.37500000  0.02187500  1.0
  Hf  Hf20  1  0.25000000  0.70833333  0.02187500  1.0
  Hf  Hf21  1  0.58333333  0.04166667  0.02187500  1.0
  Hf  Hf22  1  0.58333333  0.37500000  0.02187500  1.0
  Hf  Hf23  1  0.58333333  0.70833333  0.02187500  1.0
  Hf  Hf24  1  0.91666667  0.04166667  0.02187500  1.0
  Hf  Hf25  1  0.91666667  0.37500000  0.02187500  1.0
  Hf  Hf26  1  0.91666667  0.70833333  0.02187500  1.0
  Hf  Hf27  1  0.25000000  0.20833333  0.07187500  1.0
  Hf  Hf28  1  0.25000000  0.54166667  0.07187500  1.0
  Hf  Hf29  1  0.25000000  0.87500000  0.07187500  1.0
  Hf  Hf30  1  0.58333333  0.20833333  0.07187500  1.0
  Hf  Hf31  1  0.58333333  0.54166667  0.07187500  1.0
  Hf  Hf32  1  0.58333333  0.87500000  0.07187500  1.0
  Hf  Hf33  1  0.91666667  0.20833333  0.07187500  1.0
  Hf  Hf34  1  0.91666667  0.54166667  0.07187500  1.0
  Hf  Hf35  1  0.91666667  0.87500000  0.07187500  1.0
  Ni  Ni36  1  0.04166667  0.14583333  0.01562500  1.0
  Ni  Ni37  1  0.04166667  0.47916667  0.01562500  1.0
  Ni  Ni38  1  0.04166667  0.81250000  0.01562500  1.0
  Ni  Ni39  1  0.37500000  0.14583333  0.01562500  1.0
  Ni  Ni40  1  0.37500000  0.47916667  0.01562500  1.0
  Ni  Ni41  1  0.37500000  0.81250000  0.01562500  1.0
  Ni  Ni42  1  0.70833333  0.14583333  0.01562500  1.0
  Ni  Ni43  1  0.70833333  0.47916667  0.01562500  1.0
  Ni  Ni44  1  0.70833333  0.81250000  0.01562500  1.0
  Ni  Ni45  1  0.04166667  0.31250000  0.06562500  1.0
  Ni  Ni46  1  0.04166667  0.64583333  0.06562500  1.0
  Ni  Ni47  1  0.04166667  0.97916667  0.06562500  1.0
  Ni  Ni48  1  0.37500000  0.31250000  0.06562500  1.0
  Ni  Ni49  1  0.37500000  0.64583333  0.06562500  1.0
  Ni  Ni50  1  0.37500000  0.97916667  0.06562500  1.0
  Ni  Ni51  1  0.70833333  0.31250000  0.06562500  1.0
  Ni  Ni52  1  0.70833333  0.64583333  0.06562500  1.0
  Ni  Ni53  1  0.70833333  0.97916667  0.06562500  1.0
  Ni  Ni54  1  0.04166667  0.14583333  0.06562500  1.0
  Ni  Ni55  1  0.04166667  0.47916667  0.06562500  1.0
  Ni  Ni56  1  0.04166667  0.81250000  0.06562500  1.0
  Ni  Ni57  1  0.37500000  0.14583333  0.06562500  1.0
  Ni  Ni58  1  0.37500000  0.47916667  0.06562500  1.0
  Ni  Ni59  1  0.37500000  0.81250000  0.06562500  1.0
  Ni  Ni60  1  0.70833333  0.14583333  0.06562500  1.0
  Ni  Ni61  1  0.70833333  0.47916667  0.06562500  1.0
  Ni  Ni62  1  0.70833333  0.81250000  0.06562500  1.0
  Ni  Ni63  1  0.04166667  0.31250000  0.01562500  1.0
  Ni  Ni64  1  0.04166667  0.64583333  0.01562500  1.0
  Ni  Ni65  1  0.04166667  0.97916667  0.01562500  1.0
  Ni  Ni66  1  0.37500000  0.31250000  0.01562500  1.0
  Ni  Ni67  1  0.37500000  0.64583333  0.01562500  1.0
  Ni  Ni68  1  0.37500000  0.97916667  0.01562500  1.0
  Ni  Ni69  1  0.70833333  0.31250000  0.01562500  1.0
  Ni  Ni70  1  0.70833333  0.64583333  0.01562500  1.0
  Ni  Ni71  1  0.70833333  0.97916667  0.01562500  1.0
  Ni  Ni72  1  0.20833333  0.14583333  0.06562500  1.0
  Ni  Ni73  1  0.20833333  0.47916667  0.06562500  1.0
  Ni  Ni74  1  0.20833333  0.81250000  0.06562500  1.0
  Ni  Ni75  1  0.54166667  0.14583333  0.06562500  1.0
  Ni  Ni76  1  0.54166667  0.47916667  0.06562500  1.0
  Ni  Ni77  1  0.54166667  0.81250000  0.06562500  1.0
  Ni  Ni78  1  0.87500000  0.14583333  0.06562500  1.0
  Ni  Ni79  1  0.87500000  0.47916667  0.06562500  1.0
  Ni  Ni80  1  0.87500000  0.81250000  0.06562500  1.0
  Ni  Ni81  1  0.20833333  0.31250000  0.01562500  1.0
  Ni  Ni82  1  0.20833333  0.64583333  0.01562500  1.0
  Ni  Ni83  1  0.20833333  0.97916667  0.01562500  1.0
  Ni  Ni84  1  0.54166667  0.31250000  0.01562500  1.0
  Ni  Ni85  1  0.54166667  0.64583333  0.01562500  1.0
  Ni  Ni86  1  0.54166667  0.97916667  0.01562500  1.0
  Ni  Ni87  1  0.87500000  0.31250000  0.01562500  1.0
  Ni  Ni88  1  0.87500000  0.64583333  0.01562500  1.0
  Ni  Ni89  1  0.87500000  0.97916667  0.01562500  1.0
  Ni  Ni90  1  0.04166667  0.06250000  0.04062500  1.0
  Ni  Ni91  1  0.04166667  0.39583333  0.04062500  1.0
  Ni  Ni92  1  0.04166667  0.72916667  0.04062500  1.0
  Ni  Ni93  1  0.37500000  0.06250000  0.04062500  1.0
  Ni  Ni94  1  0.37500000  0.39583333  0.04062500  1.0
  Ni  Ni95  1  0.37500000  0.72916667  0.04062500  1.0
  Ni  Ni96  1  0.70833333  0.06250000  0.04062500  1.0
  Ni  Ni97  1  0.70833333  0.39583333  0.04062500  1.0
  Ni  Ni98  1  0.70833333  0.72916667  0.04062500  1.0
  Ni  Ni99  1  0.04166667  0.22916667  0.09062500  1.0
  Ni  Ni100  1  0.04166667  0.56250000  0.09062500  1.0
  Ni  Ni101  1  0.04166667  0.89583333  0.09062500  1.0
  Ni  Ni102  1  0.37500000  0.22916667  0.09062500  1.0
  Ni  Ni103  1  0.37500000  0.56250000  0.09062500  1.0
  Ni  Ni104  1  0.37500000  0.89583333  0.09062500  1.0
  Ni  Ni105  1  0.70833333  0.22916667  0.09062500  1.0
  Ni  Ni106  1  0.70833333  0.56250000  0.09062500  1.0
  Ni  Ni107  1  0.70833333  0.89583333  0.09062500  1.0
  Hf  Hf108  1  0.16666667  0.08333333  0.15937500  1.0
  Hf  Hf109  1  0.16666667  0.41666667  0.15937500  1.0
  Hf  Hf110  1  0.16666667  0.75000000  0.15937500  1.0
  Hf  Hf111  1  0.50000000  0.08333333  0.15937500  1.0
  Hf  Hf112  1  0.50000000  0.41666667  0.15937500  1.0
  Hf  Hf113  1  0.50000000  0.75000000  0.15937500  1.0
  Hf  Hf114  1  0.83333333  0.08333333  0.15937500  1.0
  Hf  Hf115  1  0.83333333  0.41666667  0.15937500  1.0
  Hf  Hf116  1  0.83333333  0.75000000  0.15937500  1.0
  Hf  Hf117  1  0.16666667  0.25000000  0.10937500  1.0
  Hf  Hf118  1  0.16666667  0.58333333  0.10937500  1.0
  Hf  Hf119  1  0.16666667  0.91666667  0.10937500  1.0
  Hf  Hf120  1  0.50000000  0.25000000  0.10937500  1.0
  Hf  Hf121  1  0.50000000  0.58333333  0.10937500  1.0
  Hf  Hf122  1  0.50000000  0.91666667  0.10937500  1.0
  Hf  Hf123  1  0.83333333  0.25000000  0.10937500  1.0
  Hf  Hf124  1  0.83333333  0.58333333  0.10937500  1.0
  Hf  Hf125  1  0.83333333  0.91666667  0.10937500  1.0
  Hf  Hf126  1  0.25000000  0.04166667  0.12187500  1.0
  Hf  Hf127  1  0.25000000  0.37500000  0.12187500  1.0
  Hf  Hf128  1  0.25000000  0.70833333  0.12187500  1.0
  Hf  Hf129  1  0.58333333  0.04166667  0.12187500  1.0
  Hf  Hf130  1  0.58333333  0.37500000  0.12187500  1.0
  Hf  Hf131  1  0.58333333  0.70833333  0.12187500  1.0
  Hf  Hf132  1  0.91666667  0.04166667  0.12187500  1.0
  Hf  Hf133  1  0.91666667  0.37500000  0.12187500  1.0
  Hf  Hf134  1  0.91666667  0.70833333  0.12187500  1.0
  Hf  Hf135  1  0.25000000  0.20833333  0.17187500  1.0
  Hf  Hf136  1  0.25000000  0.54166667  0.17187500  1.0
  Hf  Hf137  1  0.25000000  0.87500000  0.17187500  1.0
  Hf  Hf138  1  0.58333333  0.20833333  0.17187500  1.0
  Hf  Hf139  1  0.58333333  0.54166667  0.17187500  1.0
  Hf  Hf140  1  0.58333333  0.87500000  0.17187500  1.0
  Hf  Hf141  1  0.91666667  0.20833333  0.17187500  1.0
  Hf  Hf142  1  0.91666667  0.54166667  0.17187500  1.0
  Hf  Hf143  1  0.91666667  0.87500000  0.17187500  1.0
  Ni  Ni144  1  0.04166667  0.14583333  0.11562500  1.0
  Ni  Ni145  1  0.04166667  0.47916667  0.11562500  1.0
  Ni  Ni146  1  0.04166667  0.81250000  0.11562500  1.0
  Ni  Ni147  1  0.37500000  0.14583333  0.11562500  1.0
  Ni  Ni148  1  0.37500000  0.47916667  0.11562500  1.0
  Ni  Ni149  1  0.37500000  0.81250000  0.11562500  1.0
  Ni  Ni150  1  0.70833333  0.14583333  0.11562500  1.0
  Ni  Ni151  1  0.70833333  0.47916667  0.11562500  1.0
  Ni  Ni152  1  0.70833333  0.81250000  0.11562500  1.0
  Ni  Ni153  1  0.04166667  0.31250000  0.16562500  1.0
  Ni  Ni154  1  0.04166667  0.64583333  0.16562500  1.0
  Ni  Ni155  1  0.04166667  0.97916667  0.16562500  1.0
  Ni  Ni156  1  0.37500000  0.31250000  0.16562500  1.0
  Ni  Ni157  1  0.37500000  0.64583333  0.16562500  1.0
  Ni  Ni158  1  0.37500000  0.97916667  0.16562500  1.0
  Ni  Ni159  1  0.70833333  0.31250000  0.16562500  1.0
  Ni  Ni160  1  0.70833333  0.64583333  0.16562500  1.0
  Ni  Ni161  1  0.70833333  0.97916667  0.16562500  1.0
  Ni  Ni162  1  0.04166667  0.14583333  0.16562500  1.0
  Ni  Ni163  1  0.04166667  0.47916667  0.16562500  1.0
  Ni  Ni164  1  0.04166667  0.81250000  0.16562500  1.0
  Ni  Ni165  1  0.37500000  0.14583333  0.16562500  1.0
  Ni  Ni166  1  0.37500000  0.47916667  0.16562500  1.0
  Ni  Ni167  1  0.37500000  0.81250000  0.16562500  1.0
  Ni  Ni168  1  0.70833333  0.14583333  0.16562500  1.0
  Ni  Ni169  1  0.70833333  0.47916667  0.16562500  1.0
  Ni  Ni170  1  0.70833333  0.81250000  0.16562500  1.0
  Ni  Ni171  1  0.04166667  0.31250000  0.11562500  1.0
  Ni  Ni172  1  0.04166667  0.64583333  0.11562500  1.0
  Ni  Ni173  1  0.04166667  0.97916667  0.11562500  1.0
  Ni  Ni174  1  0.37500000  0.31250000  0.11562500  1.0
  Ni  Ni175  1  0.37500000  0.64583333  0.11562500  1.0
  Ni  Ni176  1  0.37500000  0.97916667  0.11562500  1.0
  Ni  Ni177  1  0.70833333  0.31250000  0.11562500  1.0
  Ni  Ni178  1  0.70833333  0.64583333  0.11562500  1.0
  Ni  Ni179  1  0.70833333  0.97916667  0.11562500  1.0
  Ni  Ni180  1  0.20833333  0.14583333  0.16562500  1.0
  Ni  Ni181  1  0.20833333  0.47916667  0.16562500  1.0
  Ni  Ni182  1  0.20833333  0.81250000  0.16562500  1.0
  Ni  Ni183  1  0.54166667  0.14583333  0.16562500  1.0
  Ni  Ni184  1  0.54166667  0.47916667  0.16562500  1.0
  Ni  Ni185  1  0.54166667  0.81250000  0.16562500  1.0
  Ni  Ni186  1  0.87500000  0.14583333  0.16562500  1.0
  Ni  Ni187  1  0.87500000  0.47916667  0.16562500  1.0
  Ni  Ni188  1  0.87500000  0.81250000  0.16562500  1.0
  Ni  Ni189  1  0.20833333  0.31250000  0.11562500  1.0
  Ni  Ni190  1  0.20833333  0.64583333  0.11562500  1.0
  Ni  Ni191  1  0.20833333  0.97916667  0.11562500  1.0
  Ni  Ni192  1  0.54166667  0.31250000  0.11562500  1.0
  Ni  Ni193  1  0.54166667  0.64583333  0.11562500  1.0
  Ni  Ni194  1  0.54166667  0.97916667  0.11562500  1.0
  Ni  Ni195  1  0.87500000  0.31250000  0.11562500  1.0
  Ni  Ni196  1  0.87500000  0.64583333  0.11562500  1.0
  Ni  Ni197  1  0.87500000  0.97916667  0.11562500  1.0
  Ni  Ni198  1  0.04166667  0.06250000  0.14062500  1.0
  Ni  Ni199  1  0.04166667  0.39583333  0.14062500  1.0
  Ni  Ni200  1  0.04166667  0.72916667  0.14062500  1.0
  Ni  Ni201  1  0.37500000  0.06250000  0.14062500  1.0
  Ni  Ni202  1  0.37500000  0.39583333  0.14062500  1.0
  Ni  Ni203  1  0.37500000  0.72916667  0.14062500  1.0
  Ni  Ni204  1  0.70833333  0.06250000  0.14062500  1.0
  Ni  Ni205  1  0.70833333  0.39583333  0.14062500  1.0
  Ni  Ni206  1  0.70833333  0.72916667  0.14062500  1.0
  Ni  Ni207  1  0.04166667  0.22916667  0.19062500  1.0
  Ni  Ni208  1  0.04166667  0.56250000  0.19062500  1.0
  Ni  Ni209  1  0.04166667  0.89583333  0.19062500  1.0
  Ni  Ni210  1  0.37500000  0.22916667  0.19062500  1.0
  Ni  Ni211  1  0.37500000  0.56250000  0.19062500  1.0
  Ni  Ni212  1  0.37500000  0.89583333  0.19062500  1.0
  Ni  Ni213  1  0.70833333  0.22916667  0.19062500  1.0
  Ni  Ni214  1  0.70833333  0.56250000  0.19062500  1.0
  Ni  Ni215  1  0.70833333  0.89583333  0.19062500  1.0
  Hf  Hf216  1  0.16666667  0.08333333  0.25937500  1.0
  Hf  Hf217  1  0.16666667  0.41666667  0.25937500  1.0
  Hf  Hf218  1  0.16666667  0.75000000  0.25937500  1.0
  Hf  Hf219  1  0.50000000  0.08333333  0.25937500  1.0
  Hf  Hf220  1  0.50000000  0.41666667  0.25937500  1.0
  Hf  Hf221  1  0.50000000  0.75000000  0.25937500  1.0
  Hf  Hf222  1  0.83333333  0.08333333  0.25937500  1.0
  Hf  Hf223  1  0.83333333  0.41666667  0.25937500  1.0
  Hf  Hf224  1  0.83333333  0.75000000  0.25937500  1.0
  Hf  Hf225  1  0.16666667  0.25000000  0.20937500  1.0
  Hf  Hf226  1  0.16666667  0.58333333  0.20937500  1.0
  Hf  Hf227  1  0.16666667  0.91666667  0.20937500  1.0
  Hf  Hf228  1  0.50000000  0.25000000  0.20937500  1.0
  Hf  Hf229  1  0.50000000  0.58333333  0.20937500  1.0
  Hf  Hf230  1  0.50000000  0.91666667  0.20937500  1.0
  Hf  Hf231  1  0.83333333  0.25000000  0.20937500  1.0
  Hf  Hf232  1  0.83333333  0.58333333  0.20937500  1.0
  Hf  Hf233  1  0.83333333  0.91666667  0.20937500  1.0
  Hf  Hf234  1  0.25000000  0.04166667  0.22187500  1.0
  Hf  Hf235  1  0.25000000  0.37500000  0.22187500  1.0
  Hf  Hf236  1  0.25000000  0.70833333  0.22187500  1.0
  Hf  Hf237  1  0.58333333  0.04166667  0.22187500  1.0
  Hf  Hf238  1  0.58333333  0.37500000  0.22187500  1.0
  Hf  Hf239  1  0.58333333  0.70833333  0.22187500  1.0
  Hf  Hf240  1  0.91666667  0.04166667  0.22187500  1.0
  Hf  Hf241  1  0.91666667  0.37500000  0.22187500  1.0
  Hf  Hf242  1  0.91666667  0.70833333  0.22187500  1.0
  Hf  Hf243  1  0.25000000  0.20833333  0.27187500  1.0
  Hf  Hf244  1  0.25000000  0.54166667  0.27187500  1.0
  Hf  Hf245  1  0.25000000  0.87500000  0.27187500  1.0
  Hf  Hf246  1  0.58333333  0.20833333  0.27187500  1.0
  Hf  Hf247  1  0.58333333  0.54166667  0.27187500  1.0
  Hf  Hf248  1  0.58333333  0.87500000  0.27187500  1.0
  Hf  Hf249  1  0.91666667  0.20833333  0.27187500  1.0
  Hf  Hf250  1  0.91666667  0.54166667  0.27187500  1.0
  Hf  Hf251  1  0.91666667  0.87500000  0.27187500  1.0
  Ni  Ni252  1  0.04166667  0.14583333  0.21562500  1.0
  Ni  Ni253  1  0.04166667  0.47916667  0.21562500  1.0
  Ni  Ni254  1  0.04166667  0.81250000  0.21562500  1.0
  Ni  Ni255  1  0.37500000  0.14583333  0.21562500  1.0
  Ni  Ni256  1  0.37500000  0.47916667  0.21562500  1.0
  Ni  Ni257  1  0.37500000  0.81250000  0.21562500  1.0
  Ni  Ni258  1  0.70833333  0.14583333  0.21562500  1.0
  Ni  Ni259  1  0.70833333  0.47916667  0.21562500  1.0
  Ni  Ni260  1  0.70833333  0.81250000  0.21562500  1.0
  Ni  Ni261  1  0.04166667  0.31250000  0.26562500  1.0
  Ni  Ni262  1  0.04166667  0.64583333  0.26562500  1.0
  Ni  Ni263  1  0.04166667  0.97916667  0.26562500  1.0
  Ni  Ni264  1  0.37500000  0.31250000  0.26562500  1.0
  Ni  Ni265  1  0.37500000  0.64583333  0.26562500  1.0
  Ni  Ni266  1  0.37500000  0.97916667  0.26562500  1.0
  Ni  Ni267  1  0.70833333  0.31250000  0.26562500  1.0
  Ni  Ni268  1  0.70833333  0.64583333  0.26562500  1.0
  Ni  Ni269  1  0.70833333  0.97916667  0.26562500  1.0
  Ni  Ni270  1  0.04166667  0.14583333  0.26562500  1.0
  Ni  Ni271  1  0.04166667  0.47916667  0.26562500  1.0
  Ni  Ni272  1  0.04166667  0.81250000  0.26562500  1.0
  Ni  Ni273  1  0.37500000  0.14583333  0.26562500  1.0
  Ni  Ni274  1  0.37500000  0.47916667  0.26562500  1.0
  Ni  Ni275  1  0.37500000  0.81250000  0.26562500  1.0
  Ni  Ni276  1  0.70833333  0.14583333  0.26562500  1.0
  Ni  Ni277  1  0.70833333  0.47916667  0.26562500  1.0
  Ni  Ni278  1  0.70833333  0.81250000  0.26562500  1.0
  Ni  Ni279  1  0.04166667  0.31250000  0.21562500  1.0
  Ni  Ni280  1  0.04166667  0.64583333  0.21562500  1.0
  Ni  Ni281  1  0.04166667  0.97916667  0.21562500  1.0
  Ni  Ni282  1  0.37500000  0.31250000  0.21562500  1.0
  Ni  Ni283  1  0.37500000  0.64583333  0.21562500  1.0
  Ni  Ni284  1  0.37500000  0.97916667  0.21562500  1.0
  Ni  Ni285  1  0.70833333  0.31250000  0.21562500  1.0
  Ni  Ni286  1  0.70833333  0.64583333  0.21562500  1.0
  Ni  Ni287  1  0.70833333  0.97916667  0.21562500  1.0
  Ni  Ni288  1  0.20833333  0.14583333  0.26562500  1.0
  Ni  Ni289  1  0.20833333  0.47916667  0.26562500  1.0
  Ni  Ni290  1  0.20833333  0.81250000  0.26562500  1.0
  Ni  Ni291  1  0.54166667  0.14583333  0.26562500  1.0
  Ni  Ni292  1  0.54166667  0.47916667  0.26562500  1.0
  Ni  Ni293  1  0.54166667  0.81250000  0.26562500  1.0
  Ni  Ni294  1  0.87500000  0.14583333  0.26562500  1.0
  Ni  Ni295  1  0.87500000  0.47916667  0.26562500  1.0
  Ni  Ni296  1  0.87500000  0.81250000  0.26562500  1.0
  Ni  Ni297  1  0.20833333  0.31250000  0.21562500  1.0
  Ni  Ni298  1  0.20833333  0.64583333  0.21562500  1.0
  Ni  Ni299  1  0.20833333  0.97916667  0.21562500  1.0
  Ni  Ni300  1  0.54166667  0.31250000  0.21562500  1.0
  Ni  Ni301  1  0.54166667  0.64583333  0.21562500  1.0
  Ni  Ni302  1  0.54166667  0.97916667  0.21562500  1.0
  Ni  Ni303  1  0.87500000  0.31250000  0.21562500  1.0
  Ni  Ni304  1  0.87500000  0.64583333  0.21562500  1.0
  Ni  Ni305  1  0.87500000  0.97916667  0.21562500  1.0
  Ni  Ni306  1  0.04166667  0.06250000  0.24062500  1.0
  Ni  Ni307  1  0.04166667  0.39583333  0.24062500  1.0
  Ni  Ni308  1  0.04166667  0.72916667  0.24062500  1.0
  Ni  Ni309  1  0.37500000  0.06250000  0.24062500  1.0
  Ni  Ni310  1  0.37500000  0.39583333  0.24062500  1.0
  Ni  Ni311  1  0.37500000  0.72916667  0.24062500  1.0
  Ni  Ni312  1  0.70833333  0.06250000  0.24062500  1.0
  Ni  Ni313  1  0.70833333  0.39583333  0.24062500  1.0
  Ni  Ni314  1  0.70833333  0.72916667  0.24062500  1.0
  Ni  Ni315  1  0.04166667  0.22916667  0.29062500  1.0
  Ni  Ni316  1  0.04166667  0.56250000  0.29062500  1.0
  Ni  Ni317  1  0.04166667  0.89583333  0.29062500  1.0
  Ni  Ni318  1  0.37500000  0.22916667  0.29062500  1.0
  Ni  Ni319  1  0.37500000  0.56250000  0.29062500  1.0
  Ni  Ni320  1  0.37500000  0.89583333  0.29062500  1.0
  Ni  Ni321  1  0.70833333  0.22916667  0.29062500  1.0
  Ni  Ni322  1  0.70833333  0.56250000  0.29062500  1.0
  Ni  Ni323  1  0.70833333  0.89583333  0.29062500  1.0
  Hf  Hf324  1  0.16666667  0.08333333  0.35937500  1.0
  Hf  Hf325  1  0.16666667  0.41666667  0.35937500  1.0
  Hf  Hf326  1  0.16666667  0.75000000  0.35937500  1.0
  Hf  Hf327  1  0.50000000  0.08333333  0.35937500  1.0
  Hf  Hf328  1  0.50000000  0.41666667  0.35937500  1.0
  Hf  Hf329  1  0.50000000  0.75000000  0.35937500  1.0
  Hf  Hf330  1  0.83333333  0.08333333  0.35937500  1.0
  Hf  Hf331  1  0.83333333  0.41666667  0.35937500  1.0
  Hf  Hf332  1  0.83333333  0.75000000  0.35937500  1.0
  Hf  Hf333  1  0.16666667  0.25000000  0.30937500  1.0
  Hf  Hf334  1  0.16666667  0.58333333  0.30937500  1.0
  Hf  Hf335  1  0.16666667  0.91666667  0.30937500  1.0
  Hf  Hf336  1  0.50000000  0.25000000  0.30937500  1.0
  Hf  Hf337  1  0.50000000  0.58333333  0.30937500  1.0
  Hf  Hf338  1  0.50000000  0.91666667  0.30937500  1.0
  Hf  Hf339  1  0.83333333  0.25000000  0.30937500  1.0
  Hf  Hf340  1  0.83333333  0.58333333  0.30937500  1.0
  Hf  Hf341  1  0.83333333  0.91666667  0.30937500  1.0
  Hf  Hf342  1  0.25000000  0.04166667  0.32187500  1.0
  Hf  Hf343  1  0.25000000  0.37500000  0.32187500  1.0
  Hf  Hf344  1  0.25000000  0.70833333  0.32187500  1.0
  Hf  Hf345  1  0.58333333  0.04166667  0.32187500  1.0
  Hf  Hf346  1  0.58333333  0.37500000  0.32187500  1.0
  Hf  Hf347  1  0.58333333  0.70833333  0.32187500  1.0
  Hf  Hf348  1  0.91666667  0.04166667  0.32187500  1.0
  Hf  Hf349  1  0.91666667  0.37500000  0.32187500  1.0
  Hf  Hf350  1  0.91666667  0.70833333  0.32187500  1.0
  Hf  Hf351  1  0.25000000  0.20833333  0.37187500  1.0
  Hf  Hf352  1  0.25000000  0.54166667  0.37187500  1.0
  Hf  Hf353  1  0.25000000  0.87500000  0.37187500  1.0
  Hf  Hf354  1  0.58333333  0.20833333  0.37187500  1.0
  Hf  Hf355  1  0.58333333  0.54166667  0.37187500  1.0
  Hf  Hf356  1  0.58333333  0.87500000  0.37187500  1.0
  Hf  Hf357  1  0.91666667  0.20833333  0.37187500  1.0
  Hf  Hf358  1  0.91666667  0.54166667  0.37187500  1.0
  Hf  Hf359  1  0.91666667  0.87500000  0.37187500  1.0
  Ni  Ni360  1  0.04166667  0.14583333  0.31562500  1.0
  Ni  Ni361  1  0.04166667  0.47916667  0.31562500  1.0
  Ni  Ni362  1  0.04166667  0.81250000  0.31562500  1.0
  Ni  Ni363  1  0.37500000  0.14583333  0.31562500  1.0
  Ni  Ni364  1  0.37500000  0.47916667  0.31562500  1.0
  Ni  Ni365  1  0.37500000  0.81250000  0.31562500  1.0
  Ni  Ni366  1  0.70833333  0.14583333  0.31562500  1.0
  Ni  Ni367  1  0.70833333  0.47916667  0.31562500  1.0
  Ni  Ni368  1  0.70833333  0.81250000  0.31562500  1.0
  Ni  Ni369  1  0.04166667  0.31250000  0.36562500  1.0
  Ni  Ni370  1  0.04166667  0.64583333  0.36562500  1.0
  Ni  Ni371  1  0.04166667  0.97916667  0.36562500  1.0
  Ni  Ni372  1  0.37500000  0.31250000  0.36562500  1.0
  Ni  Ni373  1  0.37500000  0.64583333  0.36562500  1.0
  Ni  Ni374  1  0.37500000  0.97916667  0.36562500  1.0
  Ni  Ni375  1  0.70833333  0.31250000  0.36562500  1.0
  Ni  Ni376  1  0.70833333  0.64583333  0.36562500  1.0
  Ni  Ni377  1  0.70833333  0.97916667  0.36562500  1.0
  Ni  Ni378  1  0.04166667  0.14583333  0.36562500  1.0
  Ni  Ni379  1  0.04166667  0.47916667  0.36562500  1.0
  Ni  Ni380  1  0.04166667  0.81250000  0.36562500  1.0
  Ni  Ni381  1  0.37500000  0.14583333  0.36562500  1.0
  Ni  Ni382  1  0.37500000  0.47916667  0.36562500  1.0
  Ni  Ni383  1  0.37500000  0.81250000  0.36562500  1.0
  Ni  Ni384  1  0.70833333  0.14583333  0.36562500  1.0
  Ni  Ni385  1  0.70833333  0.47916667  0.36562500  1.0
  Ni  Ni386  1  0.70833333  0.81250000  0.36562500  1.0
  Ni  Ni387  1  0.04166667  0.31250000  0.31562500  1.0
  Ni  Ni388  1  0.04166667  0.64583333  0.31562500  1.0
  Ni  Ni389  1  0.04166667  0.97916667  0.31562500  1.0
  Ni  Ni390  1  0.37500000  0.31250000  0.31562500  1.0
  Ni  Ni391  1  0.37500000  0.64583333  0.31562500  1.0
  Ni  Ni392  1  0.37500000  0.97916667  0.31562500  1.0
  Ni  Ni393  1  0.70833333  0.31250000  0.31562500  1.0
  Ni  Ni394  1  0.70833333  0.64583333  0.31562500  1.0
  Ni  Ni395  1  0.70833333  0.97916667  0.31562500  1.0
  Ni  Ni396  1  0.20833333  0.14583333  0.36562500  1.0
  Ni  Ni397  1  0.20833333  0.47916667  0.36562500  1.0
  Ni  Ni398  1  0.20833333  0.81250000  0.36562500  1.0
  Ni  Ni399  1  0.54166667  0.14583333  0.36562500  1.0
  Ni  Ni400  1  0.54166667  0.47916667  0.36562500  1.0
  Ni  Ni401  1  0.54166667  0.81250000  0.36562500  1.0
  Ni  Ni402  1  0.87500000  0.14583333  0.36562500  1.0
  Ni  Ni403  1  0.87500000  0.47916667  0.36562500  1.0
  Ni  Ni404  1  0.87500000  0.81250000  0.36562500  1.0
  Ni  Ni405  1  0.20833333  0.31250000  0.31562500  1.0
  Ni  Ni406  1  0.20833333  0.64583333  0.31562500  1.0
  Ni  Ni407  1  0.20833333  0.97916667  0.31562500  1.0
  Ni  Ni408  1  0.54166667  0.31250000  0.31562500  1.0
  Ni  Ni409  1  0.54166667  0.64583333  0.31562500  1.0
  Ni  Ni410  1  0.54166667  0.97916667  0.31562500  1.0
  Ni  Ni411  1  0.87500000  0.31250000  0.31562500  1.0
  Ni  Ni412  1  0.87500000  0.64583333  0.31562500  1.0
  Ni  Ni413  1  0.87500000  0.97916667  0.31562500  1.0
  Ni  Ni414  1  0.04166667  0.06250000  0.34062500  1.0
  Ni  Ni415  1  0.04166667  0.39583333  0.34062500  1.0
  Ni  Ni416  1  0.04166667  0.72916667  0.34062500  1.0
  Ni  Ni417  1  0.37500000  0.06250000  0.34062500  1.0
  Ni  Ni418  1  0.37500000  0.39583333  0.34062500  1.0
  Ni  Ni419  1  0.37500000  0.72916667  0.34062500  1.0
  Ni  Ni420  1  0.70833333  0.06250000  0.34062500  1.0
  Ni  Ni421  1  0.70833333  0.39583333  0.34062500  1.0
  Ni  Ni422  1  0.70833333  0.72916667  0.34062500  1.0
  Ni  Ni423  1  0.04166667  0.22916667  0.39062500  1.0
  Ni  Ni424  1  0.04166667  0.56250000  0.39062500  1.0
  Ni  Ni425  1  0.04166667  0.89583333  0.39062500  1.0
  Ni  Ni426  1  0.37500000  0.22916667  0.39062500  1.0
  Ni  Ni427  1  0.37500000  0.56250000  0.39062500  1.0
  Ni  Ni428  1  0.37500000  0.89583333  0.39062500  1.0
  Ni  Ni429  1  0.70833333  0.22916667  0.39062500  1.0
  Ni  Ni430  1  0.70833333  0.56250000  0.39062500  1.0
  Ni  Ni431  1  0.70833333  0.89583333  0.39062500  1.0
