# generated using pymatgen
data_HfNi
_symmetry_space_group_name_H-M   'P 1'
_cell_length_a   29.32258198
_cell_length_b   19.71760950
_cell_length_c   69.45848100
_cell_angle_alpha   51.56354402
_cell_angle_beta   90.00000000
_cell_angle_gamma   41.96415386
_symmetry_Int_Tables_number   1
_chemical_formula_structural   HfNi
_chemical_formula_sum   'Hf126 Ni126'
_cell_volume   9891.60784433
_cell_formula_units_Z   126
loop_
 _symmetry_equiv_pos_site_id
 _symmetry_equiv_pos_as_xyz
  1  'x, y, z'
loop_
 _atom_site_type_symbol
 _atom_site_label
 _atom_site_symmetry_multiplicity
 _atom_site_fract_x
 _atom_site_fract_y
 _atom_site_fract_z
 _atom_site_occupancy
  Hf  Hf0  1  0.04677233  0.00000000  0.04411765  1.0
  Hf  Hf1  1  0.04677233  0.33333333  0.04411765  1.0
  Hf  Hf2  1  0.04677233  0.66666667  0.04411765  1.0
  Hf  Hf3  1  0.38010567  0.00000000  0.04411765  1.0
  Hf  Hf4  1  0.38010567  0.33333333  0.04411765  1.0
  Hf  Hf5  1  0.38010567  0.66666667  0.04411765  1.0
  Hf  Hf6  1  0.71343900  0.00000000  0.04411765  1.0
  Hf  Hf7  1  0.71343900  0.33333333  0.04411765  1.0
  Hf  Hf8  1  0.71343900  0.66666667  0.04411765  1.0
  Hf  Hf9  1  0.28656100  0.00000000  0.01470588  1.0
  Hf  Hf10  1  0.28656100  0.33333333  0.01470588  1.0
  Hf  Hf11  1  0.28656100  0.66666667  0.01470588  1.0
  Hf  Hf12  1  0.61989433  0.00000000  0.01470588  1.0
  Hf  Hf13  1  0.61989433  0.33333333  0.01470588  1.0
  Hf  Hf14  1  0.61989433  0.66666667  0.01470588  1.0
  Hf  Hf15  1  0.95322767  0.00000000  0.01470588  1.0
  Hf  Hf16  1  0.95322767  0.33333333  0.01470588  1.0
  Hf  Hf17  1  0.95322767  0.66666667  0.01470588  1.0
  Ni  Ni18  1  0.13876300  0.00000000  0.04411765  1.0
  Ni  Ni19  1  0.13876300  0.33333333  0.04411765  1.0
  Ni  Ni20  1  0.13876300  0.66666667  0.04411765  1.0
  Ni  Ni21  1  0.47209633  0.00000000  0.04411765  1.0
  Ni  Ni22  1  0.47209633  0.33333333  0.04411765  1.0
  Ni  Ni23  1  0.47209633  0.66666667  0.04411765  1.0
  Ni  Ni24  1  0.80542967  0.00000000  0.04411765  1.0
  Ni  Ni25  1  0.80542967  0.33333333  0.04411765  1.0
  Ni  Ni26  1  0.80542967  0.66666667  0.04411765  1.0
  Ni  Ni27  1  0.19457033  0.00000000  0.01470588  1.0
  Ni  Ni28  1  0.19457033  0.33333333  0.01470588  1.0
  Ni  Ni29  1  0.19457033  0.66666667  0.01470588  1.0
  Ni  Ni30  1  0.52790367  0.00000000  0.01470588  1.0
  Ni  Ni31  1  0.52790367  0.33333333  0.01470588  1.0
  Ni  Ni32  1  0.52790367  0.66666667  0.01470588  1.0
  Ni  Ni33  1  0.86123700  0.00000000  0.01470588  1.0
  Ni  Ni34  1  0.86123700  0.33333333  0.01470588  1.0
  Ni  Ni35  1  0.86123700  0.66666667  0.01470588  1.0
  Hf  Hf36  1  0.04677233  0.00000000  0.10294118  1.0
  Hf  Hf37  1  0.04677233  0.33333333  0.10294118  1.0
  Hf  Hf38  1  0.04677233  0.66666667  0.10294118  1.0
  Hf  Hf39  1  0.38010567  0.00000000  0.10294118  1.0
  Hf  Hf40  1  0.38010567  0.33333333  0.10294118  1.0
  Hf  Hf41  1  0.38010567  0.66666667  0.10294118  1.0
  Hf  Hf42  1  0.71343900  0.00000000  0.10294118  1.0
  Hf  Hf43  1  0.71343900  0.33333333  0.10294118  1.0
  Hf  Hf44  1  0.71343900  0.66666667  0.10294118  1.0
  Hf  Hf45  1  0.28656100  0.00000000  0.07352941  1.0
  Hf  Hf46  1  0.28656100  0.33333333  0.07352941  1.0
  Hf  Hf47  1  0.28656100  0.66666667  0.07352941  1.0
  Hf  Hf48  1  0.61989433  0.00000000  0.07352941  1.0
  Hf  Hf49  1  0.61989433  0.33333333  0.07352941  1.0
  Hf  Hf50  1  0.61989433  0.66666667  0.07352941  1.0
  Hf  Hf51  1  0.95322767  0.00000000  0.07352941  1.0
  Hf  Hf52  1  0.95322767  0.33333333  0.07352941  1.0
  Hf  Hf53  1  0.95322767  0.66666667  0.07352941  1.0
  Ni  Ni54  1  0.13876300  0.00000000  0.10294118  1.0
  Ni  Ni55  1  0.13876300  0.33333333  0.10294118  1.0
  Ni  Ni56  1  0.13876300  0.66666667  0.10294118  1.0
  Ni  Ni57  1  0.47209633  0.00000000  0.10294118  1.0
  Ni  Ni58  1  0.47209633  0.33333333  0.10294118  1.0
  Ni  Ni59  1  0.47209633  0.66666667  0.10294118  1.0
  Ni  Ni60  1  0.80542967  0.00000000  0.10294118  1.0
  Ni  Ni61  1  0.80542967  0.33333333  0.10294118  1.0
  Ni  Ni62  1  0.80542967  0.66666667  0.10294118  1.0
  Ni  Ni63  1  0.19457033  0.00000000  0.07352941  1.0
  Ni  Ni64  1  0.19457033  0.33333333  0.07352941  1.0
  Ni  Ni65  1  0.19457033  0.66666667  0.07352941  1.0
  Ni  Ni66  1  0.52790367  0.00000000  0.07352941  1.0
  Ni  Ni67  1  0.52790367  0.33333333  0.07352941  1.0
  Ni  Ni68  1  0.52790367  0.66666667  0.07352941  1.0
  Ni  Ni69  1  0.86123700  0.00000000  0.07352941  1.0
  Ni  Ni70  1  0.86123700  0.33333333  0.07352941  1.0
  Ni  Ni71  1  0.86123700  0.66666667  0.07352941  1.0
  Hf  Hf72  1  0.04677233  0.00000000  0.16176471  1.0
  Hf  Hf73  1  0.04677233  0.33333333  0.16176471  1.0
  Hf  Hf74  1  0.04677233  0.66666667  0.16176471  1.0
  Hf  Hf75  1  0.38010567  0.00000000  0.16176471  1.0
  Hf  Hf76  1  0.38010567  0.33333333  0.16176471  1.0
  Hf  Hf77  1  0.38010567  0.66666667  0.16176471  1.0
  Hf  Hf78  1  0.71343900  0.00000000  0.16176471  1.0
  Hf  Hf79  1  0.71343900  0.33333333  0.16176471  1.0
  Hf  Hf80  1  0.71343900  0.66666667  0.16176471  1.0
  Hf  Hf81  1  0.28656100  0.00000000  0.13235294  1.0
  Hf  Hf82  1  0.28656100  0.33333333  0.13235294  1.0
  Hf  Hf83  1  0.28656100  0.66666667  0.13235294  1.0
  Hf  Hf84  1  0.61989433  0.00000000  0.13235294  1.0
  Hf  Hf85  1  0.61989433  0.33333333  0.13235294  1.0
  Hf  Hf86  1  0.61989433  0.66666667  0.13235294  1.0
  Hf  Hf87  1  0.95322767  0.00000000  0.13235294  1.0
  Hf  Hf88  1  0.95322767  0.33333333  0.13235294  1.0
  Hf  Hf89  1  0.95322767  0.66666667  0.13235294  1.0
  Ni  Ni90  1  0.13876300  0.00000000  0.16176471  1.0
  Ni  Ni91  1  0.13876300  0.33333333  0.16176471  1.0
  Ni  Ni92  1  0.13876300  0.66666667  0.16176471  1.0
  Ni  Ni93  1  0.47209633  0.00000000  0.16176471  1.0
  Ni  Ni94  1  0.47209633  0.33333333  0.16176471  1.0
  Ni  Ni95  1  0.47209633  0.66666667  0.16176471  1.0
  Ni  Ni96  1  0.80542967  0.00000000  0.16176471  1.0
  Ni  Ni97  1  0.80542967  0.33333333  0.16176471  1.0
  Ni  Ni98  1  0.80542967  0.66666667  0.16176471  1.0
  Ni  Ni99  1  0.19457033  0.00000000  0.13235294  1.0
  Ni  Ni100  1  0.19457033  0.33333333  0.13235294  1.0
  Ni  Ni101  1  0.19457033  0.66666667  0.13235294  1.0
  Ni  Ni102  1  0.52790367  0.00000000  0.13235294  1.0
  Ni  Ni103  1  0.52790367  0.33333333  0.13235294  1.0
  Ni  Ni104  1  0.52790367  0.66666667  0.13235294  1.0
  Ni  Ni105  1  0.86123700  0.00000000  0.13235294  1.0
  Ni  Ni106  1  0.86123700  0.33333333  0.13235294  1.0
  Ni  Ni107  1  0.86123700  0.66666667  0.13235294  1.0
  Hf  Hf108  1  0.04677233  0.00000000  0.22058824  1.0
  Hf  Hf109  1  0.04677233  0.33333333  0.22058824  1.0
  Hf  Hf110  1  0.04677233  0.66666667  0.22058824  1.0
  Hf  Hf111  1  0.38010567  0.00000000  0.22058824  1.0
  Hf  Hf112  1  0.38010567  0.33333333  0.22058824  1.0
  Hf  Hf113  1  0.38010567  0.66666667  0.22058824  1.0
  Hf  Hf114  1  0.71343900  0.00000000  0.22058824  1.0
  Hf  Hf115  1  0.71343900  0.33333333  0.22058824  1.0
  Hf  Hf116  1  0.71343900  0.66666667  0.22058824  1.0
  Hf  Hf117  1  0.28656100  0.00000000  0.19117647  1.0
  Hf  Hf118  1  0.28656100  0.33333333  0.19117647  1.0
  Hf  Hf119  1  0.28656100  0.66666667  0.19117647  1.0
  Hf  Hf120  1  0.61989433  0.00000000  0.19117647  1.0
  Hf  Hf121  1  0.61989433  0.33333333  0.19117647  1.0
  Hf  Hf122  1  0.61989433  0.66666667  0.19117647  1.0
  Hf  Hf123  1  0.95322767  0.00000000  0.19117647  1.0
  Hf  Hf124  1  0.95322767  0.33333333  0.19117647  1.0
  Hf  Hf125  1  0.95322767  0.66666667  0.19117647  1.0
  Ni  Ni126  1  0.13876300  0.00000000  0.22058824  1.0
  Ni  Ni127  1  0.13876300  0.33333333  0.22058824  1.0
  Ni  Ni128  1  0.13876300  0.66666667  0.22058824  1.0
  Ni  Ni129  1  0.47209633  0.00000000  0.22058824  1.0
  Ni  Ni130  1  0.47209633  0.33333333  0.22058824  1.0
  Ni  Ni131  1  0.47209633  0.66666667  0.22058824  1.0
  Ni  Ni132  1  0.80542967  0.00000000  0.22058824  1.0
  Ni  Ni133  1  0.80542967  0.33333333  0.22058824  1.0
  Ni  Ni134  1  0.80542967  0.66666667  0.22058824  1.0
  Ni  Ni135  1  0.19457033  0.00000000  0.19117647  1.0
  Ni  Ni136  1  0.19457033  0.33333333  0.19117647  1.0
  Ni  Ni137  1  0.19457033  0.66666667  0.19117647  1.0
  Ni  Ni138  1  0.52790367  0.00000000  0.19117647  1.0
  Ni  Ni139  1  0.52790367  0.33333333  0.19117647  1.0
  Ni  Ni140  1  0.52790367  0.66666667  0.19117647  1.0
  Ni  Ni141  1  0.86123700  0.00000000  0.19117647  1.0
  Ni  Ni142  1  0.86123700  0.33333333  0.19117647  1.0
  Ni  Ni143  1  0.86123700  0.66666667  0.19117647  1.0
  Hf  Hf144  1  0.04677233  0.00000000  0.27941176  1.0
  Hf  Hf145  1  0.04677233  0.33333333  0.27941176  1.0
  Hf  Hf146  1  0.04677233  0.66666667  0.27941176  1.0
  Hf  Hf147  1  0.38010567  0.00000000  0.27941176  1.0
  Hf  Hf148  1  0.38010567  0.33333333  0.27941176  1.0
  Hf  Hf149  1  0.38010567  0.66666667  0.27941176  1.0
  Hf  Hf150  1  0.71343900  0.00000000  0.27941176  1.0
  Hf  Hf151  1  0.71343900  0.33333333  0.27941176  1.0
  Hf  Hf152  1  0.71343900  0.66666667  0.27941176  1.0
  Hf  Hf153  1  0.28656100  0.00000000  0.25000000  1.0
  Hf  Hf154  1  0.28656100  0.33333333  0.25000000  1.0
  Hf  Hf155  1  0.28656100  0.66666667  0.25000000  1.0
  Hf  Hf156  1  0.61989433  0.00000000  0.25000000  1.0
  Hf  Hf157  1  0.61989433  0.33333333  0.25000000  1.0
  Hf  Hf158  1  0.61989433  0.66666667  0.25000000  1.0
  Hf  Hf159  1  0.95322767  0.00000000  0.25000000  1.0
  Hf  Hf160  1  0.95322767  0.33333333  0.25000000  1.0
  Hf  Hf161  1  0.95322767  0.66666667  0.25000000  1.0
  Ni  Ni162  1  0.13876300  0.00000000  0.27941176  1.0
  Ni  Ni163  1  0.13876300  0.33333333  0.27941176  1.0
  Ni  Ni164  1  0.13876300  0.66666667  0.27941176  1.0
  Ni  Ni165  1  0.47209633  0.00000000  0.27941176  1.0
  Ni  Ni166  1  0.47209633  0.33333333  0.27941176  1.0
  Ni  Ni167  1  0.47209633  0.66666667  0.27941176  1.0
  Ni  Ni168  1  0.80542967  0.00000000  0.27941176  1.0
  Ni  Ni169  1  0.80542967  0.33333333  0.27941176  1.0
  Ni  Ni170  1  0.80542967  0.66666667  0.27941176  1.0
  Ni  Ni171  1  0.19457033  0.00000000  0.25000000  1.0
  Ni  Ni172  1  0.19457033  0.33333333  0.25000000  1.0
  Ni  Ni173  1  0.19457033  0.66666667  0.25000000  1.0
  Ni  Ni174  1  0.52790367  0.00000000  0.25000000  1.0
  Ni  Ni175  1  0.52790367  0.33333333  0.25000000  1.0
  Ni  Ni176  1  0.52790367  0.66666667  0.25000000  1.0
  Ni  Ni177  1  0.86123700  0.00000000  0.25000000  1.0
  Ni  Ni178  1  0.86123700  0.33333333  0.25000000  1.0
  Ni  Ni179  1  0.86123700  0.66666667  0.25000000  1.0
  Hf  Hf180  1  0.04677233  0.00000000  0.33823529  1.0
  Hf  Hf181  1  0.04677233  0.33333333  0.33823529  1.0
  Hf  Hf182  1  0.04677233  0.66666667  0.33823529  1.0
  Hf  Hf183  1  0.38010567  0.00000000  0.33823529  1.0
  Hf  Hf184  1  0.38010567  0.33333333  0.33823529  1.0
  Hf  Hf185  1  0.38010567  0.66666667  0.33823529  1.0
  Hf  Hf186  1  0.71343900  0.00000000  0.33823529  1.0
  Hf  Hf187  1  0.71343900  0.33333333  0.33823529  1.0
  Hf  Hf188  1  0.71343900  0.66666667  0.33823529  1.0
  Hf  Hf189  1  0.28656100  0.00000000  0.30882353  1.0
  Hf  Hf190  1  0.28656100  0.33333333  0.30882353  1.0
  Hf  Hf191  1  0.28656100  0.66666667  0.30882353  1.0
  Hf  Hf192  1  0.61989433  0.00000000  0.30882353  1.0
  Hf  Hf193  1  0.61989433  0.33333333  0.30882353  1.0
  Hf  Hf194  1  0.61989433  0.66666667  0.30882353  1.0
  Hf  Hf195  1  0.95322767  0.00000000  0.30882353  1.0
  Hf  Hf196  1  0.95322767  0.33333333  0.30882353  1.0
  Hf  Hf197  1  0.95322767  0.66666667  0.30882353  1.0
  Ni  Ni198  1  0.13876300  0.00000000  0.33823529  1.0
  Ni  Ni199  1  0.13876300  0.33333333  0.33823529  1.0
  Ni  Ni200  1  0.13876300  0.66666667  0.33823529  1.0
  Ni  Ni201  1  0.47209633  0.00000000  0.33823529  1.0
  Ni  Ni202  1  0.47209633  0.33333333  0.33823529  1.0
  Ni  Ni203  1  0.47209633  0.66666667  0.33823529  1.0
  Ni  Ni204  1  0.80542967  0.00000000  0.33823529  1.0
  Ni  Ni205  1  0.80542967  0.33333333  0.33823529  1.0
  Ni  Ni206  1  0.80542967  0.66666667  0.33823529  1.0
  Ni  Ni207  1  0.19457033  0.00000000  0.30882353  1.0
  Ni  Ni208  1  0.19457033  0.33333333  0.30882353  1.0
  Ni  Ni209  1  0.19457033  0.66666667  0.30882353  1.0
  Ni  Ni210  1  0.52790367  0.00000000  0.30882353  1.0
  Ni  Ni211  1  0.52790367  0.33333333  0.30882353  1.0
  Ni  Ni212  1  0.52790367  0.66666667  0.30882353  1.0
  Ni  Ni213  1  0.86123700  0.00000000  0.30882353  1.0
  Ni  Ni214  1  0.86123700  0.33333333  0.30882353  1.0
  Ni  Ni215  1  0.86123700  0.66666667  0.30882353  1.0
  Hf  Hf216  1  0.04677233  0.00000000  0.39705882  1.0
  Hf  Hf217  1  0.04677233  0.33333333  0.39705882  1.0
  Hf  Hf218  1  0.04677233  0.66666667  0.39705882  1.0
  Hf  Hf219  1  0.38010567  0.00000000  0.39705882  1.0
  Hf  Hf220  1  0.38010567  0.33333333  0.39705882  1.0
  Hf  Hf221  1  0.38010567  0.66666667  0.39705882  1.0
  Hf  Hf222  1  0.71343900  0.00000000  0.39705882  1.0
  Hf  Hf223  1  0.71343900  0.33333333  0.39705882  1.0
  Hf  Hf224  1  0.71343900  0.66666667  0.39705882  1.0
  Hf  Hf225  1  0.28656100  0.00000000  0.36764706  1.0
  Hf  Hf226  1  0.28656100  0.33333333  0.36764706  1.0
  Hf  Hf227  1  0.28656100  0.66666667  0.36764706  1.0
  Hf  Hf228  1  0.61989433  0.00000000  0.36764706  1.0
  Hf  Hf229  1  0.61989433  0.33333333  0.36764706  1.0
  Hf  Hf230  1  0.61989433  0.66666667  0.36764706  1.0
  Hf  Hf231  1  0.95322767  0.00000000  0.36764706  1.0
  Hf  Hf232  1  0.95322767  0.33333333  0.36764706  1.0
  Hf  Hf233  1  0.95322767  0.66666667  0.36764706  1.0
  Ni  Ni234  1  0.13876300  0.00000000  0.39705882  1.0
  Ni  Ni235  1  0.13876300  0.33333333  0.39705882  1.0
  Ni  Ni236  1  0.13876300  0.66666667  0.39705882  1.0
  Ni  Ni237  1  0.47209633  0.00000000  0.39705882  1.0
  Ni  Ni238  1  0.47209633  0.33333333  0.39705882  1.0
  Ni  Ni239  1  0.47209633  0.66666667  0.39705882  1.0
  Ni  Ni240  1  0.80542967  0.00000000  0.39705882  1.0
  Ni  Ni241  1  0.80542967  0.33333333  0.39705882  1.0
  Ni  Ni242  1  0.80542967  0.66666667  0.39705882  1.0
  Ni  Ni243  1  0.19457033  0.00000000  0.36764706  1.0
  Ni  Ni244  1  0.19457033  0.33333333  0.36764706  1.0
  Ni  Ni245  1  0.19457033  0.66666667  0.36764706  1.0
  Ni  Ni246  1  0.52790367  0.00000000  0.36764706  1.0
  Ni  Ni247  1  0.52790367  0.33333333  0.36764706  1.0
  Ni  Ni248  1  0.52790367  0.66666667  0.36764706  1.0
  Ni  Ni249  1  0.86123700  0.00000000  0.36764706  1.0
  Ni  Ni250  1  0.86123700  0.33333333  0.36764706  1.0
  Ni  Ni251  1  0.86123700  0.66666667  0.36764706  1.0
