# generated using pymatgen
data_In3Ni2
_symmetry_space_group_name_H-M   'P 1'
_cell_length_a   13.34077419
_cell_length_b   34.59668272
_cell_length_c   35.57539784
_cell_angle_alpha   112.68152055
_cell_angle_beta   120.00000000
_cell_angle_gamma   78.88351817
_symmetry_Int_Tables_number   1
_chemical_formula_structural   In3Ni2
_chemical_formula_sum   'In162 Ni108'
_cell_volume   13120.14884809
_cell_formula_units_Z   54
loop_
 _symmetry_equiv_pos_site_id
 _symmetry_equiv_pos_as_xyz
  1  'x, y, z'
loop_
 _atom_site_type_symbol
 _atom_site_label
 _atom_site_symmetry_multiplicity
 _atom_site_fract_x
 _atom_site_fract_y
 _atom_site_fract_z
 _atom_site_occupancy
  In  In0  1  0.00000000  0.00000000  0.11895271  1.0
  In  In1  1  0.00000000  0.33333333  0.11895271  1.0
  In  In2  1  0.00000000  0.66666667  0.11895271  1.0
  In  In3  1  0.33333333  0.00000000  0.11895271  1.0
  In  In4  1  0.33333333  0.33333333  0.11895271  1.0
  In  In5  1  0.33333333  0.66666667  0.11895271  1.0
  In  In6  1  0.66666667  0.00000000  0.11895271  1.0
  In  In7  1  0.66666667  0.33333333  0.11895271  1.0
  In  In8  1  0.66666667  0.66666667  0.11895271  1.0
  In  In9  1  0.00000000  0.16666667  0.05645271  1.0
  In  In10  1  0.00000000  0.50000000  0.05645271  1.0
  In  In11  1  0.00000000  0.83333333  0.05645271  1.0
  In  In12  1  0.33333333  0.16666667  0.05645271  1.0
  In  In13  1  0.33333333  0.50000000  0.05645271  1.0
  In  In14  1  0.33333333  0.83333333  0.05645271  1.0
  In  In15  1  0.66666667  0.16666667  0.05645271  1.0
  In  In16  1  0.66666667  0.50000000  0.05645271  1.0
  In  In17  1  0.66666667  0.83333333  0.05645271  1.0
  In  In18  1  0.11111111  0.05910467  0.09945029  1.0
  In  In19  1  0.11111111  0.39243800  0.09945029  1.0
  In  In20  1  0.11111111  0.72577133  0.09945029  1.0
  In  In21  1  0.44444444  0.05910467  0.09945029  1.0
  In  In22  1  0.44444444  0.39243800  0.09945029  1.0
  In  In23  1  0.44444444  0.72577133  0.09945029  1.0
  In  In24  1  0.77777778  0.05910467  0.09945029  1.0
  In  In25  1  0.77777778  0.39243800  0.09945029  1.0
  In  In26  1  0.77777778  0.72577133  0.09945029  1.0
  In  In27  1  0.11111111  0.22577133  0.03695029  1.0
  In  In28  1  0.11111111  0.55910467  0.03695029  1.0
  In  In29  1  0.11111111  0.89243800  0.03695029  1.0
  In  In30  1  0.44444444  0.22577133  0.03695029  1.0
  In  In31  1  0.44444444  0.55910467  0.03695029  1.0
  In  In32  1  0.44444444  0.89243800  0.03695029  1.0
  In  In33  1  0.77777778  0.22577133  0.03695029  1.0
  In  In34  1  0.77777778  0.55910467  0.03695029  1.0
  In  In35  1  0.77777778  0.89243800  0.03695029  1.0
  In  In36  1  0.22222222  0.10756200  0.07595513  1.0
  In  In37  1  0.22222222  0.44089533  0.07595513  1.0
  In  In38  1  0.22222222  0.77422867  0.07595512  1.0
  In  In39  1  0.55555556  0.10756200  0.07595513  1.0
  In  In40  1  0.55555556  0.44089533  0.07595513  1.0
  In  In41  1  0.55555556  0.77422867  0.07595513  1.0
  In  In42  1  0.88888889  0.10756200  0.07595513  1.0
  In  In43  1  0.88888889  0.44089533  0.07595513  1.0
  In  In44  1  0.88888889  0.77422867  0.07595513  1.0
  In  In45  1  0.22222222  0.27422867  0.01345513  1.0
  In  In46  1  0.22222222  0.60756200  0.01345513  1.0
  In  In47  1  0.22222222  0.94089533  0.01345513  1.0
  In  In48  1  0.55555556  0.27422867  0.01345513  1.0
  In  In49  1  0.55555556  0.60756200  0.01345512  1.0
  In  In50  1  0.55555556  0.94089533  0.01345513  1.0
  In  In51  1  0.88888889  0.27422867  0.01345513  1.0
  In  In52  1  0.88888889  0.60756200  0.01345513  1.0
  In  In53  1  0.88888889  0.94089533  0.01345513  1.0
  Ni  Ni54  1  0.11111111  0.14336333  0.00604729  1.0
  Ni  Ni55  1  0.11111111  0.47669667  0.00604729  1.0
  Ni  Ni56  1  0.11111111  0.81003000  0.00604729  1.0
  Ni  Ni57  1  0.44444444  0.14336333  0.00604729  1.0
  Ni  Ni58  1  0.44444444  0.47669667  0.00604729  1.0
  Ni  Ni59  1  0.44444444  0.81003000  0.00604729  1.0
  Ni  Ni60  1  0.77777778  0.14336333  0.00604729  1.0
  Ni  Ni61  1  0.77777778  0.47669667  0.00604729  1.0
  Ni  Ni62  1  0.77777778  0.81003000  0.00604729  1.0
  Ni  Ni63  1  0.11111111  0.31003000  0.06854729  1.0
  Ni  Ni64  1  0.11111111  0.64336333  0.06854729  1.0
  Ni  Ni65  1  0.11111111  0.97669667  0.06854729  1.0
  Ni  Ni66  1  0.44444444  0.31003000  0.06854729  1.0
  Ni  Ni67  1  0.44444444  0.64336333  0.06854729  1.0
  Ni  Ni68  1  0.44444444  0.97669667  0.06854729  1.0
  Ni  Ni69  1  0.77777778  0.31003000  0.06854729  1.0
  Ni  Ni70  1  0.77777778  0.64336333  0.06854729  1.0
  Ni  Ni71  1  0.77777778  0.97669667  0.06854729  1.0
  Ni  Ni72  1  0.22222222  0.02330333  0.04435812  1.0
  Ni  Ni73  1  0.22222222  0.35663667  0.04435812  1.0
  Ni  Ni74  1  0.22222222  0.68997000  0.04435812  1.0
  Ni  Ni75  1  0.55555556  0.02330333  0.04435812  1.0
  Ni  Ni76  1  0.55555556  0.35663667  0.04435812  1.0
  Ni  Ni77  1  0.55555556  0.68997000  0.04435813  1.0
  Ni  Ni78  1  0.88888889  0.02330333  0.04435812  1.0
  Ni  Ni79  1  0.88888889  0.35663667  0.04435813  1.0
  Ni  Ni80  1  0.88888889  0.68997000  0.04435813  1.0
  Ni  Ni81  1  0.22222222  0.18997000  0.10685813  1.0
  Ni  Ni82  1  0.22222222  0.52330333  0.10685813  1.0
  Ni  Ni83  1  0.22222222  0.85663667  0.10685812  1.0
  Ni  Ni84  1  0.55555556  0.18997000  0.10685813  1.0
  Ni  Ni85  1  0.55555556  0.52330333  0.10685813  1.0
  Ni  Ni86  1  0.55555556  0.85663667  0.10685812  1.0
  Ni  Ni87  1  0.88888889  0.18997000  0.10685813  1.0
  Ni  Ni88  1  0.88888889  0.52330333  0.10685813  1.0
  Ni  Ni89  1  0.88888889  0.85663667  0.10685812  1.0
  In  In90  1  0.00000000  0.00000000  0.24395271  1.0
  In  In91  1  0.00000000  0.33333333  0.24395271  1.0
  In  In92  1  0.00000000  0.66666667  0.24395271  1.0
  In  In93  1  0.33333333  0.00000000  0.24395271  1.0
  In  In94  1  0.33333333  0.33333333  0.24395271  1.0
  In  In95  1  0.33333333  0.66666667  0.24395271  1.0
  In  In96  1  0.66666667  0.00000000  0.24395271  1.0
  In  In97  1  0.66666667  0.33333333  0.24395271  1.0
  In  In98  1  0.66666667  0.66666667  0.24395271  1.0
  In  In99  1  0.00000000  0.16666667  0.18145271  1.0
  In  In100  1  0.00000000  0.50000000  0.18145271  1.0
  In  In101  1  0.00000000  0.83333333  0.18145271  1.0
  In  In102  1  0.33333333  0.16666667  0.18145271  1.0
  In  In103  1  0.33333333  0.50000000  0.18145271  1.0
  In  In104  1  0.33333333  0.83333333  0.18145271  1.0
  In  In105  1  0.66666667  0.16666667  0.18145271  1.0
  In  In106  1  0.66666667  0.50000000  0.18145271  1.0
  In  In107  1  0.66666667  0.83333333  0.18145271  1.0
  In  In108  1  0.11111111  0.05910467  0.22445029  1.0
  In  In109  1  0.11111111  0.39243800  0.22445029  1.0
  In  In110  1  0.11111111  0.72577133  0.22445029  1.0
  In  In111  1  0.44444444  0.05910467  0.22445029  1.0
  In  In112  1  0.44444444  0.39243800  0.22445029  1.0
  In  In113  1  0.44444444  0.72577133  0.22445029  1.0
  In  In114  1  0.77777778  0.05910467  0.22445029  1.0
  In  In115  1  0.77777778  0.39243800  0.22445029  1.0
  In  In116  1  0.77777778  0.72577133  0.22445029  1.0
  In  In117  1  0.11111111  0.22577133  0.16195029  1.0
  In  In118  1  0.11111111  0.55910467  0.16195029  1.0
  In  In119  1  0.11111111  0.89243800  0.16195029  1.0
  In  In120  1  0.44444444  0.22577133  0.16195029  1.0
  In  In121  1  0.44444444  0.55910467  0.16195029  1.0
  In  In122  1  0.44444444  0.89243800  0.16195029  1.0
  In  In123  1  0.77777778  0.22577133  0.16195029  1.0
  In  In124  1  0.77777778  0.55910467  0.16195029  1.0
  In  In125  1  0.77777778  0.89243800  0.16195029  1.0
  In  In126  1  0.22222222  0.10756200  0.20095513  1.0
  In  In127  1  0.22222222  0.44089533  0.20095513  1.0
  In  In128  1  0.22222222  0.77422867  0.20095513  1.0
  In  In129  1  0.55555556  0.10756200  0.20095513  1.0
  In  In130  1  0.55555556  0.44089533  0.20095513  1.0
  In  In131  1  0.55555556  0.77422867  0.20095513  1.0
  In  In132  1  0.88888889  0.10756200  0.20095513  1.0
  In  In133  1  0.88888889  0.44089533  0.20095513  1.0
  In  In134  1  0.88888889  0.77422867  0.20095513  1.0
  In  In135  1  0.22222222  0.27422867  0.13845513  1.0
  In  In136  1  0.22222222  0.60756200  0.13845513  1.0
  In  In137  1  0.22222222  0.94089533  0.13845513  1.0
  In  In138  1  0.55555556  0.27422867  0.13845513  1.0
  In  In139  1  0.55555556  0.60756200  0.13845513  1.0
  In  In140  1  0.55555556  0.94089533  0.13845513  1.0
  In  In141  1  0.88888889  0.27422867  0.13845513  1.0
  In  In142  1  0.88888889  0.60756200  0.13845513  1.0
  In  In143  1  0.88888889  0.94089533  0.13845513  1.0
  Ni  Ni144  1  0.11111111  0.14336333  0.13104729  1.0
  Ni  Ni145  1  0.11111111  0.47669667  0.13104729  1.0
  Ni  Ni146  1  0.11111111  0.81003000  0.13104729  1.0
  Ni  Ni147  1  0.44444444  0.14336333  0.13104729  1.0
  Ni  Ni148  1  0.44444444  0.47669667  0.13104729  1.0
  Ni  Ni149  1  0.44444444  0.81003000  0.13104729  1.0
  Ni  Ni150  1  0.77777778  0.14336333  0.13104729  1.0
  Ni  Ni151  1  0.77777778  0.47669667  0.13104729  1.0
  Ni  Ni152  1  0.77777778  0.81003000  0.13104729  1.0
  Ni  Ni153  1  0.11111111  0.31003000  0.19354729  1.0
  Ni  Ni154  1  0.11111111  0.64336333  0.19354729  1.0
  Ni  Ni155  1  0.11111111  0.97669667  0.19354729  1.0
  Ni  Ni156  1  0.44444444  0.31003000  0.19354729  1.0
  Ni  Ni157  1  0.44444444  0.64336333  0.19354729  1.0
  Ni  Ni158  1  0.44444444  0.97669667  0.19354729  1.0
  Ni  Ni159  1  0.77777778  0.31003000  0.19354729  1.0
  Ni  Ni160  1  0.77777778  0.64336333  0.19354729  1.0
  Ni  Ni161  1  0.77777778  0.97669667  0.19354729  1.0
  Ni  Ni162  1  0.22222222  0.02330333  0.16935812  1.0
  Ni  Ni163  1  0.22222222  0.35663667  0.16935812  1.0
  Ni  Ni164  1  0.22222222  0.68997000  0.16935812  1.0
  Ni  Ni165  1  0.55555556  0.02330333  0.16935813  1.0
  Ni  Ni166  1  0.55555556  0.35663667  0.16935812  1.0
  Ni  Ni167  1  0.55555556  0.68997000  0.16935813  1.0
  Ni  Ni168  1  0.88888889  0.02330333  0.16935812  1.0
  Ni  Ni169  1  0.88888889  0.35663667  0.16935813  1.0
  Ni  Ni170  1  0.88888889  0.68997000  0.16935813  1.0
  Ni  Ni171  1  0.22222222  0.18997000  0.23185813  1.0
  Ni  Ni172  1  0.22222222  0.52330333  0.23185813  1.0
  Ni  Ni173  1  0.22222222  0.85663667  0.23185812  1.0
  Ni  Ni174  1  0.55555556  0.18997000  0.23185813  1.0
  Ni  Ni175  1  0.55555556  0.52330333  0.23185813  1.0
  Ni  Ni176  1  0.55555556  0.85663667  0.23185812  1.0
  Ni  Ni177  1  0.88888889  0.18997000  0.23185813  1.0
  Ni  Ni178  1  0.88888889  0.52330333  0.23185813  1.0
  Ni  Ni179  1  0.88888889  0.85663667  0.23185813  1.0
  In  In180  1  0.00000000  0.00000000  0.36895271  1.0
  In  In181  1  0.00000000  0.33333333  0.36895271  1.0
  In  In182  1  0.00000000  0.66666667  0.36895271  1.0
  In  In183  1  0.33333333  0.00000000  0.36895271  1.0
  In  In184  1  0.33333333  0.33333333  0.36895271  1.0
  In  In185  1  0.33333333  0.66666667  0.36895271  1.0
  In  In186  1  0.66666667  0.00000000  0.36895271  1.0
  In  In187  1  0.66666667  0.33333333  0.36895271  1.0
  In  In188  1  0.66666667  0.66666667  0.36895271  1.0
  In  In189  1  0.00000000  0.16666667  0.30645271  1.0
  In  In190  1  0.00000000  0.50000000  0.30645271  1.0
  In  In191  1  0.00000000  0.83333333  0.30645271  1.0
  In  In192  1  0.33333333  0.16666667  0.30645271  1.0
  In  In193  1  0.33333333  0.50000000  0.30645271  1.0
  In  In194  1  0.33333333  0.83333333  0.30645271  1.0
  In  In195  1  0.66666667  0.16666667  0.30645271  1.0
  In  In196  1  0.66666667  0.50000000  0.30645271  1.0
  In  In197  1  0.66666667  0.83333333  0.30645271  1.0
  In  In198  1  0.11111111  0.05910467  0.34945029  1.0
  In  In199  1  0.11111111  0.39243800  0.34945029  1.0
  In  In200  1  0.11111111  0.72577133  0.34945029  1.0
  In  In201  1  0.44444444  0.05910467  0.34945029  1.0
  In  In202  1  0.44444444  0.39243800  0.34945029  1.0
  In  In203  1  0.44444444  0.72577133  0.34945029  1.0
  In  In204  1  0.77777778  0.05910467  0.34945029  1.0
  In  In205  1  0.77777778  0.39243800  0.34945029  1.0
  In  In206  1  0.77777778  0.72577133  0.34945029  1.0
  In  In207  1  0.11111111  0.22577133  0.28695029  1.0
  In  In208  1  0.11111111  0.55910467  0.28695029  1.0
  In  In209  1  0.11111111  0.89243800  0.28695029  1.0
  In  In210  1  0.44444444  0.22577133  0.28695029  1.0
  In  In211  1  0.44444444  0.55910467  0.28695029  1.0
  In  In212  1  0.44444444  0.89243800  0.28695029  1.0
  In  In213  1  0.77777778  0.22577133  0.28695029  1.0
  In  In214  1  0.77777778  0.55910467  0.28695029  1.0
  In  In215  1  0.77777778  0.89243800  0.28695029  1.0
  In  In216  1  0.22222222  0.10756200  0.32595513  1.0
  In  In217  1  0.22222222  0.44089533  0.32595513  1.0
  In  In218  1  0.22222222  0.77422867  0.32595513  1.0
  In  In219  1  0.55555556  0.10756200  0.32595513  1.0
  In  In220  1  0.55555556  0.44089533  0.32595513  1.0
  In  In221  1  0.55555556  0.77422867  0.32595513  1.0
  In  In222  1  0.88888889  0.10756200  0.32595513  1.0
  In  In223  1  0.88888889  0.44089533  0.32595513  1.0
  In  In224  1  0.88888889  0.77422867  0.32595513  1.0
  In  In225  1  0.22222222  0.27422867  0.26345513  1.0
  In  In226  1  0.22222222  0.60756200  0.26345513  1.0
  In  In227  1  0.22222222  0.94089533  0.26345513  1.0
  In  In228  1  0.55555556  0.27422867  0.26345513  1.0
  In  In229  1  0.55555556  0.60756200  0.26345513  1.0
  In  In230  1  0.55555556  0.94089533  0.26345513  1.0
  In  In231  1  0.88888889  0.27422867  0.26345513  1.0
  In  In232  1  0.88888889  0.60756200  0.26345513  1.0
  In  In233  1  0.88888889  0.94089533  0.26345513  1.0
  Ni  Ni234  1  0.11111111  0.14336333  0.25604729  1.0
  Ni  Ni235  1  0.11111111  0.47669667  0.25604729  1.0
  Ni  Ni236  1  0.11111111  0.81003000  0.25604729  1.0
  Ni  Ni237  1  0.44444444  0.14336333  0.25604729  1.0
  Ni  Ni238  1  0.44444444  0.47669667  0.25604729  1.0
  Ni  Ni239  1  0.44444444  0.81003000  0.25604729  1.0
  Ni  Ni240  1  0.77777778  0.14336333  0.25604729  1.0
  Ni  Ni241  1  0.77777778  0.47669667  0.25604729  1.0
  Ni  Ni242  1  0.77777778  0.81003000  0.25604729  1.0
  Ni  Ni243  1  0.11111111  0.31003000  0.31854729  1.0
  Ni  Ni244  1  0.11111111  0.64336333  0.31854729  1.0
  Ni  Ni245  1  0.11111111  0.97669667  0.31854729  1.0
  Ni  Ni246  1  0.44444444  0.31003000  0.31854729  1.0
  Ni  Ni247  1  0.44444444  0.64336333  0.31854729  1.0
  Ni  Ni248  1  0.44444444  0.97669667  0.31854729  1.0
  Ni  Ni249  1  0.77777778  0.31003000  0.31854729  1.0
  Ni  Ni250  1  0.77777778  0.64336333  0.31854729  1.0
  Ni  Ni251  1  0.77777778  0.97669667  0.31854729  1.0
  Ni  Ni252  1  0.22222222  0.02330333  0.29435813  1.0
  Ni  Ni253  1  0.22222222  0.35663667  0.29435813  1.0
  Ni  Ni254  1  0.22222222  0.68997000  0.29435813  1.0
  Ni  Ni255  1  0.55555556  0.02330333  0.29435813  1.0
  Ni  Ni256  1  0.55555556  0.35663667  0.29435813  1.0
  Ni  Ni257  1  0.55555556  0.68997000  0.29435813  1.0
  Ni  Ni258  1  0.88888889  0.02330333  0.29435813  1.0
  Ni  Ni259  1  0.88888889  0.35663667  0.29435813  1.0
  Ni  Ni260  1  0.88888889  0.68997000  0.29435813  1.0
  Ni  Ni261  1  0.22222222  0.18997000  0.35685813  1.0
  Ni  Ni262  1  0.22222222  0.52330333  0.35685813  1.0
  Ni  Ni263  1  0.22222222  0.85663667  0.35685813  1.0
  Ni  Ni264  1  0.55555556  0.18997000  0.35685813  1.0
  Ni  Ni265  1  0.55555556  0.52330333  0.35685813  1.0
  Ni  Ni266  1  0.55555556  0.85663667  0.35685813  1.0
  Ni  Ni267  1  0.88888889  0.18997000  0.35685813  1.0
  Ni  Ni268  1  0.88888889  0.52330333  0.35685813  1.0
  Ni  Ni269  1  0.88888889  0.85663667  0.35685813  1.0
