# generated using pymatgen
data_In3Ni2
_symmetry_space_group_name_H-M   'P 1'
_cell_length_a   13.34077419
_cell_length_b   15.96053100
_cell_length_c   31.12847311
_cell_angle_alpha   90.00000000
_cell_angle_beta   120.00000000
_cell_angle_gamma   90.00000000
_symmetry_Int_Tables_number   1
_chemical_formula_structural   In3Ni2
_chemical_formula_sum   'In81 Ni54'
_cell_volume   5740.06512104
_cell_formula_units_Z   27
loop_
 _symmetry_equiv_pos_site_id
 _symmetry_equiv_pos_as_xyz
  1  'x, y, z'
loop_
 _atom_site_type_symbol
 _atom_site_label
 _atom_site_symmetry_multiplicity
 _atom_site_fract_x
 _atom_site_fract_y
 _atom_site_fract_z
 _atom_site_occupancy
  In  In0  1  0.00000000  0.00000000  0.11904762  1.0
  In  In1  1  0.00000000  0.33333333  0.11904762  1.0
  In  In2  1  0.00000000  0.66666667  0.11904762  1.0
  In  In3  1  0.33333333  0.00000000  0.11904762  1.0
  In  In4  1  0.33333333  0.33333333  0.11904762  1.0
  In  In5  1  0.33333333  0.66666667  0.11904762  1.0
  In  In6  1  0.66666667  0.00000000  0.11904762  1.0
  In  In7  1  0.66666667  0.33333333  0.11904762  1.0
  In  In8  1  0.66666667  0.66666667  0.11904762  1.0
  In  In9  1  0.11111111  0.11820933  0.07142857  1.0
  In  In10  1  0.11111111  0.45154267  0.07142857  1.0
  In  In11  1  0.11111111  0.78487600  0.07142857  1.0
  In  In12  1  0.44444444  0.11820933  0.07142857  1.0
  In  In13  1  0.44444444  0.45154267  0.07142857  1.0
  In  In14  1  0.44444444  0.78487600  0.07142857  1.0
  In  In15  1  0.77777778  0.11820933  0.07142857  1.0
  In  In16  1  0.77777778  0.45154267  0.07142857  1.0
  In  In17  1  0.77777778  0.78487600  0.07142857  1.0
  In  In18  1  0.22222222  0.21512400  0.02380952  1.0
  In  In19  1  0.22222222  0.54845733  0.02380952  1.0
  In  In20  1  0.22222222  0.88179067  0.02380952  1.0
  In  In21  1  0.55555556  0.21512400  0.02380952  1.0
  In  In22  1  0.55555556  0.54845733  0.02380952  1.0
  In  In23  1  0.55555556  0.88179067  0.02380952  1.0
  In  In24  1  0.88888889  0.21512400  0.02380952  1.0
  In  In25  1  0.88888889  0.54845733  0.02380952  1.0
  In  In26  1  0.88888889  0.88179067  0.02380952  1.0
  Ni  Ni27  1  0.11111111  0.28672667  0.07142857  1.0
  Ni  Ni28  1  0.11111111  0.62006000  0.07142857  1.0
  Ni  Ni29  1  0.11111111  0.95339333  0.07142857  1.0
  Ni  Ni30  1  0.44444444  0.28672667  0.07142857  1.0
  Ni  Ni31  1  0.44444444  0.62006000  0.07142857  1.0
  Ni  Ni32  1  0.44444444  0.95339333  0.07142857  1.0
  Ni  Ni33  1  0.77777778  0.28672667  0.07142857  1.0
  Ni  Ni34  1  0.77777778  0.62006000  0.07142857  1.0
  Ni  Ni35  1  0.77777778  0.95339333  0.07142857  1.0
  Ni  Ni36  1  0.22222222  0.04660667  0.02380952  1.0
  Ni  Ni37  1  0.22222222  0.37994000  0.02380952  1.0
  Ni  Ni38  1  0.22222222  0.71327333  0.02380952  1.0
  Ni  Ni39  1  0.55555556  0.04660667  0.02380952  1.0
  Ni  Ni40  1  0.55555556  0.37994000  0.02380952  1.0
  Ni  Ni41  1  0.55555556  0.71327333  0.02380952  1.0
  Ni  Ni42  1  0.88888889  0.04660667  0.02380952  1.0
  Ni  Ni43  1  0.88888889  0.37994000  0.02380952  1.0
  Ni  Ni44  1  0.88888889  0.71327333  0.02380952  1.0
  In  In45  1  0.00000000  0.00000000  0.26190476  1.0
  In  In46  1  0.00000000  0.33333333  0.26190476  1.0
  In  In47  1  0.00000000  0.66666667  0.26190476  1.0
  In  In48  1  0.33333333  0.00000000  0.26190476  1.0
  In  In49  1  0.33333333  0.33333333  0.26190476  1.0
  In  In50  1  0.33333333  0.66666667  0.26190476  1.0
  In  In51  1  0.66666667  0.00000000  0.26190476  1.0
  In  In52  1  0.66666667  0.33333333  0.26190476  1.0
  In  In53  1  0.66666667  0.66666667  0.26190476  1.0
  In  In54  1  0.11111111  0.11820933  0.21428571  1.0
  In  In55  1  0.11111111  0.45154267  0.21428571  1.0
  In  In56  1  0.11111111  0.78487600  0.21428571  1.0
  In  In57  1  0.44444444  0.11820933  0.21428571  1.0
  In  In58  1  0.44444444  0.45154267  0.21428571  1.0
  In  In59  1  0.44444444  0.78487600  0.21428571  1.0
  In  In60  1  0.77777778  0.11820933  0.21428571  1.0
  In  In61  1  0.77777778  0.45154267  0.21428571  1.0
  In  In62  1  0.77777778  0.78487600  0.21428571  1.0
  In  In63  1  0.22222222  0.21512400  0.16666667  1.0
  In  In64  1  0.22222222  0.54845733  0.16666667  1.0
  In  In65  1  0.22222222  0.88179067  0.16666667  1.0
  In  In66  1  0.55555556  0.21512400  0.16666667  1.0
  In  In67  1  0.55555556  0.54845733  0.16666667  1.0
  In  In68  1  0.55555556  0.88179067  0.16666667  1.0
  In  In69  1  0.88888889  0.21512400  0.16666667  1.0
  In  In70  1  0.88888889  0.54845733  0.16666667  1.0
  In  In71  1  0.88888889  0.88179067  0.16666667  1.0
  Ni  Ni72  1  0.11111111  0.28672667  0.21428571  1.0
  Ni  Ni73  1  0.11111111  0.62006000  0.21428571  1.0
  Ni  Ni74  1  0.11111111  0.95339333  0.21428571  1.0
  Ni  Ni75  1  0.44444444  0.28672667  0.21428571  1.0
  Ni  Ni76  1  0.44444444  0.62006000  0.21428571  1.0
  Ni  Ni77  1  0.44444444  0.95339333  0.21428571  1.0
  Ni  Ni78  1  0.77777778  0.28672667  0.21428571  1.0
  Ni  Ni79  1  0.77777778  0.62006000  0.21428571  1.0
  Ni  Ni80  1  0.77777778  0.95339333  0.21428571  1.0
  Ni  Ni81  1  0.22222222  0.04660667  0.16666667  1.0
  Ni  Ni82  1  0.22222222  0.37994000  0.16666667  1.0
  Ni  Ni83  1  0.22222222  0.71327333  0.16666667  1.0
  Ni  Ni84  1  0.55555556  0.04660667  0.16666667  1.0
  Ni  Ni85  1  0.55555556  0.37994000  0.16666667  1.0
  Ni  Ni86  1  0.55555556  0.71327333  0.16666667  1.0
  Ni  Ni87  1  0.88888889  0.04660667  0.16666667  1.0
  Ni  Ni88  1  0.88888889  0.37994000  0.16666667  1.0
  Ni  Ni89  1  0.88888889  0.71327333  0.16666667  1.0
  In  In90  1  0.00000000  0.00000000  0.40476190  1.0
  In  In91  1  0.00000000  0.33333333  0.40476190  1.0
  In  In92  1  0.00000000  0.66666667  0.40476190  1.0
  In  In93  1  0.33333333  0.00000000  0.40476190  1.0
  In  In94  1  0.33333333  0.33333333  0.40476190  1.0
  In  In95  1  0.33333333  0.66666667  0.40476190  1.0
  In  In96  1  0.66666667  0.00000000  0.40476190  1.0
  In  In97  1  0.66666667  0.33333333  0.40476190  1.0
  In  In98  1  0.66666667  0.66666667  0.40476190  1.0
  In  In99  1  0.11111111  0.11820933  0.35714286  1.0
  In  In100  1  0.11111111  0.45154267  0.35714286  1.0
  In  In101  1  0.11111111  0.78487600  0.35714286  1.0
  In  In102  1  0.44444444  0.11820933  0.35714286  1.0
  In  In103  1  0.44444444  0.45154267  0.35714286  1.0
  In  In104  1  0.44444444  0.78487600  0.35714286  1.0
  In  In105  1  0.77777778  0.11820933  0.35714286  1.0
  In  In106  1  0.77777778  0.45154267  0.35714286  1.0
  In  In107  1  0.77777778  0.78487600  0.35714286  1.0
  In  In108  1  0.22222222  0.21512400  0.30952381  1.0
  In  In109  1  0.22222222  0.54845733  0.30952381  1.0
  In  In110  1  0.22222222  0.88179067  0.30952381  1.0
  In  In111  1  0.55555556  0.21512400  0.30952381  1.0
  In  In112  1  0.55555556  0.54845733  0.30952381  1.0
  In  In113  1  0.55555556  0.88179067  0.30952381  1.0
  In  In114  1  0.88888889  0.21512400  0.30952381  1.0
  In  In115  1  0.88888889  0.54845733  0.30952381  1.0
  In  In116  1  0.88888889  0.88179067  0.30952381  1.0
  Ni  Ni117  1  0.11111111  0.28672667  0.35714286  1.0
  Ni  Ni118  1  0.11111111  0.62006000  0.35714286  1.0
  Ni  Ni119  1  0.11111111  0.95339333  0.35714286  1.0
  Ni  Ni120  1  0.44444444  0.28672667  0.35714286  1.0
  Ni  Ni121  1  0.44444444  0.62006000  0.35714286  1.0
  Ni  Ni122  1  0.44444444  0.95339333  0.35714286  1.0
  Ni  Ni123  1  0.77777778  0.28672667  0.35714286  1.0
  Ni  Ni124  1  0.77777778  0.62006000  0.35714286  1.0
  Ni  Ni125  1  0.77777778  0.95339333  0.35714286  1.0
  Ni  Ni126  1  0.22222222  0.04660667  0.30952381  1.0
  Ni  Ni127  1  0.22222222  0.37994000  0.30952381  1.0
  Ni  Ni128  1  0.22222222  0.71327333  0.30952381  1.0
  Ni  Ni129  1  0.55555556  0.04660667  0.30952381  1.0
  Ni  Ni130  1  0.55555556  0.37994000  0.30952381  1.0
  Ni  Ni131  1  0.55555556  0.71327333  0.30952381  1.0
  Ni  Ni132  1  0.88888889  0.04660667  0.30952381  1.0
  Ni  Ni133  1  0.88888889  0.37994000  0.30952381  1.0
  Ni  Ni134  1  0.88888889  0.71327333  0.30952381  1.0
