# generated using pymatgen
data_In3Ni
_symmetry_space_group_name_H-M   'P 1'
_cell_length_a   18.28508556
_cell_length_b   45.63820338
_cell_length_c   76.47877398
_cell_angle_alpha   31.37660944
_cell_angle_beta   90.00000000
_cell_angle_gamma   66.38098962
_symmetry_Int_Tables_number   1
_chemical_formula_structural   In3Ni
_chemical_formula_sum   'In324 Ni108'
_cell_volume   21221.47540143
_cell_formula_units_Z   108
loop_
 _symmetry_equiv_pos_site_id
 _symmetry_equiv_pos_as_xyz
  1  'x, y, z'
loop_
 _atom_site_type_symbol
 _atom_site_label
 _atom_site_symmetry_multiplicity
 _atom_site_fract_x
 _atom_site_fract_y
 _atom_site_fract_z
 _atom_site_occupancy
  In  In0  1  0.08333333  0.00000000  0.01785714  1.0
  In  In1  1  0.08333333  0.33333333  0.01785714  1.0
  In  In2  1  0.08333333  0.66666667  0.01785714  1.0
  In  In3  1  0.41666667  0.00000000  0.01785714  1.0
  In  In4  1  0.41666667  0.33333333  0.01785714  1.0
  In  In5  1  0.41666667  0.66666667  0.01785714  1.0
  In  In6  1  0.75000000  0.00000000  0.01785714  1.0
  In  In7  1  0.75000000  0.33333333  0.01785714  1.0
  In  In8  1  0.75000000  0.66666667  0.01785714  1.0
  In  In9  1  0.08333333  0.16666667  0.05357143  1.0
  In  In10  1  0.08333333  0.50000000  0.05357143  1.0
  In  In11  1  0.08333333  0.83333333  0.05357143  1.0
  In  In12  1  0.41666667  0.16666667  0.05357143  1.0
  In  In13  1  0.41666667  0.50000000  0.05357143  1.0
  In  In14  1  0.41666667  0.83333333  0.05357143  1.0
  In  In15  1  0.75000000  0.16666667  0.05357143  1.0
  In  In16  1  0.75000000  0.50000000  0.05357143  1.0
  In  In17  1  0.75000000  0.83333333  0.05357143  1.0
  In  In18  1  0.25000000  0.00000000  0.01785714  1.0
  In  In19  1  0.25000000  0.33333333  0.01785714  1.0
  In  In20  1  0.25000000  0.66666667  0.01785714  1.0
  In  In21  1  0.58333333  0.00000000  0.01785714  1.0
  In  In22  1  0.58333333  0.33333333  0.01785714  1.0
  In  In23  1  0.58333333  0.66666667  0.01785714  1.0
  In  In24  1  0.91666667  0.00000000  0.01785714  1.0
  In  In25  1  0.91666667  0.33333333  0.01785714  1.0
  In  In26  1  0.91666667  0.66666667  0.01785714  1.0
  In  In27  1  0.25000000  0.16666667  0.05357143  1.0
  In  In28  1  0.25000000  0.50000000  0.05357143  1.0
  In  In29  1  0.25000000  0.83333333  0.05357143  1.0
  In  In30  1  0.58333333  0.16666667  0.05357143  1.0
  In  In31  1  0.58333333  0.50000000  0.05357143  1.0
  In  In32  1  0.58333333  0.83333333  0.05357143  1.0
  In  In33  1  0.91666667  0.16666667  0.05357143  1.0
  In  In34  1  0.91666667  0.50000000  0.05357143  1.0
  In  In35  1  0.91666667  0.83333333  0.05357143  1.0
  In  In36  1  0.16666667  0.00000000  0.05357143  1.0
  In  In37  1  0.16666667  0.33333333  0.05357143  1.0
  In  In38  1  0.16666667  0.66666667  0.05357143  1.0
  In  In39  1  0.50000000  0.00000000  0.05357143  1.0
  In  In40  1  0.50000000  0.33333333  0.05357143  1.0
  In  In41  1  0.50000000  0.66666667  0.05357143  1.0
  In  In42  1  0.83333333  0.00000000  0.05357143  1.0
  In  In43  1  0.83333333  0.33333333  0.05357143  1.0
  In  In44  1  0.83333333  0.66666667  0.05357143  1.0
  In  In45  1  0.16666667  0.16666667  0.01785714  1.0
  In  In46  1  0.16666667  0.50000000  0.01785714  1.0
  In  In47  1  0.16666667  0.83333333  0.01785714  1.0
  In  In48  1  0.50000000  0.16666667  0.01785714  1.0
  In  In49  1  0.50000000  0.50000000  0.01785714  1.0
  In  In50  1  0.50000000  0.83333333  0.01785714  1.0
  In  In51  1  0.83333333  0.16666667  0.01785714  1.0
  In  In52  1  0.83333333  0.50000000  0.01785714  1.0
  In  In53  1  0.83333333  0.83333333  0.01785714  1.0
  Ni  Ni54  1  0.00000000  0.16666667  0.01785714  1.0
  Ni  Ni55  1  0.00000000  0.50000000  0.01785714  1.0
  Ni  Ni56  1  1.00000000  0.83333333  0.01785714  1.0
  Ni  Ni57  1  0.33333333  0.16666667  0.01785714  1.0
  Ni  Ni58  1  0.33333333  0.50000000  0.01785714  1.0
  Ni  Ni59  1  0.33333333  0.83333333  0.01785714  1.0
  Ni  Ni60  1  0.66666667  0.16666667  0.01785714  1.0
  Ni  Ni61  1  0.66666667  0.50000000  0.01785714  1.0
  Ni  Ni62  1  0.66666667  0.83333333  0.01785714  1.0
  Ni  Ni63  1  0.00000000  0.00000000  0.05357143  1.0
  Ni  Ni64  1  0.00000000  0.33333333  0.05357143  1.0
  Ni  Ni65  1  1.00000000  0.66666667  0.05357143  1.0
  Ni  Ni66  1  0.33333333  0.00000000  0.05357143  1.0
  Ni  Ni67  1  0.33333333  0.33333333  0.05357143  1.0
  Ni  Ni68  1  0.33333333  0.66666667  0.05357143  1.0
  Ni  Ni69  1  0.66666667  0.00000000  0.05357143  1.0
  Ni  Ni70  1  0.66666667  0.33333333  0.05357143  1.0
  Ni  Ni71  1  0.66666667  0.66666667  0.05357143  1.0
  In  In72  1  0.08333333  0.00000000  0.08928571  1.0
  In  In73  1  0.08333333  0.33333333  0.08928571  1.0
  In  In74  1  0.08333333  0.66666667  0.08928571  1.0
  In  In75  1  0.41666667  0.00000000  0.08928571  1.0
  In  In76  1  0.41666667  0.33333333  0.08928571  1.0
  In  In77  1  0.41666667  0.66666667  0.08928571  1.0
  In  In78  1  0.75000000  0.00000000  0.08928571  1.0
  In  In79  1  0.75000000  0.33333333  0.08928571  1.0
  In  In80  1  0.75000000  0.66666667  0.08928571  1.0
  In  In81  1  0.08333333  0.16666667  0.12500000  1.0
  In  In82  1  0.08333333  0.50000000  0.12500000  1.0
  In  In83  1  0.08333333  0.83333333  0.12500000  1.0
  In  In84  1  0.41666667  0.16666667  0.12500000  1.0
  In  In85  1  0.41666667  0.50000000  0.12500000  1.0
  In  In86  1  0.41666667  0.83333333  0.12500000  1.0
  In  In87  1  0.75000000  0.16666667  0.12500000  1.0
  In  In88  1  0.75000000  0.50000000  0.12500000  1.0
  In  In89  1  0.75000000  0.83333333  0.12500000  1.0
  In  In90  1  0.25000000  0.00000000  0.08928571  1.0
  In  In91  1  0.25000000  0.33333333  0.08928571  1.0
  In  In92  1  0.25000000  0.66666667  0.08928571  1.0
  In  In93  1  0.58333333  0.00000000  0.08928571  1.0
  In  In94  1  0.58333333  0.33333333  0.08928571  1.0
  In  In95  1  0.58333333  0.66666667  0.08928571  1.0
  In  In96  1  0.91666667  0.00000000  0.08928571  1.0
  In  In97  1  0.91666667  0.33333333  0.08928571  1.0
  In  In98  1  0.91666667  0.66666667  0.08928571  1.0
  In  In99  1  0.25000000  0.16666667  0.12500000  1.0
  In  In100  1  0.25000000  0.50000000  0.12500000  1.0
  In  In101  1  0.25000000  0.83333333  0.12500000  1.0
  In  In102  1  0.58333333  0.16666667  0.12500000  1.0
  In  In103  1  0.58333333  0.50000000  0.12500000  1.0
  In  In104  1  0.58333333  0.83333333  0.12500000  1.0
  In  In105  1  0.91666667  0.16666667  0.12500000  1.0
  In  In106  1  0.91666667  0.50000000  0.12500000  1.0
  In  In107  1  0.91666667  0.83333333  0.12500000  1.0
  In  In108  1  0.16666667  0.00000000  0.12500000  1.0
  In  In109  1  0.16666667  0.33333333  0.12500000  1.0
  In  In110  1  0.16666667  0.66666667  0.12500000  1.0
  In  In111  1  0.50000000  0.00000000  0.12500000  1.0
  In  In112  1  0.50000000  0.33333333  0.12500000  1.0
  In  In113  1  0.50000000  0.66666667  0.12500000  1.0
  In  In114  1  0.83333333  0.00000000  0.12500000  1.0
  In  In115  1  0.83333333  0.33333333  0.12500000  1.0
  In  In116  1  0.83333333  0.66666667  0.12500000  1.0
  In  In117  1  0.16666667  0.16666667  0.08928571  1.0
  In  In118  1  0.16666667  0.50000000  0.08928571  1.0
  In  In119  1  0.16666667  0.83333333  0.08928571  1.0
  In  In120  1  0.50000000  0.16666667  0.08928571  1.0
  In  In121  1  0.50000000  0.50000000  0.08928571  1.0
  In  In122  1  0.50000000  0.83333333  0.08928571  1.0
  In  In123  1  0.83333333  0.16666667  0.08928571  1.0
  In  In124  1  0.83333333  0.50000000  0.08928571  1.0
  In  In125  1  0.83333333  0.83333333  0.08928571  1.0
  Ni  Ni126  1  0.00000000  0.16666667  0.08928571  1.0
  Ni  Ni127  1  0.00000000  0.50000000  0.08928571  1.0
  Ni  Ni128  1  1.00000000  0.83333333  0.08928571  1.0
  Ni  Ni129  1  0.33333333  0.16666667  0.08928571  1.0
  Ni  Ni130  1  0.33333333  0.50000000  0.08928571  1.0
  Ni  Ni131  1  0.33333333  0.83333333  0.08928571  1.0
  Ni  Ni132  1  0.66666667  0.16666667  0.08928571  1.0
  Ni  Ni133  1  0.66666667  0.50000000  0.08928571  1.0
  Ni  Ni134  1  0.66666667  0.83333333  0.08928571  1.0
  Ni  Ni135  1  0.00000000  0.00000000  0.12500000  1.0
  Ni  Ni136  1  0.00000000  0.33333333  0.12500000  1.0
  Ni  Ni137  1  1.00000000  0.66666667  0.12500000  1.0
  Ni  Ni138  1  0.33333333  0.00000000  0.12500000  1.0
  Ni  Ni139  1  0.33333333  0.33333333  0.12500000  1.0
  Ni  Ni140  1  0.33333333  0.66666667  0.12500000  1.0
  Ni  Ni141  1  0.66666667  0.00000000  0.12500000  1.0
  Ni  Ni142  1  0.66666667  0.33333333  0.12500000  1.0
  Ni  Ni143  1  0.66666667  0.66666667  0.12500000  1.0
  In  In144  1  0.08333333  0.00000000  0.16071429  1.0
  In  In145  1  0.08333333  0.33333333  0.16071429  1.0
  In  In146  1  0.08333333  0.66666667  0.16071429  1.0
  In  In147  1  0.41666667  0.00000000  0.16071429  1.0
  In  In148  1  0.41666667  0.33333333  0.16071429  1.0
  In  In149  1  0.41666667  0.66666667  0.16071429  1.0
  In  In150  1  0.75000000  0.00000000  0.16071429  1.0
  In  In151  1  0.75000000  0.33333333  0.16071429  1.0
  In  In152  1  0.75000000  0.66666667  0.16071429  1.0
  In  In153  1  0.08333333  0.16666667  0.19642857  1.0
  In  In154  1  0.08333333  0.50000000  0.19642857  1.0
  In  In155  1  0.08333333  0.83333333  0.19642857  1.0
  In  In156  1  0.41666667  0.16666667  0.19642857  1.0
  In  In157  1  0.41666667  0.50000000  0.19642857  1.0
  In  In158  1  0.41666667  0.83333333  0.19642857  1.0
  In  In159  1  0.75000000  0.16666667  0.19642857  1.0
  In  In160  1  0.75000000  0.50000000  0.19642857  1.0
  In  In161  1  0.75000000  0.83333333  0.19642857  1.0
  In  In162  1  0.25000000  0.00000000  0.16071429  1.0
  In  In163  1  0.25000000  0.33333333  0.16071429  1.0
  In  In164  1  0.25000000  0.66666667  0.16071429  1.0
  In  In165  1  0.58333333  0.00000000  0.16071429  1.0
  In  In166  1  0.58333333  0.33333333  0.16071429  1.0
  In  In167  1  0.58333333  0.66666667  0.16071429  1.0
  In  In168  1  0.91666667  0.00000000  0.16071429  1.0
  In  In169  1  0.91666667  0.33333333  0.16071429  1.0
  In  In170  1  0.91666667  0.66666667  0.16071429  1.0
  In  In171  1  0.25000000  0.16666667  0.19642857  1.0
  In  In172  1  0.25000000  0.50000000  0.19642857  1.0
  In  In173  1  0.25000000  0.83333333  0.19642857  1.0
  In  In174  1  0.58333333  0.16666667  0.19642857  1.0
  In  In175  1  0.58333333  0.50000000  0.19642857  1.0
  In  In176  1  0.58333333  0.83333333  0.19642857  1.0
  In  In177  1  0.91666667  0.16666667  0.19642857  1.0
  In  In178  1  0.91666667  0.50000000  0.19642857  1.0
  In  In179  1  0.91666667  0.83333333  0.19642857  1.0
  In  In180  1  0.16666667  0.00000000  0.19642857  1.0
  In  In181  1  0.16666667  0.33333333  0.19642857  1.0
  In  In182  1  0.16666667  0.66666667  0.19642857  1.0
  In  In183  1  0.50000000  0.00000000  0.19642857  1.0
  In  In184  1  0.50000000  0.33333333  0.19642857  1.0
  In  In185  1  0.50000000  0.66666667  0.19642857  1.0
  In  In186  1  0.83333333  0.00000000  0.19642857  1.0
  In  In187  1  0.83333333  0.33333333  0.19642857  1.0
  In  In188  1  0.83333333  0.66666667  0.19642857  1.0
  In  In189  1  0.16666667  0.16666667  0.16071429  1.0
  In  In190  1  0.16666667  0.50000000  0.16071429  1.0
  In  In191  1  0.16666667  0.83333333  0.16071429  1.0
  In  In192  1  0.50000000  0.16666667  0.16071429  1.0
  In  In193  1  0.50000000  0.50000000  0.16071429  1.0
  In  In194  1  0.50000000  0.83333333  0.16071429  1.0
  In  In195  1  0.83333333  0.16666667  0.16071429  1.0
  In  In196  1  0.83333333  0.50000000  0.16071429  1.0
  In  In197  1  0.83333333  0.83333333  0.16071429  1.0
  Ni  Ni198  1  0.00000000  0.16666667  0.16071429  1.0
  Ni  Ni199  1  0.00000000  0.50000000  0.16071429  1.0
  Ni  Ni200  1  1.00000000  0.83333333  0.16071429  1.0
  Ni  Ni201  1  0.33333333  0.16666667  0.16071429  1.0
  Ni  Ni202  1  0.33333333  0.50000000  0.16071429  1.0
  Ni  Ni203  1  0.33333333  0.83333333  0.16071429  1.0
  Ni  Ni204  1  0.66666667  0.16666667  0.16071429  1.0
  Ni  Ni205  1  0.66666667  0.50000000  0.16071429  1.0
  Ni  Ni206  1  0.66666667  0.83333333  0.16071429  1.0
  Ni  Ni207  1  0.00000000  0.00000000  0.19642857  1.0
  Ni  Ni208  1  0.00000000  0.33333333  0.19642857  1.0
  Ni  Ni209  1  1.00000000  0.66666667  0.19642857  1.0
  Ni  Ni210  1  0.33333333  0.00000000  0.19642857  1.0
  Ni  Ni211  1  0.33333333  0.33333333  0.19642857  1.0
  Ni  Ni212  1  0.33333333  0.66666667  0.19642857  1.0
  Ni  Ni213  1  0.66666667  0.00000000  0.19642857  1.0
  Ni  Ni214  1  0.66666667  0.33333333  0.19642857  1.0
  Ni  Ni215  1  0.66666667  0.66666667  0.19642857  1.0
  In  In216  1  0.08333333  0.00000000  0.23214286  1.0
  In  In217  1  0.08333333  0.33333333  0.23214286  1.0
  In  In218  1  0.08333333  0.66666667  0.23214286  1.0
  In  In219  1  0.41666667  0.00000000  0.23214286  1.0
  In  In220  1  0.41666667  0.33333333  0.23214286  1.0
  In  In221  1  0.41666667  0.66666667  0.23214286  1.0
  In  In222  1  0.75000000  0.00000000  0.23214286  1.0
  In  In223  1  0.75000000  0.33333333  0.23214286  1.0
  In  In224  1  0.75000000  0.66666667  0.23214286  1.0
  In  In225  1  0.08333333  0.16666667  0.26785714  1.0
  In  In226  1  0.08333333  0.50000000  0.26785714  1.0
  In  In227  1  0.08333333  0.83333333  0.26785714  1.0
  In  In228  1  0.41666667  0.16666667  0.26785714  1.0
  In  In229  1  0.41666667  0.50000000  0.26785714  1.0
  In  In230  1  0.41666667  0.83333333  0.26785714  1.0
  In  In231  1  0.75000000  0.16666667  0.26785714  1.0
  In  In232  1  0.75000000  0.50000000  0.26785714  1.0
  In  In233  1  0.75000000  0.83333333  0.26785714  1.0
  In  In234  1  0.25000000  0.00000000  0.23214286  1.0
  In  In235  1  0.25000000  0.33333333  0.23214286  1.0
  In  In236  1  0.25000000  0.66666667  0.23214286  1.0
  In  In237  1  0.58333333  0.00000000  0.23214286  1.0
  In  In238  1  0.58333333  0.33333333  0.23214286  1.0
  In  In239  1  0.58333333  0.66666667  0.23214286  1.0
  In  In240  1  0.91666667  0.00000000  0.23214286  1.0
  In  In241  1  0.91666667  0.33333333  0.23214286  1.0
  In  In242  1  0.91666667  0.66666667  0.23214286  1.0
  In  In243  1  0.25000000  0.16666667  0.26785714  1.0
  In  In244  1  0.25000000  0.50000000  0.26785714  1.0
  In  In245  1  0.25000000  0.83333333  0.26785714  1.0
  In  In246  1  0.58333333  0.16666667  0.26785714  1.0
  In  In247  1  0.58333333  0.50000000  0.26785714  1.0
  In  In248  1  0.58333333  0.83333333  0.26785714  1.0
  In  In249  1  0.91666667  0.16666667  0.26785714  1.0
  In  In250  1  0.91666667  0.50000000  0.26785714  1.0
  In  In251  1  0.91666667  0.83333333  0.26785714  1.0
  In  In252  1  0.16666667  0.00000000  0.26785714  1.0
  In  In253  1  0.16666667  0.33333333  0.26785714  1.0
  In  In254  1  0.16666667  0.66666667  0.26785714  1.0
  In  In255  1  0.50000000  0.00000000  0.26785714  1.0
  In  In256  1  0.50000000  0.33333333  0.26785714  1.0
  In  In257  1  0.50000000  0.66666667  0.26785714  1.0
  In  In258  1  0.83333333  0.00000000  0.26785714  1.0
  In  In259  1  0.83333333  0.33333333  0.26785714  1.0
  In  In260  1  0.83333333  0.66666667  0.26785714  1.0
  In  In261  1  0.16666667  0.16666667  0.23214286  1.0
  In  In262  1  0.16666667  0.50000000  0.23214286  1.0
  In  In263  1  0.16666667  0.83333333  0.23214286  1.0
  In  In264  1  0.50000000  0.16666667  0.23214286  1.0
  In  In265  1  0.50000000  0.50000000  0.23214286  1.0
  In  In266  1  0.50000000  0.83333333  0.23214286  1.0
  In  In267  1  0.83333333  0.16666667  0.23214286  1.0
  In  In268  1  0.83333333  0.50000000  0.23214286  1.0
  In  In269  1  0.83333333  0.83333333  0.23214286  1.0
  Ni  Ni270  1  0.00000000  0.16666667  0.23214286  1.0
  Ni  Ni271  1  0.00000000  0.50000000  0.23214286  1.0
  Ni  Ni272  1  1.00000000  0.83333333  0.23214286  1.0
  Ni  Ni273  1  0.33333333  0.16666667  0.23214286  1.0
  Ni  Ni274  1  0.33333333  0.50000000  0.23214286  1.0
  Ni  Ni275  1  0.33333333  0.83333333  0.23214286  1.0
  Ni  Ni276  1  0.66666667  0.16666667  0.23214286  1.0
  Ni  Ni277  1  0.66666667  0.50000000  0.23214286  1.0
  Ni  Ni278  1  0.66666667  0.83333333  0.23214286  1.0
  Ni  Ni279  1  0.00000000  0.00000000  0.26785714  1.0
  Ni  Ni280  1  0.00000000  0.33333333  0.26785714  1.0
  Ni  Ni281  1  1.00000000  0.66666667  0.26785714  1.0
  Ni  Ni282  1  0.33333333  0.00000000  0.26785714  1.0
  Ni  Ni283  1  0.33333333  0.33333333  0.26785714  1.0
  Ni  Ni284  1  0.33333333  0.66666667  0.26785714  1.0
  Ni  Ni285  1  0.66666667  0.00000000  0.26785714  1.0
  Ni  Ni286  1  0.66666667  0.33333333  0.26785714  1.0
  Ni  Ni287  1  0.66666667  0.66666667  0.26785714  1.0
  In  In288  1  0.08333333  0.00000000  0.30357143  1.0
  In  In289  1  0.08333333  0.33333333  0.30357143  1.0
  In  In290  1  0.08333333  0.66666667  0.30357143  1.0
  In  In291  1  0.41666667  0.00000000  0.30357143  1.0
  In  In292  1  0.41666667  0.33333333  0.30357143  1.0
  In  In293  1  0.41666667  0.66666667  0.30357143  1.0
  In  In294  1  0.75000000  0.00000000  0.30357143  1.0
  In  In295  1  0.75000000  0.33333333  0.30357143  1.0
  In  In296  1  0.75000000  0.66666667  0.30357143  1.0
  In  In297  1  0.08333333  0.16666667  0.33928571  1.0
  In  In298  1  0.08333333  0.50000000  0.33928571  1.0
  In  In299  1  0.08333333  0.83333333  0.33928571  1.0
  In  In300  1  0.41666667  0.16666667  0.33928571  1.0
  In  In301  1  0.41666667  0.50000000  0.33928571  1.0
  In  In302  1  0.41666667  0.83333333  0.33928571  1.0
  In  In303  1  0.75000000  0.16666667  0.33928571  1.0
  In  In304  1  0.75000000  0.50000000  0.33928571  1.0
  In  In305  1  0.75000000  0.83333333  0.33928571  1.0
  In  In306  1  0.25000000  0.00000000  0.30357143  1.0
  In  In307  1  0.25000000  0.33333333  0.30357143  1.0
  In  In308  1  0.25000000  0.66666667  0.30357143  1.0
  In  In309  1  0.58333333  0.00000000  0.30357143  1.0
  In  In310  1  0.58333333  0.33333333  0.30357143  1.0
  In  In311  1  0.58333333  0.66666667  0.30357143  1.0
  In  In312  1  0.91666667  0.00000000  0.30357143  1.0
  In  In313  1  0.91666667  0.33333333  0.30357143  1.0
  In  In314  1  0.91666667  0.66666667  0.30357143  1.0
  In  In315  1  0.25000000  0.16666667  0.33928571  1.0
  In  In316  1  0.25000000  0.50000000  0.33928571  1.0
  In  In317  1  0.25000000  0.83333333  0.33928571  1.0
  In  In318  1  0.58333333  0.16666667  0.33928571  1.0
  In  In319  1  0.58333333  0.50000000  0.33928571  1.0
  In  In320  1  0.58333333  0.83333333  0.33928571  1.0
  In  In321  1  0.91666667  0.16666667  0.33928571  1.0
  In  In322  1  0.91666667  0.50000000  0.33928571  1.0
  In  In323  1  0.91666667  0.83333333  0.33928571  1.0
  In  In324  1  0.16666667  0.00000000  0.33928571  1.0
  In  In325  1  0.16666667  0.33333333  0.33928571  1.0
  In  In326  1  0.16666667  0.66666667  0.33928571  1.0
  In  In327  1  0.50000000  0.00000000  0.33928571  1.0
  In  In328  1  0.50000000  0.33333333  0.33928571  1.0
  In  In329  1  0.50000000  0.66666667  0.33928571  1.0
  In  In330  1  0.83333333  0.00000000  0.33928571  1.0
  In  In331  1  0.83333333  0.33333333  0.33928571  1.0
  In  In332  1  0.83333333  0.66666667  0.33928571  1.0
  In  In333  1  0.16666667  0.16666667  0.30357143  1.0
  In  In334  1  0.16666667  0.50000000  0.30357143  1.0
  In  In335  1  0.16666667  0.83333333  0.30357143  1.0
  In  In336  1  0.50000000  0.16666667  0.30357143  1.0
  In  In337  1  0.50000000  0.50000000  0.30357143  1.0
  In  In338  1  0.50000000  0.83333333  0.30357143  1.0
  In  In339  1  0.83333333  0.16666667  0.30357143  1.0
  In  In340  1  0.83333333  0.50000000  0.30357143  1.0
  In  In341  1  0.83333333  0.83333333  0.30357143  1.0
  Ni  Ni342  1  0.00000000  0.16666667  0.30357143  1.0
  Ni  Ni343  1  0.00000000  0.50000000  0.30357143  1.0
  Ni  Ni344  1  1.00000000  0.83333333  0.30357143  1.0
  Ni  Ni345  1  0.33333333  0.16666667  0.30357143  1.0
  Ni  Ni346  1  0.33333333  0.50000000  0.30357143  1.0
  Ni  Ni347  1  0.33333333  0.83333333  0.30357143  1.0
  Ni  Ni348  1  0.66666667  0.16666667  0.30357143  1.0
  Ni  Ni349  1  0.66666667  0.50000000  0.30357143  1.0
  Ni  Ni350  1  0.66666667  0.83333333  0.30357143  1.0
  Ni  Ni351  1  0.00000000  0.00000000  0.33928571  1.0
  Ni  Ni352  1  0.00000000  0.33333333  0.33928571  1.0
  Ni  Ni353  1  1.00000000  0.66666667  0.33928571  1.0
  Ni  Ni354  1  0.33333333  0.00000000  0.33928571  1.0
  Ni  Ni355  1  0.33333333  0.33333333  0.33928571  1.0
  Ni  Ni356  1  0.33333333  0.66666667  0.33928571  1.0
  Ni  Ni357  1  0.66666667  0.00000000  0.33928571  1.0
  Ni  Ni358  1  0.66666667  0.33333333  0.33928571  1.0
  Ni  Ni359  1  0.66666667  0.66666667  0.33928571  1.0
  In  In360  1  0.08333333  0.00000000  0.37500000  1.0
  In  In361  1  0.08333333  0.33333333  0.37500000  1.0
  In  In362  1  0.08333333  0.66666667  0.37500000  1.0
  In  In363  1  0.41666667  0.00000000  0.37500000  1.0
  In  In364  1  0.41666667  0.33333333  0.37500000  1.0
  In  In365  1  0.41666667  0.66666667  0.37500000  1.0
  In  In366  1  0.75000000  0.00000000  0.37500000  1.0
  In  In367  1  0.75000000  0.33333333  0.37500000  1.0
  In  In368  1  0.75000000  0.66666667  0.37500000  1.0
  In  In369  1  0.08333333  0.16666667  0.41071429  1.0
  In  In370  1  0.08333333  0.50000000  0.41071429  1.0
  In  In371  1  0.08333333  0.83333333  0.41071429  1.0
  In  In372  1  0.41666667  0.16666667  0.41071429  1.0
  In  In373  1  0.41666667  0.50000000  0.41071429  1.0
  In  In374  1  0.41666667  0.83333333  0.41071429  1.0
  In  In375  1  0.75000000  0.16666667  0.41071429  1.0
  In  In376  1  0.75000000  0.50000000  0.41071429  1.0
  In  In377  1  0.75000000  0.83333333  0.41071429  1.0
  In  In378  1  0.25000000  0.00000000  0.37500000  1.0
  In  In379  1  0.25000000  0.33333333  0.37500000  1.0
  In  In380  1  0.25000000  0.66666667  0.37500000  1.0
  In  In381  1  0.58333333  0.00000000  0.37500000  1.0
  In  In382  1  0.58333333  0.33333333  0.37500000  1.0
  In  In383  1  0.58333333  0.66666667  0.37500000  1.0
  In  In384  1  0.91666667  0.00000000  0.37500000  1.0
  In  In385  1  0.91666667  0.33333333  0.37500000  1.0
  In  In386  1  0.91666667  0.66666667  0.37500000  1.0
  In  In387  1  0.25000000  0.16666667  0.41071429  1.0
  In  In388  1  0.25000000  0.50000000  0.41071429  1.0
  In  In389  1  0.25000000  0.83333333  0.41071429  1.0
  In  In390  1  0.58333333  0.16666667  0.41071429  1.0
  In  In391  1  0.58333333  0.50000000  0.41071429  1.0
  In  In392  1  0.58333333  0.83333333  0.41071429  1.0
  In  In393  1  0.91666667  0.16666667  0.41071429  1.0
  In  In394  1  0.91666667  0.50000000  0.41071429  1.0
  In  In395  1  0.91666667  0.83333333  0.41071429  1.0
  In  In396  1  0.16666667  0.00000000  0.41071429  1.0
  In  In397  1  0.16666667  0.33333333  0.41071429  1.0
  In  In398  1  0.16666667  0.66666667  0.41071429  1.0
  In  In399  1  0.50000000  0.00000000  0.41071429  1.0
  In  In400  1  0.50000000  0.33333333  0.41071429  1.0
  In  In401  1  0.50000000  0.66666667  0.41071429  1.0
  In  In402  1  0.83333333  0.00000000  0.41071429  1.0
  In  In403  1  0.83333333  0.33333333  0.41071429  1.0
  In  In404  1  0.83333333  0.66666667  0.41071429  1.0
  In  In405  1  0.16666667  0.16666667  0.37500000  1.0
  In  In406  1  0.16666667  0.50000000  0.37500000  1.0
  In  In407  1  0.16666667  0.83333333  0.37500000  1.0
  In  In408  1  0.50000000  0.16666667  0.37500000  1.0
  In  In409  1  0.50000000  0.50000000  0.37500000  1.0
  In  In410  1  0.50000000  0.83333333  0.37500000  1.0
  In  In411  1  0.83333333  0.16666667  0.37500000  1.0
  In  In412  1  0.83333333  0.50000000  0.37500000  1.0
  In  In413  1  0.83333333  0.83333333  0.37500000  1.0
  Ni  Ni414  1  0.00000000  0.16666667  0.37500000  1.0
  Ni  Ni415  1  0.00000000  0.50000000  0.37500000  1.0
  Ni  Ni416  1  1.00000000  0.83333333  0.37500000  1.0
  Ni  Ni417  1  0.33333333  0.16666667  0.37500000  1.0
  Ni  Ni418  1  0.33333333  0.50000000  0.37500000  1.0
  Ni  Ni419  1  0.33333333  0.83333333  0.37500000  1.0
  Ni  Ni420  1  0.66666667  0.16666667  0.37500000  1.0
  Ni  Ni421  1  0.66666667  0.50000000  0.37500000  1.0
  Ni  Ni422  1  0.66666667  0.83333333  0.37500000  1.0
  Ni  Ni423  1  0.00000000  0.00000000  0.41071429  1.0
  Ni  Ni424  1  0.00000000  0.33333333  0.41071429  1.0
  Ni  Ni425  1  1.00000000  0.66666667  0.41071429  1.0
  Ni  Ni426  1  0.33333333  0.00000000  0.41071429  1.0
  Ni  Ni427  1  0.33333333  0.33333333  0.41071429  1.0
  Ni  Ni428  1  0.33333333  0.66666667  0.41071429  1.0
  Ni  Ni429  1  0.66666667  0.00000000  0.41071429  1.0
  Ni  Ni430  1  0.66666667  0.33333333  0.41071429  1.0
  Ni  Ni431  1  0.66666667  0.66666667  0.41071429  1.0
