# generated using pymatgen
data_In3Ni
_symmetry_space_group_name_H-M   'P 1'
_cell_length_a   12.92950799
_cell_length_b   24.55445003
_cell_length_c   34.70345017
_cell_angle_alpha   93.22575549
_cell_angle_beta   90.00000000
_cell_angle_gamma   105.26491637
_symmetry_Int_Tables_number   1
_chemical_formula_structural   In3Ni
_chemical_formula_sum   'In162 Ni54'
_cell_volume   10610.73770071
_cell_formula_units_Z   54
loop_
 _symmetry_equiv_pos_site_id
 _symmetry_equiv_pos_as_xyz
  1  'x, y, z'
loop_
 _atom_site_type_symbol
 _atom_site_label
 _atom_site_symmetry_multiplicity
 _atom_site_fract_x
 _atom_site_fract_y
 _atom_site_fract_z
 _atom_site_occupancy
  In  In0  1  0.13392857  0.24702381  0.11607143  1.0
  In  In1  1  0.13392857  0.58035714  0.11607143  1.0
  In  In2  1  0.13392857  0.91369048  0.11607143  1.0
  In  In3  1  0.46726190  0.24702381  0.11607143  1.0
  In  In4  1  0.46726190  0.58035714  0.11607143  1.0
  In  In5  1  0.46726190  0.91369048  0.11607143  1.0
  In  In6  1  0.80059524  0.24702381  0.11607143  1.0
  In  In7  1  0.80059524  0.58035714  0.11607143  1.0
  In  In8  1  0.80059524  0.91369048  0.11607143  1.0
  In  In9  1  0.20535714  0.05654762  0.04464286  1.0
  In  In10  1  0.20535714  0.38988095  0.04464286  1.0
  In  In11  1  0.20535714  0.72321429  0.04464286  1.0
  In  In12  1  0.53869048  0.05654762  0.04464286  1.0
  In  In13  1  0.53869048  0.38988095  0.04464286  1.0
  In  In14  1  0.53869048  0.72321429  0.04464286  1.0
  In  In15  1  0.87202381  0.05654762  0.04464286  1.0
  In  In16  1  0.87202381  0.38988095  0.04464286  1.0
  In  In17  1  0.87202381  0.72321429  0.04464286  1.0
  In  In18  1  0.07440476  0.12797619  0.00892857  1.0
  In  In19  1  0.07440476  0.46130952  0.00892857  1.0
  In  In20  1  0.07440476  0.79464286  0.00892857  1.0
  In  In21  1  0.40773810  0.12797619  0.00892857  1.0
  In  In22  1  0.40773810  0.46130952  0.00892857  1.0
  In  In23  1  0.40773810  0.79464286  0.00892857  1.0
  In  In24  1  0.74107143  0.12797619  0.00892857  1.0
  In  In25  1  0.74107143  0.46130952  0.00892857  1.0
  In  In26  1  0.74107143  0.79464286  0.00892857  1.0
  In  In27  1  0.00297619  0.31845238  0.08035714  1.0
  In  In28  1  0.00297619  0.65178571  0.08035714  1.0
  In  In29  1  0.00297619  0.98511905  0.08035714  1.0
  In  In30  1  0.33630952  0.31845238  0.08035714  1.0
  In  In31  1  0.33630952  0.65178571  0.08035714  1.0
  In  In32  1  0.33630952  0.98511905  0.08035714  1.0
  In  In33  1  0.66964286  0.31845238  0.08035714  1.0
  In  In34  1  0.66964286  0.65178571  0.08035714  1.0
  In  In35  1  0.66964286  0.98511905  0.08035714  1.0
  In  In36  1  0.06845238  0.11607143  0.09821429  1.0
  In  In37  1  0.06845238  0.44940476  0.09821429  1.0
  In  In38  1  0.06845238  0.78273810  0.09821429  1.0
  In  In39  1  0.40178571  0.11607143  0.09821429  1.0
  In  In40  1  0.40178571  0.44940476  0.09821429  1.0
  In  In41  1  0.40178571  0.78273810  0.09821429  1.0
  In  In42  1  0.73511905  0.11607143  0.09821429  1.0
  In  In43  1  0.73511905  0.44940476  0.09821429  1.0
  In  In44  1  0.73511905  0.78273810  0.09821429  1.0
  In  In45  1  0.13988095  0.25892857  0.02678571  1.0
  In  In46  1  0.13988095  0.59226190  0.02678571  1.0
  In  In47  1  0.13988095  0.92559524  0.02678571  1.0
  In  In48  1  0.47321429  0.25892857  0.02678571  1.0
  In  In49  1  0.47321429  0.59226190  0.02678571  1.0
  In  In50  1  0.47321429  0.92559524  0.02678571  1.0
  In  In51  1  0.80654762  0.25892857  0.02678571  1.0
  In  In52  1  0.80654762  0.59226190  0.02678571  1.0
  In  In53  1  0.80654762  0.92559524  0.02678571  1.0
  In  In54  1  0.32440476  0.29464286  0.25892857  1.0
  In  In55  1  0.32440476  0.62797619  0.25892857  1.0
  In  In56  1  0.32440476  0.96130952  0.25892857  1.0
  In  In57  1  0.65773810  0.29464286  0.25892857  1.0
  In  In58  1  0.65773810  0.62797619  0.25892857  1.0
  In  In59  1  0.65773810  0.96130952  0.25892857  1.0
  In  In60  1  0.99107143  0.29464286  0.25892857  1.0
  In  In61  1  0.99107143  0.62797619  0.25892857  1.0
  In  In62  1  0.99107143  0.96130952  0.25892857  1.0
  In  In63  1  0.06250000  0.10416667  0.18750000  1.0
  In  In64  1  0.06250000  0.43750000  0.18750000  1.0
  In  In65  1  0.06250000  0.77083333  0.18750000  1.0
  In  In66  1  0.39583333  0.10416667  0.18750000  1.0
  In  In67  1  0.39583333  0.43750000  0.18750000  1.0
  In  In68  1  0.39583333  0.77083333  0.18750000  1.0
  In  In69  1  0.72916667  0.10416667  0.18750000  1.0
  In  In70  1  0.72916667  0.43750000  0.18750000  1.0
  In  In71  1  0.72916667  0.77083333  0.18750000  1.0
  In  In72  1  0.26488095  0.17559524  0.15178571  1.0
  In  In73  1  0.26488095  0.50892857  0.15178571  1.0
  In  In74  1  0.26488095  0.84226190  0.15178571  1.0
  In  In75  1  0.59821429  0.17559524  0.15178571  1.0
  In  In76  1  0.59821429  0.50892857  0.15178571  1.0
  In  In77  1  0.59821429  0.84226190  0.15178571  1.0
  In  In78  1  0.93154762  0.17559524  0.15178571  1.0
  In  In79  1  0.93154762  0.50892857  0.15178571  1.0
  In  In80  1  0.93154762  0.84226190  0.15178571  1.0
  In  In81  1  0.19345238  0.03273810  0.22321429  1.0
  In  In82  1  0.19345238  0.36607143  0.22321429  1.0
  In  In83  1  0.19345238  0.69940476  0.22321429  1.0
  In  In84  1  0.52678571  0.03273810  0.22321429  1.0
  In  In85  1  0.52678571  0.36607143  0.22321429  1.0
  In  In86  1  0.52678571  0.69940476  0.22321429  1.0
  In  In87  1  0.86011905  0.03273810  0.22321429  1.0
  In  In88  1  0.86011905  0.36607143  0.22321429  1.0
  In  In89  1  0.86011905  0.69940476  0.22321429  1.0
  In  In90  1  0.25892857  0.16369048  0.24107143  1.0
  In  In91  1  0.25892857  0.49702381  0.24107143  1.0
  In  In92  1  0.25892857  0.83035714  0.24107143  1.0
  In  In93  1  0.59226190  0.16369048  0.24107143  1.0
  In  In94  1  0.59226190  0.49702381  0.24107143  1.0
  In  In95  1  0.59226190  0.83035714  0.24107143  1.0
  In  In96  1  0.92559524  0.16369048  0.24107143  1.0
  In  In97  1  0.92559524  0.49702381  0.24107143  1.0
  In  In98  1  0.92559524  0.83035714  0.24107143  1.0
  In  In99  1  0.33035714  0.30654762  0.16964286  1.0
  In  In100  1  0.33035714  0.63988095  0.16964286  1.0
  In  In101  1  0.33035714  0.97321429  0.16964286  1.0
  In  In102  1  0.66369048  0.30654762  0.16964286  1.0
  In  In103  1  0.66369048  0.63988095  0.16964286  1.0
  In  In104  1  0.66369048  0.97321429  0.16964286  1.0
  In  In105  1  0.99702381  0.30654762  0.16964286  1.0
  In  In106  1  0.99702381  0.63988095  0.16964286  1.0
  In  In107  1  0.99702381  0.97321429  0.16964286  1.0
  In  In108  1  0.18154762  0.00892857  0.40178571  1.0
  In  In109  1  0.18154762  0.34226190  0.40178571  1.0
  In  In110  1  0.18154762  0.67559524  0.40178571  1.0
  In  In111  1  0.51488095  0.00892857  0.40178571  1.0
  In  In112  1  0.51488095  0.34226190  0.40178571  1.0
  In  In113  1  0.51488095  0.67559524  0.40178571  1.0
  In  In114  1  0.84821429  0.00892857  0.40178571  1.0
  In  In115  1  0.84821429  0.34226190  0.40178571  1.0
  In  In116  1  0.84821429  0.67559524  0.40178571  1.0
  In  In117  1  0.25297619  0.15178571  0.33035714  1.0
  In  In118  1  0.25297619  0.48511905  0.33035714  1.0
  In  In119  1  0.25297619  0.81845238  0.33035714  1.0
  In  In120  1  0.58630952  0.15178571  0.33035714  1.0
  In  In121  1  0.58630952  0.48511905  0.33035714  1.0
  In  In122  1  0.58630952  0.81845238  0.33035714  1.0
  In  In123  1  0.91964286  0.15178571  0.33035714  1.0
  In  In124  1  0.91964286  0.48511905  0.33035714  1.0
  In  In125  1  0.91964286  0.81845238  0.33035714  1.0
  In  In126  1  0.12202381  0.22321429  0.29464286  1.0
  In  In127  1  0.12202381  0.55654762  0.29464286  1.0
  In  In128  1  0.12202381  0.88988095  0.29464286  1.0
  In  In129  1  0.45535714  0.22321429  0.29464286  1.0
  In  In130  1  0.45535714  0.55654762  0.29464286  1.0
  In  In131  1  0.45535714  0.88988095  0.29464286  1.0
  In  In132  1  0.78869048  0.22321429  0.29464286  1.0
  In  In133  1  0.78869048  0.55654762  0.29464286  1.0
  In  In134  1  0.78869048  0.88988095  0.29464286  1.0
  In  In135  1  0.05059524  0.08035714  0.36607143  1.0
  In  In136  1  0.05059524  0.41369048  0.36607143  1.0
  In  In137  1  0.05059524  0.74702381  0.36607143  1.0
  In  In138  1  0.38392857  0.08035714  0.36607143  1.0
  In  In139  1  0.38392857  0.41369048  0.36607143  1.0
  In  In140  1  0.38392857  0.74702381  0.36607143  1.0
  In  In141  1  0.71726190  0.08035714  0.36607143  1.0
  In  In142  1  0.71726190  0.41369048  0.36607143  1.0
  In  In143  1  0.71726190  0.74702381  0.36607143  1.0
  In  In144  1  0.11607143  0.21130952  0.38392857  1.0
  In  In145  1  0.11607143  0.54464286  0.38392857  1.0
  In  In146  1  0.11607143  0.87797619  0.38392857  1.0
  In  In147  1  0.44940476  0.21130952  0.38392857  1.0
  In  In148  1  0.44940476  0.54464286  0.38392857  1.0
  In  In149  1  0.44940476  0.87797619  0.38392857  1.0
  In  In150  1  0.78273810  0.21130952  0.38392857  1.0
  In  In151  1  0.78273810  0.54464286  0.38392857  1.0
  In  In152  1  0.78273810  0.87797619  0.38392857  1.0
  In  In153  1  0.18750000  0.02083333  0.31250000  1.0
  In  In154  1  0.18750000  0.35416667  0.31250000  1.0
  In  In155  1  0.18750000  0.68750000  0.31250000  1.0
  In  In156  1  0.52083333  0.02083333  0.31250000  1.0
  In  In157  1  0.52083333  0.35416667  0.31250000  1.0
  In  In158  1  0.52083333  0.68750000  0.31250000  1.0
  In  In159  1  0.85416667  0.02083333  0.31250000  1.0
  In  In160  1  0.85416667  0.35416667  0.31250000  1.0
  In  In161  1  0.85416667  0.68750000  0.31250000  1.0
  Ni  Ni162  1  0.27083333  0.18750000  0.06250000  1.0
  Ni  Ni163  1  0.27083333  0.52083333  0.06250000  1.0
  Ni  Ni164  1  0.27083333  0.85416667  0.06250000  1.0
  Ni  Ni165  1  0.60416667  0.18750000  0.06250000  1.0
  Ni  Ni166  1  0.60416667  0.52083333  0.06250000  1.0
  Ni  Ni167  1  0.60416667  0.85416667  0.06250000  1.0
  Ni  Ni168  1  0.93750000  0.18750000  0.06250000  1.0
  Ni  Ni169  1  0.93750000  0.52083333  0.06250000  1.0
  Ni  Ni170  1  0.93750000  0.85416667  0.06250000  1.0
  Ni  Ni171  1  0.19940476  0.04464286  0.13392857  1.0
  Ni  Ni172  1  0.19940476  0.37797619  0.13392857  1.0
  Ni  Ni173  1  0.19940476  0.71130952  0.13392857  1.0
  Ni  Ni174  1  0.53273810  0.04464286  0.13392857  1.0
  Ni  Ni175  1  0.53273810  0.37797619  0.13392857  1.0
  Ni  Ni176  1  0.53273810  0.71130952  0.13392857  1.0
  Ni  Ni177  1  0.86607143  0.04464286  0.13392857  1.0
  Ni  Ni178  1  0.86607143  0.37797619  0.13392857  1.0
  Ni  Ni179  1  0.86607143  0.71130952  0.13392857  1.0
  Ni  Ni180  1  0.12797619  0.23511905  0.20535714  1.0
  Ni  Ni181  1  0.12797619  0.56845238  0.20535714  1.0
  Ni  Ni182  1  0.12797619  0.90178571  0.20535714  1.0
  Ni  Ni183  1  0.46130952  0.23511905  0.20535714  1.0
  Ni  Ni184  1  0.46130952  0.56845238  0.20535714  1.0
  Ni  Ni185  1  0.46130952  0.90178571  0.20535714  1.0
  Ni  Ni186  1  0.79464286  0.23511905  0.20535714  1.0
  Ni  Ni187  1  0.79464286  0.56845238  0.20535714  1.0
  Ni  Ni188  1  0.79464286  0.90178571  0.20535714  1.0
  Ni  Ni189  1  0.05654762  0.09226190  0.27678571  1.0
  Ni  Ni190  1  0.05654762  0.42559524  0.27678571  1.0
  Ni  Ni191  1  0.05654762  0.75892857  0.27678571  1.0
  Ni  Ni192  1  0.38988095  0.09226190  0.27678571  1.0
  Ni  Ni193  1  0.38988095  0.42559524  0.27678571  1.0
  Ni  Ni194  1  0.38988095  0.75892857  0.27678571  1.0
  Ni  Ni195  1  0.72321429  0.09226190  0.27678571  1.0
  Ni  Ni196  1  0.72321429  0.42559524  0.27678571  1.0
  Ni  Ni197  1  0.72321429  0.75892857  0.27678571  1.0
  Ni  Ni198  1  0.31845238  0.28273810  0.34821429  1.0
  Ni  Ni199  1  0.31845238  0.61607143  0.34821429  1.0
  Ni  Ni200  1  0.31845238  0.94940476  0.34821429  1.0
  Ni  Ni201  1  0.65178571  0.28273810  0.34821429  1.0
  Ni  Ni202  1  0.65178571  0.61607143  0.34821429  1.0
  Ni  Ni203  1  0.65178571  0.94940476  0.34821429  1.0
  Ni  Ni204  1  0.98511905  0.28273810  0.34821429  1.0
  Ni  Ni205  1  0.98511905  0.61607143  0.34821429  1.0
  Ni  Ni206  1  0.98511905  0.94940476  0.34821429  1.0
  Ni  Ni207  1  0.24702381  0.13988095  0.41964286  1.0
  Ni  Ni208  1  0.24702381  0.47321429  0.41964286  1.0
  Ni  Ni209  1  0.24702381  0.80654762  0.41964286  1.0
  Ni  Ni210  1  0.58035714  0.13988095  0.41964286  1.0
  Ni  Ni211  1  0.58035714  0.47321429  0.41964286  1.0
  Ni  Ni212  1  0.58035714  0.80654762  0.41964286  1.0
  Ni  Ni213  1  0.91369048  0.13988095  0.41964286  1.0
  Ni  Ni214  1  0.91369048  0.47321429  0.41964286  1.0
  Ni  Ni215  1  0.91369048  0.80654762  0.41964286  1.0
