# generated using pymatgen
data_In3Ni
_symmetry_space_group_name_H-M   'P 1'
_cell_length_a   12.92950799
_cell_length_b   41.81508404
_cell_length_c   28.46012434
_cell_angle_alpha   89.14209792
_cell_angle_beta   85.65757389
_cell_angle_gamma   81.10620475
_symmetry_Int_Tables_number   1
_chemical_formula_structural   In3Ni
_chemical_formula_sum   'In216 Ni72'
_cell_volume   15158.19671531
_cell_formula_units_Z   72
loop_
 _symmetry_equiv_pos_site_id
 _symmetry_equiv_pos_as_xyz
  1  'x, y, z'
loop_
 _atom_site_type_symbol
 _atom_site_label
 _atom_site_symmetry_multiplicity
 _atom_site_fract_x
 _atom_site_fract_y
 _atom_site_fract_z
 _atom_site_occupancy
  In  In0  1  0.31875000  0.06875000  0.94375000  1.0
  In  In1  1  0.31875000  0.40208333  0.94375000  1.0
  In  In2  1  0.31875000  0.73541667  0.94375000  1.0
  In  In3  1  0.65208333  0.06875000  0.94375000  1.0
  In  In4  1  0.65208333  0.40208333  0.94375000  1.0
  In  In5  1  0.65208333  0.73541667  0.94375000  1.0
  In  In6  1  0.98541667  0.06875000  0.94375000  1.0
  In  In7  1  0.98541667  0.40208333  0.94375000  1.0
  In  In8  1  0.98541667  0.73541667  0.94375000  1.0
  In  In9  1  0.20208333  0.28541667  0.99375000  1.0
  In  In10  1  0.20208333  0.61875000  0.99375000  1.0
  In  In11  1  0.20208333  0.95208333  0.99375000  1.0
  In  In12  1  0.53541667  0.28541667  0.99375000  1.0
  In  In13  1  0.53541667  0.61875000  0.99375000  1.0
  In  In14  1  0.53541667  0.95208333  0.99375000  1.0
  In  In15  1  0.86875000  0.28541667  0.99375000  1.0
  In  In16  1  0.86875000  0.61875000  0.99375000  1.0
  In  In17  1  0.86875000  0.95208333  0.99375000  1.0
  In  In18  1  0.26041667  0.17708333  0.96875000  1.0
  In  In19  1  0.26041667  0.51041667  0.96875000  1.0
  In  In20  1  0.26041667  0.84375000  0.96875000  1.0
  In  In21  1  0.59375000  0.17708333  0.96875000  1.0
  In  In22  1  0.59375000  0.51041667  0.96875000  1.0
  In  In23  1  0.59375000  0.84375000  0.96875000  1.0
  In  In24  1  0.92708333  0.17708333  0.96875000  1.0
  In  In25  1  0.92708333  0.51041667  0.96875000  1.0
  In  In26  1  0.92708333  0.84375000  0.96875000  1.0
  In  In27  1  0.04375000  0.29375000  0.91875000  1.0
  In  In28  1  0.04375000  0.62708333  0.91875000  1.0
  In  In29  1  0.04375000  0.96041667  0.91875000  1.0
  In  In30  1  0.37708333  0.29375000  0.91875000  1.0
  In  In31  1  0.37708333  0.62708333  0.91875000  1.0
  In  In32  1  0.37708333  0.96041667  0.91875000  1.0
  In  In33  1  0.71041667  0.29375000  0.91875000  1.0
  In  In34  1  0.71041667  0.62708333  0.91875000  1.0
  In  In35  1  0.71041667  0.96041667  0.91875000  1.0
  In  In36  1  0.06458333  0.23125000  0.98125000  1.0
  In  In37  1  0.06458333  0.56458333  0.98125000  1.0
  In  In38  1  0.06458333  0.89791667  0.98125000  1.0
  In  In39  1  0.39791667  0.23125000  0.98125000  1.0
  In  In40  1  0.39791667  0.56458333  0.98125000  1.0
  In  In41  1  0.39791667  0.89791667  0.98125000  1.0
  In  In42  1  0.73125000  0.23125000  0.98125000  1.0
  In  In43  1  0.73125000  0.56458333  0.98125000  1.0
  In  In44  1  0.73125000  0.89791667  0.98125000  1.0
  In  In45  1  0.18125000  0.01458333  0.93125000  1.0
  In  In46  1  0.18125000  0.34791667  0.93125000  1.0
  In  In47  1  0.18125000  0.68125000  0.93125000  1.0
  In  In48  1  0.51458333  0.01458333  0.93125000  1.0
  In  In49  1  0.51458333  0.34791667  0.93125000  1.0
  In  In50  1  0.51458333  0.68125000  0.93125000  1.0
  In  In51  1  0.84791667  0.01458333  0.93125000  1.0
  In  In52  1  0.84791667  0.34791667  0.93125000  1.0
  In  In53  1  0.84791667  0.68125000  0.93125000  1.0
  In  In54  1  0.21875000  0.30208333  0.84375000  1.0
  In  In55  1  0.21875000  0.63541667  0.84375000  1.0
  In  In56  1  0.21875000  0.96875000  0.84375000  1.0
  In  In57  1  0.55208333  0.30208333  0.84375000  1.0
  In  In58  1  0.55208333  0.63541667  0.84375000  1.0
  In  In59  1  0.55208333  0.96875000  0.84375000  1.0
  In  In60  1  0.88541667  0.30208333  0.84375000  1.0
  In  In61  1  0.88541667  0.63541667  0.84375000  1.0
  In  In62  1  0.88541667  0.96875000  0.84375000  1.0
  In  In63  1  0.10208333  0.18541667  0.89375000  1.0
  In  In64  1  0.10208333  0.51875000  0.89375000  1.0
  In  In65  1  0.10208333  0.85208333  0.89375000  1.0
  In  In66  1  0.43541667  0.18541667  0.89375000  1.0
  In  In67  1  0.43541667  0.51875000  0.89375000  1.0
  In  In68  1  0.43541667  0.85208333  0.89375000  1.0
  In  In69  1  0.76875000  0.18541667  0.89375000  1.0
  In  In70  1  0.76875000  0.51875000  0.89375000  1.0
  In  In71  1  0.76875000  0.85208333  0.89375000  1.0
  In  In72  1  0.16041667  0.07708333  0.86875000  1.0
  In  In73  1  0.16041667  0.41041667  0.86875000  1.0
  In  In74  1  0.16041667  0.74375000  0.86875000  1.0
  In  In75  1  0.49375000  0.07708333  0.86875000  1.0
  In  In76  1  0.49375000  0.41041667  0.86875000  1.0
  In  In77  1  0.49375000  0.74375000  0.86875000  1.0
  In  In78  1  0.82708333  0.07708333  0.86875000  1.0
  In  In79  1  0.82708333  0.41041667  0.86875000  1.0
  In  In80  1  0.82708333  0.74375000  0.86875000  1.0
  In  In81  1  0.27708333  0.19375000  0.81875000  1.0
  In  In82  1  0.27708333  0.52708333  0.81875000  1.0
  In  In83  1  0.27708333  0.86041667  0.81875000  1.0
  In  In84  1  0.61041667  0.19375000  0.81875000  1.0
  In  In85  1  0.61041667  0.52708333  0.81875000  1.0
  In  In86  1  0.61041667  0.86041667  0.81875000  1.0
  In  In87  1  0.94375000  0.19375000  0.81875000  1.0
  In  In88  1  0.94375000  0.52708333  0.81875000  1.0
  In  In89  1  0.94375000  0.86041667  0.81875000  1.0
  In  In90  1  0.29791667  0.13125000  0.88125000  1.0
  In  In91  1  0.29791667  0.46458333  0.88125000  1.0
  In  In92  1  0.29791667  0.79791667  0.88125000  1.0
  In  In93  1  0.63125000  0.13125000  0.88125000  1.0
  In  In94  1  0.63125000  0.46458333  0.88125000  1.0
  In  In95  1  0.63125000  0.79791667  0.88125000  1.0
  In  In96  1  0.96458333  0.13125000  0.88125000  1.0
  In  In97  1  0.96458333  0.46458333  0.88125000  1.0
  In  In98  1  0.96458333  0.79791667  0.88125000  1.0
  In  In99  1  0.08125000  0.24791667  0.83125000  1.0
  In  In100  1  0.08125000  0.58125000  0.83125000  1.0
  In  In101  1  0.08125000  0.91458333  0.83125000  1.0
  In  In102  1  0.41458333  0.24791667  0.83125000  1.0
  In  In103  1  0.41458333  0.58125000  0.83125000  1.0
  In  In104  1  0.41458333  0.91458333  0.83125000  1.0
  In  In105  1  0.74791667  0.24791667  0.83125000  1.0
  In  In106  1  0.74791667  0.58125000  0.83125000  1.0
  In  In107  1  0.74791667  0.91458333  0.83125000  1.0
  In  In108  1  0.11875000  0.20208333  0.74375000  1.0
  In  In109  1  0.11875000  0.53541667  0.74375000  1.0
  In  In110  1  0.11875000  0.86875000  0.74375000  1.0
  In  In111  1  0.45208333  0.20208333  0.74375000  1.0
  In  In112  1  0.45208333  0.53541667  0.74375000  1.0
  In  In113  1  0.45208333  0.86875000  0.74375000  1.0
  In  In114  1  0.78541667  0.20208333  0.74375000  1.0
  In  In115  1  0.78541667  0.53541667  0.74375000  1.0
  In  In116  1  0.78541667  0.86875000  0.74375000  1.0
  In  In117  1  0.00208333  0.08541667  0.79375000  1.0
  In  In118  1  0.00208333  0.41875000  0.79375000  1.0
  In  In119  1  0.00208333  0.75208333  0.79375000  1.0
  In  In120  1  0.33541667  0.08541667  0.79375000  1.0
  In  In121  1  0.33541667  0.41875000  0.79375000  1.0
  In  In122  1  0.33541667  0.75208333  0.79375000  1.0
  In  In123  1  0.66875000  0.08541667  0.79375000  1.0
  In  In124  1  0.66875000  0.41875000  0.79375000  1.0
  In  In125  1  0.66875000  0.75208333  0.79375000  1.0
  In  In126  1  0.06041667  0.31041667  0.76875000  1.0
  In  In127  1  0.06041667  0.64375000  0.76875000  1.0
  In  In128  1  0.06041667  0.97708333  0.76875000  1.0
  In  In129  1  0.39375000  0.31041667  0.76875000  1.0
  In  In130  1  0.39375000  0.64375000  0.76875000  1.0
  In  In131  1  0.39375000  0.97708333  0.76875000  1.0
  In  In132  1  0.72708333  0.31041667  0.76875000  1.0
  In  In133  1  0.72708333  0.64375000  0.76875000  1.0
  In  In134  1  0.72708333  0.97708333  0.76875000  1.0
  In  In135  1  0.17708333  0.09375000  0.71875000  1.0
  In  In136  1  0.17708333  0.42708333  0.71875000  1.0
  In  In137  1  0.17708333  0.76041667  0.71875000  1.0
  In  In138  1  0.51041667  0.09375000  0.71875000  1.0
  In  In139  1  0.51041667  0.42708333  0.71875000  1.0
  In  In140  1  0.51041667  0.76041667  0.71875000  1.0
  In  In141  1  0.84375000  0.09375000  0.71875000  1.0
  In  In142  1  0.84375000  0.42708333  0.71875000  1.0
  In  In143  1  0.84375000  0.76041667  0.71875000  1.0
  In  In144  1  0.19791667  0.03125000  0.78125000  1.0
  In  In145  1  0.19791667  0.36458333  0.78125000  1.0
  In  In146  1  0.19791667  0.69791667  0.78125000  1.0
  In  In147  1  0.53125000  0.03125000  0.78125000  1.0
  In  In148  1  0.53125000  0.36458333  0.78125000  1.0
  In  In149  1  0.53125000  0.69791667  0.78125000  1.0
  In  In150  1  0.86458333  0.03125000  0.78125000  1.0
  In  In151  1  0.86458333  0.36458333  0.78125000  1.0
  In  In152  1  0.86458333  0.69791667  0.78125000  1.0
  In  In153  1  0.31458333  0.14791667  0.73125000  1.0
  In  In154  1  0.31458333  0.48125000  0.73125000  1.0
  In  In155  1  0.31458333  0.81458333  0.73125000  1.0
  In  In156  1  0.64791667  0.14791667  0.73125000  1.0
  In  In157  1  0.64791667  0.48125000  0.73125000  1.0
  In  In158  1  0.64791667  0.81458333  0.73125000  1.0
  In  In159  1  0.98125000  0.14791667  0.73125000  1.0
  In  In160  1  0.98125000  0.48125000  0.73125000  1.0
  In  In161  1  0.98125000  0.81458333  0.73125000  1.0
  In  In162  1  0.01875000  0.10208333  0.64375000  1.0
  In  In163  1  0.01875000  0.43541667  0.64375000  1.0
  In  In164  1  0.01875000  0.76875000  0.64375000  1.0
  In  In165  1  0.35208333  0.10208333  0.64375000  1.0
  In  In166  1  0.35208333  0.43541667  0.64375000  1.0
  In  In167  1  0.35208333  0.76875000  0.64375000  1.0
  In  In168  1  0.68541667  0.10208333  0.64375000  1.0
  In  In169  1  0.68541667  0.43541667  0.64375000  1.0
  In  In170  1  0.68541667  0.76875000  0.64375000  1.0
  In  In171  1  0.23541667  0.31875000  0.69375000  1.0
  In  In172  1  0.23541667  0.65208333  0.69375000  1.0
  In  In173  1  0.23541667  0.98541667  0.69375000  1.0
  In  In174  1  0.56875000  0.31875000  0.69375000  1.0
  In  In175  1  0.56875000  0.65208333  0.69375000  1.0
  In  In176  1  0.56875000  0.98541667  0.69375000  1.0
  In  In177  1  0.90208333  0.31875000  0.69375000  1.0
  In  In178  1  0.90208333  0.65208333  0.69375000  1.0
  In  In179  1  0.90208333  0.98541667  0.69375000  1.0
  In  In180  1  0.29375000  0.21041667  0.66875000  1.0
  In  In181  1  0.29375000  0.54375000  0.66875000  1.0
  In  In182  1  0.29375000  0.87708333  0.66875000  1.0
  In  In183  1  0.62708333  0.21041667  0.66875000  1.0
  In  In184  1  0.62708333  0.54375000  0.66875000  1.0
  In  In185  1  0.62708333  0.87708333  0.66875000  1.0
  In  In186  1  0.96041667  0.21041667  0.66875000  1.0
  In  In187  1  0.96041667  0.54375000  0.66875000  1.0
  In  In188  1  0.96041667  0.87708333  0.66875000  1.0
  In  In189  1  0.07708333  0.32708333  0.61875000  1.0
  In  In190  1  0.07708333  0.66041667  0.61875000  1.0
  In  In191  1  0.07708333  0.99375000  0.61875000  1.0
  In  In192  1  0.41041667  0.32708333  0.61875000  1.0
  In  In193  1  0.41041667  0.66041667  0.61875000  1.0
  In  In194  1  0.41041667  0.99375000  0.61875000  1.0
  In  In195  1  0.74375000  0.32708333  0.61875000  1.0
  In  In196  1  0.74375000  0.66041667  0.61875000  1.0
  In  In197  1  0.74375000  0.99375000  0.61875000  1.0
  In  In198  1  0.09791667  0.26458333  0.68125000  1.0
  In  In199  1  0.09791667  0.59791667  0.68125000  1.0
  In  In200  1  0.09791667  0.93125000  0.68125000  1.0
  In  In201  1  0.43125000  0.26458333  0.68125000  1.0
  In  In202  1  0.43125000  0.59791667  0.68125000  1.0
  In  In203  1  0.43125000  0.93125000  0.68125000  1.0
  In  In204  1  0.76458333  0.26458333  0.68125000  1.0
  In  In205  1  0.76458333  0.59791667  0.68125000  1.0
  In  In206  1  0.76458333  0.93125000  0.68125000  1.0
  In  In207  1  0.21458333  0.04791667  0.63125000  1.0
  In  In208  1  0.21458333  0.38125000  0.63125000  1.0
  In  In209  1  0.21458333  0.71458333  0.63125000  1.0
  In  In210  1  0.54791667  0.04791667  0.63125000  1.0
  In  In211  1  0.54791667  0.38125000  0.63125000  1.0
  In  In212  1  0.54791667  0.71458333  0.63125000  1.0
  In  In213  1  0.88125000  0.04791667  0.63125000  1.0
  In  In214  1  0.88125000  0.38125000  0.63125000  1.0
  In  In215  1  0.88125000  0.71458333  0.63125000  1.0
  Ni  Ni216  1  0.12291667  0.12291667  0.95625000  1.0
  Ni  Ni217  1  0.12291667  0.45625000  0.95625000  1.0
  Ni  Ni218  1  0.12291667  0.78958333  0.95625000  1.0
  Ni  Ni219  1  0.45625000  0.12291667  0.95625000  1.0
  Ni  Ni220  1  0.45625000  0.45625000  0.95625000  1.0
  Ni  Ni221  1  0.45625000  0.78958333  0.95625000  1.0
  Ni  Ni222  1  0.78958333  0.12291667  0.95625000  1.0
  Ni  Ni223  1  0.78958333  0.45625000  0.95625000  1.0
  Ni  Ni224  1  0.78958333  0.78958333  0.95625000  1.0
  Ni  Ni225  1  0.23958333  0.23958333  0.90625000  1.0
  Ni  Ni226  1  0.23958333  0.57291667  0.90625000  1.0
  Ni  Ni227  1  0.23958333  0.90625000  0.90625000  1.0
  Ni  Ni228  1  0.57291667  0.23958333  0.90625000  1.0
  Ni  Ni229  1  0.57291667  0.57291667  0.90625000  1.0
  Ni  Ni230  1  0.57291667  0.90625000  0.90625000  1.0
  Ni  Ni231  1  0.90625000  0.23958333  0.90625000  1.0
  Ni  Ni232  1  0.90625000  0.57291667  0.90625000  1.0
  Ni  Ni233  1  0.90625000  0.90625000  0.90625000  1.0
  Ni  Ni234  1  0.02291667  0.02291667  0.85625000  1.0
  Ni  Ni235  1  0.02291667  0.35625000  0.85625000  1.0
  Ni  Ni236  1  0.02291667  0.68958333  0.85625000  1.0
  Ni  Ni237  1  0.35625000  0.02291667  0.85625000  1.0
  Ni  Ni238  1  0.35625000  0.35625000  0.85625000  1.0
  Ni  Ni239  1  0.35625000  0.68958333  0.85625000  1.0
  Ni  Ni240  1  0.68958333  0.02291667  0.85625000  1.0
  Ni  Ni241  1  0.68958333  0.35625000  0.85625000  1.0
  Ni  Ni242  1  0.68958333  0.68958333  0.85625000  1.0
  Ni  Ni243  1  0.13958333  0.13958333  0.80625000  1.0
  Ni  Ni244  1  0.13958333  0.47291667  0.80625000  1.0
  Ni  Ni245  1  0.13958333  0.80625000  0.80625000  1.0
  Ni  Ni246  1  0.47291667  0.13958333  0.80625000  1.0
  Ni  Ni247  1  0.47291667  0.47291667  0.80625000  1.0
  Ni  Ni248  1  0.47291667  0.80625000  0.80625000  1.0
  Ni  Ni249  1  0.80625000  0.13958333  0.80625000  1.0
  Ni  Ni250  1  0.80625000  0.47291667  0.80625000  1.0
  Ni  Ni251  1  0.80625000  0.80625000  0.80625000  1.0
  Ni  Ni252  1  0.25625000  0.25625000  0.75625000  1.0
  Ni  Ni253  1  0.25625000  0.58958333  0.75625000  1.0
  Ni  Ni254  1  0.25625000  0.92291667  0.75625000  1.0
  Ni  Ni255  1  0.58958333  0.25625000  0.75625000  1.0
  Ni  Ni256  1  0.58958333  0.58958333  0.75625000  1.0
  Ni  Ni257  1  0.58958333  0.92291667  0.75625000  1.0
  Ni  Ni258  1  0.92291667  0.25625000  0.75625000  1.0
  Ni  Ni259  1  0.92291667  0.58958333  0.75625000  1.0
  Ni  Ni260  1  0.92291667  0.92291667  0.75625000  1.0
  Ni  Ni261  1  0.03958333  0.03958333  0.70625000  1.0
  Ni  Ni262  1  0.03958333  0.37291667  0.70625000  1.0
  Ni  Ni263  1  0.03958333  0.70625000  0.70625000  1.0
  Ni  Ni264  1  0.37291667  0.03958333  0.70625000  1.0
  Ni  Ni265  1  0.37291667  0.37291667  0.70625000  1.0
  Ni  Ni266  1  0.37291667  0.70625000  0.70625000  1.0
  Ni  Ni267  1  0.70625000  0.03958333  0.70625000  1.0
  Ni  Ni268  1  0.70625000  0.37291667  0.70625000  1.0
  Ni  Ni269  1  0.70625000  0.70625000  0.70625000  1.0
  Ni  Ni270  1  0.15625000  0.15625000  0.65625000  1.0
  Ni  Ni271  1  0.15625000  0.48958333  0.65625000  1.0
  Ni  Ni272  1  0.15625000  0.82291667  0.65625000  1.0
  Ni  Ni273  1  0.48958333  0.15625000  0.65625000  1.0
  Ni  Ni274  1  0.48958333  0.48958333  0.65625000  1.0
  Ni  Ni275  1  0.48958333  0.82291667  0.65625000  1.0
  Ni  Ni276  1  0.82291667  0.15625000  0.65625000  1.0
  Ni  Ni277  1  0.82291667  0.48958333  0.65625000  1.0
  Ni  Ni278  1  0.82291667  0.82291667  0.65625000  1.0
  Ni  Ni279  1  0.27291667  0.27291667  0.60625000  1.0
  Ni  Ni280  1  0.27291667  0.60625000  0.60625000  1.0
  Ni  Ni281  1  0.27291667  0.93958333  0.60625000  1.0
  Ni  Ni282  1  0.60625000  0.27291667  0.60625000  1.0
  Ni  Ni283  1  0.60625000  0.60625000  0.60625000  1.0
  Ni  Ni284  1  0.60625000  0.93958333  0.60625000  1.0
  Ni  Ni285  1  0.93958333  0.27291667  0.60625000  1.0
  Ni  Ni286  1  0.93958333  0.60625000  0.60625000  1.0
  Ni  Ni287  1  0.93958333  0.93958333  0.60625000  1.0
