# generated using pymatgen
data_In3Ni2
_symmetry_space_group_name_H-M   'P 1'
_cell_length_a   13.34077419
_cell_length_b   13.34077419
_cell_length_c   26.60088500
_cell_angle_alpha   90.00000000
_cell_angle_beta   90.00000000
_cell_angle_gamma   120.00000000
_symmetry_Int_Tables_number   1
_chemical_formula_structural   In3Ni2
_chemical_formula_sum   'In54 Ni36'
_cell_volume   4100.04651503
_cell_formula_units_Z   18
loop_
 _symmetry_equiv_pos_site_id
 _symmetry_equiv_pos_as_xyz
  1  'x, y, z'
loop_
 _atom_site_type_symbol
 _atom_site_label
 _atom_site_symmetry_multiplicity
 _atom_site_fract_x
 _atom_site_fract_y
 _atom_site_fract_z
 _atom_site_occupancy
  In  In0  1  0.00000000  0.00000000  0.18601800  1.0
  In  In1  1  0.00000000  0.33333333  0.18601800  1.0
  In  In2  1  0.00000000  0.66666667  0.18601800  1.0
  In  In3  1  0.33333333  0.00000000  0.18601800  1.0
  In  In4  1  0.33333333  0.33333333  0.18601800  1.0
  In  In5  1  0.33333333  0.66666667  0.18601800  1.0
  In  In6  1  0.66666667  0.00000000  0.18601800  1.0
  In  In7  1  0.66666667  0.33333333  0.18601800  1.0
  In  In8  1  0.66666667  0.66666667  0.18601800  1.0
  In  In9  1  0.22222222  0.11111111  0.05694360  1.0
  In  In10  1  0.22222222  0.44444444  0.05694360  1.0
  In  In11  1  0.22222222  0.77777778  0.05694360  1.0
  In  In12  1  0.55555556  0.11111111  0.05694360  1.0
  In  In13  1  0.55555556  0.44444444  0.05694360  1.0
  In  In14  1  0.55555556  0.77777778  0.05694360  1.0
  In  In15  1  0.88888889  0.11111111  0.05694360  1.0
  In  In16  1  0.88888889  0.44444444  0.05694360  1.0
  In  In17  1  0.88888889  0.77777778  0.05694360  1.0
  In  In18  1  0.11111111  0.22222222  0.11509240  1.0
  In  In19  1  0.11111111  0.55555556  0.11509240  1.0
  In  In20  1  0.11111111  0.88888889  0.11509240  1.0
  In  In21  1  0.44444444  0.22222222  0.11509240  1.0
  In  In22  1  0.44444444  0.55555556  0.11509240  1.0
  In  In23  1  0.44444444  0.88888889  0.11509240  1.0
  In  In24  1  0.77777778  0.22222222  0.11509240  1.0
  In  In25  1  0.77777778  0.55555556  0.11509240  1.0
  In  In26  1  0.77777778  0.88888889  0.11509240  1.0
  Ni  Ni27  1  0.22222222  0.11111111  0.15805400  1.0
  Ni  Ni28  1  0.22222222  0.44444444  0.15805400  1.0
  Ni  Ni29  1  0.22222222  0.77777778  0.15805400  1.0
  Ni  Ni30  1  0.55555556  0.11111111  0.15805400  1.0
  Ni  Ni31  1  0.55555556  0.44444444  0.15805400  1.0
  Ni  Ni32  1  0.55555556  0.77777778  0.15805400  1.0
  Ni  Ni33  1  0.88888889  0.11111111  0.15805400  1.0
  Ni  Ni34  1  0.88888889  0.44444444  0.15805400  1.0
  Ni  Ni35  1  0.88888889  0.77777778  0.15805400  1.0
  Ni  Ni36  1  0.11111111  0.22222222  0.01398200  1.0
  Ni  Ni37  1  0.11111111  0.55555556  0.01398200  1.0
  Ni  Ni38  1  0.11111111  0.88888889  0.01398200  1.0
  Ni  Ni39  1  0.44444444  0.22222222  0.01398200  1.0
  Ni  Ni40  1  0.44444444  0.55555556  0.01398200  1.0
  Ni  Ni41  1  0.44444444  0.88888889  0.01398200  1.0
  Ni  Ni42  1  0.77777778  0.22222222  0.01398200  1.0
  Ni  Ni43  1  0.77777778  0.55555556  0.01398200  1.0
  Ni  Ni44  1  0.77777778  0.88888889  0.01398200  1.0
  In  In45  1  0.00000000  0.00000000  0.38601800  1.0
  In  In46  1  0.00000000  0.33333333  0.38601800  1.0
  In  In47  1  0.00000000  0.66666667  0.38601800  1.0
  In  In48  1  0.33333333  0.00000000  0.38601800  1.0
  In  In49  1  0.33333333  0.33333333  0.38601800  1.0
  In  In50  1  0.33333333  0.66666667  0.38601800  1.0
  In  In51  1  0.66666667  0.00000000  0.38601800  1.0
  In  In52  1  0.66666667  0.33333333  0.38601800  1.0
  In  In53  1  0.66666667  0.66666667  0.38601800  1.0
  In  In54  1  0.22222222  0.11111111  0.25694360  1.0
  In  In55  1  0.22222222  0.44444444  0.25694360  1.0
  In  In56  1  0.22222222  0.77777778  0.25694360  1.0
  In  In57  1  0.55555556  0.11111111  0.25694360  1.0
  In  In58  1  0.55555556  0.44444444  0.25694360  1.0
  In  In59  1  0.55555556  0.77777778  0.25694360  1.0
  In  In60  1  0.88888889  0.11111111  0.25694360  1.0
  In  In61  1  0.88888889  0.44444444  0.25694360  1.0
  In  In62  1  0.88888889  0.77777778  0.25694360  1.0
  In  In63  1  0.11111111  0.22222222  0.31509240  1.0
  In  In64  1  0.11111111  0.55555556  0.31509240  1.0
  In  In65  1  0.11111111  0.88888889  0.31509240  1.0
  In  In66  1  0.44444444  0.22222222  0.31509240  1.0
  In  In67  1  0.44444444  0.55555556  0.31509240  1.0
  In  In68  1  0.44444444  0.88888889  0.31509240  1.0
  In  In69  1  0.77777778  0.22222222  0.31509240  1.0
  In  In70  1  0.77777778  0.55555556  0.31509240  1.0
  In  In71  1  0.77777778  0.88888889  0.31509240  1.0
  Ni  Ni72  1  0.22222222  0.11111111  0.35805400  1.0
  Ni  Ni73  1  0.22222222  0.44444444  0.35805400  1.0
  Ni  Ni74  1  0.22222222  0.77777778  0.35805400  1.0
  Ni  Ni75  1  0.55555556  0.11111111  0.35805400  1.0
  Ni  Ni76  1  0.55555556  0.44444444  0.35805400  1.0
  Ni  Ni77  1  0.55555556  0.77777778  0.35805400  1.0
  Ni  Ni78  1  0.88888889  0.11111111  0.35805400  1.0
  Ni  Ni79  1  0.88888889  0.44444444  0.35805400  1.0
  Ni  Ni80  1  0.88888889  0.77777778  0.35805400  1.0
  Ni  Ni81  1  0.11111111  0.22222222  0.21398200  1.0
  Ni  Ni82  1  0.11111111  0.55555556  0.21398200  1.0
  Ni  Ni83  1  0.11111111  0.88888889  0.21398200  1.0
  Ni  Ni84  1  0.44444444  0.22222222  0.21398200  1.0
  Ni  Ni85  1  0.44444444  0.55555556  0.21398200  1.0
  Ni  Ni86  1  0.44444444  0.88888889  0.21398200  1.0
  Ni  Ni87  1  0.77777778  0.22222222  0.21398200  1.0
  Ni  Ni88  1  0.77777778  0.55555556  0.21398200  1.0
  Ni  Ni89  1  0.77777778  0.88888889  0.21398200  1.0
