# generated using pymatgen
data_In3Ni
_symmetry_space_group_name_H-M   'P 1'
_cell_length_a   18.28508556
_cell_length_b   30.11867315
_cell_length_c   98.32985226
_cell_angle_alpha   156.76685644
_cell_angle_beta   123.90860903
_cell_angle_gamma   72.32901129
_symmetry_Int_Tables_number   1
_chemical_formula_structural   In3Ni
_chemical_formula_sum   'In189 Ni63'
_cell_volume   13642.37704378
_cell_formula_units_Z   63
loop_
 _symmetry_equiv_pos_site_id
 _symmetry_equiv_pos_as_xyz
  1  'x, y, z'
loop_
 _atom_site_type_symbol
 _atom_site_label
 _atom_site_symmetry_multiplicity
 _atom_site_fract_x
 _atom_site_fract_y
 _atom_site_fract_z
 _atom_site_occupancy
  In  In0  1  0.08333333  0.16666667  0.01388889  1.0
  In  In1  1  0.08333333  0.50000000  0.01388889  1.0
  In  In2  1  0.08333333  0.83333333  0.01388889  1.0
  In  In3  1  0.41666667  0.16666667  0.01388889  1.0
  In  In4  1  0.41666667  0.50000000  0.01388889  1.0
  In  In5  1  0.41666667  0.83333333  0.01388889  1.0
  In  In6  1  0.75000000  0.16666667  0.01388889  1.0
  In  In7  1  0.75000000  0.50000000  0.01388889  1.0
  In  In8  1  0.75000000  0.83333333  0.01388889  1.0
  In  In9  1  0.25000000  0.16666667  0.01388889  1.0
  In  In10  1  0.25000000  0.50000000  0.01388889  1.0
  In  In11  1  0.25000000  0.83333333  0.01388889  1.0
  In  In12  1  0.58333333  0.16666667  0.01388889  1.0
  In  In13  1  0.58333333  0.50000000  0.01388889  1.0
  In  In14  1  0.58333333  0.83333333  0.01388889  1.0
  In  In15  1  0.91666667  0.16666667  0.01388889  1.0
  In  In16  1  0.91666667  0.50000000  0.01388889  1.0
  In  In17  1  0.91666667  0.83333333  0.01388889  1.0
  In  In18  1  0.16666667  0.00000000  0.04166667  1.0
  In  In19  1  0.16666667  0.33333333  0.04166667  1.0
  In  In20  1  0.16666667  0.66666667  0.04166667  1.0
  In  In21  1  0.50000000  0.00000000  0.04166667  1.0
  In  In22  1  0.50000000  0.33333333  0.04166667  1.0
  In  In23  1  0.50000000  0.66666667  0.04166667  1.0
  In  In24  1  0.83333333  0.00000000  0.04166667  1.0
  In  In25  1  0.83333333  0.33333333  0.04166667  1.0
  In  In26  1  0.83333333  0.66666667  0.04166667  1.0
  Ni  Ni27  1  0.00000000  0.00000000  0.04166667  1.0
  Ni  Ni28  1  0.00000000  0.33333333  0.04166667  1.0
  Ni  Ni29  1  0.00000000  0.66666667  0.04166667  1.0
  Ni  Ni30  1  0.33333333  0.00000000  0.04166667  1.0
  Ni  Ni31  1  0.33333333  0.33333333  0.04166667  1.0
  Ni  Ni32  1  0.33333333  0.66666667  0.04166667  1.0
  Ni  Ni33  1  0.66666667  0.00000000  0.04166667  1.0
  Ni  Ni34  1  0.66666667  0.33333333  0.04166667  1.0
  Ni  Ni35  1  0.66666667  0.66666667  0.04166667  1.0
  In  In36  1  0.08333333  0.16666667  0.06944444  1.0
  In  In37  1  0.08333333  0.50000000  0.06944444  1.0
  In  In38  1  0.08333333  0.83333333  0.06944444  1.0
  In  In39  1  0.41666667  0.16666667  0.06944444  1.0
  In  In40  1  0.41666667  0.50000000  0.06944444  1.0
  In  In41  1  0.41666667  0.83333333  0.06944444  1.0
  In  In42  1  0.75000000  0.16666667  0.06944444  1.0
  In  In43  1  0.75000000  0.50000000  0.06944444  1.0
  In  In44  1  0.75000000  0.83333333  0.06944444  1.0
  In  In45  1  0.25000000  0.16666667  0.06944444  1.0
  In  In46  1  0.25000000  0.50000000  0.06944444  1.0
  In  In47  1  0.25000000  0.83333333  0.06944444  1.0
  In  In48  1  0.58333333  0.16666667  0.06944444  1.0
  In  In49  1  0.58333333  0.50000000  0.06944444  1.0
  In  In50  1  0.58333333  0.83333333  0.06944444  1.0
  In  In51  1  0.91666667  0.16666667  0.06944444  1.0
  In  In52  1  0.91666667  0.50000000  0.06944444  1.0
  In  In53  1  0.91666667  0.83333333  0.06944444  1.0
  In  In54  1  0.16666667  0.00000000  0.09722222  1.0
  In  In55  1  0.16666667  0.33333333  0.09722222  1.0
  In  In56  1  0.16666667  0.66666667  0.09722222  1.0
  In  In57  1  0.50000000  0.00000000  0.09722222  1.0
  In  In58  1  0.50000000  0.33333333  0.09722222  1.0
  In  In59  1  0.50000000  0.66666667  0.09722222  1.0
  In  In60  1  0.83333333  0.00000000  0.09722222  1.0
  In  In61  1  0.83333333  0.33333333  0.09722222  1.0
  In  In62  1  0.83333333  0.66666667  0.09722222  1.0
  Ni  Ni63  1  0.00000000  0.00000000  0.09722222  1.0
  Ni  Ni64  1  0.00000000  0.33333333  0.09722222  1.0
  Ni  Ni65  1  0.00000000  0.66666667  0.09722222  1.0
  Ni  Ni66  1  0.33333333  0.00000000  0.09722222  1.0
  Ni  Ni67  1  0.33333333  0.33333333  0.09722222  1.0
  Ni  Ni68  1  0.33333333  0.66666667  0.09722222  1.0
  Ni  Ni69  1  0.66666667  0.00000000  0.09722222  1.0
  Ni  Ni70  1  0.66666667  0.33333333  0.09722222  1.0
  Ni  Ni71  1  0.66666667  0.66666667  0.09722222  1.0
  In  In72  1  0.08333333  0.16666667  0.12500000  1.0
  In  In73  1  0.08333333  0.50000000  0.12500000  1.0
  In  In74  1  0.08333333  0.83333333  0.12500000  1.0
  In  In75  1  0.41666667  0.16666667  0.12500000  1.0
  In  In76  1  0.41666667  0.50000000  0.12500000  1.0
  In  In77  1  0.41666667  0.83333333  0.12500000  1.0
  In  In78  1  0.75000000  0.16666667  0.12500000  1.0
  In  In79  1  0.75000000  0.50000000  0.12500000  1.0
  In  In80  1  0.75000000  0.83333333  0.12500000  1.0
  In  In81  1  0.25000000  0.16666667  0.12500000  1.0
  In  In82  1  0.25000000  0.50000000  0.12500000  1.0
  In  In83  1  0.25000000  0.83333333  0.12500000  1.0
  In  In84  1  0.58333333  0.16666667  0.12500000  1.0
  In  In85  1  0.58333333  0.50000000  0.12500000  1.0
  In  In86  1  0.58333333  0.83333333  0.12500000  1.0
  In  In87  1  0.91666667  0.16666667  0.12500000  1.0
  In  In88  1  0.91666667  0.50000000  0.12500000  1.0
  In  In89  1  0.91666667  0.83333333  0.12500000  1.0
  In  In90  1  0.16666667  0.00000000  0.15277778  1.0
  In  In91  1  0.16666667  0.33333333  0.15277778  1.0
  In  In92  1  0.16666667  0.66666667  0.15277778  1.0
  In  In93  1  0.50000000  0.00000000  0.15277778  1.0
  In  In94  1  0.50000000  0.33333333  0.15277778  1.0
  In  In95  1  0.50000000  0.66666667  0.15277778  1.0
  In  In96  1  0.83333333  0.00000000  0.15277778  1.0
  In  In97  1  0.83333333  0.33333333  0.15277778  1.0
  In  In98  1  0.83333333  0.66666667  0.15277778  1.0
  Ni  Ni99  1  0.00000000  0.00000000  0.15277778  1.0
  Ni  Ni100  1  0.00000000  0.33333333  0.15277778  1.0
  Ni  Ni101  1  0.00000000  0.66666667  0.15277778  1.0
  Ni  Ni102  1  0.33333333  0.00000000  0.15277778  1.0
  Ni  Ni103  1  0.33333333  0.33333333  0.15277778  1.0
  Ni  Ni104  1  0.33333333  0.66666667  0.15277778  1.0
  Ni  Ni105  1  0.66666667  0.00000000  0.15277778  1.0
  Ni  Ni106  1  0.66666667  0.33333333  0.15277778  1.0
  Ni  Ni107  1  0.66666667  0.66666667  0.15277778  1.0
  In  In108  1  0.08333333  0.16666667  0.18055556  1.0
  In  In109  1  0.08333333  0.50000000  0.18055556  1.0
  In  In110  1  0.08333333  0.83333333  0.18055556  1.0
  In  In111  1  0.41666667  0.16666667  0.18055556  1.0
  In  In112  1  0.41666667  0.50000000  0.18055556  1.0
  In  In113  1  0.41666667  0.83333333  0.18055556  1.0
  In  In114  1  0.75000000  0.16666667  0.18055556  1.0
  In  In115  1  0.75000000  0.50000000  0.18055556  1.0
  In  In116  1  0.75000000  0.83333333  0.18055556  1.0
  In  In117  1  0.25000000  0.16666667  0.18055556  1.0
  In  In118  1  0.25000000  0.50000000  0.18055556  1.0
  In  In119  1  0.25000000  0.83333333  0.18055556  1.0
  In  In120  1  0.58333333  0.16666667  0.18055556  1.0
  In  In121  1  0.58333333  0.50000000  0.18055556  1.0
  In  In122  1  0.58333333  0.83333333  0.18055556  1.0
  In  In123  1  0.91666667  0.16666667  0.18055556  1.0
  In  In124  1  0.91666667  0.50000000  0.18055556  1.0
  In  In125  1  0.91666667  0.83333333  0.18055556  1.0
  In  In126  1  0.16666667  0.00000000  0.20833333  1.0
  In  In127  1  0.16666667  0.33333333  0.20833333  1.0
  In  In128  1  0.16666667  0.66666667  0.20833333  1.0
  In  In129  1  0.50000000  0.00000000  0.20833333  1.0
  In  In130  1  0.50000000  0.33333333  0.20833333  1.0
  In  In131  1  0.50000000  0.66666667  0.20833333  1.0
  In  In132  1  0.83333333  0.00000000  0.20833333  1.0
  In  In133  1  0.83333333  0.33333333  0.20833333  1.0
  In  In134  1  0.83333333  0.66666667  0.20833333  1.0
  Ni  Ni135  1  0.00000000  0.00000000  0.20833333  1.0
  Ni  Ni136  1  0.00000000  0.33333333  0.20833333  1.0
  Ni  Ni137  1  0.00000000  0.66666667  0.20833333  1.0
  Ni  Ni138  1  0.33333333  0.00000000  0.20833333  1.0
  Ni  Ni139  1  0.33333333  0.33333333  0.20833333  1.0
  Ni  Ni140  1  0.33333333  0.66666667  0.20833333  1.0
  Ni  Ni141  1  0.66666667  0.00000000  0.20833333  1.0
  Ni  Ni142  1  0.66666667  0.33333333  0.20833333  1.0
  Ni  Ni143  1  0.66666667  0.66666667  0.20833333  1.0
  In  In144  1  0.08333333  0.16666667  0.23611111  1.0
  In  In145  1  0.08333333  0.50000000  0.23611111  1.0
  In  In146  1  0.08333333  0.83333333  0.23611111  1.0
  In  In147  1  0.41666667  0.16666667  0.23611111  1.0
  In  In148  1  0.41666667  0.50000000  0.23611111  1.0
  In  In149  1  0.41666667  0.83333333  0.23611111  1.0
  In  In150  1  0.75000000  0.16666667  0.23611111  1.0
  In  In151  1  0.75000000  0.50000000  0.23611111  1.0
  In  In152  1  0.75000000  0.83333333  0.23611111  1.0
  In  In153  1  0.25000000  0.16666667  0.23611111  1.0
  In  In154  1  0.25000000  0.50000000  0.23611111  1.0
  In  In155  1  0.25000000  0.83333333  0.23611111  1.0
  In  In156  1  0.58333333  0.16666667  0.23611111  1.0
  In  In157  1  0.58333333  0.50000000  0.23611111  1.0
  In  In158  1  0.58333333  0.83333333  0.23611111  1.0
  In  In159  1  0.91666667  0.16666667  0.23611111  1.0
  In  In160  1  0.91666667  0.50000000  0.23611111  1.0
  In  In161  1  0.91666667  0.83333333  0.23611111  1.0
  In  In162  1  0.16666667  0.00000000  0.26388889  1.0
  In  In163  1  0.16666667  0.33333333  0.26388889  1.0
  In  In164  1  0.16666667  0.66666667  0.26388889  1.0
  In  In165  1  0.50000000  0.00000000  0.26388889  1.0
  In  In166  1  0.50000000  0.33333333  0.26388889  1.0
  In  In167  1  0.50000000  0.66666667  0.26388889  1.0
  In  In168  1  0.83333333  0.00000000  0.26388889  1.0
  In  In169  1  0.83333333  0.33333333  0.26388889  1.0
  In  In170  1  0.83333333  0.66666667  0.26388889  1.0
  Ni  Ni171  1  0.00000000  0.00000000  0.26388889  1.0
  Ni  Ni172  1  0.00000000  0.33333333  0.26388889  1.0
  Ni  Ni173  1  0.00000000  0.66666667  0.26388889  1.0
  Ni  Ni174  1  0.33333333  0.00000000  0.26388889  1.0
  Ni  Ni175  1  0.33333333  0.33333333  0.26388889  1.0
  Ni  Ni176  1  0.33333333  0.66666667  0.26388889  1.0
  Ni  Ni177  1  0.66666667  0.00000000  0.26388889  1.0
  Ni  Ni178  1  0.66666667  0.33333333  0.26388889  1.0
  Ni  Ni179  1  0.66666667  0.66666667  0.26388889  1.0
  In  In180  1  0.08333333  0.16666667  0.29166667  1.0
  In  In181  1  0.08333333  0.50000000  0.29166667  1.0
  In  In182  1  0.08333333  0.83333333  0.29166667  1.0
  In  In183  1  0.41666667  0.16666667  0.29166667  1.0
  In  In184  1  0.41666667  0.50000000  0.29166667  1.0
  In  In185  1  0.41666667  0.83333333  0.29166667  1.0
  In  In186  1  0.75000000  0.16666667  0.29166667  1.0
  In  In187  1  0.75000000  0.50000000  0.29166667  1.0
  In  In188  1  0.75000000  0.83333333  0.29166667  1.0
  In  In189  1  0.25000000  0.16666667  0.29166667  1.0
  In  In190  1  0.25000000  0.50000000  0.29166667  1.0
  In  In191  1  0.25000000  0.83333333  0.29166667  1.0
  In  In192  1  0.58333333  0.16666667  0.29166667  1.0
  In  In193  1  0.58333333  0.50000000  0.29166667  1.0
  In  In194  1  0.58333333  0.83333333  0.29166667  1.0
  In  In195  1  0.91666667  0.16666667  0.29166667  1.0
  In  In196  1  0.91666667  0.50000000  0.29166667  1.0
  In  In197  1  0.91666667  0.83333333  0.29166667  1.0
  In  In198  1  0.16666667  0.00000000  0.31944444  1.0
  In  In199  1  0.16666667  0.33333333  0.31944444  1.0
  In  In200  1  0.16666667  0.66666667  0.31944444  1.0
  In  In201  1  0.50000000  0.00000000  0.31944444  1.0
  In  In202  1  0.50000000  0.33333333  0.31944444  1.0
  In  In203  1  0.50000000  0.66666667  0.31944444  1.0
  In  In204  1  0.83333333  0.00000000  0.31944444  1.0
  In  In205  1  0.83333333  0.33333333  0.31944444  1.0
  In  In206  1  0.83333333  0.66666667  0.31944444  1.0
  Ni  Ni207  1  0.00000000  0.00000000  0.31944444  1.0
  Ni  Ni208  1  0.00000000  0.33333333  0.31944444  1.0
  Ni  Ni209  1  0.00000000  0.66666667  0.31944444  1.0
  Ni  Ni210  1  0.33333333  0.00000000  0.31944444  1.0
  Ni  Ni211  1  0.33333333  0.33333333  0.31944444  1.0
  Ni  Ni212  1  0.33333333  0.66666667  0.31944444  1.0
  Ni  Ni213  1  0.66666667  0.00000000  0.31944444  1.0
  Ni  Ni214  1  0.66666667  0.33333333  0.31944444  1.0
  Ni  Ni215  1  0.66666667  0.66666667  0.31944444  1.0
  In  In216  1  0.08333333  0.16666667  0.34722222  1.0
  In  In217  1  0.08333333  0.50000000  0.34722222  1.0
  In  In218  1  0.08333333  0.83333333  0.34722222  1.0
  In  In219  1  0.41666667  0.16666667  0.34722222  1.0
  In  In220  1  0.41666667  0.50000000  0.34722222  1.0
  In  In221  1  0.41666667  0.83333333  0.34722222  1.0
  In  In222  1  0.75000000  0.16666667  0.34722222  1.0
  In  In223  1  0.75000000  0.50000000  0.34722222  1.0
  In  In224  1  0.75000000  0.83333333  0.34722222  1.0
  In  In225  1  0.25000000  0.16666667  0.34722222  1.0
  In  In226  1  0.25000000  0.50000000  0.34722222  1.0
  In  In227  1  0.25000000  0.83333333  0.34722222  1.0
  In  In228  1  0.58333333  0.16666667  0.34722222  1.0
  In  In229  1  0.58333333  0.50000000  0.34722222  1.0
  In  In230  1  0.58333333  0.83333333  0.34722222  1.0
  In  In231  1  0.91666667  0.16666667  0.34722222  1.0
  In  In232  1  0.91666667  0.50000000  0.34722222  1.0
  In  In233  1  0.91666667  0.83333333  0.34722222  1.0
  In  In234  1  0.16666667  0.00000000  0.37500000  1.0
  In  In235  1  0.16666667  0.33333333  0.37500000  1.0
  In  In236  1  0.16666667  0.66666667  0.37500000  1.0
  In  In237  1  0.50000000  0.00000000  0.37500000  1.0
  In  In238  1  0.50000000  0.33333333  0.37500000  1.0
  In  In239  1  0.50000000  0.66666667  0.37500000  1.0
  In  In240  1  0.83333333  0.00000000  0.37500000  1.0
  In  In241  1  0.83333333  0.33333333  0.37500000  1.0
  In  In242  1  0.83333333  0.66666667  0.37500000  1.0
  Ni  Ni243  1  0.00000000  0.00000000  0.37500000  1.0
  Ni  Ni244  1  0.00000000  0.33333333  0.37500000  1.0
  Ni  Ni245  1  0.00000000  0.66666667  0.37500000  1.0
  Ni  Ni246  1  0.33333333  0.00000000  0.37500000  1.0
  Ni  Ni247  1  0.33333333  0.33333333  0.37500000  1.0
  Ni  Ni248  1  0.33333333  0.66666667  0.37500000  1.0
  Ni  Ni249  1  0.66666667  0.00000000  0.37500000  1.0
  Ni  Ni250  1  0.66666667  0.33333333  0.37500000  1.0
  Ni  Ni251  1  0.66666667  0.66666667  0.37500000  1.0
