# generated using pymatgen
data_In3Ni2
_symmetry_space_group_name_H-M   'P 1'
_cell_length_a   15.96053100
_cell_length_b   23.10689871
_cell_length_c   53.36309676
_cell_angle_alpha   150.00000000
_cell_angle_beta   90.00000000
_cell_angle_gamma   90.00000000
_symmetry_Int_Tables_number   1
_chemical_formula_structural   In3Ni2
_chemical_formula_sum   'In135 Ni90'
_cell_volume   9840.11163607
_cell_formula_units_Z   45
loop_
 _symmetry_equiv_pos_site_id
 _symmetry_equiv_pos_as_xyz
  1  'x, y, z'
loop_
 _atom_site_type_symbol
 _atom_site_label
 _atom_site_symmetry_multiplicity
 _atom_site_fract_x
 _atom_site_fract_y
 _atom_site_fract_z
 _atom_site_occupancy
  In  In0  1  0.00000000  0.00000000  0.04166667  1.0
  In  In1  1  0.00000000  0.33333333  0.04166667  1.0
  In  In2  1  0.00000000  0.66666667  0.04166667  1.0
  In  In3  1  0.33333333  0.00000000  0.04166667  1.0
  In  In4  1  0.33333333  0.33333333  0.04166667  1.0
  In  In5  1  0.33333333  0.66666667  0.04166667  1.0
  In  In6  1  0.66666667  0.00000000  0.04166667  1.0
  In  In7  1  0.66666667  0.33333333  0.04166667  1.0
  In  In8  1  0.66666667  0.66666667  0.04166667  1.0
  In  In9  1  0.21512400  0.22222222  0.04166667  1.0
  In  In10  1  0.21512400  0.55555556  0.04166667  1.0
  In  In11  1  0.21512400  0.88888889  0.04166667  1.0
  In  In12  1  0.54845733  0.22222222  0.04166667  1.0
  In  In13  1  0.54845733  0.55555556  0.04166667  1.0
  In  In14  1  0.54845733  0.88888889  0.04166667  1.0
  In  In15  1  0.88179067  0.22222222  0.04166667  1.0
  In  In16  1  0.88179067  0.55555556  0.04166667  1.0
  In  In17  1  0.88179067  0.88888889  0.04166667  1.0
  In  In18  1  0.11820933  0.11111111  0.04166667  1.0
  In  In19  1  0.11820933  0.44444444  0.04166667  1.0
  In  In20  1  0.11820933  0.77777778  0.04166667  1.0
  In  In21  1  0.45154267  0.11111111  0.04166667  1.0
  In  In22  1  0.45154267  0.44444444  0.04166667  1.0
  In  In23  1  0.45154267  0.77777778  0.04166667  1.0
  In  In24  1  0.78487600  0.11111111  0.04166667  1.0
  In  In25  1  0.78487600  0.44444444  0.04166667  1.0
  In  In26  1  0.78487600  0.77777778  0.04166667  1.0
  Ni  Ni27  1  0.04660667  0.22222222  0.04166667  1.0
  Ni  Ni28  1  0.04660667  0.55555556  0.04166667  1.0
  Ni  Ni29  1  0.04660667  0.88888889  0.04166667  1.0
  Ni  Ni30  1  0.37994000  0.22222222  0.04166667  1.0
  Ni  Ni31  1  0.37994000  0.55555556  0.04166667  1.0
  Ni  Ni32  1  0.37994000  0.88888889  0.04166667  1.0
  Ni  Ni33  1  0.71327333  0.22222222  0.04166667  1.0
  Ni  Ni34  1  0.71327333  0.55555556  0.04166667  1.0
  Ni  Ni35  1  0.71327333  0.88888889  0.04166667  1.0
  Ni  Ni36  1  0.28672667  0.11111111  0.04166667  1.0
  Ni  Ni37  1  0.28672667  0.44444444  0.04166667  1.0
  Ni  Ni38  1  0.28672667  0.77777778  0.04166667  1.0
  Ni  Ni39  1  0.62006000  0.11111111  0.04166667  1.0
  Ni  Ni40  1  0.62006000  0.44444444  0.04166667  1.0
  Ni  Ni41  1  0.62006000  0.77777778  0.04166667  1.0
  Ni  Ni42  1  0.95339333  0.11111111  0.04166667  1.0
  Ni  Ni43  1  0.95339333  0.44444444  0.04166667  1.0
  Ni  Ni44  1  0.95339333  0.77777778  0.04166667  1.0
  In  In45  1  0.00000000  0.00000000  0.12500000  1.0
  In  In46  1  0.00000000  0.33333333  0.12500000  1.0
  In  In47  1  0.00000000  0.66666667  0.12500000  1.0
  In  In48  1  0.33333333  0.00000000  0.12500000  1.0
  In  In49  1  0.33333333  0.33333333  0.12500000  1.0
  In  In50  1  0.33333333  0.66666667  0.12500000  1.0
  In  In51  1  0.66666667  0.00000000  0.12500000  1.0
  In  In52  1  0.66666667  0.33333333  0.12500000  1.0
  In  In53  1  0.66666667  0.66666667  0.12500000  1.0
  In  In54  1  0.21512400  0.22222222  0.12500000  1.0
  In  In55  1  0.21512400  0.55555556  0.12500000  1.0
  In  In56  1  0.21512400  0.88888889  0.12500000  1.0
  In  In57  1  0.54845733  0.22222222  0.12500000  1.0
  In  In58  1  0.54845733  0.55555556  0.12500000  1.0
  In  In59  1  0.54845733  0.88888889  0.12500000  1.0
  In  In60  1  0.88179067  0.22222222  0.12500000  1.0
  In  In61  1  0.88179067  0.55555556  0.12500000  1.0
  In  In62  1  0.88179067  0.88888889  0.12500000  1.0
  In  In63  1  0.11820933  0.11111111  0.12500000  1.0
  In  In64  1  0.11820933  0.44444444  0.12500000  1.0
  In  In65  1  0.11820933  0.77777778  0.12500000  1.0
  In  In66  1  0.45154267  0.11111111  0.12500000  1.0
  In  In67  1  0.45154267  0.44444444  0.12500000  1.0
  In  In68  1  0.45154267  0.77777778  0.12500000  1.0
  In  In69  1  0.78487600  0.11111111  0.12500000  1.0
  In  In70  1  0.78487600  0.44444444  0.12500000  1.0
  In  In71  1  0.78487600  0.77777778  0.12500000  1.0
  Ni  Ni72  1  0.04660667  0.22222222  0.12500000  1.0
  Ni  Ni73  1  0.04660667  0.55555556  0.12500000  1.0
  Ni  Ni74  1  0.04660667  0.88888889  0.12500000  1.0
  Ni  Ni75  1  0.37994000  0.22222222  0.12500000  1.0
  Ni  Ni76  1  0.37994000  0.55555556  0.12500000  1.0
  Ni  Ni77  1  0.37994000  0.88888889  0.12500000  1.0
  Ni  Ni78  1  0.71327333  0.22222222  0.12500000  1.0
  Ni  Ni79  1  0.71327333  0.55555556  0.12500000  1.0
  Ni  Ni80  1  0.71327333  0.88888889  0.12500000  1.0
  Ni  Ni81  1  0.28672667  0.11111111  0.12500000  1.0
  Ni  Ni82  1  0.28672667  0.44444444  0.12500000  1.0
  Ni  Ni83  1  0.28672667  0.77777778  0.12500000  1.0
  Ni  Ni84  1  0.62006000  0.11111111  0.12500000  1.0
  Ni  Ni85  1  0.62006000  0.44444444  0.12500000  1.0
  Ni  Ni86  1  0.62006000  0.77777778  0.12500000  1.0
  Ni  Ni87  1  0.95339333  0.11111111  0.12500000  1.0
  Ni  Ni88  1  0.95339333  0.44444444  0.12500000  1.0
  Ni  Ni89  1  0.95339333  0.77777778  0.12500000  1.0
  In  In90  1  0.00000000  0.00000000  0.20833333  1.0
  In  In91  1  0.00000000  0.33333333  0.20833333  1.0
  In  In92  1  0.00000000  0.66666667  0.20833333  1.0
  In  In93  1  0.33333333  0.00000000  0.20833333  1.0
  In  In94  1  0.33333333  0.33333333  0.20833333  1.0
  In  In95  1  0.33333333  0.66666667  0.20833333  1.0
  In  In96  1  0.66666667  0.00000000  0.20833333  1.0
  In  In97  1  0.66666667  0.33333333  0.20833333  1.0
  In  In98  1  0.66666667  0.66666667  0.20833333  1.0
  In  In99  1  0.21512400  0.22222222  0.20833333  1.0
  In  In100  1  0.21512400  0.55555556  0.20833333  1.0
  In  In101  1  0.21512400  0.88888889  0.20833333  1.0
  In  In102  1  0.54845733  0.22222222  0.20833333  1.0
  In  In103  1  0.54845733  0.55555556  0.20833333  1.0
  In  In104  1  0.54845733  0.88888889  0.20833333  1.0
  In  In105  1  0.88179067  0.22222222  0.20833333  1.0
  In  In106  1  0.88179067  0.55555556  0.20833333  1.0
  In  In107  1  0.88179067  0.88888889  0.20833333  1.0
  In  In108  1  0.11820933  0.11111111  0.20833333  1.0
  In  In109  1  0.11820933  0.44444444  0.20833333  1.0
  In  In110  1  0.11820933  0.77777778  0.20833333  1.0
  In  In111  1  0.45154267  0.11111111  0.20833333  1.0
  In  In112  1  0.45154267  0.44444444  0.20833333  1.0
  In  In113  1  0.45154267  0.77777778  0.20833333  1.0
  In  In114  1  0.78487600  0.11111111  0.20833333  1.0
  In  In115  1  0.78487600  0.44444444  0.20833333  1.0
  In  In116  1  0.78487600  0.77777778  0.20833333  1.0
  Ni  Ni117  1  0.04660667  0.22222222  0.20833333  1.0
  Ni  Ni118  1  0.04660667  0.55555556  0.20833333  1.0
  Ni  Ni119  1  0.04660667  0.88888889  0.20833333  1.0
  Ni  Ni120  1  0.37994000  0.22222222  0.20833333  1.0
  Ni  Ni121  1  0.37994000  0.55555556  0.20833333  1.0
  Ni  Ni122  1  0.37994000  0.88888889  0.20833333  1.0
  Ni  Ni123  1  0.71327333  0.22222222  0.20833333  1.0
  Ni  Ni124  1  0.71327333  0.55555556  0.20833333  1.0
  Ni  Ni125  1  0.71327333  0.88888889  0.20833333  1.0
  Ni  Ni126  1  0.28672667  0.11111111  0.20833333  1.0
  Ni  Ni127  1  0.28672667  0.44444444  0.20833333  1.0
  Ni  Ni128  1  0.28672667  0.77777778  0.20833333  1.0
  Ni  Ni129  1  0.62006000  0.11111111  0.20833333  1.0
  Ni  Ni130  1  0.62006000  0.44444444  0.20833333  1.0
  Ni  Ni131  1  0.62006000  0.77777778  0.20833333  1.0
  Ni  Ni132  1  0.95339333  0.11111111  0.20833333  1.0
  Ni  Ni133  1  0.95339333  0.44444444  0.20833333  1.0
  Ni  Ni134  1  0.95339333  0.77777778  0.20833333  1.0
  In  In135  1  0.00000000  0.00000000  0.29166667  1.0
  In  In136  1  0.00000000  0.33333333  0.29166667  1.0
  In  In137  1  0.00000000  0.66666667  0.29166667  1.0
  In  In138  1  0.33333333  0.00000000  0.29166667  1.0
  In  In139  1  0.33333333  0.33333333  0.29166667  1.0
  In  In140  1  0.33333333  0.66666667  0.29166667  1.0
  In  In141  1  0.66666667  0.00000000  0.29166667  1.0
  In  In142  1  0.66666667  0.33333333  0.29166667  1.0
  In  In143  1  0.66666667  0.66666667  0.29166667  1.0
  In  In144  1  0.21512400  0.22222222  0.29166667  1.0
  In  In145  1  0.21512400  0.55555556  0.29166667  1.0
  In  In146  1  0.21512400  0.88888889  0.29166667  1.0
  In  In147  1  0.54845733  0.22222222  0.29166667  1.0
  In  In148  1  0.54845733  0.55555556  0.29166667  1.0
  In  In149  1  0.54845733  0.88888889  0.29166667  1.0
  In  In150  1  0.88179067  0.22222222  0.29166667  1.0
  In  In151  1  0.88179067  0.55555556  0.29166667  1.0
  In  In152  1  0.88179067  0.88888889  0.29166667  1.0
  In  In153  1  0.11820933  0.11111111  0.29166667  1.0
  In  In154  1  0.11820933  0.44444444  0.29166667  1.0
  In  In155  1  0.11820933  0.77777778  0.29166667  1.0
  In  In156  1  0.45154267  0.11111111  0.29166667  1.0
  In  In157  1  0.45154267  0.44444444  0.29166667  1.0
  In  In158  1  0.45154267  0.77777778  0.29166667  1.0
  In  In159  1  0.78487600  0.11111111  0.29166667  1.0
  In  In160  1  0.78487600  0.44444444  0.29166667  1.0
  In  In161  1  0.78487600  0.77777778  0.29166667  1.0
  Ni  Ni162  1  0.04660667  0.22222222  0.29166667  1.0
  Ni  Ni163  1  0.04660667  0.55555556  0.29166667  1.0
  Ni  Ni164  1  0.04660667  0.88888889  0.29166667  1.0
  Ni  Ni165  1  0.37994000  0.22222222  0.29166667  1.0
  Ni  Ni166  1  0.37994000  0.55555556  0.29166667  1.0
  Ni  Ni167  1  0.37994000  0.88888889  0.29166667  1.0
  Ni  Ni168  1  0.71327333  0.22222222  0.29166667  1.0
  Ni  Ni169  1  0.71327333  0.55555556  0.29166667  1.0
  Ni  Ni170  1  0.71327333  0.88888889  0.29166667  1.0
  Ni  Ni171  1  0.28672667  0.11111111  0.29166667  1.0
  Ni  Ni172  1  0.28672667  0.44444444  0.29166667  1.0
  Ni  Ni173  1  0.28672667  0.77777778  0.29166667  1.0
  Ni  Ni174  1  0.62006000  0.11111111  0.29166667  1.0
  Ni  Ni175  1  0.62006000  0.44444444  0.29166667  1.0
  Ni  Ni176  1  0.62006000  0.77777778  0.29166667  1.0
  Ni  Ni177  1  0.95339333  0.11111111  0.29166667  1.0
  Ni  Ni178  1  0.95339333  0.44444444  0.29166667  1.0
  Ni  Ni179  1  0.95339333  0.77777778  0.29166667  1.0
  In  In180  1  0.00000000  0.00000000  0.37500000  1.0
  In  In181  1  0.00000000  0.33333333  0.37500000  1.0
  In  In182  1  0.00000000  0.66666667  0.37500000  1.0
  In  In183  1  0.33333333  0.00000000  0.37500000  1.0
  In  In184  1  0.33333333  0.33333333  0.37500000  1.0
  In  In185  1  0.33333333  0.66666667  0.37500000  1.0
  In  In186  1  0.66666667  0.00000000  0.37500000  1.0
  In  In187  1  0.66666667  0.33333333  0.37500000  1.0
  In  In188  1  0.66666667  0.66666667  0.37500000  1.0
  In  In189  1  0.21512400  0.22222222  0.37500000  1.0
  In  In190  1  0.21512400  0.55555556  0.37500000  1.0
  In  In191  1  0.21512400  0.88888889  0.37500000  1.0
  In  In192  1  0.54845733  0.22222222  0.37500000  1.0
  In  In193  1  0.54845733  0.55555556  0.37500000  1.0
  In  In194  1  0.54845733  0.88888889  0.37500000  1.0
  In  In195  1  0.88179067  0.22222222  0.37500000  1.0
  In  In196  1  0.88179067  0.55555556  0.37500000  1.0
  In  In197  1  0.88179067  0.88888889  0.37500000  1.0
  In  In198  1  0.11820933  0.11111111  0.37500000  1.0
  In  In199  1  0.11820933  0.44444444  0.37500000  1.0
  In  In200  1  0.11820933  0.77777778  0.37500000  1.0
  In  In201  1  0.45154267  0.11111111  0.37500000  1.0
  In  In202  1  0.45154267  0.44444444  0.37500000  1.0
  In  In203  1  0.45154267  0.77777778  0.37500000  1.0
  In  In204  1  0.78487600  0.11111111  0.37500000  1.0
  In  In205  1  0.78487600  0.44444444  0.37500000  1.0
  In  In206  1  0.78487600  0.77777778  0.37500000  1.0
  Ni  Ni207  1  0.04660667  0.22222222  0.37500000  1.0
  Ni  Ni208  1  0.04660667  0.55555556  0.37500000  1.0
  Ni  Ni209  1  0.04660667  0.88888889  0.37500000  1.0
  Ni  Ni210  1  0.37994000  0.22222222  0.37500000  1.0
  Ni  Ni211  1  0.37994000  0.55555556  0.37500000  1.0
  Ni  Ni212  1  0.37994000  0.88888889  0.37500000  1.0
  Ni  Ni213  1  0.71327333  0.22222222  0.37500000  1.0
  Ni  Ni214  1  0.71327333  0.55555556  0.37500000  1.0
  Ni  Ni215  1  0.71327333  0.88888889  0.37500000  1.0
  Ni  Ni216  1  0.28672667  0.11111111  0.37500000  1.0
  Ni  Ni217  1  0.28672667  0.44444444  0.37500000  1.0
  Ni  Ni218  1  0.28672667  0.77777778  0.37500000  1.0
  Ni  Ni219  1  0.62006000  0.11111111  0.37500000  1.0
  Ni  Ni220  1  0.62006000  0.44444444  0.37500000  1.0
  Ni  Ni221  1  0.62006000  0.77777778  0.37500000  1.0
  Ni  Ni222  1  0.95339333  0.11111111  0.37500000  1.0
  Ni  Ni223  1  0.95339333  0.44444444  0.37500000  1.0
  Ni  Ni224  1  0.95339333  0.77777778  0.37500000  1.0
