# generated using pymatgen
data_In3Ni
_symmetry_space_group_name_H-M   'P 1'
_cell_length_a   16.38830871
_cell_length_b   27.20224799
_cell_length_c   49.16492613
_cell_angle_alpha   33.90860903
_cell_angle_beta   133.53371288
_cell_angle_gamma   146.09139097
_symmetry_Int_Tables_number   1
_chemical_formula_structural   In3Ni
_chemical_formula_sum   'In108 Ni36'
_cell_volume   6821.18852189
_cell_formula_units_Z   36
loop_
 _symmetry_equiv_pos_site_id
 _symmetry_equiv_pos_as_xyz
  1  'x, y, z'
loop_
 _atom_site_type_symbol
 _atom_site_label
 _atom_site_symmetry_multiplicity
 _atom_site_fract_x
 _atom_site_fract_y
 _atom_site_fract_z
 _atom_site_occupancy
  In  In0  1  0.16666667  0.25000000  0.02777778  1.0
  In  In1  1  0.16666667  0.58333333  0.02777778  1.0
  In  In2  1  0.16666667  0.91666667  0.02777778  1.0
  In  In3  1  0.50000000  0.25000000  0.02777778  1.0
  In  In4  1  0.50000000  0.58333333  0.02777778  1.0
  In  In5  1  0.50000000  0.91666667  0.02777778  1.0
  In  In6  1  0.83333333  0.25000000  0.02777778  1.0
  In  In7  1  0.83333333  0.58333333  0.02777778  1.0
  In  In8  1  0.83333333  0.91666667  0.02777778  1.0
  In  In9  1  0.16666667  0.08333333  0.02777778  1.0
  In  In10  1  0.16666667  0.41666667  0.02777778  1.0
  In  In11  1  0.16666667  0.75000000  0.02777778  1.0
  In  In12  1  0.50000000  0.08333333  0.02777778  1.0
  In  In13  1  0.50000000  0.41666667  0.02777778  1.0
  In  In14  1  0.50000000  0.75000000  0.02777778  1.0
  In  In15  1  0.83333333  0.08333333  0.02777778  1.0
  In  In16  1  0.83333333  0.41666667  0.02777778  1.0
  In  In17  1  0.83333333  0.75000000  0.02777778  1.0
  In  In18  1  0.00000000  0.16666667  0.08333333  1.0
  In  In19  1  0.00000000  0.50000000  0.08333333  1.0
  In  In20  1  0.00000000  0.83333333  0.08333333  1.0
  In  In21  1  0.33333333  0.16666667  0.08333333  1.0
  In  In22  1  0.33333333  0.50000000  0.08333333  1.0
  In  In23  1  0.33333333  0.83333333  0.08333333  1.0
  In  In24  1  0.66666667  0.16666667  0.08333333  1.0
  In  In25  1  0.66666667  0.50000000  0.08333333  1.0
  In  In26  1  0.66666667  0.83333333  0.08333333  1.0
  Ni  Ni27  1  0.00000000  0.00000000  0.08333333  1.0
  Ni  Ni28  1  0.00000000  0.33333333  0.08333333  1.0
  Ni  Ni29  1  0.00000000  0.66666667  0.08333333  1.0
  Ni  Ni30  1  0.33333333  0.00000000  0.08333333  1.0
  Ni  Ni31  1  0.33333333  0.33333333  0.08333333  1.0
  Ni  Ni32  1  0.33333333  0.66666667  0.08333333  1.0
  Ni  Ni33  1  0.66666667  0.00000000  0.08333333  1.0
  Ni  Ni34  1  0.66666667  0.33333333  0.08333333  1.0
  Ni  Ni35  1  0.66666667  0.66666667  0.08333333  1.0
  In  In36  1  0.16666667  0.25000000  0.13888889  1.0
  In  In37  1  0.16666667  0.58333333  0.13888889  1.0
  In  In38  1  0.16666667  0.91666667  0.13888889  1.0
  In  In39  1  0.50000000  0.25000000  0.13888889  1.0
  In  In40  1  0.50000000  0.58333333  0.13888889  1.0
  In  In41  1  0.50000000  0.91666667  0.13888889  1.0
  In  In42  1  0.83333333  0.25000000  0.13888889  1.0
  In  In43  1  0.83333333  0.58333333  0.13888889  1.0
  In  In44  1  0.83333333  0.91666667  0.13888889  1.0
  In  In45  1  0.16666667  0.08333333  0.13888889  1.0
  In  In46  1  0.16666667  0.41666667  0.13888889  1.0
  In  In47  1  0.16666667  0.75000000  0.13888889  1.0
  In  In48  1  0.50000000  0.08333333  0.13888889  1.0
  In  In49  1  0.50000000  0.41666667  0.13888889  1.0
  In  In50  1  0.50000000  0.75000000  0.13888889  1.0
  In  In51  1  0.83333333  0.08333333  0.13888889  1.0
  In  In52  1  0.83333333  0.41666667  0.13888889  1.0
  In  In53  1  0.83333333  0.75000000  0.13888889  1.0
  In  In54  1  0.00000000  0.16666667  0.19444444  1.0
  In  In55  1  0.00000000  0.50000000  0.19444444  1.0
  In  In56  1  0.00000000  0.83333333  0.19444444  1.0
  In  In57  1  0.33333333  0.16666667  0.19444444  1.0
  In  In58  1  0.33333333  0.50000000  0.19444444  1.0
  In  In59  1  0.33333333  0.83333333  0.19444444  1.0
  In  In60  1  0.66666667  0.16666667  0.19444444  1.0
  In  In61  1  0.66666667  0.50000000  0.19444444  1.0
  In  In62  1  0.66666667  0.83333333  0.19444444  1.0
  Ni  Ni63  1  0.00000000  0.00000000  0.19444444  1.0
  Ni  Ni64  1  0.00000000  0.33333333  0.19444444  1.0
  Ni  Ni65  1  0.00000000  0.66666667  0.19444444  1.0
  Ni  Ni66  1  0.33333333  0.00000000  0.19444444  1.0
  Ni  Ni67  1  0.33333333  0.33333333  0.19444444  1.0
  Ni  Ni68  1  0.33333333  0.66666667  0.19444444  1.0
  Ni  Ni69  1  0.66666667  0.00000000  0.19444444  1.0
  Ni  Ni70  1  0.66666667  0.33333333  0.19444444  1.0
  Ni  Ni71  1  0.66666667  0.66666667  0.19444444  1.0
  In  In72  1  0.16666667  0.25000000  0.25000000  1.0
  In  In73  1  0.16666667  0.58333333  0.25000000  1.0
  In  In74  1  0.16666667  0.91666667  0.25000000  1.0
  In  In75  1  0.50000000  0.25000000  0.25000000  1.0
  In  In76  1  0.50000000  0.58333333  0.25000000  1.0
  In  In77  1  0.50000000  0.91666667  0.25000000  1.0
  In  In78  1  0.83333333  0.25000000  0.25000000  1.0
  In  In79  1  0.83333333  0.58333333  0.25000000  1.0
  In  In80  1  0.83333333  0.91666667  0.25000000  1.0
  In  In81  1  0.16666667  0.08333333  0.25000000  1.0
  In  In82  1  0.16666667  0.41666667  0.25000000  1.0
  In  In83  1  0.16666667  0.75000000  0.25000000  1.0
  In  In84  1  0.50000000  0.08333333  0.25000000  1.0
  In  In85  1  0.50000000  0.41666667  0.25000000  1.0
  In  In86  1  0.50000000  0.75000000  0.25000000  1.0
  In  In87  1  0.83333333  0.08333333  0.25000000  1.0
  In  In88  1  0.83333333  0.41666667  0.25000000  1.0
  In  In89  1  0.83333333  0.75000000  0.25000000  1.0
  In  In90  1  0.00000000  0.16666667  0.30555556  1.0
  In  In91  1  0.00000000  0.50000000  0.30555556  1.0
  In  In92  1  0.00000000  0.83333333  0.30555556  1.0
  In  In93  1  0.33333333  0.16666667  0.30555556  1.0
  In  In94  1  0.33333333  0.50000000  0.30555556  1.0
  In  In95  1  0.33333333  0.83333333  0.30555556  1.0
  In  In96  1  0.66666667  0.16666667  0.30555556  1.0
  In  In97  1  0.66666667  0.50000000  0.30555556  1.0
  In  In98  1  0.66666667  0.83333333  0.30555556  1.0
  Ni  Ni99  1  0.00000000  0.00000000  0.30555556  1.0
  Ni  Ni100  1  0.00000000  0.33333333  0.30555556  1.0
  Ni  Ni101  1  0.00000000  0.66666667  0.30555556  1.0
  Ni  Ni102  1  0.33333333  0.00000000  0.30555556  1.0
  Ni  Ni103  1  0.33333333  0.33333333  0.30555556  1.0
  Ni  Ni104  1  0.33333333  0.66666667  0.30555556  1.0
  Ni  Ni105  1  0.66666667  0.00000000  0.30555556  1.0
  Ni  Ni106  1  0.66666667  0.33333333  0.30555556  1.0
  Ni  Ni107  1  0.66666667  0.66666667  0.30555556  1.0
  In  In108  1  0.16666667  0.25000000  0.36111111  1.0
  In  In109  1  0.16666667  0.58333333  0.36111111  1.0
  In  In110  1  0.16666667  0.91666667  0.36111111  1.0
  In  In111  1  0.50000000  0.25000000  0.36111111  1.0
  In  In112  1  0.50000000  0.58333333  0.36111111  1.0
  In  In113  1  0.50000000  0.91666667  0.36111111  1.0
  In  In114  1  0.83333333  0.25000000  0.36111111  1.0
  In  In115  1  0.83333333  0.58333333  0.36111111  1.0
  In  In116  1  0.83333333  0.91666667  0.36111111  1.0
  In  In117  1  0.16666667  0.08333333  0.36111111  1.0
  In  In118  1  0.16666667  0.41666667  0.36111111  1.0
  In  In119  1  0.16666667  0.75000000  0.36111111  1.0
  In  In120  1  0.50000000  0.08333333  0.36111111  1.0
  In  In121  1  0.50000000  0.41666667  0.36111111  1.0
  In  In122  1  0.50000000  0.75000000  0.36111111  1.0
  In  In123  1  0.83333333  0.08333333  0.36111111  1.0
  In  In124  1  0.83333333  0.41666667  0.36111111  1.0
  In  In125  1  0.83333333  0.75000000  0.36111111  1.0
  In  In126  1  0.00000000  0.16666667  0.41666667  1.0
  In  In127  1  0.00000000  0.50000000  0.41666667  1.0
  In  In128  1  0.00000000  0.83333333  0.41666667  1.0
  In  In129  1  0.33333333  0.16666667  0.41666667  1.0
  In  In130  1  0.33333333  0.50000000  0.41666667  1.0
  In  In131  1  0.33333333  0.83333333  0.41666667  1.0
  In  In132  1  0.66666667  0.16666667  0.41666667  1.0
  In  In133  1  0.66666667  0.50000000  0.41666667  1.0
  In  In134  1  0.66666667  0.83333333  0.41666667  1.0
  Ni  Ni135  1  0.00000000  0.00000000  0.41666667  1.0
  Ni  Ni136  1  0.00000000  0.33333333  0.41666667  1.0
  Ni  Ni137  1  0.00000000  0.66666667  0.41666667  1.0
  Ni  Ni138  1  0.33333333  0.00000000  0.41666667  1.0
  Ni  Ni139  1  0.33333333  0.33333333  0.41666667  1.0
  Ni  Ni140  1  0.33333333  0.66666667  0.41666667  1.0
  Ni  Ni141  1  0.66666667  0.00000000  0.41666667  1.0
  Ni  Ni142  1  0.66666667  0.33333333  0.41666667  1.0
  Ni  Ni143  1  0.66666667  0.66666667  0.41666667  1.0
