# generated using pymatgen
data_In3Ni2
_symmetry_space_group_name_H-M   'P 1'
_cell_length_a   20.80179814
_cell_length_b   28.08322129
_cell_length_c   28.27604509
_cell_angle_alpha   96.73031206
_cell_angle_beta   90.39697560
_cell_angle_gamma   91.19918184
_symmetry_Int_Tables_number   1
_chemical_formula_structural   In3Ni2
_chemical_formula_sum   'In216 Ni144'
_cell_volume   16400.18606011
_cell_formula_units_Z   72
loop_
 _symmetry_equiv_pos_site_id
 _symmetry_equiv_pos_as_xyz
  1  'x, y, z'
loop_
 _atom_site_type_symbol
 _atom_site_label
 _atom_site_symmetry_multiplicity
 _atom_site_fract_x
 _atom_site_fract_y
 _atom_site_fract_z
 _atom_site_occupancy
  In  In0  1  0.27419764  0.08870353  0.91129647  1.0
  In  In1  1  0.27419764  0.42203687  0.91129647  1.0
  In  In2  1  0.27419764  0.75537020  0.91129647  1.0
  In  In3  1  0.60753098  0.08870353  0.91129647  1.0
  In  In4  1  0.60753098  0.42203687  0.91129647  1.0
  In  In5  1  0.60753098  0.75537020  0.91129647  1.0
  In  In6  1  0.94086431  0.08870353  0.91129647  1.0
  In  In7  1  0.94086431  0.42203687  0.91129647  1.0
  In  In8  1  0.94086431  0.75537020  0.91129647  1.0
  In  In9  1  0.14086431  0.20537020  0.96129647  1.0
  In  In10  1  0.14086431  0.53870353  0.96129647  1.0
  In  In11  1  0.14086431  0.87203687  0.96129647  1.0
  In  In12  1  0.47419764  0.20537020  0.96129647  1.0
  In  In13  1  0.47419764  0.53870353  0.96129647  1.0
  In  In14  1  0.47419764  0.87203687  0.96129647  1.0
  In  In15  1  0.80753098  0.20537020  0.96129647  1.0
  In  In16  1  0.80753098  0.53870353  0.96129647  1.0
  In  In17  1  0.80753098  0.87203687  0.96129647  1.0
  In  In18  1  0.26993871  0.30844138  0.91023173  1.0
  In  In19  1  0.26993871  0.64177471  0.91023173  1.0
  In  In20  1  0.26993871  0.97510804  0.91023173  1.0
  In  In21  1  0.60327204  0.30844138  0.91023173  1.0
  In  In22  1  0.60327204  0.64177471  0.91023173  1.0
  In  In23  1  0.60327204  0.97510804  0.91023173  1.0
  In  In24  1  0.93660538  0.30844138  0.91023173  1.0
  In  In25  1  0.93660538  0.64177471  0.91023173  1.0
  In  In26  1  0.93660538  0.97510804  0.91023173  1.0
  In  In27  1  0.13660538  0.09177471  0.96023173  1.0
  In  In28  1  0.13660538  0.42510804  0.96023173  1.0
  In  In29  1  0.13660538  0.75844138  0.96023173  1.0
  In  In30  1  0.46993871  0.09177471  0.96023173  1.0
  In  In31  1  0.46993871  0.42510804  0.96023173  1.0
  In  In32  1  0.46993871  0.75844138  0.96023173  1.0
  In  In33  1  0.80327204  0.09177471  0.96023173  1.0
  In  In34  1  0.80327204  0.42510804  0.96023173  1.0
  In  In35  1  0.80327204  0.75844138  0.96023173  1.0
  In  In36  1  0.27845658  0.20229902  0.91236120  1.0
  In  In37  1  0.27845658  0.53563236  0.91236120  1.0
  In  In38  1  0.27845658  0.86896569  0.91236120  1.0
  In  In39  1  0.61178991  0.20229902  0.91236120  1.0
  In  In40  1  0.61178991  0.53563236  0.91236120  1.0
  In  In41  1  0.61178991  0.86896569  0.91236120  1.0
  In  In42  1  0.94512324  0.20229902  0.91236120  1.0
  In  In43  1  0.94512324  0.53563236  0.91236120  1.0
  In  In44  1  0.94512324  0.86896569  0.91236120  1.0
  In  In45  1  0.14512324  0.31896569  0.96236120  1.0
  In  In46  1  0.14512324  0.65229902  0.96236120  1.0
  In  In47  1  0.14512324  0.98563236  0.96236120  1.0
  In  In48  1  0.47845658  0.31896569  0.96236120  1.0
  In  In49  1  0.47845658  0.65229902  0.96236120  1.0
  In  In50  1  0.47845658  0.98563236  0.96236120  1.0
  In  In51  1  0.81178991  0.31896569  0.96236120  1.0
  In  In52  1  0.81178991  0.65229902  0.96236120  1.0
  In  In53  1  0.81178991  0.98563236  0.96236120  1.0
  In  In54  1  0.20753098  0.18870353  0.81129647  1.0
  In  In55  1  0.20753098  0.52203687  0.81129647  1.0
  In  In56  1  0.20753098  0.85537020  0.81129647  1.0
  In  In57  1  0.54086431  0.18870353  0.81129647  1.0
  In  In58  1  0.54086431  0.52203687  0.81129647  1.0
  In  In59  1  0.54086431  0.85537020  0.81129647  1.0
  In  In60  1  0.87419764  0.18870353  0.81129647  1.0
  In  In61  1  0.87419764  0.52203687  0.81129647  1.0
  In  In62  1  0.87419764  0.85537020  0.81129647  1.0
  In  In63  1  0.07419764  0.30537020  0.86129647  1.0
  In  In64  1  0.07419764  0.63870353  0.86129647  1.0
  In  In65  1  0.07419764  0.97203687  0.86129647  1.0
  In  In66  1  0.40753098  0.30537020  0.86129647  1.0
  In  In67  1  0.40753098  0.63870353  0.86129647  1.0
  In  In68  1  0.40753098  0.97203687  0.86129647  1.0
  In  In69  1  0.74086431  0.30537020  0.86129647  1.0
  In  In70  1  0.74086431  0.63870353  0.86129647  1.0
  In  In71  1  0.74086431  0.97203687  0.86129647  1.0
  In  In72  1  0.20327204  0.07510804  0.81023173  1.0
  In  In73  1  0.20327204  0.40844138  0.81023173  1.0
  In  In74  1  0.20327204  0.74177471  0.81023173  1.0
  In  In75  1  0.53660538  0.07510804  0.81023173  1.0
  In  In76  1  0.53660538  0.40844138  0.81023173  1.0
  In  In77  1  0.53660538  0.74177471  0.81023173  1.0
  In  In78  1  0.86993871  0.07510804  0.81023173  1.0
  In  In79  1  0.86993871  0.40844138  0.81023173  1.0
  In  In80  1  0.86993871  0.74177471  0.81023173  1.0
  In  In81  1  0.06993871  0.19177471  0.86023173  1.0
  In  In82  1  0.06993871  0.52510804  0.86023173  1.0
  In  In83  1  0.06993871  0.85844138  0.86023173  1.0
  In  In84  1  0.40327204  0.19177471  0.86023173  1.0
  In  In85  1  0.40327204  0.52510804  0.86023173  1.0
  In  In86  1  0.40327204  0.85844138  0.86023173  1.0
  In  In87  1  0.73660538  0.19177471  0.86023173  1.0
  In  In88  1  0.73660538  0.52510804  0.86023173  1.0
  In  In89  1  0.73660538  0.85844138  0.86023173  1.0
  In  In90  1  0.21178991  0.30229902  0.81236120  1.0
  In  In91  1  0.21178991  0.63563236  0.81236120  1.0
  In  In92  1  0.21178991  0.96896569  0.81236120  1.0
  In  In93  1  0.54512324  0.30229902  0.81236120  1.0
  In  In94  1  0.54512324  0.63563236  0.81236120  1.0
  In  In95  1  0.54512324  0.96896569  0.81236120  1.0
  In  In96  1  0.87845658  0.30229902  0.81236120  1.0
  In  In97  1  0.87845658  0.63563236  0.81236120  1.0
  In  In98  1  0.87845658  0.96896569  0.81236120  1.0
  In  In99  1  0.07845658  0.08563236  0.86236120  1.0
  In  In100  1  0.07845658  0.41896569  0.86236120  1.0
  In  In101  1  0.07845658  0.75229902  0.86236120  1.0
  In  In102  1  0.41178991  0.08563236  0.86236120  1.0
  In  In103  1  0.41178991  0.41896569  0.86236120  1.0
  In  In104  1  0.41178991  0.75229902  0.86236120  1.0
  In  In105  1  0.74512324  0.08563236  0.86236120  1.0
  In  In106  1  0.74512324  0.41896569  0.86236120  1.0
  In  In107  1  0.74512324  0.75229902  0.86236120  1.0
  In  In108  1  0.14086431  0.28870353  0.71129647  1.0
  In  In109  1  0.14086431  0.62203687  0.71129647  1.0
  In  In110  1  0.14086431  0.95537020  0.71129647  1.0
  In  In111  1  0.47419764  0.28870353  0.71129647  1.0
  In  In112  1  0.47419764  0.62203687  0.71129647  1.0
  In  In113  1  0.47419764  0.95537020  0.71129647  1.0
  In  In114  1  0.80753098  0.28870353  0.71129647  1.0
  In  In115  1  0.80753098  0.62203687  0.71129647  1.0
  In  In116  1  0.80753098  0.95537020  0.71129647  1.0
  In  In117  1  0.00753098  0.07203687  0.76129647  1.0
  In  In118  1  0.00753098  0.40537020  0.76129647  1.0
  In  In119  1  0.00753098  0.73870353  0.76129647  1.0
  In  In120  1  0.34086431  0.07203687  0.76129647  1.0
  In  In121  1  0.34086431  0.40537020  0.76129647  1.0
  In  In122  1  0.34086431  0.73870353  0.76129647  1.0
  In  In123  1  0.67419764  0.07203687  0.76129647  1.0
  In  In124  1  0.67419764  0.40537020  0.76129647  1.0
  In  In125  1  0.67419764  0.73870353  0.76129647  1.0
  In  In126  1  0.13660538  0.17510804  0.71023173  1.0
  In  In127  1  0.13660538  0.50844138  0.71023173  1.0
  In  In128  1  0.13660538  0.84177471  0.71023173  1.0
  In  In129  1  0.46993871  0.17510804  0.71023173  1.0
  In  In130  1  0.46993871  0.50844138  0.71023173  1.0
  In  In131  1  0.46993871  0.84177471  0.71023173  1.0
  In  In132  1  0.80327204  0.17510804  0.71023173  1.0
  In  In133  1  0.80327204  0.50844138  0.71023173  1.0
  In  In134  1  0.80327204  0.84177471  0.71023173  1.0
  In  In135  1  0.00327204  0.29177471  0.76023173  1.0
  In  In136  1  0.00327204  0.62510804  0.76023173  1.0
  In  In137  1  0.00327204  0.95844138  0.76023173  1.0
  In  In138  1  0.33660538  0.29177471  0.76023173  1.0
  In  In139  1  0.33660538  0.62510804  0.76023173  1.0
  In  In140  1  0.33660538  0.95844138  0.76023173  1.0
  In  In141  1  0.66993871  0.29177471  0.76023173  1.0
  In  In142  1  0.66993871  0.62510804  0.76023173  1.0
  In  In143  1  0.66993871  0.95844138  0.76023173  1.0
  In  In144  1  0.14512324  0.06896569  0.71236120  1.0
  In  In145  1  0.14512324  0.40229902  0.71236120  1.0
  In  In146  1  0.14512324  0.73563236  0.71236120  1.0
  In  In147  1  0.47845658  0.06896569  0.71236120  1.0
  In  In148  1  0.47845658  0.40229902  0.71236120  1.0
  In  In149  1  0.47845658  0.73563236  0.71236120  1.0
  In  In150  1  0.81178991  0.06896569  0.71236120  1.0
  In  In151  1  0.81178991  0.40229902  0.71236120  1.0
  In  In152  1  0.81178991  0.73563236  0.71236120  1.0
  In  In153  1  0.01178991  0.18563236  0.76236120  1.0
  In  In154  1  0.01178991  0.51896569  0.76236120  1.0
  In  In155  1  0.01178991  0.85229902  0.76236120  1.0
  In  In156  1  0.34512324  0.18563236  0.76236120  1.0
  In  In157  1  0.34512324  0.51896569  0.76236120  1.0
  In  In158  1  0.34512324  0.85229902  0.76236120  1.0
  In  In159  1  0.67845658  0.18563236  0.76236120  1.0
  In  In160  1  0.67845658  0.51896569  0.76236120  1.0
  In  In161  1  0.67845658  0.85229902  0.76236120  1.0
  In  In162  1  0.07419764  0.05537020  0.61129647  1.0
  In  In163  1  0.07419764  0.38870353  0.61129647  1.0
  In  In164  1  0.07419764  0.72203687  0.61129647  1.0
  In  In165  1  0.40753098  0.05537020  0.61129647  1.0
  In  In166  1  0.40753098  0.38870353  0.61129647  1.0
  In  In167  1  0.40753098  0.72203687  0.61129647  1.0
  In  In168  1  0.74086431  0.05537020  0.61129647  1.0
  In  In169  1  0.74086431  0.38870353  0.61129647  1.0
  In  In170  1  0.74086431  0.72203687  0.61129647  1.0
  In  In171  1  0.27419764  0.17203687  0.66129647  1.0
  In  In172  1  0.27419764  0.50537020  0.66129647  1.0
  In  In173  1  0.27419764  0.83870353  0.66129647  1.0
  In  In174  1  0.60753098  0.17203687  0.66129647  1.0
  In  In175  1  0.60753098  0.50537020  0.66129647  1.0
  In  In176  1  0.60753098  0.83870353  0.66129647  1.0
  In  In177  1  0.94086431  0.17203687  0.66129647  1.0
  In  In178  1  0.94086431  0.50537020  0.66129647  1.0
  In  In179  1  0.94086431  0.83870353  0.66129647  1.0
  In  In180  1  0.06993871  0.27510804  0.61023173  1.0
  In  In181  1  0.06993871  0.60844138  0.61023173  1.0
  In  In182  1  0.06993871  0.94177471  0.61023173  1.0
  In  In183  1  0.40327204  0.27510804  0.61023173  1.0
  In  In184  1  0.40327204  0.60844138  0.61023173  1.0
  In  In185  1  0.40327204  0.94177471  0.61023173  1.0
  In  In186  1  0.73660538  0.27510804  0.61023173  1.0
  In  In187  1  0.73660538  0.60844138  0.61023173  1.0
  In  In188  1  0.73660538  0.94177471  0.61023173  1.0
  In  In189  1  0.26993871  0.05844138  0.66023173  1.0
  In  In190  1  0.26993871  0.39177471  0.66023173  1.0
  In  In191  1  0.26993871  0.72510804  0.66023173  1.0
  In  In192  1  0.60327204  0.05844138  0.66023173  1.0
  In  In193  1  0.60327204  0.39177471  0.66023173  1.0
  In  In194  1  0.60327204  0.72510804  0.66023173  1.0
  In  In195  1  0.93660538  0.05844138  0.66023173  1.0
  In  In196  1  0.93660538  0.39177471  0.66023173  1.0
  In  In197  1  0.93660538  0.72510804  0.66023173  1.0
  In  In198  1  0.07845658  0.16896569  0.61236120  1.0
  In  In199  1  0.07845658  0.50229902  0.61236120  1.0
  In  In200  1  0.07845658  0.83563236  0.61236120  1.0
  In  In201  1  0.41178991  0.16896569  0.61236120  1.0
  In  In202  1  0.41178991  0.50229902  0.61236120  1.0
  In  In203  1  0.41178991  0.83563236  0.61236120  1.0
  In  In204  1  0.74512324  0.16896569  0.61236120  1.0
  In  In205  1  0.74512324  0.50229902  0.61236120  1.0
  In  In206  1  0.74512324  0.83563236  0.61236120  1.0
  In  In207  1  0.27845658  0.28563236  0.66236120  1.0
  In  In208  1  0.27845658  0.61896569  0.66236120  1.0
  In  In209  1  0.27845658  0.95229902  0.66236120  1.0
  In  In210  1  0.61178991  0.28563236  0.66236120  1.0
  In  In211  1  0.61178991  0.61896569  0.66236120  1.0
  In  In212  1  0.61178991  0.95229902  0.66236120  1.0
  In  In213  1  0.94512324  0.28563236  0.66236120  1.0
  In  In214  1  0.94512324  0.61896569  0.66236120  1.0
  In  In215  1  0.94512324  0.95229902  0.66236120  1.0
  Ni  Ni216  1  0.23549498  0.14946031  0.98495413  1.0
  Ni  Ni217  1  0.23549498  0.48279364  0.98495413  1.0
  Ni  Ni218  1  0.23549498  0.81612698  0.98495413  1.0
  Ni  Ni219  1  0.56882831  0.14946031  0.98495413  1.0
  Ni  Ni220  1  0.56882831  0.48279364  0.98495413  1.0
  Ni  Ni221  1  0.56882831  0.81612698  0.98495413  1.0
  Ni  Ni222  1  0.90216164  0.14946031  0.98495413  1.0
  Ni  Ni223  1  0.90216164  0.48279364  0.98495413  1.0
  Ni  Ni224  1  0.90216164  0.81612698  0.98495413  1.0
  Ni  Ni225  1  0.03549498  0.03279364  0.93495413  1.0
  Ni  Ni226  1  0.03549498  0.36612698  0.93495413  1.0
  Ni  Ni227  1  0.03549498  0.69946031  0.93495413  1.0
  Ni  Ni228  1  0.36882831  0.03279364  0.93495413  1.0
  Ni  Ni229  1  0.36882831  0.36612698  0.93495413  1.0
  Ni  Ni230  1  0.36882831  0.69946031  0.93495413  1.0
  Ni  Ni231  1  0.70216164  0.03279364  0.93495413  1.0
  Ni  Ni232  1  0.70216164  0.36612698  0.93495413  1.0
  Ni  Ni233  1  0.70216164  0.69946031  0.93495413  1.0
  Ni  Ni234  1  0.04623364  0.26128009  0.93763880  1.0
  Ni  Ni235  1  0.04623364  0.59461342  0.93763880  1.0
  Ni  Ni236  1  0.04623364  0.92794676  0.93763880  1.0
  Ni  Ni237  1  0.37956698  0.26128009  0.93763880  1.0
  Ni  Ni238  1  0.37956698  0.59461342  0.93763880  1.0
  Ni  Ni239  1  0.37956698  0.92794676  0.93763880  1.0
  Ni  Ni240  1  0.71290031  0.26128009  0.93763880  1.0
  Ni  Ni241  1  0.71290031  0.59461342  0.93763880  1.0
  Ni  Ni242  1  0.71290031  0.92794676  0.93763880  1.0
  Ni  Ni243  1  0.24623364  0.04461342  0.98763880  1.0
  Ni  Ni244  1  0.24623364  0.37794676  0.98763880  1.0
  Ni  Ni245  1  0.24623364  0.71128009  0.98763880  1.0
  Ni  Ni246  1  0.57956698  0.04461342  0.98763880  1.0
  Ni  Ni247  1  0.57956698  0.37794676  0.98763880  1.0
  Ni  Ni248  1  0.57956698  0.71128009  0.98763880  1.0
  Ni  Ni249  1  0.91290031  0.04461342  0.98763880  1.0
  Ni  Ni250  1  0.91290031  0.37794676  0.98763880  1.0
  Ni  Ni251  1  0.91290031  0.71128009  0.98763880  1.0
  Ni  Ni252  1  0.16882831  0.24946031  0.88495413  1.0
  Ni  Ni253  1  0.16882831  0.58279364  0.88495413  1.0
  Ni  Ni254  1  0.16882831  0.91612698  0.88495413  1.0
  Ni  Ni255  1  0.50216164  0.24946031  0.88495413  1.0
  Ni  Ni256  1  0.50216164  0.58279364  0.88495413  1.0
  Ni  Ni257  1  0.50216164  0.91612698  0.88495413  1.0
  Ni  Ni258  1  0.83549498  0.24946031  0.88495413  1.0
  Ni  Ni259  1  0.83549498  0.58279364  0.88495413  1.0
  Ni  Ni260  1  0.83549498  0.91612698  0.88495413  1.0
  Ni  Ni261  1  0.30216164  0.13279364  0.83495413  1.0
  Ni  Ni262  1  0.30216164  0.46612698  0.83495413  1.0
  Ni  Ni263  1  0.30216164  0.79946031  0.83495413  1.0
  Ni  Ni264  1  0.63549498  0.13279364  0.83495413  1.0
  Ni  Ni265  1  0.63549498  0.46612698  0.83495413  1.0
  Ni  Ni266  1  0.63549498  0.79946031  0.83495413  1.0
  Ni  Ni267  1  0.96882831  0.13279364  0.83495413  1.0
  Ni  Ni268  1  0.96882831  0.46612698  0.83495413  1.0
  Ni  Ni269  1  0.96882831  0.79946031  0.83495413  1.0
  Ni  Ni270  1  0.31290031  0.02794676  0.83763880  1.0
  Ni  Ni271  1  0.31290031  0.36128009  0.83763880  1.0
  Ni  Ni272  1  0.31290031  0.69461342  0.83763880  1.0
  Ni  Ni273  1  0.64623364  0.02794676  0.83763880  1.0
  Ni  Ni274  1  0.64623364  0.36128009  0.83763880  1.0
  Ni  Ni275  1  0.64623364  0.69461342  0.83763880  1.0
  Ni  Ni276  1  0.97956698  0.02794676  0.83763880  1.0
  Ni  Ni277  1  0.97956698  0.36128009  0.83763880  1.0
  Ni  Ni278  1  0.97956698  0.69461342  0.83763880  1.0
  Ni  Ni279  1  0.17956698  0.14461342  0.88763880  1.0
  Ni  Ni280  1  0.17956698  0.47794676  0.88763880  1.0
  Ni  Ni281  1  0.17956698  0.81128009  0.88763880  1.0
  Ni  Ni282  1  0.51290031  0.14461342  0.88763880  1.0
  Ni  Ni283  1  0.51290031  0.47794676  0.88763880  1.0
  Ni  Ni284  1  0.51290031  0.81128009  0.88763880  1.0
  Ni  Ni285  1  0.84623364  0.14461342  0.88763880  1.0
  Ni  Ni286  1  0.84623364  0.47794676  0.88763880  1.0
  Ni  Ni287  1  0.84623364  0.81128009  0.88763880  1.0
  Ni  Ni288  1  0.10216164  0.01612698  0.78495413  1.0
  Ni  Ni289  1  0.10216164  0.34946031  0.78495413  1.0
  Ni  Ni290  1  0.10216164  0.68279364  0.78495413  1.0
  Ni  Ni291  1  0.43549498  0.01612698  0.78495413  1.0
  Ni  Ni292  1  0.43549498  0.34946031  0.78495413  1.0
  Ni  Ni293  1  0.43549498  0.68279364  0.78495413  1.0
  Ni  Ni294  1  0.76882831  0.01612698  0.78495413  1.0
  Ni  Ni295  1  0.76882831  0.34946031  0.78495413  1.0
  Ni  Ni296  1  0.76882831  0.68279364  0.78495413  1.0
  Ni  Ni297  1  0.23549498  0.23279364  0.73495413  1.0
  Ni  Ni298  1  0.23549498  0.56612698  0.73495413  1.0
  Ni  Ni299  1  0.23549498  0.89946031  0.73495413  1.0
  Ni  Ni300  1  0.56882831  0.23279364  0.73495413  1.0
  Ni  Ni301  1  0.56882831  0.56612698  0.73495413  1.0
  Ni  Ni302  1  0.56882831  0.89946031  0.73495413  1.0
  Ni  Ni303  1  0.90216164  0.23279364  0.73495413  1.0
  Ni  Ni304  1  0.90216164  0.56612698  0.73495413  1.0
  Ni  Ni305  1  0.90216164  0.89946031  0.73495413  1.0
  Ni  Ni306  1  0.24623364  0.12794676  0.73763880  1.0
  Ni  Ni307  1  0.24623364  0.46128009  0.73763880  1.0
  Ni  Ni308  1  0.24623364  0.79461342  0.73763880  1.0
  Ni  Ni309  1  0.57956698  0.12794676  0.73763880  1.0
  Ni  Ni310  1  0.57956698  0.46128009  0.73763880  1.0
  Ni  Ni311  1  0.57956698  0.79461342  0.73763880  1.0
  Ni  Ni312  1  0.91290031  0.12794676  0.73763880  1.0
  Ni  Ni313  1  0.91290031  0.46128009  0.73763880  1.0
  Ni  Ni314  1  0.91290031  0.79461342  0.73763880  1.0
  Ni  Ni315  1  0.11290031  0.24461342  0.78763880  1.0
  Ni  Ni316  1  0.11290031  0.57794676  0.78763880  1.0
  Ni  Ni317  1  0.11290031  0.91128009  0.78763880  1.0
  Ni  Ni318  1  0.44623364  0.24461342  0.78763880  1.0
  Ni  Ni319  1  0.44623364  0.57794676  0.78763880  1.0
  Ni  Ni320  1  0.44623364  0.91128009  0.78763880  1.0
  Ni  Ni321  1  0.77956698  0.24461342  0.78763880  1.0
  Ni  Ni322  1  0.77956698  0.57794676  0.78763880  1.0
  Ni  Ni323  1  0.77956698  0.91128009  0.78763880  1.0
  Ni  Ni324  1  0.03549498  0.11612698  0.68495413  1.0
  Ni  Ni325  1  0.03549498  0.44946031  0.68495413  1.0
  Ni  Ni326  1  0.03549498  0.78279364  0.68495413  1.0
  Ni  Ni327  1  0.36882831  0.11612698  0.68495413  1.0
  Ni  Ni328  1  0.36882831  0.44946031  0.68495413  1.0
  Ni  Ni329  1  0.36882831  0.78279364  0.68495413  1.0
  Ni  Ni330  1  0.70216164  0.11612698  0.68495413  1.0
  Ni  Ni331  1  0.70216164  0.44946031  0.68495413  1.0
  Ni  Ni332  1  0.70216164  0.78279364  0.68495413  1.0
  Ni  Ni333  1  0.16882831  0.33279364  0.63495413  1.0
  Ni  Ni334  1  0.16882831  0.66612698  0.63495413  1.0
  Ni  Ni335  1  0.16882831  0.99946031  0.63495413  1.0
  Ni  Ni336  1  0.50216164  0.33279364  0.63495413  1.0
  Ni  Ni337  1  0.50216164  0.66612698  0.63495413  1.0
  Ni  Ni338  1  0.50216164  0.99946031  0.63495413  1.0
  Ni  Ni339  1  0.83549498  0.33279364  0.63495413  1.0
  Ni  Ni340  1  0.83549498  0.66612698  0.63495413  1.0
  Ni  Ni341  1  0.83549498  0.99946031  0.63495413  1.0
  Ni  Ni342  1  0.17956698  0.22794676  0.63763880  1.0
  Ni  Ni343  1  0.17956698  0.56128009  0.63763880  1.0
  Ni  Ni344  1  0.17956698  0.89461342  0.63763880  1.0
  Ni  Ni345  1  0.51290031  0.22794676  0.63763880  1.0
  Ni  Ni346  1  0.51290031  0.56128009  0.63763880  1.0
  Ni  Ni347  1  0.51290031  0.89461342  0.63763880  1.0
  Ni  Ni348  1  0.84623364  0.22794676  0.63763880  1.0
  Ni  Ni349  1  0.84623364  0.56128009  0.63763880  1.0
  Ni  Ni350  1  0.84623364  0.89461342  0.63763880  1.0
  Ni  Ni351  1  0.04623364  0.01128009  0.68763880  1.0
  Ni  Ni352  1  0.04623364  0.34461342  0.68763880  1.0
  Ni  Ni353  1  0.04623364  0.67794676  0.68763880  1.0
  Ni  Ni354  1  0.37956698  0.01128009  0.68763880  1.0
  Ni  Ni355  1  0.37956698  0.34461342  0.68763880  1.0
  Ni  Ni356  1  0.37956698  0.67794676  0.68763880  1.0
  Ni  Ni357  1  0.71290031  0.01128009  0.68763880  1.0
  Ni  Ni358  1  0.71290031  0.34461342  0.68763880  1.0
  Ni  Ni359  1  0.71290031  0.67794676  0.68763880  1.0
