# generated using pymatgen
data_In3Ni
_symmetry_space_group_name_H-M   'P 1'
_cell_length_a   18.76361301
_cell_length_b   22.98063880
_cell_length_c   29.00109811
_cell_angle_alpha   95.05115253
_cell_angle_beta   90.00000000
_cell_angle_gamma   90.00000000
_symmetry_Int_Tables_number   1
_chemical_formula_structural   In3Ni
_chemical_formula_sum   'In162 Ni54'
_cell_volume   12456.70375919
_cell_formula_units_Z   54
loop_
 _symmetry_equiv_pos_site_id
 _symmetry_equiv_pos_as_xyz
  1  'x, y, z'
loop_
 _atom_site_type_symbol
 _atom_site_label
 _atom_site_symmetry_multiplicity
 _atom_site_fract_x
 _atom_site_fract_y
 _atom_site_fract_z
 _atom_site_occupancy
  In  In0  1  0.00000000  0.11979167  0.95312500  1.0
  In  In1  1  0.00000000  0.45312500  0.95312500  1.0
  In  In2  1  0.00000000  0.78645833  0.95312500  1.0
  In  In3  1  0.33333333  0.11979167  0.95312500  1.0
  In  In4  1  0.33333333  0.45312500  0.95312500  1.0
  In  In5  1  0.33333333  0.78645833  0.95312500  1.0
  In  In6  1  0.66666667  0.11979167  0.95312500  1.0
  In  In7  1  0.66666667  0.45312500  0.95312500  1.0
  In  In8  1  0.66666667  0.78645833  0.95312500  1.0
  In  In9  1  0.16666667  0.22395833  0.89062500  1.0
  In  In10  1  0.16666667  0.55729167  0.89062500  1.0
  In  In11  1  0.16666667  0.89062500  0.89062500  1.0
  In  In12  1  0.50000000  0.22395833  0.89062500  1.0
  In  In13  1  0.50000000  0.55729167  0.89062500  1.0
  In  In14  1  0.50000000  0.89062500  0.89062500  1.0
  In  In15  1  0.83333333  0.22395833  0.89062500  1.0
  In  In16  1  0.83333333  0.55729167  0.89062500  1.0
  In  In17  1  0.83333333  0.89062500  0.89062500  1.0
  In  In18  1  0.08333333  0.00520833  0.92187500  1.0
  In  In19  1  0.08333333  0.33854167  0.92187500  1.0
  In  In20  1  0.08333333  0.67187500  0.92187500  1.0
  In  In21  1  0.41666667  0.00520833  0.92187500  1.0
  In  In22  1  0.41666667  0.33854167  0.92187500  1.0
  In  In23  1  0.41666667  0.67187500  0.92187500  1.0
  In  In24  1  0.75000000  0.00520833  0.92187500  1.0
  In  In25  1  0.75000000  0.33854167  0.92187500  1.0
  In  In26  1  0.75000000  0.67187500  0.92187500  1.0
  In  In27  1  0.25000000  0.23437500  0.98437500  1.0
  In  In28  1  0.25000000  0.56770833  0.98437500  1.0
  In  In29  1  0.25000000  0.90104167  0.98437500  1.0
  In  In30  1  0.58333333  0.23437500  0.98437500  1.0
  In  In31  1  0.58333333  0.56770833  0.98437500  1.0
  In  In32  1  0.58333333  0.90104167  0.98437500  1.0
  In  In33  1  0.91666667  0.23437500  0.98437500  1.0
  In  In34  1  0.91666667  0.56770833  0.98437500  1.0
  In  In35  1  0.91666667  0.90104167  0.98437500  1.0
  In  In36  1  0.25000000  0.00520833  0.92187500  1.0
  In  In37  1  0.25000000  0.33854167  0.92187500  1.0
  In  In38  1  0.25000000  0.67187500  0.92187500  1.0
  In  In39  1  0.58333333  0.00520833  0.92187500  1.0
  In  In40  1  0.58333333  0.33854167  0.92187500  1.0
  In  In41  1  0.58333333  0.67187500  0.92187500  1.0
  In  In42  1  0.91666667  0.00520833  0.92187500  1.0
  In  In43  1  0.91666667  0.33854167  0.92187500  1.0
  In  In44  1  0.91666667  0.67187500  0.92187500  1.0
  In  In45  1  0.08333333  0.23437500  0.98437500  1.0
  In  In46  1  0.08333333  0.56770833  0.98437500  1.0
  In  In47  1  0.08333333  0.90104167  0.98437500  1.0
  In  In48  1  0.41666667  0.23437500  0.98437500  1.0
  In  In49  1  0.41666667  0.56770833  0.98437500  1.0
  In  In50  1  0.41666667  0.90104167  0.98437500  1.0
  In  In51  1  0.75000000  0.23437500  0.98437500  1.0
  In  In52  1  0.75000000  0.56770833  0.98437500  1.0
  In  In53  1  0.75000000  0.90104167  0.98437500  1.0
  In  In54  1  0.00000000  0.32812500  0.82812500  1.0
  In  In55  1  0.00000000  0.66145833  0.82812500  1.0
  In  In56  1  0.00000000  0.99479167  0.82812500  1.0
  In  In57  1  0.33333333  0.32812500  0.82812500  1.0
  In  In58  1  0.33333333  0.66145833  0.82812500  1.0
  In  In59  1  0.33333333  0.99479167  0.82812500  1.0
  In  In60  1  0.66666667  0.32812500  0.82812500  1.0
  In  In61  1  0.66666667  0.66145833  0.82812500  1.0
  In  In62  1  0.66666667  0.99479167  0.82812500  1.0
  In  In63  1  0.16666667  0.09895833  0.76562500  1.0
  In  In64  1  0.16666667  0.43229167  0.76562500  1.0
  In  In65  1  0.16666667  0.76562500  0.76562500  1.0
  In  In66  1  0.50000000  0.09895833  0.76562500  1.0
  In  In67  1  0.50000000  0.43229167  0.76562500  1.0
  In  In68  1  0.50000000  0.76562500  0.76562500  1.0
  In  In69  1  0.83333333  0.09895833  0.76562500  1.0
  In  In70  1  0.83333333  0.43229167  0.76562500  1.0
  In  In71  1  0.83333333  0.76562500  0.76562500  1.0
  In  In72  1  0.08333333  0.21354167  0.79687500  1.0
  In  In73  1  0.08333333  0.54687500  0.79687500  1.0
  In  In74  1  0.08333333  0.88020833  0.79687500  1.0
  In  In75  1  0.41666667  0.21354167  0.79687500  1.0
  In  In76  1  0.41666667  0.54687500  0.79687500  1.0
  In  In77  1  0.41666667  0.88020833  0.79687500  1.0
  In  In78  1  0.75000000  0.21354167  0.79687500  1.0
  In  In79  1  0.75000000  0.54687500  0.79687500  1.0
  In  In80  1  0.75000000  0.88020833  0.79687500  1.0
  In  In81  1  0.25000000  0.10937500  0.85937500  1.0
  In  In82  1  0.25000000  0.44270833  0.85937500  1.0
  In  In83  1  0.25000000  0.77604167  0.85937500  1.0
  In  In84  1  0.58333333  0.10937500  0.85937500  1.0
  In  In85  1  0.58333333  0.44270833  0.85937500  1.0
  In  In86  1  0.58333333  0.77604167  0.85937500  1.0
  In  In87  1  0.91666667  0.10937500  0.85937500  1.0
  In  In88  1  0.91666667  0.44270833  0.85937500  1.0
  In  In89  1  0.91666667  0.77604167  0.85937500  1.0
  In  In90  1  0.25000000  0.21354167  0.79687500  1.0
  In  In91  1  0.25000000  0.54687500  0.79687500  1.0
  In  In92  1  0.25000000  0.88020833  0.79687500  1.0
  In  In93  1  0.58333333  0.21354167  0.79687500  1.0
  In  In94  1  0.58333333  0.54687500  0.79687500  1.0
  In  In95  1  0.58333333  0.88020833  0.79687500  1.0
  In  In96  1  0.91666667  0.21354167  0.79687500  1.0
  In  In97  1  0.91666667  0.54687500  0.79687500  1.0
  In  In98  1  0.91666667  0.88020833  0.79687500  1.0
  In  In99  1  0.08333333  0.10937500  0.85937500  1.0
  In  In100  1  0.08333333  0.44270833  0.85937500  1.0
  In  In101  1  0.08333333  0.77604167  0.85937500  1.0
  In  In102  1  0.41666667  0.10937500  0.85937500  1.0
  In  In103  1  0.41666667  0.44270833  0.85937500  1.0
  In  In104  1  0.41666667  0.77604167  0.85937500  1.0
  In  In105  1  0.75000000  0.10937500  0.85937500  1.0
  In  In106  1  0.75000000  0.44270833  0.85937500  1.0
  In  In107  1  0.75000000  0.77604167  0.85937500  1.0
  In  In108  1  0.33333333  0.20312500  0.70312500  1.0
  In  In109  1  0.33333333  0.53645833  0.70312500  1.0
  In  In110  1  0.33333333  0.86979167  0.70312500  1.0
  In  In111  1  0.66666667  0.20312500  0.70312500  1.0
  In  In112  1  0.66666667  0.53645833  0.70312500  1.0
  In  In113  1  0.66666667  0.86979167  0.70312500  1.0
  In  In114  1  0.00000000  0.20312500  0.70312500  1.0
  In  In115  1  0.00000000  0.53645833  0.70312500  1.0
  In  In116  1  0.00000000  0.86979167  0.70312500  1.0
  In  In117  1  0.16666667  0.30729167  0.64062500  1.0
  In  In118  1  0.16666667  0.64062500  0.64062500  1.0
  In  In119  1  0.16666667  0.97395833  0.64062500  1.0
  In  In120  1  0.50000000  0.30729167  0.64062500  1.0
  In  In121  1  0.50000000  0.64062500  0.64062500  1.0
  In  In122  1  0.50000000  0.97395833  0.64062500  1.0
  In  In123  1  0.83333333  0.30729167  0.64062500  1.0
  In  In124  1  0.83333333  0.64062500  0.64062500  1.0
  In  In125  1  0.83333333  0.97395833  0.64062500  1.0
  In  In126  1  0.08333333  0.08854167  0.67187500  1.0
  In  In127  1  0.08333333  0.42187500  0.67187500  1.0
  In  In128  1  0.08333333  0.75520833  0.67187500  1.0
  In  In129  1  0.41666667  0.08854167  0.67187500  1.0
  In  In130  1  0.41666667  0.42187500  0.67187500  1.0
  In  In131  1  0.41666667  0.75520833  0.67187500  1.0
  In  In132  1  0.75000000  0.08854167  0.67187500  1.0
  In  In133  1  0.75000000  0.42187500  0.67187500  1.0
  In  In134  1  0.75000000  0.75520833  0.67187500  1.0
  In  In135  1  0.25000000  0.31770833  0.73437500  1.0
  In  In136  1  0.25000000  0.65104167  0.73437500  1.0
  In  In137  1  0.25000000  0.98437500  0.73437500  1.0
  In  In138  1  0.58333333  0.31770833  0.73437500  1.0
  In  In139  1  0.58333333  0.65104167  0.73437500  1.0
  In  In140  1  0.58333333  0.98437500  0.73437500  1.0
  In  In141  1  0.91666667  0.31770833  0.73437500  1.0
  In  In142  1  0.91666667  0.65104167  0.73437500  1.0
  In  In143  1  0.91666667  0.98437500  0.73437500  1.0
  In  In144  1  0.25000000  0.08854167  0.67187500  1.0
  In  In145  1  0.25000000  0.42187500  0.67187500  1.0
  In  In146  1  0.25000000  0.75520833  0.67187500  1.0
  In  In147  1  0.58333333  0.08854167  0.67187500  1.0
  In  In148  1  0.58333333  0.42187500  0.67187500  1.0
  In  In149  1  0.58333333  0.75520833  0.67187500  1.0
  In  In150  1  0.91666667  0.08854167  0.67187500  1.0
  In  In151  1  0.91666667  0.42187500  0.67187500  1.0
  In  In152  1  0.91666667  0.75520833  0.67187500  1.0
  In  In153  1  0.08333333  0.31770833  0.73437500  1.0
  In  In154  1  0.08333333  0.65104167  0.73437500  1.0
  In  In155  1  0.08333333  0.98437500  0.73437500  1.0
  In  In156  1  0.41666667  0.31770833  0.73437500  1.0
  In  In157  1  0.41666667  0.65104167  0.73437500  1.0
  In  In158  1  0.41666667  0.98437500  0.73437500  1.0
  In  In159  1  0.75000000  0.31770833  0.73437500  1.0
  In  In160  1  0.75000000  0.65104167  0.73437500  1.0
  In  In161  1  0.75000000  0.98437500  0.73437500  1.0
  Ni  Ni162  1  0.33333333  0.22395833  0.89062500  1.0
  Ni  Ni163  1  0.33333333  0.55729167  0.89062500  1.0
  Ni  Ni164  1  0.33333333  0.89062500  0.89062500  1.0
  Ni  Ni165  1  0.66666667  0.22395833  0.89062500  1.0
  Ni  Ni166  1  0.66666667  0.55729167  0.89062500  1.0
  Ni  Ni167  1  0.66666667  0.89062500  0.89062500  1.0
  Ni  Ni168  1  0.00000000  0.22395833  0.89062500  1.0
  Ni  Ni169  1  0.00000000  0.55729167  0.89062500  1.0
  Ni  Ni170  1  0.00000000  0.89062500  0.89062500  1.0
  Ni  Ni171  1  0.16666667  0.11979167  0.95312500  1.0
  Ni  Ni172  1  0.16666667  0.45312500  0.95312500  1.0
  Ni  Ni173  1  0.16666667  0.78645833  0.95312500  1.0
  Ni  Ni174  1  0.50000000  0.11979167  0.95312500  1.0
  Ni  Ni175  1  0.50000000  0.45312500  0.95312500  1.0
  Ni  Ni176  1  0.50000000  0.78645833  0.95312500  1.0
  Ni  Ni177  1  0.83333333  0.11979167  0.95312500  1.0
  Ni  Ni178  1  0.83333333  0.45312500  0.95312500  1.0
  Ni  Ni179  1  0.83333333  0.78645833  0.95312500  1.0
  Ni  Ni180  1  0.33333333  0.09895833  0.76562500  1.0
  Ni  Ni181  1  0.33333333  0.43229167  0.76562500  1.0
  Ni  Ni182  1  0.33333333  0.76562500  0.76562500  1.0
  Ni  Ni183  1  0.66666667  0.09895833  0.76562500  1.0
  Ni  Ni184  1  0.66666667  0.43229167  0.76562500  1.0
  Ni  Ni185  1  0.66666667  0.76562500  0.76562500  1.0
  Ni  Ni186  1  0.00000000  0.09895833  0.76562500  1.0
  Ni  Ni187  1  1.00000000  0.43229167  0.76562500  1.0
  Ni  Ni188  1  1.00000000  0.76562500  0.76562500  1.0
  Ni  Ni189  1  0.16666667  0.32812500  0.82812500  1.0
  Ni  Ni190  1  0.16666667  0.66145833  0.82812500  1.0
  Ni  Ni191  1  0.16666667  0.99479167  0.82812500  1.0
  Ni  Ni192  1  0.50000000  0.32812500  0.82812500  1.0
  Ni  Ni193  1  0.50000000  0.66145833  0.82812500  1.0
  Ni  Ni194  1  0.50000000  0.99479167  0.82812500  1.0
  Ni  Ni195  1  0.83333333  0.32812500  0.82812500  1.0
  Ni  Ni196  1  0.83333333  0.66145833  0.82812500  1.0
  Ni  Ni197  1  0.83333333  0.99479167  0.82812500  1.0
  Ni  Ni198  1  0.33333333  0.30729167  0.64062500  1.0
  Ni  Ni199  1  0.33333333  0.64062500  0.64062500  1.0
  Ni  Ni200  1  0.33333333  0.97395833  0.64062500  1.0
  Ni  Ni201  1  0.66666667  0.30729167  0.64062500  1.0
  Ni  Ni202  1  0.66666667  0.64062500  0.64062500  1.0
  Ni  Ni203  1  0.66666667  0.97395833  0.64062500  1.0
  Ni  Ni204  1  1.00000000  0.30729167  0.64062500  1.0
  Ni  Ni205  1  0.00000000  0.64062500  0.64062500  1.0
  Ni  Ni206  1  0.00000000  0.97395833  0.64062500  1.0
  Ni  Ni207  1  0.16666667  0.20312500  0.70312500  1.0
  Ni  Ni208  1  0.16666667  0.53645833  0.70312500  1.0
  Ni  Ni209  1  0.16666667  0.86979167  0.70312500  1.0
  Ni  Ni210  1  0.50000000  0.20312500  0.70312500  1.0
  Ni  Ni211  1  0.50000000  0.53645833  0.70312500  1.0
  Ni  Ni212  1  0.50000000  0.86979167  0.70312500  1.0
  Ni  Ni213  1  0.83333333  0.20312500  0.70312500  1.0
  Ni  Ni214  1  0.83333333  0.53645833  0.70312500  1.0
  Ni  Ni215  1  0.83333333  0.86979167  0.70312500  1.0
