# generated using pymatgen
data_In3Ni
_symmetry_space_group_name_H-M   'P 1'
_cell_length_a   18.28508556
_cell_length_b   12.92950799
_cell_length_c   38.23938699
_cell_angle_alpha   113.23314356
_cell_angle_beta   123.90860903
_cell_angle_gamma   45.00000000
_symmetry_Int_Tables_number   1
_chemical_formula_structural   In3Ni
_chemical_formula_sum   'In81 Ni27'
_cell_volume   5305.36885036
_cell_formula_units_Z   27
loop_
 _symmetry_equiv_pos_site_id
 _symmetry_equiv_pos_as_xyz
  1  'x, y, z'
loop_
 _atom_site_type_symbol
 _atom_site_label
 _atom_site_symmetry_multiplicity
 _atom_site_fract_x
 _atom_site_fract_y
 _atom_site_fract_z
 _atom_site_occupancy
  In  In0  1  0.25000000  0.16666667  0.03571429  1.0
  In  In1  1  0.25000000  0.50000000  0.03571429  1.0
  In  In2  1  0.25000000  0.83333333  0.03571429  1.0
  In  In3  1  0.58333333  0.16666667  0.03571429  1.0
  In  In4  1  0.58333333  0.50000000  0.03571429  1.0
  In  In5  1  0.58333333  0.83333333  0.03571429  1.0
  In  In6  1  0.91666667  0.16666667  0.03571429  1.0
  In  In7  1  0.91666667  0.50000000  0.03571429  1.0
  In  In8  1  0.91666667  0.83333333  0.03571429  1.0
  In  In9  1  0.08333333  0.16666667  0.03571429  1.0
  In  In10  1  0.08333333  0.50000000  0.03571429  1.0
  In  In11  1  0.08333333  0.83333333  0.03571429  1.0
  In  In12  1  0.41666667  0.16666667  0.03571429  1.0
  In  In13  1  0.41666667  0.50000000  0.03571429  1.0
  In  In14  1  0.41666667  0.83333333  0.03571429  1.0
  In  In15  1  0.75000000  0.16666667  0.03571429  1.0
  In  In16  1  0.75000000  0.50000000  0.03571429  1.0
  In  In17  1  0.75000000  0.83333333  0.03571429  1.0
  In  In18  1  0.16666667  0.00000000  0.10714286  1.0
  In  In19  1  0.16666667  0.33333333  0.10714286  1.0
  In  In20  1  0.16666667  0.66666667  0.10714286  1.0
  In  In21  1  0.50000000  0.00000000  0.10714286  1.0
  In  In22  1  0.50000000  0.33333333  0.10714286  1.0
  In  In23  1  0.50000000  0.66666667  0.10714286  1.0
  In  In24  1  0.83333333  0.00000000  0.10714286  1.0
  In  In25  1  0.83333333  0.33333333  0.10714286  1.0
  In  In26  1  0.83333333  0.66666667  0.10714286  1.0
  Ni  Ni27  1  0.00000000  0.00000000  0.10714286  1.0
  Ni  Ni28  1  0.00000000  0.33333333  0.10714286  1.0
  Ni  Ni29  1  0.00000000  0.66666667  0.10714286  1.0
  Ni  Ni30  1  0.33333333  0.00000000  0.10714286  1.0
  Ni  Ni31  1  0.33333333  0.33333333  0.10714286  1.0
  Ni  Ni32  1  0.33333333  0.66666667  0.10714286  1.0
  Ni  Ni33  1  0.66666667  0.00000000  0.10714286  1.0
  Ni  Ni34  1  0.66666667  0.33333333  0.10714286  1.0
  Ni  Ni35  1  0.66666667  0.66666667  0.10714286  1.0
  In  In36  1  0.25000000  0.16666667  0.17857143  1.0
  In  In37  1  0.25000000  0.50000000  0.17857143  1.0
  In  In38  1  0.25000000  0.83333333  0.17857143  1.0
  In  In39  1  0.58333333  0.16666667  0.17857143  1.0
  In  In40  1  0.58333333  0.50000000  0.17857143  1.0
  In  In41  1  0.58333333  0.83333333  0.17857143  1.0
  In  In42  1  0.91666667  0.16666667  0.17857143  1.0
  In  In43  1  0.91666667  0.50000000  0.17857143  1.0
  In  In44  1  0.91666667  0.83333333  0.17857143  1.0
  In  In45  1  0.08333333  0.16666667  0.17857143  1.0
  In  In46  1  0.08333333  0.50000000  0.17857143  1.0
  In  In47  1  0.08333333  0.83333333  0.17857143  1.0
  In  In48  1  0.41666667  0.16666667  0.17857143  1.0
  In  In49  1  0.41666667  0.50000000  0.17857143  1.0
  In  In50  1  0.41666667  0.83333333  0.17857143  1.0
  In  In51  1  0.75000000  0.16666667  0.17857143  1.0
  In  In52  1  0.75000000  0.50000000  0.17857143  1.0
  In  In53  1  0.75000000  0.83333333  0.17857143  1.0
  In  In54  1  0.16666667  0.00000000  0.25000000  1.0
  In  In55  1  0.16666667  0.33333333  0.25000000  1.0
  In  In56  1  0.16666667  0.66666667  0.25000000  1.0
  In  In57  1  0.50000000  0.00000000  0.25000000  1.0
  In  In58  1  0.50000000  0.33333333  0.25000000  1.0
  In  In59  1  0.50000000  0.66666667  0.25000000  1.0
  In  In60  1  0.83333333  0.00000000  0.25000000  1.0
  In  In61  1  0.83333333  0.33333333  0.25000000  1.0
  In  In62  1  0.83333333  0.66666667  0.25000000  1.0
  Ni  Ni63  1  0.00000000  0.00000000  0.25000000  1.0
  Ni  Ni64  1  0.00000000  0.33333333  0.25000000  1.0
  Ni  Ni65  1  0.00000000  0.66666667  0.25000000  1.0
  Ni  Ni66  1  0.33333333  0.00000000  0.25000000  1.0
  Ni  Ni67  1  0.33333333  0.33333333  0.25000000  1.0
  Ni  Ni68  1  0.33333333  0.66666667  0.25000000  1.0
  Ni  Ni69  1  0.66666667  0.00000000  0.25000000  1.0
  Ni  Ni70  1  0.66666667  0.33333333  0.25000000  1.0
  Ni  Ni71  1  0.66666667  0.66666667  0.25000000  1.0
  In  In72  1  0.25000000  0.16666667  0.32142857  1.0
  In  In73  1  0.25000000  0.50000000  0.32142857  1.0
  In  In74  1  0.25000000  0.83333333  0.32142857  1.0
  In  In75  1  0.58333333  0.16666667  0.32142857  1.0
  In  In76  1  0.58333333  0.50000000  0.32142857  1.0
  In  In77  1  0.58333333  0.83333333  0.32142857  1.0
  In  In78  1  0.91666667  0.16666667  0.32142857  1.0
  In  In79  1  0.91666667  0.50000000  0.32142857  1.0
  In  In80  1  0.91666667  0.83333333  0.32142857  1.0
  In  In81  1  0.08333333  0.16666667  0.32142857  1.0
  In  In82  1  0.08333333  0.50000000  0.32142857  1.0
  In  In83  1  0.08333333  0.83333333  0.32142857  1.0
  In  In84  1  0.41666667  0.16666667  0.32142857  1.0
  In  In85  1  0.41666667  0.50000000  0.32142857  1.0
  In  In86  1  0.41666667  0.83333333  0.32142857  1.0
  In  In87  1  0.75000000  0.16666667  0.32142857  1.0
  In  In88  1  0.75000000  0.50000000  0.32142857  1.0
  In  In89  1  0.75000000  0.83333333  0.32142857  1.0
  In  In90  1  0.16666667  0.00000000  0.39285714  1.0
  In  In91  1  0.16666667  0.33333333  0.39285714  1.0
  In  In92  1  0.16666667  0.66666667  0.39285714  1.0
  In  In93  1  0.50000000  0.00000000  0.39285714  1.0
  In  In94  1  0.50000000  0.33333333  0.39285714  1.0
  In  In95  1  0.50000000  0.66666667  0.39285714  1.0
  In  In96  1  0.83333333  0.00000000  0.39285714  1.0
  In  In97  1  0.83333333  0.33333333  0.39285714  1.0
  In  In98  1  0.83333333  0.66666667  0.39285714  1.0
  Ni  Ni99  1  0.00000000  0.00000000  0.39285714  1.0
  Ni  Ni100  1  0.00000000  0.33333333  0.39285714  1.0
  Ni  Ni101  1  0.00000000  0.66666667  0.39285714  1.0
  Ni  Ni102  1  0.33333333  0.00000000  0.39285714  1.0
  Ni  Ni103  1  0.33333333  0.33333333  0.39285714  1.0
  Ni  Ni104  1  0.33333333  0.66666667  0.39285714  1.0
  Ni  Ni105  1  0.66666667  0.00000000  0.39285714  1.0
  Ni  Ni106  1  0.66666667  0.33333333  0.39285714  1.0
  Ni  Ni107  1  0.66666667  0.66666667  0.39285714  1.0
