# generated using pymatgen
data_In3Ni
_symmetry_space_group_name_H-M   'P 1'
_cell_length_a   24.55445003
_cell_length_b   30.11867315
_cell_length_c   26.71623791
_cell_angle_alpha   92.27675741
_cell_angle_beta   91.03757196
_cell_angle_gamma   112.78394021
_symmetry_Int_Tables_number   1
_chemical_formula_structural   In3Ni
_chemical_formula_sum   'In270 Ni90'
_cell_volume   18189.83605837
_cell_formula_units_Z   90
loop_
 _symmetry_equiv_pos_site_id
 _symmetry_equiv_pos_as_xyz
  1  'x, y, z'
loop_
 _atom_site_type_symbol
 _atom_site_label
 _atom_site_symmetry_multiplicity
 _atom_site_fract_x
 _atom_site_fract_y
 _atom_site_fract_z
 _atom_site_occupancy
  In  In0  1  0.21875000  0.03819444  0.99479167  1.0
  In  In1  1  0.21875000  0.37152778  0.99479167  1.0
  In  In2  1  0.21875000  0.70486111  0.99479167  1.0
  In  In3  1  0.55208333  0.03819444  0.99479167  1.0
  In  In4  1  0.55208333  0.37152778  0.99479167  1.0
  In  In5  1  0.55208333  0.70486111  0.99479167  1.0
  In  In6  1  0.88541667  0.03819444  0.99479167  1.0
  In  In7  1  0.88541667  0.37152778  0.99479167  1.0
  In  In8  1  0.88541667  0.70486111  0.99479167  1.0
  In  In9  1  0.13541667  0.17708333  0.95312500  1.0
  In  In10  1  0.13541667  0.51041667  0.95312500  1.0
  In  In11  1  0.13541667  0.84375000  0.95312500  1.0
  In  In12  1  0.46875000  0.17708333  0.95312500  1.0
  In  In13  1  0.46875000  0.51041667  0.95312500  1.0
  In  In14  1  0.46875000  0.84375000  0.95312500  1.0
  In  In15  1  0.80208333  0.17708333  0.95312500  1.0
  In  In16  1  0.80208333  0.51041667  0.95312500  1.0
  In  In17  1  0.80208333  0.84375000  0.95312500  1.0
  In  In18  1  0.26041667  0.24652778  0.93229167  1.0
  In  In19  1  0.26041667  0.57986111  0.93229167  1.0
  In  In20  1  0.26041667  0.91319444  0.93229167  1.0
  In  In21  1  0.59375000  0.24652778  0.93229167  1.0
  In  In22  1  0.59375000  0.57986111  0.93229167  1.0
  In  In23  1  0.59375000  0.91319444  0.93229167  1.0
  In  In24  1  0.92708333  0.24652778  0.93229167  1.0
  In  In25  1  0.92708333  0.57986111  0.93229167  1.0
  In  In26  1  0.92708333  0.91319444  0.93229167  1.0
  In  In27  1  0.01041667  0.10763889  0.97395833  1.0
  In  In28  1  0.01041667  0.44097222  0.97395833  1.0
  In  In29  1  0.01041667  0.77430556  0.97395833  1.0
  In  In30  1  0.34375000  0.10763889  0.97395833  1.0
  In  In31  1  0.34375000  0.44097222  0.97395833  1.0
  In  In32  1  0.34375000  0.77430556  0.97395833  1.0
  In  In33  1  0.67708333  0.10763889  0.97395833  1.0
  In  In34  1  0.67708333  0.44097222  0.97395833  1.0
  In  In35  1  0.67708333  0.77430556  0.97395833  1.0
  In  In36  1  0.03125000  0.21180556  0.94270833  1.0
  In  In37  1  0.03125000  0.54513889  0.94270833  1.0
  In  In38  1  0.03125000  0.87847222  0.94270833  1.0
  In  In39  1  0.36458333  0.21180556  0.94270833  1.0
  In  In40  1  0.36458333  0.54513889  0.94270833  1.0
  In  In41  1  0.36458333  0.87847222  0.94270833  1.0
  In  In42  1  0.69791667  0.21180556  0.94270833  1.0
  In  In43  1  0.69791667  0.54513889  0.94270833  1.0
  In  In44  1  0.69791667  0.87847222  0.94270833  1.0
  In  In45  1  0.11458333  0.07291667  0.98437500  1.0
  In  In46  1  0.11458333  0.40625000  0.98437500  1.0
  In  In47  1  0.11458333  0.73958333  0.98437500  1.0
  In  In48  1  0.44791667  0.07291667  0.98437500  1.0
  In  In49  1  0.44791667  0.40625000  0.98437500  1.0
  In  In50  1  0.44791667  0.73958333  0.98437500  1.0
  In  In51  1  0.78125000  0.07291667  0.98437500  1.0
  In  In52  1  0.78125000  0.40625000  0.98437500  1.0
  In  In53  1  0.78125000  0.73958333  0.98437500  1.0
  In  In54  1  0.05208333  0.31597222  0.91145833  1.0
  In  In55  1  0.05208333  0.64930556  0.91145833  1.0
  In  In56  1  0.05208333  0.98263889  0.91145833  1.0
  In  In57  1  0.38541667  0.31597222  0.91145833  1.0
  In  In58  1  0.38541667  0.64930556  0.91145833  1.0
  In  In59  1  0.38541667  0.98263889  0.91145833  1.0
  In  In60  1  0.71875000  0.31597222  0.91145833  1.0
  In  In61  1  0.71875000  0.64930556  0.91145833  1.0
  In  In62  1  0.71875000  0.98263889  0.91145833  1.0
  In  In63  1  0.30208333  0.12152778  0.86979167  1.0
  In  In64  1  0.30208333  0.45486111  0.86979167  1.0
  In  In65  1  0.30208333  0.78819444  0.86979167  1.0
  In  In66  1  0.63541667  0.12152778  0.86979167  1.0
  In  In67  1  0.63541667  0.45486111  0.86979167  1.0
  In  In68  1  0.63541667  0.78819444  0.86979167  1.0
  In  In69  1  0.96875000  0.12152778  0.86979167  1.0
  In  In70  1  0.96875000  0.45486111  0.86979167  1.0
  In  In71  1  0.96875000  0.78819444  0.86979167  1.0
  In  In72  1  0.09375000  0.19097222  0.84895833  1.0
  In  In73  1  0.09375000  0.52430556  0.84895833  1.0
  In  In74  1  0.09375000  0.85763889  0.84895833  1.0
  In  In75  1  0.42708333  0.19097222  0.84895833  1.0
  In  In76  1  0.42708333  0.52430556  0.84895833  1.0
  In  In77  1  0.42708333  0.85763889  0.84895833  1.0
  In  In78  1  0.76041667  0.19097222  0.84895833  1.0
  In  In79  1  0.76041667  0.52430556  0.84895833  1.0
  In  In80  1  0.76041667  0.85763889  0.84895833  1.0
  In  In81  1  0.17708333  0.05208333  0.89062500  1.0
  In  In82  1  0.17708333  0.38541667  0.89062500  1.0
  In  In83  1  0.17708333  0.71875000  0.89062500  1.0
  In  In84  1  0.51041667  0.05208333  0.89062500  1.0
  In  In85  1  0.51041667  0.38541667  0.89062500  1.0
  In  In86  1  0.51041667  0.71875000  0.89062500  1.0
  In  In87  1  0.84375000  0.05208333  0.89062500  1.0
  In  In88  1  0.84375000  0.38541667  0.89062500  1.0
  In  In89  1  0.84375000  0.71875000  0.89062500  1.0
  In  In90  1  0.19791667  0.15625000  0.85937500  1.0
  In  In91  1  0.19791667  0.48958333  0.85937500  1.0
  In  In92  1  0.19791667  0.82291667  0.85937500  1.0
  In  In93  1  0.53125000  0.15625000  0.85937500  1.0
  In  In94  1  0.53125000  0.48958333  0.85937500  1.0
  In  In95  1  0.53125000  0.82291667  0.85937500  1.0
  In  In96  1  0.86458333  0.15625000  0.85937500  1.0
  In  In97  1  0.86458333  0.48958333  0.85937500  1.0
  In  In98  1  0.86458333  0.82291667  0.85937500  1.0
  In  In99  1  0.28125000  0.01736111  0.90104167  1.0
  In  In100  1  0.28125000  0.35069444  0.90104167  1.0
  In  In101  1  0.28125000  0.68402778  0.90104167  1.0
  In  In102  1  0.61458333  0.01736111  0.90104167  1.0
  In  In103  1  0.61458333  0.35069444  0.90104167  1.0
  In  In104  1  0.61458333  0.68402778  0.90104167  1.0
  In  In105  1  0.94791667  0.01736111  0.90104167  1.0
  In  In106  1  0.94791667  0.35069444  0.90104167  1.0
  In  In107  1  0.94791667  0.68402778  0.90104167  1.0
  In  In108  1  0.21875000  0.26041667  0.82812500  1.0
  In  In109  1  0.21875000  0.59375000  0.82812500  1.0
  In  In110  1  0.21875000  0.92708333  0.82812500  1.0
  In  In111  1  0.55208333  0.26041667  0.82812500  1.0
  In  In112  1  0.55208333  0.59375000  0.82812500  1.0
  In  In113  1  0.55208333  0.92708333  0.82812500  1.0
  In  In114  1  0.88541667  0.26041667  0.82812500  1.0
  In  In115  1  0.88541667  0.59375000  0.82812500  1.0
  In  In116  1  0.88541667  0.92708333  0.82812500  1.0
  In  In117  1  0.13541667  0.06597222  0.78645833  1.0
  In  In118  1  0.13541667  0.39930556  0.78645833  1.0
  In  In119  1  0.13541667  0.73263889  0.78645833  1.0
  In  In120  1  0.46875000  0.06597222  0.78645833  1.0
  In  In121  1  0.46875000  0.39930556  0.78645833  1.0
  In  In122  1  0.46875000  0.73263889  0.78645833  1.0
  In  In123  1  0.80208333  0.06597222  0.78645833  1.0
  In  In124  1  0.80208333  0.39930556  0.78645833  1.0
  In  In125  1  0.80208333  0.73263889  0.78645833  1.0
  In  In126  1  0.26041667  0.13541667  0.76562500  1.0
  In  In127  1  0.26041667  0.46875000  0.76562500  1.0
  In  In128  1  0.26041667  0.80208333  0.76562500  1.0
  In  In129  1  0.59375000  0.13541667  0.76562500  1.0
  In  In130  1  0.59375000  0.46875000  0.76562500  1.0
  In  In131  1  0.59375000  0.80208333  0.76562500  1.0
  In  In132  1  0.92708333  0.13541667  0.76562500  1.0
  In  In133  1  0.92708333  0.46875000  0.76562500  1.0
  In  In134  1  0.92708333  0.80208333  0.76562500  1.0
  In  In135  1  0.01041667  0.32986111  0.80729167  1.0
  In  In136  1  0.01041667  0.66319444  0.80729167  1.0
  In  In137  1  0.01041667  0.99652778  0.80729167  1.0
  In  In138  1  0.34375000  0.32986111  0.80729167  1.0
  In  In139  1  0.34375000  0.66319444  0.80729167  1.0
  In  In140  1  0.34375000  0.99652778  0.80729167  1.0
  In  In141  1  0.67708333  0.32986111  0.80729167  1.0
  In  In142  1  0.67708333  0.66319444  0.80729167  1.0
  In  In143  1  0.67708333  0.99652778  0.80729167  1.0
  In  In144  1  0.03125000  0.10069444  0.77604167  1.0
  In  In145  1  0.03125000  0.43402778  0.77604167  1.0
  In  In146  1  0.03125000  0.76736111  0.77604167  1.0
  In  In147  1  0.36458333  0.10069444  0.77604167  1.0
  In  In148  1  0.36458333  0.43402778  0.77604167  1.0
  In  In149  1  0.36458333  0.76736111  0.77604167  1.0
  In  In150  1  0.69791667  0.10069444  0.77604167  1.0
  In  In151  1  0.69791667  0.43402778  0.77604167  1.0
  In  In152  1  0.69791667  0.76736111  0.77604167  1.0
  In  In153  1  0.11458333  0.29513889  0.81770833  1.0
  In  In154  1  0.11458333  0.62847222  0.81770833  1.0
  In  In155  1  0.11458333  0.96180556  0.81770833  1.0
  In  In156  1  0.44791667  0.29513889  0.81770833  1.0
  In  In157  1  0.44791667  0.62847222  0.81770833  1.0
  In  In158  1  0.44791667  0.96180556  0.81770833  1.0
  In  In159  1  0.78125000  0.29513889  0.81770833  1.0
  In  In160  1  0.78125000  0.62847222  0.81770833  1.0
  In  In161  1  0.78125000  0.96180556  0.81770833  1.0
  In  In162  1  0.05208333  0.20486111  0.74479167  1.0
  In  In163  1  0.05208333  0.53819444  0.74479167  1.0
  In  In164  1  0.05208333  0.87152778  0.74479167  1.0
  In  In165  1  0.38541667  0.20486111  0.74479167  1.0
  In  In166  1  0.38541667  0.53819444  0.74479167  1.0
  In  In167  1  0.38541667  0.87152778  0.74479167  1.0
  In  In168  1  0.71875000  0.20486111  0.74479167  1.0
  In  In169  1  0.71875000  0.53819444  0.74479167  1.0
  In  In170  1  0.71875000  0.87152778  0.74479167  1.0
  In  In171  1  0.30208333  0.01041667  0.70312500  1.0
  In  In172  1  0.30208333  0.34375000  0.70312500  1.0
  In  In173  1  0.30208333  0.67708333  0.70312500  1.0
  In  In174  1  0.63541667  0.01041667  0.70312500  1.0
  In  In175  1  0.63541667  0.34375000  0.70312500  1.0
  In  In176  1  0.63541667  0.67708333  0.70312500  1.0
  In  In177  1  0.96875000  0.01041667  0.70312500  1.0
  In  In178  1  0.96875000  0.34375000  0.70312500  1.0
  In  In179  1  0.96875000  0.67708333  0.70312500  1.0
  In  In180  1  0.09375000  0.07986111  0.68229167  1.0
  In  In181  1  0.09375000  0.41319444  0.68229167  1.0
  In  In182  1  0.09375000  0.74652778  0.68229167  1.0
  In  In183  1  0.42708333  0.07986111  0.68229167  1.0
  In  In184  1  0.42708333  0.41319444  0.68229167  1.0
  In  In185  1  0.42708333  0.74652778  0.68229167  1.0
  In  In186  1  0.76041667  0.07986111  0.68229167  1.0
  In  In187  1  0.76041667  0.41319444  0.68229167  1.0
  In  In188  1  0.76041667  0.74652778  0.68229167  1.0
  In  In189  1  0.17708333  0.27430556  0.72395833  1.0
  In  In190  1  0.17708333  0.60763889  0.72395833  1.0
  In  In191  1  0.17708333  0.94097222  0.72395833  1.0
  In  In192  1  0.51041667  0.27430556  0.72395833  1.0
  In  In193  1  0.51041667  0.60763889  0.72395833  1.0
  In  In194  1  0.51041667  0.94097222  0.72395833  1.0
  In  In195  1  0.84375000  0.27430556  0.72395833  1.0
  In  In196  1  0.84375000  0.60763889  0.72395833  1.0
  In  In197  1  0.84375000  0.94097222  0.72395833  1.0
  In  In198  1  0.19791667  0.04513889  0.69270833  1.0
  In  In199  1  0.19791667  0.37847222  0.69270833  1.0
  In  In200  1  0.19791667  0.71180556  0.69270833  1.0
  In  In201  1  0.53125000  0.04513889  0.69270833  1.0
  In  In202  1  0.53125000  0.37847222  0.69270833  1.0
  In  In203  1  0.53125000  0.71180556  0.69270833  1.0
  In  In204  1  0.86458333  0.04513889  0.69270833  1.0
  In  In205  1  0.86458333  0.37847222  0.69270833  1.0
  In  In206  1  0.86458333  0.71180556  0.69270833  1.0
  In  In207  1  0.28125000  0.23958333  0.73437500  1.0
  In  In208  1  0.28125000  0.57291667  0.73437500  1.0
  In  In209  1  0.28125000  0.90625000  0.73437500  1.0
  In  In210  1  0.61458333  0.23958333  0.73437500  1.0
  In  In211  1  0.61458333  0.57291667  0.73437500  1.0
  In  In212  1  0.61458333  0.90625000  0.73437500  1.0
  In  In213  1  0.94791667  0.23958333  0.73437500  1.0
  In  In214  1  0.94791667  0.57291667  0.73437500  1.0
  In  In215  1  0.94791667  0.90625000  0.73437500  1.0
  In  In216  1  0.21875000  0.14930556  0.66145833  1.0
  In  In217  1  0.21875000  0.48263889  0.66145833  1.0
  In  In218  1  0.21875000  0.81597222  0.66145833  1.0
  In  In219  1  0.55208333  0.14930556  0.66145833  1.0
  In  In220  1  0.55208333  0.48263889  0.66145833  1.0
  In  In221  1  0.55208333  0.81597222  0.66145833  1.0
  In  In222  1  0.88541667  0.14930556  0.66145833  1.0
  In  In223  1  0.88541667  0.48263889  0.66145833  1.0
  In  In224  1  0.88541667  0.81597222  0.66145833  1.0
  In  In225  1  0.13541667  0.28819444  0.61979167  1.0
  In  In226  1  0.13541667  0.62152778  0.61979167  1.0
  In  In227  1  0.13541667  0.95486111  0.61979167  1.0
  In  In228  1  0.46875000  0.28819444  0.61979167  1.0
  In  In229  1  0.46875000  0.62152778  0.61979167  1.0
  In  In230  1  0.46875000  0.95486111  0.61979167  1.0
  In  In231  1  0.80208333  0.28819444  0.61979167  1.0
  In  In232  1  0.80208333  0.62152778  0.61979167  1.0
  In  In233  1  0.80208333  0.95486111  0.61979167  1.0
  In  In234  1  0.26041667  0.02430556  0.59895833  1.0
  In  In235  1  0.26041667  0.35763889  0.59895833  1.0
  In  In236  1  0.26041667  0.69097222  0.59895833  1.0
  In  In237  1  0.59375000  0.02430556  0.59895833  1.0
  In  In238  1  0.59375000  0.35763889  0.59895833  1.0
  In  In239  1  0.59375000  0.69097222  0.59895833  1.0
  In  In240  1  0.92708333  0.02430556  0.59895833  1.0
  In  In241  1  0.92708333  0.35763889  0.59895833  1.0
  In  In242  1  0.92708333  0.69097222  0.59895833  1.0
  In  In243  1  0.01041667  0.21875000  0.64062500  1.0
  In  In244  1  0.01041667  0.55208333  0.64062500  1.0
  In  In245  1  0.01041667  0.88541667  0.64062500  1.0
  In  In246  1  0.34375000  0.21875000  0.64062500  1.0
  In  In247  1  0.34375000  0.55208333  0.64062500  1.0
  In  In248  1  0.34375000  0.88541667  0.64062500  1.0
  In  In249  1  0.67708333  0.21875000  0.64062500  1.0
  In  In250  1  0.67708333  0.55208333  0.64062500  1.0
  In  In251  1  0.67708333  0.88541667  0.64062500  1.0
  In  In252  1  0.03125000  0.32291667  0.60937500  1.0
  In  In253  1  0.03125000  0.65625000  0.60937500  1.0
  In  In254  1  0.03125000  0.98958333  0.60937500  1.0
  In  In255  1  0.36458333  0.32291667  0.60937500  1.0
  In  In256  1  0.36458333  0.65625000  0.60937500  1.0
  In  In257  1  0.36458333  0.98958333  0.60937500  1.0
  In  In258  1  0.69791667  0.32291667  0.60937500  1.0
  In  In259  1  0.69791667  0.65625000  0.60937500  1.0
  In  In260  1  0.69791667  0.98958333  0.60937500  1.0
  In  In261  1  0.11458333  0.18402778  0.65104167  1.0
  In  In262  1  0.11458333  0.51736111  0.65104167  1.0
  In  In263  1  0.11458333  0.85069444  0.65104167  1.0
  In  In264  1  0.44791667  0.18402778  0.65104167  1.0
  In  In265  1  0.44791667  0.51736111  0.65104167  1.0
  In  In266  1  0.44791667  0.85069444  0.65104167  1.0
  In  In267  1  0.78125000  0.18402778  0.65104167  1.0
  In  In268  1  0.78125000  0.51736111  0.65104167  1.0
  In  In269  1  0.78125000  0.85069444  0.65104167  1.0
  Ni  Ni270  1  0.15625000  0.28125000  0.92187500  1.0
  Ni  Ni271  1  0.15625000  0.61458333  0.92187500  1.0
  Ni  Ni272  1  0.15625000  0.94791667  0.92187500  1.0
  Ni  Ni273  1  0.48958333  0.28125000  0.92187500  1.0
  Ni  Ni274  1  0.48958333  0.61458333  0.92187500  1.0
  Ni  Ni275  1  0.48958333  0.94791667  0.92187500  1.0
  Ni  Ni276  1  0.82291667  0.28125000  0.92187500  1.0
  Ni  Ni277  1  0.82291667  0.61458333  0.92187500  1.0
  Ni  Ni278  1  0.82291667  0.94791667  0.92187500  1.0
  Ni  Ni279  1  0.23958333  0.14236111  0.96354167  1.0
  Ni  Ni280  1  0.23958333  0.47569444  0.96354167  1.0
  Ni  Ni281  1  0.23958333  0.80902778  0.96354167  1.0
  Ni  Ni282  1  0.57291667  0.14236111  0.96354167  1.0
  Ni  Ni283  1  0.57291667  0.47569444  0.96354167  1.0
  Ni  Ni284  1  0.57291667  0.80902778  0.96354167  1.0
  Ni  Ni285  1  0.90625000  0.14236111  0.96354167  1.0
  Ni  Ni286  1  0.90625000  0.47569444  0.96354167  1.0
  Ni  Ni287  1  0.90625000  0.80902778  0.96354167  1.0
  Ni  Ni288  1  0.32291667  0.22569444  0.83854167  1.0
  Ni  Ni289  1  0.32291667  0.55902778  0.83854167  1.0
  Ni  Ni290  1  0.32291667  0.89236111  0.83854167  1.0
  Ni  Ni291  1  0.65625000  0.22569444  0.83854167  1.0
  Ni  Ni292  1  0.65625000  0.55902778  0.83854167  1.0
  Ni  Ni293  1  0.65625000  0.89236111  0.83854167  1.0
  Ni  Ni294  1  0.98958333  0.22569444  0.83854167  1.0
  Ni  Ni295  1  0.98958333  0.55902778  0.83854167  1.0
  Ni  Ni296  1  0.98958333  0.89236111  0.83854167  1.0
  Ni  Ni297  1  0.07291667  0.08680556  0.88020833  1.0
  Ni  Ni298  1  0.07291667  0.42013889  0.88020833  1.0
  Ni  Ni299  1  0.07291667  0.75347222  0.88020833  1.0
  Ni  Ni300  1  0.40625000  0.08680556  0.88020833  1.0
  Ni  Ni301  1  0.40625000  0.42013889  0.88020833  1.0
  Ni  Ni302  1  0.40625000  0.75347222  0.88020833  1.0
  Ni  Ni303  1  0.73958333  0.08680556  0.88020833  1.0
  Ni  Ni304  1  0.73958333  0.42013889  0.88020833  1.0
  Ni  Ni305  1  0.73958333  0.75347222  0.88020833  1.0
  Ni  Ni306  1  0.15625000  0.17013889  0.75520833  1.0
  Ni  Ni307  1  0.15625000  0.50347222  0.75520833  1.0
  Ni  Ni308  1  0.15625000  0.83680556  0.75520833  1.0
  Ni  Ni309  1  0.48958333  0.17013889  0.75520833  1.0
  Ni  Ni310  1  0.48958333  0.50347222  0.75520833  1.0
  Ni  Ni311  1  0.48958333  0.83680556  0.75520833  1.0
  Ni  Ni312  1  0.82291667  0.17013889  0.75520833  1.0
  Ni  Ni313  1  0.82291667  0.50347222  0.75520833  1.0
  Ni  Ni314  1  0.82291667  0.83680556  0.75520833  1.0
  Ni  Ni315  1  0.23958333  0.03125000  0.79687500  1.0
  Ni  Ni316  1  0.23958333  0.36458333  0.79687500  1.0
  Ni  Ni317  1  0.23958333  0.69791667  0.79687500  1.0
  Ni  Ni318  1  0.57291667  0.03125000  0.79687500  1.0
  Ni  Ni319  1  0.57291667  0.36458333  0.79687500  1.0
  Ni  Ni320  1  0.57291667  0.69791667  0.79687500  1.0
  Ni  Ni321  1  0.90625000  0.03125000  0.79687500  1.0
  Ni  Ni322  1  0.90625000  0.36458333  0.79687500  1.0
  Ni  Ni323  1  0.90625000  0.69791667  0.79687500  1.0
  Ni  Ni324  1  0.32291667  0.11458333  0.67187500  1.0
  Ni  Ni325  1  0.32291667  0.44791667  0.67187500  1.0
  Ni  Ni326  1  0.32291667  0.78125000  0.67187500  1.0
  Ni  Ni327  1  0.65625000  0.11458333  0.67187500  1.0
  Ni  Ni328  1  0.65625000  0.44791667  0.67187500  1.0
  Ni  Ni329  1  0.65625000  0.78125000  0.67187500  1.0
  Ni  Ni330  1  0.98958333  0.11458333  0.67187500  1.0
  Ni  Ni331  1  0.98958333  0.44791667  0.67187500  1.0
  Ni  Ni332  1  0.98958333  0.78125000  0.67187500  1.0
  Ni  Ni333  1  0.07291667  0.30902778  0.71354167  1.0
  Ni  Ni334  1  0.07291667  0.64236111  0.71354167  1.0
  Ni  Ni335  1  0.07291667  0.97569444  0.71354167  1.0
  Ni  Ni336  1  0.40625000  0.30902778  0.71354167  1.0
  Ni  Ni337  1  0.40625000  0.64236111  0.71354167  1.0
  Ni  Ni338  1  0.40625000  0.97569444  0.71354167  1.0
  Ni  Ni339  1  0.73958333  0.30902778  0.71354167  1.0
  Ni  Ni340  1  0.73958333  0.64236111  0.71354167  1.0
  Ni  Ni341  1  0.73958333  0.97569444  0.71354167  1.0
  Ni  Ni342  1  0.15625000  0.05902778  0.58854167  1.0
  Ni  Ni343  1  0.15625000  0.39236111  0.58854167  1.0
  Ni  Ni344  1  0.15625000  0.72569444  0.58854167  1.0
  Ni  Ni345  1  0.48958333  0.05902778  0.58854167  1.0
  Ni  Ni346  1  0.48958333  0.39236111  0.58854167  1.0
  Ni  Ni347  1  0.48958333  0.72569444  0.58854167  1.0
  Ni  Ni348  1  0.82291667  0.05902778  0.58854167  1.0
  Ni  Ni349  1  0.82291667  0.39236111  0.58854167  1.0
  Ni  Ni350  1  0.82291667  0.72569444  0.58854167  1.0
  Ni  Ni351  1  0.23958333  0.25347222  0.63020833  1.0
  Ni  Ni352  1  0.23958333  0.58680556  0.63020833  1.0
  Ni  Ni353  1  0.23958333  0.92013889  0.63020833  1.0
  Ni  Ni354  1  0.57291667  0.25347222  0.63020833  1.0
  Ni  Ni355  1  0.57291667  0.58680556  0.63020833  1.0
  Ni  Ni356  1  0.57291667  0.92013889  0.63020833  1.0
  Ni  Ni357  1  0.90625000  0.25347222  0.63020833  1.0
  Ni  Ni358  1  0.90625000  0.58680556  0.63020833  1.0
  Ni  Ni359  1  0.90625000  0.92013889  0.63020833  1.0
