# generated using pymatgen
data_In7Ni3
_symmetry_space_group_name_H-M   'P 1'
_cell_length_a   39.47422472
_cell_length_b   27.91249198
_cell_length_c   56.40349666
_cell_angle_alpha   125.26438967
_cell_angle_beta   144.73561032
_cell_angle_gamma   45.00000000
_symmetry_Int_Tables_number   1
_chemical_formula_structural   In7Ni3
_chemical_formula_sum   'In378 Ni162'
_cell_volume   25371.29433979
_cell_formula_units_Z   54
loop_
 _symmetry_equiv_pos_site_id
 _symmetry_equiv_pos_as_xyz
  1  'x, y, z'
loop_
 _atom_site_type_symbol
 _atom_site_label
 _atom_site_symmetry_multiplicity
 _atom_site_fract_x
 _atom_site_fract_y
 _atom_site_fract_z
 _atom_site_occupancy
  In  In0  1  0.25000000  0.25000000  0.12229357  1.0
  In  In1  1  0.25000000  0.58333333  0.12229357  1.0
  In  In2  1  0.25000000  0.91666667  0.12229357  1.0
  In  In3  1  0.58333333  0.25000000  0.12229357  1.0
  In  In4  1  0.58333333  0.58333333  0.12229357  1.0
  In  In5  1  0.58333333  0.91666667  0.12229357  1.0
  In  In6  1  0.91666667  0.25000000  0.12229357  1.0
  In  In7  1  0.91666667  0.58333333  0.12229357  1.0
  In  In8  1  0.91666667  0.91666667  0.12229357  1.0
  In  In9  1  0.08333333  0.08333333  0.12229357  1.0
  In  In10  1  0.08333333  0.41666667  0.12229357  1.0
  In  In11  1  0.08333333  0.75000000  0.12229357  1.0
  In  In12  1  0.41666667  0.08333333  0.12229357  1.0
  In  In13  1  0.41666667  0.41666667  0.12229357  1.0
  In  In14  1  0.41666667  0.75000000  0.12229357  1.0
  In  In15  1  0.75000000  0.08333333  0.12229357  1.0
  In  In16  1  0.75000000  0.41666667  0.12229357  1.0
  In  In17  1  0.75000000  0.75000000  0.12229357  1.0
  In  In18  1  0.16666667  0.08333333  0.12229357  1.0
  In  In19  1  0.16666667  0.41666667  0.12229357  1.0
  In  In20  1  0.16666667  0.75000000  0.12229357  1.0
  In  In21  1  0.50000000  0.08333333  0.12229357  1.0
  In  In22  1  0.50000000  0.41666667  0.12229357  1.0
  In  In23  1  0.50000000  0.75000000  0.12229357  1.0
  In  In24  1  0.83333333  0.08333333  0.12229357  1.0
  In  In25  1  0.83333333  0.41666667  0.12229357  1.0
  In  In26  1  0.83333333  0.75000000  0.12229357  1.0
  In  In27  1  0.16666667  0.25000000  0.12229357  1.0
  In  In28  1  0.16666667  0.58333333  0.12229357  1.0
  In  In29  1  0.16666667  0.91666667  0.12229357  1.0
  In  In30  1  0.50000000  0.25000000  0.12229357  1.0
  In  In31  1  0.50000000  0.58333333  0.12229357  1.0
  In  In32  1  0.50000000  0.91666667  0.12229357  1.0
  In  In33  1  0.83333333  0.25000000  0.12229357  1.0
  In  In34  1  0.83333333  0.58333333  0.12229357  1.0
  In  In35  1  0.83333333  0.91666667  0.12229357  1.0
  In  In36  1  0.25000000  0.16666667  0.05086500  1.0
  In  In37  1  0.25000000  0.50000000  0.05086500  1.0
  In  In38  1  0.25000000  0.83333333  0.05086500  1.0
  In  In39  1  0.58333333  0.16666667  0.05086500  1.0
  In  In40  1  0.58333333  0.50000000  0.05086500  1.0
  In  In41  1  0.58333333  0.83333333  0.05086500  1.0
  In  In42  1  0.91666667  0.16666667  0.05086500  1.0
  In  In43  1  0.91666667  0.50000000  0.05086500  1.0
  In  In44  1  0.91666667  0.83333333  0.05086500  1.0
  In  In45  1  0.08333333  0.16666667  0.05086500  1.0
  In  In46  1  0.08333333  0.50000000  0.05086500  1.0
  In  In47  1  0.08333333  0.83333333  0.05086500  1.0
  In  In48  1  0.41666667  0.16666667  0.05086500  1.0
  In  In49  1  0.41666667  0.50000000  0.05086500  1.0
  In  In50  1  0.41666667  0.83333333  0.05086500  1.0
  In  In51  1  0.75000000  0.16666667  0.05086500  1.0
  In  In52  1  0.75000000  0.50000000  0.05086500  1.0
  In  In53  1  0.75000000  0.83333333  0.05086500  1.0
  In  In54  1  0.00000000  0.22594433  0.07626971  1.0
  In  In55  1  0.00000000  0.55927767  0.07626971  1.0
  In  In56  1  0.00000000  0.89261100  0.07626971  1.0
  In  In57  1  0.33333333  0.22594433  0.07626971  1.0
  In  In58  1  0.33333333  0.55927767  0.07626971  1.0
  In  In59  1  0.33333333  0.89261100  0.07626971  1.0
  In  In60  1  0.66666667  0.22594433  0.07626971  1.0
  In  In61  1  0.66666667  0.55927767  0.07626971  1.0
  In  In62  1  0.66666667  0.89261100  0.07626971  1.0
  In  In63  1  0.00000000  0.10738900  0.02546029  1.0
  In  In64  1  0.00000000  0.44072233  0.02546029  1.0
  In  In65  1  0.00000000  0.77405567  0.02546029  1.0
  In  In66  1  0.33333333  0.10738900  0.02546029  1.0
  In  In67  1  0.33333333  0.44072233  0.02546029  1.0
  In  In68  1  0.33333333  0.77405567  0.02546029  1.0
  In  In69  1  0.66666667  0.10738900  0.02546029  1.0
  In  In70  1  0.66666667  0.44072233  0.02546029  1.0
  In  In71  1  0.66666667  0.77405567  0.02546029  1.0
  In  In72  1  0.22594433  0.10738900  0.07626971  1.0
  In  In73  1  0.22594433  0.44072233  0.07626971  1.0
  In  In74  1  0.22594433  0.77405567  0.07626971  1.0
  In  In75  1  0.55927767  0.10738900  0.07626971  1.0
  In  In76  1  0.55927767  0.44072233  0.07626971  1.0
  In  In77  1  0.55927767  0.77405567  0.07626971  1.0
  In  In78  1  0.89261100  0.10738900  0.07626971  1.0
  In  In79  1  0.89261100  0.44072233  0.07626971  1.0
  In  In80  1  0.89261100  0.77405567  0.07626971  1.0
  In  In81  1  0.00000000  0.00000000  0.02546029  1.0
  In  In82  1  0.00000000  0.33333333  0.02546029  1.0
  In  In83  1  0.00000000  0.66666667  0.02546029  1.0
  In  In84  1  0.33333333  0.00000000  0.02546029  1.0
  In  In85  1  0.33333333  0.33333333  0.02546029  1.0
  In  In86  1  0.33333333  0.66666667  0.02546029  1.0
  In  In87  1  0.66666667  0.00000000  0.02546029  1.0
  In  In88  1  0.66666667  0.33333333  0.02546029  1.0
  In  In89  1  0.66666667  0.66666667  0.02546029  1.0
  In  In90  1  0.10738900  0.22594433  0.02546029  1.0
  In  In91  1  0.10738900  0.55927767  0.02546029  1.0
  In  In92  1  0.10738900  0.89261100  0.02546029  1.0
  In  In93  1  0.44072233  0.22594433  0.02546029  1.0
  In  In94  1  0.44072233  0.55927767  0.02546029  1.0
  In  In95  1  0.44072233  0.89261100  0.02546029  1.0
  In  In96  1  0.77405567  0.22594433  0.02546029  1.0
  In  In97  1  0.77405567  0.55927767  0.02546029  1.0
  In  In98  1  0.77405567  0.89261100  0.02546029  1.0
  In  In99  1  0.00000000  0.00000000  0.07626971  1.0
  In  In100  1  0.00000000  0.33333333  0.07626971  1.0
  In  In101  1  0.00000000  0.66666667  0.07626971  1.0
  In  In102  1  0.33333333  0.00000000  0.07626971  1.0
  In  In103  1  0.33333333  0.33333333  0.07626971  1.0
  In  In104  1  0.33333333  0.66666667  0.07626971  1.0
  In  In105  1  0.66666667  0.00000000  0.07626971  1.0
  In  In106  1  0.66666667  0.33333333  0.07626971  1.0
  In  In107  1  0.66666667  0.66666667  0.07626971  1.0
  In  In108  1  0.10738900  0.00000000  0.02546029  1.0
  In  In109  1  0.10738900  0.33333333  0.02546029  1.0
  In  In110  1  0.10738900  0.66666667  0.02546029  1.0
  In  In111  1  0.44072233  0.00000000  0.02546029  1.0
  In  In112  1  0.44072233  0.33333333  0.02546029  1.0
  In  In113  1  0.44072233  0.66666667  0.02546029  1.0
  In  In114  1  0.77405567  0.00000000  0.02546029  1.0
  In  In115  1  0.77405567  0.33333333  0.02546029  1.0
  In  In116  1  0.77405567  0.66666667  0.02546029  1.0
  In  In117  1  0.22594433  0.00000000  0.07626971  1.0
  In  In118  1  0.22594433  0.33333333  0.07626971  1.0
  In  In119  1  0.22594433  0.66666667  0.07626971  1.0
  In  In120  1  0.55927767  0.00000000  0.07626971  1.0
  In  In121  1  0.55927767  0.33333333  0.07626971  1.0
  In  In122  1  0.55927767  0.66666667  0.07626971  1.0
  In  In123  1  0.89261100  0.00000000  0.07626971  1.0
  In  In124  1  0.89261100  0.33333333  0.07626971  1.0
  In  In125  1  0.89261100  0.66666667  0.07626971  1.0
  Ni  Ni126  1  0.11868500  0.21464833  0.12229357  1.0
  Ni  Ni127  1  0.11868500  0.54798167  0.12229357  1.0
  Ni  Ni128  1  0.11868500  0.88131500  0.12229357  1.0
  Ni  Ni129  1  0.45201833  0.21464833  0.12229357  1.0
  Ni  Ni130  1  0.45201833  0.54798167  0.12229357  1.0
  Ni  Ni131  1  0.45201833  0.88131500  0.12229357  1.0
  Ni  Ni132  1  0.78535167  0.21464833  0.12229357  1.0
  Ni  Ni133  1  0.78535167  0.54798167  0.12229357  1.0
  Ni  Ni134  1  0.78535167  0.88131500  0.12229357  1.0
  Ni  Ni135  1  0.21464833  0.11868500  0.12229357  1.0
  Ni  Ni136  1  0.21464833  0.45201833  0.12229357  1.0
  Ni  Ni137  1  0.21464833  0.78535167  0.12229357  1.0
  Ni  Ni138  1  0.54798167  0.11868500  0.12229357  1.0
  Ni  Ni139  1  0.54798167  0.45201833  0.12229357  1.0
  Ni  Ni140  1  0.54798167  0.78535167  0.12229357  1.0
  Ni  Ni141  1  0.88131500  0.11868500  0.12229357  1.0
  Ni  Ni142  1  0.88131500  0.45201833  0.12229357  1.0
  Ni  Ni143  1  0.88131500  0.78535167  0.12229357  1.0
  Ni  Ni144  1  0.00000000  0.21464833  0.12229357  1.0
  Ni  Ni145  1  0.00000000  0.54798167  0.12229357  1.0
  Ni  Ni146  1  0.00000000  0.88131500  0.12229357  1.0
  Ni  Ni147  1  0.33333333  0.21464833  0.12229357  1.0
  Ni  Ni148  1  0.33333333  0.54798167  0.12229357  1.0
  Ni  Ni149  1  0.33333333  0.88131500  0.12229357  1.0
  Ni  Ni150  1  0.66666667  0.21464833  0.12229357  1.0
  Ni  Ni151  1  0.66666667  0.54798167  0.12229357  1.0
  Ni  Ni152  1  0.66666667  0.88131500  0.12229357  1.0
  Ni  Ni153  1  0.33333333  0.11868500  0.12229357  1.0
  Ni  Ni154  1  0.33333333  0.45201833  0.12229357  1.0
  Ni  Ni155  1  0.33333333  0.78535167  0.12229357  1.0
  Ni  Ni156  1  0.66666667  0.11868500  0.12229357  1.0
  Ni  Ni157  1  0.66666667  0.45201833  0.12229357  1.0
  Ni  Ni158  1  0.66666667  0.78535167  0.12229357  1.0
  Ni  Ni159  1  0.00000000  0.11868500  0.12229357  1.0
  Ni  Ni160  1  0.00000000  0.45201833  0.12229357  1.0
  Ni  Ni161  1  1.00000000  0.78535167  0.12229357  1.0
  Ni  Ni162  1  0.21464833  0.00000000  0.02056357  1.0
  Ni  Ni163  1  0.21464833  0.33333333  0.02056357  1.0
  Ni  Ni164  1  0.21464833  0.66666667  0.02056357  1.0
  Ni  Ni165  1  0.54798167  0.00000000  0.02056357  1.0
  Ni  Ni166  1  0.54798167  0.33333333  0.02056357  1.0
  Ni  Ni167  1  0.54798167  0.66666667  0.02056357  1.0
  Ni  Ni168  1  0.88131500  0.00000000  0.02056357  1.0
  Ni  Ni169  1  0.88131500  0.33333333  0.02056357  1.0
  Ni  Ni170  1  0.88131500  0.66666667  0.02056357  1.0
  Ni  Ni171  1  0.11868500  0.00000000  0.08116643  1.0
  Ni  Ni172  1  0.11868500  0.33333333  0.08116643  1.0
  Ni  Ni173  1  0.11868500  0.66666667  0.08116643  1.0
  Ni  Ni174  1  0.45201833  0.00000000  0.08116643  1.0
  Ni  Ni175  1  0.45201833  0.33333333  0.08116643  1.0
  Ni  Ni176  1  0.45201833  0.66666667  0.08116643  1.0
  Ni  Ni177  1  0.78535167  0.00000000  0.08116643  1.0
  Ni  Ni178  1  0.78535167  0.33333333  0.08116643  1.0
  Ni  Ni179  1  0.78535167  0.66666667  0.08116643  1.0
  In  In180  1  0.25000000  0.25000000  0.26515071  1.0
  In  In181  1  0.25000000  0.58333333  0.26515071  1.0
  In  In182  1  0.25000000  0.91666667  0.26515071  1.0
  In  In183  1  0.58333333  0.25000000  0.26515071  1.0
  In  In184  1  0.58333333  0.58333333  0.26515071  1.0
  In  In185  1  0.58333333  0.91666667  0.26515071  1.0
  In  In186  1  0.91666667  0.25000000  0.26515071  1.0
  In  In187  1  0.91666667  0.58333333  0.26515071  1.0
  In  In188  1  0.91666667  0.91666667  0.26515071  1.0
  In  In189  1  0.08333333  0.08333333  0.26515071  1.0
  In  In190  1  0.08333333  0.41666667  0.26515071  1.0
  In  In191  1  0.08333333  0.75000000  0.26515071  1.0
  In  In192  1  0.41666667  0.08333333  0.26515071  1.0
  In  In193  1  0.41666667  0.41666667  0.26515071  1.0
  In  In194  1  0.41666667  0.75000000  0.26515071  1.0
  In  In195  1  0.75000000  0.08333333  0.26515071  1.0
  In  In196  1  0.75000000  0.41666667  0.26515071  1.0
  In  In197  1  0.75000000  0.75000000  0.26515071  1.0
  In  In198  1  0.16666667  0.08333333  0.26515071  1.0
  In  In199  1  0.16666667  0.41666667  0.26515071  1.0
  In  In200  1  0.16666667  0.75000000  0.26515071  1.0
  In  In201  1  0.50000000  0.08333333  0.26515071  1.0
  In  In202  1  0.50000000  0.41666667  0.26515071  1.0
  In  In203  1  0.50000000  0.75000000  0.26515071  1.0
  In  In204  1  0.83333333  0.08333333  0.26515071  1.0
  In  In205  1  0.83333333  0.41666667  0.26515071  1.0
  In  In206  1  0.83333333  0.75000000  0.26515071  1.0
  In  In207  1  0.16666667  0.25000000  0.26515071  1.0
  In  In208  1  0.16666667  0.58333333  0.26515071  1.0
  In  In209  1  0.16666667  0.91666667  0.26515071  1.0
  In  In210  1  0.50000000  0.25000000  0.26515071  1.0
  In  In211  1  0.50000000  0.58333333  0.26515071  1.0
  In  In212  1  0.50000000  0.91666667  0.26515071  1.0
  In  In213  1  0.83333333  0.25000000  0.26515071  1.0
  In  In214  1  0.83333333  0.58333333  0.26515071  1.0
  In  In215  1  0.83333333  0.91666667  0.26515071  1.0
  In  In216  1  0.25000000  0.16666667  0.19372214  1.0
  In  In217  1  0.25000000  0.50000000  0.19372214  1.0
  In  In218  1  0.25000000  0.83333333  0.19372214  1.0
  In  In219  1  0.58333333  0.16666667  0.19372214  1.0
  In  In220  1  0.58333333  0.50000000  0.19372214  1.0
  In  In221  1  0.58333333  0.83333333  0.19372214  1.0
  In  In222  1  0.91666667  0.16666667  0.19372214  1.0
  In  In223  1  0.91666667  0.50000000  0.19372214  1.0
  In  In224  1  0.91666667  0.83333333  0.19372214  1.0
  In  In225  1  0.08333333  0.16666667  0.19372214  1.0
  In  In226  1  0.08333333  0.50000000  0.19372214  1.0
  In  In227  1  0.08333333  0.83333333  0.19372214  1.0
  In  In228  1  0.41666667  0.16666667  0.19372214  1.0
  In  In229  1  0.41666667  0.50000000  0.19372214  1.0
  In  In230  1  0.41666667  0.83333333  0.19372214  1.0
  In  In231  1  0.75000000  0.16666667  0.19372214  1.0
  In  In232  1  0.75000000  0.50000000  0.19372214  1.0
  In  In233  1  0.75000000  0.83333333  0.19372214  1.0
  In  In234  1  0.00000000  0.22594433  0.21912686  1.0
  In  In235  1  0.00000000  0.55927767  0.21912686  1.0
  In  In236  1  0.00000000  0.89261100  0.21912686  1.0
  In  In237  1  0.33333333  0.22594433  0.21912686  1.0
  In  In238  1  0.33333333  0.55927767  0.21912686  1.0
  In  In239  1  0.33333333  0.89261100  0.21912686  1.0
  In  In240  1  0.66666667  0.22594433  0.21912686  1.0
  In  In241  1  0.66666667  0.55927767  0.21912686  1.0
  In  In242  1  0.66666667  0.89261100  0.21912686  1.0
  In  In243  1  0.00000000  0.10738900  0.16831743  1.0
  In  In244  1  0.00000000  0.44072233  0.16831743  1.0
  In  In245  1  0.00000000  0.77405567  0.16831743  1.0
  In  In246  1  0.33333333  0.10738900  0.16831743  1.0
  In  In247  1  0.33333333  0.44072233  0.16831743  1.0
  In  In248  1  0.33333333  0.77405567  0.16831743  1.0
  In  In249  1  0.66666667  0.10738900  0.16831743  1.0
  In  In250  1  0.66666667  0.44072233  0.16831743  1.0
  In  In251  1  0.66666667  0.77405567  0.16831743  1.0
  In  In252  1  0.22594433  0.10738900  0.21912686  1.0
  In  In253  1  0.22594433  0.44072233  0.21912686  1.0
  In  In254  1  0.22594433  0.77405567  0.21912686  1.0
  In  In255  1  0.55927767  0.10738900  0.21912686  1.0
  In  In256  1  0.55927767  0.44072233  0.21912686  1.0
  In  In257  1  0.55927767  0.77405567  0.21912686  1.0
  In  In258  1  0.89261100  0.10738900  0.21912686  1.0
  In  In259  1  0.89261100  0.44072233  0.21912686  1.0
  In  In260  1  0.89261100  0.77405567  0.21912686  1.0
  In  In261  1  0.00000000  0.00000000  0.16831743  1.0
  In  In262  1  0.00000000  0.33333333  0.16831743  1.0
  In  In263  1  0.00000000  0.66666667  0.16831743  1.0
  In  In264  1  0.33333333  0.00000000  0.16831743  1.0
  In  In265  1  0.33333333  0.33333333  0.16831743  1.0
  In  In266  1  0.33333333  0.66666667  0.16831743  1.0
  In  In267  1  0.66666667  0.00000000  0.16831743  1.0
  In  In268  1  0.66666667  0.33333333  0.16831743  1.0
  In  In269  1  0.66666667  0.66666667  0.16831743  1.0
  In  In270  1  0.10738900  0.22594433  0.16831743  1.0
  In  In271  1  0.10738900  0.55927767  0.16831743  1.0
  In  In272  1  0.10738900  0.89261100  0.16831743  1.0
  In  In273  1  0.44072233  0.22594433  0.16831743  1.0
  In  In274  1  0.44072233  0.55927767  0.16831743  1.0
  In  In275  1  0.44072233  0.89261100  0.16831743  1.0
  In  In276  1  0.77405567  0.22594433  0.16831743  1.0
  In  In277  1  0.77405567  0.55927767  0.16831743  1.0
  In  In278  1  0.77405567  0.89261100  0.16831743  1.0
  In  In279  1  0.00000000  0.00000000  0.21912686  1.0
  In  In280  1  0.00000000  0.33333333  0.21912686  1.0
  In  In281  1  0.00000000  0.66666667  0.21912686  1.0
  In  In282  1  0.33333333  0.00000000  0.21912686  1.0
  In  In283  1  0.33333333  0.33333333  0.21912686  1.0
  In  In284  1  0.33333333  0.66666667  0.21912686  1.0
  In  In285  1  0.66666667  0.00000000  0.21912686  1.0
  In  In286  1  0.66666667  0.33333333  0.21912686  1.0
  In  In287  1  0.66666667  0.66666667  0.21912686  1.0
  In  In288  1  0.10738900  0.00000000  0.16831743  1.0
  In  In289  1  0.10738900  0.33333333  0.16831743  1.0
  In  In290  1  0.10738900  0.66666667  0.16831743  1.0
  In  In291  1  0.44072233  0.00000000  0.16831743  1.0
  In  In292  1  0.44072233  0.33333333  0.16831743  1.0
  In  In293  1  0.44072233  0.66666667  0.16831743  1.0
  In  In294  1  0.77405567  0.00000000  0.16831743  1.0
  In  In295  1  0.77405567  0.33333333  0.16831743  1.0
  In  In296  1  0.77405567  0.66666667  0.16831743  1.0
  In  In297  1  0.22594433  0.00000000  0.21912686  1.0
  In  In298  1  0.22594433  0.33333333  0.21912686  1.0
  In  In299  1  0.22594433  0.66666667  0.21912686  1.0
  In  In300  1  0.55927767  0.00000000  0.21912686  1.0
  In  In301  1  0.55927767  0.33333333  0.21912686  1.0
  In  In302  1  0.55927767  0.66666667  0.21912686  1.0
  In  In303  1  0.89261100  0.00000000  0.21912686  1.0
  In  In304  1  0.89261100  0.33333333  0.21912686  1.0
  In  In305  1  0.89261100  0.66666667  0.21912686  1.0
  Ni  Ni306  1  0.11868500  0.21464833  0.26515071  1.0
  Ni  Ni307  1  0.11868500  0.54798167  0.26515071  1.0
  Ni  Ni308  1  0.11868500  0.88131500  0.26515071  1.0
  Ni  Ni309  1  0.45201833  0.21464833  0.26515071  1.0
  Ni  Ni310  1  0.45201833  0.54798167  0.26515071  1.0
  Ni  Ni311  1  0.45201833  0.88131500  0.26515071  1.0
  Ni  Ni312  1  0.78535167  0.21464833  0.26515071  1.0
  Ni  Ni313  1  0.78535167  0.54798167  0.26515071  1.0
  Ni  Ni314  1  0.78535167  0.88131500  0.26515071  1.0
  Ni  Ni315  1  0.21464833  0.11868500  0.26515071  1.0
  Ni  Ni316  1  0.21464833  0.45201833  0.26515071  1.0
  Ni  Ni317  1  0.21464833  0.78535167  0.26515071  1.0
  Ni  Ni318  1  0.54798167  0.11868500  0.26515071  1.0
  Ni  Ni319  1  0.54798167  0.45201833  0.26515071  1.0
  Ni  Ni320  1  0.54798167  0.78535167  0.26515071  1.0
  Ni  Ni321  1  0.88131500  0.11868500  0.26515071  1.0
  Ni  Ni322  1  0.88131500  0.45201833  0.26515071  1.0
  Ni  Ni323  1  0.88131500  0.78535167  0.26515071  1.0
  Ni  Ni324  1  0.00000000  0.21464833  0.26515071  1.0
  Ni  Ni325  1  0.00000000  0.54798167  0.26515071  1.0
  Ni  Ni326  1  0.00000000  0.88131500  0.26515071  1.0
  Ni  Ni327  1  0.33333333  0.21464833  0.26515071  1.0
  Ni  Ni328  1  0.33333333  0.54798167  0.26515071  1.0
  Ni  Ni329  1  0.33333333  0.88131500  0.26515071  1.0
  Ni  Ni330  1  0.66666667  0.21464833  0.26515071  1.0
  Ni  Ni331  1  0.66666667  0.54798167  0.26515071  1.0
  Ni  Ni332  1  0.66666667  0.88131500  0.26515071  1.0
  Ni  Ni333  1  0.33333333  0.11868500  0.26515071  1.0
  Ni  Ni334  1  0.33333333  0.45201833  0.26515071  1.0
  Ni  Ni335  1  0.33333333  0.78535167  0.26515071  1.0
  Ni  Ni336  1  0.66666667  0.11868500  0.26515071  1.0
  Ni  Ni337  1  0.66666667  0.45201833  0.26515071  1.0
  Ni  Ni338  1  0.66666667  0.78535167  0.26515071  1.0
  Ni  Ni339  1  0.00000000  0.11868500  0.26515071  1.0
  Ni  Ni340  1  0.00000000  0.45201833  0.26515071  1.0
  Ni  Ni341  1  1.00000000  0.78535167  0.26515071  1.0
  Ni  Ni342  1  0.21464833  0.00000000  0.16342071  1.0
  Ni  Ni343  1  0.21464833  0.33333333  0.16342071  1.0
  Ni  Ni344  1  0.21464833  0.66666667  0.16342071  1.0
  Ni  Ni345  1  0.54798167  0.00000000  0.16342071  1.0
  Ni  Ni346  1  0.54798167  0.33333333  0.16342071  1.0
  Ni  Ni347  1  0.54798167  0.66666667  0.16342071  1.0
  Ni  Ni348  1  0.88131500  0.00000000  0.16342071  1.0
  Ni  Ni349  1  0.88131500  0.33333333  0.16342071  1.0
  Ni  Ni350  1  0.88131500  0.66666667  0.16342071  1.0
  Ni  Ni351  1  0.11868500  0.00000000  0.22402357  1.0
  Ni  Ni352  1  0.11868500  0.33333333  0.22402357  1.0
  Ni  Ni353  1  0.11868500  0.66666667  0.22402357  1.0
  Ni  Ni354  1  0.45201833  0.00000000  0.22402357  1.0
  Ni  Ni355  1  0.45201833  0.33333333  0.22402357  1.0
  Ni  Ni356  1  0.45201833  0.66666667  0.22402357  1.0
  Ni  Ni357  1  0.78535167  0.00000000  0.22402357  1.0
  Ni  Ni358  1  0.78535167  0.33333333  0.22402357  1.0
  Ni  Ni359  1  0.78535167  0.66666667  0.22402357  1.0
  In  In360  1  0.25000000  0.25000000  0.40800786  1.0
  In  In361  1  0.25000000  0.58333333  0.40800786  1.0
  In  In362  1  0.25000000  0.91666667  0.40800786  1.0
  In  In363  1  0.58333333  0.25000000  0.40800786  1.0
  In  In364  1  0.58333333  0.58333333  0.40800786  1.0
  In  In365  1  0.58333333  0.91666667  0.40800786  1.0
  In  In366  1  0.91666667  0.25000000  0.40800786  1.0
  In  In367  1  0.91666667  0.58333333  0.40800786  1.0
  In  In368  1  0.91666667  0.91666667  0.40800786  1.0
  In  In369  1  0.08333333  0.08333333  0.40800786  1.0
  In  In370  1  0.08333333  0.41666667  0.40800786  1.0
  In  In371  1  0.08333333  0.75000000  0.40800786  1.0
  In  In372  1  0.41666667  0.08333333  0.40800786  1.0
  In  In373  1  0.41666667  0.41666667  0.40800786  1.0
  In  In374  1  0.41666667  0.75000000  0.40800786  1.0
  In  In375  1  0.75000000  0.08333333  0.40800786  1.0
  In  In376  1  0.75000000  0.41666667  0.40800786  1.0
  In  In377  1  0.75000000  0.75000000  0.40800786  1.0
  In  In378  1  0.16666667  0.08333333  0.40800786  1.0
  In  In379  1  0.16666667  0.41666667  0.40800786  1.0
  In  In380  1  0.16666667  0.75000000  0.40800786  1.0
  In  In381  1  0.50000000  0.08333333  0.40800786  1.0
  In  In382  1  0.50000000  0.41666667  0.40800786  1.0
  In  In383  1  0.50000000  0.75000000  0.40800786  1.0
  In  In384  1  0.83333333  0.08333333  0.40800786  1.0
  In  In385  1  0.83333333  0.41666667  0.40800786  1.0
  In  In386  1  0.83333333  0.75000000  0.40800786  1.0
  In  In387  1  0.16666667  0.25000000  0.40800786  1.0
  In  In388  1  0.16666667  0.58333333  0.40800786  1.0
  In  In389  1  0.16666667  0.91666667  0.40800786  1.0
  In  In390  1  0.50000000  0.25000000  0.40800786  1.0
  In  In391  1  0.50000000  0.58333333  0.40800786  1.0
  In  In392  1  0.50000000  0.91666667  0.40800786  1.0
  In  In393  1  0.83333333  0.25000000  0.40800786  1.0
  In  In394  1  0.83333333  0.58333333  0.40800786  1.0
  In  In395  1  0.83333333  0.91666667  0.40800786  1.0
  In  In396  1  0.25000000  0.16666667  0.33657929  1.0
  In  In397  1  0.25000000  0.50000000  0.33657929  1.0
  In  In398  1  0.25000000  0.83333333  0.33657929  1.0
  In  In399  1  0.58333333  0.16666667  0.33657929  1.0
  In  In400  1  0.58333333  0.50000000  0.33657929  1.0
  In  In401  1  0.58333333  0.83333333  0.33657929  1.0
  In  In402  1  0.91666667  0.16666667  0.33657929  1.0
  In  In403  1  0.91666667  0.50000000  0.33657929  1.0
  In  In404  1  0.91666667  0.83333333  0.33657929  1.0
  In  In405  1  0.08333333  0.16666667  0.33657929  1.0
  In  In406  1  0.08333333  0.50000000  0.33657929  1.0
  In  In407  1  0.08333333  0.83333333  0.33657929  1.0
  In  In408  1  0.41666667  0.16666667  0.33657929  1.0
  In  In409  1  0.41666667  0.50000000  0.33657929  1.0
  In  In410  1  0.41666667  0.83333333  0.33657929  1.0
  In  In411  1  0.75000000  0.16666667  0.33657929  1.0
  In  In412  1  0.75000000  0.50000000  0.33657929  1.0
  In  In413  1  0.75000000  0.83333333  0.33657929  1.0
  In  In414  1  0.00000000  0.22594433  0.36198400  1.0
  In  In415  1  0.00000000  0.55927767  0.36198400  1.0
  In  In416  1  0.00000000  0.89261100  0.36198400  1.0
  In  In417  1  0.33333333  0.22594433  0.36198400  1.0
  In  In418  1  0.33333333  0.55927767  0.36198400  1.0
  In  In419  1  0.33333333  0.89261100  0.36198400  1.0
  In  In420  1  0.66666667  0.22594433  0.36198400  1.0
  In  In421  1  0.66666667  0.55927767  0.36198400  1.0
  In  In422  1  0.66666667  0.89261100  0.36198400  1.0
  In  In423  1  0.00000000  0.10738900  0.31117457  1.0
  In  In424  1  0.00000000  0.44072233  0.31117457  1.0
  In  In425  1  0.00000000  0.77405567  0.31117457  1.0
  In  In426  1  0.33333333  0.10738900  0.31117457  1.0
  In  In427  1  0.33333333  0.44072233  0.31117457  1.0
  In  In428  1  0.33333333  0.77405567  0.31117457  1.0
  In  In429  1  0.66666667  0.10738900  0.31117457  1.0
  In  In430  1  0.66666667  0.44072233  0.31117457  1.0
  In  In431  1  0.66666667  0.77405567  0.31117457  1.0
  In  In432  1  0.22594433  0.10738900  0.36198400  1.0
  In  In433  1  0.22594433  0.44072233  0.36198400  1.0
  In  In434  1  0.22594433  0.77405567  0.36198400  1.0
  In  In435  1  0.55927767  0.10738900  0.36198400  1.0
  In  In436  1  0.55927767  0.44072233  0.36198400  1.0
  In  In437  1  0.55927767  0.77405567  0.36198400  1.0
  In  In438  1  0.89261100  0.10738900  0.36198400  1.0
  In  In439  1  0.89261100  0.44072233  0.36198400  1.0
  In  In440  1  0.89261100  0.77405567  0.36198400  1.0
  In  In441  1  0.00000000  0.00000000  0.31117457  1.0
  In  In442  1  0.00000000  0.33333333  0.31117457  1.0
  In  In443  1  0.00000000  0.66666667  0.31117457  1.0
  In  In444  1  0.33333333  0.00000000  0.31117457  1.0
  In  In445  1  0.33333333  0.33333333  0.31117457  1.0
  In  In446  1  0.33333333  0.66666667  0.31117457  1.0
  In  In447  1  0.66666667  0.00000000  0.31117457  1.0
  In  In448  1  0.66666667  0.33333333  0.31117457  1.0
  In  In449  1  0.66666667  0.66666667  0.31117457  1.0
  In  In450  1  0.10738900  0.22594433  0.31117457  1.0
  In  In451  1  0.10738900  0.55927767  0.31117457  1.0
  In  In452  1  0.10738900  0.89261100  0.31117457  1.0
  In  In453  1  0.44072233  0.22594433  0.31117457  1.0
  In  In454  1  0.44072233  0.55927767  0.31117457  1.0
  In  In455  1  0.44072233  0.89261100  0.31117457  1.0
  In  In456  1  0.77405567  0.22594433  0.31117457  1.0
  In  In457  1  0.77405567  0.55927767  0.31117457  1.0
  In  In458  1  0.77405567  0.89261100  0.31117457  1.0
  In  In459  1  0.00000000  0.00000000  0.36198400  1.0
  In  In460  1  0.00000000  0.33333333  0.36198400  1.0
  In  In461  1  0.00000000  0.66666667  0.36198400  1.0
  In  In462  1  0.33333333  0.00000000  0.36198400  1.0
  In  In463  1  0.33333333  0.33333333  0.36198400  1.0
  In  In464  1  0.33333333  0.66666667  0.36198400  1.0
  In  In465  1  0.66666667  0.00000000  0.36198400  1.0
  In  In466  1  0.66666667  0.33333333  0.36198400  1.0
  In  In467  1  0.66666667  0.66666667  0.36198400  1.0
  In  In468  1  0.10738900  0.00000000  0.31117457  1.0
  In  In469  1  0.10738900  0.33333333  0.31117457  1.0
  In  In470  1  0.10738900  0.66666667  0.31117457  1.0
  In  In471  1  0.44072233  0.00000000  0.31117457  1.0
  In  In472  1  0.44072233  0.33333333  0.31117457  1.0
  In  In473  1  0.44072233  0.66666667  0.31117457  1.0
  In  In474  1  0.77405567  0.00000000  0.31117457  1.0
  In  In475  1  0.77405567  0.33333333  0.31117457  1.0
  In  In476  1  0.77405567  0.66666667  0.31117457  1.0
  In  In477  1  0.22594433  0.00000000  0.36198400  1.0
  In  In478  1  0.22594433  0.33333333  0.36198400  1.0
  In  In479  1  0.22594433  0.66666667  0.36198400  1.0
  In  In480  1  0.55927767  0.00000000  0.36198400  1.0
  In  In481  1  0.55927767  0.33333333  0.36198400  1.0
  In  In482  1  0.55927767  0.66666667  0.36198400  1.0
  In  In483  1  0.89261100  0.00000000  0.36198400  1.0
  In  In484  1  0.89261100  0.33333333  0.36198400  1.0
  In  In485  1  0.89261100  0.66666667  0.36198400  1.0
  Ni  Ni486  1  0.11868500  0.21464833  0.40800786  1.0
  Ni  Ni487  1  0.11868500  0.54798167  0.40800786  1.0
  Ni  Ni488  1  0.11868500  0.88131500  0.40800786  1.0
  Ni  Ni489  1  0.45201833  0.21464833  0.40800786  1.0
  Ni  Ni490  1  0.45201833  0.54798167  0.40800786  1.0
  Ni  Ni491  1  0.45201833  0.88131500  0.40800786  1.0
  Ni  Ni492  1  0.78535167  0.21464833  0.40800786  1.0
  Ni  Ni493  1  0.78535167  0.54798167  0.40800786  1.0
  Ni  Ni494  1  0.78535167  0.88131500  0.40800786  1.0
  Ni  Ni495  1  0.21464833  0.11868500  0.40800786  1.0
  Ni  Ni496  1  0.21464833  0.45201833  0.40800786  1.0
  Ni  Ni497  1  0.21464833  0.78535167  0.40800786  1.0
  Ni  Ni498  1  0.54798167  0.11868500  0.40800786  1.0
  Ni  Ni499  1  0.54798167  0.45201833  0.40800786  1.0
  Ni  Ni500  1  0.54798167  0.78535167  0.40800786  1.0
  Ni  Ni501  1  0.88131500  0.11868500  0.40800786  1.0
  Ni  Ni502  1  0.88131500  0.45201833  0.40800786  1.0
  Ni  Ni503  1  0.88131500  0.78535167  0.40800786  1.0
  Ni  Ni504  1  0.00000000  0.21464833  0.40800786  1.0
  Ni  Ni505  1  0.00000000  0.54798167  0.40800786  1.0
  Ni  Ni506  1  0.00000000  0.88131500  0.40800786  1.0
  Ni  Ni507  1  0.33333333  0.21464833  0.40800786  1.0
  Ni  Ni508  1  0.33333333  0.54798167  0.40800786  1.0
  Ni  Ni509  1  0.33333333  0.88131500  0.40800786  1.0
  Ni  Ni510  1  0.66666667  0.21464833  0.40800786  1.0
  Ni  Ni511  1  0.66666667  0.54798167  0.40800786  1.0
  Ni  Ni512  1  0.66666667  0.88131500  0.40800786  1.0
  Ni  Ni513  1  0.33333333  0.11868500  0.40800786  1.0
  Ni  Ni514  1  0.33333333  0.45201833  0.40800786  1.0
  Ni  Ni515  1  0.33333333  0.78535167  0.40800786  1.0
  Ni  Ni516  1  0.66666667  0.11868500  0.40800786  1.0
  Ni  Ni517  1  0.66666667  0.45201833  0.40800786  1.0
  Ni  Ni518  1  0.66666667  0.78535167  0.40800786  1.0
  Ni  Ni519  1  0.00000000  0.11868500  0.40800786  1.0
  Ni  Ni520  1  0.00000000  0.45201833  0.40800786  1.0
  Ni  Ni521  1  1.00000000  0.78535167  0.40800786  1.0
  Ni  Ni522  1  0.21464833  0.00000000  0.30627786  1.0
  Ni  Ni523  1  0.21464833  0.33333333  0.30627786  1.0
  Ni  Ni524  1  0.21464833  0.66666667  0.30627786  1.0
  Ni  Ni525  1  0.54798167  0.00000000  0.30627786  1.0
  Ni  Ni526  1  0.54798167  0.33333333  0.30627786  1.0
  Ni  Ni527  1  0.54798167  0.66666667  0.30627786  1.0
  Ni  Ni528  1  0.88131500  0.00000000  0.30627786  1.0
  Ni  Ni529  1  0.88131500  0.33333333  0.30627786  1.0
  Ni  Ni530  1  0.88131500  0.66666667  0.30627786  1.0
  Ni  Ni531  1  0.11868500  0.00000000  0.36688071  1.0
  Ni  Ni532  1  0.11868500  0.33333333  0.36688071  1.0
  Ni  Ni533  1  0.11868500  0.66666667  0.36688071  1.0
  Ni  Ni534  1  0.45201833  0.00000000  0.36688071  1.0
  Ni  Ni535  1  0.45201833  0.33333333  0.36688071  1.0
  Ni  Ni536  1  0.45201833  0.66666667  0.36688071  1.0
  Ni  Ni537  1  0.78535167  0.00000000  0.36688071  1.0
  Ni  Ni538  1  0.78535167  0.33333333  0.36688071  1.0
  Ni  Ni539  1  0.78535167  0.66666667  0.36688071  1.0
