# generated using pymatgen
data_In9Ni13
_symmetry_space_group_name_H-M   'P 1'
_cell_length_a   27.24597105
_cell_length_b   25.37389799
_cell_length_c   47.26275267
_cell_angle_alpha   51.21888156
_cell_angle_beta   63.23150949
_cell_angle_gamma   90.00000000
_symmetry_Int_Tables_number   1
_chemical_formula_structural   In9Ni13
_chemical_formula_sum   'In243 Ni351'
_cell_volume   20789.83086581
_cell_formula_units_Z   27
loop_
 _symmetry_equiv_pos_site_id
 _symmetry_equiv_pos_as_xyz
  1  'x, y, z'
loop_
 _atom_site_type_symbol
 _atom_site_label
 _atom_site_symmetry_multiplicity
 _atom_site_fract_x
 _atom_site_fract_y
 _atom_site_fract_z
 _atom_site_occupancy
  In  In0  1  0.26996367  0.27700733  0.12460800  1.0
  In  In1  1  0.26996367  0.61034067  0.12460800  1.0
  In  In2  1  0.26996367  0.94367400  0.12460800  1.0
  In  In3  1  0.60329700  0.27700733  0.12460800  1.0
  In  In4  1  0.60329700  0.61034067  0.12460800  1.0
  In  In5  1  0.60329700  0.94367400  0.12460800  1.0
  In  In6  1  0.93663033  0.27700733  0.12460800  1.0
  In  In7  1  0.93663033  0.61034067  0.12460800  1.0
  In  In8  1  0.93663033  0.94367400  0.12460800  1.0
  In  In9  1  0.20476033  0.05739767  0.08727400  1.0
  In  In10  1  0.20476033  0.39073100  0.08727400  1.0
  In  In11  1  0.20476033  0.72406433  0.08727400  1.0
  In  In12  1  0.53809367  0.05739767  0.08727400  1.0
  In  In13  1  0.53809367  0.39073100  0.08727400  1.0
  In  In14  1  0.53809367  0.72406433  0.08727400  1.0
  In  In15  1  0.87142700  0.05739767  0.08727400  1.0
  In  In16  1  0.87142700  0.39073100  0.08727400  1.0
  In  In17  1  0.87142700  0.72406433  0.08727400  1.0
  In  In18  1  0.11075000  0.09506000  0.05499200  1.0
  In  In19  1  0.11075000  0.42839333  0.05499200  1.0
  In  In20  1  0.11075000  0.76172667  0.05499200  1.0
  In  In21  1  0.44408333  0.09506000  0.05499200  1.0
  In  In22  1  0.44408333  0.42839333  0.05499200  1.0
  In  In23  1  0.44408333  0.76172667  0.05499200  1.0
  In  In24  1  0.77741667  0.09506000  0.05499200  1.0
  In  In25  1  0.77741667  0.42839333  0.05499200  1.0
  In  In26  1  0.77741667  0.76172667  0.05499200  1.0
  In  In27  1  0.26996367  0.08400867  0.12460800  1.0
  In  In28  1  0.26996367  0.41734200  0.12460800  1.0
  In  In29  1  0.26996367  0.75067533  0.12460800  1.0
  In  In30  1  0.60329700  0.08400867  0.12460800  1.0
  In  In31  1  0.60329700  0.41734200  0.12460800  1.0
  In  In32  1  0.60329700  0.75067533  0.12460800  1.0
  In  In33  1  0.93663033  0.08400867  0.12460800  1.0
  In  In34  1  0.93663033  0.41734200  0.12460800  1.0
  In  In35  1  0.93663033  0.75067533  0.12460800  1.0
  In  In36  1  0.22258333  0.23827333  0.07509486  1.0
  In  In37  1  0.22258333  0.57160667  0.07509486  1.0
  In  In38  1  0.22258333  0.90494000  0.07509486  1.0
  In  In39  1  0.55591667  0.23827333  0.07509486  1.0
  In  In40  1  0.55591667  0.57160667  0.07509486  1.0
  In  In41  1  0.55591667  0.90494000  0.07509486  1.0
  In  In42  1  0.88925000  0.23827333  0.07509486  1.0
  In  In43  1  0.88925000  0.57160667  0.07509486  1.0
  In  In44  1  0.88925000  0.90494000  0.07509486  1.0
  In  In45  1  0.00000000  0.16666667  0.13647200  1.0
  In  In46  1  0.00000000  0.50000000  0.13647200  1.0
  In  In47  1  0.00000000  0.83333333  0.13647200  1.0
  In  In48  1  0.33333333  0.16666667  0.13647200  1.0
  In  In49  1  0.33333333  0.50000000  0.13647200  1.0
  In  In50  1  0.33333333  0.83333333  0.13647200  1.0
  In  In51  1  0.66666667  0.16666667  0.13647200  1.0
  In  In52  1  0.66666667  0.50000000  0.13647200  1.0
  In  In53  1  0.66666667  0.83333333  0.13647200  1.0
  In  In54  1  0.06336967  0.05632600  0.00547886  1.0
  In  In55  1  0.06336967  0.38965933  0.00547886  1.0
  In  In56  1  0.06336967  0.72299267  0.00547886  1.0
  In  In57  1  0.39670300  0.05632600  0.00547886  1.0
  In  In58  1  0.39670300  0.38965933  0.00547886  1.0
  In  In59  1  0.39670300  0.72299267  0.00547886  1.0
  In  In60  1  0.73003633  0.05632600  0.00547886  1.0
  In  In61  1  0.73003633  0.38965933  0.00547886  1.0
  In  In62  1  0.73003633  0.72299267  0.00547886  1.0
  In  In63  1  0.06336967  0.24932467  0.00547886  1.0
  In  In64  1  0.06336967  0.58265800  0.00547886  1.0
  In  In65  1  0.06336967  0.91599133  0.00547886  1.0
  In  In66  1  0.39670300  0.24932467  0.00547886  1.0
  In  In67  1  0.39670300  0.58265800  0.00547886  1.0
  In  In68  1  0.39670300  0.91599133  0.00547886  1.0
  In  In69  1  0.73003633  0.24932467  0.00547886  1.0
  In  In70  1  0.73003633  0.58265800  0.00547886  1.0
  In  In71  1  0.73003633  0.91599133  0.00547886  1.0
  In  In72  1  0.12857300  0.27593567  0.04281286  1.0
  In  In73  1  0.12857300  0.60926900  0.04281286  1.0
  In  In74  1  0.12857300  0.94260233  0.04281286  1.0
  In  In75  1  0.46190633  0.27593567  0.04281286  1.0
  In  In76  1  0.46190633  0.60926900  0.04281286  1.0
  In  In77  1  0.46190633  0.94260233  0.04281286  1.0
  In  In78  1  0.79523967  0.27593567  0.04281286  1.0
  In  In79  1  0.79523967  0.60926900  0.04281286  1.0
  In  In80  1  0.79523967  0.94260233  0.04281286  1.0
  Ni  Ni81  1  0.28027267  0.02164767  0.04918957  1.0
  Ni  Ni82  1  0.28027267  0.35498100  0.04918957  1.0
  Ni  Ni83  1  0.28027267  0.68831433  0.04918957  1.0
  Ni  Ni84  1  0.61360600  0.02164767  0.04918957  1.0
  Ni  Ni85  1  0.61360600  0.35498100  0.04918957  1.0
  Ni  Ni86  1  0.61360600  0.68831433  0.04918957  1.0
  Ni  Ni87  1  0.94693933  0.02164767  0.04918957  1.0
  Ni  Ni88  1  0.94693933  0.35498100  0.04918957  1.0
  Ni  Ni89  1  0.94693933  0.68831433  0.04918957  1.0
  Ni  Ni90  1  0.16666667  0.00000000  0.06504343  1.0
  Ni  Ni91  1  0.16666667  0.33333333  0.06504343  1.0
  Ni  Ni92  1  0.16666667  0.66666667  0.06504343  1.0
  Ni  Ni93  1  0.50000000  0.00000000  0.06504343  1.0
  Ni  Ni94  1  0.50000000  0.33333333  0.06504343  1.0
  Ni  Ni95  1  0.50000000  0.66666667  0.06504343  1.0
  Ni  Ni96  1  0.83333333  0.00000000  0.06504343  1.0
  Ni  Ni97  1  0.83333333  0.33333333  0.06504343  1.0
  Ni  Ni98  1  0.83333333  0.66666667  0.06504343  1.0
  Ni  Ni99  1  0.10763467  0.18156533  0.12370171  1.0
  Ni  Ni100  1  0.10763467  0.51489867  0.12370171  1.0
  Ni  Ni101  1  0.10763467  0.84823200  0.12370171  1.0
  Ni  Ni102  1  0.44096800  0.18156533  0.12370171  1.0
  Ni  Ni103  1  0.44096800  0.51489867  0.12370171  1.0
  Ni  Ni104  1  0.44096800  0.84823200  0.12370171  1.0
  Ni  Ni105  1  0.77430133  0.18156533  0.12370171  1.0
  Ni  Ni106  1  0.77430133  0.51489867  0.12370171  1.0
  Ni  Ni107  1  0.77430133  0.84823200  0.12370171  1.0
  Ni  Ni108  1  0.28027267  0.18201133  0.04918957  1.0
  Ni  Ni109  1  0.28027267  0.51534467  0.04918957  1.0
  Ni  Ni110  1  0.28027267  0.84867800  0.04918957  1.0
  Ni  Ni111  1  0.61360600  0.18201133  0.04918957  1.0
  Ni  Ni112  1  0.61360600  0.51534467  0.04918957  1.0
  Ni  Ni113  1  0.61360600  0.84867800  0.04918957  1.0
  Ni  Ni114  1  0.94693933  0.18201133  0.04918957  1.0
  Ni  Ni115  1  0.94693933  0.51534467  0.04918957  1.0
  Ni  Ni116  1  0.94693933  0.84867800  0.04918957  1.0
  Ni  Ni117  1  0.22569867  0.15176800  0.00638514  1.0
  Ni  Ni118  1  0.22569867  0.48510133  0.00638514  1.0
  Ni  Ni119  1  0.22569867  0.81843467  0.00638514  1.0
  Ni  Ni120  1  0.55903200  0.15176800  0.00638514  1.0
  Ni  Ni121  1  0.55903200  0.48510133  0.00638514  1.0
  Ni  Ni122  1  0.55903200  0.81843467  0.00638514  1.0
  Ni  Ni123  1  0.89236533  0.15176800  0.00638514  1.0
  Ni  Ni124  1  0.89236533  0.48510133  0.00638514  1.0
  Ni  Ni125  1  0.89236533  0.81843467  0.00638514  1.0
  Ni  Ni126  1  0.16666667  0.24452867  0.13647200  1.0
  Ni  Ni127  1  0.16666667  0.57786200  0.13647200  1.0
  Ni  Ni128  1  0.16666667  0.91119533  0.13647200  1.0
  Ni  Ni129  1  0.50000000  0.24452867  0.13647200  1.0
  Ni  Ni130  1  0.50000000  0.57786200  0.13647200  1.0
  Ni  Ni131  1  0.50000000  0.91119533  0.13647200  1.0
  Ni  Ni132  1  0.83333333  0.24452867  0.13647200  1.0
  Ni  Ni133  1  0.83333333  0.57786200  0.13647200  1.0
  Ni  Ni134  1  0.83333333  0.91119533  0.13647200  1.0
  Ni  Ni135  1  0.00682633  0.08621233  0.06257571  1.0
  Ni  Ni136  1  0.00682633  0.41954567  0.06257571  1.0
  Ni  Ni137  1  0.00682633  0.75287900  0.06257571  1.0
  Ni  Ni138  1  0.34015967  0.08621233  0.06257571  1.0
  Ni  Ni139  1  0.34015967  0.41954567  0.06257571  1.0
  Ni  Ni140  1  0.34015967  0.75287900  0.06257571  1.0
  Ni  Ni141  1  0.67349300  0.08621233  0.06257571  1.0
  Ni  Ni142  1  0.67349300  0.41954567  0.06257571  1.0
  Ni  Ni143  1  0.67349300  0.75287900  0.06257571  1.0
  Ni  Ni144  1  0.05306067  0.15132200  0.08089729  1.0
  Ni  Ni145  1  0.05306067  0.48465533  0.08089729  1.0
  Ni  Ni146  1  0.05306067  0.81798867  0.08089729  1.0
  Ni  Ni147  1  0.38639400  0.15132200  0.08089729  1.0
  Ni  Ni148  1  0.38639400  0.48465533  0.08089729  1.0
  Ni  Ni149  1  0.38639400  0.81798867  0.08089729  1.0
  Ni  Ni150  1  0.71972733  0.15132200  0.08089729  1.0
  Ni  Ni151  1  0.71972733  0.48465533  0.08089729  1.0
  Ni  Ni152  1  0.71972733  0.81798867  0.08089729  1.0
  Ni  Ni153  1  0.32650700  0.24712100  0.06751114  1.0
  Ni  Ni154  1  0.32650700  0.58045433  0.06751114  1.0
  Ni  Ni155  1  0.32650700  0.91378767  0.06751114  1.0
  Ni  Ni156  1  0.65984033  0.24712100  0.06751114  1.0
  Ni  Ni157  1  0.65984033  0.58045433  0.06751114  1.0
  Ni  Ni158  1  0.65984033  0.91378767  0.06751114  1.0
  Ni  Ni159  1  0.99317367  0.24712100  0.06751114  1.0
  Ni  Ni160  1  0.99317367  0.58045433  0.06751114  1.0
  Ni  Ni161  1  0.99317367  0.91378767  0.06751114  1.0
  Ni  Ni162  1  0.05306067  0.31168567  0.08089729  1.0
  Ni  Ni163  1  0.05306067  0.64501900  0.08089729  1.0
  Ni  Ni164  1  0.05306067  0.97835233  0.08089729  1.0
  Ni  Ni165  1  0.38639400  0.31168567  0.08089729  1.0
  Ni  Ni166  1  0.38639400  0.64501900  0.08089729  1.0
  Ni  Ni167  1  0.38639400  0.97835233  0.08089729  1.0
  Ni  Ni168  1  0.71972733  0.31168567  0.08089729  1.0
  Ni  Ni169  1  0.71972733  0.64501900  0.08089729  1.0
  Ni  Ni170  1  0.71972733  0.97835233  0.08089729  1.0
  Ni  Ni171  1  0.16666667  0.08880467  0.13647200  1.0
  Ni  Ni172  1  0.16666667  0.42213800  0.13647200  1.0
  Ni  Ni173  1  0.16666667  0.75547133  0.13647200  1.0
  Ni  Ni174  1  0.50000000  0.08880467  0.13647200  1.0
  Ni  Ni175  1  0.50000000  0.42213800  0.13647200  1.0
  Ni  Ni176  1  0.50000000  0.75547133  0.13647200  1.0
  Ni  Ni177  1  0.83333333  0.08880467  0.13647200  1.0
  Ni  Ni178  1  0.83333333  0.42213800  0.13647200  1.0
  Ni  Ni179  1  0.83333333  0.75547133  0.13647200  1.0
  Ni  Ni180  1  0.00000000  0.00000000  0.13647200  1.0
  Ni  Ni181  1  0.00000000  0.33333333  0.13647200  1.0
  Ni  Ni182  1  0.00000000  0.66666667  0.13647200  1.0
  Ni  Ni183  1  0.33333333  0.00000000  0.13647200  1.0
  Ni  Ni184  1  0.33333333  0.33333333  0.13647200  1.0
  Ni  Ni185  1  0.33333333  0.66666667  0.13647200  1.0
  Ni  Ni186  1  0.66666667  0.00000000  0.13647200  1.0
  Ni  Ni187  1  0.66666667  0.33333333  0.13647200  1.0
  Ni  Ni188  1  0.66666667  0.66666667  0.13647200  1.0
  Ni  Ni189  1  0.16666667  0.16666667  0.06504343  1.0
  Ni  Ni190  1  0.16666667  0.50000000  0.06504343  1.0
  Ni  Ni191  1  0.16666667  0.83333333  0.06504343  1.0
  Ni  Ni192  1  0.50000000  0.16666667  0.06504343  1.0
  Ni  Ni193  1  0.50000000  0.50000000  0.06504343  1.0
  Ni  Ni194  1  0.50000000  0.83333333  0.06504343  1.0
  Ni  Ni195  1  0.83333333  0.16666667  0.06504343  1.0
  Ni  Ni196  1  0.83333333  0.50000000  0.06504343  1.0
  Ni  Ni197  1  0.83333333  0.83333333  0.06504343  1.0
  In  In198  1  0.26996367  0.27700733  0.26746514  1.0
  In  In199  1  0.26996367  0.61034067  0.26746514  1.0
  In  In200  1  0.26996367  0.94367400  0.26746514  1.0
  In  In201  1  0.60329700  0.27700733  0.26746514  1.0
  In  In202  1  0.60329700  0.61034067  0.26746514  1.0
  In  In203  1  0.60329700  0.94367400  0.26746514  1.0
  In  In204  1  0.93663033  0.27700733  0.26746514  1.0
  In  In205  1  0.93663033  0.61034067  0.26746514  1.0
  In  In206  1  0.93663033  0.94367400  0.26746514  1.0
  In  In207  1  0.20476033  0.05739767  0.23013114  1.0
  In  In208  1  0.20476033  0.39073100  0.23013114  1.0
  In  In209  1  0.20476033  0.72406433  0.23013114  1.0
  In  In210  1  0.53809367  0.05739767  0.23013114  1.0
  In  In211  1  0.53809367  0.39073100  0.23013114  1.0
  In  In212  1  0.53809367  0.72406433  0.23013114  1.0
  In  In213  1  0.87142700  0.05739767  0.23013114  1.0
  In  In214  1  0.87142700  0.39073100  0.23013114  1.0
  In  In215  1  0.87142700  0.72406433  0.23013114  1.0
  In  In216  1  0.11075000  0.09506000  0.19784914  1.0
  In  In217  1  0.11075000  0.42839333  0.19784914  1.0
  In  In218  1  0.11075000  0.76172667  0.19784914  1.0
  In  In219  1  0.44408333  0.09506000  0.19784914  1.0
  In  In220  1  0.44408333  0.42839333  0.19784914  1.0
  In  In221  1  0.44408333  0.76172667  0.19784914  1.0
  In  In222  1  0.77741667  0.09506000  0.19784914  1.0
  In  In223  1  0.77741667  0.42839333  0.19784914  1.0
  In  In224  1  0.77741667  0.76172667  0.19784914  1.0
  In  In225  1  0.26996367  0.08400867  0.26746514  1.0
  In  In226  1  0.26996367  0.41734200  0.26746514  1.0
  In  In227  1  0.26996367  0.75067533  0.26746514  1.0
  In  In228  1  0.60329700  0.08400867  0.26746514  1.0
  In  In229  1  0.60329700  0.41734200  0.26746514  1.0
  In  In230  1  0.60329700  0.75067533  0.26746514  1.0
  In  In231  1  0.93663033  0.08400867  0.26746514  1.0
  In  In232  1  0.93663033  0.41734200  0.26746514  1.0
  In  In233  1  0.93663033  0.75067533  0.26746514  1.0
  In  In234  1  0.22258333  0.23827333  0.21795200  1.0
  In  In235  1  0.22258333  0.57160667  0.21795200  1.0
  In  In236  1  0.22258333  0.90494000  0.21795200  1.0
  In  In237  1  0.55591667  0.23827333  0.21795200  1.0
  In  In238  1  0.55591667  0.57160667  0.21795200  1.0
  In  In239  1  0.55591667  0.90494000  0.21795200  1.0
  In  In240  1  0.88925000  0.23827333  0.21795200  1.0
  In  In241  1  0.88925000  0.57160667  0.21795200  1.0
  In  In242  1  0.88925000  0.90494000  0.21795200  1.0
  In  In243  1  0.00000000  0.16666667  0.27932914  1.0
  In  In244  1  0.00000000  0.50000000  0.27932914  1.0
  In  In245  1  0.00000000  0.83333333  0.27932914  1.0
  In  In246  1  0.33333333  0.16666667  0.27932914  1.0
  In  In247  1  0.33333333  0.50000000  0.27932914  1.0
  In  In248  1  0.33333333  0.83333333  0.27932914  1.0
  In  In249  1  0.66666667  0.16666667  0.27932914  1.0
  In  In250  1  0.66666667  0.50000000  0.27932914  1.0
  In  In251  1  0.66666667  0.83333333  0.27932914  1.0
  In  In252  1  0.06336967  0.05632600  0.14833600  1.0
  In  In253  1  0.06336967  0.38965933  0.14833600  1.0
  In  In254  1  0.06336967  0.72299267  0.14833600  1.0
  In  In255  1  0.39670300  0.05632600  0.14833600  1.0
  In  In256  1  0.39670300  0.38965933  0.14833600  1.0
  In  In257  1  0.39670300  0.72299267  0.14833600  1.0
  In  In258  1  0.73003633  0.05632600  0.14833600  1.0
  In  In259  1  0.73003633  0.38965933  0.14833600  1.0
  In  In260  1  0.73003633  0.72299267  0.14833600  1.0
  In  In261  1  0.06336967  0.24932467  0.14833600  1.0
  In  In262  1  0.06336967  0.58265800  0.14833600  1.0
  In  In263  1  0.06336967  0.91599133  0.14833600  1.0
  In  In264  1  0.39670300  0.24932467  0.14833600  1.0
  In  In265  1  0.39670300  0.58265800  0.14833600  1.0
  In  In266  1  0.39670300  0.91599133  0.14833600  1.0
  In  In267  1  0.73003633  0.24932467  0.14833600  1.0
  In  In268  1  0.73003633  0.58265800  0.14833600  1.0
  In  In269  1  0.73003633  0.91599133  0.14833600  1.0
  In  In270  1  0.12857300  0.27593567  0.18567000  1.0
  In  In271  1  0.12857300  0.60926900  0.18567000  1.0
  In  In272  1  0.12857300  0.94260233  0.18567000  1.0
  In  In273  1  0.46190633  0.27593567  0.18567000  1.0
  In  In274  1  0.46190633  0.60926900  0.18567000  1.0
  In  In275  1  0.46190633  0.94260233  0.18567000  1.0
  In  In276  1  0.79523967  0.27593567  0.18567000  1.0
  In  In277  1  0.79523967  0.60926900  0.18567000  1.0
  In  In278  1  0.79523967  0.94260233  0.18567000  1.0
  Ni  Ni279  1  0.28027267  0.02164767  0.19204671  1.0
  Ni  Ni280  1  0.28027267  0.35498100  0.19204671  1.0
  Ni  Ni281  1  0.28027267  0.68831433  0.19204671  1.0
  Ni  Ni282  1  0.61360600  0.02164767  0.19204671  1.0
  Ni  Ni283  1  0.61360600  0.35498100  0.19204671  1.0
  Ni  Ni284  1  0.61360600  0.68831433  0.19204671  1.0
  Ni  Ni285  1  0.94693933  0.02164767  0.19204671  1.0
  Ni  Ni286  1  0.94693933  0.35498100  0.19204671  1.0
  Ni  Ni287  1  0.94693933  0.68831433  0.19204671  1.0
  Ni  Ni288  1  0.16666667  0.00000000  0.20790057  1.0
  Ni  Ni289  1  0.16666667  0.33333333  0.20790057  1.0
  Ni  Ni290  1  0.16666667  0.66666667  0.20790057  1.0
  Ni  Ni291  1  0.50000000  0.00000000  0.20790057  1.0
  Ni  Ni292  1  0.50000000  0.33333333  0.20790057  1.0
  Ni  Ni293  1  0.50000000  0.66666667  0.20790057  1.0
  Ni  Ni294  1  0.83333333  0.00000000  0.20790057  1.0
  Ni  Ni295  1  0.83333333  0.33333333  0.20790057  1.0
  Ni  Ni296  1  0.83333333  0.66666667  0.20790057  1.0
  Ni  Ni297  1  0.10763467  0.18156533  0.26655886  1.0
  Ni  Ni298  1  0.10763467  0.51489867  0.26655886  1.0
  Ni  Ni299  1  0.10763467  0.84823200  0.26655886  1.0
  Ni  Ni300  1  0.44096800  0.18156533  0.26655886  1.0
  Ni  Ni301  1  0.44096800  0.51489867  0.26655886  1.0
  Ni  Ni302  1  0.44096800  0.84823200  0.26655886  1.0
  Ni  Ni303  1  0.77430133  0.18156533  0.26655886  1.0
  Ni  Ni304  1  0.77430133  0.51489867  0.26655886  1.0
  Ni  Ni305  1  0.77430133  0.84823200  0.26655886  1.0
  Ni  Ni306  1  0.28027267  0.18201133  0.19204671  1.0
  Ni  Ni307  1  0.28027267  0.51534467  0.19204671  1.0
  Ni  Ni308  1  0.28027267  0.84867800  0.19204671  1.0
  Ni  Ni309  1  0.61360600  0.18201133  0.19204671  1.0
  Ni  Ni310  1  0.61360600  0.51534467  0.19204671  1.0
  Ni  Ni311  1  0.61360600  0.84867800  0.19204671  1.0
  Ni  Ni312  1  0.94693933  0.18201133  0.19204671  1.0
  Ni  Ni313  1  0.94693933  0.51534467  0.19204671  1.0
  Ni  Ni314  1  0.94693933  0.84867800  0.19204671  1.0
  Ni  Ni315  1  0.22569867  0.15176800  0.14924229  1.0
  Ni  Ni316  1  0.22569867  0.48510133  0.14924229  1.0
  Ni  Ni317  1  0.22569867  0.81843467  0.14924229  1.0
  Ni  Ni318  1  0.55903200  0.15176800  0.14924229  1.0
  Ni  Ni319  1  0.55903200  0.48510133  0.14924229  1.0
  Ni  Ni320  1  0.55903200  0.81843467  0.14924229  1.0
  Ni  Ni321  1  0.89236533  0.15176800  0.14924229  1.0
  Ni  Ni322  1  0.89236533  0.48510133  0.14924229  1.0
  Ni  Ni323  1  0.89236533  0.81843467  0.14924229  1.0
  Ni  Ni324  1  0.16666667  0.24452867  0.27932914  1.0
  Ni  Ni325  1  0.16666667  0.57786200  0.27932914  1.0
  Ni  Ni326  1  0.16666667  0.91119533  0.27932914  1.0
  Ni  Ni327  1  0.50000000  0.24452867  0.27932914  1.0
  Ni  Ni328  1  0.50000000  0.57786200  0.27932914  1.0
  Ni  Ni329  1  0.50000000  0.91119533  0.27932914  1.0
  Ni  Ni330  1  0.83333333  0.24452867  0.27932914  1.0
  Ni  Ni331  1  0.83333333  0.57786200  0.27932914  1.0
  Ni  Ni332  1  0.83333333  0.91119533  0.27932914  1.0
  Ni  Ni333  1  0.00682633  0.08621233  0.20543286  1.0
  Ni  Ni334  1  0.00682633  0.41954567  0.20543286  1.0
  Ni  Ni335  1  0.00682633  0.75287900  0.20543286  1.0
  Ni  Ni336  1  0.34015967  0.08621233  0.20543286  1.0
  Ni  Ni337  1  0.34015967  0.41954567  0.20543286  1.0
  Ni  Ni338  1  0.34015967  0.75287900  0.20543286  1.0
  Ni  Ni339  1  0.67349300  0.08621233  0.20543286  1.0
  Ni  Ni340  1  0.67349300  0.41954567  0.20543286  1.0
  Ni  Ni341  1  0.67349300  0.75287900  0.20543286  1.0
  Ni  Ni342  1  0.05306067  0.15132200  0.22375443  1.0
  Ni  Ni343  1  0.05306067  0.48465533  0.22375443  1.0
  Ni  Ni344  1  0.05306067  0.81798867  0.22375443  1.0
  Ni  Ni345  1  0.38639400  0.15132200  0.22375443  1.0
  Ni  Ni346  1  0.38639400  0.48465533  0.22375443  1.0
  Ni  Ni347  1  0.38639400  0.81798867  0.22375443  1.0
  Ni  Ni348  1  0.71972733  0.15132200  0.22375443  1.0
  Ni  Ni349  1  0.71972733  0.48465533  0.22375443  1.0
  Ni  Ni350  1  0.71972733  0.81798867  0.22375443  1.0
  Ni  Ni351  1  0.32650700  0.24712100  0.21036829  1.0
  Ni  Ni352  1  0.32650700  0.58045433  0.21036829  1.0
  Ni  Ni353  1  0.32650700  0.91378767  0.21036829  1.0
  Ni  Ni354  1  0.65984033  0.24712100  0.21036829  1.0
  Ni  Ni355  1  0.65984033  0.58045433  0.21036829  1.0
  Ni  Ni356  1  0.65984033  0.91378767  0.21036829  1.0
  Ni  Ni357  1  0.99317367  0.24712100  0.21036829  1.0
  Ni  Ni358  1  0.99317367  0.58045433  0.21036829  1.0
  Ni  Ni359  1  0.99317367  0.91378767  0.21036829  1.0
  Ni  Ni360  1  0.05306067  0.31168567  0.22375443  1.0
  Ni  Ni361  1  0.05306067  0.64501900  0.22375443  1.0
  Ni  Ni362  1  0.05306067  0.97835233  0.22375443  1.0
  Ni  Ni363  1  0.38639400  0.31168567  0.22375443  1.0
  Ni  Ni364  1  0.38639400  0.64501900  0.22375443  1.0
  Ni  Ni365  1  0.38639400  0.97835233  0.22375443  1.0
  Ni  Ni366  1  0.71972733  0.31168567  0.22375443  1.0
  Ni  Ni367  1  0.71972733  0.64501900  0.22375443  1.0
  Ni  Ni368  1  0.71972733  0.97835233  0.22375443  1.0
  Ni  Ni369  1  0.16666667  0.08880467  0.27932914  1.0
  Ni  Ni370  1  0.16666667  0.42213800  0.27932914  1.0
  Ni  Ni371  1  0.16666667  0.75547133  0.27932914  1.0
  Ni  Ni372  1  0.50000000  0.08880467  0.27932914  1.0
  Ni  Ni373  1  0.50000000  0.42213800  0.27932914  1.0
  Ni  Ni374  1  0.50000000  0.75547133  0.27932914  1.0
  Ni  Ni375  1  0.83333333  0.08880467  0.27932914  1.0
  Ni  Ni376  1  0.83333333  0.42213800  0.27932914  1.0
  Ni  Ni377  1  0.83333333  0.75547133  0.27932914  1.0
  Ni  Ni378  1  0.00000000  0.00000000  0.27932914  1.0
  Ni  Ni379  1  0.00000000  0.33333333  0.27932914  1.0
  Ni  Ni380  1  0.00000000  0.66666667  0.27932914  1.0
  Ni  Ni381  1  0.33333333  0.00000000  0.27932914  1.0
  Ni  Ni382  1  0.33333333  0.33333333  0.27932914  1.0
  Ni  Ni383  1  0.33333333  0.66666667  0.27932914  1.0
  Ni  Ni384  1  0.66666667  0.00000000  0.27932914  1.0
  Ni  Ni385  1  0.66666667  0.33333333  0.27932914  1.0
  Ni  Ni386  1  0.66666667  0.66666667  0.27932914  1.0
  Ni  Ni387  1  0.16666667  0.16666667  0.20790057  1.0
  Ni  Ni388  1  0.16666667  0.50000000  0.20790057  1.0
  Ni  Ni389  1  0.16666667  0.83333333  0.20790057  1.0
  Ni  Ni390  1  0.50000000  0.16666667  0.20790057  1.0
  Ni  Ni391  1  0.50000000  0.50000000  0.20790057  1.0
  Ni  Ni392  1  0.50000000  0.83333333  0.20790057  1.0
  Ni  Ni393  1  0.83333333  0.16666667  0.20790057  1.0
  Ni  Ni394  1  0.83333333  0.50000000  0.20790057  1.0
  Ni  Ni395  1  0.83333333  0.83333333  0.20790057  1.0
  In  In396  1  0.26996367  0.27700733  0.41032229  1.0
  In  In397  1  0.26996367  0.61034067  0.41032229  1.0
  In  In398  1  0.26996367  0.94367400  0.41032229  1.0
  In  In399  1  0.60329700  0.27700733  0.41032229  1.0
  In  In400  1  0.60329700  0.61034067  0.41032229  1.0
  In  In401  1  0.60329700  0.94367400  0.41032229  1.0
  In  In402  1  0.93663033  0.27700733  0.41032229  1.0
  In  In403  1  0.93663033  0.61034067  0.41032229  1.0
  In  In404  1  0.93663033  0.94367400  0.41032229  1.0
  In  In405  1  0.20476033  0.05739767  0.37298829  1.0
  In  In406  1  0.20476033  0.39073100  0.37298829  1.0
  In  In407  1  0.20476033  0.72406433  0.37298829  1.0
  In  In408  1  0.53809367  0.05739767  0.37298829  1.0
  In  In409  1  0.53809367  0.39073100  0.37298829  1.0
  In  In410  1  0.53809367  0.72406433  0.37298829  1.0
  In  In411  1  0.87142700  0.05739767  0.37298829  1.0
  In  In412  1  0.87142700  0.39073100  0.37298829  1.0
  In  In413  1  0.87142700  0.72406433  0.37298829  1.0
  In  In414  1  0.11075000  0.09506000  0.34070629  1.0
  In  In415  1  0.11075000  0.42839333  0.34070629  1.0
  In  In416  1  0.11075000  0.76172667  0.34070629  1.0
  In  In417  1  0.44408333  0.09506000  0.34070629  1.0
  In  In418  1  0.44408333  0.42839333  0.34070629  1.0
  In  In419  1  0.44408333  0.76172667  0.34070629  1.0
  In  In420  1  0.77741667  0.09506000  0.34070629  1.0
  In  In421  1  0.77741667  0.42839333  0.34070629  1.0
  In  In422  1  0.77741667  0.76172667  0.34070629  1.0
  In  In423  1  0.26996367  0.08400867  0.41032229  1.0
  In  In424  1  0.26996367  0.41734200  0.41032229  1.0
  In  In425  1  0.26996367  0.75067533  0.41032229  1.0
  In  In426  1  0.60329700  0.08400867  0.41032229  1.0
  In  In427  1  0.60329700  0.41734200  0.41032229  1.0
  In  In428  1  0.60329700  0.75067533  0.41032229  1.0
  In  In429  1  0.93663033  0.08400867  0.41032229  1.0
  In  In430  1  0.93663033  0.41734200  0.41032229  1.0
  In  In431  1  0.93663033  0.75067533  0.41032229  1.0
  In  In432  1  0.22258333  0.23827333  0.36080914  1.0
  In  In433  1  0.22258333  0.57160667  0.36080914  1.0
  In  In434  1  0.22258333  0.90494000  0.36080914  1.0
  In  In435  1  0.55591667  0.23827333  0.36080914  1.0
  In  In436  1  0.55591667  0.57160667  0.36080914  1.0
  In  In437  1  0.55591667  0.90494000  0.36080914  1.0
  In  In438  1  0.88925000  0.23827333  0.36080914  1.0
  In  In439  1  0.88925000  0.57160667  0.36080914  1.0
  In  In440  1  0.88925000  0.90494000  0.36080914  1.0
  In  In441  1  0.00000000  0.16666667  0.42218629  1.0
  In  In442  1  0.00000000  0.50000000  0.42218629  1.0
  In  In443  1  0.00000000  0.83333333  0.42218629  1.0
  In  In444  1  0.33333333  0.16666667  0.42218629  1.0
  In  In445  1  0.33333333  0.50000000  0.42218629  1.0
  In  In446  1  0.33333333  0.83333333  0.42218629  1.0
  In  In447  1  0.66666667  0.16666667  0.42218629  1.0
  In  In448  1  0.66666667  0.50000000  0.42218629  1.0
  In  In449  1  0.66666667  0.83333333  0.42218629  1.0
  In  In450  1  0.06336967  0.05632600  0.29119314  1.0
  In  In451  1  0.06336967  0.38965933  0.29119314  1.0
  In  In452  1  0.06336967  0.72299267  0.29119314  1.0
  In  In453  1  0.39670300  0.05632600  0.29119314  1.0
  In  In454  1  0.39670300  0.38965933  0.29119314  1.0
  In  In455  1  0.39670300  0.72299267  0.29119314  1.0
  In  In456  1  0.73003633  0.05632600  0.29119314  1.0
  In  In457  1  0.73003633  0.38965933  0.29119314  1.0
  In  In458  1  0.73003633  0.72299267  0.29119314  1.0
  In  In459  1  0.06336967  0.24932467  0.29119314  1.0
  In  In460  1  0.06336967  0.58265800  0.29119314  1.0
  In  In461  1  0.06336967  0.91599133  0.29119314  1.0
  In  In462  1  0.39670300  0.24932467  0.29119314  1.0
  In  In463  1  0.39670300  0.58265800  0.29119314  1.0
  In  In464  1  0.39670300  0.91599133  0.29119314  1.0
  In  In465  1  0.73003633  0.24932467  0.29119314  1.0
  In  In466  1  0.73003633  0.58265800  0.29119314  1.0
  In  In467  1  0.73003633  0.91599133  0.29119314  1.0
  In  In468  1  0.12857300  0.27593567  0.32852714  1.0
  In  In469  1  0.12857300  0.60926900  0.32852714  1.0
  In  In470  1  0.12857300  0.94260233  0.32852714  1.0
  In  In471  1  0.46190633  0.27593567  0.32852714  1.0
  In  In472  1  0.46190633  0.60926900  0.32852714  1.0
  In  In473  1  0.46190633  0.94260233  0.32852714  1.0
  In  In474  1  0.79523967  0.27593567  0.32852714  1.0
  In  In475  1  0.79523967  0.60926900  0.32852714  1.0
  In  In476  1  0.79523967  0.94260233  0.32852714  1.0
  Ni  Ni477  1  0.28027267  0.02164767  0.33490386  1.0
  Ni  Ni478  1  0.28027267  0.35498100  0.33490386  1.0
  Ni  Ni479  1  0.28027267  0.68831433  0.33490386  1.0
  Ni  Ni480  1  0.61360600  0.02164767  0.33490386  1.0
  Ni  Ni481  1  0.61360600  0.35498100  0.33490386  1.0
  Ni  Ni482  1  0.61360600  0.68831433  0.33490386  1.0
  Ni  Ni483  1  0.94693933  0.02164767  0.33490386  1.0
  Ni  Ni484  1  0.94693933  0.35498100  0.33490386  1.0
  Ni  Ni485  1  0.94693933  0.68831433  0.33490386  1.0
  Ni  Ni486  1  0.16666667  0.00000000  0.35075771  1.0
  Ni  Ni487  1  0.16666667  0.33333333  0.35075771  1.0
  Ni  Ni488  1  0.16666667  0.66666667  0.35075771  1.0
  Ni  Ni489  1  0.50000000  0.00000000  0.35075771  1.0
  Ni  Ni490  1  0.50000000  0.33333333  0.35075771  1.0
  Ni  Ni491  1  0.50000000  0.66666667  0.35075771  1.0
  Ni  Ni492  1  0.83333333  0.00000000  0.35075771  1.0
  Ni  Ni493  1  0.83333333  0.33333333  0.35075771  1.0
  Ni  Ni494  1  0.83333333  0.66666667  0.35075771  1.0
  Ni  Ni495  1  0.10763467  0.18156533  0.40941600  1.0
  Ni  Ni496  1  0.10763467  0.51489867  0.40941600  1.0
  Ni  Ni497  1  0.10763467  0.84823200  0.40941600  1.0
  Ni  Ni498  1  0.44096800  0.18156533  0.40941600  1.0
  Ni  Ni499  1  0.44096800  0.51489867  0.40941600  1.0
  Ni  Ni500  1  0.44096800  0.84823200  0.40941600  1.0
  Ni  Ni501  1  0.77430133  0.18156533  0.40941600  1.0
  Ni  Ni502  1  0.77430133  0.51489867  0.40941600  1.0
  Ni  Ni503  1  0.77430133  0.84823200  0.40941600  1.0
  Ni  Ni504  1  0.28027267  0.18201133  0.33490386  1.0
  Ni  Ni505  1  0.28027267  0.51534467  0.33490386  1.0
  Ni  Ni506  1  0.28027267  0.84867800  0.33490386  1.0
  Ni  Ni507  1  0.61360600  0.18201133  0.33490386  1.0
  Ni  Ni508  1  0.61360600  0.51534467  0.33490386  1.0
  Ni  Ni509  1  0.61360600  0.84867800  0.33490386  1.0
  Ni  Ni510  1  0.94693933  0.18201133  0.33490386  1.0
  Ni  Ni511  1  0.94693933  0.51534467  0.33490386  1.0
  Ni  Ni512  1  0.94693933  0.84867800  0.33490386  1.0
  Ni  Ni513  1  0.22569867  0.15176800  0.29209943  1.0
  Ni  Ni514  1  0.22569867  0.48510133  0.29209943  1.0
  Ni  Ni515  1  0.22569867  0.81843467  0.29209943  1.0
  Ni  Ni516  1  0.55903200  0.15176800  0.29209943  1.0
  Ni  Ni517  1  0.55903200  0.48510133  0.29209943  1.0
  Ni  Ni518  1  0.55903200  0.81843467  0.29209943  1.0
  Ni  Ni519  1  0.89236533  0.15176800  0.29209943  1.0
  Ni  Ni520  1  0.89236533  0.48510133  0.29209943  1.0
  Ni  Ni521  1  0.89236533  0.81843467  0.29209943  1.0
  Ni  Ni522  1  0.16666667  0.24452867  0.42218629  1.0
  Ni  Ni523  1  0.16666667  0.57786200  0.42218629  1.0
  Ni  Ni524  1  0.16666667  0.91119533  0.42218629  1.0
  Ni  Ni525  1  0.50000000  0.24452867  0.42218629  1.0
  Ni  Ni526  1  0.50000000  0.57786200  0.42218629  1.0
  Ni  Ni527  1  0.50000000  0.91119533  0.42218629  1.0
  Ni  Ni528  1  0.83333333  0.24452867  0.42218629  1.0
  Ni  Ni529  1  0.83333333  0.57786200  0.42218629  1.0
  Ni  Ni530  1  0.83333333  0.91119533  0.42218629  1.0
  Ni  Ni531  1  0.00682633  0.08621233  0.34829000  1.0
  Ni  Ni532  1  0.00682633  0.41954567  0.34829000  1.0
  Ni  Ni533  1  0.00682633  0.75287900  0.34829000  1.0
  Ni  Ni534  1  0.34015967  0.08621233  0.34829000  1.0
  Ni  Ni535  1  0.34015967  0.41954567  0.34829000  1.0
  Ni  Ni536  1  0.34015967  0.75287900  0.34829000  1.0
  Ni  Ni537  1  0.67349300  0.08621233  0.34829000  1.0
  Ni  Ni538  1  0.67349300  0.41954567  0.34829000  1.0
  Ni  Ni539  1  0.67349300  0.75287900  0.34829000  1.0
  Ni  Ni540  1  0.05306067  0.15132200  0.36661157  1.0
  Ni  Ni541  1  0.05306067  0.48465533  0.36661157  1.0
  Ni  Ni542  1  0.05306067  0.81798867  0.36661157  1.0
  Ni  Ni543  1  0.38639400  0.15132200  0.36661157  1.0
  Ni  Ni544  1  0.38639400  0.48465533  0.36661157  1.0
  Ni  Ni545  1  0.38639400  0.81798867  0.36661157  1.0
  Ni  Ni546  1  0.71972733  0.15132200  0.36661157  1.0
  Ni  Ni547  1  0.71972733  0.48465533  0.36661157  1.0
  Ni  Ni548  1  0.71972733  0.81798867  0.36661157  1.0
  Ni  Ni549  1  0.32650700  0.24712100  0.35322543  1.0
  Ni  Ni550  1  0.32650700  0.58045433  0.35322543  1.0
  Ni  Ni551  1  0.32650700  0.91378767  0.35322543  1.0
  Ni  Ni552  1  0.65984033  0.24712100  0.35322543  1.0
  Ni  Ni553  1  0.65984033  0.58045433  0.35322543  1.0
  Ni  Ni554  1  0.65984033  0.91378767  0.35322543  1.0
  Ni  Ni555  1  0.99317367  0.24712100  0.35322543  1.0
  Ni  Ni556  1  0.99317367  0.58045433  0.35322543  1.0
  Ni  Ni557  1  0.99317367  0.91378767  0.35322543  1.0
  Ni  Ni558  1  0.05306067  0.31168567  0.36661157  1.0
  Ni  Ni559  1  0.05306067  0.64501900  0.36661157  1.0
  Ni  Ni560  1  0.05306067  0.97835233  0.36661157  1.0
  Ni  Ni561  1  0.38639400  0.31168567  0.36661157  1.0
  Ni  Ni562  1  0.38639400  0.64501900  0.36661157  1.0
  Ni  Ni563  1  0.38639400  0.97835233  0.36661157  1.0
  Ni  Ni564  1  0.71972733  0.31168567  0.36661157  1.0
  Ni  Ni565  1  0.71972733  0.64501900  0.36661157  1.0
  Ni  Ni566  1  0.71972733  0.97835233  0.36661157  1.0
  Ni  Ni567  1  0.16666667  0.08880467  0.42218629  1.0
  Ni  Ni568  1  0.16666667  0.42213800  0.42218629  1.0
  Ni  Ni569  1  0.16666667  0.75547133  0.42218629  1.0
  Ni  Ni570  1  0.50000000  0.08880467  0.42218629  1.0
  Ni  Ni571  1  0.50000000  0.42213800  0.42218629  1.0
  Ni  Ni572  1  0.50000000  0.75547133  0.42218629  1.0
  Ni  Ni573  1  0.83333333  0.08880467  0.42218629  1.0
  Ni  Ni574  1  0.83333333  0.42213800  0.42218629  1.0
  Ni  Ni575  1  0.83333333  0.75547133  0.42218629  1.0
  Ni  Ni576  1  0.00000000  0.00000000  0.42218629  1.0
  Ni  Ni577  1  0.00000000  0.33333333  0.42218629  1.0
  Ni  Ni578  1  0.00000000  0.66666667  0.42218629  1.0
  Ni  Ni579  1  0.33333333  0.00000000  0.42218629  1.0
  Ni  Ni580  1  0.33333333  0.33333333  0.42218629  1.0
  Ni  Ni581  1  0.33333333  0.66666667  0.42218629  1.0
  Ni  Ni582  1  0.66666667  0.00000000  0.42218629  1.0
  Ni  Ni583  1  0.66666667  0.33333333  0.42218629  1.0
  Ni  Ni584  1  0.66666667  0.66666667  0.42218629  1.0
  Ni  Ni585  1  0.16666667  0.16666667  0.35075771  1.0
  Ni  Ni586  1  0.16666667  0.50000000  0.35075771  1.0
  Ni  Ni587  1  0.16666667  0.83333333  0.35075771  1.0
  Ni  Ni588  1  0.50000000  0.16666667  0.35075771  1.0
  Ni  Ni589  1  0.50000000  0.50000000  0.35075771  1.0
  Ni  Ni590  1  0.50000000  0.83333333  0.35075771  1.0
  Ni  Ni591  1  0.83333333  0.16666667  0.35075771  1.0
  Ni  Ni592  1  0.83333333  0.50000000  0.35075771  1.0
  Ni  Ni593  1  0.83333333  0.83333333  0.35075771  1.0
