# generated using pymatgen
data_In9Ni13
_symmetry_space_group_name_H-M   'P 1'
_cell_length_a   20.25546543
_cell_length_b   27.24597105
_cell_length_c   33.75910905
_cell_angle_alpha   116.76849051
_cell_angle_beta   102.43776313
_cell_angle_gamma   63.23150949
_symmetry_Int_Tables_number   1
_chemical_formula_structural   In9Ni13
_chemical_formula_sum   'In162 Ni234'
_cell_volume   14849.87918986
_cell_formula_units_Z   18
loop_
 _symmetry_equiv_pos_site_id
 _symmetry_equiv_pos_as_xyz
  1  'x, y, z'
loop_
 _atom_site_type_symbol
 _atom_site_label
 _atom_site_symmetry_multiplicity
 _atom_site_fract_x
 _atom_site_fract_y
 _atom_site_fract_z
 _atom_site_occupancy
  In  In0  1  0.24932467  0.26996367  0.15971010  1.0
  In  In1  1  0.24932467  0.60329700  0.15971010  1.0
  In  In2  1  0.24932467  0.93663033  0.15971010  1.0
  In  In3  1  0.58265800  0.26996367  0.15971010  1.0
  In  In4  1  0.58265800  0.60329700  0.15971010  1.0
  In  In5  1  0.58265800  0.93663033  0.15971010  1.0
  In  In6  1  0.91599133  0.26996367  0.15971010  1.0
  In  In7  1  0.91599133  0.60329700  0.15971010  1.0
  In  In8  1  0.91599133  0.93663033  0.15971010  1.0
  In  In9  1  0.27593567  0.20476033  0.02794430  1.0
  In  In10  1  0.27593567  0.53809367  0.02794430  1.0
  In  In11  1  0.27593567  0.87142700  0.02794430  1.0
  In  In12  1  0.60926900  0.20476033  0.02794430  1.0
  In  In13  1  0.60926900  0.53809367  0.02794430  1.0
  In  In14  1  0.60926900  0.87142700  0.02794430  1.0
  In  In15  1  0.94260233  0.20476033  0.02794430  1.0
  In  In16  1  0.94260233  0.53809367  0.02794430  1.0
  In  In17  1  0.94260233  0.87142700  0.02794430  1.0
  In  In18  1  0.23827333  0.11075000  0.05054170  1.0
  In  In19  1  0.23827333  0.44408333  0.05054170  1.0
  In  In20  1  0.23827333  0.77741667  0.05054170  1.0
  In  In21  1  0.57160667  0.11075000  0.05054170  1.0
  In  In22  1  0.57160667  0.44408333  0.05054170  1.0
  In  In23  1  0.57160667  0.77741667  0.05054170  1.0
  In  In24  1  0.90494000  0.11075000  0.05054170  1.0
  In  In25  1  0.90494000  0.44408333  0.05054170  1.0
  In  In26  1  0.90494000  0.77741667  0.05054170  1.0
  In  In27  1  0.05632600  0.26996367  0.04391090  1.0
  In  In28  1  0.05632600  0.60329700  0.04391090  1.0
  In  In29  1  0.05632600  0.93663033  0.04391090  1.0
  In  In30  1  0.38965933  0.26996367  0.04391090  1.0
  In  In31  1  0.38965933  0.60329700  0.04391090  1.0
  In  In32  1  0.38965933  0.93663033  0.04391090  1.0
  In  In33  1  0.72299267  0.26996367  0.04391090  1.0
  In  In34  1  0.72299267  0.60329700  0.04391090  1.0
  In  In35  1  0.72299267  0.93663033  0.04391090  1.0
  In  In36  1  0.09506000  0.22258333  0.13646970  1.0
  In  In37  1  0.09506000  0.55591667  0.13646970  1.0
  In  In38  1  0.09506000  0.88925000  0.13646970  1.0
  In  In39  1  0.42839333  0.22258333  0.13646970  1.0
  In  In40  1  0.42839333  0.55591667  0.13646970  1.0
  In  In41  1  0.42839333  0.88925000  0.13646970  1.0
  In  In42  1  0.76172667  0.22258333  0.13646970  1.0
  In  In43  1  0.76172667  0.55591667  0.13646970  1.0
  In  In44  1  0.76172667  0.88925000  0.13646970  1.0
  In  In45  1  0.16666667  0.00000000  0.09350570  1.0
  In  In46  1  0.16666667  0.33333333  0.09350570  1.0
  In  In47  1  0.16666667  0.66666667  0.09350570  1.0
  In  In48  1  0.50000000  0.00000000  0.09350570  1.0
  In  In49  1  0.50000000  0.33333333  0.09350570  1.0
  In  In50  1  0.50000000  0.66666667  0.09350570  1.0
  In  In51  1  0.83333333  0.00000000  0.09350570  1.0
  In  In52  1  0.83333333  0.33333333  0.09350570  1.0
  In  In53  1  0.83333333  0.66666667  0.09350570  1.0
  In  In54  1  0.08400867  0.06336967  0.02730130  1.0
  In  In55  1  0.08400867  0.39670300  0.02730130  1.0
  In  In56  1  0.08400867  0.73003633  0.02730130  1.0
  In  In57  1  0.41734200  0.06336967  0.02730130  1.0
  In  In58  1  0.41734200  0.39670300  0.02730130  1.0
  In  In59  1  0.41734200  0.73003633  0.02730130  1.0
  In  In60  1  0.75067533  0.06336967  0.02730130  1.0
  In  In61  1  0.75067533  0.39670300  0.02730130  1.0
  In  In62  1  0.75067533  0.73003633  0.02730130  1.0
  In  In63  1  0.27700733  0.06336967  0.14310050  1.0
  In  In64  1  0.27700733  0.39670300  0.14310050  1.0
  In  In65  1  0.27700733  0.73003633  0.14310050  1.0
  In  In66  1  0.61034067  0.06336967  0.14310050  1.0
  In  In67  1  0.61034067  0.39670300  0.14310050  1.0
  In  In68  1  0.61034067  0.73003633  0.14310050  1.0
  In  In69  1  0.94367400  0.06336967  0.14310050  1.0
  In  In70  1  0.94367400  0.39670300  0.14310050  1.0
  In  In71  1  0.94367400  0.73003633  0.14310050  1.0
  In  In72  1  0.05739767  0.12857300  0.15906710  1.0
  In  In73  1  0.05739767  0.46190633  0.15906710  1.0
  In  In74  1  0.05739767  0.79523967  0.15906710  1.0
  In  In75  1  0.39073100  0.12857300  0.15906710  1.0
  In  In76  1  0.39073100  0.46190633  0.15906710  1.0
  In  In77  1  0.39073100  0.79523967  0.15906710  1.0
  In  In78  1  0.72406433  0.12857300  0.15906710  1.0
  In  In79  1  0.72406433  0.46190633  0.15906710  1.0
  In  In80  1  0.72406433  0.79523967  0.15906710  1.0
  Ni  Ni81  1  0.15132200  0.28027267  0.00649430  1.0
  Ni  Ni82  1  0.15132200  0.61360600  0.00649430  1.0
  Ni  Ni83  1  0.15132200  0.94693933  0.00649430  1.0
  Ni  Ni84  1  0.48465533  0.28027267  0.00649430  1.0
  Ni  Ni85  1  0.48465533  0.61360600  0.00649430  1.0
  Ni  Ni86  1  0.48465533  0.94693933  0.00649430  1.0
  Ni  Ni87  1  0.81798867  0.28027267  0.00649430  1.0
  Ni  Ni88  1  0.81798867  0.61360600  0.00649430  1.0
  Ni  Ni89  1  0.81798867  0.94693933  0.00649430  1.0
  Ni  Ni90  1  0.16666667  0.16666667  0.19350570  1.0
  Ni  Ni91  1  0.16666667  0.50000000  0.19350570  1.0
  Ni  Ni92  1  0.16666667  0.83333333  0.19350570  1.0
  Ni  Ni93  1  0.50000000  0.16666667  0.19350570  1.0
  Ni  Ni94  1  0.50000000  0.50000000  0.19350570  1.0
  Ni  Ni95  1  0.50000000  0.83333333  0.19350570  1.0
  Ni  Ni96  1  0.83333333  0.16666667  0.19350570  1.0
  Ni  Ni97  1  0.83333333  0.50000000  0.19350570  1.0
  Ni  Ni98  1  0.83333333  0.83333333  0.19350570  1.0
  Ni  Ni99  1  0.15176800  0.10763467  0.10244490  1.0
  Ni  Ni100  1  0.15176800  0.44096800  0.10244490  1.0
  Ni  Ni101  1  0.15176800  0.77430133  0.10244490  1.0
  Ni  Ni102  1  0.48510133  0.10763467  0.10244490  1.0
  Ni  Ni103  1  0.48510133  0.44096800  0.10244490  1.0
  Ni  Ni104  1  0.48510133  0.77430133  0.10244490  1.0
  Ni  Ni105  1  0.81843467  0.10763467  0.10244490  1.0
  Ni  Ni106  1  0.81843467  0.44096800  0.10244490  1.0
  Ni  Ni107  1  0.81843467  0.77430133  0.10244490  1.0
  Ni  Ni108  1  0.31168567  0.28027267  0.10271250  1.0
  Ni  Ni109  1  0.31168567  0.61360600  0.10271250  1.0
  Ni  Ni110  1  0.31168567  0.94693933  0.10271250  1.0
  Ni  Ni111  1  0.64501900  0.28027267  0.10271250  1.0
  Ni  Ni112  1  0.64501900  0.61360600  0.10271250  1.0
  Ni  Ni113  1  0.64501900  0.94693933  0.10271250  1.0
  Ni  Ni114  1  0.97835233  0.28027267  0.10271250  1.0
  Ni  Ni115  1  0.97835233  0.61360600  0.10271250  1.0
  Ni  Ni116  1  0.97835233  0.94693933  0.10271250  1.0
  Ni  Ni117  1  0.18156533  0.22569867  0.08456650  1.0
  Ni  Ni118  1  0.18156533  0.55903200  0.08456650  1.0
  Ni  Ni119  1  0.18156533  0.89236533  0.08456650  1.0
  Ni  Ni120  1  0.51489867  0.22569867  0.08456650  1.0
  Ni  Ni121  1  0.51489867  0.55903200  0.08456650  1.0
  Ni  Ni122  1  0.51489867  0.89236533  0.08456650  1.0
  Ni  Ni123  1  0.84823200  0.22569867  0.08456650  1.0
  Ni  Ni124  1  0.84823200  0.55903200  0.08456650  1.0
  Ni  Ni125  1  0.84823200  0.89236533  0.08456650  1.0
  Ni  Ni126  1  0.24452867  0.16666667  0.14022290  1.0
  Ni  Ni127  1  0.24452867  0.50000000  0.14022290  1.0
  Ni  Ni128  1  0.24452867  0.83333333  0.14022290  1.0
  Ni  Ni129  1  0.57786200  0.16666667  0.14022290  1.0
  Ni  Ni130  1  0.57786200  0.50000000  0.14022290  1.0
  Ni  Ni131  1  0.57786200  0.83333333  0.14022290  1.0
  Ni  Ni132  1  0.91119533  0.16666667  0.14022290  1.0
  Ni  Ni133  1  0.91119533  0.50000000  0.14022290  1.0
  Ni  Ni134  1  0.91119533  0.83333333  0.14022290  1.0
  Ni  Ni135  1  0.24712100  0.00682633  0.04523310  1.0
  Ni  Ni136  1  0.24712100  0.34015967  0.04523310  1.0
  Ni  Ni137  1  0.24712100  0.67349300  0.04523310  1.0
  Ni  Ni138  1  0.58045433  0.00682633  0.04523310  1.0
  Ni  Ni139  1  0.58045433  0.34015967  0.04523310  1.0
  Ni  Ni140  1  0.58045433  0.67349300  0.04523310  1.0
  Ni  Ni141  1  0.91378767  0.00682633  0.04523310  1.0
  Ni  Ni142  1  0.91378767  0.34015967  0.04523310  1.0
  Ni  Ni143  1  0.91378767  0.67349300  0.04523310  1.0
  Ni  Ni144  1  0.02164767  0.05306067  0.08429890  1.0
  Ni  Ni145  1  0.02164767  0.38639400  0.08429890  1.0
  Ni  Ni146  1  0.02164767  0.71972733  0.08429890  1.0
  Ni  Ni147  1  0.35498100  0.05306067  0.08429890  1.0
  Ni  Ni148  1  0.35498100  0.38639400  0.08429890  1.0
  Ni  Ni149  1  0.35498100  0.71972733  0.08429890  1.0
  Ni  Ni150  1  0.68831433  0.05306067  0.08429890  1.0
  Ni  Ni151  1  0.68831433  0.38639400  0.08429890  1.0
  Ni  Ni152  1  0.68831433  0.71972733  0.08429890  1.0
  Ni  Ni153  1  0.08621233  0.32650700  0.14177830  1.0
  Ni  Ni154  1  0.08621233  0.65984033  0.14177830  1.0
  Ni  Ni155  1  0.08621233  0.99317367  0.14177830  1.0
  Ni  Ni156  1  0.41954567  0.32650700  0.14177830  1.0
  Ni  Ni157  1  0.41954567  0.65984033  0.14177830  1.0
  Ni  Ni158  1  0.41954567  0.99317367  0.14177830  1.0
  Ni  Ni159  1  0.75287900  0.32650700  0.14177830  1.0
  Ni  Ni160  1  0.75287900  0.65984033  0.14177830  1.0
  Ni  Ni161  1  0.75287900  0.99317367  0.14177830  1.0
  Ni  Ni162  1  0.18201133  0.05306067  0.18051710  1.0
  Ni  Ni163  1  0.18201133  0.38639400  0.18051710  1.0
  Ni  Ni164  1  0.18201133  0.71972733  0.18051710  1.0
  Ni  Ni165  1  0.51534467  0.05306067  0.18051710  1.0
  Ni  Ni166  1  0.51534467  0.38639400  0.18051710  1.0
  Ni  Ni167  1  0.51534467  0.71972733  0.18051710  1.0
  Ni  Ni168  1  0.84867800  0.05306067  0.18051710  1.0
  Ni  Ni169  1  0.84867800  0.38639400  0.18051710  1.0
  Ni  Ni170  1  0.84867800  0.71972733  0.18051710  1.0
  Ni  Ni171  1  0.08880467  0.16666667  0.04678850  1.0
  Ni  Ni172  1  0.08880467  0.50000000  0.04678850  1.0
  Ni  Ni173  1  0.08880467  0.83333333  0.04678850  1.0
  Ni  Ni174  1  0.42213800  0.16666667  0.04678850  1.0
  Ni  Ni175  1  0.42213800  0.50000000  0.04678850  1.0
  Ni  Ni176  1  0.42213800  0.83333333  0.04678850  1.0
  Ni  Ni177  1  0.75547133  0.16666667  0.04678850  1.0
  Ni  Ni178  1  0.75547133  0.50000000  0.04678850  1.0
  Ni  Ni179  1  0.75547133  0.83333333  0.04678850  1.0
  Ni  Ni180  1  0.00000000  0.00000000  0.19350570  1.0
  Ni  Ni181  1  0.00000000  0.33333333  0.19350570  1.0
  Ni  Ni182  1  0.00000000  0.66666667  0.19350570  1.0
  Ni  Ni183  1  0.33333333  0.00000000  0.19350570  1.0
  Ni  Ni184  1  0.33333333  0.33333333  0.19350570  1.0
  Ni  Ni185  1  0.33333333  0.66666667  0.19350570  1.0
  Ni  Ni186  1  0.66666667  0.00000000  0.19350570  1.0
  Ni  Ni187  1  0.66666667  0.33333333  0.19350570  1.0
  Ni  Ni188  1  0.66666667  0.66666667  0.19350570  1.0
  Ni  Ni189  1  0.00000000  0.16666667  0.09350570  1.0
  Ni  Ni190  1  0.00000000  0.50000000  0.09350570  1.0
  Ni  Ni191  1  0.00000000  0.83333333  0.09350570  1.0
  Ni  Ni192  1  0.33333333  0.16666667  0.09350570  1.0
  Ni  Ni193  1  0.33333333  0.50000000  0.09350570  1.0
  Ni  Ni194  1  0.33333333  0.83333333  0.09350570  1.0
  Ni  Ni195  1  0.66666667  0.16666667  0.09350570  1.0
  Ni  Ni196  1  0.66666667  0.50000000  0.09350570  1.0
  Ni  Ni197  1  0.66666667  0.83333333  0.09350570  1.0
  In  In198  1  0.24932467  0.26996367  0.35971010  1.0
  In  In199  1  0.24932467  0.60329700  0.35971010  1.0
  In  In200  1  0.24932467  0.93663033  0.35971010  1.0
  In  In201  1  0.58265800  0.26996367  0.35971010  1.0
  In  In202  1  0.58265800  0.60329700  0.35971010  1.0
  In  In203  1  0.58265800  0.93663033  0.35971010  1.0
  In  In204  1  0.91599133  0.26996367  0.35971010  1.0
  In  In205  1  0.91599133  0.60329700  0.35971010  1.0
  In  In206  1  0.91599133  0.93663033  0.35971010  1.0
  In  In207  1  0.27593567  0.20476033  0.22794430  1.0
  In  In208  1  0.27593567  0.53809367  0.22794430  1.0
  In  In209  1  0.27593567  0.87142700  0.22794430  1.0
  In  In210  1  0.60926900  0.20476033  0.22794430  1.0
  In  In211  1  0.60926900  0.53809367  0.22794430  1.0
  In  In212  1  0.60926900  0.87142700  0.22794430  1.0
  In  In213  1  0.94260233  0.20476033  0.22794430  1.0
  In  In214  1  0.94260233  0.53809367  0.22794430  1.0
  In  In215  1  0.94260233  0.87142700  0.22794430  1.0
  In  In216  1  0.23827333  0.11075000  0.25054170  1.0
  In  In217  1  0.23827333  0.44408333  0.25054170  1.0
  In  In218  1  0.23827333  0.77741667  0.25054170  1.0
  In  In219  1  0.57160667  0.11075000  0.25054170  1.0
  In  In220  1  0.57160667  0.44408333  0.25054170  1.0
  In  In221  1  0.57160667  0.77741667  0.25054170  1.0
  In  In222  1  0.90494000  0.11075000  0.25054170  1.0
  In  In223  1  0.90494000  0.44408333  0.25054170  1.0
  In  In224  1  0.90494000  0.77741667  0.25054170  1.0
  In  In225  1  0.05632600  0.26996367  0.24391090  1.0
  In  In226  1  0.05632600  0.60329700  0.24391090  1.0
  In  In227  1  0.05632600  0.93663033  0.24391090  1.0
  In  In228  1  0.38965933  0.26996367  0.24391090  1.0
  In  In229  1  0.38965933  0.60329700  0.24391090  1.0
  In  In230  1  0.38965933  0.93663033  0.24391090  1.0
  In  In231  1  0.72299267  0.26996367  0.24391090  1.0
  In  In232  1  0.72299267  0.60329700  0.24391090  1.0
  In  In233  1  0.72299267  0.93663033  0.24391090  1.0
  In  In234  1  0.09506000  0.22258333  0.33646970  1.0
  In  In235  1  0.09506000  0.55591667  0.33646970  1.0
  In  In236  1  0.09506000  0.88925000  0.33646970  1.0
  In  In237  1  0.42839333  0.22258333  0.33646970  1.0
  In  In238  1  0.42839333  0.55591667  0.33646970  1.0
  In  In239  1  0.42839333  0.88925000  0.33646970  1.0
  In  In240  1  0.76172667  0.22258333  0.33646970  1.0
  In  In241  1  0.76172667  0.55591667  0.33646970  1.0
  In  In242  1  0.76172667  0.88925000  0.33646970  1.0
  In  In243  1  0.16666667  0.00000000  0.29350570  1.0
  In  In244  1  0.16666667  0.33333333  0.29350570  1.0
  In  In245  1  0.16666667  0.66666667  0.29350570  1.0
  In  In246  1  0.50000000  0.00000000  0.29350570  1.0
  In  In247  1  0.50000000  0.33333333  0.29350570  1.0
  In  In248  1  0.50000000  0.66666667  0.29350570  1.0
  In  In249  1  0.83333333  0.00000000  0.29350570  1.0
  In  In250  1  0.83333333  0.33333333  0.29350570  1.0
  In  In251  1  0.83333333  0.66666667  0.29350570  1.0
  In  In252  1  0.08400867  0.06336967  0.22730130  1.0
  In  In253  1  0.08400867  0.39670300  0.22730130  1.0
  In  In254  1  0.08400867  0.73003633  0.22730130  1.0
  In  In255  1  0.41734200  0.06336967  0.22730130  1.0
  In  In256  1  0.41734200  0.39670300  0.22730130  1.0
  In  In257  1  0.41734200  0.73003633  0.22730130  1.0
  In  In258  1  0.75067533  0.06336967  0.22730130  1.0
  In  In259  1  0.75067533  0.39670300  0.22730130  1.0
  In  In260  1  0.75067533  0.73003633  0.22730130  1.0
  In  In261  1  0.27700733  0.06336967  0.34310050  1.0
  In  In262  1  0.27700733  0.39670300  0.34310050  1.0
  In  In263  1  0.27700733  0.73003633  0.34310050  1.0
  In  In264  1  0.61034067  0.06336967  0.34310050  1.0
  In  In265  1  0.61034067  0.39670300  0.34310050  1.0
  In  In266  1  0.61034067  0.73003633  0.34310050  1.0
  In  In267  1  0.94367400  0.06336967  0.34310050  1.0
  In  In268  1  0.94367400  0.39670300  0.34310050  1.0
  In  In269  1  0.94367400  0.73003633  0.34310050  1.0
  In  In270  1  0.05739767  0.12857300  0.35906710  1.0
  In  In271  1  0.05739767  0.46190633  0.35906710  1.0
  In  In272  1  0.05739767  0.79523967  0.35906710  1.0
  In  In273  1  0.39073100  0.12857300  0.35906710  1.0
  In  In274  1  0.39073100  0.46190633  0.35906710  1.0
  In  In275  1  0.39073100  0.79523967  0.35906710  1.0
  In  In276  1  0.72406433  0.12857300  0.35906710  1.0
  In  In277  1  0.72406433  0.46190633  0.35906710  1.0
  In  In278  1  0.72406433  0.79523967  0.35906710  1.0
  Ni  Ni279  1  0.15132200  0.28027267  0.20649430  1.0
  Ni  Ni280  1  0.15132200  0.61360600  0.20649430  1.0
  Ni  Ni281  1  0.15132200  0.94693933  0.20649430  1.0
  Ni  Ni282  1  0.48465533  0.28027267  0.20649430  1.0
  Ni  Ni283  1  0.48465533  0.61360600  0.20649430  1.0
  Ni  Ni284  1  0.48465533  0.94693933  0.20649430  1.0
  Ni  Ni285  1  0.81798867  0.28027267  0.20649430  1.0
  Ni  Ni286  1  0.81798867  0.61360600  0.20649430  1.0
  Ni  Ni287  1  0.81798867  0.94693933  0.20649430  1.0
  Ni  Ni288  1  0.16666667  0.16666667  0.39350570  1.0
  Ni  Ni289  1  0.16666667  0.50000000  0.39350570  1.0
  Ni  Ni290  1  0.16666667  0.83333333  0.39350570  1.0
  Ni  Ni291  1  0.50000000  0.16666667  0.39350570  1.0
  Ni  Ni292  1  0.50000000  0.50000000  0.39350570  1.0
  Ni  Ni293  1  0.50000000  0.83333333  0.39350570  1.0
  Ni  Ni294  1  0.83333333  0.16666667  0.39350570  1.0
  Ni  Ni295  1  0.83333333  0.50000000  0.39350570  1.0
  Ni  Ni296  1  0.83333333  0.83333333  0.39350570  1.0
  Ni  Ni297  1  0.15176800  0.10763467  0.30244490  1.0
  Ni  Ni298  1  0.15176800  0.44096800  0.30244490  1.0
  Ni  Ni299  1  0.15176800  0.77430133  0.30244490  1.0
  Ni  Ni300  1  0.48510133  0.10763467  0.30244490  1.0
  Ni  Ni301  1  0.48510133  0.44096800  0.30244490  1.0
  Ni  Ni302  1  0.48510133  0.77430133  0.30244490  1.0
  Ni  Ni303  1  0.81843467  0.10763467  0.30244490  1.0
  Ni  Ni304  1  0.81843467  0.44096800  0.30244490  1.0
  Ni  Ni305  1  0.81843467  0.77430133  0.30244490  1.0
  Ni  Ni306  1  0.31168567  0.28027267  0.30271250  1.0
  Ni  Ni307  1  0.31168567  0.61360600  0.30271250  1.0
  Ni  Ni308  1  0.31168567  0.94693933  0.30271250  1.0
  Ni  Ni309  1  0.64501900  0.28027267  0.30271250  1.0
  Ni  Ni310  1  0.64501900  0.61360600  0.30271250  1.0
  Ni  Ni311  1  0.64501900  0.94693933  0.30271250  1.0
  Ni  Ni312  1  0.97835233  0.28027267  0.30271250  1.0
  Ni  Ni313  1  0.97835233  0.61360600  0.30271250  1.0
  Ni  Ni314  1  0.97835233  0.94693933  0.30271250  1.0
  Ni  Ni315  1  0.18156533  0.22569867  0.28456650  1.0
  Ni  Ni316  1  0.18156533  0.55903200  0.28456650  1.0
  Ni  Ni317  1  0.18156533  0.89236533  0.28456650  1.0
  Ni  Ni318  1  0.51489867  0.22569867  0.28456650  1.0
  Ni  Ni319  1  0.51489867  0.55903200  0.28456650  1.0
  Ni  Ni320  1  0.51489867  0.89236533  0.28456650  1.0
  Ni  Ni321  1  0.84823200  0.22569867  0.28456650  1.0
  Ni  Ni322  1  0.84823200  0.55903200  0.28456650  1.0
  Ni  Ni323  1  0.84823200  0.89236533  0.28456650  1.0
  Ni  Ni324  1  0.24452867  0.16666667  0.34022290  1.0
  Ni  Ni325  1  0.24452867  0.50000000  0.34022290  1.0
  Ni  Ni326  1  0.24452867  0.83333333  0.34022290  1.0
  Ni  Ni327  1  0.57786200  0.16666667  0.34022290  1.0
  Ni  Ni328  1  0.57786200  0.50000000  0.34022290  1.0
  Ni  Ni329  1  0.57786200  0.83333333  0.34022290  1.0
  Ni  Ni330  1  0.91119533  0.16666667  0.34022290  1.0
  Ni  Ni331  1  0.91119533  0.50000000  0.34022290  1.0
  Ni  Ni332  1  0.91119533  0.83333333  0.34022290  1.0
  Ni  Ni333  1  0.24712100  0.00682633  0.24523310  1.0
  Ni  Ni334  1  0.24712100  0.34015967  0.24523310  1.0
  Ni  Ni335  1  0.24712100  0.67349300  0.24523310  1.0
  Ni  Ni336  1  0.58045433  0.00682633  0.24523310  1.0
  Ni  Ni337  1  0.58045433  0.34015967  0.24523310  1.0
  Ni  Ni338  1  0.58045433  0.67349300  0.24523310  1.0
  Ni  Ni339  1  0.91378767  0.00682633  0.24523310  1.0
  Ni  Ni340  1  0.91378767  0.34015967  0.24523310  1.0
  Ni  Ni341  1  0.91378767  0.67349300  0.24523310  1.0
  Ni  Ni342  1  0.02164767  0.05306067  0.28429890  1.0
  Ni  Ni343  1  0.02164767  0.38639400  0.28429890  1.0
  Ni  Ni344  1  0.02164767  0.71972733  0.28429890  1.0
  Ni  Ni345  1  0.35498100  0.05306067  0.28429890  1.0
  Ni  Ni346  1  0.35498100  0.38639400  0.28429890  1.0
  Ni  Ni347  1  0.35498100  0.71972733  0.28429890  1.0
  Ni  Ni348  1  0.68831433  0.05306067  0.28429890  1.0
  Ni  Ni349  1  0.68831433  0.38639400  0.28429890  1.0
  Ni  Ni350  1  0.68831433  0.71972733  0.28429890  1.0
  Ni  Ni351  1  0.08621233  0.32650700  0.34177830  1.0
  Ni  Ni352  1  0.08621233  0.65984033  0.34177830  1.0
  Ni  Ni353  1  0.08621233  0.99317367  0.34177830  1.0
  Ni  Ni354  1  0.41954567  0.32650700  0.34177830  1.0
  Ni  Ni355  1  0.41954567  0.65984033  0.34177830  1.0
  Ni  Ni356  1  0.41954567  0.99317367  0.34177830  1.0
  Ni  Ni357  1  0.75287900  0.32650700  0.34177830  1.0
  Ni  Ni358  1  0.75287900  0.65984033  0.34177830  1.0
  Ni  Ni359  1  0.75287900  0.99317367  0.34177830  1.0
  Ni  Ni360  1  0.18201133  0.05306067  0.38051710  1.0
  Ni  Ni361  1  0.18201133  0.38639400  0.38051710  1.0
  Ni  Ni362  1  0.18201133  0.71972733  0.38051710  1.0
  Ni  Ni363  1  0.51534467  0.05306067  0.38051710  1.0
  Ni  Ni364  1  0.51534467  0.38639400  0.38051710  1.0
  Ni  Ni365  1  0.51534467  0.71972733  0.38051710  1.0
  Ni  Ni366  1  0.84867800  0.05306067  0.38051710  1.0
  Ni  Ni367  1  0.84867800  0.38639400  0.38051710  1.0
  Ni  Ni368  1  0.84867800  0.71972733  0.38051710  1.0
  Ni  Ni369  1  0.08880467  0.16666667  0.24678850  1.0
  Ni  Ni370  1  0.08880467  0.50000000  0.24678850  1.0
  Ni  Ni371  1  0.08880467  0.83333333  0.24678850  1.0
  Ni  Ni372  1  0.42213800  0.16666667  0.24678850  1.0
  Ni  Ni373  1  0.42213800  0.50000000  0.24678850  1.0
  Ni  Ni374  1  0.42213800  0.83333333  0.24678850  1.0
  Ni  Ni375  1  0.75547133  0.16666667  0.24678850  1.0
  Ni  Ni376  1  0.75547133  0.50000000  0.24678850  1.0
  Ni  Ni377  1  0.75547133  0.83333333  0.24678850  1.0
  Ni  Ni378  1  0.00000000  0.00000000  0.39350570  1.0
  Ni  Ni379  1  0.00000000  0.33333333  0.39350570  1.0
  Ni  Ni380  1  0.00000000  0.66666667  0.39350570  1.0
  Ni  Ni381  1  0.33333333  0.00000000  0.39350570  1.0
  Ni  Ni382  1  0.33333333  0.33333333  0.39350570  1.0
  Ni  Ni383  1  0.33333333  0.66666667  0.39350570  1.0
  Ni  Ni384  1  0.66666667  0.00000000  0.39350570  1.0
  Ni  Ni385  1  0.66666667  0.33333333  0.39350570  1.0
  Ni  Ni386  1  0.66666667  0.66666667  0.39350570  1.0
  Ni  Ni387  1  0.00000000  0.16666667  0.29350570  1.0
  Ni  Ni388  1  0.00000000  0.50000000  0.29350570  1.0
  Ni  Ni389  1  0.00000000  0.83333333  0.29350570  1.0
  Ni  Ni390  1  0.33333333  0.16666667  0.29350570  1.0
  Ni  Ni391  1  0.33333333  0.50000000  0.29350570  1.0
  Ni  Ni392  1  0.33333333  0.83333333  0.29350570  1.0
  Ni  Ni393  1  0.66666667  0.16666667  0.29350570  1.0
  Ni  Ni394  1  0.66666667  0.50000000  0.29350570  1.0
  Ni  Ni395  1  0.66666667  0.83333333  0.29350570  1.0
