# generated using pymatgen
data_InNi3
_symmetry_space_group_name_H-M   'P 1'
_cell_length_a   27.81251138
_cell_length_b   20.43180847
_cell_length_c   37.90147500
_cell_angle_alpha   128.19508690
_cell_angle_beta   90.00000000
_cell_angle_gamma   90.00000000
_symmetry_Int_Tables_number   1
_chemical_formula_structural   InNi3
_chemical_formula_sum   'In144 Ni432'
_cell_volume   16926.84027664
_cell_formula_units_Z   144
loop_
 _symmetry_equiv_pos_site_id
 _symmetry_equiv_pos_as_xyz
  1  'x, y, z'
loop_
 _atom_site_type_symbol
 _atom_site_label
 _atom_site_symmetry_multiplicity
 _atom_site_fract_x
 _atom_site_fract_y
 _atom_site_fract_z
 _atom_site_occupancy
  In  In0  1  0.11111111  0.00000000  0.02777778  1.0
  In  In1  1  0.11111111  0.33333333  0.02777778  1.0
  In  In2  1  0.11111111  0.66666667  0.02777778  1.0
  In  In3  1  0.44444444  0.00000000  0.02777778  1.0
  In  In4  1  0.44444444  0.33333333  0.02777778  1.0
  In  In5  1  0.44444444  0.66666667  0.02777778  1.0
  In  In6  1  0.77777778  0.00000000  0.02777778  1.0
  In  In7  1  0.77777778  0.33333333  0.02777778  1.0
  In  In8  1  0.77777778  0.66666667  0.02777778  1.0
  In  In9  1  0.27777778  0.16666667  0.08333333  1.0
  In  In10  1  0.27777778  0.50000000  0.08333333  1.0
  In  In11  1  0.27777778  0.83333333  0.08333333  1.0
  In  In12  1  0.61111111  0.16666667  0.08333333  1.0
  In  In13  1  0.61111111  0.50000000  0.08333333  1.0
  In  In14  1  0.61111111  0.83333333  0.08333333  1.0
  In  In15  1  0.94444444  0.16666667  0.08333333  1.0
  In  In16  1  0.94444444  0.50000000  0.08333333  1.0
  In  In17  1  0.94444444  0.83333333  0.08333333  1.0
  In  In18  1  0.05555556  0.16666667  0.02777778  1.0
  In  In19  1  0.05555556  0.50000000  0.02777778  1.0
  In  In20  1  0.05555556  0.83333333  0.02777778  1.0
  In  In21  1  0.38888889  0.16666667  0.02777778  1.0
  In  In22  1  0.38888889  0.50000000  0.02777778  1.0
  In  In23  1  0.38888889  0.83333333  0.02777778  1.0
  In  In24  1  0.72222222  0.16666667  0.02777778  1.0
  In  In25  1  0.72222222  0.50000000  0.02777778  1.0
  In  In26  1  0.72222222  0.83333333  0.02777778  1.0
  In  In27  1  0.22222222  0.00000000  0.08333333  1.0
  In  In28  1  0.22222222  0.33333333  0.08333333  1.0
  In  In29  1  0.22222222  0.66666667  0.08333333  1.0
  In  In30  1  0.55555556  0.00000000  0.08333333  1.0
  In  In31  1  0.55555556  0.33333333  0.08333333  1.0
  In  In32  1  0.55555556  0.66666667  0.08333333  1.0
  In  In33  1  0.88888889  0.00000000  0.08333333  1.0
  In  In34  1  0.88888889  0.33333333  0.08333333  1.0
  In  In35  1  0.88888889  0.66666667  0.08333333  1.0
  Ni  Ni36  1  0.11455467  0.16666667  0.08333333  1.0
  Ni  Ni37  1  0.11455467  0.50000000  0.08333333  1.0
  Ni  Ni38  1  0.11455467  0.83333333  0.08333333  1.0
  Ni  Ni39  1  0.44788800  0.16666667  0.08333333  1.0
  Ni  Ni40  1  0.44788800  0.50000000  0.08333333  1.0
  Ni  Ni41  1  0.44788800  0.83333333  0.08333333  1.0
  Ni  Ni42  1  0.78122133  0.16666667  0.08333333  1.0
  Ni  Ni43  1  0.78122133  0.50000000  0.08333333  1.0
  Ni  Ni44  1  0.78122133  0.83333333  0.08333333  1.0
  Ni  Ni45  1  0.28122133  0.00000000  0.02777778  1.0
  Ni  Ni46  1  0.28122133  0.33333333  0.02777778  1.0
  Ni  Ni47  1  0.28122133  0.66666667  0.02777778  1.0
  Ni  Ni48  1  0.61455467  0.00000000  0.02777778  1.0
  Ni  Ni49  1  0.61455467  0.33333333  0.02777778  1.0
  Ni  Ni50  1  0.61455467  0.66666667  0.02777778  1.0
  Ni  Ni51  1  0.94788800  0.00000000  0.02777778  1.0
  Ni  Ni52  1  0.94788800  0.33333333  0.02777778  1.0
  Ni  Ni53  1  0.94788800  0.66666667  0.02777778  1.0
  Ni  Ni54  1  0.02605600  0.07816800  0.05383378  1.0
  Ni  Ni55  1  0.02605600  0.41150133  0.05383378  1.0
  Ni  Ni56  1  0.02605600  0.74483467  0.05383378  1.0
  Ni  Ni57  1  0.35938933  0.07816800  0.05383378  1.0
  Ni  Ni58  1  0.35938933  0.41150133  0.05383378  1.0
  Ni  Ni59  1  0.35938933  0.74483467  0.05383378  1.0
  Ni  Ni60  1  0.69272267  0.07816800  0.05383378  1.0
  Ni  Ni61  1  0.69272267  0.41150133  0.05383378  1.0
  Ni  Ni62  1  0.69272267  0.74483467  0.05383378  1.0
  Ni  Ni63  1  0.19272267  0.24483467  0.10938933  1.0
  Ni  Ni64  1  0.19272267  0.57816800  0.10938933  1.0
  Ni  Ni65  1  0.19272267  0.91150133  0.10938933  1.0
  Ni  Ni66  1  0.52605600  0.24483467  0.10938933  1.0
  Ni  Ni67  1  0.52605600  0.57816800  0.10938933  1.0
  Ni  Ni68  1  0.52605600  0.91150133  0.10938933  1.0
  Ni  Ni69  1  0.85938933  0.24483467  0.10938933  1.0
  Ni  Ni70  1  0.85938933  0.57816800  0.10938933  1.0
  Ni  Ni71  1  0.85938933  0.91150133  0.10938933  1.0
  Ni  Ni72  1  0.02605600  0.25516533  0.00172178  1.0
  Ni  Ni73  1  0.02605600  0.58849867  0.00172178  1.0
  Ni  Ni74  1  0.02605600  0.92183200  0.00172178  1.0
  Ni  Ni75  1  0.35938933  0.25516533  0.00172178  1.0
  Ni  Ni76  1  0.35938933  0.58849867  0.00172178  1.0
  Ni  Ni77  1  0.35938933  0.92183200  0.00172178  1.0
  Ni  Ni78  1  0.69272267  0.25516533  0.00172178  1.0
  Ni  Ni79  1  0.69272267  0.58849867  0.00172178  1.0
  Ni  Ni80  1  0.69272267  0.92183200  0.00172178  1.0
  Ni  Ni81  1  0.19272267  0.08849867  0.05727733  1.0
  Ni  Ni82  1  0.19272267  0.42183200  0.05727733  1.0
  Ni  Ni83  1  0.19272267  0.75516533  0.05727733  1.0
  Ni  Ni84  1  0.52605600  0.08849867  0.05727733  1.0
  Ni  Ni85  1  0.52605600  0.42183200  0.05727733  1.0
  Ni  Ni86  1  0.52605600  0.75516533  0.05727733  1.0
  Ni  Ni87  1  0.85938933  0.08849867  0.05727733  1.0
  Ni  Ni88  1  0.85938933  0.42183200  0.05727733  1.0
  Ni  Ni89  1  0.85938933  0.75516533  0.05727733  1.0
  Ni  Ni90  1  0.05211200  0.00000000  0.08333333  1.0
  Ni  Ni91  1  0.05211200  0.33333333  0.08333333  1.0
  Ni  Ni92  1  0.05211200  0.66666667  0.08333333  1.0
  Ni  Ni93  1  0.38544533  0.00000000  0.08333333  1.0
  Ni  Ni94  1  0.38544533  0.33333333  0.08333333  1.0
  Ni  Ni95  1  0.38544533  0.66666667  0.08333333  1.0
  Ni  Ni96  1  0.71877867  0.00000000  0.08333333  1.0
  Ni  Ni97  1  0.71877867  0.33333333  0.08333333  1.0
  Ni  Ni98  1  0.71877867  0.66666667  0.08333333  1.0
  Ni  Ni99  1  0.21877867  0.16666667  0.02777778  1.0
  Ni  Ni100  1  0.21877867  0.50000000  0.02777778  1.0
  Ni  Ni101  1  0.21877867  0.83333333  0.02777778  1.0
  Ni  Ni102  1  0.55211200  0.16666667  0.02777778  1.0
  Ni  Ni103  1  0.55211200  0.50000000  0.02777778  1.0
  Ni  Ni104  1  0.55211200  0.83333333  0.02777778  1.0
  Ni  Ni105  1  0.88544533  0.16666667  0.02777778  1.0
  Ni  Ni106  1  0.88544533  0.50000000  0.02777778  1.0
  Ni  Ni107  1  0.88544533  0.83333333  0.02777778  1.0
  Ni  Ni108  1  0.14061067  0.08849867  0.00172178  1.0
  Ni  Ni109  1  0.14061067  0.42183200  0.00172178  1.0
  Ni  Ni110  1  0.14061067  0.75516533  0.00172178  1.0
  Ni  Ni111  1  0.47394400  0.08849867  0.00172178  1.0
  Ni  Ni112  1  0.47394400  0.42183200  0.00172178  1.0
  Ni  Ni113  1  0.47394400  0.75516533  0.00172178  1.0
  Ni  Ni114  1  0.80727733  0.08849867  0.00172178  1.0
  Ni  Ni115  1  0.80727733  0.42183200  0.00172178  1.0
  Ni  Ni116  1  0.80727733  0.75516533  0.00172178  1.0
  Ni  Ni117  1  0.30727733  0.25516533  0.05727733  1.0
  Ni  Ni118  1  0.30727733  0.58849867  0.05727733  1.0
  Ni  Ni119  1  0.30727733  0.92183200  0.05727733  1.0
  Ni  Ni120  1  0.64061067  0.25516533  0.05727733  1.0
  Ni  Ni121  1  0.64061067  0.58849867  0.05727733  1.0
  Ni  Ni122  1  0.64061067  0.92183200  0.05727733  1.0
  Ni  Ni123  1  0.97394400  0.25516533  0.05727733  1.0
  Ni  Ni124  1  0.97394400  0.58849867  0.05727733  1.0
  Ni  Ni125  1  0.97394400  0.92183200  0.05727733  1.0
  Ni  Ni126  1  0.14061067  0.24483467  0.05383378  1.0
  Ni  Ni127  1  0.14061067  0.57816800  0.05383378  1.0
  Ni  Ni128  1  0.14061067  0.91150133  0.05383378  1.0
  Ni  Ni129  1  0.47394400  0.24483467  0.05383378  1.0
  Ni  Ni130  1  0.47394400  0.57816800  0.05383378  1.0
  Ni  Ni131  1  0.47394400  0.91150133  0.05383378  1.0
  Ni  Ni132  1  0.80727733  0.24483467  0.05383378  1.0
  Ni  Ni133  1  0.80727733  0.57816800  0.05383378  1.0
  Ni  Ni134  1  0.80727733  0.91150133  0.05383378  1.0
  Ni  Ni135  1  0.30727733  0.07816800  0.10938933  1.0
  Ni  Ni136  1  0.30727733  0.41150133  0.10938933  1.0
  Ni  Ni137  1  0.30727733  0.74483467  0.10938933  1.0
  Ni  Ni138  1  0.64061067  0.07816800  0.10938933  1.0
  Ni  Ni139  1  0.64061067  0.41150133  0.10938933  1.0
  Ni  Ni140  1  0.64061067  0.74483467  0.10938933  1.0
  Ni  Ni141  1  0.97394400  0.07816800  0.10938933  1.0
  Ni  Ni142  1  0.97394400  0.41150133  0.10938933  1.0
  Ni  Ni143  1  0.97394400  0.74483467  0.10938933  1.0
  In  In144  1  0.11111111  0.00000000  0.13888889  1.0
  In  In145  1  0.11111111  0.33333333  0.13888889  1.0
  In  In146  1  0.11111111  0.66666667  0.13888889  1.0
  In  In147  1  0.44444444  0.00000000  0.13888889  1.0
  In  In148  1  0.44444444  0.33333333  0.13888889  1.0
  In  In149  1  0.44444444  0.66666667  0.13888889  1.0
  In  In150  1  0.77777778  0.00000000  0.13888889  1.0
  In  In151  1  0.77777778  0.33333333  0.13888889  1.0
  In  In152  1  0.77777778  0.66666667  0.13888889  1.0
  In  In153  1  0.27777778  0.16666667  0.19444444  1.0
  In  In154  1  0.27777778  0.50000000  0.19444444  1.0
  In  In155  1  0.27777778  0.83333333  0.19444444  1.0
  In  In156  1  0.61111111  0.16666667  0.19444444  1.0
  In  In157  1  0.61111111  0.50000000  0.19444444  1.0
  In  In158  1  0.61111111  0.83333333  0.19444444  1.0
  In  In159  1  0.94444444  0.16666667  0.19444444  1.0
  In  In160  1  0.94444444  0.50000000  0.19444444  1.0
  In  In161  1  0.94444444  0.83333333  0.19444444  1.0
  In  In162  1  0.05555556  0.16666667  0.13888889  1.0
  In  In163  1  0.05555556  0.50000000  0.13888889  1.0
  In  In164  1  0.05555556  0.83333333  0.13888889  1.0
  In  In165  1  0.38888889  0.16666667  0.13888889  1.0
  In  In166  1  0.38888889  0.50000000  0.13888889  1.0
  In  In167  1  0.38888889  0.83333333  0.13888889  1.0
  In  In168  1  0.72222222  0.16666667  0.13888889  1.0
  In  In169  1  0.72222222  0.50000000  0.13888889  1.0
  In  In170  1  0.72222222  0.83333333  0.13888889  1.0
  In  In171  1  0.22222222  0.00000000  0.19444444  1.0
  In  In172  1  0.22222222  0.33333333  0.19444444  1.0
  In  In173  1  0.22222222  0.66666667  0.19444444  1.0
  In  In174  1  0.55555556  0.00000000  0.19444444  1.0
  In  In175  1  0.55555556  0.33333333  0.19444444  1.0
  In  In176  1  0.55555556  0.66666667  0.19444444  1.0
  In  In177  1  0.88888889  0.00000000  0.19444444  1.0
  In  In178  1  0.88888889  0.33333333  0.19444444  1.0
  In  In179  1  0.88888889  0.66666667  0.19444444  1.0
  Ni  Ni180  1  0.11455467  0.16666667  0.19444444  1.0
  Ni  Ni181  1  0.11455467  0.50000000  0.19444444  1.0
  Ni  Ni182  1  0.11455467  0.83333333  0.19444444  1.0
  Ni  Ni183  1  0.44788800  0.16666667  0.19444444  1.0
  Ni  Ni184  1  0.44788800  0.50000000  0.19444444  1.0
  Ni  Ni185  1  0.44788800  0.83333333  0.19444444  1.0
  Ni  Ni186  1  0.78122133  0.16666667  0.19444444  1.0
  Ni  Ni187  1  0.78122133  0.50000000  0.19444444  1.0
  Ni  Ni188  1  0.78122133  0.83333333  0.19444444  1.0
  Ni  Ni189  1  0.28122133  0.00000000  0.13888889  1.0
  Ni  Ni190  1  0.28122133  0.33333333  0.13888889  1.0
  Ni  Ni191  1  0.28122133  0.66666667  0.13888889  1.0
  Ni  Ni192  1  0.61455467  0.00000000  0.13888889  1.0
  Ni  Ni193  1  0.61455467  0.33333333  0.13888889  1.0
  Ni  Ni194  1  0.61455467  0.66666667  0.13888889  1.0
  Ni  Ni195  1  0.94788800  0.00000000  0.13888889  1.0
  Ni  Ni196  1  0.94788800  0.33333333  0.13888889  1.0
  Ni  Ni197  1  0.94788800  0.66666667  0.13888889  1.0
  Ni  Ni198  1  0.02605600  0.07816800  0.16494489  1.0
  Ni  Ni199  1  0.02605600  0.41150133  0.16494489  1.0
  Ni  Ni200  1  0.02605600  0.74483467  0.16494489  1.0
  Ni  Ni201  1  0.35938933  0.07816800  0.16494489  1.0
  Ni  Ni202  1  0.35938933  0.41150133  0.16494489  1.0
  Ni  Ni203  1  0.35938933  0.74483467  0.16494489  1.0
  Ni  Ni204  1  0.69272267  0.07816800  0.16494489  1.0
  Ni  Ni205  1  0.69272267  0.41150133  0.16494489  1.0
  Ni  Ni206  1  0.69272267  0.74483467  0.16494489  1.0
  Ni  Ni207  1  0.19272267  0.24483467  0.22050044  1.0
  Ni  Ni208  1  0.19272267  0.57816800  0.22050044  1.0
  Ni  Ni209  1  0.19272267  0.91150133  0.22050044  1.0
  Ni  Ni210  1  0.52605600  0.24483467  0.22050044  1.0
  Ni  Ni211  1  0.52605600  0.57816800  0.22050044  1.0
  Ni  Ni212  1  0.52605600  0.91150133  0.22050044  1.0
  Ni  Ni213  1  0.85938933  0.24483467  0.22050044  1.0
  Ni  Ni214  1  0.85938933  0.57816800  0.22050044  1.0
  Ni  Ni215  1  0.85938933  0.91150133  0.22050044  1.0
  Ni  Ni216  1  0.02605600  0.25516533  0.11283289  1.0
  Ni  Ni217  1  0.02605600  0.58849867  0.11283289  1.0
  Ni  Ni218  1  0.02605600  0.92183200  0.11283289  1.0
  Ni  Ni219  1  0.35938933  0.25516533  0.11283289  1.0
  Ni  Ni220  1  0.35938933  0.58849867  0.11283289  1.0
  Ni  Ni221  1  0.35938933  0.92183200  0.11283289  1.0
  Ni  Ni222  1  0.69272267  0.25516533  0.11283289  1.0
  Ni  Ni223  1  0.69272267  0.58849867  0.11283289  1.0
  Ni  Ni224  1  0.69272267  0.92183200  0.11283289  1.0
  Ni  Ni225  1  0.19272267  0.08849867  0.16838844  1.0
  Ni  Ni226  1  0.19272267  0.42183200  0.16838844  1.0
  Ni  Ni227  1  0.19272267  0.75516533  0.16838844  1.0
  Ni  Ni228  1  0.52605600  0.08849867  0.16838844  1.0
  Ni  Ni229  1  0.52605600  0.42183200  0.16838844  1.0
  Ni  Ni230  1  0.52605600  0.75516533  0.16838844  1.0
  Ni  Ni231  1  0.85938933  0.08849867  0.16838844  1.0
  Ni  Ni232  1  0.85938933  0.42183200  0.16838844  1.0
  Ni  Ni233  1  0.85938933  0.75516533  0.16838844  1.0
  Ni  Ni234  1  0.05211200  0.00000000  0.19444444  1.0
  Ni  Ni235  1  0.05211200  0.33333333  0.19444444  1.0
  Ni  Ni236  1  0.05211200  0.66666667  0.19444444  1.0
  Ni  Ni237  1  0.38544533  0.00000000  0.19444444  1.0
  Ni  Ni238  1  0.38544533  0.33333333  0.19444444  1.0
  Ni  Ni239  1  0.38544533  0.66666667  0.19444444  1.0
  Ni  Ni240  1  0.71877867  0.00000000  0.19444444  1.0
  Ni  Ni241  1  0.71877867  0.33333333  0.19444444  1.0
  Ni  Ni242  1  0.71877867  0.66666667  0.19444444  1.0
  Ni  Ni243  1  0.21877867  0.16666667  0.13888889  1.0
  Ni  Ni244  1  0.21877867  0.50000000  0.13888889  1.0
  Ni  Ni245  1  0.21877867  0.83333333  0.13888889  1.0
  Ni  Ni246  1  0.55211200  0.16666667  0.13888889  1.0
  Ni  Ni247  1  0.55211200  0.50000000  0.13888889  1.0
  Ni  Ni248  1  0.55211200  0.83333333  0.13888889  1.0
  Ni  Ni249  1  0.88544533  0.16666667  0.13888889  1.0
  Ni  Ni250  1  0.88544533  0.50000000  0.13888889  1.0
  Ni  Ni251  1  0.88544533  0.83333333  0.13888889  1.0
  Ni  Ni252  1  0.14061067  0.08849867  0.11283289  1.0
  Ni  Ni253  1  0.14061067  0.42183200  0.11283289  1.0
  Ni  Ni254  1  0.14061067  0.75516533  0.11283289  1.0
  Ni  Ni255  1  0.47394400  0.08849867  0.11283289  1.0
  Ni  Ni256  1  0.47394400  0.42183200  0.11283289  1.0
  Ni  Ni257  1  0.47394400  0.75516533  0.11283289  1.0
  Ni  Ni258  1  0.80727733  0.08849867  0.11283289  1.0
  Ni  Ni259  1  0.80727733  0.42183200  0.11283289  1.0
  Ni  Ni260  1  0.80727733  0.75516533  0.11283289  1.0
  Ni  Ni261  1  0.30727733  0.25516533  0.16838844  1.0
  Ni  Ni262  1  0.30727733  0.58849867  0.16838844  1.0
  Ni  Ni263  1  0.30727733  0.92183200  0.16838844  1.0
  Ni  Ni264  1  0.64061067  0.25516533  0.16838844  1.0
  Ni  Ni265  1  0.64061067  0.58849867  0.16838844  1.0
  Ni  Ni266  1  0.64061067  0.92183200  0.16838844  1.0
  Ni  Ni267  1  0.97394400  0.25516533  0.16838844  1.0
  Ni  Ni268  1  0.97394400  0.58849867  0.16838844  1.0
  Ni  Ni269  1  0.97394400  0.92183200  0.16838844  1.0
  Ni  Ni270  1  0.14061067  0.24483467  0.16494489  1.0
  Ni  Ni271  1  0.14061067  0.57816800  0.16494489  1.0
  Ni  Ni272  1  0.14061067  0.91150133  0.16494489  1.0
  Ni  Ni273  1  0.47394400  0.24483467  0.16494489  1.0
  Ni  Ni274  1  0.47394400  0.57816800  0.16494489  1.0
  Ni  Ni275  1  0.47394400  0.91150133  0.16494489  1.0
  Ni  Ni276  1  0.80727733  0.24483467  0.16494489  1.0
  Ni  Ni277  1  0.80727733  0.57816800  0.16494489  1.0
  Ni  Ni278  1  0.80727733  0.91150133  0.16494489  1.0
  Ni  Ni279  1  0.30727733  0.07816800  0.22050044  1.0
  Ni  Ni280  1  0.30727733  0.41150133  0.22050044  1.0
  Ni  Ni281  1  0.30727733  0.74483467  0.22050044  1.0
  Ni  Ni282  1  0.64061067  0.07816800  0.22050044  1.0
  Ni  Ni283  1  0.64061067  0.41150133  0.22050044  1.0
  Ni  Ni284  1  0.64061067  0.74483467  0.22050044  1.0
  Ni  Ni285  1  0.97394400  0.07816800  0.22050044  1.0
  Ni  Ni286  1  0.97394400  0.41150133  0.22050044  1.0
  Ni  Ni287  1  0.97394400  0.74483467  0.22050044  1.0
  In  In288  1  0.11111111  0.00000000  0.25000000  1.0
  In  In289  1  0.11111111  0.33333333  0.25000000  1.0
  In  In290  1  0.11111111  0.66666667  0.25000000  1.0
  In  In291  1  0.44444444  0.00000000  0.25000000  1.0
  In  In292  1  0.44444444  0.33333333  0.25000000  1.0
  In  In293  1  0.44444444  0.66666667  0.25000000  1.0
  In  In294  1  0.77777778  0.00000000  0.25000000  1.0
  In  In295  1  0.77777778  0.33333333  0.25000000  1.0
  In  In296  1  0.77777778  0.66666667  0.25000000  1.0
  In  In297  1  0.27777778  0.16666667  0.30555556  1.0
  In  In298  1  0.27777778  0.50000000  0.30555556  1.0
  In  In299  1  0.27777778  0.83333333  0.30555556  1.0
  In  In300  1  0.61111111  0.16666667  0.30555556  1.0
  In  In301  1  0.61111111  0.50000000  0.30555556  1.0
  In  In302  1  0.61111111  0.83333333  0.30555556  1.0
  In  In303  1  0.94444444  0.16666667  0.30555556  1.0
  In  In304  1  0.94444444  0.50000000  0.30555556  1.0
  In  In305  1  0.94444444  0.83333333  0.30555556  1.0
  In  In306  1  0.05555556  0.16666667  0.25000000  1.0
  In  In307  1  0.05555556  0.50000000  0.25000000  1.0
  In  In308  1  0.05555556  0.83333333  0.25000000  1.0
  In  In309  1  0.38888889  0.16666667  0.25000000  1.0
  In  In310  1  0.38888889  0.50000000  0.25000000  1.0
  In  In311  1  0.38888889  0.83333333  0.25000000  1.0
  In  In312  1  0.72222222  0.16666667  0.25000000  1.0
  In  In313  1  0.72222222  0.50000000  0.25000000  1.0
  In  In314  1  0.72222222  0.83333333  0.25000000  1.0
  In  In315  1  0.22222222  0.00000000  0.30555556  1.0
  In  In316  1  0.22222222  0.33333333  0.30555556  1.0
  In  In317  1  0.22222222  0.66666667  0.30555556  1.0
  In  In318  1  0.55555556  0.00000000  0.30555556  1.0
  In  In319  1  0.55555556  0.33333333  0.30555556  1.0
  In  In320  1  0.55555556  0.66666667  0.30555556  1.0
  In  In321  1  0.88888889  0.00000000  0.30555556  1.0
  In  In322  1  0.88888889  0.33333333  0.30555556  1.0
  In  In323  1  0.88888889  0.66666667  0.30555556  1.0
  Ni  Ni324  1  0.11455467  0.16666667  0.30555556  1.0
  Ni  Ni325  1  0.11455467  0.50000000  0.30555556  1.0
  Ni  Ni326  1  0.11455467  0.83333333  0.30555556  1.0
  Ni  Ni327  1  0.44788800  0.16666667  0.30555556  1.0
  Ni  Ni328  1  0.44788800  0.50000000  0.30555556  1.0
  Ni  Ni329  1  0.44788800  0.83333333  0.30555556  1.0
  Ni  Ni330  1  0.78122133  0.16666667  0.30555556  1.0
  Ni  Ni331  1  0.78122133  0.50000000  0.30555556  1.0
  Ni  Ni332  1  0.78122133  0.83333333  0.30555556  1.0
  Ni  Ni333  1  0.28122133  0.00000000  0.25000000  1.0
  Ni  Ni334  1  0.28122133  0.33333333  0.25000000  1.0
  Ni  Ni335  1  0.28122133  0.66666667  0.25000000  1.0
  Ni  Ni336  1  0.61455467  0.00000000  0.25000000  1.0
  Ni  Ni337  1  0.61455467  0.33333333  0.25000000  1.0
  Ni  Ni338  1  0.61455467  0.66666667  0.25000000  1.0
  Ni  Ni339  1  0.94788800  0.00000000  0.25000000  1.0
  Ni  Ni340  1  0.94788800  0.33333333  0.25000000  1.0
  Ni  Ni341  1  0.94788800  0.66666667  0.25000000  1.0
  Ni  Ni342  1  0.02605600  0.07816800  0.27605600  1.0
  Ni  Ni343  1  0.02605600  0.41150133  0.27605600  1.0
  Ni  Ni344  1  0.02605600  0.74483467  0.27605600  1.0
  Ni  Ni345  1  0.35938933  0.07816800  0.27605600  1.0
  Ni  Ni346  1  0.35938933  0.41150133  0.27605600  1.0
  Ni  Ni347  1  0.35938933  0.74483467  0.27605600  1.0
  Ni  Ni348  1  0.69272267  0.07816800  0.27605600  1.0
  Ni  Ni349  1  0.69272267  0.41150133  0.27605600  1.0
  Ni  Ni350  1  0.69272267  0.74483467  0.27605600  1.0
  Ni  Ni351  1  0.19272267  0.24483467  0.33161156  1.0
  Ni  Ni352  1  0.19272267  0.57816800  0.33161156  1.0
  Ni  Ni353  1  0.19272267  0.91150133  0.33161156  1.0
  Ni  Ni354  1  0.52605600  0.24483467  0.33161156  1.0
  Ni  Ni355  1  0.52605600  0.57816800  0.33161156  1.0
  Ni  Ni356  1  0.52605600  0.91150133  0.33161156  1.0
  Ni  Ni357  1  0.85938933  0.24483467  0.33161156  1.0
  Ni  Ni358  1  0.85938933  0.57816800  0.33161156  1.0
  Ni  Ni359  1  0.85938933  0.91150133  0.33161156  1.0
  Ni  Ni360  1  0.02605600  0.25516533  0.22394400  1.0
  Ni  Ni361  1  0.02605600  0.58849867  0.22394400  1.0
  Ni  Ni362  1  0.02605600  0.92183200  0.22394400  1.0
  Ni  Ni363  1  0.35938933  0.25516533  0.22394400  1.0
  Ni  Ni364  1  0.35938933  0.58849867  0.22394400  1.0
  Ni  Ni365  1  0.35938933  0.92183200  0.22394400  1.0
  Ni  Ni366  1  0.69272267  0.25516533  0.22394400  1.0
  Ni  Ni367  1  0.69272267  0.58849867  0.22394400  1.0
  Ni  Ni368  1  0.69272267  0.92183200  0.22394400  1.0
  Ni  Ni369  1  0.19272267  0.08849867  0.27949956  1.0
  Ni  Ni370  1  0.19272267  0.42183200  0.27949956  1.0
  Ni  Ni371  1  0.19272267  0.75516533  0.27949956  1.0
  Ni  Ni372  1  0.52605600  0.08849867  0.27949956  1.0
  Ni  Ni373  1  0.52605600  0.42183200  0.27949956  1.0
  Ni  Ni374  1  0.52605600  0.75516533  0.27949956  1.0
  Ni  Ni375  1  0.85938933  0.08849867  0.27949956  1.0
  Ni  Ni376  1  0.85938933  0.42183200  0.27949956  1.0
  Ni  Ni377  1  0.85938933  0.75516533  0.27949956  1.0
  Ni  Ni378  1  0.05211200  0.00000000  0.30555556  1.0
  Ni  Ni379  1  0.05211200  0.33333333  0.30555556  1.0
  Ni  Ni380  1  0.05211200  0.66666667  0.30555556  1.0
  Ni  Ni381  1  0.38544533  0.00000000  0.30555556  1.0
  Ni  Ni382  1  0.38544533  0.33333333  0.30555556  1.0
  Ni  Ni383  1  0.38544533  0.66666667  0.30555556  1.0
  Ni  Ni384  1  0.71877867  0.00000000  0.30555556  1.0
  Ni  Ni385  1  0.71877867  0.33333333  0.30555556  1.0
  Ni  Ni386  1  0.71877867  0.66666667  0.30555556  1.0
  Ni  Ni387  1  0.21877867  0.16666667  0.25000000  1.0
  Ni  Ni388  1  0.21877867  0.50000000  0.25000000  1.0
  Ni  Ni389  1  0.21877867  0.83333333  0.25000000  1.0
  Ni  Ni390  1  0.55211200  0.16666667  0.25000000  1.0
  Ni  Ni391  1  0.55211200  0.50000000  0.25000000  1.0
  Ni  Ni392  1  0.55211200  0.83333333  0.25000000  1.0
  Ni  Ni393  1  0.88544533  0.16666667  0.25000000  1.0
  Ni  Ni394  1  0.88544533  0.50000000  0.25000000  1.0
  Ni  Ni395  1  0.88544533  0.83333333  0.25000000  1.0
  Ni  Ni396  1  0.14061067  0.08849867  0.22394400  1.0
  Ni  Ni397  1  0.14061067  0.42183200  0.22394400  1.0
  Ni  Ni398  1  0.14061067  0.75516533  0.22394400  1.0
  Ni  Ni399  1  0.47394400  0.08849867  0.22394400  1.0
  Ni  Ni400  1  0.47394400  0.42183200  0.22394400  1.0
  Ni  Ni401  1  0.47394400  0.75516533  0.22394400  1.0
  Ni  Ni402  1  0.80727733  0.08849867  0.22394400  1.0
  Ni  Ni403  1  0.80727733  0.42183200  0.22394400  1.0
  Ni  Ni404  1  0.80727733  0.75516533  0.22394400  1.0
  Ni  Ni405  1  0.30727733  0.25516533  0.27949956  1.0
  Ni  Ni406  1  0.30727733  0.58849867  0.27949956  1.0
  Ni  Ni407  1  0.30727733  0.92183200  0.27949956  1.0
  Ni  Ni408  1  0.64061067  0.25516533  0.27949956  1.0
  Ni  Ni409  1  0.64061067  0.58849867  0.27949956  1.0
  Ni  Ni410  1  0.64061067  0.92183200  0.27949956  1.0
  Ni  Ni411  1  0.97394400  0.25516533  0.27949956  1.0
  Ni  Ni412  1  0.97394400  0.58849867  0.27949956  1.0
  Ni  Ni413  1  0.97394400  0.92183200  0.27949956  1.0
  Ni  Ni414  1  0.14061067  0.24483467  0.27605600  1.0
  Ni  Ni415  1  0.14061067  0.57816800  0.27605600  1.0
  Ni  Ni416  1  0.14061067  0.91150133  0.27605600  1.0
  Ni  Ni417  1  0.47394400  0.24483467  0.27605600  1.0
  Ni  Ni418  1  0.47394400  0.57816800  0.27605600  1.0
  Ni  Ni419  1  0.47394400  0.91150133  0.27605600  1.0
  Ni  Ni420  1  0.80727733  0.24483467  0.27605600  1.0
  Ni  Ni421  1  0.80727733  0.57816800  0.27605600  1.0
  Ni  Ni422  1  0.80727733  0.91150133  0.27605600  1.0
  Ni  Ni423  1  0.30727733  0.07816800  0.33161156  1.0
  Ni  Ni424  1  0.30727733  0.41150133  0.33161156  1.0
  Ni  Ni425  1  0.30727733  0.74483467  0.33161156  1.0
  Ni  Ni426  1  0.64061067  0.07816800  0.33161156  1.0
  Ni  Ni427  1  0.64061067  0.41150133  0.33161156  1.0
  Ni  Ni428  1  0.64061067  0.74483467  0.33161156  1.0
  Ni  Ni429  1  0.97394400  0.07816800  0.33161156  1.0
  Ni  Ni430  1  0.97394400  0.41150133  0.33161156  1.0
  Ni  Ni431  1  0.97394400  0.74483467  0.33161156  1.0
  In  In432  1  0.11111111  0.00000000  0.36111111  1.0
  In  In433  1  0.11111111  0.33333333  0.36111111  1.0
  In  In434  1  0.11111111  0.66666667  0.36111111  1.0
  In  In435  1  0.44444444  0.00000000  0.36111111  1.0
  In  In436  1  0.44444444  0.33333333  0.36111111  1.0
  In  In437  1  0.44444444  0.66666667  0.36111111  1.0
  In  In438  1  0.77777778  0.00000000  0.36111111  1.0
  In  In439  1  0.77777778  0.33333333  0.36111111  1.0
  In  In440  1  0.77777778  0.66666667  0.36111111  1.0
  In  In441  1  0.27777778  0.16666667  0.41666667  1.0
  In  In442  1  0.27777778  0.50000000  0.41666667  1.0
  In  In443  1  0.27777778  0.83333333  0.41666667  1.0
  In  In444  1  0.61111111  0.16666667  0.41666667  1.0
  In  In445  1  0.61111111  0.50000000  0.41666667  1.0
  In  In446  1  0.61111111  0.83333333  0.41666667  1.0
  In  In447  1  0.94444444  0.16666667  0.41666667  1.0
  In  In448  1  0.94444444  0.50000000  0.41666667  1.0
  In  In449  1  0.94444444  0.83333333  0.41666667  1.0
  In  In450  1  0.05555556  0.16666667  0.36111111  1.0
  In  In451  1  0.05555556  0.50000000  0.36111111  1.0
  In  In452  1  0.05555556  0.83333333  0.36111111  1.0
  In  In453  1  0.38888889  0.16666667  0.36111111  1.0
  In  In454  1  0.38888889  0.50000000  0.36111111  1.0
  In  In455  1  0.38888889  0.83333333  0.36111111  1.0
  In  In456  1  0.72222222  0.16666667  0.36111111  1.0
  In  In457  1  0.72222222  0.50000000  0.36111111  1.0
  In  In458  1  0.72222222  0.83333333  0.36111111  1.0
  In  In459  1  0.22222222  0.00000000  0.41666667  1.0
  In  In460  1  0.22222222  0.33333333  0.41666667  1.0
  In  In461  1  0.22222222  0.66666667  0.41666667  1.0
  In  In462  1  0.55555556  0.00000000  0.41666667  1.0
  In  In463  1  0.55555556  0.33333333  0.41666667  1.0
  In  In464  1  0.55555556  0.66666667  0.41666667  1.0
  In  In465  1  0.88888889  0.00000000  0.41666667  1.0
  In  In466  1  0.88888889  0.33333333  0.41666667  1.0
  In  In467  1  0.88888889  0.66666667  0.41666667  1.0
  Ni  Ni468  1  0.11455467  0.16666667  0.41666667  1.0
  Ni  Ni469  1  0.11455467  0.50000000  0.41666667  1.0
  Ni  Ni470  1  0.11455467  0.83333333  0.41666667  1.0
  Ni  Ni471  1  0.44788800  0.16666667  0.41666667  1.0
  Ni  Ni472  1  0.44788800  0.50000000  0.41666667  1.0
  Ni  Ni473  1  0.44788800  0.83333333  0.41666667  1.0
  Ni  Ni474  1  0.78122133  0.16666667  0.41666667  1.0
  Ni  Ni475  1  0.78122133  0.50000000  0.41666667  1.0
  Ni  Ni476  1  0.78122133  0.83333333  0.41666667  1.0
  Ni  Ni477  1  0.28122133  0.00000000  0.36111111  1.0
  Ni  Ni478  1  0.28122133  0.33333333  0.36111111  1.0
  Ni  Ni479  1  0.28122133  0.66666667  0.36111111  1.0
  Ni  Ni480  1  0.61455467  0.00000000  0.36111111  1.0
  Ni  Ni481  1  0.61455467  0.33333333  0.36111111  1.0
  Ni  Ni482  1  0.61455467  0.66666667  0.36111111  1.0
  Ni  Ni483  1  0.94788800  0.00000000  0.36111111  1.0
  Ni  Ni484  1  0.94788800  0.33333333  0.36111111  1.0
  Ni  Ni485  1  0.94788800  0.66666667  0.36111111  1.0
  Ni  Ni486  1  0.02605600  0.07816800  0.38716711  1.0
  Ni  Ni487  1  0.02605600  0.41150133  0.38716711  1.0
  Ni  Ni488  1  0.02605600  0.74483467  0.38716711  1.0
  Ni  Ni489  1  0.35938933  0.07816800  0.38716711  1.0
  Ni  Ni490  1  0.35938933  0.41150133  0.38716711  1.0
  Ni  Ni491  1  0.35938933  0.74483467  0.38716711  1.0
  Ni  Ni492  1  0.69272267  0.07816800  0.38716711  1.0
  Ni  Ni493  1  0.69272267  0.41150133  0.38716711  1.0
  Ni  Ni494  1  0.69272267  0.74483467  0.38716711  1.0
  Ni  Ni495  1  0.19272267  0.24483467  0.44272267  1.0
  Ni  Ni496  1  0.19272267  0.57816800  0.44272267  1.0
  Ni  Ni497  1  0.19272267  0.91150133  0.44272267  1.0
  Ni  Ni498  1  0.52605600  0.24483467  0.44272267  1.0
  Ni  Ni499  1  0.52605600  0.57816800  0.44272267  1.0
  Ni  Ni500  1  0.52605600  0.91150133  0.44272267  1.0
  Ni  Ni501  1  0.85938933  0.24483467  0.44272267  1.0
  Ni  Ni502  1  0.85938933  0.57816800  0.44272267  1.0
  Ni  Ni503  1  0.85938933  0.91150133  0.44272267  1.0
  Ni  Ni504  1  0.02605600  0.25516533  0.33505511  1.0
  Ni  Ni505  1  0.02605600  0.58849867  0.33505511  1.0
  Ni  Ni506  1  0.02605600  0.92183200  0.33505511  1.0
  Ni  Ni507  1  0.35938933  0.25516533  0.33505511  1.0
  Ni  Ni508  1  0.35938933  0.58849867  0.33505511  1.0
  Ni  Ni509  1  0.35938933  0.92183200  0.33505511  1.0
  Ni  Ni510  1  0.69272267  0.25516533  0.33505511  1.0
  Ni  Ni511  1  0.69272267  0.58849867  0.33505511  1.0
  Ni  Ni512  1  0.69272267  0.92183200  0.33505511  1.0
  Ni  Ni513  1  0.19272267  0.08849867  0.39061067  1.0
  Ni  Ni514  1  0.19272267  0.42183200  0.39061067  1.0
  Ni  Ni515  1  0.19272267  0.75516533  0.39061067  1.0
  Ni  Ni516  1  0.52605600  0.08849867  0.39061067  1.0
  Ni  Ni517  1  0.52605600  0.42183200  0.39061067  1.0
  Ni  Ni518  1  0.52605600  0.75516533  0.39061067  1.0
  Ni  Ni519  1  0.85938933  0.08849867  0.39061067  1.0
  Ni  Ni520  1  0.85938933  0.42183200  0.39061067  1.0
  Ni  Ni521  1  0.85938933  0.75516533  0.39061067  1.0
  Ni  Ni522  1  0.05211200  0.00000000  0.41666667  1.0
  Ni  Ni523  1  0.05211200  0.33333333  0.41666667  1.0
  Ni  Ni524  1  0.05211200  0.66666667  0.41666667  1.0
  Ni  Ni525  1  0.38544533  0.00000000  0.41666667  1.0
  Ni  Ni526  1  0.38544533  0.33333333  0.41666667  1.0
  Ni  Ni527  1  0.38544533  0.66666667  0.41666667  1.0
  Ni  Ni528  1  0.71877867  0.00000000  0.41666667  1.0
  Ni  Ni529  1  0.71877867  0.33333333  0.41666667  1.0
  Ni  Ni530  1  0.71877867  0.66666667  0.41666667  1.0
  Ni  Ni531  1  0.21877867  0.16666667  0.36111111  1.0
  Ni  Ni532  1  0.21877867  0.50000000  0.36111111  1.0
  Ni  Ni533  1  0.21877867  0.83333333  0.36111111  1.0
  Ni  Ni534  1  0.55211200  0.16666667  0.36111111  1.0
  Ni  Ni535  1  0.55211200  0.50000000  0.36111111  1.0
  Ni  Ni536  1  0.55211200  0.83333333  0.36111111  1.0
  Ni  Ni537  1  0.88544533  0.16666667  0.36111111  1.0
  Ni  Ni538  1  0.88544533  0.50000000  0.36111111  1.0
  Ni  Ni539  1  0.88544533  0.83333333  0.36111111  1.0
  Ni  Ni540  1  0.14061067  0.08849867  0.33505511  1.0
  Ni  Ni541  1  0.14061067  0.42183200  0.33505511  1.0
  Ni  Ni542  1  0.14061067  0.75516533  0.33505511  1.0
  Ni  Ni543  1  0.47394400  0.08849867  0.33505511  1.0
  Ni  Ni544  1  0.47394400  0.42183200  0.33505511  1.0
  Ni  Ni545  1  0.47394400  0.75516533  0.33505511  1.0
  Ni  Ni546  1  0.80727733  0.08849867  0.33505511  1.0
  Ni  Ni547  1  0.80727733  0.42183200  0.33505511  1.0
  Ni  Ni548  1  0.80727733  0.75516533  0.33505511  1.0
  Ni  Ni549  1  0.30727733  0.25516533  0.39061067  1.0
  Ni  Ni550  1  0.30727733  0.58849867  0.39061067  1.0
  Ni  Ni551  1  0.30727733  0.92183200  0.39061067  1.0
  Ni  Ni552  1  0.64061067  0.25516533  0.39061067  1.0
  Ni  Ni553  1  0.64061067  0.58849867  0.39061067  1.0
  Ni  Ni554  1  0.64061067  0.92183200  0.39061067  1.0
  Ni  Ni555  1  0.97394400  0.25516533  0.39061067  1.0
  Ni  Ni556  1  0.97394400  0.58849867  0.39061067  1.0
  Ni  Ni557  1  0.97394400  0.92183200  0.39061067  1.0
  Ni  Ni558  1  0.14061067  0.24483467  0.38716711  1.0
  Ni  Ni559  1  0.14061067  0.57816800  0.38716711  1.0
  Ni  Ni560  1  0.14061067  0.91150133  0.38716711  1.0
  Ni  Ni561  1  0.47394400  0.24483467  0.38716711  1.0
  Ni  Ni562  1  0.47394400  0.57816800  0.38716711  1.0
  Ni  Ni563  1  0.47394400  0.91150133  0.38716711  1.0
  Ni  Ni564  1  0.80727733  0.24483467  0.38716711  1.0
  Ni  Ni565  1  0.80727733  0.57816800  0.38716711  1.0
  Ni  Ni566  1  0.80727733  0.91150133  0.38716711  1.0
  Ni  Ni567  1  0.30727733  0.07816800  0.44272267  1.0
  Ni  Ni568  1  0.30727733  0.41150133  0.44272267  1.0
  Ni  Ni569  1  0.30727733  0.74483467  0.44272267  1.0
  Ni  Ni570  1  0.64061067  0.07816800  0.44272267  1.0
  Ni  Ni571  1  0.64061067  0.41150133  0.44272267  1.0
  Ni  Ni572  1  0.64061067  0.74483467  0.44272267  1.0
  Ni  Ni573  1  0.97394400  0.07816800  0.44272267  1.0
  Ni  Ni574  1  0.97394400  0.41150133  0.44272267  1.0
  Ni  Ni575  1  0.97394400  0.74483467  0.44272267  1.0
