# generated using pymatgen
data_InNi3
_symmetry_space_group_name_H-M   'P 1'
_cell_length_a   27.81251138
_cell_length_b   20.43180847
_cell_length_c   50.53530000
_cell_angle_alpha   51.80491310
_cell_angle_beta   90.00000000
_cell_angle_gamma   47.10804890
_symmetry_Int_Tables_number   1
_chemical_formula_structural   InNi3
_chemical_formula_sum   'In90 Ni270'
_cell_volume   11284.56018442
_cell_formula_units_Z   90
loop_
 _symmetry_equiv_pos_site_id
 _symmetry_equiv_pos_as_xyz
  1  'x, y, z'
loop_
 _atom_site_type_symbol
 _atom_site_label
 _atom_site_symmetry_multiplicity
 _atom_site_fract_x
 _atom_site_fract_y
 _atom_site_fract_z
 _atom_site_occupancy
  In  In0  1  0.11111111  0.00000000  0.02212467  1.0
  In  In1  1  0.11111111  0.33333333  0.02212467  1.0
  In  In2  1  0.11111111  0.66666667  0.02212467  1.0
  In  In3  1  0.44444444  0.00000000  0.02212467  1.0
  In  In4  1  0.44444444  0.33333333  0.02212467  1.0
  In  In5  1  0.44444444  0.66666667  0.02212467  1.0
  In  In6  1  0.77777778  0.00000000  0.02212467  1.0
  In  In7  1  0.77777778  0.33333333  0.02212467  1.0
  In  In8  1  0.77777778  0.66666667  0.02212467  1.0
  In  In9  1  0.22222222  0.00000000  0.06379133  1.0
  In  In10  1  0.22222222  0.33333333  0.06379133  1.0
  In  In11  1  0.22222222  0.66666667  0.06379133  1.0
  In  In12  1  0.55555556  0.00000000  0.06379133  1.0
  In  In13  1  0.55555556  0.33333333  0.06379133  1.0
  In  In14  1  0.55555556  0.66666667  0.06379133  1.0
  In  In15  1  0.88888889  0.00000000  0.06379133  1.0
  In  In16  1  0.88888889  0.33333333  0.06379133  1.0
  In  In17  1  0.88888889  0.66666667  0.06379133  1.0
  Ni  Ni18  1  0.10422400  0.17699733  0.06120867  1.0
  Ni  Ni19  1  0.10422400  0.51033067  0.06120867  1.0
  Ni  Ni20  1  0.10422400  0.84366400  0.06120867  1.0
  Ni  Ni21  1  0.43755733  0.17699733  0.06120867  1.0
  Ni  Ni22  1  0.43755733  0.51033067  0.06120867  1.0
  Ni  Ni23  1  0.43755733  0.84366400  0.06120867  1.0
  Ni  Ni24  1  0.77089067  0.17699733  0.06120867  1.0
  Ni  Ni25  1  0.77089067  0.51033067  0.06120867  1.0
  Ni  Ni26  1  0.77089067  0.84366400  0.06120867  1.0
  Ni  Ni27  1  0.28122133  0.15633600  0.06637400  1.0
  Ni  Ni28  1  0.28122133  0.48966933  0.06637400  1.0
  Ni  Ni29  1  0.28122133  0.82300267  0.06637400  1.0
  Ni  Ni30  1  0.61455467  0.15633600  0.06637400  1.0
  Ni  Ni31  1  0.61455467  0.48966933  0.06637400  1.0
  Ni  Ni32  1  0.61455467  0.82300267  0.06637400  1.0
  Ni  Ni33  1  0.94788800  0.15633600  0.06637400  1.0
  Ni  Ni34  1  0.94788800  0.48966933  0.06637400  1.0
  Ni  Ni35  1  0.94788800  0.82300267  0.06637400  1.0
  Ni  Ni36  1  0.28122133  0.00000000  0.02212467  1.0
  Ni  Ni37  1  0.28122133  0.33333333  0.02212467  1.0
  Ni  Ni38  1  0.28122133  0.66666667  0.02212467  1.0
  Ni  Ni39  1  0.61455467  0.00000000  0.02212467  1.0
  Ni  Ni40  1  0.61455467  0.33333333  0.02212467  1.0
  Ni  Ni41  1  0.61455467  0.66666667  0.02212467  1.0
  Ni  Ni42  1  0.94788800  0.00000000  0.02212467  1.0
  Ni  Ni43  1  0.94788800  0.33333333  0.02212467  1.0
  Ni  Ni44  1  0.94788800  0.66666667  0.02212467  1.0
  Ni  Ni45  1  0.22910933  0.15633600  0.02470733  1.0
  Ni  Ni46  1  0.22910933  0.48966933  0.02470733  1.0
  Ni  Ni47  1  0.22910933  0.82300267  0.02470733  1.0
  Ni  Ni48  1  0.56244267  0.15633600  0.02470733  1.0
  Ni  Ni49  1  0.56244267  0.48966933  0.02470733  1.0
  Ni  Ni50  1  0.56244267  0.82300267  0.02470733  1.0
  Ni  Ni51  1  0.89577600  0.15633600  0.02470733  1.0
  Ni  Ni52  1  0.89577600  0.48966933  0.02470733  1.0
  Ni  Ni53  1  0.89577600  0.82300267  0.02470733  1.0
  Ni  Ni54  1  0.05211200  0.17699733  0.01954200  1.0
  Ni  Ni55  1  0.05211200  0.51033067  0.01954200  1.0
  Ni  Ni56  1  0.05211200  0.84366400  0.01954200  1.0
  Ni  Ni57  1  0.38544533  0.17699733  0.01954200  1.0
  Ni  Ni58  1  0.38544533  0.51033067  0.01954200  1.0
  Ni  Ni59  1  0.38544533  0.84366400  0.01954200  1.0
  Ni  Ni60  1  0.71877867  0.17699733  0.01954200  1.0
  Ni  Ni61  1  0.71877867  0.51033067  0.01954200  1.0
  Ni  Ni62  1  0.71877867  0.84366400  0.01954200  1.0
  Ni  Ni63  1  0.05211200  0.00000000  0.06379133  1.0
  Ni  Ni64  1  0.05211200  0.33333333  0.06379133  1.0
  Ni  Ni65  1  0.05211200  0.66666667  0.06379133  1.0
  Ni  Ni66  1  0.38544533  0.00000000  0.06379133  1.0
  Ni  Ni67  1  0.38544533  0.33333333  0.06379133  1.0
  Ni  Ni68  1  0.38544533  0.66666667  0.06379133  1.0
  Ni  Ni69  1  0.71877867  0.00000000  0.06379133  1.0
  Ni  Ni70  1  0.71877867  0.33333333  0.06379133  1.0
  Ni  Ni71  1  0.71877867  0.66666667  0.06379133  1.0
  In  In72  1  0.11111111  0.00000000  0.10545800  1.0
  In  In73  1  0.11111111  0.33333333  0.10545800  1.0
  In  In74  1  0.11111111  0.66666667  0.10545800  1.0
  In  In75  1  0.44444444  0.00000000  0.10545800  1.0
  In  In76  1  0.44444444  0.33333333  0.10545800  1.0
  In  In77  1  0.44444444  0.66666667  0.10545800  1.0
  In  In78  1  0.77777778  0.00000000  0.10545800  1.0
  In  In79  1  0.77777778  0.33333333  0.10545800  1.0
  In  In80  1  0.77777778  0.66666667  0.10545800  1.0
  In  In81  1  0.22222222  0.00000000  0.14712467  1.0
  In  In82  1  0.22222222  0.33333333  0.14712467  1.0
  In  In83  1  0.22222222  0.66666667  0.14712467  1.0
  In  In84  1  0.55555556  0.00000000  0.14712467  1.0
  In  In85  1  0.55555556  0.33333333  0.14712467  1.0
  In  In86  1  0.55555556  0.66666667  0.14712467  1.0
  In  In87  1  0.88888889  0.00000000  0.14712467  1.0
  In  In88  1  0.88888889  0.33333333  0.14712467  1.0
  In  In89  1  0.88888889  0.66666667  0.14712467  1.0
  Ni  Ni90  1  0.10422400  0.17699733  0.14454200  1.0
  Ni  Ni91  1  0.10422400  0.51033067  0.14454200  1.0
  Ni  Ni92  1  0.10422400  0.84366400  0.14454200  1.0
  Ni  Ni93  1  0.43755733  0.17699733  0.14454200  1.0
  Ni  Ni94  1  0.43755733  0.51033067  0.14454200  1.0
  Ni  Ni95  1  0.43755733  0.84366400  0.14454200  1.0
  Ni  Ni96  1  0.77089067  0.17699733  0.14454200  1.0
  Ni  Ni97  1  0.77089067  0.51033067  0.14454200  1.0
  Ni  Ni98  1  0.77089067  0.84366400  0.14454200  1.0
  Ni  Ni99  1  0.28122133  0.15633600  0.14970733  1.0
  Ni  Ni100  1  0.28122133  0.48966933  0.14970733  1.0
  Ni  Ni101  1  0.28122133  0.82300267  0.14970733  1.0
  Ni  Ni102  1  0.61455467  0.15633600  0.14970733  1.0
  Ni  Ni103  1  0.61455467  0.48966933  0.14970733  1.0
  Ni  Ni104  1  0.61455467  0.82300267  0.14970733  1.0
  Ni  Ni105  1  0.94788800  0.15633600  0.14970733  1.0
  Ni  Ni106  1  0.94788800  0.48966933  0.14970733  1.0
  Ni  Ni107  1  0.94788800  0.82300267  0.14970733  1.0
  Ni  Ni108  1  0.28122133  0.00000000  0.10545800  1.0
  Ni  Ni109  1  0.28122133  0.33333333  0.10545800  1.0
  Ni  Ni110  1  0.28122133  0.66666667  0.10545800  1.0
  Ni  Ni111  1  0.61455467  0.00000000  0.10545800  1.0
  Ni  Ni112  1  0.61455467  0.33333333  0.10545800  1.0
  Ni  Ni113  1  0.61455467  0.66666667  0.10545800  1.0
  Ni  Ni114  1  0.94788800  0.00000000  0.10545800  1.0
  Ni  Ni115  1  0.94788800  0.33333333  0.10545800  1.0
  Ni  Ni116  1  0.94788800  0.66666667  0.10545800  1.0
  Ni  Ni117  1  0.22910933  0.15633600  0.10804067  1.0
  Ni  Ni118  1  0.22910933  0.48966933  0.10804067  1.0
  Ni  Ni119  1  0.22910933  0.82300267  0.10804067  1.0
  Ni  Ni120  1  0.56244267  0.15633600  0.10804067  1.0
  Ni  Ni121  1  0.56244267  0.48966933  0.10804067  1.0
  Ni  Ni122  1  0.56244267  0.82300267  0.10804067  1.0
  Ni  Ni123  1  0.89577600  0.15633600  0.10804067  1.0
  Ni  Ni124  1  0.89577600  0.48966933  0.10804067  1.0
  Ni  Ni125  1  0.89577600  0.82300267  0.10804067  1.0
  Ni  Ni126  1  0.05211200  0.17699733  0.10287533  1.0
  Ni  Ni127  1  0.05211200  0.51033067  0.10287533  1.0
  Ni  Ni128  1  0.05211200  0.84366400  0.10287533  1.0
  Ni  Ni129  1  0.38544533  0.17699733  0.10287533  1.0
  Ni  Ni130  1  0.38544533  0.51033067  0.10287533  1.0
  Ni  Ni131  1  0.38544533  0.84366400  0.10287533  1.0
  Ni  Ni132  1  0.71877867  0.17699733  0.10287533  1.0
  Ni  Ni133  1  0.71877867  0.51033067  0.10287533  1.0
  Ni  Ni134  1  0.71877867  0.84366400  0.10287533  1.0
  Ni  Ni135  1  0.05211200  0.00000000  0.14712467  1.0
  Ni  Ni136  1  0.05211200  0.33333333  0.14712467  1.0
  Ni  Ni137  1  0.05211200  0.66666667  0.14712467  1.0
  Ni  Ni138  1  0.38544533  0.00000000  0.14712467  1.0
  Ni  Ni139  1  0.38544533  0.33333333  0.14712467  1.0
  Ni  Ni140  1  0.38544533  0.66666667  0.14712467  1.0
  Ni  Ni141  1  0.71877867  0.00000000  0.14712467  1.0
  Ni  Ni142  1  0.71877867  0.33333333  0.14712467  1.0
  Ni  Ni143  1  0.71877867  0.66666667  0.14712467  1.0
  In  In144  1  0.11111111  0.00000000  0.18879133  1.0
  In  In145  1  0.11111111  0.33333333  0.18879133  1.0
  In  In146  1  0.11111111  0.66666667  0.18879133  1.0
  In  In147  1  0.44444444  0.00000000  0.18879133  1.0
  In  In148  1  0.44444444  0.33333333  0.18879133  1.0
  In  In149  1  0.44444444  0.66666667  0.18879133  1.0
  In  In150  1  0.77777778  0.00000000  0.18879133  1.0
  In  In151  1  0.77777778  0.33333333  0.18879133  1.0
  In  In152  1  0.77777778  0.66666667  0.18879133  1.0
  In  In153  1  0.22222222  0.00000000  0.23045800  1.0
  In  In154  1  0.22222222  0.33333333  0.23045800  1.0
  In  In155  1  0.22222222  0.66666667  0.23045800  1.0
  In  In156  1  0.55555556  0.00000000  0.23045800  1.0
  In  In157  1  0.55555556  0.33333333  0.23045800  1.0
  In  In158  1  0.55555556  0.66666667  0.23045800  1.0
  In  In159  1  0.88888889  0.00000000  0.23045800  1.0
  In  In160  1  0.88888889  0.33333333  0.23045800  1.0
  In  In161  1  0.88888889  0.66666667  0.23045800  1.0
  Ni  Ni162  1  0.10422400  0.17699733  0.22787533  1.0
  Ni  Ni163  1  0.10422400  0.51033067  0.22787533  1.0
  Ni  Ni164  1  0.10422400  0.84366400  0.22787533  1.0
  Ni  Ni165  1  0.43755733  0.17699733  0.22787533  1.0
  Ni  Ni166  1  0.43755733  0.51033067  0.22787533  1.0
  Ni  Ni167  1  0.43755733  0.84366400  0.22787533  1.0
  Ni  Ni168  1  0.77089067  0.17699733  0.22787533  1.0
  Ni  Ni169  1  0.77089067  0.51033067  0.22787533  1.0
  Ni  Ni170  1  0.77089067  0.84366400  0.22787533  1.0
  Ni  Ni171  1  0.28122133  0.15633600  0.23304067  1.0
  Ni  Ni172  1  0.28122133  0.48966933  0.23304067  1.0
  Ni  Ni173  1  0.28122133  0.82300267  0.23304067  1.0
  Ni  Ni174  1  0.61455467  0.15633600  0.23304067  1.0
  Ni  Ni175  1  0.61455467  0.48966933  0.23304067  1.0
  Ni  Ni176  1  0.61455467  0.82300267  0.23304067  1.0
  Ni  Ni177  1  0.94788800  0.15633600  0.23304067  1.0
  Ni  Ni178  1  0.94788800  0.48966933  0.23304067  1.0
  Ni  Ni179  1  0.94788800  0.82300267  0.23304067  1.0
  Ni  Ni180  1  0.28122133  0.00000000  0.18879133  1.0
  Ni  Ni181  1  0.28122133  0.33333333  0.18879133  1.0
  Ni  Ni182  1  0.28122133  0.66666667  0.18879133  1.0
  Ni  Ni183  1  0.61455467  0.00000000  0.18879133  1.0
  Ni  Ni184  1  0.61455467  0.33333333  0.18879133  1.0
  Ni  Ni185  1  0.61455467  0.66666667  0.18879133  1.0
  Ni  Ni186  1  0.94788800  0.00000000  0.18879133  1.0
  Ni  Ni187  1  0.94788800  0.33333333  0.18879133  1.0
  Ni  Ni188  1  0.94788800  0.66666667  0.18879133  1.0
  Ni  Ni189  1  0.22910933  0.15633600  0.19137400  1.0
  Ni  Ni190  1  0.22910933  0.48966933  0.19137400  1.0
  Ni  Ni191  1  0.22910933  0.82300267  0.19137400  1.0
  Ni  Ni192  1  0.56244267  0.15633600  0.19137400  1.0
  Ni  Ni193  1  0.56244267  0.48966933  0.19137400  1.0
  Ni  Ni194  1  0.56244267  0.82300267  0.19137400  1.0
  Ni  Ni195  1  0.89577600  0.15633600  0.19137400  1.0
  Ni  Ni196  1  0.89577600  0.48966933  0.19137400  1.0
  Ni  Ni197  1  0.89577600  0.82300267  0.19137400  1.0
  Ni  Ni198  1  0.05211200  0.17699733  0.18620867  1.0
  Ni  Ni199  1  0.05211200  0.51033067  0.18620867  1.0
  Ni  Ni200  1  0.05211200  0.84366400  0.18620867  1.0
  Ni  Ni201  1  0.38544533  0.17699733  0.18620867  1.0
  Ni  Ni202  1  0.38544533  0.51033067  0.18620867  1.0
  Ni  Ni203  1  0.38544533  0.84366400  0.18620867  1.0
  Ni  Ni204  1  0.71877867  0.17699733  0.18620867  1.0
  Ni  Ni205  1  0.71877867  0.51033067  0.18620867  1.0
  Ni  Ni206  1  0.71877867  0.84366400  0.18620867  1.0
  Ni  Ni207  1  0.05211200  0.00000000  0.23045800  1.0
  Ni  Ni208  1  0.05211200  0.33333333  0.23045800  1.0
  Ni  Ni209  1  0.05211200  0.66666667  0.23045800  1.0
  Ni  Ni210  1  0.38544533  0.00000000  0.23045800  1.0
  Ni  Ni211  1  0.38544533  0.33333333  0.23045800  1.0
  Ni  Ni212  1  0.38544533  0.66666667  0.23045800  1.0
  Ni  Ni213  1  0.71877867  0.00000000  0.23045800  1.0
  Ni  Ni214  1  0.71877867  0.33333333  0.23045800  1.0
  Ni  Ni215  1  0.71877867  0.66666667  0.23045800  1.0
  In  In216  1  0.11111111  0.00000000  0.27212467  1.0
  In  In217  1  0.11111111  0.33333333  0.27212467  1.0
  In  In218  1  0.11111111  0.66666667  0.27212467  1.0
  In  In219  1  0.44444444  0.00000000  0.27212467  1.0
  In  In220  1  0.44444444  0.33333333  0.27212467  1.0
  In  In221  1  0.44444444  0.66666667  0.27212467  1.0
  In  In222  1  0.77777778  0.00000000  0.27212467  1.0
  In  In223  1  0.77777778  0.33333333  0.27212467  1.0
  In  In224  1  0.77777778  0.66666667  0.27212467  1.0
  In  In225  1  0.22222222  0.00000000  0.31379133  1.0
  In  In226  1  0.22222222  0.33333333  0.31379133  1.0
  In  In227  1  0.22222222  0.66666667  0.31379133  1.0
  In  In228  1  0.55555556  0.00000000  0.31379133  1.0
  In  In229  1  0.55555556  0.33333333  0.31379133  1.0
  In  In230  1  0.55555556  0.66666667  0.31379133  1.0
  In  In231  1  0.88888889  0.00000000  0.31379133  1.0
  In  In232  1  0.88888889  0.33333333  0.31379133  1.0
  In  In233  1  0.88888889  0.66666667  0.31379133  1.0
  Ni  Ni234  1  0.10422400  0.17699733  0.31120867  1.0
  Ni  Ni235  1  0.10422400  0.51033067  0.31120867  1.0
  Ni  Ni236  1  0.10422400  0.84366400  0.31120867  1.0
  Ni  Ni237  1  0.43755733  0.17699733  0.31120867  1.0
  Ni  Ni238  1  0.43755733  0.51033067  0.31120867  1.0
  Ni  Ni239  1  0.43755733  0.84366400  0.31120867  1.0
  Ni  Ni240  1  0.77089067  0.17699733  0.31120867  1.0
  Ni  Ni241  1  0.77089067  0.51033067  0.31120867  1.0
  Ni  Ni242  1  0.77089067  0.84366400  0.31120867  1.0
  Ni  Ni243  1  0.28122133  0.15633600  0.31637400  1.0
  Ni  Ni244  1  0.28122133  0.48966933  0.31637400  1.0
  Ni  Ni245  1  0.28122133  0.82300267  0.31637400  1.0
  Ni  Ni246  1  0.61455467  0.15633600  0.31637400  1.0
  Ni  Ni247  1  0.61455467  0.48966933  0.31637400  1.0
  Ni  Ni248  1  0.61455467  0.82300267  0.31637400  1.0
  Ni  Ni249  1  0.94788800  0.15633600  0.31637400  1.0
  Ni  Ni250  1  0.94788800  0.48966933  0.31637400  1.0
  Ni  Ni251  1  0.94788800  0.82300267  0.31637400  1.0
  Ni  Ni252  1  0.28122133  0.00000000  0.27212467  1.0
  Ni  Ni253  1  0.28122133  0.33333333  0.27212467  1.0
  Ni  Ni254  1  0.28122133  0.66666667  0.27212467  1.0
  Ni  Ni255  1  0.61455467  0.00000000  0.27212467  1.0
  Ni  Ni256  1  0.61455467  0.33333333  0.27212467  1.0
  Ni  Ni257  1  0.61455467  0.66666667  0.27212467  1.0
  Ni  Ni258  1  0.94788800  0.00000000  0.27212467  1.0
  Ni  Ni259  1  0.94788800  0.33333333  0.27212467  1.0
  Ni  Ni260  1  0.94788800  0.66666667  0.27212467  1.0
  Ni  Ni261  1  0.22910933  0.15633600  0.27470733  1.0
  Ni  Ni262  1  0.22910933  0.48966933  0.27470733  1.0
  Ni  Ni263  1  0.22910933  0.82300267  0.27470733  1.0
  Ni  Ni264  1  0.56244267  0.15633600  0.27470733  1.0
  Ni  Ni265  1  0.56244267  0.48966933  0.27470733  1.0
  Ni  Ni266  1  0.56244267  0.82300267  0.27470733  1.0
  Ni  Ni267  1  0.89577600  0.15633600  0.27470733  1.0
  Ni  Ni268  1  0.89577600  0.48966933  0.27470733  1.0
  Ni  Ni269  1  0.89577600  0.82300267  0.27470733  1.0
  Ni  Ni270  1  0.05211200  0.17699733  0.26954200  1.0
  Ni  Ni271  1  0.05211200  0.51033067  0.26954200  1.0
  Ni  Ni272  1  0.05211200  0.84366400  0.26954200  1.0
  Ni  Ni273  1  0.38544533  0.17699733  0.26954200  1.0
  Ni  Ni274  1  0.38544533  0.51033067  0.26954200  1.0
  Ni  Ni275  1  0.38544533  0.84366400  0.26954200  1.0
  Ni  Ni276  1  0.71877867  0.17699733  0.26954200  1.0
  Ni  Ni277  1  0.71877867  0.51033067  0.26954200  1.0
  Ni  Ni278  1  0.71877867  0.84366400  0.26954200  1.0
  Ni  Ni279  1  0.05211200  0.00000000  0.31379133  1.0
  Ni  Ni280  1  0.05211200  0.33333333  0.31379133  1.0
  Ni  Ni281  1  0.05211200  0.66666667  0.31379133  1.0
  Ni  Ni282  1  0.38544533  0.00000000  0.31379133  1.0
  Ni  Ni283  1  0.38544533  0.33333333  0.31379133  1.0
  Ni  Ni284  1  0.38544533  0.66666667  0.31379133  1.0
  Ni  Ni285  1  0.71877867  0.00000000  0.31379133  1.0
  Ni  Ni286  1  0.71877867  0.33333333  0.31379133  1.0
  Ni  Ni287  1  0.71877867  0.66666667  0.31379133  1.0
  In  In288  1  0.11111111  0.00000000  0.35545800  1.0
  In  In289  1  0.11111111  0.33333333  0.35545800  1.0
  In  In290  1  0.11111111  0.66666667  0.35545800  1.0
  In  In291  1  0.44444444  0.00000000  0.35545800  1.0
  In  In292  1  0.44444444  0.33333333  0.35545800  1.0
  In  In293  1  0.44444444  0.66666667  0.35545800  1.0
  In  In294  1  0.77777778  0.00000000  0.35545800  1.0
  In  In295  1  0.77777778  0.33333333  0.35545800  1.0
  In  In296  1  0.77777778  0.66666667  0.35545800  1.0
  In  In297  1  0.22222222  0.00000000  0.39712467  1.0
  In  In298  1  0.22222222  0.33333333  0.39712467  1.0
  In  In299  1  0.22222222  0.66666667  0.39712467  1.0
  In  In300  1  0.55555556  0.00000000  0.39712467  1.0
  In  In301  1  0.55555556  0.33333333  0.39712467  1.0
  In  In302  1  0.55555556  0.66666667  0.39712467  1.0
  In  In303  1  0.88888889  0.00000000  0.39712467  1.0
  In  In304  1  0.88888889  0.33333333  0.39712467  1.0
  In  In305  1  0.88888889  0.66666667  0.39712467  1.0
  Ni  Ni306  1  0.10422400  0.17699733  0.39454200  1.0
  Ni  Ni307  1  0.10422400  0.51033067  0.39454200  1.0
  Ni  Ni308  1  0.10422400  0.84366400  0.39454200  1.0
  Ni  Ni309  1  0.43755733  0.17699733  0.39454200  1.0
  Ni  Ni310  1  0.43755733  0.51033067  0.39454200  1.0
  Ni  Ni311  1  0.43755733  0.84366400  0.39454200  1.0
  Ni  Ni312  1  0.77089067  0.17699733  0.39454200  1.0
  Ni  Ni313  1  0.77089067  0.51033067  0.39454200  1.0
  Ni  Ni314  1  0.77089067  0.84366400  0.39454200  1.0
  Ni  Ni315  1  0.28122133  0.15633600  0.39970733  1.0
  Ni  Ni316  1  0.28122133  0.48966933  0.39970733  1.0
  Ni  Ni317  1  0.28122133  0.82300267  0.39970733  1.0
  Ni  Ni318  1  0.61455467  0.15633600  0.39970733  1.0
  Ni  Ni319  1  0.61455467  0.48966933  0.39970733  1.0
  Ni  Ni320  1  0.61455467  0.82300267  0.39970733  1.0
  Ni  Ni321  1  0.94788800  0.15633600  0.39970733  1.0
  Ni  Ni322  1  0.94788800  0.48966933  0.39970733  1.0
  Ni  Ni323  1  0.94788800  0.82300267  0.39970733  1.0
  Ni  Ni324  1  0.28122133  0.00000000  0.35545800  1.0
  Ni  Ni325  1  0.28122133  0.33333333  0.35545800  1.0
  Ni  Ni326  1  0.28122133  0.66666667  0.35545800  1.0
  Ni  Ni327  1  0.61455467  0.00000000  0.35545800  1.0
  Ni  Ni328  1  0.61455467  0.33333333  0.35545800  1.0
  Ni  Ni329  1  0.61455467  0.66666667  0.35545800  1.0
  Ni  Ni330  1  0.94788800  0.00000000  0.35545800  1.0
  Ni  Ni331  1  0.94788800  0.33333333  0.35545800  1.0
  Ni  Ni332  1  0.94788800  0.66666667  0.35545800  1.0
  Ni  Ni333  1  0.22910933  0.15633600  0.35804067  1.0
  Ni  Ni334  1  0.22910933  0.48966933  0.35804067  1.0
  Ni  Ni335  1  0.22910933  0.82300267  0.35804067  1.0
  Ni  Ni336  1  0.56244267  0.15633600  0.35804067  1.0
  Ni  Ni337  1  0.56244267  0.48966933  0.35804067  1.0
  Ni  Ni338  1  0.56244267  0.82300267  0.35804067  1.0
  Ni  Ni339  1  0.89577600  0.15633600  0.35804067  1.0
  Ni  Ni340  1  0.89577600  0.48966933  0.35804067  1.0
  Ni  Ni341  1  0.89577600  0.82300267  0.35804067  1.0
  Ni  Ni342  1  0.05211200  0.17699733  0.35287533  1.0
  Ni  Ni343  1  0.05211200  0.51033067  0.35287533  1.0
  Ni  Ni344  1  0.05211200  0.84366400  0.35287533  1.0
  Ni  Ni345  1  0.38544533  0.17699733  0.35287533  1.0
  Ni  Ni346  1  0.38544533  0.51033067  0.35287533  1.0
  Ni  Ni347  1  0.38544533  0.84366400  0.35287533  1.0
  Ni  Ni348  1  0.71877867  0.17699733  0.35287533  1.0
  Ni  Ni349  1  0.71877867  0.51033067  0.35287533  1.0
  Ni  Ni350  1  0.71877867  0.84366400  0.35287533  1.0
  Ni  Ni351  1  0.05211200  0.00000000  0.39712467  1.0
  Ni  Ni352  1  0.05211200  0.33333333  0.39712467  1.0
  Ni  Ni353  1  0.05211200  0.66666667  0.39712467  1.0
  Ni  Ni354  1  0.38544533  0.00000000  0.39712467  1.0
  Ni  Ni355  1  0.38544533  0.33333333  0.39712467  1.0
  Ni  Ni356  1  0.38544533  0.66666667  0.39712467  1.0
  Ni  Ni357  1  0.71877867  0.00000000  0.39712467  1.0
  Ni  Ni358  1  0.71877867  0.33333333  0.39712467  1.0
  Ni  Ni359  1  0.71877867  0.66666667  0.39712467  1.0
