# generated using pymatgen
data_InNi
_symmetry_space_group_name_H-M   'P 1'
_cell_length_a   20.54902937
_cell_length_b   30.37400987
_cell_length_c   29.23632604
_cell_angle_alpha   81.22820465
_cell_angle_beta   87.00886485
_cell_angle_gamma   71.00686657
_symmetry_Int_Tables_number   1
_chemical_formula_structural   InNi
_chemical_formula_sum   'In216 Ni216'
_cell_volume   17052.69288158
_cell_formula_units_Z   216
loop_
 _symmetry_equiv_pos_site_id
 _symmetry_equiv_pos_as_xyz
  1  'x, y, z'
loop_
 _atom_site_type_symbol
 _atom_site_label
 _atom_site_symmetry_multiplicity
 _atom_site_fract_x
 _atom_site_fract_y
 _atom_site_fract_z
 _atom_site_occupancy
  In  In0  1  0.03549383  0.10648148  0.10648148  1.0
  In  In1  1  0.03549383  0.43981481  0.10648148  1.0
  In  In2  1  0.03549383  0.77314815  0.10648148  1.0
  In  In3  1  0.36882716  0.10648148  0.10648148  1.0
  In  In4  1  0.36882716  0.43981481  0.10648148  1.0
  In  In5  1  0.36882716  0.77314815  0.10648148  1.0
  In  In6  1  0.70216049  0.10648148  0.10648148  1.0
  In  In7  1  0.70216049  0.43981481  0.10648148  1.0
  In  In8  1  0.70216049  0.77314815  0.10648148  1.0
  In  In9  1  0.18364198  0.21759259  0.05092593  1.0
  In  In10  1  0.18364198  0.55092593  0.05092593  1.0
  In  In11  1  0.18364198  0.88425926  0.05092593  1.0
  In  In12  1  0.51697531  0.21759259  0.05092593  1.0
  In  In13  1  0.51697531  0.55092593  0.05092593  1.0
  In  In14  1  0.51697531  0.88425926  0.05092593  1.0
  In  In15  1  0.85030864  0.21759259  0.05092593  1.0
  In  In16  1  0.85030864  0.55092593  0.05092593  1.0
  In  In17  1  0.85030864  0.88425926  0.05092593  1.0
  In  In18  1  0.00462963  0.23611111  0.09722222  1.0
  In  In19  1  0.00462963  0.56944444  0.09722222  1.0
  In  In20  1  0.00462963  0.90277778  0.09722222  1.0
  In  In21  1  0.33796296  0.23611111  0.09722222  1.0
  In  In22  1  0.33796296  0.56944444  0.09722222  1.0
  In  In23  1  0.33796296  0.90277778  0.09722222  1.0
  In  In24  1  0.67129630  0.23611111  0.09722222  1.0
  In  In25  1  0.67129630  0.56944444  0.09722222  1.0
  In  In26  1  0.67129630  0.90277778  0.09722222  1.0
  In  In27  1  0.15277778  0.01388889  0.04166667  1.0
  In  In28  1  0.15277778  0.34722222  0.04166667  1.0
  In  In29  1  0.15277778  0.68055556  0.04166667  1.0
  In  In30  1  0.48611111  0.01388889  0.04166667  1.0
  In  In31  1  0.48611111  0.34722222  0.04166667  1.0
  In  In32  1  0.48611111  0.68055556  0.04166667  1.0
  In  In33  1  0.81944444  0.01388889  0.04166667  1.0
  In  In34  1  0.81944444  0.34722222  0.04166667  1.0
  In  In35  1  0.81944444  0.68055556  0.04166667  1.0
  In  In36  1  0.02932099  0.19907407  0.00462963  1.0
  In  In37  1  0.02932099  0.53240741  0.00462963  1.0
  In  In38  1  0.02932099  0.86574074  0.00462963  1.0
  In  In39  1  0.36265432  0.19907407  0.00462963  1.0
  In  In40  1  0.36265432  0.53240741  0.00462963  1.0
  In  In41  1  0.36265432  0.86574074  0.00462963  1.0
  In  In42  1  0.69598765  0.19907407  0.00462963  1.0
  In  In43  1  0.69598765  0.53240741  0.00462963  1.0
  In  In44  1  0.69598765  0.86574074  0.00462963  1.0
  In  In45  1  0.21450617  0.08796296  0.06018519  1.0
  In  In46  1  0.21450617  0.42129630  0.06018519  1.0
  In  In47  1  0.21450617  0.75462963  0.06018519  1.0
  In  In48  1  0.54783951  0.08796296  0.06018519  1.0
  In  In49  1  0.54783951  0.42129630  0.06018519  1.0
  In  In50  1  0.54783951  0.75462963  0.06018519  1.0
  In  In51  1  0.88117284  0.08796296  0.06018519  1.0
  In  In52  1  0.88117284  0.42129630  0.06018519  1.0
  In  In53  1  0.88117284  0.75462963  0.06018519  1.0
  In  In54  1  0.07253086  0.21759259  0.21759259  1.0
  In  In55  1  0.07253086  0.55092593  0.21759259  1.0
  In  In56  1  0.07253086  0.88425926  0.21759259  1.0
  In  In57  1  0.40586420  0.21759259  0.21759259  1.0
  In  In58  1  0.40586420  0.55092593  0.21759259  1.0
  In  In59  1  0.40586420  0.88425926  0.21759259  1.0
  In  In60  1  0.73919753  0.21759259  0.21759259  1.0
  In  In61  1  0.73919753  0.55092593  0.21759259  1.0
  In  In62  1  0.73919753  0.88425926  0.21759259  1.0
  In  In63  1  0.22067901  0.32870370  0.16203704  1.0
  In  In64  1  0.22067901  0.66203704  0.16203704  1.0
  In  In65  1  0.22067901  0.99537037  0.16203704  1.0
  In  In66  1  0.55401235  0.32870370  0.16203704  1.0
  In  In67  1  0.55401235  0.66203704  0.16203704  1.0
  In  In68  1  0.55401235  0.99537037  0.16203704  1.0
  In  In69  1  0.88734568  0.32870370  0.16203704  1.0
  In  In70  1  0.88734568  0.66203704  0.16203704  1.0
  In  In71  1  0.88734568  0.99537037  0.16203704  1.0
  In  In72  1  0.04166667  0.01388889  0.20833333  1.0
  In  In73  1  0.04166667  0.34722222  0.20833333  1.0
  In  In74  1  0.04166667  0.68055556  0.20833333  1.0
  In  In75  1  0.37500000  0.01388889  0.20833333  1.0
  In  In76  1  0.37500000  0.34722222  0.20833333  1.0
  In  In77  1  0.37500000  0.68055556  0.20833333  1.0
  In  In78  1  0.70833333  0.01388889  0.20833333  1.0
  In  In79  1  0.70833333  0.34722222  0.20833333  1.0
  In  In80  1  0.70833333  0.68055556  0.20833333  1.0
  In  In81  1  0.18981481  0.12500000  0.15277778  1.0
  In  In82  1  0.18981481  0.45833333  0.15277778  1.0
  In  In83  1  0.18981481  0.79166667  0.15277778  1.0
  In  In84  1  0.52314815  0.12500000  0.15277778  1.0
  In  In85  1  0.52314815  0.45833333  0.15277778  1.0
  In  In86  1  0.52314815  0.79166667  0.15277778  1.0
  In  In87  1  0.85648148  0.12500000  0.15277778  1.0
  In  In88  1  0.85648148  0.45833333  0.15277778  1.0
  In  In89  1  0.85648148  0.79166667  0.15277778  1.0
  In  In90  1  0.06635802  0.31018519  0.11574074  1.0
  In  In91  1  0.06635802  0.64351852  0.11574074  1.0
  In  In92  1  0.06635802  0.97685185  0.11574074  1.0
  In  In93  1  0.39969136  0.31018519  0.11574074  1.0
  In  In94  1  0.39969136  0.64351852  0.11574074  1.0
  In  In95  1  0.39969136  0.97685185  0.11574074  1.0
  In  In96  1  0.73302469  0.31018519  0.11574074  1.0
  In  In97  1  0.73302469  0.64351852  0.11574074  1.0
  In  In98  1  0.73302469  0.97685185  0.11574074  1.0
  In  In99  1  0.25154321  0.19907407  0.17129630  1.0
  In  In100  1  0.25154321  0.53240741  0.17129630  1.0
  In  In101  1  0.25154321  0.86574074  0.17129630  1.0
  In  In102  1  0.58487654  0.19907407  0.17129630  1.0
  In  In103  1  0.58487654  0.53240741  0.17129630  1.0
  In  In104  1  0.58487654  0.86574074  0.17129630  1.0
  In  In105  1  0.91820988  0.19907407  0.17129630  1.0
  In  In106  1  0.91820988  0.53240741  0.17129630  1.0
  In  In107  1  0.91820988  0.86574074  0.17129630  1.0
  In  In108  1  0.10956790  0.32870370  0.32870370  1.0
  In  In109  1  0.10956790  0.66203704  0.32870370  1.0
  In  In110  1  0.10956790  0.99537037  0.32870370  1.0
  In  In111  1  0.44290123  0.32870370  0.32870370  1.0
  In  In112  1  0.44290123  0.66203704  0.32870370  1.0
  In  In113  1  0.44290123  0.99537037  0.32870370  1.0
  In  In114  1  0.77623457  0.32870370  0.32870370  1.0
  In  In115  1  0.77623457  0.66203704  0.32870370  1.0
  In  In116  1  0.77623457  0.99537037  0.32870370  1.0
  In  In117  1  0.25771605  0.10648148  0.27314815  1.0
  In  In118  1  0.25771605  0.43981481  0.27314815  1.0
  In  In119  1  0.25771605  0.77314815  0.27314815  1.0
  In  In120  1  0.59104938  0.10648148  0.27314815  1.0
  In  In121  1  0.59104938  0.43981481  0.27314815  1.0
  In  In122  1  0.59104938  0.77314815  0.27314815  1.0
  In  In123  1  0.92438272  0.10648148  0.27314815  1.0
  In  In124  1  0.92438272  0.43981481  0.27314815  1.0
  In  In125  1  0.92438272  0.77314815  0.27314815  1.0
  In  In126  1  0.07870370  0.12500000  0.31944444  1.0
  In  In127  1  0.07870370  0.45833333  0.31944444  1.0
  In  In128  1  0.07870370  0.79166667  0.31944444  1.0
  In  In129  1  0.41203704  0.12500000  0.31944444  1.0
  In  In130  1  0.41203704  0.45833333  0.31944444  1.0
  In  In131  1  0.41203704  0.79166667  0.31944444  1.0
  In  In132  1  0.74537037  0.12500000  0.31944444  1.0
  In  In133  1  0.74537037  0.45833333  0.31944444  1.0
  In  In134  1  0.74537037  0.79166667  0.31944444  1.0
  In  In135  1  0.22685185  0.23611111  0.26388889  1.0
  In  In136  1  0.22685185  0.56944444  0.26388889  1.0
  In  In137  1  0.22685185  0.90277778  0.26388889  1.0
  In  In138  1  0.56018519  0.23611111  0.26388889  1.0
  In  In139  1  0.56018519  0.56944444  0.26388889  1.0
  In  In140  1  0.56018519  0.90277778  0.26388889  1.0
  In  In141  1  0.89351852  0.23611111  0.26388889  1.0
  In  In142  1  0.89351852  0.56944444  0.26388889  1.0
  In  In143  1  0.89351852  0.90277778  0.26388889  1.0
  In  In144  1  0.10339506  0.08796296  0.22685185  1.0
  In  In145  1  0.10339506  0.42129630  0.22685185  1.0
  In  In146  1  0.10339506  0.75462963  0.22685185  1.0
  In  In147  1  0.43672840  0.08796296  0.22685185  1.0
  In  In148  1  0.43672840  0.42129630  0.22685185  1.0
  In  In149  1  0.43672840  0.75462963  0.22685185  1.0
  In  In150  1  0.77006173  0.08796296  0.22685185  1.0
  In  In151  1  0.77006173  0.42129630  0.22685185  1.0
  In  In152  1  0.77006173  0.75462963  0.22685185  1.0
  In  In153  1  0.28858025  0.31018519  0.28240741  1.0
  In  In154  1  0.28858025  0.64351852  0.28240741  1.0
  In  In155  1  0.28858025  0.97685185  0.28240741  1.0
  In  In156  1  0.62191358  0.31018519  0.28240741  1.0
  In  In157  1  0.62191358  0.64351852  0.28240741  1.0
  In  In158  1  0.62191358  0.97685185  0.28240741  1.0
  In  In159  1  0.95524691  0.31018519  0.28240741  1.0
  In  In160  1  0.95524691  0.64351852  0.28240741  1.0
  In  In161  1  0.95524691  0.97685185  0.28240741  1.0
  In  In162  1  0.14660494  0.10648148  0.43981481  1.0
  In  In163  1  0.14660494  0.43981481  0.43981481  1.0
  In  In164  1  0.14660494  0.77314815  0.43981481  1.0
  In  In165  1  0.47993827  0.10648148  0.43981481  1.0
  In  In166  1  0.47993827  0.43981481  0.43981481  1.0
  In  In167  1  0.47993827  0.77314815  0.43981481  1.0
  In  In168  1  0.81327160  0.10648148  0.43981481  1.0
  In  In169  1  0.81327160  0.43981481  0.43981481  1.0
  In  In170  1  0.81327160  0.77314815  0.43981481  1.0
  In  In171  1  0.29475309  0.21759259  0.38425926  1.0
  In  In172  1  0.29475309  0.55092593  0.38425926  1.0
  In  In173  1  0.29475309  0.88425926  0.38425926  1.0
  In  In174  1  0.62808642  0.21759259  0.38425926  1.0
  In  In175  1  0.62808642  0.55092593  0.38425926  1.0
  In  In176  1  0.62808642  0.88425926  0.38425926  1.0
  In  In177  1  0.96141975  0.21759259  0.38425926  1.0
  In  In178  1  0.96141975  0.55092593  0.38425926  1.0
  In  In179  1  0.96141975  0.88425926  0.38425926  1.0
  In  In180  1  0.11574074  0.23611111  0.43055556  1.0
  In  In181  1  0.11574074  0.56944444  0.43055556  1.0
  In  In182  1  0.11574074  0.90277778  0.43055556  1.0
  In  In183  1  0.44907407  0.23611111  0.43055556  1.0
  In  In184  1  0.44907407  0.56944444  0.43055556  1.0
  In  In185  1  0.44907407  0.90277778  0.43055556  1.0
  In  In186  1  0.78240741  0.23611111  0.43055556  1.0
  In  In187  1  0.78240741  0.56944444  0.43055556  1.0
  In  In188  1  0.78240741  0.90277778  0.43055556  1.0
  In  In189  1  0.26388889  0.01388889  0.37500000  1.0
  In  In190  1  0.26388889  0.34722222  0.37500000  1.0
  In  In191  1  0.26388889  0.68055556  0.37500000  1.0
  In  In192  1  0.59722222  0.01388889  0.37500000  1.0
  In  In193  1  0.59722222  0.34722222  0.37500000  1.0
  In  In194  1  0.59722222  0.68055556  0.37500000  1.0
  In  In195  1  0.93055556  0.01388889  0.37500000  1.0
  In  In196  1  0.93055556  0.34722222  0.37500000  1.0
  In  In197  1  0.93055556  0.68055556  0.37500000  1.0
  In  In198  1  0.14043210  0.19907407  0.33796296  1.0
  In  In199  1  0.14043210  0.53240741  0.33796296  1.0
  In  In200  1  0.14043210  0.86574074  0.33796296  1.0
  In  In201  1  0.47376543  0.19907407  0.33796296  1.0
  In  In202  1  0.47376543  0.53240741  0.33796296  1.0
  In  In203  1  0.47376543  0.86574074  0.33796296  1.0
  In  In204  1  0.80709877  0.19907407  0.33796296  1.0
  In  In205  1  0.80709877  0.53240741  0.33796296  1.0
  In  In206  1  0.80709877  0.86574074  0.33796296  1.0
  In  In207  1  0.32561728  0.08796296  0.39351852  1.0
  In  In208  1  0.32561728  0.42129630  0.39351852  1.0
  In  In209  1  0.32561728  0.75462963  0.39351852  1.0
  In  In210  1  0.65895062  0.08796296  0.39351852  1.0
  In  In211  1  0.65895062  0.42129630  0.39351852  1.0
  In  In212  1  0.65895062  0.75462963  0.39351852  1.0
  In  In213  1  0.99228395  0.08796296  0.39351852  1.0
  In  In214  1  0.99228395  0.42129630  0.39351852  1.0
  In  In215  1  0.99228395  0.75462963  0.39351852  1.0
  Ni  Ni216  1  0.01697531  0.05092593  0.05092593  1.0
  Ni  Ni217  1  0.01697531  0.38425926  0.05092593  1.0
  Ni  Ni218  1  0.01697531  0.71759259  0.05092593  1.0
  Ni  Ni219  1  0.35030864  0.05092593  0.05092593  1.0
  Ni  Ni220  1  0.35030864  0.38425926  0.05092593  1.0
  Ni  Ni221  1  0.35030864  0.71759259  0.05092593  1.0
  Ni  Ni222  1  0.68364198  0.05092593  0.05092593  1.0
  Ni  Ni223  1  0.68364198  0.38425926  0.05092593  1.0
  Ni  Ni224  1  0.68364198  0.71759259  0.05092593  1.0
  Ni  Ni225  1  0.20216049  0.27314815  0.10648148  1.0
  Ni  Ni226  1  0.20216049  0.60648148  0.10648148  1.0
  Ni  Ni227  1  0.20216049  0.93981481  0.10648148  1.0
  Ni  Ni228  1  0.53549383  0.27314815  0.10648148  1.0
  Ni  Ni229  1  0.53549383  0.60648148  0.10648148  1.0
  Ni  Ni230  1  0.53549383  0.93981481  0.10648148  1.0
  Ni  Ni231  1  0.86882716  0.27314815  0.10648148  1.0
  Ni  Ni232  1  0.86882716  0.60648148  0.10648148  1.0
  Ni  Ni233  1  0.86882716  0.93981481  0.10648148  1.0
  Ni  Ni234  1  0.25771605  0.27314815  0.02314815  1.0
  Ni  Ni235  1  0.25771605  0.60648148  0.02314815  1.0
  Ni  Ni236  1  0.25771605  0.93981481  0.02314815  1.0
  Ni  Ni237  1  0.59104938  0.27314815  0.02314815  1.0
  Ni  Ni238  1  0.59104938  0.60648148  0.02314815  1.0
  Ni  Ni239  1  0.59104938  0.93981481  0.02314815  1.0
  Ni  Ni240  1  0.92438272  0.27314815  0.02314815  1.0
  Ni  Ni241  1  0.92438272  0.60648148  0.02314815  1.0
  Ni  Ni242  1  0.92438272  0.93981481  0.02314815  1.0
  Ni  Ni243  1  0.10956790  0.16203704  0.07870370  1.0
  Ni  Ni244  1  0.10956790  0.49537037  0.07870370  1.0
  Ni  Ni245  1  0.10956790  0.82870370  0.07870370  1.0
  Ni  Ni246  1  0.44290123  0.16203704  0.07870370  1.0
  Ni  Ni247  1  0.44290123  0.49537037  0.07870370  1.0
  Ni  Ni248  1  0.44290123  0.82870370  0.07870370  1.0
  Ni  Ni249  1  0.77623457  0.16203704  0.07870370  1.0
  Ni  Ni250  1  0.77623457  0.49537037  0.07870370  1.0
  Ni  Ni251  1  0.77623457  0.82870370  0.07870370  1.0
  Ni  Ni252  1  0.27623457  0.32870370  0.07870370  1.0
  Ni  Ni253  1  0.27623457  0.66203704  0.07870370  1.0
  Ni  Ni254  1  0.27623457  0.99537037  0.07870370  1.0
  Ni  Ni255  1  0.60956790  0.32870370  0.07870370  1.0
  Ni  Ni256  1  0.60956790  0.66203704  0.07870370  1.0
  Ni  Ni257  1  0.60956790  0.99537037  0.07870370  1.0
  Ni  Ni258  1  0.94290123  0.32870370  0.07870370  1.0
  Ni  Ni259  1  0.94290123  0.66203704  0.07870370  1.0
  Ni  Ni260  1  0.94290123  0.99537037  0.07870370  1.0
  Ni  Ni261  1  0.09104938  0.10648148  0.02314815  1.0
  Ni  Ni262  1  0.09104938  0.43981481  0.02314815  1.0
  Ni  Ni263  1  0.09104938  0.77314815  0.02314815  1.0
  Ni  Ni264  1  0.42438272  0.10648148  0.02314815  1.0
  Ni  Ni265  1  0.42438272  0.43981481  0.02314815  1.0
  Ni  Ni266  1  0.42438272  0.77314815  0.02314815  1.0
  Ni  Ni267  1  0.75771605  0.10648148  0.02314815  1.0
  Ni  Ni268  1  0.75771605  0.43981481  0.02314815  1.0
  Ni  Ni269  1  0.75771605  0.77314815  0.02314815  1.0
  Ni  Ni270  1  0.05401235  0.16203704  0.16203704  1.0
  Ni  Ni271  1  0.05401235  0.49537037  0.16203704  1.0
  Ni  Ni272  1  0.05401235  0.82870370  0.16203704  1.0
  Ni  Ni273  1  0.38734568  0.16203704  0.16203704  1.0
  Ni  Ni274  1  0.38734568  0.49537037  0.16203704  1.0
  Ni  Ni275  1  0.38734568  0.82870370  0.16203704  1.0
  Ni  Ni276  1  0.72067901  0.16203704  0.16203704  1.0
  Ni  Ni277  1  0.72067901  0.49537037  0.16203704  1.0
  Ni  Ni278  1  0.72067901  0.82870370  0.16203704  1.0
  Ni  Ni279  1  0.23919753  0.05092593  0.21759259  1.0
  Ni  Ni280  1  0.23919753  0.38425926  0.21759259  1.0
  Ni  Ni281  1  0.23919753  0.71759259  0.21759259  1.0
  Ni  Ni282  1  0.57253086  0.05092593  0.21759259  1.0
  Ni  Ni283  1  0.57253086  0.38425926  0.21759259  1.0
  Ni  Ni284  1  0.57253086  0.71759259  0.21759259  1.0
  Ni  Ni285  1  0.90586420  0.05092593  0.21759259  1.0
  Ni  Ni286  1  0.90586420  0.38425926  0.21759259  1.0
  Ni  Ni287  1  0.90586420  0.71759259  0.21759259  1.0
  Ni  Ni288  1  0.29475309  0.05092593  0.13425926  1.0
  Ni  Ni289  1  0.29475309  0.38425926  0.13425926  1.0
  Ni  Ni290  1  0.29475309  0.71759259  0.13425926  1.0
  Ni  Ni291  1  0.62808642  0.05092593  0.13425926  1.0
  Ni  Ni292  1  0.62808642  0.38425926  0.13425926  1.0
  Ni  Ni293  1  0.62808642  0.71759259  0.13425926  1.0
  Ni  Ni294  1  0.96141975  0.05092593  0.13425926  1.0
  Ni  Ni295  1  0.96141975  0.38425926  0.13425926  1.0
  Ni  Ni296  1  0.96141975  0.71759259  0.13425926  1.0
  Ni  Ni297  1  0.14660494  0.27314815  0.18981481  1.0
  Ni  Ni298  1  0.14660494  0.60648148  0.18981481  1.0
  Ni  Ni299  1  0.14660494  0.93981481  0.18981481  1.0
  Ni  Ni300  1  0.47993827  0.27314815  0.18981481  1.0
  Ni  Ni301  1  0.47993827  0.60648148  0.18981481  1.0
  Ni  Ni302  1  0.47993827  0.93981481  0.18981481  1.0
  Ni  Ni303  1  0.81327160  0.27314815  0.18981481  1.0
  Ni  Ni304  1  0.81327160  0.60648148  0.18981481  1.0
  Ni  Ni305  1  0.81327160  0.93981481  0.18981481  1.0
  Ni  Ni306  1  0.31327160  0.10648148  0.18981481  1.0
  Ni  Ni307  1  0.31327160  0.43981481  0.18981481  1.0
  Ni  Ni308  1  0.31327160  0.77314815  0.18981481  1.0
  Ni  Ni309  1  0.64660494  0.10648148  0.18981481  1.0
  Ni  Ni310  1  0.64660494  0.43981481  0.18981481  1.0
  Ni  Ni311  1  0.64660494  0.77314815  0.18981481  1.0
  Ni  Ni312  1  0.97993827  0.10648148  0.18981481  1.0
  Ni  Ni313  1  0.97993827  0.43981481  0.18981481  1.0
  Ni  Ni314  1  0.97993827  0.77314815  0.18981481  1.0
  Ni  Ni315  1  0.12808642  0.21759259  0.13425926  1.0
  Ni  Ni316  1  0.12808642  0.55092593  0.13425926  1.0
  Ni  Ni317  1  0.12808642  0.88425926  0.13425926  1.0
  Ni  Ni318  1  0.46141975  0.21759259  0.13425926  1.0
  Ni  Ni319  1  0.46141975  0.55092593  0.13425926  1.0
  Ni  Ni320  1  0.46141975  0.88425926  0.13425926  1.0
  Ni  Ni321  1  0.79475309  0.21759259  0.13425926  1.0
  Ni  Ni322  1  0.79475309  0.55092593  0.13425926  1.0
  Ni  Ni323  1  0.79475309  0.88425926  0.13425926  1.0
  Ni  Ni324  1  0.09104938  0.27314815  0.27314815  1.0
  Ni  Ni325  1  0.09104938  0.60648148  0.27314815  1.0
  Ni  Ni326  1  0.09104938  0.93981481  0.27314815  1.0
  Ni  Ni327  1  0.42438272  0.27314815  0.27314815  1.0
  Ni  Ni328  1  0.42438272  0.60648148  0.27314815  1.0
  Ni  Ni329  1  0.42438272  0.93981481  0.27314815  1.0
  Ni  Ni330  1  0.75771605  0.27314815  0.27314815  1.0
  Ni  Ni331  1  0.75771605  0.60648148  0.27314815  1.0
  Ni  Ni332  1  0.75771605  0.93981481  0.27314815  1.0
  Ni  Ni333  1  0.27623457  0.16203704  0.32870370  1.0
  Ni  Ni334  1  0.27623457  0.49537037  0.32870370  1.0
  Ni  Ni335  1  0.27623457  0.82870370  0.32870370  1.0
  Ni  Ni336  1  0.60956790  0.16203704  0.32870370  1.0
  Ni  Ni337  1  0.60956790  0.49537037  0.32870370  1.0
  Ni  Ni338  1  0.60956790  0.82870370  0.32870370  1.0
  Ni  Ni339  1  0.94290123  0.16203704  0.32870370  1.0
  Ni  Ni340  1  0.94290123  0.49537037  0.32870370  1.0
  Ni  Ni341  1  0.94290123  0.82870370  0.32870370  1.0
  Ni  Ni342  1  0.33179012  0.16203704  0.24537037  1.0
  Ni  Ni343  1  0.33179012  0.49537037  0.24537037  1.0
  Ni  Ni344  1  0.33179012  0.82870370  0.24537037  1.0
  Ni  Ni345  1  0.66512346  0.16203704  0.24537037  1.0
  Ni  Ni346  1  0.66512346  0.49537037  0.24537037  1.0
  Ni  Ni347  1  0.66512346  0.82870370  0.24537037  1.0
  Ni  Ni348  1  0.99845679  0.16203704  0.24537037  1.0
  Ni  Ni349  1  0.99845679  0.49537037  0.24537037  1.0
  Ni  Ni350  1  0.99845679  0.82870370  0.24537037  1.0
  Ni  Ni351  1  0.18364198  0.05092593  0.30092593  1.0
  Ni  Ni352  1  0.18364198  0.38425926  0.30092593  1.0
  Ni  Ni353  1  0.18364198  0.71759259  0.30092593  1.0
  Ni  Ni354  1  0.51697531  0.05092593  0.30092593  1.0
  Ni  Ni355  1  0.51697531  0.38425926  0.30092593  1.0
  Ni  Ni356  1  0.51697531  0.71759259  0.30092593  1.0
  Ni  Ni357  1  0.85030864  0.05092593  0.30092593  1.0
  Ni  Ni358  1  0.85030864  0.38425926  0.30092593  1.0
  Ni  Ni359  1  0.85030864  0.71759259  0.30092593  1.0
  Ni  Ni360  1  0.01697531  0.21759259  0.30092593  1.0
  Ni  Ni361  1  0.01697531  0.55092593  0.30092593  1.0
  Ni  Ni362  1  0.01697531  0.88425926  0.30092593  1.0
  Ni  Ni363  1  0.35030864  0.21759259  0.30092593  1.0
  Ni  Ni364  1  0.35030864  0.55092593  0.30092593  1.0
  Ni  Ni365  1  0.35030864  0.88425926  0.30092593  1.0
  Ni  Ni366  1  0.68364198  0.21759259  0.30092593  1.0
  Ni  Ni367  1  0.68364198  0.55092593  0.30092593  1.0
  Ni  Ni368  1  0.68364198  0.88425926  0.30092593  1.0
  Ni  Ni369  1  0.16512346  0.32870370  0.24537037  1.0
  Ni  Ni370  1  0.16512346  0.66203704  0.24537037  1.0
  Ni  Ni371  1  0.16512346  0.99537037  0.24537037  1.0
  Ni  Ni372  1  0.49845679  0.32870370  0.24537037  1.0
  Ni  Ni373  1  0.49845679  0.66203704  0.24537037  1.0
  Ni  Ni374  1  0.49845679  0.99537037  0.24537037  1.0
  Ni  Ni375  1  0.83179012  0.32870370  0.24537037  1.0
  Ni  Ni376  1  0.83179012  0.66203704  0.24537037  1.0
  Ni  Ni377  1  0.83179012  0.99537037  0.24537037  1.0
  Ni  Ni378  1  0.12808642  0.05092593  0.38425926  1.0
  Ni  Ni379  1  0.12808642  0.38425926  0.38425926  1.0
  Ni  Ni380  1  0.12808642  0.71759259  0.38425926  1.0
  Ni  Ni381  1  0.46141975  0.05092593  0.38425926  1.0
  Ni  Ni382  1  0.46141975  0.38425926  0.38425926  1.0
  Ni  Ni383  1  0.46141975  0.71759259  0.38425926  1.0
  Ni  Ni384  1  0.79475309  0.05092593  0.38425926  1.0
  Ni  Ni385  1  0.79475309  0.38425926  0.38425926  1.0
  Ni  Ni386  1  0.79475309  0.71759259  0.38425926  1.0
  Ni  Ni387  1  0.31327160  0.27314815  0.43981481  1.0
  Ni  Ni388  1  0.31327160  0.60648148  0.43981481  1.0
  Ni  Ni389  1  0.31327160  0.93981481  0.43981481  1.0
  Ni  Ni390  1  0.64660494  0.27314815  0.43981481  1.0
  Ni  Ni391  1  0.64660494  0.60648148  0.43981481  1.0
  Ni  Ni392  1  0.64660494  0.93981481  0.43981481  1.0
  Ni  Ni393  1  0.97993827  0.27314815  0.43981481  1.0
  Ni  Ni394  1  0.97993827  0.60648148  0.43981481  1.0
  Ni  Ni395  1  0.97993827  0.93981481  0.43981481  1.0
  Ni  Ni396  1  0.03549383  0.27314815  0.35648148  1.0
  Ni  Ni397  1  0.03549383  0.60648148  0.35648148  1.0
  Ni  Ni398  1  0.03549383  0.93981481  0.35648148  1.0
  Ni  Ni399  1  0.36882716  0.27314815  0.35648148  1.0
  Ni  Ni400  1  0.36882716  0.60648148  0.35648148  1.0
  Ni  Ni401  1  0.36882716  0.93981481  0.35648148  1.0
  Ni  Ni402  1  0.70216049  0.27314815  0.35648148  1.0
  Ni  Ni403  1  0.70216049  0.60648148  0.35648148  1.0
  Ni  Ni404  1  0.70216049  0.93981481  0.35648148  1.0
  Ni  Ni405  1  0.22067901  0.16203704  0.41203704  1.0
  Ni  Ni406  1  0.22067901  0.49537037  0.41203704  1.0
  Ni  Ni407  1  0.22067901  0.82870370  0.41203704  1.0
  Ni  Ni408  1  0.55401235  0.16203704  0.41203704  1.0
  Ni  Ni409  1  0.55401235  0.49537037  0.41203704  1.0
  Ni  Ni410  1  0.55401235  0.82870370  0.41203704  1.0
  Ni  Ni411  1  0.88734568  0.16203704  0.41203704  1.0
  Ni  Ni412  1  0.88734568  0.49537037  0.41203704  1.0
  Ni  Ni413  1  0.88734568  0.82870370  0.41203704  1.0
  Ni  Ni414  1  0.05401235  0.32870370  0.41203704  1.0
  Ni  Ni415  1  0.05401235  0.66203704  0.41203704  1.0
  Ni  Ni416  1  0.05401235  0.99537037  0.41203704  1.0
  Ni  Ni417  1  0.38734568  0.32870370  0.41203704  1.0
  Ni  Ni418  1  0.38734568  0.66203704  0.41203704  1.0
  Ni  Ni419  1  0.38734568  0.99537037  0.41203704  1.0
  Ni  Ni420  1  0.72067901  0.32870370  0.41203704  1.0
  Ni  Ni421  1  0.72067901  0.66203704  0.41203704  1.0
  Ni  Ni422  1  0.72067901  0.99537037  0.41203704  1.0
  Ni  Ni423  1  0.20216049  0.10648148  0.35648148  1.0
  Ni  Ni424  1  0.20216049  0.43981481  0.35648148  1.0
  Ni  Ni425  1  0.20216049  0.77314815  0.35648148  1.0
  Ni  Ni426  1  0.53549383  0.10648148  0.35648148  1.0
  Ni  Ni427  1  0.53549383  0.43981481  0.35648148  1.0
  Ni  Ni428  1  0.53549383  0.77314815  0.35648148  1.0
  Ni  Ni429  1  0.86882716  0.10648148  0.35648148  1.0
  Ni  Ni430  1  0.86882716  0.43981481  0.35648148  1.0
  Ni  Ni431  1  0.86882716  0.77314815  0.35648148  1.0
