# generated using pymatgen
data_InNi2
_symmetry_space_group_name_H-M   'P 1'
_cell_length_a   22.38170092
_cell_length_b   20.37991916
_cell_length_c   60.30304490
_cell_angle_alpha   129.35026310
_cell_angle_beta   150.00000000
_cell_angle_gamma   56.69391217
_symmetry_Int_Tables_number   1
_chemical_formula_structural   InNi2
_chemical_formula_sum   'In108 Ni216'
_cell_volume   10635.15856578
_cell_formula_units_Z   108
loop_
 _symmetry_equiv_pos_site_id
 _symmetry_equiv_pos_as_xyz
  1  'x, y, z'
loop_
 _atom_site_type_symbol
 _atom_site_label
 _atom_site_symmetry_multiplicity
 _atom_site_fract_x
 _atom_site_fract_y
 _atom_site_fract_z
 _atom_site_occupancy
  In  In0  1  0.11111111  0.25000000  0.04464286  1.0
  In  In1  1  0.11111111  0.58333333  0.04464286  1.0
  In  In2  1  0.11111111  0.91666667  0.04464286  1.0
  In  In3  1  0.44444444  0.25000000  0.04464286  1.0
  In  In4  1  0.44444444  0.58333333  0.04464286  1.0
  In  In5  1  0.44444444  0.91666667  0.04464286  1.0
  In  In6  1  0.77777778  0.25000000  0.04464286  1.0
  In  In7  1  0.77777778  0.58333333  0.04464286  1.0
  In  In8  1  0.77777778  0.91666667  0.04464286  1.0
  In  In9  1  0.22222222  0.08333333  0.00892857  1.0
  In  In10  1  0.22222222  0.41666667  0.00892857  1.0
  In  In11  1  0.22222222  0.75000000  0.00892857  1.0
  In  In12  1  0.55555556  0.08333333  0.00892857  1.0
  In  In13  1  0.55555556  0.41666667  0.00892857  1.0
  In  In14  1  0.55555556  0.75000000  0.00892857  1.0
  In  In15  1  0.88888889  0.08333333  0.00892857  1.0
  In  In16  1  0.88888889  0.41666667  0.00892857  1.0
  In  In17  1  0.88888889  0.75000000  0.00892857  1.0
  Ni  Ni18  1  0.00000000  0.00000000  0.06250000  1.0
  Ni  Ni19  1  0.00000000  0.33333333  0.06250000  1.0
  Ni  Ni20  1  0.00000000  0.66666667  0.06250000  1.0
  Ni  Ni21  1  0.33333333  0.00000000  0.06250000  1.0
  Ni  Ni22  1  0.33333333  0.33333333  0.06250000  1.0
  Ni  Ni23  1  0.33333333  0.66666667  0.06250000  1.0
  Ni  Ni24  1  0.66666667  0.00000000  0.06250000  1.0
  Ni  Ni25  1  0.66666667  0.33333333  0.06250000  1.0
  Ni  Ni26  1  0.66666667  0.66666667  0.06250000  1.0
  Ni  Ni27  1  0.00000000  0.16666667  0.02678571  1.0
  Ni  Ni28  1  0.00000000  0.50000000  0.02678571  1.0
  Ni  Ni29  1  0.00000000  0.83333333  0.02678571  1.0
  Ni  Ni30  1  0.33333333  0.16666667  0.02678571  1.0
  Ni  Ni31  1  0.33333333  0.50000000  0.02678571  1.0
  Ni  Ni32  1  0.33333333  0.83333333  0.02678571  1.0
  Ni  Ni33  1  0.66666667  0.16666667  0.02678571  1.0
  Ni  Ni34  1  0.66666667  0.50000000  0.02678571  1.0
  Ni  Ni35  1  0.66666667  0.83333333  0.02678571  1.0
  Ni  Ni36  1  0.11111111  0.08333333  0.00892857  1.0
  Ni  Ni37  1  0.11111111  0.41666667  0.00892857  1.0
  Ni  Ni38  1  0.11111111  0.75000000  0.00892857  1.0
  Ni  Ni39  1  0.44444444  0.08333333  0.00892857  1.0
  Ni  Ni40  1  0.44444444  0.41666667  0.00892857  1.0
  Ni  Ni41  1  0.44444444  0.75000000  0.00892857  1.0
  Ni  Ni42  1  0.77777778  0.08333333  0.00892857  1.0
  Ni  Ni43  1  0.77777778  0.41666667  0.00892857  1.0
  Ni  Ni44  1  0.77777778  0.75000000  0.00892857  1.0
  Ni  Ni45  1  0.22222222  0.25000000  0.04464286  1.0
  Ni  Ni46  1  0.22222222  0.58333333  0.04464286  1.0
  Ni  Ni47  1  0.22222222  0.91666667  0.04464286  1.0
  Ni  Ni48  1  0.55555556  0.25000000  0.04464286  1.0
  Ni  Ni49  1  0.55555556  0.58333333  0.04464286  1.0
  Ni  Ni50  1  0.55555556  0.91666667  0.04464286  1.0
  Ni  Ni51  1  0.88888889  0.25000000  0.04464286  1.0
  Ni  Ni52  1  0.88888889  0.58333333  0.04464286  1.0
  Ni  Ni53  1  0.88888889  0.91666667  0.04464286  1.0
  In  In54  1  0.11111111  0.25000000  0.11607143  1.0
  In  In55  1  0.11111111  0.58333333  0.11607143  1.0
  In  In56  1  0.11111111  0.91666667  0.11607143  1.0
  In  In57  1  0.44444444  0.25000000  0.11607143  1.0
  In  In58  1  0.44444444  0.58333333  0.11607143  1.0
  In  In59  1  0.44444444  0.91666667  0.11607143  1.0
  In  In60  1  0.77777778  0.25000000  0.11607143  1.0
  In  In61  1  0.77777778  0.58333333  0.11607143  1.0
  In  In62  1  0.77777778  0.91666667  0.11607143  1.0
  In  In63  1  0.22222222  0.08333333  0.08035714  1.0
  In  In64  1  0.22222222  0.41666667  0.08035714  1.0
  In  In65  1  0.22222222  0.75000000  0.08035714  1.0
  In  In66  1  0.55555556  0.08333333  0.08035714  1.0
  In  In67  1  0.55555556  0.41666667  0.08035714  1.0
  In  In68  1  0.55555556  0.75000000  0.08035714  1.0
  In  In69  1  0.88888889  0.08333333  0.08035714  1.0
  In  In70  1  0.88888889  0.41666667  0.08035714  1.0
  In  In71  1  0.88888889  0.75000000  0.08035714  1.0
  Ni  Ni72  1  0.00000000  0.00000000  0.13392857  1.0
  Ni  Ni73  1  0.00000000  0.33333333  0.13392857  1.0
  Ni  Ni74  1  0.00000000  0.66666667  0.13392857  1.0
  Ni  Ni75  1  0.33333333  0.00000000  0.13392857  1.0
  Ni  Ni76  1  0.33333333  0.33333333  0.13392857  1.0
  Ni  Ni77  1  0.33333333  0.66666667  0.13392857  1.0
  Ni  Ni78  1  0.66666667  0.00000000  0.13392857  1.0
  Ni  Ni79  1  0.66666667  0.33333333  0.13392857  1.0
  Ni  Ni80  1  0.66666667  0.66666667  0.13392857  1.0
  Ni  Ni81  1  0.00000000  0.16666667  0.09821429  1.0
  Ni  Ni82  1  0.00000000  0.50000000  0.09821429  1.0
  Ni  Ni83  1  0.00000000  0.83333333  0.09821429  1.0
  Ni  Ni84  1  0.33333333  0.16666667  0.09821429  1.0
  Ni  Ni85  1  0.33333333  0.50000000  0.09821429  1.0
  Ni  Ni86  1  0.33333333  0.83333333  0.09821429  1.0
  Ni  Ni87  1  0.66666667  0.16666667  0.09821429  1.0
  Ni  Ni88  1  0.66666667  0.50000000  0.09821429  1.0
  Ni  Ni89  1  0.66666667  0.83333333  0.09821429  1.0
  Ni  Ni90  1  0.11111111  0.08333333  0.08035714  1.0
  Ni  Ni91  1  0.11111111  0.41666667  0.08035714  1.0
  Ni  Ni92  1  0.11111111  0.75000000  0.08035714  1.0
  Ni  Ni93  1  0.44444444  0.08333333  0.08035714  1.0
  Ni  Ni94  1  0.44444444  0.41666667  0.08035714  1.0
  Ni  Ni95  1  0.44444444  0.75000000  0.08035714  1.0
  Ni  Ni96  1  0.77777778  0.08333333  0.08035714  1.0
  Ni  Ni97  1  0.77777778  0.41666667  0.08035714  1.0
  Ni  Ni98  1  0.77777778  0.75000000  0.08035714  1.0
  Ni  Ni99  1  0.22222222  0.25000000  0.11607143  1.0
  Ni  Ni100  1  0.22222222  0.58333333  0.11607143  1.0
  Ni  Ni101  1  0.22222222  0.91666667  0.11607143  1.0
  Ni  Ni102  1  0.55555556  0.25000000  0.11607143  1.0
  Ni  Ni103  1  0.55555556  0.58333333  0.11607143  1.0
  Ni  Ni104  1  0.55555556  0.91666667  0.11607143  1.0
  Ni  Ni105  1  0.88888889  0.25000000  0.11607143  1.0
  Ni  Ni106  1  0.88888889  0.58333333  0.11607143  1.0
  Ni  Ni107  1  0.88888889  0.91666667  0.11607143  1.0
  In  In108  1  0.11111111  0.25000000  0.18750000  1.0
  In  In109  1  0.11111111  0.58333333  0.18750000  1.0
  In  In110  1  0.11111111  0.91666667  0.18750000  1.0
  In  In111  1  0.44444444  0.25000000  0.18750000  1.0
  In  In112  1  0.44444444  0.58333333  0.18750000  1.0
  In  In113  1  0.44444444  0.91666667  0.18750000  1.0
  In  In114  1  0.77777778  0.25000000  0.18750000  1.0
  In  In115  1  0.77777778  0.58333333  0.18750000  1.0
  In  In116  1  0.77777778  0.91666667  0.18750000  1.0
  In  In117  1  0.22222222  0.08333333  0.15178571  1.0
  In  In118  1  0.22222222  0.41666667  0.15178571  1.0
  In  In119  1  0.22222222  0.75000000  0.15178571  1.0
  In  In120  1  0.55555556  0.08333333  0.15178571  1.0
  In  In121  1  0.55555556  0.41666667  0.15178571  1.0
  In  In122  1  0.55555556  0.75000000  0.15178571  1.0
  In  In123  1  0.88888889  0.08333333  0.15178571  1.0
  In  In124  1  0.88888889  0.41666667  0.15178571  1.0
  In  In125  1  0.88888889  0.75000000  0.15178571  1.0
  Ni  Ni126  1  0.00000000  0.00000000  0.20535714  1.0
  Ni  Ni127  1  0.00000000  0.33333333  0.20535714  1.0
  Ni  Ni128  1  0.00000000  0.66666667  0.20535714  1.0
  Ni  Ni129  1  0.33333333  0.00000000  0.20535714  1.0
  Ni  Ni130  1  0.33333333  0.33333333  0.20535714  1.0
  Ni  Ni131  1  0.33333333  0.66666667  0.20535714  1.0
  Ni  Ni132  1  0.66666667  0.00000000  0.20535714  1.0
  Ni  Ni133  1  0.66666667  0.33333333  0.20535714  1.0
  Ni  Ni134  1  0.66666667  0.66666667  0.20535714  1.0
  Ni  Ni135  1  0.00000000  0.16666667  0.16964286  1.0
  Ni  Ni136  1  0.00000000  0.50000000  0.16964286  1.0
  Ni  Ni137  1  0.00000000  0.83333333  0.16964286  1.0
  Ni  Ni138  1  0.33333333  0.16666667  0.16964286  1.0
  Ni  Ni139  1  0.33333333  0.50000000  0.16964286  1.0
  Ni  Ni140  1  0.33333333  0.83333333  0.16964286  1.0
  Ni  Ni141  1  0.66666667  0.16666667  0.16964286  1.0
  Ni  Ni142  1  0.66666667  0.50000000  0.16964286  1.0
  Ni  Ni143  1  0.66666667  0.83333333  0.16964286  1.0
  Ni  Ni144  1  0.11111111  0.08333333  0.15178571  1.0
  Ni  Ni145  1  0.11111111  0.41666667  0.15178571  1.0
  Ni  Ni146  1  0.11111111  0.75000000  0.15178571  1.0
  Ni  Ni147  1  0.44444444  0.08333333  0.15178571  1.0
  Ni  Ni148  1  0.44444444  0.41666667  0.15178571  1.0
  Ni  Ni149  1  0.44444444  0.75000000  0.15178571  1.0
  Ni  Ni150  1  0.77777778  0.08333333  0.15178571  1.0
  Ni  Ni151  1  0.77777778  0.41666667  0.15178571  1.0
  Ni  Ni152  1  0.77777778  0.75000000  0.15178571  1.0
  Ni  Ni153  1  0.22222222  0.25000000  0.18750000  1.0
  Ni  Ni154  1  0.22222222  0.58333333  0.18750000  1.0
  Ni  Ni155  1  0.22222222  0.91666667  0.18750000  1.0
  Ni  Ni156  1  0.55555556  0.25000000  0.18750000  1.0
  Ni  Ni157  1  0.55555556  0.58333333  0.18750000  1.0
  Ni  Ni158  1  0.55555556  0.91666667  0.18750000  1.0
  Ni  Ni159  1  0.88888889  0.25000000  0.18750000  1.0
  Ni  Ni160  1  0.88888889  0.58333333  0.18750000  1.0
  Ni  Ni161  1  0.88888889  0.91666667  0.18750000  1.0
  In  In162  1  0.11111111  0.25000000  0.25892857  1.0
  In  In163  1  0.11111111  0.58333333  0.25892857  1.0
  In  In164  1  0.11111111  0.91666667  0.25892857  1.0
  In  In165  1  0.44444444  0.25000000  0.25892857  1.0
  In  In166  1  0.44444444  0.58333333  0.25892857  1.0
  In  In167  1  0.44444444  0.91666667  0.25892857  1.0
  In  In168  1  0.77777778  0.25000000  0.25892857  1.0
  In  In169  1  0.77777778  0.58333333  0.25892857  1.0
  In  In170  1  0.77777778  0.91666667  0.25892857  1.0
  In  In171  1  0.22222222  0.08333333  0.22321429  1.0
  In  In172  1  0.22222222  0.41666667  0.22321429  1.0
  In  In173  1  0.22222222  0.75000000  0.22321429  1.0
  In  In174  1  0.55555556  0.08333333  0.22321429  1.0
  In  In175  1  0.55555556  0.41666667  0.22321429  1.0
  In  In176  1  0.55555556  0.75000000  0.22321429  1.0
  In  In177  1  0.88888889  0.08333333  0.22321429  1.0
  In  In178  1  0.88888889  0.41666667  0.22321429  1.0
  In  In179  1  0.88888889  0.75000000  0.22321429  1.0
  Ni  Ni180  1  0.00000000  0.00000000  0.27678571  1.0
  Ni  Ni181  1  0.00000000  0.33333333  0.27678571  1.0
  Ni  Ni182  1  0.00000000  0.66666667  0.27678571  1.0
  Ni  Ni183  1  0.33333333  0.00000000  0.27678571  1.0
  Ni  Ni184  1  0.33333333  0.33333333  0.27678571  1.0
  Ni  Ni185  1  0.33333333  0.66666667  0.27678571  1.0
  Ni  Ni186  1  0.66666667  0.00000000  0.27678571  1.0
  Ni  Ni187  1  0.66666667  0.33333333  0.27678571  1.0
  Ni  Ni188  1  0.66666667  0.66666667  0.27678571  1.0
  Ni  Ni189  1  0.00000000  0.16666667  0.24107143  1.0
  Ni  Ni190  1  0.00000000  0.50000000  0.24107143  1.0
  Ni  Ni191  1  0.00000000  0.83333333  0.24107143  1.0
  Ni  Ni192  1  0.33333333  0.16666667  0.24107143  1.0
  Ni  Ni193  1  0.33333333  0.50000000  0.24107143  1.0
  Ni  Ni194  1  0.33333333  0.83333333  0.24107143  1.0
  Ni  Ni195  1  0.66666667  0.16666667  0.24107143  1.0
  Ni  Ni196  1  0.66666667  0.50000000  0.24107143  1.0
  Ni  Ni197  1  0.66666667  0.83333333  0.24107143  1.0
  Ni  Ni198  1  0.11111111  0.08333333  0.22321429  1.0
  Ni  Ni199  1  0.11111111  0.41666667  0.22321429  1.0
  Ni  Ni200  1  0.11111111  0.75000000  0.22321429  1.0
  Ni  Ni201  1  0.44444444  0.08333333  0.22321429  1.0
  Ni  Ni202  1  0.44444444  0.41666667  0.22321429  1.0
  Ni  Ni203  1  0.44444444  0.75000000  0.22321429  1.0
  Ni  Ni204  1  0.77777778  0.08333333  0.22321429  1.0
  Ni  Ni205  1  0.77777778  0.41666667  0.22321429  1.0
  Ni  Ni206  1  0.77777778  0.75000000  0.22321429  1.0
  Ni  Ni207  1  0.22222222  0.25000000  0.25892857  1.0
  Ni  Ni208  1  0.22222222  0.58333333  0.25892857  1.0
  Ni  Ni209  1  0.22222222  0.91666667  0.25892857  1.0
  Ni  Ni210  1  0.55555556  0.25000000  0.25892857  1.0
  Ni  Ni211  1  0.55555556  0.58333333  0.25892857  1.0
  Ni  Ni212  1  0.55555556  0.91666667  0.25892857  1.0
  Ni  Ni213  1  0.88888889  0.25000000  0.25892857  1.0
  Ni  Ni214  1  0.88888889  0.58333333  0.25892857  1.0
  Ni  Ni215  1  0.88888889  0.91666667  0.25892857  1.0
  In  In216  1  0.11111111  0.25000000  0.33035714  1.0
  In  In217  1  0.11111111  0.58333333  0.33035714  1.0
  In  In218  1  0.11111111  0.91666667  0.33035714  1.0
  In  In219  1  0.44444444  0.25000000  0.33035714  1.0
  In  In220  1  0.44444444  0.58333333  0.33035714  1.0
  In  In221  1  0.44444444  0.91666667  0.33035714  1.0
  In  In222  1  0.77777778  0.25000000  0.33035714  1.0
  In  In223  1  0.77777778  0.58333333  0.33035714  1.0
  In  In224  1  0.77777778  0.91666667  0.33035714  1.0
  In  In225  1  0.22222222  0.08333333  0.29464286  1.0
  In  In226  1  0.22222222  0.41666667  0.29464286  1.0
  In  In227  1  0.22222222  0.75000000  0.29464286  1.0
  In  In228  1  0.55555556  0.08333333  0.29464286  1.0
  In  In229  1  0.55555556  0.41666667  0.29464286  1.0
  In  In230  1  0.55555556  0.75000000  0.29464286  1.0
  In  In231  1  0.88888889  0.08333333  0.29464286  1.0
  In  In232  1  0.88888889  0.41666667  0.29464286  1.0
  In  In233  1  0.88888889  0.75000000  0.29464286  1.0
  Ni  Ni234  1  0.00000000  0.00000000  0.34821429  1.0
  Ni  Ni235  1  0.00000000  0.33333333  0.34821429  1.0
  Ni  Ni236  1  0.00000000  0.66666667  0.34821429  1.0
  Ni  Ni237  1  0.33333333  0.00000000  0.34821429  1.0
  Ni  Ni238  1  0.33333333  0.33333333  0.34821429  1.0
  Ni  Ni239  1  0.33333333  0.66666667  0.34821429  1.0
  Ni  Ni240  1  0.66666667  0.00000000  0.34821429  1.0
  Ni  Ni241  1  0.66666667  0.33333333  0.34821429  1.0
  Ni  Ni242  1  0.66666667  0.66666667  0.34821429  1.0
  Ni  Ni243  1  0.00000000  0.16666667  0.31250000  1.0
  Ni  Ni244  1  0.00000000  0.50000000  0.31250000  1.0
  Ni  Ni245  1  0.00000000  0.83333333  0.31250000  1.0
  Ni  Ni246  1  0.33333333  0.16666667  0.31250000  1.0
  Ni  Ni247  1  0.33333333  0.50000000  0.31250000  1.0
  Ni  Ni248  1  0.33333333  0.83333333  0.31250000  1.0
  Ni  Ni249  1  0.66666667  0.16666667  0.31250000  1.0
  Ni  Ni250  1  0.66666667  0.50000000  0.31250000  1.0
  Ni  Ni251  1  0.66666667  0.83333333  0.31250000  1.0
  Ni  Ni252  1  0.11111111  0.08333333  0.29464286  1.0
  Ni  Ni253  1  0.11111111  0.41666667  0.29464286  1.0
  Ni  Ni254  1  0.11111111  0.75000000  0.29464286  1.0
  Ni  Ni255  1  0.44444444  0.08333333  0.29464286  1.0
  Ni  Ni256  1  0.44444444  0.41666667  0.29464286  1.0
  Ni  Ni257  1  0.44444444  0.75000000  0.29464286  1.0
  Ni  Ni258  1  0.77777778  0.08333333  0.29464286  1.0
  Ni  Ni259  1  0.77777778  0.41666667  0.29464286  1.0
  Ni  Ni260  1  0.77777778  0.75000000  0.29464286  1.0
  Ni  Ni261  1  0.22222222  0.25000000  0.33035714  1.0
  Ni  Ni262  1  0.22222222  0.58333333  0.33035714  1.0
  Ni  Ni263  1  0.22222222  0.91666667  0.33035714  1.0
  Ni  Ni264  1  0.55555556  0.25000000  0.33035714  1.0
  Ni  Ni265  1  0.55555556  0.58333333  0.33035714  1.0
  Ni  Ni266  1  0.55555556  0.91666667  0.33035714  1.0
  Ni  Ni267  1  0.88888889  0.25000000  0.33035714  1.0
  Ni  Ni268  1  0.88888889  0.58333333  0.33035714  1.0
  Ni  Ni269  1  0.88888889  0.91666667  0.33035714  1.0
  In  In270  1  0.11111111  0.25000000  0.40178571  1.0
  In  In271  1  0.11111111  0.58333333  0.40178571  1.0
  In  In272  1  0.11111111  0.91666667  0.40178571  1.0
  In  In273  1  0.44444444  0.25000000  0.40178571  1.0
  In  In274  1  0.44444444  0.58333333  0.40178571  1.0
  In  In275  1  0.44444444  0.91666667  0.40178571  1.0
  In  In276  1  0.77777778  0.25000000  0.40178571  1.0
  In  In277  1  0.77777778  0.58333333  0.40178571  1.0
  In  In278  1  0.77777778  0.91666667  0.40178571  1.0
  In  In279  1  0.22222222  0.08333333  0.36607143  1.0
  In  In280  1  0.22222222  0.41666667  0.36607143  1.0
  In  In281  1  0.22222222  0.75000000  0.36607143  1.0
  In  In282  1  0.55555556  0.08333333  0.36607143  1.0
  In  In283  1  0.55555556  0.41666667  0.36607143  1.0
  In  In284  1  0.55555556  0.75000000  0.36607143  1.0
  In  In285  1  0.88888889  0.08333333  0.36607143  1.0
  In  In286  1  0.88888889  0.41666667  0.36607143  1.0
  In  In287  1  0.88888889  0.75000000  0.36607143  1.0
  Ni  Ni288  1  0.00000000  0.00000000  0.41964286  1.0
  Ni  Ni289  1  0.00000000  0.33333333  0.41964286  1.0
  Ni  Ni290  1  0.00000000  0.66666667  0.41964286  1.0
  Ni  Ni291  1  0.33333333  0.00000000  0.41964286  1.0
  Ni  Ni292  1  0.33333333  0.33333333  0.41964286  1.0
  Ni  Ni293  1  0.33333333  0.66666667  0.41964286  1.0
  Ni  Ni294  1  0.66666667  0.00000000  0.41964286  1.0
  Ni  Ni295  1  0.66666667  0.33333333  0.41964286  1.0
  Ni  Ni296  1  0.66666667  0.66666667  0.41964286  1.0
  Ni  Ni297  1  0.00000000  0.16666667  0.38392857  1.0
  Ni  Ni298  1  0.00000000  0.50000000  0.38392857  1.0
  Ni  Ni299  1  0.00000000  0.83333333  0.38392857  1.0
  Ni  Ni300  1  0.33333333  0.16666667  0.38392857  1.0
  Ni  Ni301  1  0.33333333  0.50000000  0.38392857  1.0
  Ni  Ni302  1  0.33333333  0.83333333  0.38392857  1.0
  Ni  Ni303  1  0.66666667  0.16666667  0.38392857  1.0
  Ni  Ni304  1  0.66666667  0.50000000  0.38392857  1.0
  Ni  Ni305  1  0.66666667  0.83333333  0.38392857  1.0
  Ni  Ni306  1  0.11111111  0.08333333  0.36607143  1.0
  Ni  Ni307  1  0.11111111  0.41666667  0.36607143  1.0
  Ni  Ni308  1  0.11111111  0.75000000  0.36607143  1.0
  Ni  Ni309  1  0.44444444  0.08333333  0.36607143  1.0
  Ni  Ni310  1  0.44444444  0.41666667  0.36607143  1.0
  Ni  Ni311  1  0.44444444  0.75000000  0.36607143  1.0
  Ni  Ni312  1  0.77777778  0.08333333  0.36607143  1.0
  Ni  Ni313  1  0.77777778  0.41666667  0.36607143  1.0
  Ni  Ni314  1  0.77777778  0.75000000  0.36607143  1.0
  Ni  Ni315  1  0.22222222  0.25000000  0.40178571  1.0
  Ni  Ni316  1  0.22222222  0.58333333  0.40178571  1.0
  Ni  Ni317  1  0.22222222  0.91666667  0.40178571  1.0
  Ni  Ni318  1  0.55555556  0.25000000  0.40178571  1.0
  Ni  Ni319  1  0.55555556  0.58333333  0.40178571  1.0
  Ni  Ni320  1  0.55555556  0.91666667  0.40178571  1.0
  Ni  Ni321  1  0.88888889  0.25000000  0.40178571  1.0
  Ni  Ni322  1  0.88888889  0.58333333  0.40178571  1.0
  Ni  Ni323  1  0.88888889  0.91666667  0.40178571  1.0
