# generated using pymatgen
data_InNi
_symmetry_space_group_name_H-M   'P 1'
_cell_length_a   27.39483165
_cell_length_b   20.54902937
_cell_length_c   52.47531600
_cell_angle_alpha   50.32619473
_cell_angle_beta   90.00000000
_cell_angle_gamma   48.19693100
_symmetry_Int_Tables_number   1
_chemical_formula_structural   InNi
_chemical_formula_sum   'In135 Ni135'
_cell_volume   11368.46192105
_cell_formula_units_Z   135
loop_
 _symmetry_equiv_pos_site_id
 _symmetry_equiv_pos_as_xyz
  1  'x, y, z'
loop_
 _atom_site_type_symbol
 _atom_site_label
 _atom_site_symmetry_multiplicity
 _atom_site_fract_x
 _atom_site_fract_y
 _atom_site_fract_z
 _atom_site_occupancy
  In  In0  1  0.00000000  0.00000000  0.06250000  1.0
  In  In1  1  0.00000000  0.33333333  0.06250000  1.0
  In  In2  1  0.00000000  0.66666667  0.06250000  1.0
  In  In3  1  0.33333333  0.00000000  0.06250000  1.0
  In  In4  1  0.33333333  0.33333333  0.06250000  1.0
  In  In5  1  0.33333333  0.66666667  0.06250000  1.0
  In  In6  1  0.66666667  0.00000000  0.06250000  1.0
  In  In7  1  0.66666667  0.33333333  0.06250000  1.0
  In  In8  1  0.66666667  0.66666667  0.06250000  1.0
  In  In9  1  0.22222222  0.00000000  0.02083333  1.0
  In  In10  1  0.22222222  0.33333333  0.02083333  1.0
  In  In11  1  0.22222222  0.66666667  0.02083333  1.0
  In  In12  1  0.55555556  0.00000000  0.02083333  1.0
  In  In13  1  0.55555556  0.33333333  0.02083333  1.0
  In  In14  1  0.55555556  0.66666667  0.02083333  1.0
  In  In15  1  0.88888889  0.00000000  0.02083333  1.0
  In  In16  1  0.88888889  0.33333333  0.02083333  1.0
  In  In17  1  0.88888889  0.66666667  0.02083333  1.0
  In  In18  1  0.11111111  0.00000000  0.02083333  1.0
  In  In19  1  0.11111111  0.33333333  0.02083333  1.0
  In  In20  1  0.11111111  0.66666667  0.02083333  1.0
  In  In21  1  0.44444444  0.00000000  0.02083333  1.0
  In  In22  1  0.44444444  0.33333333  0.02083333  1.0
  In  In23  1  0.44444444  0.66666667  0.02083333  1.0
  In  In24  1  0.77777778  0.00000000  0.02083333  1.0
  In  In25  1  0.77777778  0.33333333  0.02083333  1.0
  In  In26  1  0.77777778  0.66666667  0.02083333  1.0
  Ni  Ni27  1  0.00000000  0.16666667  0.02083333  1.0
  Ni  Ni28  1  0.00000000  0.50000000  0.02083333  1.0
  Ni  Ni29  1  0.00000000  0.83333333  0.02083333  1.0
  Ni  Ni30  1  0.33333333  0.16666667  0.02083333  1.0
  Ni  Ni31  1  0.33333333  0.50000000  0.02083333  1.0
  Ni  Ni32  1  0.33333333  0.83333333  0.02083333  1.0
  Ni  Ni33  1  0.66666667  0.16666667  0.02083333  1.0
  Ni  Ni34  1  0.66666667  0.50000000  0.02083333  1.0
  Ni  Ni35  1  0.66666667  0.83333333  0.02083333  1.0
  Ni  Ni36  1  0.16666667  0.16666667  0.02083333  1.0
  Ni  Ni37  1  0.16666667  0.50000000  0.02083333  1.0
  Ni  Ni38  1  0.16666667  0.83333333  0.02083333  1.0
  Ni  Ni39  1  0.50000000  0.16666667  0.02083333  1.0
  Ni  Ni40  1  0.50000000  0.50000000  0.02083333  1.0
  Ni  Ni41  1  0.50000000  0.83333333  0.02083333  1.0
  Ni  Ni42  1  0.83333333  0.16666667  0.02083333  1.0
  Ni  Ni43  1  0.83333333  0.50000000  0.02083333  1.0
  Ni  Ni44  1  0.83333333  0.83333333  0.02083333  1.0
  Ni  Ni45  1  0.16666667  0.00000000  0.06250000  1.0
  Ni  Ni46  1  0.16666667  0.33333333  0.06250000  1.0
  Ni  Ni47  1  0.16666667  0.66666667  0.06250000  1.0
  Ni  Ni48  1  0.50000000  0.00000000  0.06250000  1.0
  Ni  Ni49  1  0.50000000  0.33333333  0.06250000  1.0
  Ni  Ni50  1  0.50000000  0.66666667  0.06250000  1.0
  Ni  Ni51  1  0.83333333  0.00000000  0.06250000  1.0
  Ni  Ni52  1  0.83333333  0.33333333  0.06250000  1.0
  Ni  Ni53  1  0.83333333  0.66666667  0.06250000  1.0
  In  In54  1  0.00000000  0.00000000  0.14583333  1.0
  In  In55  1  0.00000000  0.33333333  0.14583333  1.0
  In  In56  1  0.00000000  0.66666667  0.14583333  1.0
  In  In57  1  0.33333333  0.00000000  0.14583333  1.0
  In  In58  1  0.33333333  0.33333333  0.14583333  1.0
  In  In59  1  0.33333333  0.66666667  0.14583333  1.0
  In  In60  1  0.66666667  0.00000000  0.14583333  1.0
  In  In61  1  0.66666667  0.33333333  0.14583333  1.0
  In  In62  1  0.66666667  0.66666667  0.14583333  1.0
  In  In63  1  0.22222222  0.00000000  0.10416667  1.0
  In  In64  1  0.22222222  0.33333333  0.10416667  1.0
  In  In65  1  0.22222222  0.66666667  0.10416667  1.0
  In  In66  1  0.55555556  0.00000000  0.10416667  1.0
  In  In67  1  0.55555556  0.33333333  0.10416667  1.0
  In  In68  1  0.55555556  0.66666667  0.10416667  1.0
  In  In69  1  0.88888889  0.00000000  0.10416667  1.0
  In  In70  1  0.88888889  0.33333333  0.10416667  1.0
  In  In71  1  0.88888889  0.66666667  0.10416667  1.0
  In  In72  1  0.11111111  0.00000000  0.10416667  1.0
  In  In73  1  0.11111111  0.33333333  0.10416667  1.0
  In  In74  1  0.11111111  0.66666667  0.10416667  1.0
  In  In75  1  0.44444444  0.00000000  0.10416667  1.0
  In  In76  1  0.44444444  0.33333333  0.10416667  1.0
  In  In77  1  0.44444444  0.66666667  0.10416667  1.0
  In  In78  1  0.77777778  0.00000000  0.10416667  1.0
  In  In79  1  0.77777778  0.33333333  0.10416667  1.0
  In  In80  1  0.77777778  0.66666667  0.10416667  1.0
  Ni  Ni81  1  0.00000000  0.16666667  0.10416667  1.0
  Ni  Ni82  1  0.00000000  0.50000000  0.10416667  1.0
  Ni  Ni83  1  0.00000000  0.83333333  0.10416667  1.0
  Ni  Ni84  1  0.33333333  0.16666667  0.10416667  1.0
  Ni  Ni85  1  0.33333333  0.50000000  0.10416667  1.0
  Ni  Ni86  1  0.33333333  0.83333333  0.10416667  1.0
  Ni  Ni87  1  0.66666667  0.16666667  0.10416667  1.0
  Ni  Ni88  1  0.66666667  0.50000000  0.10416667  1.0
  Ni  Ni89  1  0.66666667  0.83333333  0.10416667  1.0
  Ni  Ni90  1  0.16666667  0.16666667  0.10416667  1.0
  Ni  Ni91  1  0.16666667  0.50000000  0.10416667  1.0
  Ni  Ni92  1  0.16666667  0.83333333  0.10416667  1.0
  Ni  Ni93  1  0.50000000  0.16666667  0.10416667  1.0
  Ni  Ni94  1  0.50000000  0.50000000  0.10416667  1.0
  Ni  Ni95  1  0.50000000  0.83333333  0.10416667  1.0
  Ni  Ni96  1  0.83333333  0.16666667  0.10416667  1.0
  Ni  Ni97  1  0.83333333  0.50000000  0.10416667  1.0
  Ni  Ni98  1  0.83333333  0.83333333  0.10416667  1.0
  Ni  Ni99  1  0.16666667  0.00000000  0.14583333  1.0
  Ni  Ni100  1  0.16666667  0.33333333  0.14583333  1.0
  Ni  Ni101  1  0.16666667  0.66666667  0.14583333  1.0
  Ni  Ni102  1  0.50000000  0.00000000  0.14583333  1.0
  Ni  Ni103  1  0.50000000  0.33333333  0.14583333  1.0
  Ni  Ni104  1  0.50000000  0.66666667  0.14583333  1.0
  Ni  Ni105  1  0.83333333  0.00000000  0.14583333  1.0
  Ni  Ni106  1  0.83333333  0.33333333  0.14583333  1.0
  Ni  Ni107  1  0.83333333  0.66666667  0.14583333  1.0
  In  In108  1  0.00000000  0.00000000  0.22916667  1.0
  In  In109  1  0.00000000  0.33333333  0.22916667  1.0
  In  In110  1  0.00000000  0.66666667  0.22916667  1.0
  In  In111  1  0.33333333  0.00000000  0.22916667  1.0
  In  In112  1  0.33333333  0.33333333  0.22916667  1.0
  In  In113  1  0.33333333  0.66666667  0.22916667  1.0
  In  In114  1  0.66666667  0.00000000  0.22916667  1.0
  In  In115  1  0.66666667  0.33333333  0.22916667  1.0
  In  In116  1  0.66666667  0.66666667  0.22916667  1.0
  In  In117  1  0.22222222  0.00000000  0.18750000  1.0
  In  In118  1  0.22222222  0.33333333  0.18750000  1.0
  In  In119  1  0.22222222  0.66666667  0.18750000  1.0
  In  In120  1  0.55555556  0.00000000  0.18750000  1.0
  In  In121  1  0.55555556  0.33333333  0.18750000  1.0
  In  In122  1  0.55555556  0.66666667  0.18750000  1.0
  In  In123  1  0.88888889  0.00000000  0.18750000  1.0
  In  In124  1  0.88888889  0.33333333  0.18750000  1.0
  In  In125  1  0.88888889  0.66666667  0.18750000  1.0
  In  In126  1  0.11111111  0.00000000  0.18750000  1.0
  In  In127  1  0.11111111  0.33333333  0.18750000  1.0
  In  In128  1  0.11111111  0.66666667  0.18750000  1.0
  In  In129  1  0.44444444  0.00000000  0.18750000  1.0
  In  In130  1  0.44444444  0.33333333  0.18750000  1.0
  In  In131  1  0.44444444  0.66666667  0.18750000  1.0
  In  In132  1  0.77777778  0.00000000  0.18750000  1.0
  In  In133  1  0.77777778  0.33333333  0.18750000  1.0
  In  In134  1  0.77777778  0.66666667  0.18750000  1.0
  Ni  Ni135  1  0.00000000  0.16666667  0.18750000  1.0
  Ni  Ni136  1  0.00000000  0.50000000  0.18750000  1.0
  Ni  Ni137  1  0.00000000  0.83333333  0.18750000  1.0
  Ni  Ni138  1  0.33333333  0.16666667  0.18750000  1.0
  Ni  Ni139  1  0.33333333  0.50000000  0.18750000  1.0
  Ni  Ni140  1  0.33333333  0.83333333  0.18750000  1.0
  Ni  Ni141  1  0.66666667  0.16666667  0.18750000  1.0
  Ni  Ni142  1  0.66666667  0.50000000  0.18750000  1.0
  Ni  Ni143  1  0.66666667  0.83333333  0.18750000  1.0
  Ni  Ni144  1  0.16666667  0.16666667  0.18750000  1.0
  Ni  Ni145  1  0.16666667  0.50000000  0.18750000  1.0
  Ni  Ni146  1  0.16666667  0.83333333  0.18750000  1.0
  Ni  Ni147  1  0.50000000  0.16666667  0.18750000  1.0
  Ni  Ni148  1  0.50000000  0.50000000  0.18750000  1.0
  Ni  Ni149  1  0.50000000  0.83333333  0.18750000  1.0
  Ni  Ni150  1  0.83333333  0.16666667  0.18750000  1.0
  Ni  Ni151  1  0.83333333  0.50000000  0.18750000  1.0
  Ni  Ni152  1  0.83333333  0.83333333  0.18750000  1.0
  Ni  Ni153  1  0.16666667  0.00000000  0.22916667  1.0
  Ni  Ni154  1  0.16666667  0.33333333  0.22916667  1.0
  Ni  Ni155  1  0.16666667  0.66666667  0.22916667  1.0
  Ni  Ni156  1  0.50000000  0.00000000  0.22916667  1.0
  Ni  Ni157  1  0.50000000  0.33333333  0.22916667  1.0
  Ni  Ni158  1  0.50000000  0.66666667  0.22916667  1.0
  Ni  Ni159  1  0.83333333  0.00000000  0.22916667  1.0
  Ni  Ni160  1  0.83333333  0.33333333  0.22916667  1.0
  Ni  Ni161  1  0.83333333  0.66666667  0.22916667  1.0
  In  In162  1  0.00000000  0.00000000  0.31250000  1.0
  In  In163  1  0.00000000  0.33333333  0.31250000  1.0
  In  In164  1  0.00000000  0.66666667  0.31250000  1.0
  In  In165  1  0.33333333  0.00000000  0.31250000  1.0
  In  In166  1  0.33333333  0.33333333  0.31250000  1.0
  In  In167  1  0.33333333  0.66666667  0.31250000  1.0
  In  In168  1  0.66666667  0.00000000  0.31250000  1.0
  In  In169  1  0.66666667  0.33333333  0.31250000  1.0
  In  In170  1  0.66666667  0.66666667  0.31250000  1.0
  In  In171  1  0.22222222  0.00000000  0.27083333  1.0
  In  In172  1  0.22222222  0.33333333  0.27083333  1.0
  In  In173  1  0.22222222  0.66666667  0.27083333  1.0
  In  In174  1  0.55555556  0.00000000  0.27083333  1.0
  In  In175  1  0.55555556  0.33333333  0.27083333  1.0
  In  In176  1  0.55555556  0.66666667  0.27083333  1.0
  In  In177  1  0.88888889  0.00000000  0.27083333  1.0
  In  In178  1  0.88888889  0.33333333  0.27083333  1.0
  In  In179  1  0.88888889  0.66666667  0.27083333  1.0
  In  In180  1  0.11111111  0.00000000  0.27083333  1.0
  In  In181  1  0.11111111  0.33333333  0.27083333  1.0
  In  In182  1  0.11111111  0.66666667  0.27083333  1.0
  In  In183  1  0.44444444  0.00000000  0.27083333  1.0
  In  In184  1  0.44444444  0.33333333  0.27083333  1.0
  In  In185  1  0.44444444  0.66666667  0.27083333  1.0
  In  In186  1  0.77777778  0.00000000  0.27083333  1.0
  In  In187  1  0.77777778  0.33333333  0.27083333  1.0
  In  In188  1  0.77777778  0.66666667  0.27083333  1.0
  Ni  Ni189  1  0.00000000  0.16666667  0.27083333  1.0
  Ni  Ni190  1  0.00000000  0.50000000  0.27083333  1.0
  Ni  Ni191  1  0.00000000  0.83333333  0.27083333  1.0
  Ni  Ni192  1  0.33333333  0.16666667  0.27083333  1.0
  Ni  Ni193  1  0.33333333  0.50000000  0.27083333  1.0
  Ni  Ni194  1  0.33333333  0.83333333  0.27083333  1.0
  Ni  Ni195  1  0.66666667  0.16666667  0.27083333  1.0
  Ni  Ni196  1  0.66666667  0.50000000  0.27083333  1.0
  Ni  Ni197  1  0.66666667  0.83333333  0.27083333  1.0
  Ni  Ni198  1  0.16666667  0.16666667  0.27083333  1.0
  Ni  Ni199  1  0.16666667  0.50000000  0.27083333  1.0
  Ni  Ni200  1  0.16666667  0.83333333  0.27083333  1.0
  Ni  Ni201  1  0.50000000  0.16666667  0.27083333  1.0
  Ni  Ni202  1  0.50000000  0.50000000  0.27083333  1.0
  Ni  Ni203  1  0.50000000  0.83333333  0.27083333  1.0
  Ni  Ni204  1  0.83333333  0.16666667  0.27083333  1.0
  Ni  Ni205  1  0.83333333  0.50000000  0.27083333  1.0
  Ni  Ni206  1  0.83333333  0.83333333  0.27083333  1.0
  Ni  Ni207  1  0.16666667  0.00000000  0.31250000  1.0
  Ni  Ni208  1  0.16666667  0.33333333  0.31250000  1.0
  Ni  Ni209  1  0.16666667  0.66666667  0.31250000  1.0
  Ni  Ni210  1  0.50000000  0.00000000  0.31250000  1.0
  Ni  Ni211  1  0.50000000  0.33333333  0.31250000  1.0
  Ni  Ni212  1  0.50000000  0.66666667  0.31250000  1.0
  Ni  Ni213  1  0.83333333  0.00000000  0.31250000  1.0
  Ni  Ni214  1  0.83333333  0.33333333  0.31250000  1.0
  Ni  Ni215  1  0.83333333  0.66666667  0.31250000  1.0
  In  In216  1  0.00000000  0.00000000  0.39583333  1.0
  In  In217  1  0.00000000  0.33333333  0.39583333  1.0
  In  In218  1  0.00000000  0.66666667  0.39583333  1.0
  In  In219  1  0.33333333  0.00000000  0.39583333  1.0
  In  In220  1  0.33333333  0.33333333  0.39583333  1.0
  In  In221  1  0.33333333  0.66666667  0.39583333  1.0
  In  In222  1  0.66666667  0.00000000  0.39583333  1.0
  In  In223  1  0.66666667  0.33333333  0.39583333  1.0
  In  In224  1  0.66666667  0.66666667  0.39583333  1.0
  In  In225  1  0.22222222  0.00000000  0.35416667  1.0
  In  In226  1  0.22222222  0.33333333  0.35416667  1.0
  In  In227  1  0.22222222  0.66666667  0.35416667  1.0
  In  In228  1  0.55555556  0.00000000  0.35416667  1.0
  In  In229  1  0.55555556  0.33333333  0.35416667  1.0
  In  In230  1  0.55555556  0.66666667  0.35416667  1.0
  In  In231  1  0.88888889  0.00000000  0.35416667  1.0
  In  In232  1  0.88888889  0.33333333  0.35416667  1.0
  In  In233  1  0.88888889  0.66666667  0.35416667  1.0
  In  In234  1  0.11111111  0.00000000  0.35416667  1.0
  In  In235  1  0.11111111  0.33333333  0.35416667  1.0
  In  In236  1  0.11111111  0.66666667  0.35416667  1.0
  In  In237  1  0.44444444  0.00000000  0.35416667  1.0
  In  In238  1  0.44444444  0.33333333  0.35416667  1.0
  In  In239  1  0.44444444  0.66666667  0.35416667  1.0
  In  In240  1  0.77777778  0.00000000  0.35416667  1.0
  In  In241  1  0.77777778  0.33333333  0.35416667  1.0
  In  In242  1  0.77777778  0.66666667  0.35416667  1.0
  Ni  Ni243  1  0.00000000  0.16666667  0.35416667  1.0
  Ni  Ni244  1  0.00000000  0.50000000  0.35416667  1.0
  Ni  Ni245  1  0.00000000  0.83333333  0.35416667  1.0
  Ni  Ni246  1  0.33333333  0.16666667  0.35416667  1.0
  Ni  Ni247  1  0.33333333  0.50000000  0.35416667  1.0
  Ni  Ni248  1  0.33333333  0.83333333  0.35416667  1.0
  Ni  Ni249  1  0.66666667  0.16666667  0.35416667  1.0
  Ni  Ni250  1  0.66666667  0.50000000  0.35416667  1.0
  Ni  Ni251  1  0.66666667  0.83333333  0.35416667  1.0
  Ni  Ni252  1  0.16666667  0.16666667  0.35416667  1.0
  Ni  Ni253  1  0.16666667  0.50000000  0.35416667  1.0
  Ni  Ni254  1  0.16666667  0.83333333  0.35416667  1.0
  Ni  Ni255  1  0.50000000  0.16666667  0.35416667  1.0
  Ni  Ni256  1  0.50000000  0.50000000  0.35416667  1.0
  Ni  Ni257  1  0.50000000  0.83333333  0.35416667  1.0
  Ni  Ni258  1  0.83333333  0.16666667  0.35416667  1.0
  Ni  Ni259  1  0.83333333  0.50000000  0.35416667  1.0
  Ni  Ni260  1  0.83333333  0.83333333  0.35416667  1.0
  Ni  Ni261  1  0.16666667  0.00000000  0.39583333  1.0
  Ni  Ni262  1  0.16666667  0.33333333  0.39583333  1.0
  Ni  Ni263  1  0.16666667  0.66666667  0.39583333  1.0
  Ni  Ni264  1  0.50000000  0.00000000  0.39583333  1.0
  Ni  Ni265  1  0.50000000  0.33333333  0.39583333  1.0
  Ni  Ni266  1  0.50000000  0.66666667  0.39583333  1.0
  Ni  Ni267  1  0.83333333  0.00000000  0.39583333  1.0
  Ni  Ni268  1  0.83333333  0.33333333  0.39583333  1.0
  Ni  Ni269  1  0.83333333  0.66666667  0.39583333  1.0
