# generated using pymatgen
data_InNi2
_symmetry_space_group_name_H-M   'P 1'
_cell_length_a   12.92208105
_cell_length_b   12.92208105
_cell_length_c   26.26578500
_cell_angle_alpha   90.00000000
_cell_angle_beta   90.00000000
_cell_angle_gamma   120.00000000
_symmetry_Int_Tables_number   1
_chemical_formula_structural   InNi2
_chemical_formula_sum   'In36 Ni72'
_cell_volume   3798.27091635
_cell_formula_units_Z   36
loop_
 _symmetry_equiv_pos_site_id
 _symmetry_equiv_pos_as_xyz
  1  'x, y, z'
loop_
 _atom_site_type_symbol
 _atom_site_label
 _atom_site_symmetry_multiplicity
 _atom_site_fract_x
 _atom_site_fract_y
 _atom_site_fract_z
 _atom_site_occupancy
  In  In0  1  0.22222222  0.11111111  0.12500000  1.0
  In  In1  1  0.22222222  0.44444444  0.12500000  1.0
  In  In2  1  0.22222222  0.77777778  0.12500000  1.0
  In  In3  1  0.55555556  0.11111111  0.12500000  1.0
  In  In4  1  0.55555556  0.44444444  0.12500000  1.0
  In  In5  1  0.55555556  0.77777778  0.12500000  1.0
  In  In6  1  0.88888889  0.11111111  0.12500000  1.0
  In  In7  1  0.88888889  0.44444444  0.12500000  1.0
  In  In8  1  0.88888889  0.77777778  0.12500000  1.0
  In  In9  1  0.11111111  0.22222222  0.02500000  1.0
  In  In10  1  0.11111111  0.55555556  0.02500000  1.0
  In  In11  1  0.11111111  0.88888889  0.02500000  1.0
  In  In12  1  0.44444444  0.22222222  0.02500000  1.0
  In  In13  1  0.44444444  0.55555556  0.02500000  1.0
  In  In14  1  0.44444444  0.88888889  0.02500000  1.0
  In  In15  1  0.77777778  0.22222222  0.02500000  1.0
  In  In16  1  0.77777778  0.55555556  0.02500000  1.0
  In  In17  1  0.77777778  0.88888889  0.02500000  1.0
  Ni  Ni18  1  0.00000000  0.00000000  0.17500000  1.0
  Ni  Ni19  1  0.00000000  0.33333333  0.17500000  1.0
  Ni  Ni20  1  0.00000000  0.66666667  0.17500000  1.0
  Ni  Ni21  1  0.33333333  0.00000000  0.17500000  1.0
  Ni  Ni22  1  0.33333333  0.33333333  0.17500000  1.0
  Ni  Ni23  1  0.33333333  0.66666667  0.17500000  1.0
  Ni  Ni24  1  0.66666667  0.00000000  0.17500000  1.0
  Ni  Ni25  1  0.66666667  0.33333333  0.17500000  1.0
  Ni  Ni26  1  0.66666667  0.66666667  0.17500000  1.0
  Ni  Ni27  1  0.00000000  0.00000000  0.07500000  1.0
  Ni  Ni28  1  0.00000000  0.33333333  0.07500000  1.0
  Ni  Ni29  1  0.00000000  0.66666667  0.07500000  1.0
  Ni  Ni30  1  0.33333333  0.00000000  0.07500000  1.0
  Ni  Ni31  1  0.33333333  0.33333333  0.07500000  1.0
  Ni  Ni32  1  0.33333333  0.66666667  0.07500000  1.0
  Ni  Ni33  1  0.66666667  0.00000000  0.07500000  1.0
  Ni  Ni34  1  0.66666667  0.33333333  0.07500000  1.0
  Ni  Ni35  1  0.66666667  0.66666667  0.07500000  1.0
  Ni  Ni36  1  0.22222222  0.11111111  0.02500000  1.0
  Ni  Ni37  1  0.22222222  0.44444444  0.02500000  1.0
  Ni  Ni38  1  0.22222222  0.77777778  0.02500000  1.0
  Ni  Ni39  1  0.55555556  0.11111111  0.02500000  1.0
  Ni  Ni40  1  0.55555556  0.44444444  0.02500000  1.0
  Ni  Ni41  1  0.55555556  0.77777778  0.02500000  1.0
  Ni  Ni42  1  0.88888889  0.11111111  0.02500000  1.0
  Ni  Ni43  1  0.88888889  0.44444444  0.02500000  1.0
  Ni  Ni44  1  0.88888889  0.77777778  0.02500000  1.0
  Ni  Ni45  1  0.11111111  0.22222222  0.12500000  1.0
  Ni  Ni46  1  0.11111111  0.55555556  0.12500000  1.0
  Ni  Ni47  1  0.11111111  0.88888889  0.12500000  1.0
  Ni  Ni48  1  0.44444444  0.22222222  0.12500000  1.0
  Ni  Ni49  1  0.44444444  0.55555556  0.12500000  1.0
  Ni  Ni50  1  0.44444444  0.88888889  0.12500000  1.0
  Ni  Ni51  1  0.77777778  0.22222222  0.12500000  1.0
  Ni  Ni52  1  0.77777778  0.55555556  0.12500000  1.0
  Ni  Ni53  1  0.77777778  0.88888889  0.12500000  1.0
  In  In54  1  0.22222222  0.11111111  0.32500000  1.0
  In  In55  1  0.22222222  0.44444444  0.32500000  1.0
  In  In56  1  0.22222222  0.77777778  0.32500000  1.0
  In  In57  1  0.55555556  0.11111111  0.32500000  1.0
  In  In58  1  0.55555556  0.44444444  0.32500000  1.0
  In  In59  1  0.55555556  0.77777778  0.32500000  1.0
  In  In60  1  0.88888889  0.11111111  0.32500000  1.0
  In  In61  1  0.88888889  0.44444444  0.32500000  1.0
  In  In62  1  0.88888889  0.77777778  0.32500000  1.0
  In  In63  1  0.11111111  0.22222222  0.22500000  1.0
  In  In64  1  0.11111111  0.55555556  0.22500000  1.0
  In  In65  1  0.11111111  0.88888889  0.22500000  1.0
  In  In66  1  0.44444444  0.22222222  0.22500000  1.0
  In  In67  1  0.44444444  0.55555556  0.22500000  1.0
  In  In68  1  0.44444444  0.88888889  0.22500000  1.0
  In  In69  1  0.77777778  0.22222222  0.22500000  1.0
  In  In70  1  0.77777778  0.55555556  0.22500000  1.0
  In  In71  1  0.77777778  0.88888889  0.22500000  1.0
  Ni  Ni72  1  0.00000000  0.00000000  0.37500000  1.0
  Ni  Ni73  1  0.00000000  0.33333333  0.37500000  1.0
  Ni  Ni74  1  0.00000000  0.66666667  0.37500000  1.0
  Ni  Ni75  1  0.33333333  0.00000000  0.37500000  1.0
  Ni  Ni76  1  0.33333333  0.33333333  0.37500000  1.0
  Ni  Ni77  1  0.33333333  0.66666667  0.37500000  1.0
  Ni  Ni78  1  0.66666667  0.00000000  0.37500000  1.0
  Ni  Ni79  1  0.66666667  0.33333333  0.37500000  1.0
  Ni  Ni80  1  0.66666667  0.66666667  0.37500000  1.0
  Ni  Ni81  1  0.00000000  0.00000000  0.27500000  1.0
  Ni  Ni82  1  0.00000000  0.33333333  0.27500000  1.0
  Ni  Ni83  1  0.00000000  0.66666667  0.27500000  1.0
  Ni  Ni84  1  0.33333333  0.00000000  0.27500000  1.0
  Ni  Ni85  1  0.33333333  0.33333333  0.27500000  1.0
  Ni  Ni86  1  0.33333333  0.66666667  0.27500000  1.0
  Ni  Ni87  1  0.66666667  0.00000000  0.27500000  1.0
  Ni  Ni88  1  0.66666667  0.33333333  0.27500000  1.0
  Ni  Ni89  1  0.66666667  0.66666667  0.27500000  1.0
  Ni  Ni90  1  0.22222222  0.11111111  0.22500000  1.0
  Ni  Ni91  1  0.22222222  0.44444444  0.22500000  1.0
  Ni  Ni92  1  0.22222222  0.77777778  0.22500000  1.0
  Ni  Ni93  1  0.55555556  0.11111111  0.22500000  1.0
  Ni  Ni94  1  0.55555556  0.44444444  0.22500000  1.0
  Ni  Ni95  1  0.55555556  0.77777778  0.22500000  1.0
  Ni  Ni96  1  0.88888889  0.11111111  0.22500000  1.0
  Ni  Ni97  1  0.88888889  0.44444444  0.22500000  1.0
  Ni  Ni98  1  0.88888889  0.77777778  0.22500000  1.0
  Ni  Ni99  1  0.11111111  0.22222222  0.32500000  1.0
  Ni  Ni100  1  0.11111111  0.55555556  0.32500000  1.0
  Ni  Ni101  1  0.11111111  0.88888889  0.32500000  1.0
  Ni  Ni102  1  0.44444444  0.22222222  0.32500000  1.0
  Ni  Ni103  1  0.44444444  0.55555556  0.32500000  1.0
  Ni  Ni104  1  0.44444444  0.88888889  0.32500000  1.0
  Ni  Ni105  1  0.77777778  0.22222222  0.32500000  1.0
  Ni  Ni106  1  0.77777778  0.55555556  0.32500000  1.0
  Ni  Ni107  1  0.77777778  0.88888889  0.32500000  1.0
