# generated using pymatgen
data_InNi
_symmetry_space_group_name_H-M   'P 1'
_cell_length_a   41.84629657
_cell_length_b   20.54902937
_cell_length_c   43.72943000
_cell_angle_alpha   50.32619473
_cell_angle_beta   90.00000000
_cell_angle_gamma   54.42049438
_symmetry_Int_Tables_number   1
_chemical_formula_structural   InNi
_chemical_formula_sum   'In216 Ni216'
_cell_volume   18947.43653509
_cell_formula_units_Z   216
loop_
 _symmetry_equiv_pos_site_id
 _symmetry_equiv_pos_as_xyz
  1  'x, y, z'
loop_
 _atom_site_type_symbol
 _atom_site_label
 _atom_site_symmetry_multiplicity
 _atom_site_fract_x
 _atom_site_fract_y
 _atom_site_fract_z
 _atom_site_occupancy
  In  In0  1  0.16666667  0.16666667  0.04166667  1.0
  In  In1  1  0.16666667  0.50000000  0.04166667  1.0
  In  In2  1  0.16666667  0.83333333  0.04166667  1.0
  In  In3  1  0.50000000  0.16666667  0.04166667  1.0
  In  In4  1  0.50000000  0.50000000  0.04166667  1.0
  In  In5  1  0.50000000  0.83333333  0.04166667  1.0
  In  In6  1  0.83333333  0.16666667  0.04166667  1.0
  In  In7  1  0.83333333  0.50000000  0.04166667  1.0
  In  In8  1  0.83333333  0.83333333  0.04166667  1.0
  In  In9  1  0.00000000  0.00000000  0.09166667  1.0
  In  In10  1  0.00000000  0.33333333  0.09166667  1.0
  In  In11  1  0.00000000  0.66666667  0.09166667  1.0
  In  In12  1  0.33333333  0.00000000  0.09166667  1.0
  In  In13  1  0.33333333  0.33333333  0.09166667  1.0
  In  In14  1  0.33333333  0.66666667  0.09166667  1.0
  In  In15  1  0.66666667  0.00000000  0.09166667  1.0
  In  In16  1  0.66666667  0.33333333  0.09166667  1.0
  In  In17  1  0.66666667  0.66666667  0.09166667  1.0
  In  In18  1  0.27777778  0.27777778  0.05833333  1.0
  In  In19  1  0.27777778  0.61111111  0.05833333  1.0
  In  In20  1  0.27777778  0.94444444  0.05833333  1.0
  In  In21  1  0.61111111  0.27777778  0.05833333  1.0
  In  In22  1  0.61111111  0.61111111  0.05833333  1.0
  In  In23  1  0.61111111  0.94444444  0.05833333  1.0
  In  In24  1  0.94444444  0.27777778  0.05833333  1.0
  In  In25  1  0.94444444  0.61111111  0.05833333  1.0
  In  In26  1  0.94444444  0.94444444  0.05833333  1.0
  In  In27  1  0.11111111  0.11111111  0.00833333  1.0
  In  In28  1  0.11111111  0.44444444  0.00833333  1.0
  In  In29  1  0.11111111  0.77777778  0.00833333  1.0
  In  In30  1  0.44444444  0.11111111  0.00833333  1.0
  In  In31  1  0.44444444  0.44444444  0.00833333  1.0
  In  In32  1  0.44444444  0.77777778  0.00833333  1.0
  In  In33  1  0.77777778  0.11111111  0.00833333  1.0
  In  In34  1  0.77777778  0.44444444  0.00833333  1.0
  In  In35  1  0.77777778  0.77777778  0.00833333  1.0
  In  In36  1  0.22222222  0.22222222  0.07500000  1.0
  In  In37  1  0.22222222  0.55555556  0.07500000  1.0
  In  In38  1  0.22222222  0.88888889  0.07500000  1.0
  In  In39  1  0.55555556  0.22222222  0.07500000  1.0
  In  In40  1  0.55555556  0.55555556  0.07500000  1.0
  In  In41  1  0.55555556  0.88888889  0.07500000  1.0
  In  In42  1  0.88888889  0.22222222  0.07500000  1.0
  In  In43  1  0.88888889  0.55555556  0.07500000  1.0
  In  In44  1  0.88888889  0.88888889  0.07500000  1.0
  In  In45  1  0.05555556  0.05555556  0.02500000  1.0
  In  In46  1  0.05555556  0.38888889  0.02500000  1.0
  In  In47  1  0.05555556  0.72222222  0.02500000  1.0
  In  In48  1  0.38888889  0.05555556  0.02500000  1.0
  In  In49  1  0.38888889  0.38888889  0.02500000  1.0
  In  In50  1  0.38888889  0.72222222  0.02500000  1.0
  In  In51  1  0.72222222  0.05555556  0.02500000  1.0
  In  In52  1  0.72222222  0.38888889  0.02500000  1.0
  In  In53  1  0.72222222  0.72222222  0.02500000  1.0
  Ni  Ni54  1  0.16666667  0.00000000  0.09166667  1.0
  Ni  Ni55  1  0.16666667  0.33333333  0.09166667  1.0
  Ni  Ni56  1  0.16666667  0.66666667  0.09166667  1.0
  Ni  Ni57  1  0.50000000  0.00000000  0.09166667  1.0
  Ni  Ni58  1  0.50000000  0.33333333  0.09166667  1.0
  Ni  Ni59  1  0.50000000  0.66666667  0.09166667  1.0
  Ni  Ni60  1  0.83333333  0.00000000  0.09166667  1.0
  Ni  Ni61  1  0.83333333  0.33333333  0.09166667  1.0
  Ni  Ni62  1  0.83333333  0.66666667  0.09166667  1.0
  Ni  Ni63  1  0.00000000  0.16666667  0.04166667  1.0
  Ni  Ni64  1  0.00000000  0.50000000  0.04166667  1.0
  Ni  Ni65  1  0.00000000  0.83333333  0.04166667  1.0
  Ni  Ni66  1  0.33333333  0.16666667  0.04166667  1.0
  Ni  Ni67  1  0.33333333  0.50000000  0.04166667  1.0
  Ni  Ni68  1  0.33333333  0.83333333  0.04166667  1.0
  Ni  Ni69  1  0.66666667  0.16666667  0.04166667  1.0
  Ni  Ni70  1  0.66666667  0.50000000  0.04166667  1.0
  Ni  Ni71  1  0.66666667  0.83333333  0.04166667  1.0
  Ni  Ni72  1  0.25000000  0.08333333  0.06666667  1.0
  Ni  Ni73  1  0.25000000  0.41666667  0.06666667  1.0
  Ni  Ni74  1  0.25000000  0.75000000  0.06666667  1.0
  Ni  Ni75  1  0.58333333  0.08333333  0.06666667  1.0
  Ni  Ni76  1  0.58333333  0.41666667  0.06666667  1.0
  Ni  Ni77  1  0.58333333  0.75000000  0.06666667  1.0
  Ni  Ni78  1  0.91666667  0.08333333  0.06666667  1.0
  Ni  Ni79  1  0.91666667  0.41666667  0.06666667  1.0
  Ni  Ni80  1  0.91666667  0.75000000  0.06666667  1.0
  Ni  Ni81  1  0.08333333  0.25000000  0.01666667  1.0
  Ni  Ni82  1  0.08333333  0.58333333  0.01666667  1.0
  Ni  Ni83  1  0.08333333  0.91666667  0.01666667  1.0
  Ni  Ni84  1  0.41666667  0.25000000  0.01666667  1.0
  Ni  Ni85  1  0.41666667  0.58333333  0.01666667  1.0
  Ni  Ni86  1  0.41666667  0.91666667  0.01666667  1.0
  Ni  Ni87  1  0.75000000  0.25000000  0.01666667  1.0
  Ni  Ni88  1  0.75000000  0.58333333  0.01666667  1.0
  Ni  Ni89  1  0.75000000  0.91666667  0.01666667  1.0
  Ni  Ni90  1  0.25000000  0.25000000  0.01666667  1.0
  Ni  Ni91  1  0.25000000  0.58333333  0.01666667  1.0
  Ni  Ni92  1  0.25000000  0.91666667  0.01666667  1.0
  Ni  Ni93  1  0.58333333  0.25000000  0.01666667  1.0
  Ni  Ni94  1  0.58333333  0.58333333  0.01666667  1.0
  Ni  Ni95  1  0.58333333  0.91666667  0.01666667  1.0
  Ni  Ni96  1  0.91666667  0.25000000  0.01666667  1.0
  Ni  Ni97  1  0.91666667  0.58333333  0.01666667  1.0
  Ni  Ni98  1  0.91666667  0.91666667  0.01666667  1.0
  Ni  Ni99  1  0.08333333  0.08333333  0.06666667  1.0
  Ni  Ni100  1  0.08333333  0.41666667  0.06666667  1.0
  Ni  Ni101  1  0.08333333  0.75000000  0.06666667  1.0
  Ni  Ni102  1  0.41666667  0.08333333  0.06666667  1.0
  Ni  Ni103  1  0.41666667  0.41666667  0.06666667  1.0
  Ni  Ni104  1  0.41666667  0.75000000  0.06666667  1.0
  Ni  Ni105  1  0.75000000  0.08333333  0.06666667  1.0
  Ni  Ni106  1  0.75000000  0.41666667  0.06666667  1.0
  Ni  Ni107  1  0.75000000  0.75000000  0.06666667  1.0
  In  In108  1  0.16666667  0.16666667  0.14166667  1.0
  In  In109  1  0.16666667  0.50000000  0.14166667  1.0
  In  In110  1  0.16666667  0.83333333  0.14166667  1.0
  In  In111  1  0.50000000  0.16666667  0.14166667  1.0
  In  In112  1  0.50000000  0.50000000  0.14166667  1.0
  In  In113  1  0.50000000  0.83333333  0.14166667  1.0
  In  In114  1  0.83333333  0.16666667  0.14166667  1.0
  In  In115  1  0.83333333  0.50000000  0.14166667  1.0
  In  In116  1  0.83333333  0.83333333  0.14166667  1.0
  In  In117  1  0.00000000  0.00000000  0.19166667  1.0
  In  In118  1  0.00000000  0.33333333  0.19166667  1.0
  In  In119  1  0.00000000  0.66666667  0.19166667  1.0
  In  In120  1  0.33333333  0.00000000  0.19166667  1.0
  In  In121  1  0.33333333  0.33333333  0.19166667  1.0
  In  In122  1  0.33333333  0.66666667  0.19166667  1.0
  In  In123  1  0.66666667  0.00000000  0.19166667  1.0
  In  In124  1  0.66666667  0.33333333  0.19166667  1.0
  In  In125  1  0.66666667  0.66666667  0.19166667  1.0
  In  In126  1  0.27777778  0.27777778  0.15833333  1.0
  In  In127  1  0.27777778  0.61111111  0.15833333  1.0
  In  In128  1  0.27777778  0.94444444  0.15833333  1.0
  In  In129  1  0.61111111  0.27777778  0.15833333  1.0
  In  In130  1  0.61111111  0.61111111  0.15833333  1.0
  In  In131  1  0.61111111  0.94444444  0.15833333  1.0
  In  In132  1  0.94444444  0.27777778  0.15833333  1.0
  In  In133  1  0.94444444  0.61111111  0.15833333  1.0
  In  In134  1  0.94444444  0.94444444  0.15833333  1.0
  In  In135  1  0.11111111  0.11111111  0.10833333  1.0
  In  In136  1  0.11111111  0.44444444  0.10833333  1.0
  In  In137  1  0.11111111  0.77777778  0.10833333  1.0
  In  In138  1  0.44444444  0.11111111  0.10833333  1.0
  In  In139  1  0.44444444  0.44444444  0.10833333  1.0
  In  In140  1  0.44444444  0.77777778  0.10833333  1.0
  In  In141  1  0.77777778  0.11111111  0.10833333  1.0
  In  In142  1  0.77777778  0.44444444  0.10833333  1.0
  In  In143  1  0.77777778  0.77777778  0.10833333  1.0
  In  In144  1  0.22222222  0.22222222  0.17500000  1.0
  In  In145  1  0.22222222  0.55555556  0.17500000  1.0
  In  In146  1  0.22222222  0.88888889  0.17500000  1.0
  In  In147  1  0.55555556  0.22222222  0.17500000  1.0
  In  In148  1  0.55555556  0.55555556  0.17500000  1.0
  In  In149  1  0.55555556  0.88888889  0.17500000  1.0
  In  In150  1  0.88888889  0.22222222  0.17500000  1.0
  In  In151  1  0.88888889  0.55555556  0.17500000  1.0
  In  In152  1  0.88888889  0.88888889  0.17500000  1.0
  In  In153  1  0.05555556  0.05555556  0.12500000  1.0
  In  In154  1  0.05555556  0.38888889  0.12500000  1.0
  In  In155  1  0.05555556  0.72222222  0.12500000  1.0
  In  In156  1  0.38888889  0.05555556  0.12500000  1.0
  In  In157  1  0.38888889  0.38888889  0.12500000  1.0
  In  In158  1  0.38888889  0.72222222  0.12500000  1.0
  In  In159  1  0.72222222  0.05555556  0.12500000  1.0
  In  In160  1  0.72222222  0.38888889  0.12500000  1.0
  In  In161  1  0.72222222  0.72222222  0.12500000  1.0
  Ni  Ni162  1  0.16666667  0.00000000  0.19166667  1.0
  Ni  Ni163  1  0.16666667  0.33333333  0.19166667  1.0
  Ni  Ni164  1  0.16666667  0.66666667  0.19166667  1.0
  Ni  Ni165  1  0.50000000  0.00000000  0.19166667  1.0
  Ni  Ni166  1  0.50000000  0.33333333  0.19166667  1.0
  Ni  Ni167  1  0.50000000  0.66666667  0.19166667  1.0
  Ni  Ni168  1  0.83333333  0.00000000  0.19166667  1.0
  Ni  Ni169  1  0.83333333  0.33333333  0.19166667  1.0
  Ni  Ni170  1  0.83333333  0.66666667  0.19166667  1.0
  Ni  Ni171  1  0.00000000  0.16666667  0.14166667  1.0
  Ni  Ni172  1  0.00000000  0.50000000  0.14166667  1.0
  Ni  Ni173  1  0.00000000  0.83333333  0.14166667  1.0
  Ni  Ni174  1  0.33333333  0.16666667  0.14166667  1.0
  Ni  Ni175  1  0.33333333  0.50000000  0.14166667  1.0
  Ni  Ni176  1  0.33333333  0.83333333  0.14166667  1.0
  Ni  Ni177  1  0.66666667  0.16666667  0.14166667  1.0
  Ni  Ni178  1  0.66666667  0.50000000  0.14166667  1.0
  Ni  Ni179  1  0.66666667  0.83333333  0.14166667  1.0
  Ni  Ni180  1  0.25000000  0.08333333  0.16666667  1.0
  Ni  Ni181  1  0.25000000  0.41666667  0.16666667  1.0
  Ni  Ni182  1  0.25000000  0.75000000  0.16666667  1.0
  Ni  Ni183  1  0.58333333  0.08333333  0.16666667  1.0
  Ni  Ni184  1  0.58333333  0.41666667  0.16666667  1.0
  Ni  Ni185  1  0.58333333  0.75000000  0.16666667  1.0
  Ni  Ni186  1  0.91666667  0.08333333  0.16666667  1.0
  Ni  Ni187  1  0.91666667  0.41666667  0.16666667  1.0
  Ni  Ni188  1  0.91666667  0.75000000  0.16666667  1.0
  Ni  Ni189  1  0.08333333  0.25000000  0.11666667  1.0
  Ni  Ni190  1  0.08333333  0.58333333  0.11666667  1.0
  Ni  Ni191  1  0.08333333  0.91666667  0.11666667  1.0
  Ni  Ni192  1  0.41666667  0.25000000  0.11666667  1.0
  Ni  Ni193  1  0.41666667  0.58333333  0.11666667  1.0
  Ni  Ni194  1  0.41666667  0.91666667  0.11666667  1.0
  Ni  Ni195  1  0.75000000  0.25000000  0.11666667  1.0
  Ni  Ni196  1  0.75000000  0.58333333  0.11666667  1.0
  Ni  Ni197  1  0.75000000  0.91666667  0.11666667  1.0
  Ni  Ni198  1  0.25000000  0.25000000  0.11666667  1.0
  Ni  Ni199  1  0.25000000  0.58333333  0.11666667  1.0
  Ni  Ni200  1  0.25000000  0.91666667  0.11666667  1.0
  Ni  Ni201  1  0.58333333  0.25000000  0.11666667  1.0
  Ni  Ni202  1  0.58333333  0.58333333  0.11666667  1.0
  Ni  Ni203  1  0.58333333  0.91666667  0.11666667  1.0
  Ni  Ni204  1  0.91666667  0.25000000  0.11666667  1.0
  Ni  Ni205  1  0.91666667  0.58333333  0.11666667  1.0
  Ni  Ni206  1  0.91666667  0.91666667  0.11666667  1.0
  Ni  Ni207  1  0.08333333  0.08333333  0.16666667  1.0
  Ni  Ni208  1  0.08333333  0.41666667  0.16666667  1.0
  Ni  Ni209  1  0.08333333  0.75000000  0.16666667  1.0
  Ni  Ni210  1  0.41666667  0.08333333  0.16666667  1.0
  Ni  Ni211  1  0.41666667  0.41666667  0.16666667  1.0
  Ni  Ni212  1  0.41666667  0.75000000  0.16666667  1.0
  Ni  Ni213  1  0.75000000  0.08333333  0.16666667  1.0
  Ni  Ni214  1  0.75000000  0.41666667  0.16666667  1.0
  Ni  Ni215  1  0.75000000  0.75000000  0.16666667  1.0
  In  In216  1  0.16666667  0.16666667  0.24166667  1.0
  In  In217  1  0.16666667  0.50000000  0.24166667  1.0
  In  In218  1  0.16666667  0.83333333  0.24166667  1.0
  In  In219  1  0.50000000  0.16666667  0.24166667  1.0
  In  In220  1  0.50000000  0.50000000  0.24166667  1.0
  In  In221  1  0.50000000  0.83333333  0.24166667  1.0
  In  In222  1  0.83333333  0.16666667  0.24166667  1.0
  In  In223  1  0.83333333  0.50000000  0.24166667  1.0
  In  In224  1  0.83333333  0.83333333  0.24166667  1.0
  In  In225  1  0.00000000  0.00000000  0.29166667  1.0
  In  In226  1  0.00000000  0.33333333  0.29166667  1.0
  In  In227  1  0.00000000  0.66666667  0.29166667  1.0
  In  In228  1  0.33333333  0.00000000  0.29166667  1.0
  In  In229  1  0.33333333  0.33333333  0.29166667  1.0
  In  In230  1  0.33333333  0.66666667  0.29166667  1.0
  In  In231  1  0.66666667  0.00000000  0.29166667  1.0
  In  In232  1  0.66666667  0.33333333  0.29166667  1.0
  In  In233  1  0.66666667  0.66666667  0.29166667  1.0
  In  In234  1  0.27777778  0.27777778  0.25833333  1.0
  In  In235  1  0.27777778  0.61111111  0.25833333  1.0
  In  In236  1  0.27777778  0.94444444  0.25833333  1.0
  In  In237  1  0.61111111  0.27777778  0.25833333  1.0
  In  In238  1  0.61111111  0.61111111  0.25833333  1.0
  In  In239  1  0.61111111  0.94444444  0.25833333  1.0
  In  In240  1  0.94444444  0.27777778  0.25833333  1.0
  In  In241  1  0.94444444  0.61111111  0.25833333  1.0
  In  In242  1  0.94444444  0.94444444  0.25833333  1.0
  In  In243  1  0.11111111  0.11111111  0.20833333  1.0
  In  In244  1  0.11111111  0.44444444  0.20833333  1.0
  In  In245  1  0.11111111  0.77777778  0.20833333  1.0
  In  In246  1  0.44444444  0.11111111  0.20833333  1.0
  In  In247  1  0.44444444  0.44444444  0.20833333  1.0
  In  In248  1  0.44444444  0.77777778  0.20833333  1.0
  In  In249  1  0.77777778  0.11111111  0.20833333  1.0
  In  In250  1  0.77777778  0.44444444  0.20833333  1.0
  In  In251  1  0.77777778  0.77777778  0.20833333  1.0
  In  In252  1  0.22222222  0.22222222  0.27500000  1.0
  In  In253  1  0.22222222  0.55555556  0.27500000  1.0
  In  In254  1  0.22222222  0.88888889  0.27500000  1.0
  In  In255  1  0.55555556  0.22222222  0.27500000  1.0
  In  In256  1  0.55555556  0.55555556  0.27500000  1.0
  In  In257  1  0.55555556  0.88888889  0.27500000  1.0
  In  In258  1  0.88888889  0.22222222  0.27500000  1.0
  In  In259  1  0.88888889  0.55555556  0.27500000  1.0
  In  In260  1  0.88888889  0.88888889  0.27500000  1.0
  In  In261  1  0.05555556  0.05555556  0.22500000  1.0
  In  In262  1  0.05555556  0.38888889  0.22500000  1.0
  In  In263  1  0.05555556  0.72222222  0.22500000  1.0
  In  In264  1  0.38888889  0.05555556  0.22500000  1.0
  In  In265  1  0.38888889  0.38888889  0.22500000  1.0
  In  In266  1  0.38888889  0.72222222  0.22500000  1.0
  In  In267  1  0.72222222  0.05555556  0.22500000  1.0
  In  In268  1  0.72222222  0.38888889  0.22500000  1.0
  In  In269  1  0.72222222  0.72222222  0.22500000  1.0
  Ni  Ni270  1  0.16666667  0.00000000  0.29166667  1.0
  Ni  Ni271  1  0.16666667  0.33333333  0.29166667  1.0
  Ni  Ni272  1  0.16666667  0.66666667  0.29166667  1.0
  Ni  Ni273  1  0.50000000  0.00000000  0.29166667  1.0
  Ni  Ni274  1  0.50000000  0.33333333  0.29166667  1.0
  Ni  Ni275  1  0.50000000  0.66666667  0.29166667  1.0
  Ni  Ni276  1  0.83333333  0.00000000  0.29166667  1.0
  Ni  Ni277  1  0.83333333  0.33333333  0.29166667  1.0
  Ni  Ni278  1  0.83333333  0.66666667  0.29166667  1.0
  Ni  Ni279  1  0.00000000  0.16666667  0.24166667  1.0
  Ni  Ni280  1  0.00000000  0.50000000  0.24166667  1.0
  Ni  Ni281  1  0.00000000  0.83333333  0.24166667  1.0
  Ni  Ni282  1  0.33333333  0.16666667  0.24166667  1.0
  Ni  Ni283  1  0.33333333  0.50000000  0.24166667  1.0
  Ni  Ni284  1  0.33333333  0.83333333  0.24166667  1.0
  Ni  Ni285  1  0.66666667  0.16666667  0.24166667  1.0
  Ni  Ni286  1  0.66666667  0.50000000  0.24166667  1.0
  Ni  Ni287  1  0.66666667  0.83333333  0.24166667  1.0
  Ni  Ni288  1  0.25000000  0.08333333  0.26666667  1.0
  Ni  Ni289  1  0.25000000  0.41666667  0.26666667  1.0
  Ni  Ni290  1  0.25000000  0.75000000  0.26666667  1.0
  Ni  Ni291  1  0.58333333  0.08333333  0.26666667  1.0
  Ni  Ni292  1  0.58333333  0.41666667  0.26666667  1.0
  Ni  Ni293  1  0.58333333  0.75000000  0.26666667  1.0
  Ni  Ni294  1  0.91666667  0.08333333  0.26666667  1.0
  Ni  Ni295  1  0.91666667  0.41666667  0.26666667  1.0
  Ni  Ni296  1  0.91666667  0.75000000  0.26666667  1.0
  Ni  Ni297  1  0.08333333  0.25000000  0.21666667  1.0
  Ni  Ni298  1  0.08333333  0.58333333  0.21666667  1.0
  Ni  Ni299  1  0.08333333  0.91666667  0.21666667  1.0
  Ni  Ni300  1  0.41666667  0.25000000  0.21666667  1.0
  Ni  Ni301  1  0.41666667  0.58333333  0.21666667  1.0
  Ni  Ni302  1  0.41666667  0.91666667  0.21666667  1.0
  Ni  Ni303  1  0.75000000  0.25000000  0.21666667  1.0
  Ni  Ni304  1  0.75000000  0.58333333  0.21666667  1.0
  Ni  Ni305  1  0.75000000  0.91666667  0.21666667  1.0
  Ni  Ni306  1  0.25000000  0.25000000  0.21666667  1.0
  Ni  Ni307  1  0.25000000  0.58333333  0.21666667  1.0
  Ni  Ni308  1  0.25000000  0.91666667  0.21666667  1.0
  Ni  Ni309  1  0.58333333  0.25000000  0.21666667  1.0
  Ni  Ni310  1  0.58333333  0.58333333  0.21666667  1.0
  Ni  Ni311  1  0.58333333  0.91666667  0.21666667  1.0
  Ni  Ni312  1  0.91666667  0.25000000  0.21666667  1.0
  Ni  Ni313  1  0.91666667  0.58333333  0.21666667  1.0
  Ni  Ni314  1  0.91666667  0.91666667  0.21666667  1.0
  Ni  Ni315  1  0.08333333  0.08333333  0.26666667  1.0
  Ni  Ni316  1  0.08333333  0.41666667  0.26666667  1.0
  Ni  Ni317  1  0.08333333  0.75000000  0.26666667  1.0
  Ni  Ni318  1  0.41666667  0.08333333  0.26666667  1.0
  Ni  Ni319  1  0.41666667  0.41666667  0.26666667  1.0
  Ni  Ni320  1  0.41666667  0.75000000  0.26666667  1.0
  Ni  Ni321  1  0.75000000  0.08333333  0.26666667  1.0
  Ni  Ni322  1  0.75000000  0.41666667  0.26666667  1.0
  Ni  Ni323  1  0.75000000  0.75000000  0.26666667  1.0
  In  In324  1  0.16666667  0.16666667  0.34166667  1.0
  In  In325  1  0.16666667  0.50000000  0.34166667  1.0
  In  In326  1  0.16666667  0.83333333  0.34166667  1.0
  In  In327  1  0.50000000  0.16666667  0.34166667  1.0
  In  In328  1  0.50000000  0.50000000  0.34166667  1.0
  In  In329  1  0.50000000  0.83333333  0.34166667  1.0
  In  In330  1  0.83333333  0.16666667  0.34166667  1.0
  In  In331  1  0.83333333  0.50000000  0.34166667  1.0
  In  In332  1  0.83333333  0.83333333  0.34166667  1.0
  In  In333  1  0.00000000  0.00000000  0.39166667  1.0
  In  In334  1  0.00000000  0.33333333  0.39166667  1.0
  In  In335  1  0.00000000  0.66666667  0.39166667  1.0
  In  In336  1  0.33333333  0.00000000  0.39166667  1.0
  In  In337  1  0.33333333  0.33333333  0.39166667  1.0
  In  In338  1  0.33333333  0.66666667  0.39166667  1.0
  In  In339  1  0.66666667  0.00000000  0.39166667  1.0
  In  In340  1  0.66666667  0.33333333  0.39166667  1.0
  In  In341  1  0.66666667  0.66666667  0.39166667  1.0
  In  In342  1  0.27777778  0.27777778  0.35833333  1.0
  In  In343  1  0.27777778  0.61111111  0.35833333  1.0
  In  In344  1  0.27777778  0.94444444  0.35833333  1.0
  In  In345  1  0.61111111  0.27777778  0.35833333  1.0
  In  In346  1  0.61111111  0.61111111  0.35833333  1.0
  In  In347  1  0.61111111  0.94444444  0.35833333  1.0
  In  In348  1  0.94444444  0.27777778  0.35833333  1.0
  In  In349  1  0.94444444  0.61111111  0.35833333  1.0
  In  In350  1  0.94444444  0.94444444  0.35833333  1.0
  In  In351  1  0.11111111  0.11111111  0.30833333  1.0
  In  In352  1  0.11111111  0.44444444  0.30833333  1.0
  In  In353  1  0.11111111  0.77777778  0.30833333  1.0
  In  In354  1  0.44444444  0.11111111  0.30833333  1.0
  In  In355  1  0.44444444  0.44444444  0.30833333  1.0
  In  In356  1  0.44444444  0.77777778  0.30833333  1.0
  In  In357  1  0.77777778  0.11111111  0.30833333  1.0
  In  In358  1  0.77777778  0.44444444  0.30833333  1.0
  In  In359  1  0.77777778  0.77777778  0.30833333  1.0
  In  In360  1  0.22222222  0.22222222  0.37500000  1.0
  In  In361  1  0.22222222  0.55555556  0.37500000  1.0
  In  In362  1  0.22222222  0.88888889  0.37500000  1.0
  In  In363  1  0.55555556  0.22222222  0.37500000  1.0
  In  In364  1  0.55555556  0.55555556  0.37500000  1.0
  In  In365  1  0.55555556  0.88888889  0.37500000  1.0
  In  In366  1  0.88888889  0.22222222  0.37500000  1.0
  In  In367  1  0.88888889  0.55555556  0.37500000  1.0
  In  In368  1  0.88888889  0.88888889  0.37500000  1.0
  In  In369  1  0.05555556  0.05555556  0.32500000  1.0
  In  In370  1  0.05555556  0.38888889  0.32500000  1.0
  In  In371  1  0.05555556  0.72222222  0.32500000  1.0
  In  In372  1  0.38888889  0.05555556  0.32500000  1.0
  In  In373  1  0.38888889  0.38888889  0.32500000  1.0
  In  In374  1  0.38888889  0.72222222  0.32500000  1.0
  In  In375  1  0.72222222  0.05555556  0.32500000  1.0
  In  In376  1  0.72222222  0.38888889  0.32500000  1.0
  In  In377  1  0.72222222  0.72222222  0.32500000  1.0
  Ni  Ni378  1  0.16666667  0.00000000  0.39166667  1.0
  Ni  Ni379  1  0.16666667  0.33333333  0.39166667  1.0
  Ni  Ni380  1  0.16666667  0.66666667  0.39166667  1.0
  Ni  Ni381  1  0.50000000  0.00000000  0.39166667  1.0
  Ni  Ni382  1  0.50000000  0.33333333  0.39166667  1.0
  Ni  Ni383  1  0.50000000  0.66666667  0.39166667  1.0
  Ni  Ni384  1  0.83333333  0.00000000  0.39166667  1.0
  Ni  Ni385  1  0.83333333  0.33333333  0.39166667  1.0
  Ni  Ni386  1  0.83333333  0.66666667  0.39166667  1.0
  Ni  Ni387  1  0.00000000  0.16666667  0.34166667  1.0
  Ni  Ni388  1  0.00000000  0.50000000  0.34166667  1.0
  Ni  Ni389  1  0.00000000  0.83333333  0.34166667  1.0
  Ni  Ni390  1  0.33333333  0.16666667  0.34166667  1.0
  Ni  Ni391  1  0.33333333  0.50000000  0.34166667  1.0
  Ni  Ni392  1  0.33333333  0.83333333  0.34166667  1.0
  Ni  Ni393  1  0.66666667  0.16666667  0.34166667  1.0
  Ni  Ni394  1  0.66666667  0.50000000  0.34166667  1.0
  Ni  Ni395  1  0.66666667  0.83333333  0.34166667  1.0
  Ni  Ni396  1  0.25000000  0.08333333  0.36666667  1.0
  Ni  Ni397  1  0.25000000  0.41666667  0.36666667  1.0
  Ni  Ni398  1  0.25000000  0.75000000  0.36666667  1.0
  Ni  Ni399  1  0.58333333  0.08333333  0.36666667  1.0
  Ni  Ni400  1  0.58333333  0.41666667  0.36666667  1.0
  Ni  Ni401  1  0.58333333  0.75000000  0.36666667  1.0
  Ni  Ni402  1  0.91666667  0.08333333  0.36666667  1.0
  Ni  Ni403  1  0.91666667  0.41666667  0.36666667  1.0
  Ni  Ni404  1  0.91666667  0.75000000  0.36666667  1.0
  Ni  Ni405  1  0.08333333  0.25000000  0.31666667  1.0
  Ni  Ni406  1  0.08333333  0.58333333  0.31666667  1.0
  Ni  Ni407  1  0.08333333  0.91666667  0.31666667  1.0
  Ni  Ni408  1  0.41666667  0.25000000  0.31666667  1.0
  Ni  Ni409  1  0.41666667  0.58333333  0.31666667  1.0
  Ni  Ni410  1  0.41666667  0.91666667  0.31666667  1.0
  Ni  Ni411  1  0.75000000  0.25000000  0.31666667  1.0
  Ni  Ni412  1  0.75000000  0.58333333  0.31666667  1.0
  Ni  Ni413  1  0.75000000  0.91666667  0.31666667  1.0
  Ni  Ni414  1  0.25000000  0.25000000  0.31666667  1.0
  Ni  Ni415  1  0.25000000  0.58333333  0.31666667  1.0
  Ni  Ni416  1  0.25000000  0.91666667  0.31666667  1.0
  Ni  Ni417  1  0.58333333  0.25000000  0.31666667  1.0
  Ni  Ni418  1  0.58333333  0.58333333  0.31666667  1.0
  Ni  Ni419  1  0.58333333  0.91666667  0.31666667  1.0
  Ni  Ni420  1  0.91666667  0.25000000  0.31666667  1.0
  Ni  Ni421  1  0.91666667  0.58333333  0.31666667  1.0
  Ni  Ni422  1  0.91666667  0.91666667  0.31666667  1.0
  Ni  Ni423  1  0.08333333  0.08333333  0.36666667  1.0
  Ni  Ni424  1  0.08333333  0.41666667  0.36666667  1.0
  Ni  Ni425  1  0.08333333  0.75000000  0.36666667  1.0
  Ni  Ni426  1  0.41666667  0.08333333  0.36666667  1.0
  Ni  Ni427  1  0.41666667  0.41666667  0.36666667  1.0
  Ni  Ni428  1  0.41666667  0.75000000  0.36666667  1.0
  Ni  Ni429  1  0.75000000  0.08333333  0.36666667  1.0
  Ni  Ni430  1  0.75000000  0.41666667  0.36666667  1.0
  Ni  Ni431  1  0.75000000  0.75000000  0.36666667  1.0
