# generated using pymatgen
data_InNi3
_symmetry_space_group_name_H-M   'P 1'
_cell_length_a   15.82341210
_cell_length_b   19.37964282
_cell_length_c   27.40695371
_cell_angle_alpha   90.00000000
_cell_angle_beta   90.00000000
_cell_angle_gamma   90.00000000
_symmetry_Int_Tables_number   1
_chemical_formula_structural   InNi3
_chemical_formula_sum   'In72 Ni216'
_cell_volume   8404.39921970
_cell_formula_units_Z   72
loop_
 _symmetry_equiv_pos_site_id
 _symmetry_equiv_pos_as_xyz
  1  'x, y, z'
loop_
 _atom_site_type_symbol
 _atom_site_label
 _atom_site_symmetry_multiplicity
 _atom_site_fract_x
 _atom_site_fract_y
 _atom_site_fract_z
 _atom_site_occupancy
  In  In0  1  0.00000000  0.23611111  0.90277778  1.0
  In  In1  1  0.00000000  0.56944444  0.90277778  1.0
  In  In2  1  0.00000000  0.90277778  0.90277778  1.0
  In  In3  1  0.33333333  0.23611111  0.90277778  1.0
  In  In4  1  0.33333333  0.56944444  0.90277778  1.0
  In  In5  1  0.33333333  0.90277778  0.90277778  1.0
  In  In6  1  0.66666667  0.23611111  0.90277778  1.0
  In  In7  1  0.66666667  0.56944444  0.90277778  1.0
  In  In8  1  0.66666667  0.90277778  0.90277778  1.0
  In  In9  1  0.16666667  0.12500000  0.95833333  1.0
  In  In10  1  0.16666667  0.45833333  0.95833333  1.0
  In  In11  1  0.16666667  0.79166667  0.95833333  1.0
  In  In12  1  0.50000000  0.12500000  0.95833333  1.0
  In  In13  1  0.50000000  0.45833333  0.95833333  1.0
  In  In14  1  0.50000000  0.79166667  0.95833333  1.0
  In  In15  1  0.83333333  0.12500000  0.95833333  1.0
  In  In16  1  0.83333333  0.45833333  0.95833333  1.0
  In  In17  1  0.83333333  0.79166667  0.95833333  1.0
  In  In18  1  0.00000000  0.12500000  0.79166667  1.0
  In  In19  1  0.00000000  0.45833333  0.79166667  1.0
  In  In20  1  0.00000000  0.79166667  0.79166667  1.0
  In  In21  1  0.33333333  0.12500000  0.79166667  1.0
  In  In22  1  0.33333333  0.45833333  0.79166667  1.0
  In  In23  1  0.33333333  0.79166667  0.79166667  1.0
  In  In24  1  0.66666667  0.12500000  0.79166667  1.0
  In  In25  1  0.66666667  0.45833333  0.79166667  1.0
  In  In26  1  0.66666667  0.79166667  0.79166667  1.0
  In  In27  1  0.16666667  0.01388889  0.84722222  1.0
  In  In28  1  0.16666667  0.34722222  0.84722222  1.0
  In  In29  1  0.16666667  0.68055556  0.84722222  1.0
  In  In30  1  0.50000000  0.01388889  0.84722222  1.0
  In  In31  1  0.50000000  0.34722222  0.84722222  1.0
  In  In32  1  0.50000000  0.68055556  0.84722222  1.0
  In  In33  1  0.83333333  0.01388889  0.84722222  1.0
  In  In34  1  0.83333333  0.34722222  0.84722222  1.0
  In  In35  1  0.83333333  0.68055556  0.84722222  1.0
  In  In36  1  0.00000000  0.01388889  0.68055556  1.0
  In  In37  1  0.00000000  0.34722222  0.68055556  1.0
  In  In38  1  0.00000000  0.68055556  0.68055556  1.0
  In  In39  1  0.33333333  0.01388889  0.68055556  1.0
  In  In40  1  0.33333333  0.34722222  0.68055556  1.0
  In  In41  1  0.33333333  0.68055556  0.68055556  1.0
  In  In42  1  0.66666667  0.01388889  0.68055556  1.0
  In  In43  1  0.66666667  0.34722222  0.68055556  1.0
  In  In44  1  0.66666667  0.68055556  0.68055556  1.0
  In  In45  1  0.16666667  0.23611111  0.73611111  1.0
  In  In46  1  0.16666667  0.56944444  0.73611111  1.0
  In  In47  1  0.16666667  0.90277778  0.73611111  1.0
  In  In48  1  0.50000000  0.23611111  0.73611111  1.0
  In  In49  1  0.50000000  0.56944444  0.73611111  1.0
  In  In50  1  0.50000000  0.90277778  0.73611111  1.0
  In  In51  1  0.83333333  0.23611111  0.73611111  1.0
  In  In52  1  0.83333333  0.56944444  0.73611111  1.0
  In  In53  1  0.83333333  0.90277778  0.73611111  1.0
  In  In54  1  0.00000000  0.23611111  0.56944444  1.0
  In  In55  1  0.00000000  0.56944444  0.56944444  1.0
  In  In56  1  0.00000000  0.90277778  0.56944444  1.0
  In  In57  1  0.33333333  0.23611111  0.56944444  1.0
  In  In58  1  0.33333333  0.56944444  0.56944444  1.0
  In  In59  1  0.33333333  0.90277778  0.56944444  1.0
  In  In60  1  0.66666667  0.23611111  0.56944444  1.0
  In  In61  1  0.66666667  0.56944444  0.56944444  1.0
  In  In62  1  0.66666667  0.90277778  0.56944444  1.0
  In  In63  1  0.16666667  0.12500000  0.62500000  1.0
  In  In64  1  0.16666667  0.45833333  0.62500000  1.0
  In  In65  1  0.16666667  0.79166667  0.62500000  1.0
  In  In66  1  0.50000000  0.12500000  0.62500000  1.0
  In  In67  1  0.50000000  0.45833333  0.62500000  1.0
  In  In68  1  0.50000000  0.79166667  0.62500000  1.0
  In  In69  1  0.83333333  0.12500000  0.62500000  1.0
  In  In70  1  0.83333333  0.45833333  0.62500000  1.0
  In  In71  1  0.83333333  0.79166667  0.62500000  1.0
  Ni  Ni72  1  0.08333333  0.01388889  0.93055556  1.0
  Ni  Ni73  1  0.08333333  0.34722222  0.93055556  1.0
  Ni  Ni74  1  0.08333333  0.68055556  0.93055556  1.0
  Ni  Ni75  1  0.41666667  0.01388889  0.93055556  1.0
  Ni  Ni76  1  0.41666667  0.34722222  0.93055556  1.0
  Ni  Ni77  1  0.41666667  0.68055556  0.93055556  1.0
  Ni  Ni78  1  0.75000000  0.01388889  0.93055556  1.0
  Ni  Ni79  1  0.75000000  0.34722222  0.93055556  1.0
  Ni  Ni80  1  0.75000000  0.68055556  0.93055556  1.0
  Ni  Ni81  1  0.25000000  0.23611111  0.98611111  1.0
  Ni  Ni82  1  0.25000000  0.56944444  0.98611111  1.0
  Ni  Ni83  1  0.25000000  0.90277778  0.98611111  1.0
  Ni  Ni84  1  0.58333333  0.23611111  0.98611111  1.0
  Ni  Ni85  1  0.58333333  0.56944444  0.98611111  1.0
  Ni  Ni86  1  0.58333333  0.90277778  0.98611111  1.0
  Ni  Ni87  1  0.91666667  0.23611111  0.98611111  1.0
  Ni  Ni88  1  0.91666667  0.56944444  0.98611111  1.0
  Ni  Ni89  1  0.91666667  0.90277778  0.98611111  1.0
  Ni  Ni90  1  0.33333333  0.12500000  0.95833333  1.0
  Ni  Ni91  1  0.33333333  0.45833333  0.95833333  1.0
  Ni  Ni92  1  0.33333333  0.79166667  0.95833333  1.0
  Ni  Ni93  1  0.66666667  0.12500000  0.95833333  1.0
  Ni  Ni94  1  0.66666667  0.45833333  0.95833333  1.0
  Ni  Ni95  1  0.66666667  0.79166667  0.95833333  1.0
  Ni  Ni96  1  0.00000000  0.12500000  0.95833333  1.0
  Ni  Ni97  1  1.00000000  0.45833333  0.95833333  1.0
  Ni  Ni98  1  1.00000000  0.79166667  0.95833333  1.0
  Ni  Ni99  1  0.16666667  0.23611111  0.90277778  1.0
  Ni  Ni100  1  0.16666667  0.56944444  0.90277778  1.0
  Ni  Ni101  1  0.16666667  0.90277778  0.90277778  1.0
  Ni  Ni102  1  0.50000000  0.23611111  0.90277778  1.0
  Ni  Ni103  1  0.50000000  0.56944444  0.90277778  1.0
  Ni  Ni104  1  0.50000000  0.90277778  0.90277778  1.0
  Ni  Ni105  1  0.83333333  0.23611111  0.90277778  1.0
  Ni  Ni106  1  0.83333333  0.56944444  0.90277778  1.0
  Ni  Ni107  1  0.83333333  0.90277778  0.90277778  1.0
  Ni  Ni108  1  0.25000000  0.01388889  0.93055556  1.0
  Ni  Ni109  1  0.25000000  0.34722222  0.93055556  1.0
  Ni  Ni110  1  0.25000000  0.68055556  0.93055556  1.0
  Ni  Ni111  1  0.58333333  0.01388889  0.93055556  1.0
  Ni  Ni112  1  0.58333333  0.34722222  0.93055556  1.0
  Ni  Ni113  1  0.58333333  0.68055556  0.93055556  1.0
  Ni  Ni114  1  0.91666667  0.01388889  0.93055556  1.0
  Ni  Ni115  1  0.91666667  0.34722222  0.93055556  1.0
  Ni  Ni116  1  0.91666667  0.68055556  0.93055556  1.0
  Ni  Ni117  1  0.08333333  0.23611111  0.98611111  1.0
  Ni  Ni118  1  0.08333333  0.56944444  0.98611111  1.0
  Ni  Ni119  1  0.08333333  0.90277778  0.98611111  1.0
  Ni  Ni120  1  0.41666667  0.23611111  0.98611111  1.0
  Ni  Ni121  1  0.41666667  0.56944444  0.98611111  1.0
  Ni  Ni122  1  0.41666667  0.90277778  0.98611111  1.0
  Ni  Ni123  1  0.75000000  0.23611111  0.98611111  1.0
  Ni  Ni124  1  0.75000000  0.56944444  0.98611111  1.0
  Ni  Ni125  1  0.75000000  0.90277778  0.98611111  1.0
  Ni  Ni126  1  0.08333333  0.23611111  0.81944444  1.0
  Ni  Ni127  1  0.08333333  0.56944444  0.81944444  1.0
  Ni  Ni128  1  0.08333333  0.90277778  0.81944444  1.0
  Ni  Ni129  1  0.41666667  0.23611111  0.81944444  1.0
  Ni  Ni130  1  0.41666667  0.56944444  0.81944444  1.0
  Ni  Ni131  1  0.41666667  0.90277778  0.81944444  1.0
  Ni  Ni132  1  0.75000000  0.23611111  0.81944444  1.0
  Ni  Ni133  1  0.75000000  0.56944444  0.81944444  1.0
  Ni  Ni134  1  0.75000000  0.90277778  0.81944444  1.0
  Ni  Ni135  1  0.25000000  0.12500000  0.87500000  1.0
  Ni  Ni136  1  0.25000000  0.45833333  0.87500000  1.0
  Ni  Ni137  1  0.25000000  0.79166667  0.87500000  1.0
  Ni  Ni138  1  0.58333333  0.12500000  0.87500000  1.0
  Ni  Ni139  1  0.58333333  0.45833333  0.87500000  1.0
  Ni  Ni140  1  0.58333333  0.79166667  0.87500000  1.0
  Ni  Ni141  1  0.91666667  0.12500000  0.87500000  1.0
  Ni  Ni142  1  0.91666667  0.45833333  0.87500000  1.0
  Ni  Ni143  1  0.91666667  0.79166667  0.87500000  1.0
  Ni  Ni144  1  0.33333333  0.01388889  0.84722222  1.0
  Ni  Ni145  1  0.33333333  0.34722222  0.84722222  1.0
  Ni  Ni146  1  0.33333333  0.68055556  0.84722222  1.0
  Ni  Ni147  1  0.66666667  0.01388889  0.84722222  1.0
  Ni  Ni148  1  0.66666667  0.34722222  0.84722222  1.0
  Ni  Ni149  1  0.66666667  0.68055556  0.84722222  1.0
  Ni  Ni150  1  0.00000000  0.01388889  0.84722222  1.0
  Ni  Ni151  1  1.00000000  0.34722222  0.84722222  1.0
  Ni  Ni152  1  1.00000000  0.68055556  0.84722222  1.0
  Ni  Ni153  1  0.16666667  0.12500000  0.79166667  1.0
  Ni  Ni154  1  0.16666667  0.45833333  0.79166667  1.0
  Ni  Ni155  1  0.16666667  0.79166667  0.79166667  1.0
  Ni  Ni156  1  0.50000000  0.12500000  0.79166667  1.0
  Ni  Ni157  1  0.50000000  0.45833333  0.79166667  1.0
  Ni  Ni158  1  0.50000000  0.79166667  0.79166667  1.0
  Ni  Ni159  1  0.83333333  0.12500000  0.79166667  1.0
  Ni  Ni160  1  0.83333333  0.45833333  0.79166667  1.0
  Ni  Ni161  1  0.83333333  0.79166667  0.79166667  1.0
  Ni  Ni162  1  0.25000000  0.23611111  0.81944444  1.0
  Ni  Ni163  1  0.25000000  0.56944444  0.81944444  1.0
  Ni  Ni164  1  0.25000000  0.90277778  0.81944444  1.0
  Ni  Ni165  1  0.58333333  0.23611111  0.81944444  1.0
  Ni  Ni166  1  0.58333333  0.56944444  0.81944444  1.0
  Ni  Ni167  1  0.58333333  0.90277778  0.81944444  1.0
  Ni  Ni168  1  0.91666667  0.23611111  0.81944444  1.0
  Ni  Ni169  1  0.91666667  0.56944444  0.81944444  1.0
  Ni  Ni170  1  0.91666667  0.90277778  0.81944444  1.0
  Ni  Ni171  1  0.08333333  0.12500000  0.87500000  1.0
  Ni  Ni172  1  0.08333333  0.45833333  0.87500000  1.0
  Ni  Ni173  1  0.08333333  0.79166667  0.87500000  1.0
  Ni  Ni174  1  0.41666667  0.12500000  0.87500000  1.0
  Ni  Ni175  1  0.41666667  0.45833333  0.87500000  1.0
  Ni  Ni176  1  0.41666667  0.79166667  0.87500000  1.0
  Ni  Ni177  1  0.75000000  0.12500000  0.87500000  1.0
  Ni  Ni178  1  0.75000000  0.45833333  0.87500000  1.0
  Ni  Ni179  1  0.75000000  0.79166667  0.87500000  1.0
  Ni  Ni180  1  0.08333333  0.12500000  0.70833333  1.0
  Ni  Ni181  1  0.08333333  0.45833333  0.70833333  1.0
  Ni  Ni182  1  0.08333333  0.79166667  0.70833333  1.0
  Ni  Ni183  1  0.41666667  0.12500000  0.70833333  1.0
  Ni  Ni184  1  0.41666667  0.45833333  0.70833333  1.0
  Ni  Ni185  1  0.41666667  0.79166667  0.70833333  1.0
  Ni  Ni186  1  0.75000000  0.12500000  0.70833333  1.0
  Ni  Ni187  1  0.75000000  0.45833333  0.70833333  1.0
  Ni  Ni188  1  0.75000000  0.79166667  0.70833333  1.0
  Ni  Ni189  1  0.25000000  0.01388889  0.76388889  1.0
  Ni  Ni190  1  0.25000000  0.34722222  0.76388889  1.0
  Ni  Ni191  1  0.25000000  0.68055556  0.76388889  1.0
  Ni  Ni192  1  0.58333333  0.01388889  0.76388889  1.0
  Ni  Ni193  1  0.58333333  0.34722222  0.76388889  1.0
  Ni  Ni194  1  0.58333333  0.68055556  0.76388889  1.0
  Ni  Ni195  1  0.91666667  0.01388889  0.76388889  1.0
  Ni  Ni196  1  0.91666667  0.34722222  0.76388889  1.0
  Ni  Ni197  1  0.91666667  0.68055556  0.76388889  1.0
  Ni  Ni198  1  0.00000000  0.23611111  0.73611111  1.0
  Ni  Ni199  1  0.00000000  0.56944444  0.73611111  1.0
  Ni  Ni200  1  0.00000000  0.90277778  0.73611111  1.0
  Ni  Ni201  1  0.33333333  0.23611111  0.73611111  1.0
  Ni  Ni202  1  0.33333333  0.56944444  0.73611111  1.0
  Ni  Ni203  1  0.33333333  0.90277778  0.73611111  1.0
  Ni  Ni204  1  0.66666667  0.23611111  0.73611111  1.0
  Ni  Ni205  1  0.66666667  0.56944444  0.73611111  1.0
  Ni  Ni206  1  0.66666667  0.90277778  0.73611111  1.0
  Ni  Ni207  1  0.16666667  0.01388889  0.68055556  1.0
  Ni  Ni208  1  0.16666667  0.34722222  0.68055556  1.0
  Ni  Ni209  1  0.16666667  0.68055556  0.68055556  1.0
  Ni  Ni210  1  0.50000000  0.01388889  0.68055556  1.0
  Ni  Ni211  1  0.50000000  0.34722222  0.68055556  1.0
  Ni  Ni212  1  0.50000000  0.68055556  0.68055556  1.0
  Ni  Ni213  1  0.83333333  0.01388889  0.68055556  1.0
  Ni  Ni214  1  0.83333333  0.34722222  0.68055556  1.0
  Ni  Ni215  1  0.83333333  0.68055556  0.68055556  1.0
  Ni  Ni216  1  0.25000000  0.12500000  0.70833333  1.0
  Ni  Ni217  1  0.25000000  0.45833333  0.70833333  1.0
  Ni  Ni218  1  0.25000000  0.79166667  0.70833333  1.0
  Ni  Ni219  1  0.58333333  0.12500000  0.70833333  1.0
  Ni  Ni220  1  0.58333333  0.45833333  0.70833333  1.0
  Ni  Ni221  1  0.58333333  0.79166667  0.70833333  1.0
  Ni  Ni222  1  0.91666667  0.12500000  0.70833333  1.0
  Ni  Ni223  1  0.91666667  0.45833333  0.70833333  1.0
  Ni  Ni224  1  0.91666667  0.79166667  0.70833333  1.0
  Ni  Ni225  1  0.08333333  0.01388889  0.76388889  1.0
  Ni  Ni226  1  0.08333333  0.34722222  0.76388889  1.0
  Ni  Ni227  1  0.08333333  0.68055556  0.76388889  1.0
  Ni  Ni228  1  0.41666667  0.01388889  0.76388889  1.0
  Ni  Ni229  1  0.41666667  0.34722222  0.76388889  1.0
  Ni  Ni230  1  0.41666667  0.68055556  0.76388889  1.0
  Ni  Ni231  1  0.75000000  0.01388889  0.76388889  1.0
  Ni  Ni232  1  0.75000000  0.34722222  0.76388889  1.0
  Ni  Ni233  1  0.75000000  0.68055556  0.76388889  1.0
  Ni  Ni234  1  0.08333333  0.01388889  0.59722222  1.0
  Ni  Ni235  1  0.08333333  0.34722222  0.59722222  1.0
  Ni  Ni236  1  0.08333333  0.68055556  0.59722222  1.0
  Ni  Ni237  1  0.41666667  0.01388889  0.59722222  1.0
  Ni  Ni238  1  0.41666667  0.34722222  0.59722222  1.0
  Ni  Ni239  1  0.41666667  0.68055556  0.59722222  1.0
  Ni  Ni240  1  0.75000000  0.01388889  0.59722222  1.0
  Ni  Ni241  1  0.75000000  0.34722222  0.59722222  1.0
  Ni  Ni242  1  0.75000000  0.68055556  0.59722222  1.0
  Ni  Ni243  1  0.25000000  0.23611111  0.65277778  1.0
  Ni  Ni244  1  0.25000000  0.56944444  0.65277778  1.0
  Ni  Ni245  1  0.25000000  0.90277778  0.65277778  1.0
  Ni  Ni246  1  0.58333333  0.23611111  0.65277778  1.0
  Ni  Ni247  1  0.58333333  0.56944444  0.65277778  1.0
  Ni  Ni248  1  0.58333333  0.90277778  0.65277778  1.0
  Ni  Ni249  1  0.91666667  0.23611111  0.65277778  1.0
  Ni  Ni250  1  0.91666667  0.56944444  0.65277778  1.0
  Ni  Ni251  1  0.91666667  0.90277778  0.65277778  1.0
  Ni  Ni252  1  0.00000000  0.12500000  0.62500000  1.0
  Ni  Ni253  1  0.00000000  0.45833333  0.62500000  1.0
  Ni  Ni254  1  0.00000000  0.79166667  0.62500000  1.0
  Ni  Ni255  1  0.33333333  0.12500000  0.62500000  1.0
  Ni  Ni256  1  0.33333333  0.45833333  0.62500000  1.0
  Ni  Ni257  1  0.33333333  0.79166667  0.62500000  1.0
  Ni  Ni258  1  0.66666667  0.12500000  0.62500000  1.0
  Ni  Ni259  1  0.66666667  0.45833333  0.62500000  1.0
  Ni  Ni260  1  0.66666667  0.79166667  0.62500000  1.0
  Ni  Ni261  1  0.16666667  0.23611111  0.56944444  1.0
  Ni  Ni262  1  0.16666667  0.56944444  0.56944444  1.0
  Ni  Ni263  1  0.16666667  0.90277778  0.56944444  1.0
  Ni  Ni264  1  0.50000000  0.23611111  0.56944444  1.0
  Ni  Ni265  1  0.50000000  0.56944444  0.56944444  1.0
  Ni  Ni266  1  0.50000000  0.90277778  0.56944444  1.0
  Ni  Ni267  1  0.83333333  0.23611111  0.56944444  1.0
  Ni  Ni268  1  0.83333333  0.56944444  0.56944444  1.0
  Ni  Ni269  1  0.83333333  0.90277778  0.56944444  1.0
  Ni  Ni270  1  0.25000000  0.01388889  0.59722222  1.0
  Ni  Ni271  1  0.25000000  0.34722222  0.59722222  1.0
  Ni  Ni272  1  0.25000000  0.68055556  0.59722222  1.0
  Ni  Ni273  1  0.58333333  0.01388889  0.59722222  1.0
  Ni  Ni274  1  0.58333333  0.34722222  0.59722222  1.0
  Ni  Ni275  1  0.58333333  0.68055556  0.59722222  1.0
  Ni  Ni276  1  0.91666667  0.01388889  0.59722222  1.0
  Ni  Ni277  1  0.91666667  0.34722222  0.59722222  1.0
  Ni  Ni278  1  0.91666667  0.68055556  0.59722222  1.0
  Ni  Ni279  1  0.08333333  0.23611111  0.65277778  1.0
  Ni  Ni280  1  0.08333333  0.56944444  0.65277778  1.0
  Ni  Ni281  1  0.08333333  0.90277778  0.65277778  1.0
  Ni  Ni282  1  0.41666667  0.23611111  0.65277778  1.0
  Ni  Ni283  1  0.41666667  0.56944444  0.65277778  1.0
  Ni  Ni284  1  0.41666667  0.90277778  0.65277778  1.0
  Ni  Ni285  1  0.75000000  0.23611111  0.65277778  1.0
  Ni  Ni286  1  0.75000000  0.56944444  0.65277778  1.0
  Ni  Ni287  1  0.75000000  0.90277778  0.65277778  1.0
