# generated using pymatgen
data_InNi3
_symmetry_space_group_name_H-M   'P 1'
_cell_length_a   12.63382500
_cell_length_b   42.48431288
_cell_length_c   42.82016248
_cell_angle_alpha   139.10660535
_cell_angle_beta   90.00000000
_cell_angle_gamma   90.00000000
_symmetry_Int_Tables_number   1
_chemical_formula_structural   InNi3
_chemical_formula_sum   'In108 Ni324'
_cell_volume   15046.08024590
_cell_formula_units_Z   108
loop_
 _symmetry_equiv_pos_site_id
 _symmetry_equiv_pos_as_xyz
  1  'x, y, z'
loop_
 _atom_site_type_symbol
 _atom_site_label
 _atom_site_symmetry_multiplicity
 _atom_site_fract_x
 _atom_site_fract_y
 _atom_site_fract_z
 _atom_site_occupancy
  In  In0  1  0.08333333  0.11111111  0.08333333  1.0
  In  In1  1  0.08333333  0.44444444  0.08333333  1.0
  In  In2  1  0.08333333  0.77777778  0.08333333  1.0
  In  In3  1  0.41666667  0.11111111  0.08333333  1.0
  In  In4  1  0.41666667  0.44444444  0.08333333  1.0
  In  In5  1  0.41666667  0.77777778  0.08333333  1.0
  In  In6  1  0.75000000  0.11111111  0.08333333  1.0
  In  In7  1  0.75000000  0.44444444  0.08333333  1.0
  In  In8  1  0.75000000  0.77777778  0.08333333  1.0
  In  In9  1  0.08333333  0.27777778  0.02083333  1.0
  In  In10  1  0.08333333  0.61111111  0.02083333  1.0
  In  In11  1  0.08333333  0.94444444  0.02083333  1.0
  In  In12  1  0.41666667  0.27777778  0.02083333  1.0
  In  In13  1  0.41666667  0.61111111  0.02083333  1.0
  In  In14  1  0.41666667  0.94444444  0.02083333  1.0
  In  In15  1  0.75000000  0.27777778  0.02083333  1.0
  In  In16  1  0.75000000  0.61111111  0.02083333  1.0
  In  In17  1  0.75000000  0.94444444  0.02083333  1.0
  In  In18  1  0.25000000  0.05555556  0.10416667  1.0
  In  In19  1  0.25000000  0.38888889  0.10416667  1.0
  In  In20  1  0.25000000  0.72222222  0.10416667  1.0
  In  In21  1  0.58333333  0.05555556  0.10416667  1.0
  In  In22  1  0.58333333  0.38888889  0.10416667  1.0
  In  In23  1  0.58333333  0.72222222  0.10416667  1.0
  In  In24  1  0.91666667  0.05555556  0.10416667  1.0
  In  In25  1  0.91666667  0.38888889  0.10416667  1.0
  In  In26  1  0.91666667  0.72222222  0.10416667  1.0
  In  In27  1  0.25000000  0.22222222  0.04166667  1.0
  In  In28  1  0.25000000  0.55555556  0.04166667  1.0
  In  In29  1  0.25000000  0.88888889  0.04166667  1.0
  In  In30  1  0.58333333  0.22222222  0.04166667  1.0
  In  In31  1  0.58333333  0.55555556  0.04166667  1.0
  In  In32  1  0.58333333  0.88888889  0.04166667  1.0
  In  In33  1  0.91666667  0.22222222  0.04166667  1.0
  In  In34  1  0.91666667  0.55555556  0.04166667  1.0
  In  In35  1  0.91666667  0.88888889  0.04166667  1.0
  Ni  Ni36  1  0.08333333  0.11455467  0.02341600  1.0
  Ni  Ni37  1  0.08333333  0.44788800  0.02341600  1.0
  Ni  Ni38  1  0.08333333  0.78122133  0.02341600  1.0
  Ni  Ni39  1  0.41666667  0.11455467  0.02341600  1.0
  Ni  Ni40  1  0.41666667  0.44788800  0.02341600  1.0
  Ni  Ni41  1  0.41666667  0.78122133  0.02341600  1.0
  Ni  Ni42  1  0.75000000  0.11455467  0.02341600  1.0
  Ni  Ni43  1  0.75000000  0.44788800  0.02341600  1.0
  Ni  Ni44  1  0.75000000  0.78122133  0.02341600  1.0
  Ni  Ni45  1  0.08333333  0.28122133  0.08591600  1.0
  Ni  Ni46  1  0.08333333  0.61455467  0.08591600  1.0
  Ni  Ni47  1  0.08333333  0.94788800  0.08591600  1.0
  Ni  Ni48  1  0.41666667  0.28122133  0.08591600  1.0
  Ni  Ni49  1  0.41666667  0.61455467  0.08591600  1.0
  Ni  Ni50  1  0.41666667  0.94788800  0.08591600  1.0
  Ni  Ni51  1  0.75000000  0.28122133  0.08591600  1.0
  Ni  Ni52  1  0.75000000  0.61455467  0.08591600  1.0
  Ni  Ni53  1  0.75000000  0.94788800  0.08591600  1.0
  Ni  Ni54  1  0.08333333  0.02605600  0.04885500  1.0
  Ni  Ni55  1  0.08333333  0.35938933  0.04885500  1.0
  Ni  Ni56  1  0.08333333  0.69272267  0.04885500  1.0
  Ni  Ni57  1  0.41666667  0.02605600  0.04885500  1.0
  Ni  Ni58  1  0.41666667  0.35938933  0.04885500  1.0
  Ni  Ni59  1  0.41666667  0.69272267  0.04885500  1.0
  Ni  Ni60  1  0.75000000  0.02605600  0.04885500  1.0
  Ni  Ni61  1  0.75000000  0.35938933  0.04885500  1.0
  Ni  Ni62  1  0.75000000  0.69272267  0.04885500  1.0
  Ni  Ni63  1  0.08333333  0.19272267  0.11135500  1.0
  Ni  Ni64  1  0.08333333  0.52605600  0.11135500  1.0
  Ni  Ni65  1  0.08333333  0.85938933  0.11135500  1.0
  Ni  Ni66  1  0.41666667  0.19272267  0.11135500  1.0
  Ni  Ni67  1  0.41666667  0.52605600  0.11135500  1.0
  Ni  Ni68  1  0.41666667  0.85938933  0.11135500  1.0
  Ni  Ni69  1  0.75000000  0.19272267  0.11135500  1.0
  Ni  Ni70  1  0.75000000  0.52605600  0.11135500  1.0
  Ni  Ni71  1  0.75000000  0.85938933  0.11135500  1.0
  Ni  Ni72  1  0.08333333  0.02605600  0.11522900  1.0
  Ni  Ni73  1  0.08333333  0.35938933  0.11522900  1.0
  Ni  Ni74  1  0.08333333  0.69272267  0.11522900  1.0
  Ni  Ni75  1  0.41666667  0.02605600  0.11522900  1.0
  Ni  Ni76  1  0.41666667  0.35938933  0.11522900  1.0
  Ni  Ni77  1  0.41666667  0.69272267  0.11522900  1.0
  Ni  Ni78  1  0.75000000  0.02605600  0.11522900  1.0
  Ni  Ni79  1  0.75000000  0.35938933  0.11522900  1.0
  Ni  Ni80  1  0.75000000  0.69272267  0.11522900  1.0
  Ni  Ni81  1  0.08333333  0.19272267  0.05272900  1.0
  Ni  Ni82  1  0.08333333  0.52605600  0.05272900  1.0
  Ni  Ni83  1  0.08333333  0.85938933  0.05272900  1.0
  Ni  Ni84  1  0.41666667  0.19272267  0.05272900  1.0
  Ni  Ni85  1  0.41666667  0.52605600  0.05272900  1.0
  Ni  Ni86  1  0.41666667  0.85938933  0.05272900  1.0
  Ni  Ni87  1  0.75000000  0.19272267  0.05272900  1.0
  Ni  Ni88  1  0.75000000  0.52605600  0.05272900  1.0
  Ni  Ni89  1  0.75000000  0.85938933  0.05272900  1.0
  Ni  Ni90  1  0.25000000  0.05211200  0.03908400  1.0
  Ni  Ni91  1  0.25000000  0.38544533  0.03908400  1.0
  Ni  Ni92  1  0.25000000  0.71877867  0.03908400  1.0
  Ni  Ni93  1  0.58333333  0.05211200  0.03908400  1.0
  Ni  Ni94  1  0.58333333  0.38544533  0.03908400  1.0
  Ni  Ni95  1  0.58333333  0.71877867  0.03908400  1.0
  Ni  Ni96  1  0.91666667  0.05211200  0.03908400  1.0
  Ni  Ni97  1  0.91666667  0.38544533  0.03908400  1.0
  Ni  Ni98  1  0.91666667  0.71877867  0.03908400  1.0
  Ni  Ni99  1  0.25000000  0.21877867  0.10158400  1.0
  Ni  Ni100  1  0.25000000  0.55211200  0.10158400  1.0
  Ni  Ni101  1  0.25000000  0.88544533  0.10158400  1.0
  Ni  Ni102  1  0.58333333  0.21877867  0.10158400  1.0
  Ni  Ni103  1  0.58333333  0.55211200  0.10158400  1.0
  Ni  Ni104  1  0.58333333  0.88544533  0.10158400  1.0
  Ni  Ni105  1  0.91666667  0.21877867  0.10158400  1.0
  Ni  Ni106  1  0.91666667  0.55211200  0.10158400  1.0
  Ni  Ni107  1  0.91666667  0.88544533  0.10158400  1.0
  Ni  Ni108  1  0.25000000  0.14061067  0.01364500  1.0
  Ni  Ni109  1  0.25000000  0.47394400  0.01364500  1.0
  Ni  Ni110  1  0.25000000  0.80727733  0.01364500  1.0
  Ni  Ni111  1  0.58333333  0.14061067  0.01364500  1.0
  Ni  Ni112  1  0.58333333  0.47394400  0.01364500  1.0
  Ni  Ni113  1  0.58333333  0.80727733  0.01364500  1.0
  Ni  Ni114  1  0.91666667  0.14061067  0.01364500  1.0
  Ni  Ni115  1  0.91666667  0.47394400  0.01364500  1.0
  Ni  Ni116  1  0.91666667  0.80727733  0.01364500  1.0
  Ni  Ni117  1  0.25000000  0.30727733  0.07614500  1.0
  Ni  Ni118  1  0.25000000  0.64061067  0.07614500  1.0
  Ni  Ni119  1  0.25000000  0.97394400  0.07614500  1.0
  Ni  Ni120  1  0.58333333  0.30727733  0.07614500  1.0
  Ni  Ni121  1  0.58333333  0.64061067  0.07614500  1.0
  Ni  Ni122  1  0.58333333  0.97394400  0.07614500  1.0
  Ni  Ni123  1  0.91666667  0.30727733  0.07614500  1.0
  Ni  Ni124  1  0.91666667  0.64061067  0.07614500  1.0
  Ni  Ni125  1  0.91666667  0.97394400  0.07614500  1.0
  Ni  Ni126  1  0.25000000  0.14061067  0.07227100  1.0
  Ni  Ni127  1  0.25000000  0.47394400  0.07227100  1.0
  Ni  Ni128  1  0.25000000  0.80727733  0.07227100  1.0
  Ni  Ni129  1  0.58333333  0.14061067  0.07227100  1.0
  Ni  Ni130  1  0.58333333  0.47394400  0.07227100  1.0
  Ni  Ni131  1  0.58333333  0.80727733  0.07227100  1.0
  Ni  Ni132  1  0.91666667  0.14061067  0.07227100  1.0
  Ni  Ni133  1  0.91666667  0.47394400  0.07227100  1.0
  Ni  Ni134  1  0.91666667  0.80727733  0.07227100  1.0
  Ni  Ni135  1  0.25000000  0.30727733  0.00977100  1.0
  Ni  Ni136  1  0.25000000  0.64061067  0.00977100  1.0
  Ni  Ni137  1  0.25000000  0.97394400  0.00977100  1.0
  Ni  Ni138  1  0.58333333  0.30727733  0.00977100  1.0
  Ni  Ni139  1  0.58333333  0.64061067  0.00977100  1.0
  Ni  Ni140  1  0.58333333  0.97394400  0.00977100  1.0
  Ni  Ni141  1  0.91666667  0.30727733  0.00977100  1.0
  Ni  Ni142  1  0.91666667  0.64061067  0.00977100  1.0
  Ni  Ni143  1  0.91666667  0.97394400  0.00977100  1.0
  In  In144  1  0.08333333  0.11111111  0.20833333  1.0
  In  In145  1  0.08333333  0.44444444  0.20833333  1.0
  In  In146  1  0.08333333  0.77777778  0.20833333  1.0
  In  In147  1  0.41666667  0.11111111  0.20833333  1.0
  In  In148  1  0.41666667  0.44444444  0.20833333  1.0
  In  In149  1  0.41666667  0.77777778  0.20833333  1.0
  In  In150  1  0.75000000  0.11111111  0.20833333  1.0
  In  In151  1  0.75000000  0.44444444  0.20833333  1.0
  In  In152  1  0.75000000  0.77777778  0.20833333  1.0
  In  In153  1  0.08333333  0.27777778  0.14583333  1.0
  In  In154  1  0.08333333  0.61111111  0.14583333  1.0
  In  In155  1  0.08333333  0.94444444  0.14583333  1.0
  In  In156  1  0.41666667  0.27777778  0.14583333  1.0
  In  In157  1  0.41666667  0.61111111  0.14583333  1.0
  In  In158  1  0.41666667  0.94444444  0.14583333  1.0
  In  In159  1  0.75000000  0.27777778  0.14583333  1.0
  In  In160  1  0.75000000  0.61111111  0.14583333  1.0
  In  In161  1  0.75000000  0.94444444  0.14583333  1.0
  In  In162  1  0.25000000  0.05555556  0.22916667  1.0
  In  In163  1  0.25000000  0.38888889  0.22916667  1.0
  In  In164  1  0.25000000  0.72222222  0.22916667  1.0
  In  In165  1  0.58333333  0.05555556  0.22916667  1.0
  In  In166  1  0.58333333  0.38888889  0.22916667  1.0
  In  In167  1  0.58333333  0.72222222  0.22916667  1.0
  In  In168  1  0.91666667  0.05555556  0.22916667  1.0
  In  In169  1  0.91666667  0.38888889  0.22916667  1.0
  In  In170  1  0.91666667  0.72222222  0.22916667  1.0
  In  In171  1  0.25000000  0.22222222  0.16666667  1.0
  In  In172  1  0.25000000  0.55555556  0.16666667  1.0
  In  In173  1  0.25000000  0.88888889  0.16666667  1.0
  In  In174  1  0.58333333  0.22222222  0.16666667  1.0
  In  In175  1  0.58333333  0.55555556  0.16666667  1.0
  In  In176  1  0.58333333  0.88888889  0.16666667  1.0
  In  In177  1  0.91666667  0.22222222  0.16666667  1.0
  In  In178  1  0.91666667  0.55555556  0.16666667  1.0
  In  In179  1  0.91666667  0.88888889  0.16666667  1.0
  Ni  Ni180  1  0.08333333  0.11455467  0.14841600  1.0
  Ni  Ni181  1  0.08333333  0.44788800  0.14841600  1.0
  Ni  Ni182  1  0.08333333  0.78122133  0.14841600  1.0
  Ni  Ni183  1  0.41666667  0.11455467  0.14841600  1.0
  Ni  Ni184  1  0.41666667  0.44788800  0.14841600  1.0
  Ni  Ni185  1  0.41666667  0.78122133  0.14841600  1.0
  Ni  Ni186  1  0.75000000  0.11455467  0.14841600  1.0
  Ni  Ni187  1  0.75000000  0.44788800  0.14841600  1.0
  Ni  Ni188  1  0.75000000  0.78122133  0.14841600  1.0
  Ni  Ni189  1  0.08333333  0.28122133  0.21091600  1.0
  Ni  Ni190  1  0.08333333  0.61455467  0.21091600  1.0
  Ni  Ni191  1  0.08333333  0.94788800  0.21091600  1.0
  Ni  Ni192  1  0.41666667  0.28122133  0.21091600  1.0
  Ni  Ni193  1  0.41666667  0.61455467  0.21091600  1.0
  Ni  Ni194  1  0.41666667  0.94788800  0.21091600  1.0
  Ni  Ni195  1  0.75000000  0.28122133  0.21091600  1.0
  Ni  Ni196  1  0.75000000  0.61455467  0.21091600  1.0
  Ni  Ni197  1  0.75000000  0.94788800  0.21091600  1.0
  Ni  Ni198  1  0.08333333  0.02605600  0.17385500  1.0
  Ni  Ni199  1  0.08333333  0.35938933  0.17385500  1.0
  Ni  Ni200  1  0.08333333  0.69272267  0.17385500  1.0
  Ni  Ni201  1  0.41666667  0.02605600  0.17385500  1.0
  Ni  Ni202  1  0.41666667  0.35938933  0.17385500  1.0
  Ni  Ni203  1  0.41666667  0.69272267  0.17385500  1.0
  Ni  Ni204  1  0.75000000  0.02605600  0.17385500  1.0
  Ni  Ni205  1  0.75000000  0.35938933  0.17385500  1.0
  Ni  Ni206  1  0.75000000  0.69272267  0.17385500  1.0
  Ni  Ni207  1  0.08333333  0.19272267  0.23635500  1.0
  Ni  Ni208  1  0.08333333  0.52605600  0.23635500  1.0
  Ni  Ni209  1  0.08333333  0.85938933  0.23635500  1.0
  Ni  Ni210  1  0.41666667  0.19272267  0.23635500  1.0
  Ni  Ni211  1  0.41666667  0.52605600  0.23635500  1.0
  Ni  Ni212  1  0.41666667  0.85938933  0.23635500  1.0
  Ni  Ni213  1  0.75000000  0.19272267  0.23635500  1.0
  Ni  Ni214  1  0.75000000  0.52605600  0.23635500  1.0
  Ni  Ni215  1  0.75000000  0.85938933  0.23635500  1.0
  Ni  Ni216  1  0.08333333  0.02605600  0.24022900  1.0
  Ni  Ni217  1  0.08333333  0.35938933  0.24022900  1.0
  Ni  Ni218  1  0.08333333  0.69272267  0.24022900  1.0
  Ni  Ni219  1  0.41666667  0.02605600  0.24022900  1.0
  Ni  Ni220  1  0.41666667  0.35938933  0.24022900  1.0
  Ni  Ni221  1  0.41666667  0.69272267  0.24022900  1.0
  Ni  Ni222  1  0.75000000  0.02605600  0.24022900  1.0
  Ni  Ni223  1  0.75000000  0.35938933  0.24022900  1.0
  Ni  Ni224  1  0.75000000  0.69272267  0.24022900  1.0
  Ni  Ni225  1  0.08333333  0.19272267  0.17772900  1.0
  Ni  Ni226  1  0.08333333  0.52605600  0.17772900  1.0
  Ni  Ni227  1  0.08333333  0.85938933  0.17772900  1.0
  Ni  Ni228  1  0.41666667  0.19272267  0.17772900  1.0
  Ni  Ni229  1  0.41666667  0.52605600  0.17772900  1.0
  Ni  Ni230  1  0.41666667  0.85938933  0.17772900  1.0
  Ni  Ni231  1  0.75000000  0.19272267  0.17772900  1.0
  Ni  Ni232  1  0.75000000  0.52605600  0.17772900  1.0
  Ni  Ni233  1  0.75000000  0.85938933  0.17772900  1.0
  Ni  Ni234  1  0.25000000  0.05211200  0.16408400  1.0
  Ni  Ni235  1  0.25000000  0.38544533  0.16408400  1.0
  Ni  Ni236  1  0.25000000  0.71877867  0.16408400  1.0
  Ni  Ni237  1  0.58333333  0.05211200  0.16408400  1.0
  Ni  Ni238  1  0.58333333  0.38544533  0.16408400  1.0
  Ni  Ni239  1  0.58333333  0.71877867  0.16408400  1.0
  Ni  Ni240  1  0.91666667  0.05211200  0.16408400  1.0
  Ni  Ni241  1  0.91666667  0.38544533  0.16408400  1.0
  Ni  Ni242  1  0.91666667  0.71877867  0.16408400  1.0
  Ni  Ni243  1  0.25000000  0.21877867  0.22658400  1.0
  Ni  Ni244  1  0.25000000  0.55211200  0.22658400  1.0
  Ni  Ni245  1  0.25000000  0.88544533  0.22658400  1.0
  Ni  Ni246  1  0.58333333  0.21877867  0.22658400  1.0
  Ni  Ni247  1  0.58333333  0.55211200  0.22658400  1.0
  Ni  Ni248  1  0.58333333  0.88544533  0.22658400  1.0
  Ni  Ni249  1  0.91666667  0.21877867  0.22658400  1.0
  Ni  Ni250  1  0.91666667  0.55211200  0.22658400  1.0
  Ni  Ni251  1  0.91666667  0.88544533  0.22658400  1.0
  Ni  Ni252  1  0.25000000  0.14061067  0.13864500  1.0
  Ni  Ni253  1  0.25000000  0.47394400  0.13864500  1.0
  Ni  Ni254  1  0.25000000  0.80727733  0.13864500  1.0
  Ni  Ni255  1  0.58333333  0.14061067  0.13864500  1.0
  Ni  Ni256  1  0.58333333  0.47394400  0.13864500  1.0
  Ni  Ni257  1  0.58333333  0.80727733  0.13864500  1.0
  Ni  Ni258  1  0.91666667  0.14061067  0.13864500  1.0
  Ni  Ni259  1  0.91666667  0.47394400  0.13864500  1.0
  Ni  Ni260  1  0.91666667  0.80727733  0.13864500  1.0
  Ni  Ni261  1  0.25000000  0.30727733  0.20114500  1.0
  Ni  Ni262  1  0.25000000  0.64061067  0.20114500  1.0
  Ni  Ni263  1  0.25000000  0.97394400  0.20114500  1.0
  Ni  Ni264  1  0.58333333  0.30727733  0.20114500  1.0
  Ni  Ni265  1  0.58333333  0.64061067  0.20114500  1.0
  Ni  Ni266  1  0.58333333  0.97394400  0.20114500  1.0
  Ni  Ni267  1  0.91666667  0.30727733  0.20114500  1.0
  Ni  Ni268  1  0.91666667  0.64061067  0.20114500  1.0
  Ni  Ni269  1  0.91666667  0.97394400  0.20114500  1.0
  Ni  Ni270  1  0.25000000  0.14061067  0.19727100  1.0
  Ni  Ni271  1  0.25000000  0.47394400  0.19727100  1.0
  Ni  Ni272  1  0.25000000  0.80727733  0.19727100  1.0
  Ni  Ni273  1  0.58333333  0.14061067  0.19727100  1.0
  Ni  Ni274  1  0.58333333  0.47394400  0.19727100  1.0
  Ni  Ni275  1  0.58333333  0.80727733  0.19727100  1.0
  Ni  Ni276  1  0.91666667  0.14061067  0.19727100  1.0
  Ni  Ni277  1  0.91666667  0.47394400  0.19727100  1.0
  Ni  Ni278  1  0.91666667  0.80727733  0.19727100  1.0
  Ni  Ni279  1  0.25000000  0.30727733  0.13477100  1.0
  Ni  Ni280  1  0.25000000  0.64061067  0.13477100  1.0
  Ni  Ni281  1  0.25000000  0.97394400  0.13477100  1.0
  Ni  Ni282  1  0.58333333  0.30727733  0.13477100  1.0
  Ni  Ni283  1  0.58333333  0.64061067  0.13477100  1.0
  Ni  Ni284  1  0.58333333  0.97394400  0.13477100  1.0
  Ni  Ni285  1  0.91666667  0.30727733  0.13477100  1.0
  Ni  Ni286  1  0.91666667  0.64061067  0.13477100  1.0
  Ni  Ni287  1  0.91666667  0.97394400  0.13477100  1.0
  In  In288  1  0.08333333  0.11111111  0.33333333  1.0
  In  In289  1  0.08333333  0.44444444  0.33333333  1.0
  In  In290  1  0.08333333  0.77777778  0.33333333  1.0
  In  In291  1  0.41666667  0.11111111  0.33333333  1.0
  In  In292  1  0.41666667  0.44444444  0.33333333  1.0
  In  In293  1  0.41666667  0.77777778  0.33333333  1.0
  In  In294  1  0.75000000  0.11111111  0.33333333  1.0
  In  In295  1  0.75000000  0.44444444  0.33333333  1.0
  In  In296  1  0.75000000  0.77777778  0.33333333  1.0
  In  In297  1  0.08333333  0.27777778  0.27083333  1.0
  In  In298  1  0.08333333  0.61111111  0.27083333  1.0
  In  In299  1  0.08333333  0.94444444  0.27083333  1.0
  In  In300  1  0.41666667  0.27777778  0.27083333  1.0
  In  In301  1  0.41666667  0.61111111  0.27083333  1.0
  In  In302  1  0.41666667  0.94444444  0.27083333  1.0
  In  In303  1  0.75000000  0.27777778  0.27083333  1.0
  In  In304  1  0.75000000  0.61111111  0.27083333  1.0
  In  In305  1  0.75000000  0.94444444  0.27083333  1.0
  In  In306  1  0.25000000  0.05555556  0.35416667  1.0
  In  In307  1  0.25000000  0.38888889  0.35416667  1.0
  In  In308  1  0.25000000  0.72222222  0.35416667  1.0
  In  In309  1  0.58333333  0.05555556  0.35416667  1.0
  In  In310  1  0.58333333  0.38888889  0.35416667  1.0
  In  In311  1  0.58333333  0.72222222  0.35416667  1.0
  In  In312  1  0.91666667  0.05555556  0.35416667  1.0
  In  In313  1  0.91666667  0.38888889  0.35416667  1.0
  In  In314  1  0.91666667  0.72222222  0.35416667  1.0
  In  In315  1  0.25000000  0.22222222  0.29166667  1.0
  In  In316  1  0.25000000  0.55555556  0.29166667  1.0
  In  In317  1  0.25000000  0.88888889  0.29166667  1.0
  In  In318  1  0.58333333  0.22222222  0.29166667  1.0
  In  In319  1  0.58333333  0.55555556  0.29166667  1.0
  In  In320  1  0.58333333  0.88888889  0.29166667  1.0
  In  In321  1  0.91666667  0.22222222  0.29166667  1.0
  In  In322  1  0.91666667  0.55555556  0.29166667  1.0
  In  In323  1  0.91666667  0.88888889  0.29166667  1.0
  Ni  Ni324  1  0.08333333  0.11455467  0.27341600  1.0
  Ni  Ni325  1  0.08333333  0.44788800  0.27341600  1.0
  Ni  Ni326  1  0.08333333  0.78122133  0.27341600  1.0
  Ni  Ni327  1  0.41666667  0.11455467  0.27341600  1.0
  Ni  Ni328  1  0.41666667  0.44788800  0.27341600  1.0
  Ni  Ni329  1  0.41666667  0.78122133  0.27341600  1.0
  Ni  Ni330  1  0.75000000  0.11455467  0.27341600  1.0
  Ni  Ni331  1  0.75000000  0.44788800  0.27341600  1.0
  Ni  Ni332  1  0.75000000  0.78122133  0.27341600  1.0
  Ni  Ni333  1  0.08333333  0.28122133  0.33591600  1.0
  Ni  Ni334  1  0.08333333  0.61455467  0.33591600  1.0
  Ni  Ni335  1  0.08333333  0.94788800  0.33591600  1.0
  Ni  Ni336  1  0.41666667  0.28122133  0.33591600  1.0
  Ni  Ni337  1  0.41666667  0.61455467  0.33591600  1.0
  Ni  Ni338  1  0.41666667  0.94788800  0.33591600  1.0
  Ni  Ni339  1  0.75000000  0.28122133  0.33591600  1.0
  Ni  Ni340  1  0.75000000  0.61455467  0.33591600  1.0
  Ni  Ni341  1  0.75000000  0.94788800  0.33591600  1.0
  Ni  Ni342  1  0.08333333  0.02605600  0.29885500  1.0
  Ni  Ni343  1  0.08333333  0.35938933  0.29885500  1.0
  Ni  Ni344  1  0.08333333  0.69272267  0.29885500  1.0
  Ni  Ni345  1  0.41666667  0.02605600  0.29885500  1.0
  Ni  Ni346  1  0.41666667  0.35938933  0.29885500  1.0
  Ni  Ni347  1  0.41666667  0.69272267  0.29885500  1.0
  Ni  Ni348  1  0.75000000  0.02605600  0.29885500  1.0
  Ni  Ni349  1  0.75000000  0.35938933  0.29885500  1.0
  Ni  Ni350  1  0.75000000  0.69272267  0.29885500  1.0
  Ni  Ni351  1  0.08333333  0.19272267  0.36135500  1.0
  Ni  Ni352  1  0.08333333  0.52605600  0.36135500  1.0
  Ni  Ni353  1  0.08333333  0.85938933  0.36135500  1.0
  Ni  Ni354  1  0.41666667  0.19272267  0.36135500  1.0
  Ni  Ni355  1  0.41666667  0.52605600  0.36135500  1.0
  Ni  Ni356  1  0.41666667  0.85938933  0.36135500  1.0
  Ni  Ni357  1  0.75000000  0.19272267  0.36135500  1.0
  Ni  Ni358  1  0.75000000  0.52605600  0.36135500  1.0
  Ni  Ni359  1  0.75000000  0.85938933  0.36135500  1.0
  Ni  Ni360  1  0.08333333  0.02605600  0.36522900  1.0
  Ni  Ni361  1  0.08333333  0.35938933  0.36522900  1.0
  Ni  Ni362  1  0.08333333  0.69272267  0.36522900  1.0
  Ni  Ni363  1  0.41666667  0.02605600  0.36522900  1.0
  Ni  Ni364  1  0.41666667  0.35938933  0.36522900  1.0
  Ni  Ni365  1  0.41666667  0.69272267  0.36522900  1.0
  Ni  Ni366  1  0.75000000  0.02605600  0.36522900  1.0
  Ni  Ni367  1  0.75000000  0.35938933  0.36522900  1.0
  Ni  Ni368  1  0.75000000  0.69272267  0.36522900  1.0
  Ni  Ni369  1  0.08333333  0.19272267  0.30272900  1.0
  Ni  Ni370  1  0.08333333  0.52605600  0.30272900  1.0
  Ni  Ni371  1  0.08333333  0.85938933  0.30272900  1.0
  Ni  Ni372  1  0.41666667  0.19272267  0.30272900  1.0
  Ni  Ni373  1  0.41666667  0.52605600  0.30272900  1.0
  Ni  Ni374  1  0.41666667  0.85938933  0.30272900  1.0
  Ni  Ni375  1  0.75000000  0.19272267  0.30272900  1.0
  Ni  Ni376  1  0.75000000  0.52605600  0.30272900  1.0
  Ni  Ni377  1  0.75000000  0.85938933  0.30272900  1.0
  Ni  Ni378  1  0.25000000  0.05211200  0.28908400  1.0
  Ni  Ni379  1  0.25000000  0.38544533  0.28908400  1.0
  Ni  Ni380  1  0.25000000  0.71877867  0.28908400  1.0
  Ni  Ni381  1  0.58333333  0.05211200  0.28908400  1.0
  Ni  Ni382  1  0.58333333  0.38544533  0.28908400  1.0
  Ni  Ni383  1  0.58333333  0.71877867  0.28908400  1.0
  Ni  Ni384  1  0.91666667  0.05211200  0.28908400  1.0
  Ni  Ni385  1  0.91666667  0.38544533  0.28908400  1.0
  Ni  Ni386  1  0.91666667  0.71877867  0.28908400  1.0
  Ni  Ni387  1  0.25000000  0.21877867  0.35158400  1.0
  Ni  Ni388  1  0.25000000  0.55211200  0.35158400  1.0
  Ni  Ni389  1  0.25000000  0.88544533  0.35158400  1.0
  Ni  Ni390  1  0.58333333  0.21877867  0.35158400  1.0
  Ni  Ni391  1  0.58333333  0.55211200  0.35158400  1.0
  Ni  Ni392  1  0.58333333  0.88544533  0.35158400  1.0
  Ni  Ni393  1  0.91666667  0.21877867  0.35158400  1.0
  Ni  Ni394  1  0.91666667  0.55211200  0.35158400  1.0
  Ni  Ni395  1  0.91666667  0.88544533  0.35158400  1.0
  Ni  Ni396  1  0.25000000  0.14061067  0.26364500  1.0
  Ni  Ni397  1  0.25000000  0.47394400  0.26364500  1.0
  Ni  Ni398  1  0.25000000  0.80727733  0.26364500  1.0
  Ni  Ni399  1  0.58333333  0.14061067  0.26364500  1.0
  Ni  Ni400  1  0.58333333  0.47394400  0.26364500  1.0
  Ni  Ni401  1  0.58333333  0.80727733  0.26364500  1.0
  Ni  Ni402  1  0.91666667  0.14061067  0.26364500  1.0
  Ni  Ni403  1  0.91666667  0.47394400  0.26364500  1.0
  Ni  Ni404  1  0.91666667  0.80727733  0.26364500  1.0
  Ni  Ni405  1  0.25000000  0.30727733  0.32614500  1.0
  Ni  Ni406  1  0.25000000  0.64061067  0.32614500  1.0
  Ni  Ni407  1  0.25000000  0.97394400  0.32614500  1.0
  Ni  Ni408  1  0.58333333  0.30727733  0.32614500  1.0
  Ni  Ni409  1  0.58333333  0.64061067  0.32614500  1.0
  Ni  Ni410  1  0.58333333  0.97394400  0.32614500  1.0
  Ni  Ni411  1  0.91666667  0.30727733  0.32614500  1.0
  Ni  Ni412  1  0.91666667  0.64061067  0.32614500  1.0
  Ni  Ni413  1  0.91666667  0.97394400  0.32614500  1.0
  Ni  Ni414  1  0.25000000  0.14061067  0.32227100  1.0
  Ni  Ni415  1  0.25000000  0.47394400  0.32227100  1.0
  Ni  Ni416  1  0.25000000  0.80727733  0.32227100  1.0
  Ni  Ni417  1  0.58333333  0.14061067  0.32227100  1.0
  Ni  Ni418  1  0.58333333  0.47394400  0.32227100  1.0
  Ni  Ni419  1  0.58333333  0.80727733  0.32227100  1.0
  Ni  Ni420  1  0.91666667  0.14061067  0.32227100  1.0
  Ni  Ni421  1  0.91666667  0.47394400  0.32227100  1.0
  Ni  Ni422  1  0.91666667  0.80727733  0.32227100  1.0
  Ni  Ni423  1  0.25000000  0.30727733  0.25977100  1.0
  Ni  Ni424  1  0.25000000  0.64061067  0.25977100  1.0
  Ni  Ni425  1  0.25000000  0.97394400  0.25977100  1.0
  Ni  Ni426  1  0.58333333  0.30727733  0.25977100  1.0
  Ni  Ni427  1  0.58333333  0.64061067  0.25977100  1.0
  Ni  Ni428  1  0.58333333  0.97394400  0.25977100  1.0
  Ni  Ni429  1  0.91666667  0.30727733  0.25977100  1.0
  Ni  Ni430  1  0.91666667  0.64061067  0.25977100  1.0
  Ni  Ni431  1  0.91666667  0.97394400  0.25977100  1.0
