# generated using pymatgen
data_InNi3
_symmetry_space_group_name_H-M   'P 1'
_cell_length_a   16.05756093
_cell_length_b   12.63382500
_cell_length_c   37.46764217
_cell_angle_alpha   90.00000000
_cell_angle_beta   120.00000000
_cell_angle_gamma   90.00000000
_symmetry_Int_Tables_number   1
_chemical_formula_structural   InNi3
_chemical_formula_sum   'In54 Ni162'
_cell_volume   6582.66010758
_cell_formula_units_Z   54
loop_
 _symmetry_equiv_pos_site_id
 _symmetry_equiv_pos_as_xyz
  1  'x, y, z'
loop_
 _atom_site_type_symbol
 _atom_site_label
 _atom_site_symmetry_multiplicity
 _atom_site_fract_x
 _atom_site_fract_y
 _atom_site_fract_z
 _atom_site_occupancy
  In  In0  1  0.11111111  0.25000000  0.09523810  1.0
  In  In1  1  0.11111111  0.58333333  0.09523810  1.0
  In  In2  1  0.11111111  0.91666667  0.09523810  1.0
  In  In3  1  0.44444444  0.25000000  0.09523810  1.0
  In  In4  1  0.44444444  0.58333333  0.09523810  1.0
  In  In5  1  0.44444444  0.91666667  0.09523810  1.0
  In  In6  1  0.77777778  0.25000000  0.09523810  1.0
  In  In7  1  0.77777778  0.58333333  0.09523810  1.0
  In  In8  1  0.77777778  0.91666667  0.09523810  1.0
  In  In9  1  0.22222222  0.08333333  0.04761905  1.0
  In  In10  1  0.22222222  0.41666667  0.04761905  1.0
  In  In11  1  0.22222222  0.75000000  0.04761905  1.0
  In  In12  1  0.55555556  0.08333333  0.04761905  1.0
  In  In13  1  0.55555556  0.41666667  0.04761905  1.0
  In  In14  1  0.55555556  0.75000000  0.04761905  1.0
  In  In15  1  0.88888889  0.08333333  0.04761905  1.0
  In  In16  1  0.88888889  0.41666667  0.04761905  1.0
  In  In17  1  0.88888889  0.75000000  0.04761905  1.0
  Ni  Ni18  1  0.10422400  0.25000000  0.02233371  1.0
  Ni  Ni19  1  0.10422400  0.58333333  0.02233371  1.0
  Ni  Ni20  1  0.10422400  0.91666667  0.02233371  1.0
  Ni  Ni21  1  0.43755733  0.25000000  0.02233371  1.0
  Ni  Ni22  1  0.43755733  0.58333333  0.02233371  1.0
  Ni  Ni23  1  0.43755733  0.91666667  0.02233371  1.0
  Ni  Ni24  1  0.77089067  0.25000000  0.02233371  1.0
  Ni  Ni25  1  0.77089067  0.58333333  0.02233371  1.0
  Ni  Ni26  1  0.77089067  0.91666667  0.02233371  1.0
  Ni  Ni27  1  0.28122133  0.25000000  0.09818971  1.0
  Ni  Ni28  1  0.28122133  0.58333333  0.09818971  1.0
  Ni  Ni29  1  0.28122133  0.91666667  0.09818971  1.0
  Ni  Ni30  1  0.61455467  0.25000000  0.09818971  1.0
  Ni  Ni31  1  0.61455467  0.58333333  0.09818971  1.0
  Ni  Ni32  1  0.61455467  0.91666667  0.09818971  1.0
  Ni  Ni33  1  0.94788800  0.25000000  0.09818971  1.0
  Ni  Ni34  1  0.94788800  0.58333333  0.09818971  1.0
  Ni  Ni35  1  0.94788800  0.91666667  0.09818971  1.0
  Ni  Ni36  1  0.28122133  0.25000000  0.02233371  1.0
  Ni  Ni37  1  0.28122133  0.58333333  0.02233371  1.0
  Ni  Ni38  1  0.28122133  0.91666667  0.02233371  1.0
  Ni  Ni39  1  0.61455467  0.25000000  0.02233371  1.0
  Ni  Ni40  1  0.61455467  0.58333333  0.02233371  1.0
  Ni  Ni41  1  0.61455467  0.91666667  0.02233371  1.0
  Ni  Ni42  1  0.94788800  0.25000000  0.02233371  1.0
  Ni  Ni43  1  0.94788800  0.58333333  0.02233371  1.0
  Ni  Ni44  1  0.94788800  0.91666667  0.02233371  1.0
  Ni  Ni45  1  0.22910933  0.08333333  0.12052343  1.0
  Ni  Ni46  1  0.22910933  0.41666667  0.12052343  1.0
  Ni  Ni47  1  0.22910933  0.75000000  0.12052343  1.0
  Ni  Ni48  1  0.56244267  0.08333333  0.12052343  1.0
  Ni  Ni49  1  0.56244267  0.41666667  0.12052343  1.0
  Ni  Ni50  1  0.56244267  0.75000000  0.12052343  1.0
  Ni  Ni51  1  0.89577600  0.08333333  0.12052343  1.0
  Ni  Ni52  1  0.89577600  0.41666667  0.12052343  1.0
  Ni  Ni53  1  0.89577600  0.75000000  0.12052343  1.0
  Ni  Ni54  1  0.05211200  0.08333333  0.04466743  1.0
  Ni  Ni55  1  0.05211200  0.41666667  0.04466743  1.0
  Ni  Ni56  1  0.05211200  0.75000000  0.04466743  1.0
  Ni  Ni57  1  0.38544533  0.08333333  0.04466743  1.0
  Ni  Ni58  1  0.38544533  0.41666667  0.04466743  1.0
  Ni  Ni59  1  0.38544533  0.75000000  0.04466743  1.0
  Ni  Ni60  1  0.71877867  0.08333333  0.04466743  1.0
  Ni  Ni61  1  0.71877867  0.41666667  0.04466743  1.0
  Ni  Ni62  1  0.71877867  0.75000000  0.04466743  1.0
  Ni  Ni63  1  0.05211200  0.08333333  0.12052343  1.0
  Ni  Ni64  1  0.05211200  0.41666667  0.12052343  1.0
  Ni  Ni65  1  0.05211200  0.75000000  0.12052343  1.0
  Ni  Ni66  1  0.38544533  0.08333333  0.12052343  1.0
  Ni  Ni67  1  0.38544533  0.41666667  0.12052343  1.0
  Ni  Ni68  1  0.38544533  0.75000000  0.12052343  1.0
  Ni  Ni69  1  0.71877867  0.08333333  0.12052343  1.0
  Ni  Ni70  1  0.71877867  0.41666667  0.12052343  1.0
  Ni  Ni71  1  0.71877867  0.75000000  0.12052343  1.0
  In  In72  1  0.11111111  0.25000000  0.23809524  1.0
  In  In73  1  0.11111111  0.58333333  0.23809524  1.0
  In  In74  1  0.11111111  0.91666667  0.23809524  1.0
  In  In75  1  0.44444444  0.25000000  0.23809524  1.0
  In  In76  1  0.44444444  0.58333333  0.23809524  1.0
  In  In77  1  0.44444444  0.91666667  0.23809524  1.0
  In  In78  1  0.77777778  0.25000000  0.23809524  1.0
  In  In79  1  0.77777778  0.58333333  0.23809524  1.0
  In  In80  1  0.77777778  0.91666667  0.23809524  1.0
  In  In81  1  0.22222222  0.08333333  0.19047619  1.0
  In  In82  1  0.22222222  0.41666667  0.19047619  1.0
  In  In83  1  0.22222222  0.75000000  0.19047619  1.0
  In  In84  1  0.55555556  0.08333333  0.19047619  1.0
  In  In85  1  0.55555556  0.41666667  0.19047619  1.0
  In  In86  1  0.55555556  0.75000000  0.19047619  1.0
  In  In87  1  0.88888889  0.08333333  0.19047619  1.0
  In  In88  1  0.88888889  0.41666667  0.19047619  1.0
  In  In89  1  0.88888889  0.75000000  0.19047619  1.0
  Ni  Ni90  1  0.10422400  0.25000000  0.16519086  1.0
  Ni  Ni91  1  0.10422400  0.58333333  0.16519086  1.0
  Ni  Ni92  1  0.10422400  0.91666667  0.16519086  1.0
  Ni  Ni93  1  0.43755733  0.25000000  0.16519086  1.0
  Ni  Ni94  1  0.43755733  0.58333333  0.16519086  1.0
  Ni  Ni95  1  0.43755733  0.91666667  0.16519086  1.0
  Ni  Ni96  1  0.77089067  0.25000000  0.16519086  1.0
  Ni  Ni97  1  0.77089067  0.58333333  0.16519086  1.0
  Ni  Ni98  1  0.77089067  0.91666667  0.16519086  1.0
  Ni  Ni99  1  0.28122133  0.25000000  0.24104686  1.0
  Ni  Ni100  1  0.28122133  0.58333333  0.24104686  1.0
  Ni  Ni101  1  0.28122133  0.91666667  0.24104686  1.0
  Ni  Ni102  1  0.61455467  0.25000000  0.24104686  1.0
  Ni  Ni103  1  0.61455467  0.58333333  0.24104686  1.0
  Ni  Ni104  1  0.61455467  0.91666667  0.24104686  1.0
  Ni  Ni105  1  0.94788800  0.25000000  0.24104686  1.0
  Ni  Ni106  1  0.94788800  0.58333333  0.24104686  1.0
  Ni  Ni107  1  0.94788800  0.91666667  0.24104686  1.0
  Ni  Ni108  1  0.28122133  0.25000000  0.16519086  1.0
  Ni  Ni109  1  0.28122133  0.58333333  0.16519086  1.0
  Ni  Ni110  1  0.28122133  0.91666667  0.16519086  1.0
  Ni  Ni111  1  0.61455467  0.25000000  0.16519086  1.0
  Ni  Ni112  1  0.61455467  0.58333333  0.16519086  1.0
  Ni  Ni113  1  0.61455467  0.91666667  0.16519086  1.0
  Ni  Ni114  1  0.94788800  0.25000000  0.16519086  1.0
  Ni  Ni115  1  0.94788800  0.58333333  0.16519086  1.0
  Ni  Ni116  1  0.94788800  0.91666667  0.16519086  1.0
  Ni  Ni117  1  0.22910933  0.08333333  0.26338057  1.0
  Ni  Ni118  1  0.22910933  0.41666667  0.26338057  1.0
  Ni  Ni119  1  0.22910933  0.75000000  0.26338057  1.0
  Ni  Ni120  1  0.56244267  0.08333333  0.26338057  1.0
  Ni  Ni121  1  0.56244267  0.41666667  0.26338057  1.0
  Ni  Ni122  1  0.56244267  0.75000000  0.26338057  1.0
  Ni  Ni123  1  0.89577600  0.08333333  0.26338057  1.0
  Ni  Ni124  1  0.89577600  0.41666667  0.26338057  1.0
  Ni  Ni125  1  0.89577600  0.75000000  0.26338057  1.0
  Ni  Ni126  1  0.05211200  0.08333333  0.18752457  1.0
  Ni  Ni127  1  0.05211200  0.41666667  0.18752457  1.0
  Ni  Ni128  1  0.05211200  0.75000000  0.18752457  1.0
  Ni  Ni129  1  0.38544533  0.08333333  0.18752457  1.0
  Ni  Ni130  1  0.38544533  0.41666667  0.18752457  1.0
  Ni  Ni131  1  0.38544533  0.75000000  0.18752457  1.0
  Ni  Ni132  1  0.71877867  0.08333333  0.18752457  1.0
  Ni  Ni133  1  0.71877867  0.41666667  0.18752457  1.0
  Ni  Ni134  1  0.71877867  0.75000000  0.18752457  1.0
  Ni  Ni135  1  0.05211200  0.08333333  0.26338057  1.0
  Ni  Ni136  1  0.05211200  0.41666667  0.26338057  1.0
  Ni  Ni137  1  0.05211200  0.75000000  0.26338057  1.0
  Ni  Ni138  1  0.38544533  0.08333333  0.26338057  1.0
  Ni  Ni139  1  0.38544533  0.41666667  0.26338057  1.0
  Ni  Ni140  1  0.38544533  0.75000000  0.26338057  1.0
  Ni  Ni141  1  0.71877867  0.08333333  0.26338057  1.0
  Ni  Ni142  1  0.71877867  0.41666667  0.26338057  1.0
  Ni  Ni143  1  0.71877867  0.75000000  0.26338057  1.0
  In  In144  1  0.11111111  0.25000000  0.38095238  1.0
  In  In145  1  0.11111111  0.58333333  0.38095238  1.0
  In  In146  1  0.11111111  0.91666667  0.38095238  1.0
  In  In147  1  0.44444444  0.25000000  0.38095238  1.0
  In  In148  1  0.44444444  0.58333333  0.38095238  1.0
  In  In149  1  0.44444444  0.91666667  0.38095238  1.0
  In  In150  1  0.77777778  0.25000000  0.38095238  1.0
  In  In151  1  0.77777778  0.58333333  0.38095238  1.0
  In  In152  1  0.77777778  0.91666667  0.38095238  1.0
  In  In153  1  0.22222222  0.08333333  0.33333333  1.0
  In  In154  1  0.22222222  0.41666667  0.33333333  1.0
  In  In155  1  0.22222222  0.75000000  0.33333333  1.0
  In  In156  1  0.55555556  0.08333333  0.33333333  1.0
  In  In157  1  0.55555556  0.41666667  0.33333333  1.0
  In  In158  1  0.55555556  0.75000000  0.33333333  1.0
  In  In159  1  0.88888889  0.08333333  0.33333333  1.0
  In  In160  1  0.88888889  0.41666667  0.33333333  1.0
  In  In161  1  0.88888889  0.75000000  0.33333333  1.0
  Ni  Ni162  1  0.10422400  0.25000000  0.30804800  1.0
  Ni  Ni163  1  0.10422400  0.58333333  0.30804800  1.0
  Ni  Ni164  1  0.10422400  0.91666667  0.30804800  1.0
  Ni  Ni165  1  0.43755733  0.25000000  0.30804800  1.0
  Ni  Ni166  1  0.43755733  0.58333333  0.30804800  1.0
  Ni  Ni167  1  0.43755733  0.91666667  0.30804800  1.0
  Ni  Ni168  1  0.77089067  0.25000000  0.30804800  1.0
  Ni  Ni169  1  0.77089067  0.58333333  0.30804800  1.0
  Ni  Ni170  1  0.77089067  0.91666667  0.30804800  1.0
  Ni  Ni171  1  0.28122133  0.25000000  0.38390400  1.0
  Ni  Ni172  1  0.28122133  0.58333333  0.38390400  1.0
  Ni  Ni173  1  0.28122133  0.91666667  0.38390400  1.0
  Ni  Ni174  1  0.61455467  0.25000000  0.38390400  1.0
  Ni  Ni175  1  0.61455467  0.58333333  0.38390400  1.0
  Ni  Ni176  1  0.61455467  0.91666667  0.38390400  1.0
  Ni  Ni177  1  0.94788800  0.25000000  0.38390400  1.0
  Ni  Ni178  1  0.94788800  0.58333333  0.38390400  1.0
  Ni  Ni179  1  0.94788800  0.91666667  0.38390400  1.0
  Ni  Ni180  1  0.28122133  0.25000000  0.30804800  1.0
  Ni  Ni181  1  0.28122133  0.58333333  0.30804800  1.0
  Ni  Ni182  1  0.28122133  0.91666667  0.30804800  1.0
  Ni  Ni183  1  0.61455467  0.25000000  0.30804800  1.0
  Ni  Ni184  1  0.61455467  0.58333333  0.30804800  1.0
  Ni  Ni185  1  0.61455467  0.91666667  0.30804800  1.0
  Ni  Ni186  1  0.94788800  0.25000000  0.30804800  1.0
  Ni  Ni187  1  0.94788800  0.58333333  0.30804800  1.0
  Ni  Ni188  1  0.94788800  0.91666667  0.30804800  1.0
  Ni  Ni189  1  0.22910933  0.08333333  0.40623771  1.0
  Ni  Ni190  1  0.22910933  0.41666667  0.40623771  1.0
  Ni  Ni191  1  0.22910933  0.75000000  0.40623771  1.0
  Ni  Ni192  1  0.56244267  0.08333333  0.40623771  1.0
  Ni  Ni193  1  0.56244267  0.41666667  0.40623771  1.0
  Ni  Ni194  1  0.56244267  0.75000000  0.40623771  1.0
  Ni  Ni195  1  0.89577600  0.08333333  0.40623771  1.0
  Ni  Ni196  1  0.89577600  0.41666667  0.40623771  1.0
  Ni  Ni197  1  0.89577600  0.75000000  0.40623771  1.0
  Ni  Ni198  1  0.05211200  0.08333333  0.33038171  1.0
  Ni  Ni199  1  0.05211200  0.41666667  0.33038171  1.0
  Ni  Ni200  1  0.05211200  0.75000000  0.33038171  1.0
  Ni  Ni201  1  0.38544533  0.08333333  0.33038171  1.0
  Ni  Ni202  1  0.38544533  0.41666667  0.33038171  1.0
  Ni  Ni203  1  0.38544533  0.75000000  0.33038171  1.0
  Ni  Ni204  1  0.71877867  0.08333333  0.33038171  1.0
  Ni  Ni205  1  0.71877867  0.41666667  0.33038171  1.0
  Ni  Ni206  1  0.71877867  0.75000000  0.33038171  1.0
  Ni  Ni207  1  0.05211200  0.08333333  0.40623771  1.0
  Ni  Ni208  1  0.05211200  0.41666667  0.40623771  1.0
  Ni  Ni209  1  0.05211200  0.75000000  0.40623771  1.0
  Ni  Ni210  1  0.38544533  0.08333333  0.40623771  1.0
  Ni  Ni211  1  0.38544533  0.41666667  0.40623771  1.0
  Ni  Ni212  1  0.38544533  0.75000000  0.40623771  1.0
  Ni  Ni213  1  0.71877867  0.08333333  0.40623771  1.0
  Ni  Ni214  1  0.71877867  0.41666667  0.40623771  1.0
  Ni  Ni215  1  0.71877867  0.75000000  0.40623771  1.0
