# generated using pymatgen
data_InNi
_symmetry_space_group_name_H-M   'P 1'
_cell_length_a   15.81641343
_cell_length_b   13.11882900
_cell_length_c   36.90496467
_cell_angle_alpha   90.00000000
_cell_angle_beta   120.00000000
_cell_angle_gamma   90.00000000
_symmetry_Int_Tables_number   1
_chemical_formula_structural   InNi
_chemical_formula_sum   'In81 Ni81'
_cell_volume   6631.60278728
_cell_formula_units_Z   81
loop_
 _symmetry_equiv_pos_site_id
 _symmetry_equiv_pos_as_xyz
  1  'x, y, z'
loop_
 _atom_site_type_symbol
 _atom_site_label
 _atom_site_symmetry_multiplicity
 _atom_site_fract_x
 _atom_site_fract_y
 _atom_site_fract_z
 _atom_site_occupancy
  In  In0  1  0.00000000  0.00000000  0.11904762  1.0
  In  In1  1  0.00000000  0.33333333  0.11904762  1.0
  In  In2  1  0.00000000  0.66666667  0.11904762  1.0
  In  In3  1  0.33333333  0.00000000  0.11904762  1.0
  In  In4  1  0.33333333  0.33333333  0.11904762  1.0
  In  In5  1  0.33333333  0.66666667  0.11904762  1.0
  In  In6  1  0.66666667  0.00000000  0.11904762  1.0
  In  In7  1  0.66666667  0.33333333  0.11904762  1.0
  In  In8  1  0.66666667  0.66666667  0.11904762  1.0
  In  In9  1  0.22222222  0.16666667  0.02380952  1.0
  In  In10  1  0.22222222  0.50000000  0.02380952  1.0
  In  In11  1  0.22222222  0.83333333  0.02380952  1.0
  In  In12  1  0.55555556  0.16666667  0.02380952  1.0
  In  In13  1  0.55555556  0.50000000  0.02380952  1.0
  In  In14  1  0.55555556  0.83333333  0.02380952  1.0
  In  In15  1  0.88888889  0.16666667  0.02380952  1.0
  In  In16  1  0.88888889  0.50000000  0.02380952  1.0
  In  In17  1  0.88888889  0.83333333  0.02380952  1.0
  In  In18  1  0.11111111  0.16666667  0.07142857  1.0
  In  In19  1  0.11111111  0.50000000  0.07142857  1.0
  In  In20  1  0.11111111  0.83333333  0.07142857  1.0
  In  In21  1  0.44444444  0.16666667  0.07142857  1.0
  In  In22  1  0.44444444  0.50000000  0.07142857  1.0
  In  In23  1  0.44444444  0.83333333  0.07142857  1.0
  In  In24  1  0.77777778  0.16666667  0.07142857  1.0
  In  In25  1  0.77777778  0.50000000  0.07142857  1.0
  In  In26  1  0.77777778  0.83333333  0.07142857  1.0
  Ni  Ni27  1  0.00000000  0.00000000  0.04761905  1.0
  Ni  Ni28  1  0.00000000  0.33333333  0.04761905  1.0
  Ni  Ni29  1  0.00000000  0.66666667  0.04761905  1.0
  Ni  Ni30  1  0.33333333  0.00000000  0.04761905  1.0
  Ni  Ni31  1  0.33333333  0.33333333  0.04761905  1.0
  Ni  Ni32  1  0.33333333  0.66666667  0.04761905  1.0
  Ni  Ni33  1  0.66666667  0.00000000  0.04761905  1.0
  Ni  Ni34  1  0.66666667  0.33333333  0.04761905  1.0
  Ni  Ni35  1  0.66666667  0.66666667  0.04761905  1.0
  Ni  Ni36  1  0.16666667  0.00000000  0.11904762  1.0
  Ni  Ni37  1  0.16666667  0.33333333  0.11904762  1.0
  Ni  Ni38  1  0.16666667  0.66666667  0.11904762  1.0
  Ni  Ni39  1  0.50000000  0.00000000  0.11904762  1.0
  Ni  Ni40  1  0.50000000  0.33333333  0.11904762  1.0
  Ni  Ni41  1  0.50000000  0.66666667  0.11904762  1.0
  Ni  Ni42  1  0.83333333  0.00000000  0.11904762  1.0
  Ni  Ni43  1  0.83333333  0.33333333  0.11904762  1.0
  Ni  Ni44  1  0.83333333  0.66666667  0.11904762  1.0
  Ni  Ni45  1  0.16666667  0.00000000  0.04761905  1.0
  Ni  Ni46  1  0.16666667  0.33333333  0.04761905  1.0
  Ni  Ni47  1  0.16666667  0.66666667  0.04761905  1.0
  Ni  Ni48  1  0.50000000  0.00000000  0.04761905  1.0
  Ni  Ni49  1  0.50000000  0.33333333  0.04761905  1.0
  Ni  Ni50  1  0.50000000  0.66666667  0.04761905  1.0
  Ni  Ni51  1  0.83333333  0.00000000  0.04761905  1.0
  Ni  Ni52  1  0.83333333  0.33333333  0.04761905  1.0
  Ni  Ni53  1  0.83333333  0.66666667  0.04761905  1.0
  In  In54  1  0.00000000  0.00000000  0.26190476  1.0
  In  In55  1  0.00000000  0.33333333  0.26190476  1.0
  In  In56  1  0.00000000  0.66666667  0.26190476  1.0
  In  In57  1  0.33333333  0.00000000  0.26190476  1.0
  In  In58  1  0.33333333  0.33333333  0.26190476  1.0
  In  In59  1  0.33333333  0.66666667  0.26190476  1.0
  In  In60  1  0.66666667  0.00000000  0.26190476  1.0
  In  In61  1  0.66666667  0.33333333  0.26190476  1.0
  In  In62  1  0.66666667  0.66666667  0.26190476  1.0
  In  In63  1  0.22222222  0.16666667  0.16666667  1.0
  In  In64  1  0.22222222  0.50000000  0.16666667  1.0
  In  In65  1  0.22222222  0.83333333  0.16666667  1.0
  In  In66  1  0.55555556  0.16666667  0.16666667  1.0
  In  In67  1  0.55555556  0.50000000  0.16666667  1.0
  In  In68  1  0.55555556  0.83333333  0.16666667  1.0
  In  In69  1  0.88888889  0.16666667  0.16666667  1.0
  In  In70  1  0.88888889  0.50000000  0.16666667  1.0
  In  In71  1  0.88888889  0.83333333  0.16666667  1.0
  In  In72  1  0.11111111  0.16666667  0.21428571  1.0
  In  In73  1  0.11111111  0.50000000  0.21428571  1.0
  In  In74  1  0.11111111  0.83333333  0.21428571  1.0
  In  In75  1  0.44444444  0.16666667  0.21428571  1.0
  In  In76  1  0.44444444  0.50000000  0.21428571  1.0
  In  In77  1  0.44444444  0.83333333  0.21428571  1.0
  In  In78  1  0.77777778  0.16666667  0.21428571  1.0
  In  In79  1  0.77777778  0.50000000  0.21428571  1.0
  In  In80  1  0.77777778  0.83333333  0.21428571  1.0
  Ni  Ni81  1  0.00000000  0.00000000  0.19047619  1.0
  Ni  Ni82  1  0.00000000  0.33333333  0.19047619  1.0
  Ni  Ni83  1  0.00000000  0.66666667  0.19047619  1.0
  Ni  Ni84  1  0.33333333  0.00000000  0.19047619  1.0
  Ni  Ni85  1  0.33333333  0.33333333  0.19047619  1.0
  Ni  Ni86  1  0.33333333  0.66666667  0.19047619  1.0
  Ni  Ni87  1  0.66666667  0.00000000  0.19047619  1.0
  Ni  Ni88  1  0.66666667  0.33333333  0.19047619  1.0
  Ni  Ni89  1  0.66666667  0.66666667  0.19047619  1.0
  Ni  Ni90  1  0.16666667  0.00000000  0.26190476  1.0
  Ni  Ni91  1  0.16666667  0.33333333  0.26190476  1.0
  Ni  Ni92  1  0.16666667  0.66666667  0.26190476  1.0
  Ni  Ni93  1  0.50000000  0.00000000  0.26190476  1.0
  Ni  Ni94  1  0.50000000  0.33333333  0.26190476  1.0
  Ni  Ni95  1  0.50000000  0.66666667  0.26190476  1.0
  Ni  Ni96  1  0.83333333  0.00000000  0.26190476  1.0
  Ni  Ni97  1  0.83333333  0.33333333  0.26190476  1.0
  Ni  Ni98  1  0.83333333  0.66666667  0.26190476  1.0
  Ni  Ni99  1  0.16666667  0.00000000  0.19047619  1.0
  Ni  Ni100  1  0.16666667  0.33333333  0.19047619  1.0
  Ni  Ni101  1  0.16666667  0.66666667  0.19047619  1.0
  Ni  Ni102  1  0.50000000  0.00000000  0.19047619  1.0
  Ni  Ni103  1  0.50000000  0.33333333  0.19047619  1.0
  Ni  Ni104  1  0.50000000  0.66666667  0.19047619  1.0
  Ni  Ni105  1  0.83333333  0.00000000  0.19047619  1.0
  Ni  Ni106  1  0.83333333  0.33333333  0.19047619  1.0
  Ni  Ni107  1  0.83333333  0.66666667  0.19047619  1.0
  In  In108  1  0.00000000  0.00000000  0.40476190  1.0
  In  In109  1  0.00000000  0.33333333  0.40476190  1.0
  In  In110  1  0.00000000  0.66666667  0.40476190  1.0
  In  In111  1  0.33333333  0.00000000  0.40476190  1.0
  In  In112  1  0.33333333  0.33333333  0.40476190  1.0
  In  In113  1  0.33333333  0.66666667  0.40476190  1.0
  In  In114  1  0.66666667  0.00000000  0.40476190  1.0
  In  In115  1  0.66666667  0.33333333  0.40476190  1.0
  In  In116  1  0.66666667  0.66666667  0.40476190  1.0
  In  In117  1  0.22222222  0.16666667  0.30952381  1.0
  In  In118  1  0.22222222  0.50000000  0.30952381  1.0
  In  In119  1  0.22222222  0.83333333  0.30952381  1.0
  In  In120  1  0.55555556  0.16666667  0.30952381  1.0
  In  In121  1  0.55555556  0.50000000  0.30952381  1.0
  In  In122  1  0.55555556  0.83333333  0.30952381  1.0
  In  In123  1  0.88888889  0.16666667  0.30952381  1.0
  In  In124  1  0.88888889  0.50000000  0.30952381  1.0
  In  In125  1  0.88888889  0.83333333  0.30952381  1.0
  In  In126  1  0.11111111  0.16666667  0.35714286  1.0
  In  In127  1  0.11111111  0.50000000  0.35714286  1.0
  In  In128  1  0.11111111  0.83333333  0.35714286  1.0
  In  In129  1  0.44444444  0.16666667  0.35714286  1.0
  In  In130  1  0.44444444  0.50000000  0.35714286  1.0
  In  In131  1  0.44444444  0.83333333  0.35714286  1.0
  In  In132  1  0.77777778  0.16666667  0.35714286  1.0
  In  In133  1  0.77777778  0.50000000  0.35714286  1.0
  In  In134  1  0.77777778  0.83333333  0.35714286  1.0
  Ni  Ni135  1  0.00000000  0.00000000  0.33333333  1.0
  Ni  Ni136  1  0.00000000  0.33333333  0.33333333  1.0
  Ni  Ni137  1  0.00000000  0.66666667  0.33333333  1.0
  Ni  Ni138  1  0.33333333  0.00000000  0.33333333  1.0
  Ni  Ni139  1  0.33333333  0.33333333  0.33333333  1.0
  Ni  Ni140  1  0.33333333  0.66666667  0.33333333  1.0
  Ni  Ni141  1  0.66666667  0.00000000  0.33333333  1.0
  Ni  Ni142  1  0.66666667  0.33333333  0.33333333  1.0
  Ni  Ni143  1  0.66666667  0.66666667  0.33333333  1.0
  Ni  Ni144  1  0.16666667  0.00000000  0.40476190  1.0
  Ni  Ni145  1  0.16666667  0.33333333  0.40476190  1.0
  Ni  Ni146  1  0.16666667  0.66666667  0.40476190  1.0
  Ni  Ni147  1  0.50000000  0.00000000  0.40476190  1.0
  Ni  Ni148  1  0.50000000  0.33333333  0.40476190  1.0
  Ni  Ni149  1  0.50000000  0.66666667  0.40476190  1.0
  Ni  Ni150  1  0.83333333  0.00000000  0.40476190  1.0
  Ni  Ni151  1  0.83333333  0.33333333  0.40476190  1.0
  Ni  Ni152  1  0.83333333  0.66666667  0.40476190  1.0
  Ni  Ni153  1  0.16666667  0.00000000  0.33333333  1.0
  Ni  Ni154  1  0.16666667  0.33333333  0.33333333  1.0
  Ni  Ni155  1  0.16666667  0.66666667  0.33333333  1.0
  Ni  Ni156  1  0.50000000  0.00000000  0.33333333  1.0
  Ni  Ni157  1  0.50000000  0.33333333  0.33333333  1.0
  Ni  Ni158  1  0.50000000  0.66666667  0.33333333  1.0
  Ni  Ni159  1  0.83333333  0.00000000  0.33333333  1.0
  Ni  Ni160  1  0.83333333  0.33333333  0.33333333  1.0
  Ni  Ni161  1  0.83333333  0.66666667  0.33333333  1.0
