# generated using pymatgen
data_InNi
_symmetry_space_group_name_H-M   'P 1'
_cell_length_a   27.39483165
_cell_length_b   20.54902937
_cell_length_c   34.98354400
_cell_angle_alpha   129.67380527
_cell_angle_beta   90.00000000
_cell_angle_gamma   90.00000000
_symmetry_Int_Tables_number   1
_chemical_formula_structural   InNi
_chemical_formula_sum   'In162 Ni162'
_cell_volume   15157.94922807
_cell_formula_units_Z   162
loop_
 _symmetry_equiv_pos_site_id
 _symmetry_equiv_pos_as_xyz
  1  'x, y, z'
loop_
 _atom_site_type_symbol
 _atom_site_label
 _atom_site_symmetry_multiplicity
 _atom_site_fract_x
 _atom_site_fract_y
 _atom_site_fract_z
 _atom_site_occupancy
  In  In0  1  0.16666667  0.16666667  0.04687500  1.0
  In  In1  1  0.16666667  0.50000000  0.04687500  1.0
  In  In2  1  0.16666667  0.83333333  0.04687500  1.0
  In  In3  1  0.50000000  0.16666667  0.04687500  1.0
  In  In4  1  0.50000000  0.50000000  0.04687500  1.0
  In  In5  1  0.50000000  0.83333333  0.04687500  1.0
  In  In6  1  0.83333333  0.16666667  0.04687500  1.0
  In  In7  1  0.83333333  0.50000000  0.04687500  1.0
  In  In8  1  0.83333333  0.83333333  0.04687500  1.0
  In  In9  1  0.00000000  0.00000000  0.10937500  1.0
  In  In10  1  0.00000000  0.33333333  0.10937500  1.0
  In  In11  1  0.00000000  0.66666667  0.10937500  1.0
  In  In12  1  0.33333333  0.00000000  0.10937500  1.0
  In  In13  1  0.33333333  0.33333333  0.10937500  1.0
  In  In14  1  0.33333333  0.66666667  0.10937500  1.0
  In  In15  1  0.66666667  0.00000000  0.10937500  1.0
  In  In16  1  0.66666667  0.33333333  0.10937500  1.0
  In  In17  1  0.66666667  0.66666667  0.10937500  1.0
  In  In18  1  0.05555556  0.16666667  0.10937500  1.0
  In  In19  1  0.05555556  0.50000000  0.10937500  1.0
  In  In20  1  0.05555556  0.83333333  0.10937500  1.0
  In  In21  1  0.38888889  0.16666667  0.10937500  1.0
  In  In22  1  0.38888889  0.50000000  0.10937500  1.0
  In  In23  1  0.38888889  0.83333333  0.10937500  1.0
  In  In24  1  0.72222222  0.16666667  0.10937500  1.0
  In  In25  1  0.72222222  0.50000000  0.10937500  1.0
  In  In26  1  0.72222222  0.83333333  0.10937500  1.0
  In  In27  1  0.22222222  0.00000000  0.04687500  1.0
  In  In28  1  0.22222222  0.33333333  0.04687500  1.0
  In  In29  1  0.22222222  0.66666667  0.04687500  1.0
  In  In30  1  0.55555556  0.00000000  0.04687500  1.0
  In  In31  1  0.55555556  0.33333333  0.04687500  1.0
  In  In32  1  0.55555556  0.66666667  0.04687500  1.0
  In  In33  1  0.88888889  0.00000000  0.04687500  1.0
  In  In34  1  0.88888889  0.33333333  0.04687500  1.0
  In  In35  1  0.88888889  0.66666667  0.04687500  1.0
  In  In36  1  0.11111111  0.00000000  0.04687500  1.0
  In  In37  1  0.11111111  0.33333333  0.04687500  1.0
  In  In38  1  0.11111111  0.66666667  0.04687500  1.0
  In  In39  1  0.44444444  0.00000000  0.04687500  1.0
  In  In40  1  0.44444444  0.33333333  0.04687500  1.0
  In  In41  1  0.44444444  0.66666667  0.04687500  1.0
  In  In42  1  0.77777778  0.00000000  0.04687500  1.0
  In  In43  1  0.77777778  0.33333333  0.04687500  1.0
  In  In44  1  0.77777778  0.66666667  0.04687500  1.0
  In  In45  1  0.27777778  0.16666667  0.10937500  1.0
  In  In46  1  0.27777778  0.50000000  0.10937500  1.0
  In  In47  1  0.27777778  0.83333333  0.10937500  1.0
  In  In48  1  0.61111111  0.16666667  0.10937500  1.0
  In  In49  1  0.61111111  0.50000000  0.10937500  1.0
  In  In50  1  0.61111111  0.83333333  0.10937500  1.0
  In  In51  1  0.94444444  0.16666667  0.10937500  1.0
  In  In52  1  0.94444444  0.50000000  0.10937500  1.0
  In  In53  1  0.94444444  0.83333333  0.10937500  1.0
  Ni  Ni54  1  0.16666667  0.00000000  0.10937500  1.0
  Ni  Ni55  1  0.16666667  0.33333333  0.10937500  1.0
  Ni  Ni56  1  0.16666667  0.66666667  0.10937500  1.0
  Ni  Ni57  1  0.50000000  0.00000000  0.10937500  1.0
  Ni  Ni58  1  0.50000000  0.33333333  0.10937500  1.0
  Ni  Ni59  1  0.50000000  0.66666667  0.10937500  1.0
  Ni  Ni60  1  0.83333333  0.00000000  0.10937500  1.0
  Ni  Ni61  1  0.83333333  0.33333333  0.10937500  1.0
  Ni  Ni62  1  0.83333333  0.66666667  0.10937500  1.0
  Ni  Ni63  1  0.00000000  0.16666667  0.04687500  1.0
  Ni  Ni64  1  0.00000000  0.50000000  0.04687500  1.0
  Ni  Ni65  1  0.00000000  0.83333333  0.04687500  1.0
  Ni  Ni66  1  0.33333333  0.16666667  0.04687500  1.0
  Ni  Ni67  1  0.33333333  0.50000000  0.04687500  1.0
  Ni  Ni68  1  0.33333333  0.83333333  0.04687500  1.0
  Ni  Ni69  1  0.66666667  0.16666667  0.04687500  1.0
  Ni  Ni70  1  0.66666667  0.50000000  0.04687500  1.0
  Ni  Ni71  1  0.66666667  0.83333333  0.04687500  1.0
  Ni  Ni72  1  0.08333333  0.25000000  0.07812500  1.0
  Ni  Ni73  1  0.08333333  0.58333333  0.07812500  1.0
  Ni  Ni74  1  0.08333333  0.91666667  0.07812500  1.0
  Ni  Ni75  1  0.41666667  0.25000000  0.07812500  1.0
  Ni  Ni76  1  0.41666667  0.58333333  0.07812500  1.0
  Ni  Ni77  1  0.41666667  0.91666667  0.07812500  1.0
  Ni  Ni78  1  0.75000000  0.25000000  0.07812500  1.0
  Ni  Ni79  1  0.75000000  0.58333333  0.07812500  1.0
  Ni  Ni80  1  0.75000000  0.91666667  0.07812500  1.0
  Ni  Ni81  1  0.25000000  0.08333333  0.01562500  1.0
  Ni  Ni82  1  0.25000000  0.41666667  0.01562500  1.0
  Ni  Ni83  1  0.25000000  0.75000000  0.01562500  1.0
  Ni  Ni84  1  0.58333333  0.08333333  0.01562500  1.0
  Ni  Ni85  1  0.58333333  0.41666667  0.01562500  1.0
  Ni  Ni86  1  0.58333333  0.75000000  0.01562500  1.0
  Ni  Ni87  1  0.91666667  0.08333333  0.01562500  1.0
  Ni  Ni88  1  0.91666667  0.41666667  0.01562500  1.0
  Ni  Ni89  1  0.91666667  0.75000000  0.01562500  1.0
  Ni  Ni90  1  0.08333333  0.08333333  0.01562500  1.0
  Ni  Ni91  1  0.08333333  0.41666667  0.01562500  1.0
  Ni  Ni92  1  0.08333333  0.75000000  0.01562500  1.0
  Ni  Ni93  1  0.41666667  0.08333333  0.01562500  1.0
  Ni  Ni94  1  0.41666667  0.41666667  0.01562500  1.0
  Ni  Ni95  1  0.41666667  0.75000000  0.01562500  1.0
  Ni  Ni96  1  0.75000000  0.08333333  0.01562500  1.0
  Ni  Ni97  1  0.75000000  0.41666667  0.01562500  1.0
  Ni  Ni98  1  0.75000000  0.75000000  0.01562500  1.0
  Ni  Ni99  1  0.25000000  0.25000000  0.07812500  1.0
  Ni  Ni100  1  0.25000000  0.58333333  0.07812500  1.0
  Ni  Ni101  1  0.25000000  0.91666667  0.07812500  1.0
  Ni  Ni102  1  0.58333333  0.25000000  0.07812500  1.0
  Ni  Ni103  1  0.58333333  0.58333333  0.07812500  1.0
  Ni  Ni104  1  0.58333333  0.91666667  0.07812500  1.0
  Ni  Ni105  1  0.91666667  0.25000000  0.07812500  1.0
  Ni  Ni106  1  0.91666667  0.58333333  0.07812500  1.0
  Ni  Ni107  1  0.91666667  0.91666667  0.07812500  1.0
  In  In108  1  0.16666667  0.16666667  0.17187500  1.0
  In  In109  1  0.16666667  0.50000000  0.17187500  1.0
  In  In110  1  0.16666667  0.83333333  0.17187500  1.0
  In  In111  1  0.50000000  0.16666667  0.17187500  1.0
  In  In112  1  0.50000000  0.50000000  0.17187500  1.0
  In  In113  1  0.50000000  0.83333333  0.17187500  1.0
  In  In114  1  0.83333333  0.16666667  0.17187500  1.0
  In  In115  1  0.83333333  0.50000000  0.17187500  1.0
  In  In116  1  0.83333333  0.83333333  0.17187500  1.0
  In  In117  1  0.00000000  0.00000000  0.23437500  1.0
  In  In118  1  0.00000000  0.33333333  0.23437500  1.0
  In  In119  1  0.00000000  0.66666667  0.23437500  1.0
  In  In120  1  0.33333333  0.00000000  0.23437500  1.0
  In  In121  1  0.33333333  0.33333333  0.23437500  1.0
  In  In122  1  0.33333333  0.66666667  0.23437500  1.0
  In  In123  1  0.66666667  0.00000000  0.23437500  1.0
  In  In124  1  0.66666667  0.33333333  0.23437500  1.0
  In  In125  1  0.66666667  0.66666667  0.23437500  1.0
  In  In126  1  0.05555556  0.16666667  0.23437500  1.0
  In  In127  1  0.05555556  0.50000000  0.23437500  1.0
  In  In128  1  0.05555556  0.83333333  0.23437500  1.0
  In  In129  1  0.38888889  0.16666667  0.23437500  1.0
  In  In130  1  0.38888889  0.50000000  0.23437500  1.0
  In  In131  1  0.38888889  0.83333333  0.23437500  1.0
  In  In132  1  0.72222222  0.16666667  0.23437500  1.0
  In  In133  1  0.72222222  0.50000000  0.23437500  1.0
  In  In134  1  0.72222222  0.83333333  0.23437500  1.0
  In  In135  1  0.22222222  0.00000000  0.17187500  1.0
  In  In136  1  0.22222222  0.33333333  0.17187500  1.0
  In  In137  1  0.22222222  0.66666667  0.17187500  1.0
  In  In138  1  0.55555556  0.00000000  0.17187500  1.0
  In  In139  1  0.55555556  0.33333333  0.17187500  1.0
  In  In140  1  0.55555556  0.66666667  0.17187500  1.0
  In  In141  1  0.88888889  0.00000000  0.17187500  1.0
  In  In142  1  0.88888889  0.33333333  0.17187500  1.0
  In  In143  1  0.88888889  0.66666667  0.17187500  1.0
  In  In144  1  0.11111111  0.00000000  0.17187500  1.0
  In  In145  1  0.11111111  0.33333333  0.17187500  1.0
  In  In146  1  0.11111111  0.66666667  0.17187500  1.0
  In  In147  1  0.44444444  0.00000000  0.17187500  1.0
  In  In148  1  0.44444444  0.33333333  0.17187500  1.0
  In  In149  1  0.44444444  0.66666667  0.17187500  1.0
  In  In150  1  0.77777778  0.00000000  0.17187500  1.0
  In  In151  1  0.77777778  0.33333333  0.17187500  1.0
  In  In152  1  0.77777778  0.66666667  0.17187500  1.0
  In  In153  1  0.27777778  0.16666667  0.23437500  1.0
  In  In154  1  0.27777778  0.50000000  0.23437500  1.0
  In  In155  1  0.27777778  0.83333333  0.23437500  1.0
  In  In156  1  0.61111111  0.16666667  0.23437500  1.0
  In  In157  1  0.61111111  0.50000000  0.23437500  1.0
  In  In158  1  0.61111111  0.83333333  0.23437500  1.0
  In  In159  1  0.94444444  0.16666667  0.23437500  1.0
  In  In160  1  0.94444444  0.50000000  0.23437500  1.0
  In  In161  1  0.94444444  0.83333333  0.23437500  1.0
  Ni  Ni162  1  0.16666667  0.00000000  0.23437500  1.0
  Ni  Ni163  1  0.16666667  0.33333333  0.23437500  1.0
  Ni  Ni164  1  0.16666667  0.66666667  0.23437500  1.0
  Ni  Ni165  1  0.50000000  0.00000000  0.23437500  1.0
  Ni  Ni166  1  0.50000000  0.33333333  0.23437500  1.0
  Ni  Ni167  1  0.50000000  0.66666667  0.23437500  1.0
  Ni  Ni168  1  0.83333333  0.00000000  0.23437500  1.0
  Ni  Ni169  1  0.83333333  0.33333333  0.23437500  1.0
  Ni  Ni170  1  0.83333333  0.66666667  0.23437500  1.0
  Ni  Ni171  1  0.00000000  0.16666667  0.17187500  1.0
  Ni  Ni172  1  0.00000000  0.50000000  0.17187500  1.0
  Ni  Ni173  1  0.00000000  0.83333333  0.17187500  1.0
  Ni  Ni174  1  0.33333333  0.16666667  0.17187500  1.0
  Ni  Ni175  1  0.33333333  0.50000000  0.17187500  1.0
  Ni  Ni176  1  0.33333333  0.83333333  0.17187500  1.0
  Ni  Ni177  1  0.66666667  0.16666667  0.17187500  1.0
  Ni  Ni178  1  0.66666667  0.50000000  0.17187500  1.0
  Ni  Ni179  1  0.66666667  0.83333333  0.17187500  1.0
  Ni  Ni180  1  0.08333333  0.25000000  0.20312500  1.0
  Ni  Ni181  1  0.08333333  0.58333333  0.20312500  1.0
  Ni  Ni182  1  0.08333333  0.91666667  0.20312500  1.0
  Ni  Ni183  1  0.41666667  0.25000000  0.20312500  1.0
  Ni  Ni184  1  0.41666667  0.58333333  0.20312500  1.0
  Ni  Ni185  1  0.41666667  0.91666667  0.20312500  1.0
  Ni  Ni186  1  0.75000000  0.25000000  0.20312500  1.0
  Ni  Ni187  1  0.75000000  0.58333333  0.20312500  1.0
  Ni  Ni188  1  0.75000000  0.91666667  0.20312500  1.0
  Ni  Ni189  1  0.25000000  0.08333333  0.14062500  1.0
  Ni  Ni190  1  0.25000000  0.41666667  0.14062500  1.0
  Ni  Ni191  1  0.25000000  0.75000000  0.14062500  1.0
  Ni  Ni192  1  0.58333333  0.08333333  0.14062500  1.0
  Ni  Ni193  1  0.58333333  0.41666667  0.14062500  1.0
  Ni  Ni194  1  0.58333333  0.75000000  0.14062500  1.0
  Ni  Ni195  1  0.91666667  0.08333333  0.14062500  1.0
  Ni  Ni196  1  0.91666667  0.41666667  0.14062500  1.0
  Ni  Ni197  1  0.91666667  0.75000000  0.14062500  1.0
  Ni  Ni198  1  0.08333333  0.08333333  0.14062500  1.0
  Ni  Ni199  1  0.08333333  0.41666667  0.14062500  1.0
  Ni  Ni200  1  0.08333333  0.75000000  0.14062500  1.0
  Ni  Ni201  1  0.41666667  0.08333333  0.14062500  1.0
  Ni  Ni202  1  0.41666667  0.41666667  0.14062500  1.0
  Ni  Ni203  1  0.41666667  0.75000000  0.14062500  1.0
  Ni  Ni204  1  0.75000000  0.08333333  0.14062500  1.0
  Ni  Ni205  1  0.75000000  0.41666667  0.14062500  1.0
  Ni  Ni206  1  0.75000000  0.75000000  0.14062500  1.0
  Ni  Ni207  1  0.25000000  0.25000000  0.20312500  1.0
  Ni  Ni208  1  0.25000000  0.58333333  0.20312500  1.0
  Ni  Ni209  1  0.25000000  0.91666667  0.20312500  1.0
  Ni  Ni210  1  0.58333333  0.25000000  0.20312500  1.0
  Ni  Ni211  1  0.58333333  0.58333333  0.20312500  1.0
  Ni  Ni212  1  0.58333333  0.91666667  0.20312500  1.0
  Ni  Ni213  1  0.91666667  0.25000000  0.20312500  1.0
  Ni  Ni214  1  0.91666667  0.58333333  0.20312500  1.0
  Ni  Ni215  1  0.91666667  0.91666667  0.20312500  1.0
  In  In216  1  0.16666667  0.16666667  0.29687500  1.0
  In  In217  1  0.16666667  0.50000000  0.29687500  1.0
  In  In218  1  0.16666667  0.83333333  0.29687500  1.0
  In  In219  1  0.50000000  0.16666667  0.29687500  1.0
  In  In220  1  0.50000000  0.50000000  0.29687500  1.0
  In  In221  1  0.50000000  0.83333333  0.29687500  1.0
  In  In222  1  0.83333333  0.16666667  0.29687500  1.0
  In  In223  1  0.83333333  0.50000000  0.29687500  1.0
  In  In224  1  0.83333333  0.83333333  0.29687500  1.0
  In  In225  1  0.00000000  0.00000000  0.35937500  1.0
  In  In226  1  0.00000000  0.33333333  0.35937500  1.0
  In  In227  1  0.00000000  0.66666667  0.35937500  1.0
  In  In228  1  0.33333333  0.00000000  0.35937500  1.0
  In  In229  1  0.33333333  0.33333333  0.35937500  1.0
  In  In230  1  0.33333333  0.66666667  0.35937500  1.0
  In  In231  1  0.66666667  0.00000000  0.35937500  1.0
  In  In232  1  0.66666667  0.33333333  0.35937500  1.0
  In  In233  1  0.66666667  0.66666667  0.35937500  1.0
  In  In234  1  0.05555556  0.16666667  0.35937500  1.0
  In  In235  1  0.05555556  0.50000000  0.35937500  1.0
  In  In236  1  0.05555556  0.83333333  0.35937500  1.0
  In  In237  1  0.38888889  0.16666667  0.35937500  1.0
  In  In238  1  0.38888889  0.50000000  0.35937500  1.0
  In  In239  1  0.38888889  0.83333333  0.35937500  1.0
  In  In240  1  0.72222222  0.16666667  0.35937500  1.0
  In  In241  1  0.72222222  0.50000000  0.35937500  1.0
  In  In242  1  0.72222222  0.83333333  0.35937500  1.0
  In  In243  1  0.22222222  0.00000000  0.29687500  1.0
  In  In244  1  0.22222222  0.33333333  0.29687500  1.0
  In  In245  1  0.22222222  0.66666667  0.29687500  1.0
  In  In246  1  0.55555556  0.00000000  0.29687500  1.0
  In  In247  1  0.55555556  0.33333333  0.29687500  1.0
  In  In248  1  0.55555556  0.66666667  0.29687500  1.0
  In  In249  1  0.88888889  0.00000000  0.29687500  1.0
  In  In250  1  0.88888889  0.33333333  0.29687500  1.0
  In  In251  1  0.88888889  0.66666667  0.29687500  1.0
  In  In252  1  0.11111111  0.00000000  0.29687500  1.0
  In  In253  1  0.11111111  0.33333333  0.29687500  1.0
  In  In254  1  0.11111111  0.66666667  0.29687500  1.0
  In  In255  1  0.44444444  0.00000000  0.29687500  1.0
  In  In256  1  0.44444444  0.33333333  0.29687500  1.0
  In  In257  1  0.44444444  0.66666667  0.29687500  1.0
  In  In258  1  0.77777778  0.00000000  0.29687500  1.0
  In  In259  1  0.77777778  0.33333333  0.29687500  1.0
  In  In260  1  0.77777778  0.66666667  0.29687500  1.0
  In  In261  1  0.27777778  0.16666667  0.35937500  1.0
  In  In262  1  0.27777778  0.50000000  0.35937500  1.0
  In  In263  1  0.27777778  0.83333333  0.35937500  1.0
  In  In264  1  0.61111111  0.16666667  0.35937500  1.0
  In  In265  1  0.61111111  0.50000000  0.35937500  1.0
  In  In266  1  0.61111111  0.83333333  0.35937500  1.0
  In  In267  1  0.94444444  0.16666667  0.35937500  1.0
  In  In268  1  0.94444444  0.50000000  0.35937500  1.0
  In  In269  1  0.94444444  0.83333333  0.35937500  1.0
  Ni  Ni270  1  0.16666667  0.00000000  0.35937500  1.0
  Ni  Ni271  1  0.16666667  0.33333333  0.35937500  1.0
  Ni  Ni272  1  0.16666667  0.66666667  0.35937500  1.0
  Ni  Ni273  1  0.50000000  0.00000000  0.35937500  1.0
  Ni  Ni274  1  0.50000000  0.33333333  0.35937500  1.0
  Ni  Ni275  1  0.50000000  0.66666667  0.35937500  1.0
  Ni  Ni276  1  0.83333333  0.00000000  0.35937500  1.0
  Ni  Ni277  1  0.83333333  0.33333333  0.35937500  1.0
  Ni  Ni278  1  0.83333333  0.66666667  0.35937500  1.0
  Ni  Ni279  1  0.00000000  0.16666667  0.29687500  1.0
  Ni  Ni280  1  0.00000000  0.50000000  0.29687500  1.0
  Ni  Ni281  1  0.00000000  0.83333333  0.29687500  1.0
  Ni  Ni282  1  0.33333333  0.16666667  0.29687500  1.0
  Ni  Ni283  1  0.33333333  0.50000000  0.29687500  1.0
  Ni  Ni284  1  0.33333333  0.83333333  0.29687500  1.0
  Ni  Ni285  1  0.66666667  0.16666667  0.29687500  1.0
  Ni  Ni286  1  0.66666667  0.50000000  0.29687500  1.0
  Ni  Ni287  1  0.66666667  0.83333333  0.29687500  1.0
  Ni  Ni288  1  0.08333333  0.25000000  0.32812500  1.0
  Ni  Ni289  1  0.08333333  0.58333333  0.32812500  1.0
  Ni  Ni290  1  0.08333333  0.91666667  0.32812500  1.0
  Ni  Ni291  1  0.41666667  0.25000000  0.32812500  1.0
  Ni  Ni292  1  0.41666667  0.58333333  0.32812500  1.0
  Ni  Ni293  1  0.41666667  0.91666667  0.32812500  1.0
  Ni  Ni294  1  0.75000000  0.25000000  0.32812500  1.0
  Ni  Ni295  1  0.75000000  0.58333333  0.32812500  1.0
  Ni  Ni296  1  0.75000000  0.91666667  0.32812500  1.0
  Ni  Ni297  1  0.25000000  0.08333333  0.26562500  1.0
  Ni  Ni298  1  0.25000000  0.41666667  0.26562500  1.0
  Ni  Ni299  1  0.25000000  0.75000000  0.26562500  1.0
  Ni  Ni300  1  0.58333333  0.08333333  0.26562500  1.0
  Ni  Ni301  1  0.58333333  0.41666667  0.26562500  1.0
  Ni  Ni302  1  0.58333333  0.75000000  0.26562500  1.0
  Ni  Ni303  1  0.91666667  0.08333333  0.26562500  1.0
  Ni  Ni304  1  0.91666667  0.41666667  0.26562500  1.0
  Ni  Ni305  1  0.91666667  0.75000000  0.26562500  1.0
  Ni  Ni306  1  0.08333333  0.08333333  0.26562500  1.0
  Ni  Ni307  1  0.08333333  0.41666667  0.26562500  1.0
  Ni  Ni308  1  0.08333333  0.75000000  0.26562500  1.0
  Ni  Ni309  1  0.41666667  0.08333333  0.26562500  1.0
  Ni  Ni310  1  0.41666667  0.41666667  0.26562500  1.0
  Ni  Ni311  1  0.41666667  0.75000000  0.26562500  1.0
  Ni  Ni312  1  0.75000000  0.08333333  0.26562500  1.0
  Ni  Ni313  1  0.75000000  0.41666667  0.26562500  1.0
  Ni  Ni314  1  0.75000000  0.75000000  0.26562500  1.0
  Ni  Ni315  1  0.25000000  0.25000000  0.32812500  1.0
  Ni  Ni316  1  0.25000000  0.58333333  0.32812500  1.0
  Ni  Ni317  1  0.25000000  0.91666667  0.32812500  1.0
  Ni  Ni318  1  0.58333333  0.25000000  0.32812500  1.0
  Ni  Ni319  1  0.58333333  0.58333333  0.32812500  1.0
  Ni  Ni320  1  0.58333333  0.91666667  0.32812500  1.0
  Ni  Ni321  1  0.91666667  0.25000000  0.32812500  1.0
  Ni  Ni322  1  0.91666667  0.58333333  0.32812500  1.0
  Ni  Ni323  1  0.91666667  0.91666667  0.32812500  1.0
