# generated using pymatgen
data_InNi
_symmetry_space_group_name_H-M   'P 1'
_cell_length_a   13.35270606
_cell_length_b   21.11248203
_cell_length_c   40.91441900
_cell_angle_alpha   116.56505118
_cell_angle_beta   135.00000000
_cell_angle_gamma   71.56505118
_symmetry_Int_Tables_number   1
_chemical_formula_structural   InNi
_chemical_formula_sum   'In90 Ni90'
_cell_volume   7294.82647691
_cell_formula_units_Z   90
loop_
 _symmetry_equiv_pos_site_id
 _symmetry_equiv_pos_as_xyz
  1  'x, y, z'
loop_
 _atom_site_type_symbol
 _atom_site_label
 _atom_site_symmetry_multiplicity
 _atom_site_fract_x
 _atom_site_fract_y
 _atom_site_fract_z
 _atom_site_occupancy
  In  In0  1  0.00000000  0.00000000  0.06730769  1.0
  In  In1  1  0.00000000  0.33333333  0.06730769  1.0
  In  In2  1  0.00000000  0.66666667  0.06730769  1.0
  In  In3  1  0.33333333  0.00000000  0.06730769  1.0
  In  In4  1  0.33333333  0.33333333  0.06730769  1.0
  In  In5  1  0.33333333  0.66666667  0.06730769  1.0
  In  In6  1  0.66666667  0.00000000  0.06730769  1.0
  In  In7  1  0.66666667  0.33333333  0.06730769  1.0
  In  In8  1  0.66666667  0.66666667  0.06730769  1.0
  In  In9  1  0.00000000  0.16666667  0.02884615  1.0
  In  In10  1  0.00000000  0.50000000  0.02884615  1.0
  In  In11  1  0.00000000  0.83333333  0.02884615  1.0
  In  In12  1  0.33333333  0.16666667  0.02884615  1.0
  In  In13  1  0.33333333  0.50000000  0.02884615  1.0
  In  In14  1  0.33333333  0.83333333  0.02884615  1.0
  In  In15  1  0.66666667  0.16666667  0.02884615  1.0
  In  In16  1  0.66666667  0.50000000  0.02884615  1.0
  In  In17  1  0.66666667  0.83333333  0.02884615  1.0
  Ni  Ni18  1  0.16666667  0.08333333  0.00961538  1.0
  Ni  Ni19  1  0.16666667  0.41666667  0.00961538  1.0
  Ni  Ni20  1  0.16666667  0.75000000  0.00961538  1.0
  Ni  Ni21  1  0.50000000  0.08333333  0.00961538  1.0
  Ni  Ni22  1  0.50000000  0.41666667  0.00961538  1.0
  Ni  Ni23  1  0.50000000  0.75000000  0.00961538  1.0
  Ni  Ni24  1  0.83333333  0.08333333  0.00961538  1.0
  Ni  Ni25  1  0.83333333  0.41666667  0.00961538  1.0
  Ni  Ni26  1  0.83333333  0.75000000  0.00961538  1.0
  Ni  Ni27  1  0.16666667  0.25000000  0.04807692  1.0
  Ni  Ni28  1  0.16666667  0.58333333  0.04807692  1.0
  Ni  Ni29  1  0.16666667  0.91666667  0.04807692  1.0
  Ni  Ni30  1  0.50000000  0.25000000  0.04807692  1.0
  Ni  Ni31  1  0.50000000  0.58333333  0.04807692  1.0
  Ni  Ni32  1  0.50000000  0.91666667  0.04807692  1.0
  Ni  Ni33  1  0.83333333  0.25000000  0.04807692  1.0
  Ni  Ni34  1  0.83333333  0.58333333  0.04807692  1.0
  Ni  Ni35  1  0.83333333  0.91666667  0.04807692  1.0
  In  In36  1  0.00000000  0.00000000  0.14423077  1.0
  In  In37  1  0.00000000  0.33333333  0.14423077  1.0
  In  In38  1  0.00000000  0.66666667  0.14423077  1.0
  In  In39  1  0.33333333  0.00000000  0.14423077  1.0
  In  In40  1  0.33333333  0.33333333  0.14423077  1.0
  In  In41  1  0.33333333  0.66666667  0.14423077  1.0
  In  In42  1  0.66666667  0.00000000  0.14423077  1.0
  In  In43  1  0.66666667  0.33333333  0.14423077  1.0
  In  In44  1  0.66666667  0.66666667  0.14423077  1.0
  In  In45  1  0.00000000  0.16666667  0.10576923  1.0
  In  In46  1  0.00000000  0.50000000  0.10576923  1.0
  In  In47  1  0.00000000  0.83333333  0.10576923  1.0
  In  In48  1  0.33333333  0.16666667  0.10576923  1.0
  In  In49  1  0.33333333  0.50000000  0.10576923  1.0
  In  In50  1  0.33333333  0.83333333  0.10576923  1.0
  In  In51  1  0.66666667  0.16666667  0.10576923  1.0
  In  In52  1  0.66666667  0.50000000  0.10576923  1.0
  In  In53  1  0.66666667  0.83333333  0.10576923  1.0
  Ni  Ni54  1  0.16666667  0.08333333  0.08653846  1.0
  Ni  Ni55  1  0.16666667  0.41666667  0.08653846  1.0
  Ni  Ni56  1  0.16666667  0.75000000  0.08653846  1.0
  Ni  Ni57  1  0.50000000  0.08333333  0.08653846  1.0
  Ni  Ni58  1  0.50000000  0.41666667  0.08653846  1.0
  Ni  Ni59  1  0.50000000  0.75000000  0.08653846  1.0
  Ni  Ni60  1  0.83333333  0.08333333  0.08653846  1.0
  Ni  Ni61  1  0.83333333  0.41666667  0.08653846  1.0
  Ni  Ni62  1  0.83333333  0.75000000  0.08653846  1.0
  Ni  Ni63  1  0.16666667  0.25000000  0.12500000  1.0
  Ni  Ni64  1  0.16666667  0.58333333  0.12500000  1.0
  Ni  Ni65  1  0.16666667  0.91666667  0.12500000  1.0
  Ni  Ni66  1  0.50000000  0.25000000  0.12500000  1.0
  Ni  Ni67  1  0.50000000  0.58333333  0.12500000  1.0
  Ni  Ni68  1  0.50000000  0.91666667  0.12500000  1.0
  Ni  Ni69  1  0.83333333  0.25000000  0.12500000  1.0
  Ni  Ni70  1  0.83333333  0.58333333  0.12500000  1.0
  Ni  Ni71  1  0.83333333  0.91666667  0.12500000  1.0
  In  In72  1  0.00000000  0.00000000  0.22115385  1.0
  In  In73  1  0.00000000  0.33333333  0.22115385  1.0
  In  In74  1  0.00000000  0.66666667  0.22115385  1.0
  In  In75  1  0.33333333  0.00000000  0.22115385  1.0
  In  In76  1  0.33333333  0.33333333  0.22115385  1.0
  In  In77  1  0.33333333  0.66666667  0.22115385  1.0
  In  In78  1  0.66666667  0.00000000  0.22115385  1.0
  In  In79  1  0.66666667  0.33333333  0.22115385  1.0
  In  In80  1  0.66666667  0.66666667  0.22115385  1.0
  In  In81  1  0.00000000  0.16666667  0.18269231  1.0
  In  In82  1  0.00000000  0.50000000  0.18269231  1.0
  In  In83  1  0.00000000  0.83333333  0.18269231  1.0
  In  In84  1  0.33333333  0.16666667  0.18269231  1.0
  In  In85  1  0.33333333  0.50000000  0.18269231  1.0
  In  In86  1  0.33333333  0.83333333  0.18269231  1.0
  In  In87  1  0.66666667  0.16666667  0.18269231  1.0
  In  In88  1  0.66666667  0.50000000  0.18269231  1.0
  In  In89  1  0.66666667  0.83333333  0.18269231  1.0
  Ni  Ni90  1  0.16666667  0.08333333  0.16346154  1.0
  Ni  Ni91  1  0.16666667  0.41666667  0.16346154  1.0
  Ni  Ni92  1  0.16666667  0.75000000  0.16346154  1.0
  Ni  Ni93  1  0.50000000  0.08333333  0.16346154  1.0
  Ni  Ni94  1  0.50000000  0.41666667  0.16346154  1.0
  Ni  Ni95  1  0.50000000  0.75000000  0.16346154  1.0
  Ni  Ni96  1  0.83333333  0.08333333  0.16346154  1.0
  Ni  Ni97  1  0.83333333  0.41666667  0.16346154  1.0
  Ni  Ni98  1  0.83333333  0.75000000  0.16346154  1.0
  Ni  Ni99  1  0.16666667  0.25000000  0.20192308  1.0
  Ni  Ni100  1  0.16666667  0.58333333  0.20192308  1.0
  Ni  Ni101  1  0.16666667  0.91666667  0.20192308  1.0
  Ni  Ni102  1  0.50000000  0.25000000  0.20192308  1.0
  Ni  Ni103  1  0.50000000  0.58333333  0.20192308  1.0
  Ni  Ni104  1  0.50000000  0.91666667  0.20192308  1.0
  Ni  Ni105  1  0.83333333  0.25000000  0.20192308  1.0
  Ni  Ni106  1  0.83333333  0.58333333  0.20192308  1.0
  Ni  Ni107  1  0.83333333  0.91666667  0.20192308  1.0
  In  In108  1  0.00000000  0.00000000  0.29807692  1.0
  In  In109  1  0.00000000  0.33333333  0.29807692  1.0
  In  In110  1  0.00000000  0.66666667  0.29807692  1.0
  In  In111  1  0.33333333  0.00000000  0.29807692  1.0
  In  In112  1  0.33333333  0.33333333  0.29807692  1.0
  In  In113  1  0.33333333  0.66666667  0.29807692  1.0
  In  In114  1  0.66666667  0.00000000  0.29807692  1.0
  In  In115  1  0.66666667  0.33333333  0.29807692  1.0
  In  In116  1  0.66666667  0.66666667  0.29807692  1.0
  In  In117  1  0.00000000  0.16666667  0.25961538  1.0
  In  In118  1  0.00000000  0.50000000  0.25961538  1.0
  In  In119  1  0.00000000  0.83333333  0.25961538  1.0
  In  In120  1  0.33333333  0.16666667  0.25961538  1.0
  In  In121  1  0.33333333  0.50000000  0.25961538  1.0
  In  In122  1  0.33333333  0.83333333  0.25961538  1.0
  In  In123  1  0.66666667  0.16666667  0.25961538  1.0
  In  In124  1  0.66666667  0.50000000  0.25961538  1.0
  In  In125  1  0.66666667  0.83333333  0.25961538  1.0
  Ni  Ni126  1  0.16666667  0.08333333  0.24038462  1.0
  Ni  Ni127  1  0.16666667  0.41666667  0.24038462  1.0
  Ni  Ni128  1  0.16666667  0.75000000  0.24038462  1.0
  Ni  Ni129  1  0.50000000  0.08333333  0.24038462  1.0
  Ni  Ni130  1  0.50000000  0.41666667  0.24038462  1.0
  Ni  Ni131  1  0.50000000  0.75000000  0.24038462  1.0
  Ni  Ni132  1  0.83333333  0.08333333  0.24038462  1.0
  Ni  Ni133  1  0.83333333  0.41666667  0.24038462  1.0
  Ni  Ni134  1  0.83333333  0.75000000  0.24038462  1.0
  Ni  Ni135  1  0.16666667  0.25000000  0.27884615  1.0
  Ni  Ni136  1  0.16666667  0.58333333  0.27884615  1.0
  Ni  Ni137  1  0.16666667  0.91666667  0.27884615  1.0
  Ni  Ni138  1  0.50000000  0.25000000  0.27884615  1.0
  Ni  Ni139  1  0.50000000  0.58333333  0.27884615  1.0
  Ni  Ni140  1  0.50000000  0.91666667  0.27884615  1.0
  Ni  Ni141  1  0.83333333  0.25000000  0.27884615  1.0
  Ni  Ni142  1  0.83333333  0.58333333  0.27884615  1.0
  Ni  Ni143  1  0.83333333  0.91666667  0.27884615  1.0
  In  In144  1  0.00000000  0.00000000  0.37500000  1.0
  In  In145  1  0.00000000  0.33333333  0.37500000  1.0
  In  In146  1  0.00000000  0.66666667  0.37500000  1.0
  In  In147  1  0.33333333  0.00000000  0.37500000  1.0
  In  In148  1  0.33333333  0.33333333  0.37500000  1.0
  In  In149  1  0.33333333  0.66666667  0.37500000  1.0
  In  In150  1  0.66666667  0.00000000  0.37500000  1.0
  In  In151  1  0.66666667  0.33333333  0.37500000  1.0
  In  In152  1  0.66666667  0.66666667  0.37500000  1.0
  In  In153  1  0.00000000  0.16666667  0.33653846  1.0
  In  In154  1  0.00000000  0.50000000  0.33653846  1.0
  In  In155  1  0.00000000  0.83333333  0.33653846  1.0
  In  In156  1  0.33333333  0.16666667  0.33653846  1.0
  In  In157  1  0.33333333  0.50000000  0.33653846  1.0
  In  In158  1  0.33333333  0.83333333  0.33653846  1.0
  In  In159  1  0.66666667  0.16666667  0.33653846  1.0
  In  In160  1  0.66666667  0.50000000  0.33653846  1.0
  In  In161  1  0.66666667  0.83333333  0.33653846  1.0
  Ni  Ni162  1  0.16666667  0.08333333  0.31730769  1.0
  Ni  Ni163  1  0.16666667  0.41666667  0.31730769  1.0
  Ni  Ni164  1  0.16666667  0.75000000  0.31730769  1.0
  Ni  Ni165  1  0.50000000  0.08333333  0.31730769  1.0
  Ni  Ni166  1  0.50000000  0.41666667  0.31730769  1.0
  Ni  Ni167  1  0.50000000  0.75000000  0.31730769  1.0
  Ni  Ni168  1  0.83333333  0.08333333  0.31730769  1.0
  Ni  Ni169  1  0.83333333  0.41666667  0.31730769  1.0
  Ni  Ni170  1  0.83333333  0.75000000  0.31730769  1.0
  Ni  Ni171  1  0.16666667  0.25000000  0.35576923  1.0
  Ni  Ni172  1  0.16666667  0.58333333  0.35576923  1.0
  Ni  Ni173  1  0.16666667  0.91666667  0.35576923  1.0
  Ni  Ni174  1  0.50000000  0.25000000  0.35576923  1.0
  Ni  Ni175  1  0.50000000  0.58333333  0.35576923  1.0
  Ni  Ni176  1  0.50000000  0.91666667  0.35576923  1.0
  Ni  Ni177  1  0.83333333  0.25000000  0.35576923  1.0
  Ni  Ni178  1  0.83333333  0.58333333  0.35576923  1.0
  Ni  Ni179  1  0.83333333  0.91666667  0.35576923  1.0
