# generated using pymatgen
data_InNi3
_symmetry_space_group_name_H-M   'P 1'
_cell_length_a   11.18884200
_cell_length_b   11.18884200
_cell_length_c   29.83691200
_cell_angle_alpha   90.00000000
_cell_angle_beta   90.00000000
_cell_angle_gamma   90.00000000
_symmetry_Int_Tables_number   1
_chemical_formula_structural   InNi3
_chemical_formula_sum   'In27 Ni81'
_cell_volume   3735.28854209
_cell_formula_units_Z   27
loop_
 _symmetry_equiv_pos_site_id
 _symmetry_equiv_pos_as_xyz
  1  'x, y, z'
loop_
 _atom_site_type_symbol
 _atom_site_label
 _atom_site_symmetry_multiplicity
 _atom_site_fract_x
 _atom_site_fract_y
 _atom_site_fract_z
 _atom_site_occupancy
  In  In0  1  0.00000000  0.00000000  0.09375000  1.0
  In  In1  1  0.00000000  0.33333333  0.09375000  1.0
  In  In2  1  0.00000000  0.66666667  0.09375000  1.0
  In  In3  1  0.33333333  0.00000000  0.09375000  1.0
  In  In4  1  0.33333333  0.33333333  0.09375000  1.0
  In  In5  1  0.33333333  0.66666667  0.09375000  1.0
  In  In6  1  0.66666667  0.00000000  0.09375000  1.0
  In  In7  1  0.66666667  0.33333333  0.09375000  1.0
  In  In8  1  0.66666667  0.66666667  0.09375000  1.0
  Ni  Ni9  1  0.00000000  0.16666667  0.03125000  1.0
  Ni  Ni10  1  0.00000000  0.50000000  0.03125000  1.0
  Ni  Ni11  1  0.00000000  0.83333333  0.03125000  1.0
  Ni  Ni12  1  0.33333333  0.16666667  0.03125000  1.0
  Ni  Ni13  1  0.33333333  0.50000000  0.03125000  1.0
  Ni  Ni14  1  0.33333333  0.83333333  0.03125000  1.0
  Ni  Ni15  1  0.66666667  0.16666667  0.03125000  1.0
  Ni  Ni16  1  0.66666667  0.50000000  0.03125000  1.0
  Ni  Ni17  1  0.66666667  0.83333333  0.03125000  1.0
  Ni  Ni18  1  0.16666667  0.16666667  0.09375000  1.0
  Ni  Ni19  1  0.16666667  0.50000000  0.09375000  1.0
  Ni  Ni20  1  0.16666667  0.83333333  0.09375000  1.0
  Ni  Ni21  1  0.50000000  0.16666667  0.09375000  1.0
  Ni  Ni22  1  0.50000000  0.50000000  0.09375000  1.0
  Ni  Ni23  1  0.50000000  0.83333333  0.09375000  1.0
  Ni  Ni24  1  0.83333333  0.16666667  0.09375000  1.0
  Ni  Ni25  1  0.83333333  0.50000000  0.09375000  1.0
  Ni  Ni26  1  0.83333333  0.83333333  0.09375000  1.0
  Ni  Ni27  1  0.16666667  0.00000000  0.03125000  1.0
  Ni  Ni28  1  0.16666667  0.33333333  0.03125000  1.0
  Ni  Ni29  1  0.16666667  0.66666667  0.03125000  1.0
  Ni  Ni30  1  0.50000000  0.00000000  0.03125000  1.0
  Ni  Ni31  1  0.50000000  0.33333333  0.03125000  1.0
  Ni  Ni32  1  0.50000000  0.66666667  0.03125000  1.0
  Ni  Ni33  1  0.83333333  0.00000000  0.03125000  1.0
  Ni  Ni34  1  0.83333333  0.33333333  0.03125000  1.0
  Ni  Ni35  1  0.83333333  0.66666667  0.03125000  1.0
  In  In36  1  0.00000000  0.00000000  0.21875000  1.0
  In  In37  1  0.00000000  0.33333333  0.21875000  1.0
  In  In38  1  0.00000000  0.66666667  0.21875000  1.0
  In  In39  1  0.33333333  0.00000000  0.21875000  1.0
  In  In40  1  0.33333333  0.33333333  0.21875000  1.0
  In  In41  1  0.33333333  0.66666667  0.21875000  1.0
  In  In42  1  0.66666667  0.00000000  0.21875000  1.0
  In  In43  1  0.66666667  0.33333333  0.21875000  1.0
  In  In44  1  0.66666667  0.66666667  0.21875000  1.0
  Ni  Ni45  1  0.00000000  0.16666667  0.15625000  1.0
  Ni  Ni46  1  0.00000000  0.50000000  0.15625000  1.0
  Ni  Ni47  1  0.00000000  0.83333333  0.15625000  1.0
  Ni  Ni48  1  0.33333333  0.16666667  0.15625000  1.0
  Ni  Ni49  1  0.33333333  0.50000000  0.15625000  1.0
  Ni  Ni50  1  0.33333333  0.83333333  0.15625000  1.0
  Ni  Ni51  1  0.66666667  0.16666667  0.15625000  1.0
  Ni  Ni52  1  0.66666667  0.50000000  0.15625000  1.0
  Ni  Ni53  1  0.66666667  0.83333333  0.15625000  1.0
  Ni  Ni54  1  0.16666667  0.16666667  0.21875000  1.0
  Ni  Ni55  1  0.16666667  0.50000000  0.21875000  1.0
  Ni  Ni56  1  0.16666667  0.83333333  0.21875000  1.0
  Ni  Ni57  1  0.50000000  0.16666667  0.21875000  1.0
  Ni  Ni58  1  0.50000000  0.50000000  0.21875000  1.0
  Ni  Ni59  1  0.50000000  0.83333333  0.21875000  1.0
  Ni  Ni60  1  0.83333333  0.16666667  0.21875000  1.0
  Ni  Ni61  1  0.83333333  0.50000000  0.21875000  1.0
  Ni  Ni62  1  0.83333333  0.83333333  0.21875000  1.0
  Ni  Ni63  1  0.16666667  0.00000000  0.15625000  1.0
  Ni  Ni64  1  0.16666667  0.33333333  0.15625000  1.0
  Ni  Ni65  1  0.16666667  0.66666667  0.15625000  1.0
  Ni  Ni66  1  0.50000000  0.00000000  0.15625000  1.0
  Ni  Ni67  1  0.50000000  0.33333333  0.15625000  1.0
  Ni  Ni68  1  0.50000000  0.66666667  0.15625000  1.0
  Ni  Ni69  1  0.83333333  0.00000000  0.15625000  1.0
  Ni  Ni70  1  0.83333333  0.33333333  0.15625000  1.0
  Ni  Ni71  1  0.83333333  0.66666667  0.15625000  1.0
  In  In72  1  0.00000000  0.00000000  0.34375000  1.0
  In  In73  1  0.00000000  0.33333333  0.34375000  1.0
  In  In74  1  0.00000000  0.66666667  0.34375000  1.0
  In  In75  1  0.33333333  0.00000000  0.34375000  1.0
  In  In76  1  0.33333333  0.33333333  0.34375000  1.0
  In  In77  1  0.33333333  0.66666667  0.34375000  1.0
  In  In78  1  0.66666667  0.00000000  0.34375000  1.0
  In  In79  1  0.66666667  0.33333333  0.34375000  1.0
  In  In80  1  0.66666667  0.66666667  0.34375000  1.0
  Ni  Ni81  1  0.00000000  0.16666667  0.28125000  1.0
  Ni  Ni82  1  0.00000000  0.50000000  0.28125000  1.0
  Ni  Ni83  1  0.00000000  0.83333333  0.28125000  1.0
  Ni  Ni84  1  0.33333333  0.16666667  0.28125000  1.0
  Ni  Ni85  1  0.33333333  0.50000000  0.28125000  1.0
  Ni  Ni86  1  0.33333333  0.83333333  0.28125000  1.0
  Ni  Ni87  1  0.66666667  0.16666667  0.28125000  1.0
  Ni  Ni88  1  0.66666667  0.50000000  0.28125000  1.0
  Ni  Ni89  1  0.66666667  0.83333333  0.28125000  1.0
  Ni  Ni90  1  0.16666667  0.16666667  0.34375000  1.0
  Ni  Ni91  1  0.16666667  0.50000000  0.34375000  1.0
  Ni  Ni92  1  0.16666667  0.83333333  0.34375000  1.0
  Ni  Ni93  1  0.50000000  0.16666667  0.34375000  1.0
  Ni  Ni94  1  0.50000000  0.50000000  0.34375000  1.0
  Ni  Ni95  1  0.50000000  0.83333333  0.34375000  1.0
  Ni  Ni96  1  0.83333333  0.16666667  0.34375000  1.0
  Ni  Ni97  1  0.83333333  0.50000000  0.34375000  1.0
  Ni  Ni98  1  0.83333333  0.83333333  0.34375000  1.0
  Ni  Ni99  1  0.16666667  0.00000000  0.28125000  1.0
  Ni  Ni100  1  0.16666667  0.33333333  0.28125000  1.0
  Ni  Ni101  1  0.16666667  0.66666667  0.28125000  1.0
  Ni  Ni102  1  0.50000000  0.00000000  0.28125000  1.0
  Ni  Ni103  1  0.50000000  0.33333333  0.28125000  1.0
  Ni  Ni104  1  0.50000000  0.66666667  0.28125000  1.0
  Ni  Ni105  1  0.83333333  0.00000000  0.28125000  1.0
  Ni  Ni106  1  0.83333333  0.33333333  0.28125000  1.0
  Ni  Ni107  1  0.83333333  0.66666667  0.28125000  1.0
