# generated using pymatgen
data_InNi3
_symmetry_space_group_name_H-M   'P 1'
_cell_length_a   20.43180847
_cell_length_b   29.93825979
_cell_length_c   29.54868206
_cell_angle_alpha   98.51428261
_cell_angle_beta   91.94213440
_cell_angle_gamma   108.12620526
_symmetry_Int_Tables_number   1
_chemical_formula_structural   InNi3
_chemical_formula_sum   'In144 Ni432'
_cell_volume   16926.84027664
_cell_formula_units_Z   144
loop_
 _symmetry_equiv_pos_site_id
 _symmetry_equiv_pos_as_xyz
  1  'x, y, z'
loop_
 _atom_site_type_symbol
 _atom_site_label
 _atom_site_symmetry_multiplicity
 _atom_site_fract_x
 _atom_site_fract_y
 _atom_site_fract_z
 _atom_site_occupancy
  In  In0  1  0.08024691  0.15740741  0.02314815  1.0
  In  In1  1  0.08024691  0.49074074  0.02314815  1.0
  In  In2  1  0.08024691  0.82407407  0.02314815  1.0
  In  In3  1  0.41358025  0.15740741  0.02314815  1.0
  In  In4  1  0.41358025  0.49074074  0.02314815  1.0
  In  In5  1  0.41358025  0.82407407  0.02314815  1.0
  In  In6  1  0.74691358  0.15740741  0.02314815  1.0
  In  In7  1  0.74691358  0.49074074  0.02314815  1.0
  In  In8  1  0.74691358  0.82407407  0.02314815  1.0
  In  In9  1  0.00617284  0.26851852  0.07870370  1.0
  In  In10  1  0.00617284  0.60185185  0.07870370  1.0
  In  In11  1  0.00617284  0.93518519  0.07870370  1.0
  In  In12  1  0.33950617  0.26851852  0.07870370  1.0
  In  In13  1  0.33950617  0.60185185  0.07870370  1.0
  In  In14  1  0.33950617  0.93518519  0.07870370  1.0
  In  In15  1  0.67283951  0.26851852  0.07870370  1.0
  In  In16  1  0.67283951  0.60185185  0.07870370  1.0
  In  In17  1  0.67283951  0.93518519  0.07870370  1.0
  In  In18  1  0.10493827  0.06481481  0.08796296  1.0
  In  In19  1  0.10493827  0.39814815  0.08796296  1.0
  In  In20  1  0.10493827  0.73148148  0.08796296  1.0
  In  In21  1  0.43827160  0.06481481  0.08796296  1.0
  In  In22  1  0.43827160  0.39814815  0.08796296  1.0
  In  In23  1  0.43827160  0.73148148  0.08796296  1.0
  In  In24  1  0.77160494  0.06481481  0.08796296  1.0
  In  In25  1  0.77160494  0.39814815  0.08796296  1.0
  In  In26  1  0.77160494  0.73148148  0.08796296  1.0
  In  In27  1  0.17901235  0.28703704  0.03240741  1.0
  In  In28  1  0.17901235  0.62037037  0.03240741  1.0
  In  In29  1  0.17901235  0.95370370  0.03240741  1.0
  In  In30  1  0.51234568  0.28703704  0.03240741  1.0
  In  In31  1  0.51234568  0.62037037  0.03240741  1.0
  In  In32  1  0.51234568  0.95370370  0.03240741  1.0
  In  In33  1  0.84567901  0.28703704  0.03240741  1.0
  In  In34  1  0.84567901  0.62037037  0.03240741  1.0
  In  In35  1  0.84567901  0.95370370  0.03240741  1.0
  In  In36  1  0.26543210  0.04629630  0.13425926  1.0
  In  In37  1  0.26543210  0.37962963  0.13425926  1.0
  In  In38  1  0.26543210  0.71296296  0.13425926  1.0
  In  In39  1  0.59876543  0.04629630  0.13425926  1.0
  In  In40  1  0.59876543  0.37962963  0.13425926  1.0
  In  In41  1  0.59876543  0.71296296  0.13425926  1.0
  In  In42  1  0.93209877  0.04629630  0.13425926  1.0
  In  In43  1  0.93209877  0.37962963  0.13425926  1.0
  In  In44  1  0.93209877  0.71296296  0.13425926  1.0
  In  In45  1  0.19135802  0.15740741  0.18981481  1.0
  In  In46  1  0.19135802  0.49074074  0.18981481  1.0
  In  In47  1  0.19135802  0.82407407  0.18981481  1.0
  In  In48  1  0.52469136  0.15740741  0.18981481  1.0
  In  In49  1  0.52469136  0.49074074  0.18981481  1.0
  In  In50  1  0.52469136  0.82407407  0.18981481  1.0
  In  In51  1  0.85802469  0.15740741  0.18981481  1.0
  In  In52  1  0.85802469  0.49074074  0.18981481  1.0
  In  In53  1  0.85802469  0.82407407  0.18981481  1.0
  In  In54  1  0.29012346  0.28703704  0.19907407  1.0
  In  In55  1  0.29012346  0.62037037  0.19907407  1.0
  In  In56  1  0.29012346  0.95370370  0.19907407  1.0
  In  In57  1  0.62345679  0.28703704  0.19907407  1.0
  In  In58  1  0.62345679  0.62037037  0.19907407  1.0
  In  In59  1  0.62345679  0.95370370  0.19907407  1.0
  In  In60  1  0.95679012  0.28703704  0.19907407  1.0
  In  In61  1  0.95679012  0.62037037  0.19907407  1.0
  In  In62  1  0.95679012  0.95370370  0.19907407  1.0
  In  In63  1  0.03086420  0.17592593  0.14351852  1.0
  In  In64  1  0.03086420  0.50925926  0.14351852  1.0
  In  In65  1  0.03086420  0.84259259  0.14351852  1.0
  In  In66  1  0.36419753  0.17592593  0.14351852  1.0
  In  In67  1  0.36419753  0.50925926  0.14351852  1.0
  In  In68  1  0.36419753  0.84259259  0.14351852  1.0
  In  In69  1  0.69753086  0.17592593  0.14351852  1.0
  In  In70  1  0.69753086  0.50925926  0.14351852  1.0
  In  In71  1  0.69753086  0.84259259  0.14351852  1.0
  In  In72  1  0.11728395  0.26851852  0.24537037  1.0
  In  In73  1  0.11728395  0.60185185  0.24537037  1.0
  In  In74  1  0.11728395  0.93518519  0.24537037  1.0
  In  In75  1  0.45061728  0.26851852  0.24537037  1.0
  In  In76  1  0.45061728  0.60185185  0.24537037  1.0
  In  In77  1  0.45061728  0.93518519  0.24537037  1.0
  In  In78  1  0.78395062  0.26851852  0.24537037  1.0
  In  In79  1  0.78395062  0.60185185  0.24537037  1.0
  In  In80  1  0.78395062  0.93518519  0.24537037  1.0
  In  In81  1  0.04320988  0.04629630  0.30092593  1.0
  In  In82  1  0.04320988  0.37962963  0.30092593  1.0
  In  In83  1  0.04320988  0.71296296  0.30092593  1.0
  In  In84  1  0.37654321  0.04629630  0.30092593  1.0
  In  In85  1  0.37654321  0.37962963  0.30092593  1.0
  In  In86  1  0.37654321  0.71296296  0.30092593  1.0
  In  In87  1  0.70987654  0.04629630  0.30092593  1.0
  In  In88  1  0.70987654  0.37962963  0.30092593  1.0
  In  In89  1  0.70987654  0.71296296  0.30092593  1.0
  In  In90  1  0.14197531  0.17592593  0.31018519  1.0
  In  In91  1  0.14197531  0.50925926  0.31018519  1.0
  In  In92  1  0.14197531  0.84259259  0.31018519  1.0
  In  In93  1  0.47530864  0.17592593  0.31018519  1.0
  In  In94  1  0.47530864  0.50925926  0.31018519  1.0
  In  In95  1  0.47530864  0.84259259  0.31018519  1.0
  In  In96  1  0.80864198  0.17592593  0.31018519  1.0
  In  In97  1  0.80864198  0.50925926  0.31018519  1.0
  In  In98  1  0.80864198  0.84259259  0.31018519  1.0
  In  In99  1  0.21604938  0.06481481  0.25462963  1.0
  In  In100  1  0.21604938  0.39814815  0.25462963  1.0
  In  In101  1  0.21604938  0.73148148  0.25462963  1.0
  In  In102  1  0.54938272  0.06481481  0.25462963  1.0
  In  In103  1  0.54938272  0.39814815  0.25462963  1.0
  In  In104  1  0.54938272  0.73148148  0.25462963  1.0
  In  In105  1  0.88271605  0.06481481  0.25462963  1.0
  In  In106  1  0.88271605  0.39814815  0.25462963  1.0
  In  In107  1  0.88271605  0.73148148  0.25462963  1.0
  In  In108  1  0.30246914  0.15740741  0.35648148  1.0
  In  In109  1  0.30246914  0.49074074  0.35648148  1.0
  In  In110  1  0.30246914  0.82407407  0.35648148  1.0
  In  In111  1  0.63580247  0.15740741  0.35648148  1.0
  In  In112  1  0.63580247  0.49074074  0.35648148  1.0
  In  In113  1  0.63580247  0.82407407  0.35648148  1.0
  In  In114  1  0.96913580  0.15740741  0.35648148  1.0
  In  In115  1  0.96913580  0.49074074  0.35648148  1.0
  In  In116  1  0.96913580  0.82407407  0.35648148  1.0
  In  In117  1  0.22839506  0.26851852  0.41203704  1.0
  In  In118  1  0.22839506  0.60185185  0.41203704  1.0
  In  In119  1  0.22839506  0.93518519  0.41203704  1.0
  In  In120  1  0.56172840  0.26851852  0.41203704  1.0
  In  In121  1  0.56172840  0.60185185  0.41203704  1.0
  In  In122  1  0.56172840  0.93518519  0.41203704  1.0
  In  In123  1  0.89506173  0.26851852  0.41203704  1.0
  In  In124  1  0.89506173  0.60185185  0.41203704  1.0
  In  In125  1  0.89506173  0.93518519  0.41203704  1.0
  In  In126  1  0.32716049  0.06481481  0.42129630  1.0
  In  In127  1  0.32716049  0.39814815  0.42129630  1.0
  In  In128  1  0.32716049  0.73148148  0.42129630  1.0
  In  In129  1  0.66049383  0.06481481  0.42129630  1.0
  In  In130  1  0.66049383  0.39814815  0.42129630  1.0
  In  In131  1  0.66049383  0.73148148  0.42129630  1.0
  In  In132  1  0.99382716  0.06481481  0.42129630  1.0
  In  In133  1  0.99382716  0.39814815  0.42129630  1.0
  In  In134  1  0.99382716  0.73148148  0.42129630  1.0
  In  In135  1  0.06790123  0.28703704  0.36574074  1.0
  In  In136  1  0.06790123  0.62037037  0.36574074  1.0
  In  In137  1  0.06790123  0.95370370  0.36574074  1.0
  In  In138  1  0.40123457  0.28703704  0.36574074  1.0
  In  In139  1  0.40123457  0.62037037  0.36574074  1.0
  In  In140  1  0.40123457  0.95370370  0.36574074  1.0
  In  In141  1  0.73456790  0.28703704  0.36574074  1.0
  In  In142  1  0.73456790  0.62037037  0.36574074  1.0
  In  In143  1  0.73456790  0.95370370  0.36574074  1.0
  Ni  Ni144  1  0.00234667  0.10070400  0.07640800  1.0
  Ni  Ni145  1  0.00234667  0.43403733  0.07640800  1.0
  Ni  Ni146  1  0.00234667  0.76737067  0.07640800  1.0
  Ni  Ni147  1  0.33568000  0.10070400  0.07640800  1.0
  Ni  Ni148  1  0.33568000  0.43403733  0.07640800  1.0
  Ni  Ni149  1  0.33568000  0.76737067  0.07640800  1.0
  Ni  Ni150  1  0.66901333  0.10070400  0.07640800  1.0
  Ni  Ni151  1  0.66901333  0.43403733  0.07640800  1.0
  Ni  Ni152  1  0.66901333  0.76737067  0.07640800  1.0
  Ni  Ni153  1  0.07642074  0.32292622  0.02085244  1.0
  Ni  Ni154  1  0.07642074  0.65625956  0.02085244  1.0
  Ni  Ni155  1  0.07642074  0.98959289  0.02085244  1.0
  Ni  Ni156  1  0.40975407  0.32292622  0.02085244  1.0
  Ni  Ni157  1  0.40975407  0.65625956  0.02085244  1.0
  Ni  Ni158  1  0.40975407  0.98959289  0.02085244  1.0
  Ni  Ni159  1  0.74308741  0.32292622  0.02085244  1.0
  Ni  Ni160  1  0.74308741  0.65625956  0.02085244  1.0
  Ni  Ni161  1  0.74308741  0.98959289  0.02085244  1.0
  Ni  Ni162  1  0.20949393  0.21181511  0.05379556  1.0
  Ni  Ni163  1  0.20949393  0.54514844  0.05379556  1.0
  Ni  Ni164  1  0.20949393  0.87848178  0.05379556  1.0
  Ni  Ni165  1  0.54282726  0.21181511  0.05379556  1.0
  Ni  Ni166  1  0.54282726  0.54514844  0.05379556  1.0
  Ni  Ni167  1  0.54282726  0.87848178  0.05379556  1.0
  Ni  Ni168  1  0.87616059  0.21181511  0.05379556  1.0
  Ni  Ni169  1  0.87616059  0.54514844  0.05379556  1.0
  Ni  Ni170  1  0.87616059  0.87848178  0.05379556  1.0
  Ni  Ni171  1  0.13541985  0.32292622  0.10935111  1.0
  Ni  Ni172  1  0.13541985  0.65625956  0.10935111  1.0
  Ni  Ni173  1  0.13541985  0.98959289  0.10935111  1.0
  Ni  Ni174  1  0.46875319  0.32292622  0.10935111  1.0
  Ni  Ni175  1  0.46875319  0.65625956  0.10935111  1.0
  Ni  Ni176  1  0.46875319  0.98959289  0.10935111  1.0
  Ni  Ni177  1  0.80208652  0.32292622  0.10935111  1.0
  Ni  Ni178  1  0.80208652  0.65625956  0.10935111  1.0
  Ni  Ni179  1  0.80208652  0.98959289  0.10935111  1.0
  Ni  Ni180  1  0.14001126  0.15970311  0.10590756  1.0
  Ni  Ni181  1  0.14001126  0.49303644  0.10590756  1.0
  Ni  Ni182  1  0.14001126  0.82636978  0.10590756  1.0
  Ni  Ni183  1  0.47334459  0.15970311  0.10590756  1.0
  Ni  Ni184  1  0.47334459  0.49303644  0.10590756  1.0
  Ni  Ni185  1  0.47334459  0.82636978  0.10590756  1.0
  Ni  Ni186  1  0.80667793  0.15970311  0.10590756  1.0
  Ni  Ni187  1  0.80667793  0.49303644  0.10590756  1.0
  Ni  Ni188  1  0.80667793  0.82636978  0.10590756  1.0
  Ni  Ni189  1  0.21408533  0.04859200  0.05035200  1.0
  Ni  Ni190  1  0.21408533  0.38192533  0.05035200  1.0
  Ni  Ni191  1  0.21408533  0.71525867  0.05035200  1.0
  Ni  Ni192  1  0.54741867  0.04859200  0.05035200  1.0
  Ni  Ni193  1  0.54741867  0.38192533  0.05035200  1.0
  Ni  Ni194  1  0.54741867  0.71525867  0.05035200  1.0
  Ni  Ni195  1  0.88075200  0.04859200  0.05035200  1.0
  Ni  Ni196  1  0.88075200  0.38192533  0.05035200  1.0
  Ni  Ni197  1  0.88075200  0.71525867  0.05035200  1.0
  Ni  Ni198  1  0.18283852  0.12151822  0.03470311  1.0
  Ni  Ni199  1  0.18283852  0.45485156  0.03470311  1.0
  Ni  Ni200  1  0.18283852  0.78818489  0.03470311  1.0
  Ni  Ni201  1  0.51617185  0.12151822  0.03470311  1.0
  Ni  Ni202  1  0.51617185  0.45485156  0.03470311  1.0
  Ni  Ni203  1  0.51617185  0.78818489  0.03470311  1.0
  Ni  Ni204  1  0.84950519  0.12151822  0.03470311  1.0
  Ni  Ni205  1  0.84950519  0.45485156  0.03470311  1.0
  Ni  Ni206  1  0.84950519  0.78818489  0.03470311  1.0
  Ni  Ni207  1  0.10876444  0.23262933  0.09025867  1.0
  Ni  Ni208  1  0.10876444  0.56596267  0.09025867  1.0
  Ni  Ni209  1  0.10876444  0.89929600  0.09025867  1.0
  Ni  Ni210  1  0.44209778  0.23262933  0.09025867  1.0
  Ni  Ni211  1  0.44209778  0.56596267  0.09025867  1.0
  Ni  Ni212  1  0.44209778  0.89929600  0.09025867  1.0
  Ni  Ni213  1  0.77543111  0.23262933  0.09025867  1.0
  Ni  Ni214  1  0.77543111  0.56596267  0.09025867  1.0
  Ni  Ni215  1  0.77543111  0.89929600  0.09025867  1.0
  Ni  Ni216  1  0.30902459  0.01040711  0.05731556  1.0
  Ni  Ni217  1  0.30902459  0.34374044  0.05731556  1.0
  Ni  Ni218  1  0.30902459  0.67707378  0.05731556  1.0
  Ni  Ni219  1  0.64235793  0.01040711  0.05731556  1.0
  Ni  Ni220  1  0.64235793  0.34374044  0.05731556  1.0
  Ni  Ni221  1  0.64235793  0.67707378  0.05731556  1.0
  Ni  Ni222  1  0.97569126  0.01040711  0.05731556  1.0
  Ni  Ni223  1  0.97569126  0.34374044  0.05731556  1.0
  Ni  Ni224  1  0.97569126  0.67707378  0.05731556  1.0
  Ni  Ni225  1  0.04976533  0.23262933  0.00176000  1.0
  Ni  Ni226  1  0.04976533  0.56596267  0.00176000  1.0
  Ni  Ni227  1  0.04976533  0.89929600  0.00176000  1.0
  Ni  Ni228  1  0.38309867  0.23262933  0.00176000  1.0
  Ni  Ni229  1  0.38309867  0.56596267  0.00176000  1.0
  Ni  Ni230  1  0.38309867  0.89929600  0.00176000  1.0
  Ni  Ni231  1  0.71643200  0.23262933  0.00176000  1.0
  Ni  Ni232  1  0.71643200  0.56596267  0.00176000  1.0
  Ni  Ni233  1  0.71643200  0.89929600  0.00176000  1.0
  Ni  Ni234  1  0.04517393  0.06251911  0.00520356  1.0
  Ni  Ni235  1  0.04517393  0.39585244  0.00520356  1.0
  Ni  Ni236  1  0.04517393  0.72918578  0.00520356  1.0
  Ni  Ni237  1  0.37850726  0.06251911  0.00520356  1.0
  Ni  Ni238  1  0.37850726  0.39585244  0.00520356  1.0
  Ni  Ni239  1  0.37850726  0.72918578  0.00520356  1.0
  Ni  Ni240  1  0.71184059  0.06251911  0.00520356  1.0
  Ni  Ni241  1  0.71184059  0.39585244  0.00520356  1.0
  Ni  Ni242  1  0.71184059  0.72918578  0.00520356  1.0
  Ni  Ni243  1  0.30443319  0.17363022  0.06075911  1.0
  Ni  Ni244  1  0.30443319  0.50696356  0.06075911  1.0
  Ni  Ni245  1  0.30443319  0.84029689  0.06075911  1.0
  Ni  Ni246  1  0.63776652  0.17363022  0.06075911  1.0
  Ni  Ni247  1  0.63776652  0.50696356  0.06075911  1.0
  Ni  Ni248  1  0.63776652  0.84029689  0.06075911  1.0
  Ni  Ni249  1  0.97109985  0.17363022  0.06075911  1.0
  Ni  Ni250  1  0.97109985  0.50696356  0.06075911  1.0
  Ni  Ni251  1  0.97109985  0.84029689  0.06075911  1.0
  Ni  Ni252  1  0.18753185  0.32292622  0.18751911  1.0
  Ni  Ni253  1  0.18753185  0.65625956  0.18751911  1.0
  Ni  Ni254  1  0.18753185  0.98959289  0.18751911  1.0
  Ni  Ni255  1  0.52086519  0.32292622  0.18751911  1.0
  Ni  Ni256  1  0.52086519  0.65625956  0.18751911  1.0
  Ni  Ni257  1  0.52086519  0.98959289  0.18751911  1.0
  Ni  Ni258  1  0.85419852  0.32292622  0.18751911  1.0
  Ni  Ni259  1  0.85419852  0.65625956  0.18751911  1.0
  Ni  Ni260  1  0.85419852  0.98959289  0.18751911  1.0
  Ni  Ni261  1  0.26160593  0.21181511  0.13196356  1.0
  Ni  Ni262  1  0.26160593  0.54514844  0.13196356  1.0
  Ni  Ni263  1  0.26160593  0.87848178  0.13196356  1.0
  Ni  Ni264  1  0.59493926  0.21181511  0.13196356  1.0
  Ni  Ni265  1  0.59493926  0.54514844  0.13196356  1.0
  Ni  Ni266  1  0.59493926  0.87848178  0.13196356  1.0
  Ni  Ni267  1  0.92827259  0.21181511  0.13196356  1.0
  Ni  Ni268  1  0.92827259  0.54514844  0.13196356  1.0
  Ni  Ni269  1  0.92827259  0.87848178  0.13196356  1.0
  Ni  Ni270  1  0.06134578  0.10070400  0.16490667  1.0
  Ni  Ni271  1  0.06134578  0.43403733  0.16490667  1.0
  Ni  Ni272  1  0.06134578  0.76737067  0.16490667  1.0
  Ni  Ni273  1  0.39467911  0.10070400  0.16490667  1.0
  Ni  Ni274  1  0.39467911  0.43403733  0.16490667  1.0
  Ni  Ni275  1  0.39467911  0.76737067  0.16490667  1.0
  Ni  Ni276  1  0.72801244  0.10070400  0.16490667  1.0
  Ni  Ni277  1  0.72801244  0.43403733  0.16490667  1.0
  Ni  Ni278  1  0.72801244  0.76737067  0.16490667  1.0
  Ni  Ni279  1  0.32060504  0.21181511  0.22046222  1.0
  Ni  Ni280  1  0.32060504  0.54514844  0.22046222  1.0
  Ni  Ni281  1  0.32060504  0.87848178  0.22046222  1.0
  Ni  Ni282  1  0.65393837  0.21181511  0.22046222  1.0
  Ni  Ni283  1  0.65393837  0.54514844  0.22046222  1.0
  Ni  Ni284  1  0.65393837  0.87848178  0.22046222  1.0
  Ni  Ni285  1  0.98727170  0.21181511  0.22046222  1.0
  Ni  Ni286  1  0.98727170  0.54514844  0.22046222  1.0
  Ni  Ni287  1  0.98727170  0.87848178  0.22046222  1.0
  Ni  Ni288  1  0.32519644  0.04859200  0.21701867  1.0
  Ni  Ni289  1  0.32519644  0.38192533  0.21701867  1.0
  Ni  Ni290  1  0.32519644  0.71525867  0.21701867  1.0
  Ni  Ni291  1  0.65852978  0.04859200  0.21701867  1.0
  Ni  Ni292  1  0.65852978  0.38192533  0.21701867  1.0
  Ni  Ni293  1  0.65852978  0.71525867  0.21701867  1.0
  Ni  Ni294  1  0.99186311  0.04859200  0.21701867  1.0
  Ni  Ni295  1  0.99186311  0.38192533  0.21701867  1.0
  Ni  Ni296  1  0.99186311  0.71525867  0.21701867  1.0
  Ni  Ni297  1  0.06593719  0.27081422  0.16146311  1.0
  Ni  Ni298  1  0.06593719  0.60414756  0.16146311  1.0
  Ni  Ni299  1  0.06593719  0.93748089  0.16146311  1.0
  Ni  Ni300  1  0.39927052  0.27081422  0.16146311  1.0
  Ni  Ni301  1  0.39927052  0.60414756  0.16146311  1.0
  Ni  Ni302  1  0.39927052  0.93748089  0.16146311  1.0
  Ni  Ni303  1  0.73260385  0.27081422  0.16146311  1.0
  Ni  Ni304  1  0.73260385  0.60414756  0.16146311  1.0
  Ni  Ni305  1  0.73260385  0.93748089  0.16146311  1.0
  Ni  Ni306  1  0.03469037  0.01040711  0.14581422  1.0
  Ni  Ni307  1  0.03469037  0.34374044  0.14581422  1.0
  Ni  Ni308  1  0.03469037  0.67707378  0.14581422  1.0
  Ni  Ni309  1  0.36802370  0.01040711  0.14581422  1.0
  Ni  Ni310  1  0.36802370  0.34374044  0.14581422  1.0
  Ni  Ni311  1  0.36802370  0.67707378  0.14581422  1.0
  Ni  Ni312  1  0.70135704  0.01040711  0.14581422  1.0
  Ni  Ni313  1  0.70135704  0.34374044  0.14581422  1.0
  Ni  Ni314  1  0.70135704  0.67707378  0.14581422  1.0
  Ni  Ni315  1  0.29394963  0.12151822  0.20136978  1.0
  Ni  Ni316  1  0.29394963  0.45485156  0.20136978  1.0
  Ni  Ni317  1  0.29394963  0.78818489  0.20136978  1.0
  Ni  Ni318  1  0.62728296  0.12151822  0.20136978  1.0
  Ni  Ni319  1  0.62728296  0.45485156  0.20136978  1.0
  Ni  Ni320  1  0.62728296  0.78818489  0.20136978  1.0
  Ni  Ni321  1  0.96061630  0.12151822  0.20136978  1.0
  Ni  Ni322  1  0.96061630  0.45485156  0.20136978  1.0
  Ni  Ni323  1  0.96061630  0.78818489  0.20136978  1.0
  Ni  Ni324  1  0.16087644  0.23262933  0.16842667  1.0
  Ni  Ni325  1  0.16087644  0.56596267  0.16842667  1.0
  Ni  Ni326  1  0.16087644  0.89929600  0.16842667  1.0
  Ni  Ni327  1  0.49420978  0.23262933  0.16842667  1.0
  Ni  Ni328  1  0.49420978  0.56596267  0.16842667  1.0
  Ni  Ni329  1  0.49420978  0.89929600  0.16842667  1.0
  Ni  Ni330  1  0.82754311  0.23262933  0.16842667  1.0
  Ni  Ni331  1  0.82754311  0.56596267  0.16842667  1.0
  Ni  Ni332  1  0.82754311  0.89929600  0.16842667  1.0
  Ni  Ni333  1  0.23495052  0.12151822  0.11287111  1.0
  Ni  Ni334  1  0.23495052  0.45485156  0.11287111  1.0
  Ni  Ni335  1  0.23495052  0.78818489  0.11287111  1.0
  Ni  Ni336  1  0.56828385  0.12151822  0.11287111  1.0
  Ni  Ni337  1  0.56828385  0.45485156  0.11287111  1.0
  Ni  Ni338  1  0.56828385  0.78818489  0.11287111  1.0
  Ni  Ni339  1  0.90161719  0.12151822  0.11287111  1.0
  Ni  Ni340  1  0.90161719  0.45485156  0.11287111  1.0
  Ni  Ni341  1  0.90161719  0.78818489  0.11287111  1.0
  Ni  Ni342  1  0.23035911  0.28474133  0.11631467  1.0
  Ni  Ni343  1  0.23035911  0.61807467  0.11631467  1.0
  Ni  Ni344  1  0.23035911  0.95140800  0.11631467  1.0
  Ni  Ni345  1  0.56369244  0.28474133  0.11631467  1.0
  Ni  Ni346  1  0.56369244  0.61807467  0.11631467  1.0
  Ni  Ni347  1  0.56369244  0.95140800  0.11631467  1.0
  Ni  Ni348  1  0.89702578  0.28474133  0.11631467  1.0
  Ni  Ni349  1  0.89702578  0.61807467  0.11631467  1.0
  Ni  Ni350  1  0.89702578  0.95140800  0.11631467  1.0
  Ni  Ni351  1  0.15628504  0.06251911  0.17187022  1.0
  Ni  Ni352  1  0.15628504  0.39585244  0.17187022  1.0
  Ni  Ni353  1  0.15628504  0.72918578  0.17187022  1.0
  Ni  Ni354  1  0.48961837  0.06251911  0.17187022  1.0
  Ni  Ni355  1  0.48961837  0.39585244  0.17187022  1.0
  Ni  Ni356  1  0.48961837  0.72918578  0.17187022  1.0
  Ni  Ni357  1  0.82295170  0.06251911  0.17187022  1.0
  Ni  Ni358  1  0.82295170  0.39585244  0.17187022  1.0
  Ni  Ni359  1  0.82295170  0.72918578  0.17187022  1.0
  Ni  Ni360  1  0.03938370  0.21181511  0.29863022  1.0
  Ni  Ni361  1  0.03938370  0.54514844  0.29863022  1.0
  Ni  Ni362  1  0.03938370  0.87848178  0.29863022  1.0
  Ni  Ni363  1  0.37271704  0.21181511  0.29863022  1.0
  Ni  Ni364  1  0.37271704  0.54514844  0.29863022  1.0
  Ni  Ni365  1  0.37271704  0.87848178  0.29863022  1.0
  Ni  Ni366  1  0.70605037  0.21181511  0.29863022  1.0
  Ni  Ni367  1  0.70605037  0.54514844  0.29863022  1.0
  Ni  Ni368  1  0.70605037  0.87848178  0.29863022  1.0
  Ni  Ni369  1  0.11345778  0.10070400  0.24307467  1.0
  Ni  Ni370  1  0.11345778  0.43403733  0.24307467  1.0
  Ni  Ni371  1  0.11345778  0.76737067  0.24307467  1.0
  Ni  Ni372  1  0.44679111  0.10070400  0.24307467  1.0
  Ni  Ni373  1  0.44679111  0.43403733  0.24307467  1.0
  Ni  Ni374  1  0.44679111  0.76737067  0.24307467  1.0
  Ni  Ni375  1  0.78012444  0.10070400  0.24307467  1.0
  Ni  Ni376  1  0.78012444  0.43403733  0.24307467  1.0
  Ni  Ni377  1  0.78012444  0.76737067  0.24307467  1.0
  Ni  Ni378  1  0.24653096  0.32292622  0.27601778  1.0
  Ni  Ni379  1  0.24653096  0.65625956  0.27601778  1.0
  Ni  Ni380  1  0.24653096  0.98959289  0.27601778  1.0
  Ni  Ni381  1  0.57986430  0.32292622  0.27601778  1.0
  Ni  Ni382  1  0.57986430  0.65625956  0.27601778  1.0
  Ni  Ni383  1  0.57986430  0.98959289  0.27601778  1.0
  Ni  Ni384  1  0.91319763  0.32292622  0.27601778  1.0
  Ni  Ni385  1  0.91319763  0.65625956  0.27601778  1.0
  Ni  Ni386  1  0.91319763  0.98959289  0.27601778  1.0
  Ni  Ni387  1  0.17245689  0.10070400  0.33157333  1.0
  Ni  Ni388  1  0.17245689  0.43403733  0.33157333  1.0
  Ni  Ni389  1  0.17245689  0.76737067  0.33157333  1.0
  Ni  Ni390  1  0.50579022  0.10070400  0.33157333  1.0
  Ni  Ni391  1  0.50579022  0.43403733  0.33157333  1.0
  Ni  Ni392  1  0.50579022  0.76737067  0.33157333  1.0
  Ni  Ni393  1  0.83912356  0.10070400  0.33157333  1.0
  Ni  Ni394  1  0.83912356  0.43403733  0.33157333  1.0
  Ni  Ni395  1  0.83912356  0.76737067  0.33157333  1.0
  Ni  Ni396  1  0.17704830  0.27081422  0.32812978  1.0
  Ni  Ni397  1  0.17704830  0.60414756  0.32812978  1.0
  Ni  Ni398  1  0.17704830  0.93748089  0.32812978  1.0
  Ni  Ni399  1  0.51038163  0.27081422  0.32812978  1.0
  Ni  Ni400  1  0.51038163  0.60414756  0.32812978  1.0
  Ni  Ni401  1  0.51038163  0.93748089  0.32812978  1.0
  Ni  Ni402  1  0.84371496  0.27081422  0.32812978  1.0
  Ni  Ni403  1  0.84371496  0.60414756  0.32812978  1.0
  Ni  Ni404  1  0.84371496  0.93748089  0.32812978  1.0
  Ni  Ni405  1  0.25112237  0.15970311  0.27257422  1.0
  Ni  Ni406  1  0.25112237  0.49303644  0.27257422  1.0
  Ni  Ni407  1  0.25112237  0.82636978  0.27257422  1.0
  Ni  Ni408  1  0.58445570  0.15970311  0.27257422  1.0
  Ni  Ni409  1  0.58445570  0.49303644  0.27257422  1.0
  Ni  Ni410  1  0.58445570  0.82636978  0.27257422  1.0
  Ni  Ni411  1  0.91778904  0.15970311  0.27257422  1.0
  Ni  Ni412  1  0.91778904  0.49303644  0.27257422  1.0
  Ni  Ni413  1  0.91778904  0.82636978  0.27257422  1.0
  Ni  Ni414  1  0.21987556  0.23262933  0.25692533  1.0
  Ni  Ni415  1  0.21987556  0.56596267  0.25692533  1.0
  Ni  Ni416  1  0.21987556  0.89929600  0.25692533  1.0
  Ni  Ni417  1  0.55320889  0.23262933  0.25692533  1.0
  Ni  Ni418  1  0.55320889  0.56596267  0.25692533  1.0
  Ni  Ni419  1  0.55320889  0.89929600  0.25692533  1.0
  Ni  Ni420  1  0.88654222  0.23262933  0.25692533  1.0
  Ni  Ni421  1  0.88654222  0.56596267  0.25692533  1.0
  Ni  Ni422  1  0.88654222  0.89929600  0.25692533  1.0
  Ni  Ni423  1  0.14580148  0.01040711  0.31248089  1.0
  Ni  Ni424  1  0.14580148  0.34374044  0.31248089  1.0
  Ni  Ni425  1  0.14580148  0.67707378  0.31248089  1.0
  Ni  Ni426  1  0.47913481  0.01040711  0.31248089  1.0
  Ni  Ni427  1  0.47913481  0.34374044  0.31248089  1.0
  Ni  Ni428  1  0.47913481  0.67707378  0.31248089  1.0
  Ni  Ni429  1  0.81246815  0.01040711  0.31248089  1.0
  Ni  Ni430  1  0.81246815  0.34374044  0.31248089  1.0
  Ni  Ni431  1  0.81246815  0.67707378  0.31248089  1.0
  Ni  Ni432  1  0.01272830  0.12151822  0.27953778  1.0
  Ni  Ni433  1  0.01272830  0.45485156  0.27953778  1.0
  Ni  Ni434  1  0.01272830  0.78818489  0.27953778  1.0
  Ni  Ni435  1  0.34606163  0.12151822  0.27953778  1.0
  Ni  Ni436  1  0.34606163  0.45485156  0.27953778  1.0
  Ni  Ni437  1  0.34606163  0.78818489  0.27953778  1.0
  Ni  Ni438  1  0.67939496  0.12151822  0.27953778  1.0
  Ni  Ni439  1  0.67939496  0.45485156  0.27953778  1.0
  Ni  Ni440  1  0.67939496  0.78818489  0.27953778  1.0
  Ni  Ni441  1  0.08680237  0.01040711  0.22398222  1.0
  Ni  Ni442  1  0.08680237  0.34374044  0.22398222  1.0
  Ni  Ni443  1  0.08680237  0.67707378  0.22398222  1.0
  Ni  Ni444  1  0.42013570  0.01040711  0.22398222  1.0
  Ni  Ni445  1  0.42013570  0.34374044  0.22398222  1.0
  Ni  Ni446  1  0.42013570  0.67707378  0.22398222  1.0
  Ni  Ni447  1  0.75346904  0.01040711  0.22398222  1.0
  Ni  Ni448  1  0.75346904  0.34374044  0.22398222  1.0
  Ni  Ni449  1  0.75346904  0.67707378  0.22398222  1.0
  Ni  Ni450  1  0.08221096  0.17363022  0.22742578  1.0
  Ni  Ni451  1  0.08221096  0.50696356  0.22742578  1.0
  Ni  Ni452  1  0.08221096  0.84029689  0.22742578  1.0
  Ni  Ni453  1  0.41554430  0.17363022  0.22742578  1.0
  Ni  Ni454  1  0.41554430  0.50696356  0.22742578  1.0
  Ni  Ni455  1  0.41554430  0.84029689  0.22742578  1.0
  Ni  Ni456  1  0.74887763  0.17363022  0.22742578  1.0
  Ni  Ni457  1  0.74887763  0.50696356  0.22742578  1.0
  Ni  Ni458  1  0.74887763  0.84029689  0.22742578  1.0
  Ni  Ni459  1  0.00813689  0.28474133  0.28298133  1.0
  Ni  Ni460  1  0.00813689  0.61807467  0.28298133  1.0
  Ni  Ni461  1  0.00813689  0.95140800  0.28298133  1.0
  Ni  Ni462  1  0.34147022  0.28474133  0.28298133  1.0
  Ni  Ni463  1  0.34147022  0.61807467  0.28298133  1.0
  Ni  Ni464  1  0.34147022  0.95140800  0.28298133  1.0
  Ni  Ni465  1  0.67480356  0.28474133  0.28298133  1.0
  Ni  Ni466  1  0.67480356  0.61807467  0.28298133  1.0
  Ni  Ni467  1  0.67480356  0.95140800  0.28298133  1.0
  Ni  Ni468  1  0.22456889  0.10070400  0.40974133  1.0
  Ni  Ni469  1  0.22456889  0.43403733  0.40974133  1.0
  Ni  Ni470  1  0.22456889  0.76737067  0.40974133  1.0
  Ni  Ni471  1  0.55790222  0.10070400  0.40974133  1.0
  Ni  Ni472  1  0.55790222  0.43403733  0.40974133  1.0
  Ni  Ni473  1  0.55790222  0.76737067  0.40974133  1.0
  Ni  Ni474  1  0.89123556  0.10070400  0.40974133  1.0
  Ni  Ni475  1  0.89123556  0.43403733  0.40974133  1.0
  Ni  Ni476  1  0.89123556  0.76737067  0.40974133  1.0
  Ni  Ni477  1  0.29864296  0.32292622  0.35418578  1.0
  Ni  Ni478  1  0.29864296  0.65625956  0.35418578  1.0
  Ni  Ni479  1  0.29864296  0.98959289  0.35418578  1.0
  Ni  Ni480  1  0.63197630  0.32292622  0.35418578  1.0
  Ni  Ni481  1  0.63197630  0.65625956  0.35418578  1.0
  Ni  Ni482  1  0.63197630  0.98959289  0.35418578  1.0
  Ni  Ni483  1  0.96530963  0.32292622  0.35418578  1.0
  Ni  Ni484  1  0.96530963  0.65625956  0.35418578  1.0
  Ni  Ni485  1  0.96530963  0.98959289  0.35418578  1.0
  Ni  Ni486  1  0.09838281  0.21181511  0.38712889  1.0
  Ni  Ni487  1  0.09838281  0.54514844  0.38712889  1.0
  Ni  Ni488  1  0.09838281  0.87848178  0.38712889  1.0
  Ni  Ni489  1  0.43171615  0.21181511  0.38712889  1.0
  Ni  Ni490  1  0.43171615  0.54514844  0.38712889  1.0
  Ni  Ni491  1  0.43171615  0.87848178  0.38712889  1.0
  Ni  Ni492  1  0.76504948  0.21181511  0.38712889  1.0
  Ni  Ni493  1  0.76504948  0.54514844  0.38712889  1.0
  Ni  Ni494  1  0.76504948  0.87848178  0.38712889  1.0
  Ni  Ni495  1  0.02430874  0.32292622  0.44268444  1.0
  Ni  Ni496  1  0.02430874  0.65625956  0.44268444  1.0
  Ni  Ni497  1  0.02430874  0.98959289  0.44268444  1.0
  Ni  Ni498  1  0.35764207  0.32292622  0.44268444  1.0
  Ni  Ni499  1  0.35764207  0.65625956  0.44268444  1.0
  Ni  Ni500  1  0.35764207  0.98959289  0.44268444  1.0
  Ni  Ni501  1  0.69097541  0.32292622  0.44268444  1.0
  Ni  Ni502  1  0.69097541  0.65625956  0.44268444  1.0
  Ni  Ni503  1  0.69097541  0.98959289  0.44268444  1.0
  Ni  Ni504  1  0.02890015  0.15970311  0.43924089  1.0
  Ni  Ni505  1  0.02890015  0.49303644  0.43924089  1.0
  Ni  Ni506  1  0.02890015  0.82636978  0.43924089  1.0
  Ni  Ni507  1  0.36223348  0.15970311  0.43924089  1.0
  Ni  Ni508  1  0.36223348  0.49303644  0.43924089  1.0
  Ni  Ni509  1  0.36223348  0.82636978  0.43924089  1.0
  Ni  Ni510  1  0.69556681  0.15970311  0.43924089  1.0
  Ni  Ni511  1  0.69556681  0.49303644  0.43924089  1.0
  Ni  Ni512  1  0.69556681  0.82636978  0.43924089  1.0
  Ni  Ni513  1  0.10297422  0.04859200  0.38368533  1.0
  Ni  Ni514  1  0.10297422  0.38192533  0.38368533  1.0
  Ni  Ni515  1  0.10297422  0.71525867  0.38368533  1.0
  Ni  Ni516  1  0.43630756  0.04859200  0.38368533  1.0
  Ni  Ni517  1  0.43630756  0.38192533  0.38368533  1.0
  Ni  Ni518  1  0.43630756  0.71525867  0.38368533  1.0
  Ni  Ni519  1  0.76964089  0.04859200  0.38368533  1.0
  Ni  Ni520  1  0.76964089  0.38192533  0.38368533  1.0
  Ni  Ni521  1  0.76964089  0.71525867  0.38368533  1.0
  Ni  Ni522  1  0.07172741  0.12151822  0.36803644  1.0
  Ni  Ni523  1  0.07172741  0.45485156  0.36803644  1.0
  Ni  Ni524  1  0.07172741  0.78818489  0.36803644  1.0
  Ni  Ni525  1  0.40506074  0.12151822  0.36803644  1.0
  Ni  Ni526  1  0.40506074  0.45485156  0.36803644  1.0
  Ni  Ni527  1  0.40506074  0.78818489  0.36803644  1.0
  Ni  Ni528  1  0.73839407  0.12151822  0.36803644  1.0
  Ni  Ni529  1  0.73839407  0.45485156  0.36803644  1.0
  Ni  Ni530  1  0.73839407  0.78818489  0.36803644  1.0
  Ni  Ni531  1  0.33098667  0.23262933  0.42359200  1.0
  Ni  Ni532  1  0.33098667  0.56596267  0.42359200  1.0
  Ni  Ni533  1  0.33098667  0.89929600  0.42359200  1.0
  Ni  Ni534  1  0.66432000  0.23262933  0.42359200  1.0
  Ni  Ni535  1  0.66432000  0.56596267  0.42359200  1.0
  Ni  Ni536  1  0.66432000  0.89929600  0.42359200  1.0
  Ni  Ni537  1  0.99765333  0.23262933  0.42359200  1.0
  Ni  Ni538  1  0.99765333  0.56596267  0.42359200  1.0
  Ni  Ni539  1  0.99765333  0.89929600  0.42359200  1.0
  Ni  Ni540  1  0.19791348  0.01040711  0.39064889  1.0
  Ni  Ni541  1  0.19791348  0.34374044  0.39064889  1.0
  Ni  Ni542  1  0.19791348  0.67707378  0.39064889  1.0
  Ni  Ni543  1  0.53124681  0.01040711  0.39064889  1.0
  Ni  Ni544  1  0.53124681  0.34374044  0.39064889  1.0
  Ni  Ni545  1  0.53124681  0.67707378  0.39064889  1.0
  Ni  Ni546  1  0.86458015  0.01040711  0.39064889  1.0
  Ni  Ni547  1  0.86458015  0.34374044  0.39064889  1.0
  Ni  Ni548  1  0.86458015  0.67707378  0.39064889  1.0
  Ni  Ni549  1  0.27198756  0.23262933  0.33509333  1.0
  Ni  Ni550  1  0.27198756  0.56596267  0.33509333  1.0
  Ni  Ni551  1  0.27198756  0.89929600  0.33509333  1.0
  Ni  Ni552  1  0.60532089  0.23262933  0.33509333  1.0
  Ni  Ni553  1  0.60532089  0.56596267  0.33509333  1.0
  Ni  Ni554  1  0.60532089  0.89929600  0.33509333  1.0
  Ni  Ni555  1  0.93865422  0.23262933  0.33509333  1.0
  Ni  Ni556  1  0.93865422  0.56596267  0.33509333  1.0
  Ni  Ni557  1  0.93865422  0.89929600  0.33509333  1.0
  Ni  Ni558  1  0.26739615  0.06251911  0.33853689  1.0
  Ni  Ni559  1  0.26739615  0.39585244  0.33853689  1.0
  Ni  Ni560  1  0.26739615  0.72918578  0.33853689  1.0
  Ni  Ni561  1  0.60072948  0.06251911  0.33853689  1.0
  Ni  Ni562  1  0.60072948  0.39585244  0.33853689  1.0
  Ni  Ni563  1  0.60072948  0.72918578  0.33853689  1.0
  Ni  Ni564  1  0.93406281  0.06251911  0.33853689  1.0
  Ni  Ni565  1  0.93406281  0.39585244  0.33853689  1.0
  Ni  Ni566  1  0.93406281  0.72918578  0.33853689  1.0
  Ni  Ni567  1  0.19332207  0.17363022  0.39409244  1.0
  Ni  Ni568  1  0.19332207  0.50696356  0.39409244  1.0
  Ni  Ni569  1  0.19332207  0.84029689  0.39409244  1.0
  Ni  Ni570  1  0.52665541  0.17363022  0.39409244  1.0
  Ni  Ni571  1  0.52665541  0.50696356  0.39409244  1.0
  Ni  Ni572  1  0.52665541  0.84029689  0.39409244  1.0
  Ni  Ni573  1  0.85998874  0.17363022  0.39409244  1.0
  Ni  Ni574  1  0.85998874  0.50696356  0.39409244  1.0
  Ni  Ni575  1  0.85998874  0.84029689  0.39409244  1.0
