# generated using pymatgen
data_InNi2
_symmetry_space_group_name_H-M   'P 1'
_cell_length_a   12.92208105
_cell_length_b   34.06499499
_cell_length_c   34.45888280
_cell_angle_alpha   112.29256288
_cell_angle_beta   120.00000000
_cell_angle_gamma   79.06658849
_symmetry_Int_Tables_number   1
_chemical_formula_structural   InNi2
_chemical_formula_sum   'In108 Ni216'
_cell_volume   12154.46693232
_cell_formula_units_Z   108
loop_
 _symmetry_equiv_pos_site_id
 _symmetry_equiv_pos_as_xyz
  1  'x, y, z'
loop_
 _atom_site_type_symbol
 _atom_site_label
 _atom_site_symmetry_multiplicity
 _atom_site_fract_x
 _atom_site_fract_y
 _atom_site_fract_z
 _atom_site_occupancy
  In  In0  1  0.11111111  0.12500000  0.00260417  1.0
  In  In1  1  0.11111111  0.45833333  0.00260417  1.0
  In  In2  1  0.11111111  0.79166667  0.00260417  1.0
  In  In3  1  0.44444444  0.12500000  0.00260417  1.0
  In  In4  1  0.44444444  0.45833333  0.00260417  1.0
  In  In5  1  0.44444444  0.79166667  0.00260417  1.0
  In  In6  1  0.77777778  0.12500000  0.00260417  1.0
  In  In7  1  0.77777778  0.45833333  0.00260417  1.0
  In  In8  1  0.77777778  0.79166667  0.00260417  1.0
  In  In9  1  0.11111111  0.29166667  0.06510417  1.0
  In  In10  1  0.11111111  0.62500000  0.06510417  1.0
  In  In11  1  0.11111111  0.95833333  0.06510417  1.0
  In  In12  1  0.44444444  0.29166667  0.06510417  1.0
  In  In13  1  0.44444444  0.62500000  0.06510417  1.0
  In  In14  1  0.44444444  0.95833333  0.06510417  1.0
  In  In15  1  0.77777778  0.29166667  0.06510417  1.0
  In  In16  1  0.77777778  0.62500000  0.06510417  1.0
  In  In17  1  0.77777778  0.95833333  0.06510417  1.0
  In  In18  1  0.22222222  0.04166667  0.05468750  1.0
  In  In19  1  0.22222222  0.37500000  0.05468750  1.0
  In  In20  1  0.22222222  0.70833333  0.05468750  1.0
  In  In21  1  0.55555556  0.04166667  0.05468750  1.0
  In  In22  1  0.55555556  0.37500000  0.05468750  1.0
  In  In23  1  0.55555556  0.70833333  0.05468750  1.0
  In  In24  1  0.88888889  0.04166667  0.05468750  1.0
  In  In25  1  0.88888889  0.37500000  0.05468750  1.0
  In  In26  1  0.88888889  0.70833333  0.05468750  1.0
  In  In27  1  0.22222222  0.20833333  0.11718750  1.0
  In  In28  1  0.22222222  0.54166667  0.11718750  1.0
  In  In29  1  0.22222222  0.87500000  0.11718750  1.0
  In  In30  1  0.55555556  0.20833333  0.11718750  1.0
  In  In31  1  0.55555556  0.54166667  0.11718750  1.0
  In  In32  1  0.55555556  0.87500000  0.11718750  1.0
  In  In33  1  0.88888889  0.20833333  0.11718750  1.0
  In  In34  1  0.88888889  0.54166667  0.11718750  1.0
  In  In35  1  0.88888889  0.87500000  0.11718750  1.0
  Ni  Ni36  1  0.00000000  0.00000000  0.12239583  1.0
  Ni  Ni37  1  0.00000000  0.33333333  0.12239583  1.0
  Ni  Ni38  1  0.00000000  0.66666667  0.12239583  1.0
  Ni  Ni39  1  0.33333333  0.00000000  0.12239583  1.0
  Ni  Ni40  1  0.33333333  0.33333333  0.12239583  1.0
  Ni  Ni41  1  0.33333333  0.66666667  0.12239583  1.0
  Ni  Ni42  1  0.66666667  0.00000000  0.12239583  1.0
  Ni  Ni43  1  0.66666667  0.33333333  0.12239583  1.0
  Ni  Ni44  1  0.66666667  0.66666667  0.12239583  1.0
  Ni  Ni45  1  0.00000000  0.16666667  0.05989583  1.0
  Ni  Ni46  1  0.00000000  0.50000000  0.05989583  1.0
  Ni  Ni47  1  0.00000000  0.83333333  0.05989583  1.0
  Ni  Ni48  1  0.33333333  0.16666667  0.05989583  1.0
  Ni  Ni49  1  0.33333333  0.50000000  0.05989583  1.0
  Ni  Ni50  1  0.33333333  0.83333333  0.05989583  1.0
  Ni  Ni51  1  0.66666667  0.16666667  0.05989583  1.0
  Ni  Ni52  1  0.66666667  0.50000000  0.05989583  1.0
  Ni  Ni53  1  0.66666667  0.83333333  0.05989583  1.0
  Ni  Ni54  1  0.00000000  0.08333333  0.02864583  1.0
  Ni  Ni55  1  0.00000000  0.41666667  0.02864583  1.0
  Ni  Ni56  1  0.00000000  0.75000000  0.02864583  1.0
  Ni  Ni57  1  0.33333333  0.08333333  0.02864583  1.0
  Ni  Ni58  1  0.33333333  0.41666667  0.02864583  1.0
  Ni  Ni59  1  0.33333333  0.75000000  0.02864583  1.0
  Ni  Ni60  1  0.66666667  0.08333333  0.02864583  1.0
  Ni  Ni61  1  0.66666667  0.41666667  0.02864583  1.0
  Ni  Ni62  1  0.66666667  0.75000000  0.02864583  1.0
  Ni  Ni63  1  0.00000000  0.25000000  0.09114583  1.0
  Ni  Ni64  1  0.00000000  0.58333333  0.09114583  1.0
  Ni  Ni65  1  0.00000000  0.91666667  0.09114583  1.0
  Ni  Ni66  1  0.33333333  0.25000000  0.09114583  1.0
  Ni  Ni67  1  0.33333333  0.58333333  0.09114583  1.0
  Ni  Ni68  1  0.33333333  0.91666667  0.09114583  1.0
  Ni  Ni69  1  0.66666667  0.25000000  0.09114583  1.0
  Ni  Ni70  1  0.66666667  0.58333333  0.09114583  1.0
  Ni  Ni71  1  0.66666667  0.91666667  0.09114583  1.0
  Ni  Ni72  1  0.11111111  0.04166667  0.09635417  1.0
  Ni  Ni73  1  0.11111111  0.37500000  0.09635417  1.0
  Ni  Ni74  1  0.11111111  0.70833333  0.09635417  1.0
  Ni  Ni75  1  0.44444444  0.04166667  0.09635417  1.0
  Ni  Ni76  1  0.44444444  0.37500000  0.09635417  1.0
  Ni  Ni77  1  0.44444444  0.70833333  0.09635417  1.0
  Ni  Ni78  1  0.77777778  0.04166667  0.09635417  1.0
  Ni  Ni79  1  0.77777778  0.37500000  0.09635417  1.0
  Ni  Ni80  1  0.77777778  0.70833333  0.09635417  1.0
  Ni  Ni81  1  0.11111111  0.20833333  0.03385417  1.0
  Ni  Ni82  1  0.11111111  0.54166667  0.03385417  1.0
  Ni  Ni83  1  0.11111111  0.87500000  0.03385417  1.0
  Ni  Ni84  1  0.44444444  0.20833333  0.03385417  1.0
  Ni  Ni85  1  0.44444444  0.54166667  0.03385417  1.0
  Ni  Ni86  1  0.44444444  0.87500000  0.03385417  1.0
  Ni  Ni87  1  0.77777778  0.20833333  0.03385417  1.0
  Ni  Ni88  1  0.77777778  0.54166667  0.03385417  1.0
  Ni  Ni89  1  0.77777778  0.87500000  0.03385417  1.0
  Ni  Ni90  1  0.22222222  0.12500000  0.08593750  1.0
  Ni  Ni91  1  0.22222222  0.45833333  0.08593750  1.0
  Ni  Ni92  1  0.22222222  0.79166667  0.08593750  1.0
  Ni  Ni93  1  0.55555556  0.12500000  0.08593750  1.0
  Ni  Ni94  1  0.55555556  0.45833333  0.08593750  1.0
  Ni  Ni95  1  0.55555556  0.79166667  0.08593750  1.0
  Ni  Ni96  1  0.88888889  0.12500000  0.08593750  1.0
  Ni  Ni97  1  0.88888889  0.45833333  0.08593750  1.0
  Ni  Ni98  1  0.88888889  0.79166667  0.08593750  1.0
  Ni  Ni99  1  0.22222222  0.29166667  0.02343750  1.0
  Ni  Ni100  1  0.22222222  0.62500000  0.02343750  1.0
  Ni  Ni101  1  0.22222222  0.95833333  0.02343750  1.0
  Ni  Ni102  1  0.55555556  0.29166667  0.02343750  1.0
  Ni  Ni103  1  0.55555556  0.62500000  0.02343750  1.0
  Ni  Ni104  1  0.55555556  0.95833333  0.02343750  1.0
  Ni  Ni105  1  0.88888889  0.29166667  0.02343750  1.0
  Ni  Ni106  1  0.88888889  0.62500000  0.02343750  1.0
  Ni  Ni107  1  0.88888889  0.95833333  0.02343750  1.0
  In  In108  1  0.11111111  0.12500000  0.12760417  1.0
  In  In109  1  0.11111111  0.45833333  0.12760417  1.0
  In  In110  1  0.11111111  0.79166667  0.12760417  1.0
  In  In111  1  0.44444444  0.12500000  0.12760417  1.0
  In  In112  1  0.44444444  0.45833333  0.12760417  1.0
  In  In113  1  0.44444444  0.79166667  0.12760417  1.0
  In  In114  1  0.77777778  0.12500000  0.12760417  1.0
  In  In115  1  0.77777778  0.45833333  0.12760417  1.0
  In  In116  1  0.77777778  0.79166667  0.12760417  1.0
  In  In117  1  0.11111111  0.29166667  0.19010417  1.0
  In  In118  1  0.11111111  0.62500000  0.19010417  1.0
  In  In119  1  0.11111111  0.95833333  0.19010417  1.0
  In  In120  1  0.44444444  0.29166667  0.19010417  1.0
  In  In121  1  0.44444444  0.62500000  0.19010417  1.0
  In  In122  1  0.44444444  0.95833333  0.19010417  1.0
  In  In123  1  0.77777778  0.29166667  0.19010417  1.0
  In  In124  1  0.77777778  0.62500000  0.19010417  1.0
  In  In125  1  0.77777778  0.95833333  0.19010417  1.0
  In  In126  1  0.22222222  0.04166667  0.17968750  1.0
  In  In127  1  0.22222222  0.37500000  0.17968750  1.0
  In  In128  1  0.22222222  0.70833333  0.17968750  1.0
  In  In129  1  0.55555556  0.04166667  0.17968750  1.0
  In  In130  1  0.55555556  0.37500000  0.17968750  1.0
  In  In131  1  0.55555556  0.70833333  0.17968750  1.0
  In  In132  1  0.88888889  0.04166667  0.17968750  1.0
  In  In133  1  0.88888889  0.37500000  0.17968750  1.0
  In  In134  1  0.88888889  0.70833333  0.17968750  1.0
  In  In135  1  0.22222222  0.20833333  0.24218750  1.0
  In  In136  1  0.22222222  0.54166667  0.24218750  1.0
  In  In137  1  0.22222222  0.87500000  0.24218750  1.0
  In  In138  1  0.55555556  0.20833333  0.24218750  1.0
  In  In139  1  0.55555556  0.54166667  0.24218750  1.0
  In  In140  1  0.55555556  0.87500000  0.24218750  1.0
  In  In141  1  0.88888889  0.20833333  0.24218750  1.0
  In  In142  1  0.88888889  0.54166667  0.24218750  1.0
  In  In143  1  0.88888889  0.87500000  0.24218750  1.0
  Ni  Ni144  1  0.00000000  0.00000000  0.24739583  1.0
  Ni  Ni145  1  0.00000000  0.33333333  0.24739583  1.0
  Ni  Ni146  1  0.00000000  0.66666667  0.24739583  1.0
  Ni  Ni147  1  0.33333333  0.00000000  0.24739583  1.0
  Ni  Ni148  1  0.33333333  0.33333333  0.24739583  1.0
  Ni  Ni149  1  0.33333333  0.66666667  0.24739583  1.0
  Ni  Ni150  1  0.66666667  0.00000000  0.24739583  1.0
  Ni  Ni151  1  0.66666667  0.33333333  0.24739583  1.0
  Ni  Ni152  1  0.66666667  0.66666667  0.24739583  1.0
  Ni  Ni153  1  0.00000000  0.16666667  0.18489583  1.0
  Ni  Ni154  1  0.00000000  0.50000000  0.18489583  1.0
  Ni  Ni155  1  0.00000000  0.83333333  0.18489583  1.0
  Ni  Ni156  1  0.33333333  0.16666667  0.18489583  1.0
  Ni  Ni157  1  0.33333333  0.50000000  0.18489583  1.0
  Ni  Ni158  1  0.33333333  0.83333333  0.18489583  1.0
  Ni  Ni159  1  0.66666667  0.16666667  0.18489583  1.0
  Ni  Ni160  1  0.66666667  0.50000000  0.18489583  1.0
  Ni  Ni161  1  0.66666667  0.83333333  0.18489583  1.0
  Ni  Ni162  1  0.00000000  0.08333333  0.15364583  1.0
  Ni  Ni163  1  0.00000000  0.41666667  0.15364583  1.0
  Ni  Ni164  1  0.00000000  0.75000000  0.15364583  1.0
  Ni  Ni165  1  0.33333333  0.08333333  0.15364583  1.0
  Ni  Ni166  1  0.33333333  0.41666667  0.15364583  1.0
  Ni  Ni167  1  0.33333333  0.75000000  0.15364583  1.0
  Ni  Ni168  1  0.66666667  0.08333333  0.15364583  1.0
  Ni  Ni169  1  0.66666667  0.41666667  0.15364583  1.0
  Ni  Ni170  1  0.66666667  0.75000000  0.15364583  1.0
  Ni  Ni171  1  0.00000000  0.25000000  0.21614583  1.0
  Ni  Ni172  1  0.00000000  0.58333333  0.21614583  1.0
  Ni  Ni173  1  0.00000000  0.91666667  0.21614583  1.0
  Ni  Ni174  1  0.33333333  0.25000000  0.21614583  1.0
  Ni  Ni175  1  0.33333333  0.58333333  0.21614583  1.0
  Ni  Ni176  1  0.33333333  0.91666667  0.21614583  1.0
  Ni  Ni177  1  0.66666667  0.25000000  0.21614583  1.0
  Ni  Ni178  1  0.66666667  0.58333333  0.21614583  1.0
  Ni  Ni179  1  0.66666667  0.91666667  0.21614583  1.0
  Ni  Ni180  1  0.11111111  0.04166667  0.22135417  1.0
  Ni  Ni181  1  0.11111111  0.37500000  0.22135417  1.0
  Ni  Ni182  1  0.11111111  0.70833333  0.22135417  1.0
  Ni  Ni183  1  0.44444444  0.04166667  0.22135417  1.0
  Ni  Ni184  1  0.44444444  0.37500000  0.22135417  1.0
  Ni  Ni185  1  0.44444444  0.70833333  0.22135417  1.0
  Ni  Ni186  1  0.77777778  0.04166667  0.22135417  1.0
  Ni  Ni187  1  0.77777778  0.37500000  0.22135417  1.0
  Ni  Ni188  1  0.77777778  0.70833333  0.22135417  1.0
  Ni  Ni189  1  0.11111111  0.20833333  0.15885417  1.0
  Ni  Ni190  1  0.11111111  0.54166667  0.15885417  1.0
  Ni  Ni191  1  0.11111111  0.87500000  0.15885417  1.0
  Ni  Ni192  1  0.44444444  0.20833333  0.15885417  1.0
  Ni  Ni193  1  0.44444444  0.54166667  0.15885417  1.0
  Ni  Ni194  1  0.44444444  0.87500000  0.15885417  1.0
  Ni  Ni195  1  0.77777778  0.20833333  0.15885417  1.0
  Ni  Ni196  1  0.77777778  0.54166667  0.15885417  1.0
  Ni  Ni197  1  0.77777778  0.87500000  0.15885417  1.0
  Ni  Ni198  1  0.22222222  0.12500000  0.21093750  1.0
  Ni  Ni199  1  0.22222222  0.45833333  0.21093750  1.0
  Ni  Ni200  1  0.22222222  0.79166667  0.21093750  1.0
  Ni  Ni201  1  0.55555556  0.12500000  0.21093750  1.0
  Ni  Ni202  1  0.55555556  0.45833333  0.21093750  1.0
  Ni  Ni203  1  0.55555556  0.79166667  0.21093750  1.0
  Ni  Ni204  1  0.88888889  0.12500000  0.21093750  1.0
  Ni  Ni205  1  0.88888889  0.45833333  0.21093750  1.0
  Ni  Ni206  1  0.88888889  0.79166667  0.21093750  1.0
  Ni  Ni207  1  0.22222222  0.29166667  0.14843750  1.0
  Ni  Ni208  1  0.22222222  0.62500000  0.14843750  1.0
  Ni  Ni209  1  0.22222222  0.95833333  0.14843750  1.0
  Ni  Ni210  1  0.55555556  0.29166667  0.14843750  1.0
  Ni  Ni211  1  0.55555556  0.62500000  0.14843750  1.0
  Ni  Ni212  1  0.55555556  0.95833333  0.14843750  1.0
  Ni  Ni213  1  0.88888889  0.29166667  0.14843750  1.0
  Ni  Ni214  1  0.88888889  0.62500000  0.14843750  1.0
  Ni  Ni215  1  0.88888889  0.95833333  0.14843750  1.0
  In  In216  1  0.11111111  0.12500000  0.25260417  1.0
  In  In217  1  0.11111111  0.45833333  0.25260417  1.0
  In  In218  1  0.11111111  0.79166667  0.25260417  1.0
  In  In219  1  0.44444444  0.12500000  0.25260417  1.0
  In  In220  1  0.44444444  0.45833333  0.25260417  1.0
  In  In221  1  0.44444444  0.79166667  0.25260417  1.0
  In  In222  1  0.77777778  0.12500000  0.25260417  1.0
  In  In223  1  0.77777778  0.45833333  0.25260417  1.0
  In  In224  1  0.77777778  0.79166667  0.25260417  1.0
  In  In225  1  0.11111111  0.29166667  0.31510417  1.0
  In  In226  1  0.11111111  0.62500000  0.31510417  1.0
  In  In227  1  0.11111111  0.95833333  0.31510417  1.0
  In  In228  1  0.44444444  0.29166667  0.31510417  1.0
  In  In229  1  0.44444444  0.62500000  0.31510417  1.0
  In  In230  1  0.44444444  0.95833333  0.31510417  1.0
  In  In231  1  0.77777778  0.29166667  0.31510417  1.0
  In  In232  1  0.77777778  0.62500000  0.31510417  1.0
  In  In233  1  0.77777778  0.95833333  0.31510417  1.0
  In  In234  1  0.22222222  0.04166667  0.30468750  1.0
  In  In235  1  0.22222222  0.37500000  0.30468750  1.0
  In  In236  1  0.22222222  0.70833333  0.30468750  1.0
  In  In237  1  0.55555556  0.04166667  0.30468750  1.0
  In  In238  1  0.55555556  0.37500000  0.30468750  1.0
  In  In239  1  0.55555556  0.70833333  0.30468750  1.0
  In  In240  1  0.88888889  0.04166667  0.30468750  1.0
  In  In241  1  0.88888889  0.37500000  0.30468750  1.0
  In  In242  1  0.88888889  0.70833333  0.30468750  1.0
  In  In243  1  0.22222222  0.20833333  0.36718750  1.0
  In  In244  1  0.22222222  0.54166667  0.36718750  1.0
  In  In245  1  0.22222222  0.87500000  0.36718750  1.0
  In  In246  1  0.55555556  0.20833333  0.36718750  1.0
  In  In247  1  0.55555556  0.54166667  0.36718750  1.0
  In  In248  1  0.55555556  0.87500000  0.36718750  1.0
  In  In249  1  0.88888889  0.20833333  0.36718750  1.0
  In  In250  1  0.88888889  0.54166667  0.36718750  1.0
  In  In251  1  0.88888889  0.87500000  0.36718750  1.0
  Ni  Ni252  1  0.00000000  0.00000000  0.37239583  1.0
  Ni  Ni253  1  0.00000000  0.33333333  0.37239583  1.0
  Ni  Ni254  1  0.00000000  0.66666667  0.37239583  1.0
  Ni  Ni255  1  0.33333333  0.00000000  0.37239583  1.0
  Ni  Ni256  1  0.33333333  0.33333333  0.37239583  1.0
  Ni  Ni257  1  0.33333333  0.66666667  0.37239583  1.0
  Ni  Ni258  1  0.66666667  0.00000000  0.37239583  1.0
  Ni  Ni259  1  0.66666667  0.33333333  0.37239583  1.0
  Ni  Ni260  1  0.66666667  0.66666667  0.37239583  1.0
  Ni  Ni261  1  0.00000000  0.16666667  0.30989583  1.0
  Ni  Ni262  1  0.00000000  0.50000000  0.30989583  1.0
  Ni  Ni263  1  0.00000000  0.83333333  0.30989583  1.0
  Ni  Ni264  1  0.33333333  0.16666667  0.30989583  1.0
  Ni  Ni265  1  0.33333333  0.50000000  0.30989583  1.0
  Ni  Ni266  1  0.33333333  0.83333333  0.30989583  1.0
  Ni  Ni267  1  0.66666667  0.16666667  0.30989583  1.0
  Ni  Ni268  1  0.66666667  0.50000000  0.30989583  1.0
  Ni  Ni269  1  0.66666667  0.83333333  0.30989583  1.0
  Ni  Ni270  1  0.00000000  0.08333333  0.27864583  1.0
  Ni  Ni271  1  0.00000000  0.41666667  0.27864583  1.0
  Ni  Ni272  1  0.00000000  0.75000000  0.27864583  1.0
  Ni  Ni273  1  0.33333333  0.08333333  0.27864583  1.0
  Ni  Ni274  1  0.33333333  0.41666667  0.27864583  1.0
  Ni  Ni275  1  0.33333333  0.75000000  0.27864583  1.0
  Ni  Ni276  1  0.66666667  0.08333333  0.27864583  1.0
  Ni  Ni277  1  0.66666667  0.41666667  0.27864583  1.0
  Ni  Ni278  1  0.66666667  0.75000000  0.27864583  1.0
  Ni  Ni279  1  0.00000000  0.25000000  0.34114583  1.0
  Ni  Ni280  1  0.00000000  0.58333333  0.34114583  1.0
  Ni  Ni281  1  0.00000000  0.91666667  0.34114583  1.0
  Ni  Ni282  1  0.33333333  0.25000000  0.34114583  1.0
  Ni  Ni283  1  0.33333333  0.58333333  0.34114583  1.0
  Ni  Ni284  1  0.33333333  0.91666667  0.34114583  1.0
  Ni  Ni285  1  0.66666667  0.25000000  0.34114583  1.0
  Ni  Ni286  1  0.66666667  0.58333333  0.34114583  1.0
  Ni  Ni287  1  0.66666667  0.91666667  0.34114583  1.0
  Ni  Ni288  1  0.11111111  0.04166667  0.34635417  1.0
  Ni  Ni289  1  0.11111111  0.37500000  0.34635417  1.0
  Ni  Ni290  1  0.11111111  0.70833333  0.34635417  1.0
  Ni  Ni291  1  0.44444444  0.04166667  0.34635417  1.0
  Ni  Ni292  1  0.44444444  0.37500000  0.34635417  1.0
  Ni  Ni293  1  0.44444444  0.70833333  0.34635417  1.0
  Ni  Ni294  1  0.77777778  0.04166667  0.34635417  1.0
  Ni  Ni295  1  0.77777778  0.37500000  0.34635417  1.0
  Ni  Ni296  1  0.77777778  0.70833333  0.34635417  1.0
  Ni  Ni297  1  0.11111111  0.20833333  0.28385417  1.0
  Ni  Ni298  1  0.11111111  0.54166667  0.28385417  1.0
  Ni  Ni299  1  0.11111111  0.87500000  0.28385417  1.0
  Ni  Ni300  1  0.44444444  0.20833333  0.28385417  1.0
  Ni  Ni301  1  0.44444444  0.54166667  0.28385417  1.0
  Ni  Ni302  1  0.44444444  0.87500000  0.28385417  1.0
  Ni  Ni303  1  0.77777778  0.20833333  0.28385417  1.0
  Ni  Ni304  1  0.77777778  0.54166667  0.28385417  1.0
  Ni  Ni305  1  0.77777778  0.87500000  0.28385417  1.0
  Ni  Ni306  1  0.22222222  0.12500000  0.33593750  1.0
  Ni  Ni307  1  0.22222222  0.45833333  0.33593750  1.0
  Ni  Ni308  1  0.22222222  0.79166667  0.33593750  1.0
  Ni  Ni309  1  0.55555556  0.12500000  0.33593750  1.0
  Ni  Ni310  1  0.55555556  0.45833333  0.33593750  1.0
  Ni  Ni311  1  0.55555556  0.79166667  0.33593750  1.0
  Ni  Ni312  1  0.88888889  0.12500000  0.33593750  1.0
  Ni  Ni313  1  0.88888889  0.45833333  0.33593750  1.0
  Ni  Ni314  1  0.88888889  0.79166667  0.33593750  1.0
  Ni  Ni315  1  0.22222222  0.29166667  0.27343750  1.0
  Ni  Ni316  1  0.22222222  0.62500000  0.27343750  1.0
  Ni  Ni317  1  0.22222222  0.95833333  0.27343750  1.0
  Ni  Ni318  1  0.55555556  0.29166667  0.27343750  1.0
  Ni  Ni319  1  0.55555556  0.62500000  0.27343750  1.0
  Ni  Ni320  1  0.55555556  0.95833333  0.27343750  1.0
  Ni  Ni321  1  0.88888889  0.29166667  0.27343750  1.0
  Ni  Ni322  1  0.88888889  0.62500000  0.27343750  1.0
  Ni  Ni323  1  0.88888889  0.95833333  0.27343750  1.0
