# generated using pymatgen
data_InNi
_symmetry_space_group_name_H-M   'P 1'
_cell_length_a   13.35270606
_cell_length_b   16.35365826
_cell_length_c   25.76145792
_cell_angle_alpha   94.04469124
_cell_angle_beta   90.00000000
_cell_angle_gamma   90.00000000
_symmetry_Int_Tables_number   1
_chemical_formula_structural   InNi
_chemical_formula_sum   'In72 Ni72'
_cell_volume   5611.40498224
_cell_formula_units_Z   72
loop_
 _symmetry_equiv_pos_site_id
 _symmetry_equiv_pos_as_xyz
  1  'x, y, z'
loop_
 _atom_site_type_symbol
 _atom_site_label
 _atom_site_symmetry_multiplicity
 _atom_site_fract_x
 _atom_site_fract_y
 _atom_site_fract_z
 _atom_site_occupancy
  In  In0  1  0.00000000  0.07500000  0.92500000  1.0
  In  In1  1  0.00000000  0.40833333  0.92500000  1.0
  In  In2  1  0.00000000  0.74166667  0.92500000  1.0
  In  In3  1  0.33333333  0.07500000  0.92500000  1.0
  In  In4  1  0.33333333  0.40833333  0.92500000  1.0
  In  In5  1  0.33333333  0.74166667  0.92500000  1.0
  In  In6  1  0.66666667  0.07500000  0.92500000  1.0
  In  In7  1  0.66666667  0.40833333  0.92500000  1.0
  In  In8  1  0.66666667  0.74166667  0.92500000  1.0
  In  In9  1  0.16666667  0.19166667  0.97500000  1.0
  In  In10  1  0.16666667  0.52500000  0.97500000  1.0
  In  In11  1  0.16666667  0.85833333  0.97500000  1.0
  In  In12  1  0.50000000  0.19166667  0.97500000  1.0
  In  In13  1  0.50000000  0.52500000  0.97500000  1.0
  In  In14  1  0.50000000  0.85833333  0.97500000  1.0
  In  In15  1  0.83333333  0.19166667  0.97500000  1.0
  In  In16  1  0.83333333  0.52500000  0.97500000  1.0
  In  In17  1  0.83333333  0.85833333  0.97500000  1.0
  In  In18  1  0.00000000  0.17500000  0.82500000  1.0
  In  In19  1  0.00000000  0.50833333  0.82500000  1.0
  In  In20  1  0.00000000  0.84166667  0.82500000  1.0
  In  In21  1  0.33333333  0.17500000  0.82500000  1.0
  In  In22  1  0.33333333  0.50833333  0.82500000  1.0
  In  In23  1  0.33333333  0.84166667  0.82500000  1.0
  In  In24  1  0.66666667  0.17500000  0.82500000  1.0
  In  In25  1  0.66666667  0.50833333  0.82500000  1.0
  In  In26  1  0.66666667  0.84166667  0.82500000  1.0
  In  In27  1  0.16666667  0.29166667  0.87500000  1.0
  In  In28  1  0.16666667  0.62500000  0.87500000  1.0
  In  In29  1  0.16666667  0.95833333  0.87500000  1.0
  In  In30  1  0.50000000  0.29166667  0.87500000  1.0
  In  In31  1  0.50000000  0.62500000  0.87500000  1.0
  In  In32  1  0.50000000  0.95833333  0.87500000  1.0
  In  In33  1  0.83333333  0.29166667  0.87500000  1.0
  In  In34  1  0.83333333  0.62500000  0.87500000  1.0
  In  In35  1  0.83333333  0.95833333  0.87500000  1.0
  In  In36  1  0.00000000  0.27500000  0.72500000  1.0
  In  In37  1  0.00000000  0.60833333  0.72500000  1.0
  In  In38  1  0.00000000  0.94166667  0.72500000  1.0
  In  In39  1  0.33333333  0.27500000  0.72500000  1.0
  In  In40  1  0.33333333  0.60833333  0.72500000  1.0
  In  In41  1  0.33333333  0.94166667  0.72500000  1.0
  In  In42  1  0.66666667  0.27500000  0.72500000  1.0
  In  In43  1  0.66666667  0.60833333  0.72500000  1.0
  In  In44  1  0.66666667  0.94166667  0.72500000  1.0
  In  In45  1  0.16666667  0.05833333  0.77500000  1.0
  In  In46  1  0.16666667  0.39166667  0.77500000  1.0
  In  In47  1  0.16666667  0.72500000  0.77500000  1.0
  In  In48  1  0.50000000  0.05833333  0.77500000  1.0
  In  In49  1  0.50000000  0.39166667  0.77500000  1.0
  In  In50  1  0.50000000  0.72500000  0.77500000  1.0
  In  In51  1  0.83333333  0.05833333  0.77500000  1.0
  In  In52  1  0.83333333  0.39166667  0.77500000  1.0
  In  In53  1  0.83333333  0.72500000  0.77500000  1.0
  In  In54  1  0.00000000  0.04166667  0.62500000  1.0
  In  In55  1  0.00000000  0.37500000  0.62500000  1.0
  In  In56  1  0.00000000  0.70833333  0.62500000  1.0
  In  In57  1  0.33333333  0.04166667  0.62500000  1.0
  In  In58  1  0.33333333  0.37500000  0.62500000  1.0
  In  In59  1  0.33333333  0.70833333  0.62500000  1.0
  In  In60  1  0.66666667  0.04166667  0.62500000  1.0
  In  In61  1  0.66666667  0.37500000  0.62500000  1.0
  In  In62  1  0.66666667  0.70833333  0.62500000  1.0
  In  In63  1  0.16666667  0.15833333  0.67500000  1.0
  In  In64  1  0.16666667  0.49166667  0.67500000  1.0
  In  In65  1  0.16666667  0.82500000  0.67500000  1.0
  In  In66  1  0.50000000  0.15833333  0.67500000  1.0
  In  In67  1  0.50000000  0.49166667  0.67500000  1.0
  In  In68  1  0.50000000  0.82500000  0.67500000  1.0
  In  In69  1  0.83333333  0.15833333  0.67500000  1.0
  In  In70  1  0.83333333  0.49166667  0.67500000  1.0
  In  In71  1  0.83333333  0.82500000  0.67500000  1.0
  Ni  Ni72  1  0.00000000  0.24166667  0.92500000  1.0
  Ni  Ni73  1  0.00000000  0.57500000  0.92500000  1.0
  Ni  Ni74  1  0.00000000  0.90833333  0.92500000  1.0
  Ni  Ni75  1  0.33333333  0.24166667  0.92500000  1.0
  Ni  Ni76  1  0.33333333  0.57500000  0.92500000  1.0
  Ni  Ni77  1  0.33333333  0.90833333  0.92500000  1.0
  Ni  Ni78  1  0.66666667  0.24166667  0.92500000  1.0
  Ni  Ni79  1  0.66666667  0.57500000  0.92500000  1.0
  Ni  Ni80  1  0.66666667  0.90833333  0.92500000  1.0
  Ni  Ni81  1  0.16666667  0.02500000  0.97500000  1.0
  Ni  Ni82  1  0.16666667  0.35833333  0.97500000  1.0
  Ni  Ni83  1  0.16666667  0.69166667  0.97500000  1.0
  Ni  Ni84  1  0.50000000  0.02500000  0.97500000  1.0
  Ni  Ni85  1  0.50000000  0.35833333  0.97500000  1.0
  Ni  Ni86  1  0.50000000  0.69166667  0.97500000  1.0
  Ni  Ni87  1  0.83333333  0.02500000  0.97500000  1.0
  Ni  Ni88  1  0.83333333  0.35833333  0.97500000  1.0
  Ni  Ni89  1  0.83333333  0.69166667  0.97500000  1.0
  Ni  Ni90  1  0.00000000  0.00833333  0.82500000  1.0
  Ni  Ni91  1  0.00000000  0.34166667  0.82500000  1.0
  Ni  Ni92  1  0.00000000  0.67500000  0.82500000  1.0
  Ni  Ni93  1  0.33333333  0.00833333  0.82500000  1.0
  Ni  Ni94  1  0.33333333  0.34166667  0.82500000  1.0
  Ni  Ni95  1  0.33333333  0.67500000  0.82500000  1.0
  Ni  Ni96  1  0.66666667  0.00833333  0.82500000  1.0
  Ni  Ni97  1  0.66666667  0.34166667  0.82500000  1.0
  Ni  Ni98  1  0.66666667  0.67500000  0.82500000  1.0
  Ni  Ni99  1  0.16666667  0.12500000  0.87500000  1.0
  Ni  Ni100  1  0.16666667  0.45833333  0.87500000  1.0
  Ni  Ni101  1  0.16666667  0.79166667  0.87500000  1.0
  Ni  Ni102  1  0.50000000  0.12500000  0.87500000  1.0
  Ni  Ni103  1  0.50000000  0.45833333  0.87500000  1.0
  Ni  Ni104  1  0.50000000  0.79166667  0.87500000  1.0
  Ni  Ni105  1  0.83333333  0.12500000  0.87500000  1.0
  Ni  Ni106  1  0.83333333  0.45833333  0.87500000  1.0
  Ni  Ni107  1  0.83333333  0.79166667  0.87500000  1.0
  Ni  Ni108  1  0.00000000  0.10833333  0.72500000  1.0
  Ni  Ni109  1  0.00000000  0.44166667  0.72500000  1.0
  Ni  Ni110  1  0.00000000  0.77500000  0.72500000  1.0
  Ni  Ni111  1  0.33333333  0.10833333  0.72500000  1.0
  Ni  Ni112  1  0.33333333  0.44166667  0.72500000  1.0
  Ni  Ni113  1  0.33333333  0.77500000  0.72500000  1.0
  Ni  Ni114  1  0.66666667  0.10833333  0.72500000  1.0
  Ni  Ni115  1  0.66666667  0.44166667  0.72500000  1.0
  Ni  Ni116  1  0.66666667  0.77500000  0.72500000  1.0
  Ni  Ni117  1  0.16666667  0.22500000  0.77500000  1.0
  Ni  Ni118  1  0.16666667  0.55833333  0.77500000  1.0
  Ni  Ni119  1  0.16666667  0.89166667  0.77500000  1.0
  Ni  Ni120  1  0.50000000  0.22500000  0.77500000  1.0
  Ni  Ni121  1  0.50000000  0.55833333  0.77500000  1.0
  Ni  Ni122  1  0.50000000  0.89166667  0.77500000  1.0
  Ni  Ni123  1  0.83333333  0.22500000  0.77500000  1.0
  Ni  Ni124  1  0.83333333  0.55833333  0.77500000  1.0
  Ni  Ni125  1  0.83333333  0.89166667  0.77500000  1.0
  Ni  Ni126  1  0.00000000  0.20833333  0.62500000  1.0
  Ni  Ni127  1  0.00000000  0.54166667  0.62500000  1.0
  Ni  Ni128  1  0.00000000  0.87500000  0.62500000  1.0
  Ni  Ni129  1  0.33333333  0.20833333  0.62500000  1.0
  Ni  Ni130  1  0.33333333  0.54166667  0.62500000  1.0
  Ni  Ni131  1  0.33333333  0.87500000  0.62500000  1.0
  Ni  Ni132  1  0.66666667  0.20833333  0.62500000  1.0
  Ni  Ni133  1  0.66666667  0.54166667  0.62500000  1.0
  Ni  Ni134  1  0.66666667  0.87500000  0.62500000  1.0
  Ni  Ni135  1  0.16666667  0.32500000  0.67500000  1.0
  Ni  Ni136  1  0.16666667  0.65833333  0.67500000  1.0
  Ni  Ni137  1  0.16666667  0.99166667  0.67500000  1.0
  Ni  Ni138  1  0.50000000  0.32500000  0.67500000  1.0
  Ni  Ni139  1  0.50000000  0.65833333  0.67500000  1.0
  Ni  Ni140  1  0.50000000  0.99166667  0.67500000  1.0
  Ni  Ni141  1  0.83333333  0.32500000  0.67500000  1.0
  Ni  Ni142  1  0.83333333  0.65833333  0.67500000  1.0
  Ni  Ni143  1  0.83333333  0.99166667  0.67500000  1.0
