# generated using pymatgen
data_MnNi
_symmetry_space_group_name_H-M   'P 1'
_cell_length_a   13.04515302
_cell_length_b   25.00977041
_cell_length_c   95.66445548
_cell_angle_alpha   16.54733156
_cell_angle_beta   33.09466311
_cell_angle_gamma   29.07727708
_symmetry_Int_Tables_number   1
_chemical_formula_structural   MnNi
_chemical_formula_sum   'Mn81 Ni81'
_cell_volume   4320.03143390
_cell_formula_units_Z   81
loop_
 _symmetry_equiv_pos_site_id
 _symmetry_equiv_pos_as_xyz
  1  'x, y, z'
loop_
 _atom_site_type_symbol
 _atom_site_label
 _atom_site_symmetry_multiplicity
 _atom_site_fract_x
 _atom_site_fract_y
 _atom_site_fract_z
 _atom_site_occupancy
  Mn  Mn0  1  0.00000000  0.00000000  0.02272727  1.0
  Mn  Mn1  1  0.00000000  0.33333333  0.02272727  1.0
  Mn  Mn2  1  0.00000000  0.66666667  0.02272727  1.0
  Mn  Mn3  1  0.33333333  0.00000000  0.02272727  1.0
  Mn  Mn4  1  0.33333333  0.33333333  0.02272727  1.0
  Mn  Mn5  1  0.33333333  0.66666667  0.02272727  1.0
  Mn  Mn6  1  0.66666667  0.00000000  0.02272727  1.0
  Mn  Mn7  1  0.66666667  0.33333333  0.02272727  1.0
  Mn  Mn8  1  0.66666667  0.66666667  0.02272727  1.0
  Ni  Ni9  1  0.16666667  0.16666667  0.02272727  1.0
  Ni  Ni10  1  0.16666667  0.50000000  0.02272727  1.0
  Ni  Ni11  1  0.16666667  0.83333333  0.02272727  1.0
  Ni  Ni12  1  0.50000000  0.16666667  0.02272727  1.0
  Ni  Ni13  1  0.50000000  0.50000000  0.02272727  1.0
  Ni  Ni14  1  0.50000000  0.83333333  0.02272727  1.0
  Ni  Ni15  1  0.83333333  0.16666667  0.02272727  1.0
  Ni  Ni16  1  0.83333333  0.50000000  0.02272727  1.0
  Ni  Ni17  1  0.83333333  0.83333333  0.02272727  1.0
  Mn  Mn18  1  0.00000000  0.00000000  0.06818182  1.0
  Mn  Mn19  1  0.00000000  0.33333333  0.06818182  1.0
  Mn  Mn20  1  0.00000000  0.66666667  0.06818182  1.0
  Mn  Mn21  1  0.33333333  0.00000000  0.06818182  1.0
  Mn  Mn22  1  0.33333333  0.33333333  0.06818182  1.0
  Mn  Mn23  1  0.33333333  0.66666667  0.06818182  1.0
  Mn  Mn24  1  0.66666667  0.00000000  0.06818182  1.0
  Mn  Mn25  1  0.66666667  0.33333333  0.06818182  1.0
  Mn  Mn26  1  0.66666667  0.66666667  0.06818182  1.0
  Ni  Ni27  1  0.16666667  0.16666667  0.06818182  1.0
  Ni  Ni28  1  0.16666667  0.50000000  0.06818182  1.0
  Ni  Ni29  1  0.16666667  0.83333333  0.06818182  1.0
  Ni  Ni30  1  0.50000000  0.16666667  0.06818182  1.0
  Ni  Ni31  1  0.50000000  0.50000000  0.06818182  1.0
  Ni  Ni32  1  0.50000000  0.83333333  0.06818182  1.0
  Ni  Ni33  1  0.83333333  0.16666667  0.06818182  1.0
  Ni  Ni34  1  0.83333333  0.50000000  0.06818182  1.0
  Ni  Ni35  1  0.83333333  0.83333333  0.06818182  1.0
  Mn  Mn36  1  0.00000000  0.00000000  0.11363636  1.0
  Mn  Mn37  1  0.00000000  0.33333333  0.11363636  1.0
  Mn  Mn38  1  0.00000000  0.66666667  0.11363636  1.0
  Mn  Mn39  1  0.33333333  0.00000000  0.11363636  1.0
  Mn  Mn40  1  0.33333333  0.33333333  0.11363636  1.0
  Mn  Mn41  1  0.33333333  0.66666667  0.11363636  1.0
  Mn  Mn42  1  0.66666667  0.00000000  0.11363636  1.0
  Mn  Mn43  1  0.66666667  0.33333333  0.11363636  1.0
  Mn  Mn44  1  0.66666667  0.66666667  0.11363636  1.0
  Ni  Ni45  1  0.16666667  0.16666667  0.11363636  1.0
  Ni  Ni46  1  0.16666667  0.50000000  0.11363636  1.0
  Ni  Ni47  1  0.16666667  0.83333333  0.11363636  1.0
  Ni  Ni48  1  0.50000000  0.16666667  0.11363636  1.0
  Ni  Ni49  1  0.50000000  0.50000000  0.11363636  1.0
  Ni  Ni50  1  0.50000000  0.83333333  0.11363636  1.0
  Ni  Ni51  1  0.83333333  0.16666667  0.11363636  1.0
  Ni  Ni52  1  0.83333333  0.50000000  0.11363636  1.0
  Ni  Ni53  1  0.83333333  0.83333333  0.11363636  1.0
  Mn  Mn54  1  0.00000000  0.00000000  0.15909091  1.0
  Mn  Mn55  1  0.00000000  0.33333333  0.15909091  1.0
  Mn  Mn56  1  0.00000000  0.66666667  0.15909091  1.0
  Mn  Mn57  1  0.33333333  0.00000000  0.15909091  1.0
  Mn  Mn58  1  0.33333333  0.33333333  0.15909091  1.0
  Mn  Mn59  1  0.33333333  0.66666667  0.15909091  1.0
  Mn  Mn60  1  0.66666667  0.00000000  0.15909091  1.0
  Mn  Mn61  1  0.66666667  0.33333333  0.15909091  1.0
  Mn  Mn62  1  0.66666667  0.66666667  0.15909091  1.0
  Ni  Ni63  1  0.16666667  0.16666667  0.15909091  1.0
  Ni  Ni64  1  0.16666667  0.50000000  0.15909091  1.0
  Ni  Ni65  1  0.16666667  0.83333333  0.15909091  1.0
  Ni  Ni66  1  0.50000000  0.16666667  0.15909091  1.0
  Ni  Ni67  1  0.50000000  0.50000000  0.15909091  1.0
  Ni  Ni68  1  0.50000000  0.83333333  0.15909091  1.0
  Ni  Ni69  1  0.83333333  0.16666667  0.15909091  1.0
  Ni  Ni70  1  0.83333333  0.50000000  0.15909091  1.0
  Ni  Ni71  1  0.83333333  0.83333333  0.15909091  1.0
  Mn  Mn72  1  0.00000000  0.00000000  0.20454545  1.0
  Mn  Mn73  1  0.00000000  0.33333333  0.20454545  1.0
  Mn  Mn74  1  0.00000000  0.66666667  0.20454545  1.0
  Mn  Mn75  1  0.33333333  0.00000000  0.20454545  1.0
  Mn  Mn76  1  0.33333333  0.33333333  0.20454545  1.0
  Mn  Mn77  1  0.33333333  0.66666667  0.20454545  1.0
  Mn  Mn78  1  0.66666667  0.00000000  0.20454545  1.0
  Mn  Mn79  1  0.66666667  0.33333333  0.20454545  1.0
  Mn  Mn80  1  0.66666667  0.66666667  0.20454545  1.0
  Ni  Ni81  1  0.16666667  0.16666667  0.20454545  1.0
  Ni  Ni82  1  0.16666667  0.50000000  0.20454545  1.0
  Ni  Ni83  1  0.16666667  0.83333333  0.20454545  1.0
  Ni  Ni84  1  0.50000000  0.16666667  0.20454545  1.0
  Ni  Ni85  1  0.50000000  0.50000000  0.20454545  1.0
  Ni  Ni86  1  0.50000000  0.83333333  0.20454545  1.0
  Ni  Ni87  1  0.83333333  0.16666667  0.20454545  1.0
  Ni  Ni88  1  0.83333333  0.50000000  0.20454545  1.0
  Ni  Ni89  1  0.83333333  0.83333333  0.20454545  1.0
  Mn  Mn90  1  0.00000000  0.00000000  0.25000000  1.0
  Mn  Mn91  1  0.00000000  0.33333333  0.25000000  1.0
  Mn  Mn92  1  0.00000000  0.66666667  0.25000000  1.0
  Mn  Mn93  1  0.33333333  0.00000000  0.25000000  1.0
  Mn  Mn94  1  0.33333333  0.33333333  0.25000000  1.0
  Mn  Mn95  1  0.33333333  0.66666667  0.25000000  1.0
  Mn  Mn96  1  0.66666667  0.00000000  0.25000000  1.0
  Mn  Mn97  1  0.66666667  0.33333333  0.25000000  1.0
  Mn  Mn98  1  0.66666667  0.66666667  0.25000000  1.0
  Ni  Ni99  1  0.16666667  0.16666667  0.25000000  1.0
  Ni  Ni100  1  0.16666667  0.50000000  0.25000000  1.0
  Ni  Ni101  1  0.16666667  0.83333333  0.25000000  1.0
  Ni  Ni102  1  0.50000000  0.16666667  0.25000000  1.0
  Ni  Ni103  1  0.50000000  0.50000000  0.25000000  1.0
  Ni  Ni104  1  0.50000000  0.83333333  0.25000000  1.0
  Ni  Ni105  1  0.83333333  0.16666667  0.25000000  1.0
  Ni  Ni106  1  0.83333333  0.50000000  0.25000000  1.0
  Ni  Ni107  1  0.83333333  0.83333333  0.25000000  1.0
  Mn  Mn108  1  0.00000000  0.00000000  0.29545455  1.0
  Mn  Mn109  1  0.00000000  0.33333333  0.29545455  1.0
  Mn  Mn110  1  0.00000000  0.66666667  0.29545455  1.0
  Mn  Mn111  1  0.33333333  0.00000000  0.29545455  1.0
  Mn  Mn112  1  0.33333333  0.33333333  0.29545455  1.0
  Mn  Mn113  1  0.33333333  0.66666667  0.29545455  1.0
  Mn  Mn114  1  0.66666667  0.00000000  0.29545455  1.0
  Mn  Mn115  1  0.66666667  0.33333333  0.29545455  1.0
  Mn  Mn116  1  0.66666667  0.66666667  0.29545455  1.0
  Ni  Ni117  1  0.16666667  0.16666667  0.29545455  1.0
  Ni  Ni118  1  0.16666667  0.50000000  0.29545455  1.0
  Ni  Ni119  1  0.16666667  0.83333333  0.29545455  1.0
  Ni  Ni120  1  0.50000000  0.16666667  0.29545455  1.0
  Ni  Ni121  1  0.50000000  0.50000000  0.29545455  1.0
  Ni  Ni122  1  0.50000000  0.83333333  0.29545455  1.0
  Ni  Ni123  1  0.83333333  0.16666667  0.29545455  1.0
  Ni  Ni124  1  0.83333333  0.50000000  0.29545455  1.0
  Ni  Ni125  1  0.83333333  0.83333333  0.29545455  1.0
  Mn  Mn126  1  0.00000000  0.00000000  0.34090909  1.0
  Mn  Mn127  1  0.00000000  0.33333333  0.34090909  1.0
  Mn  Mn128  1  0.00000000  0.66666667  0.34090909  1.0
  Mn  Mn129  1  0.33333333  0.00000000  0.34090909  1.0
  Mn  Mn130  1  0.33333333  0.33333333  0.34090909  1.0
  Mn  Mn131  1  0.33333333  0.66666667  0.34090909  1.0
  Mn  Mn132  1  0.66666667  0.00000000  0.34090909  1.0
  Mn  Mn133  1  0.66666667  0.33333333  0.34090909  1.0
  Mn  Mn134  1  0.66666667  0.66666667  0.34090909  1.0
  Ni  Ni135  1  0.16666667  0.16666667  0.34090909  1.0
  Ni  Ni136  1  0.16666667  0.50000000  0.34090909  1.0
  Ni  Ni137  1  0.16666667  0.83333333  0.34090909  1.0
  Ni  Ni138  1  0.50000000  0.16666667  0.34090909  1.0
  Ni  Ni139  1  0.50000000  0.50000000  0.34090909  1.0
  Ni  Ni140  1  0.50000000  0.83333333  0.34090909  1.0
  Ni  Ni141  1  0.83333333  0.16666667  0.34090909  1.0
  Ni  Ni142  1  0.83333333  0.50000000  0.34090909  1.0
  Ni  Ni143  1  0.83333333  0.83333333  0.34090909  1.0
  Mn  Mn144  1  0.00000000  0.00000000  0.38636364  1.0
  Mn  Mn145  1  0.00000000  0.33333333  0.38636364  1.0
  Mn  Mn146  1  0.00000000  0.66666667  0.38636364  1.0
  Mn  Mn147  1  0.33333333  0.00000000  0.38636364  1.0
  Mn  Mn148  1  0.33333333  0.33333333  0.38636364  1.0
  Mn  Mn149  1  0.33333333  0.66666667  0.38636364  1.0
  Mn  Mn150  1  0.66666667  0.00000000  0.38636364  1.0
  Mn  Mn151  1  0.66666667  0.33333333  0.38636364  1.0
  Mn  Mn152  1  0.66666667  0.66666667  0.38636364  1.0
  Ni  Ni153  1  0.16666667  0.16666667  0.38636364  1.0
  Ni  Ni154  1  0.16666667  0.50000000  0.38636364  1.0
  Ni  Ni155  1  0.16666667  0.83333333  0.38636364  1.0
  Ni  Ni156  1  0.50000000  0.16666667  0.38636364  1.0
  Ni  Ni157  1  0.50000000  0.50000000  0.38636364  1.0
  Ni  Ni158  1  0.50000000  0.83333333  0.38636364  1.0
  Ni  Ni159  1  0.83333333  0.16666667  0.38636364  1.0
  Ni  Ni160  1  0.83333333  0.50000000  0.38636364  1.0
  Ni  Ni161  1  0.83333333  0.83333333  0.38636364  1.0
