# generated using pymatgen
data_MnNi
_symmetry_space_group_name_H-M   'P 1'
_cell_length_a   13.00868179
_cell_length_b   14.63333230
_cell_length_c   28.70532039
_cell_angle_alpha   90.99105412
_cell_angle_beta   90.96964031
_cell_angle_gamma   104.63127594
_symmetry_Int_Tables_number   1
_chemical_formula_structural   MnNi
_chemical_formula_sum   'Mn90 Ni90'
_cell_volume   5285.08263311
_cell_formula_units_Z   90
loop_
 _symmetry_equiv_pos_site_id
 _symmetry_equiv_pos_as_xyz
  1  'x, y, z'
loop_
 _atom_site_type_symbol
 _atom_site_label
 _atom_site_symmetry_multiplicity
 _atom_site_fract_x
 _atom_site_fract_y
 _atom_site_fract_z
 _atom_site_occupancy
  Mn  Mn0  1  0.16666667  0.14583333  0.02083333  1.0
  Mn  Mn1  1  0.16666667  0.47916667  0.02083333  1.0
  Mn  Mn2  1  0.16666667  0.81250000  0.02083333  1.0
  Mn  Mn3  1  0.50000000  0.14583333  0.02083333  1.0
  Mn  Mn4  1  0.50000000  0.47916667  0.02083333  1.0
  Mn  Mn5  1  0.50000000  0.81250000  0.02083333  1.0
  Mn  Mn6  1  0.83333333  0.14583333  0.02083333  1.0
  Mn  Mn7  1  0.83333333  0.47916667  0.02083333  1.0
  Mn  Mn8  1  0.83333333  0.81250000  0.02083333  1.0
  Mn  Mn9  1  0.00000000  0.27083333  0.06250000  1.0
  Mn  Mn10  1  1.00000000  0.60416667  0.06250000  1.0
  Mn  Mn11  1  0.00000000  0.93750000  0.06250000  1.0
  Mn  Mn12  1  0.33333333  0.27083333  0.06250000  1.0
  Mn  Mn13  1  0.33333333  0.60416667  0.06250000  1.0
  Mn  Mn14  1  0.33333333  0.93750000  0.06250000  1.0
  Mn  Mn15  1  0.66666667  0.27083333  0.06250000  1.0
  Mn  Mn16  1  0.66666667  0.60416667  0.06250000  1.0
  Mn  Mn17  1  0.66666667  0.93750000  0.06250000  1.0
  Mn  Mn18  1  0.16666667  0.06250000  0.10416667  1.0
  Mn  Mn19  1  0.16666667  0.39583333  0.10416667  1.0
  Mn  Mn20  1  0.16666667  0.72916667  0.10416667  1.0
  Mn  Mn21  1  0.50000000  0.06250000  0.10416667  1.0
  Mn  Mn22  1  0.50000000  0.39583333  0.10416667  1.0
  Mn  Mn23  1  0.50000000  0.72916667  0.10416667  1.0
  Mn  Mn24  1  0.83333333  0.06250000  0.10416667  1.0
  Mn  Mn25  1  0.83333333  0.39583333  0.10416667  1.0
  Mn  Mn26  1  0.83333333  0.72916667  0.10416667  1.0
  Mn  Mn27  1  0.00000000  0.18750000  0.14583333  1.0
  Mn  Mn28  1  0.00000000  0.52083333  0.14583333  1.0
  Mn  Mn29  1  0.00000000  0.85416667  0.14583333  1.0
  Mn  Mn30  1  0.33333333  0.18750000  0.14583333  1.0
  Mn  Mn31  1  0.33333333  0.52083333  0.14583333  1.0
  Mn  Mn32  1  0.33333333  0.85416667  0.14583333  1.0
  Mn  Mn33  1  0.66666667  0.18750000  0.14583333  1.0
  Mn  Mn34  1  0.66666667  0.52083333  0.14583333  1.0
  Mn  Mn35  1  0.66666667  0.85416667  0.14583333  1.0
  Mn  Mn36  1  0.16666667  0.31250000  0.18750000  1.0
  Mn  Mn37  1  0.16666667  0.64583333  0.18750000  1.0
  Mn  Mn38  1  0.16666667  0.97916667  0.18750000  1.0
  Mn  Mn39  1  0.50000000  0.31250000  0.18750000  1.0
  Mn  Mn40  1  0.50000000  0.64583333  0.18750000  1.0
  Mn  Mn41  1  0.50000000  0.97916667  0.18750000  1.0
  Mn  Mn42  1  0.83333333  0.31250000  0.18750000  1.0
  Mn  Mn43  1  0.83333333  0.64583333  0.18750000  1.0
  Mn  Mn44  1  0.83333333  0.97916667  0.18750000  1.0
  Mn  Mn45  1  0.00000000  0.10416667  0.22916667  1.0
  Mn  Mn46  1  0.00000000  0.43750000  0.22916667  1.0
  Mn  Mn47  1  0.00000000  0.77083333  0.22916667  1.0
  Mn  Mn48  1  0.33333333  0.10416667  0.22916667  1.0
  Mn  Mn49  1  0.33333333  0.43750000  0.22916667  1.0
  Mn  Mn50  1  0.33333333  0.77083333  0.22916667  1.0
  Mn  Mn51  1  0.66666667  0.10416667  0.22916667  1.0
  Mn  Mn52  1  0.66666667  0.43750000  0.22916667  1.0
  Mn  Mn53  1  0.66666667  0.77083333  0.22916667  1.0
  Mn  Mn54  1  0.16666667  0.22916667  0.27083333  1.0
  Mn  Mn55  1  0.16666667  0.56250000  0.27083333  1.0
  Mn  Mn56  1  0.16666667  0.89583333  0.27083333  1.0
  Mn  Mn57  1  0.50000000  0.22916667  0.27083333  1.0
  Mn  Mn58  1  0.50000000  0.56250000  0.27083333  1.0
  Mn  Mn59  1  0.50000000  0.89583333  0.27083333  1.0
  Mn  Mn60  1  0.83333333  0.22916667  0.27083333  1.0
  Mn  Mn61  1  0.83333333  0.56250000  0.27083333  1.0
  Mn  Mn62  1  0.83333333  0.89583333  0.27083333  1.0
  Mn  Mn63  1  0.00000000  0.02083333  0.31250000  1.0
  Mn  Mn64  1  0.00000000  0.35416667  0.31250000  1.0
  Mn  Mn65  1  0.00000000  0.68750000  0.31250000  1.0
  Mn  Mn66  1  0.33333333  0.02083333  0.31250000  1.0
  Mn  Mn67  1  0.33333333  0.35416667  0.31250000  1.0
  Mn  Mn68  1  0.33333333  0.68750000  0.31250000  1.0
  Mn  Mn69  1  0.66666667  0.02083333  0.31250000  1.0
  Mn  Mn70  1  0.66666667  0.35416667  0.31250000  1.0
  Mn  Mn71  1  0.66666667  0.68750000  0.31250000  1.0
  Mn  Mn72  1  0.16666667  0.14583333  0.35416667  1.0
  Mn  Mn73  1  0.16666667  0.47916667  0.35416667  1.0
  Mn  Mn74  1  0.16666667  0.81250000  0.35416667  1.0
  Mn  Mn75  1  0.50000000  0.14583333  0.35416667  1.0
  Mn  Mn76  1  0.50000000  0.47916667  0.35416667  1.0
  Mn  Mn77  1  0.50000000  0.81250000  0.35416667  1.0
  Mn  Mn78  1  0.83333333  0.14583333  0.35416667  1.0
  Mn  Mn79  1  0.83333333  0.47916667  0.35416667  1.0
  Mn  Mn80  1  0.83333333  0.81250000  0.35416667  1.0
  Mn  Mn81  1  0.00000000  0.27083333  0.39583333  1.0
  Mn  Mn82  1  0.00000000  0.60416667  0.39583333  1.0
  Mn  Mn83  1  0.00000000  0.93750000  0.39583333  1.0
  Mn  Mn84  1  0.33333333  0.27083333  0.39583333  1.0
  Mn  Mn85  1  0.33333333  0.60416667  0.39583333  1.0
  Mn  Mn86  1  0.33333333  0.93750000  0.39583333  1.0
  Mn  Mn87  1  0.66666667  0.27083333  0.39583333  1.0
  Mn  Mn88  1  0.66666667  0.60416667  0.39583333  1.0
  Mn  Mn89  1  0.66666667  0.93750000  0.39583333  1.0
  Ni  Ni90  1  0.00000000  0.10416667  0.06250000  1.0
  Ni  Ni91  1  0.00000000  0.43750000  0.06250000  1.0
  Ni  Ni92  1  0.00000000  0.77083333  0.06250000  1.0
  Ni  Ni93  1  0.33333333  0.10416667  0.06250000  1.0
  Ni  Ni94  1  0.33333333  0.43750000  0.06250000  1.0
  Ni  Ni95  1  0.33333333  0.77083333  0.06250000  1.0
  Ni  Ni96  1  0.66666667  0.10416667  0.06250000  1.0
  Ni  Ni97  1  0.66666667  0.43750000  0.06250000  1.0
  Ni  Ni98  1  0.66666667  0.77083333  0.06250000  1.0
  Ni  Ni99  1  0.16666667  0.31250000  0.02083333  1.0
  Ni  Ni100  1  0.16666667  0.64583333  0.02083333  1.0
  Ni  Ni101  1  0.16666667  0.97916667  0.02083333  1.0
  Ni  Ni102  1  0.50000000  0.31250000  0.02083333  1.0
  Ni  Ni103  1  0.50000000  0.64583333  0.02083333  1.0
  Ni  Ni104  1  0.50000000  0.97916667  0.02083333  1.0
  Ni  Ni105  1  0.83333333  0.31250000  0.02083333  1.0
  Ni  Ni106  1  0.83333333  0.64583333  0.02083333  1.0
  Ni  Ni107  1  0.83333333  0.97916667  0.02083333  1.0
  Ni  Ni108  1  0.00000000  0.02083333  0.14583333  1.0
  Ni  Ni109  1  0.00000000  0.35416667  0.14583333  1.0
  Ni  Ni110  1  0.00000000  0.68750000  0.14583333  1.0
  Ni  Ni111  1  0.33333333  0.02083333  0.14583333  1.0
  Ni  Ni112  1  0.33333333  0.35416667  0.14583333  1.0
  Ni  Ni113  1  0.33333333  0.68750000  0.14583333  1.0
  Ni  Ni114  1  0.66666667  0.02083333  0.14583333  1.0
  Ni  Ni115  1  0.66666667  0.35416667  0.14583333  1.0
  Ni  Ni116  1  0.66666667  0.68750000  0.14583333  1.0
  Ni  Ni117  1  0.16666667  0.22916667  0.10416667  1.0
  Ni  Ni118  1  0.16666667  0.56250000  0.10416667  1.0
  Ni  Ni119  1  0.16666667  0.89583333  0.10416667  1.0
  Ni  Ni120  1  0.50000000  0.22916667  0.10416667  1.0
  Ni  Ni121  1  0.50000000  0.56250000  0.10416667  1.0
  Ni  Ni122  1  0.50000000  0.89583333  0.10416667  1.0
  Ni  Ni123  1  0.83333333  0.22916667  0.10416667  1.0
  Ni  Ni124  1  0.83333333  0.56250000  0.10416667  1.0
  Ni  Ni125  1  0.83333333  0.89583333  0.10416667  1.0
  Ni  Ni126  1  0.00000000  0.27083333  0.22916667  1.0
  Ni  Ni127  1  0.00000000  0.60416667  0.22916667  1.0
  Ni  Ni128  1  0.00000000  0.93750000  0.22916667  1.0
  Ni  Ni129  1  0.33333333  0.27083333  0.22916667  1.0
  Ni  Ni130  1  0.33333333  0.60416667  0.22916667  1.0
  Ni  Ni131  1  0.33333333  0.93750000  0.22916667  1.0
  Ni  Ni132  1  0.66666667  0.27083333  0.22916667  1.0
  Ni  Ni133  1  0.66666667  0.60416667  0.22916667  1.0
  Ni  Ni134  1  0.66666667  0.93750000  0.22916667  1.0
  Ni  Ni135  1  0.16666667  0.14583333  0.18750000  1.0
  Ni  Ni136  1  0.16666667  0.47916667  0.18750000  1.0
  Ni  Ni137  1  0.16666667  0.81250000  0.18750000  1.0
  Ni  Ni138  1  0.50000000  0.14583333  0.18750000  1.0
  Ni  Ni139  1  0.50000000  0.47916667  0.18750000  1.0
  Ni  Ni140  1  0.50000000  0.81250000  0.18750000  1.0
  Ni  Ni141  1  0.83333333  0.14583333  0.18750000  1.0
  Ni  Ni142  1  0.83333333  0.47916667  0.18750000  1.0
  Ni  Ni143  1  0.83333333  0.81250000  0.18750000  1.0
  Ni  Ni144  1  0.00000000  0.18750000  0.31250000  1.0
  Ni  Ni145  1  0.00000000  0.52083333  0.31250000  1.0
  Ni  Ni146  1  0.00000000  0.85416667  0.31250000  1.0
  Ni  Ni147  1  0.33333333  0.18750000  0.31250000  1.0
  Ni  Ni148  1  0.33333333  0.52083333  0.31250000  1.0
  Ni  Ni149  1  0.33333333  0.85416667  0.31250000  1.0
  Ni  Ni150  1  0.66666667  0.18750000  0.31250000  1.0
  Ni  Ni151  1  0.66666667  0.52083333  0.31250000  1.0
  Ni  Ni152  1  0.66666667  0.85416667  0.31250000  1.0
  Ni  Ni153  1  0.16666667  0.06250000  0.27083333  1.0
  Ni  Ni154  1  0.16666667  0.39583333  0.27083333  1.0
  Ni  Ni155  1  0.16666667  0.72916667  0.27083333  1.0
  Ni  Ni156  1  0.50000000  0.06250000  0.27083333  1.0
  Ni  Ni157  1  0.50000000  0.39583333  0.27083333  1.0
  Ni  Ni158  1  0.50000000  0.72916667  0.27083333  1.0
  Ni  Ni159  1  0.83333333  0.06250000  0.27083333  1.0
  Ni  Ni160  1  0.83333333  0.39583333  0.27083333  1.0
  Ni  Ni161  1  0.83333333  0.72916667  0.27083333  1.0
  Ni  Ni162  1  0.00000000  0.10416667  0.39583333  1.0
  Ni  Ni163  1  0.00000000  0.43750000  0.39583333  1.0
  Ni  Ni164  1  0.00000000  0.77083333  0.39583333  1.0
  Ni  Ni165  1  0.33333333  0.10416667  0.39583333  1.0
  Ni  Ni166  1  0.33333333  0.43750000  0.39583333  1.0
  Ni  Ni167  1  0.33333333  0.77083333  0.39583333  1.0
  Ni  Ni168  1  0.66666667  0.10416667  0.39583333  1.0
  Ni  Ni169  1  0.66666667  0.43750000  0.39583333  1.0
  Ni  Ni170  1  0.66666667  0.77083333  0.39583333  1.0
  Ni  Ni171  1  0.16666667  0.31250000  0.35416667  1.0
  Ni  Ni172  1  0.16666667  0.64583333  0.35416667  1.0
  Ni  Ni173  1  0.16666667  0.97916667  0.35416667  1.0
  Ni  Ni174  1  0.50000000  0.31250000  0.35416667  1.0
  Ni  Ni175  1  0.50000000  0.64583333  0.35416667  1.0
  Ni  Ni176  1  0.50000000  0.97916667  0.35416667  1.0
  Ni  Ni177  1  0.83333333  0.31250000  0.35416667  1.0
  Ni  Ni178  1  0.83333333  0.64583333  0.35416667  1.0
  Ni  Ni179  1  0.83333333  0.97916667  0.35416667  1.0
