# generated using pymatgen
data_MnNi
_symmetry_space_group_name_H-M   'P 1'
_cell_length_a   8.11118289
_cell_length_b   21.89815845
_cell_length_c   32.44473156
_cell_angle_alpha   111.74058419
_cell_angle_beta   99.13167725
_cell_angle_gamma   86.62994156
_symmetry_Int_Tables_number   1
_chemical_formula_structural   MnNi
_chemical_formula_sum   'Mn90 Ni90'
_cell_volume   5285.08263311
_cell_formula_units_Z   90
loop_
 _symmetry_equiv_pos_site_id
 _symmetry_equiv_pos_as_xyz
  1  'x, y, z'
loop_
 _atom_site_type_symbol
 _atom_site_label
 _atom_site_symmetry_multiplicity
 _atom_site_fract_x
 _atom_site_fract_y
 _atom_site_fract_z
 _atom_site_occupancy
  Mn  Mn0  1  0.00000000  0.00000000  0.07291667  1.0
  Mn  Mn1  1  0.00000000  0.33333333  0.07291667  1.0
  Mn  Mn2  1  0.00000000  0.66666667  0.07291667  1.0
  Mn  Mn3  1  0.33333333  0.00000000  0.07291667  1.0
  Mn  Mn4  1  0.33333333  0.33333333  0.07291667  1.0
  Mn  Mn5  1  0.33333333  0.66666667  0.07291667  1.0
  Mn  Mn6  1  0.66666667  0.00000000  0.07291667  1.0
  Mn  Mn7  1  0.66666667  0.33333333  0.07291667  1.0
  Mn  Mn8  1  0.66666667  0.66666667  0.07291667  1.0
  Mn  Mn9  1  0.00000000  0.16666667  0.03125000  1.0
  Mn  Mn10  1  0.00000000  0.50000000  0.03125000  1.0
  Mn  Mn11  1  0.00000000  0.83333333  0.03125000  1.0
  Mn  Mn12  1  0.33333333  0.16666667  0.03125000  1.0
  Mn  Mn13  1  0.33333333  0.50000000  0.03125000  1.0
  Mn  Mn14  1  0.33333333  0.83333333  0.03125000  1.0
  Mn  Mn15  1  0.66666667  0.16666667  0.03125000  1.0
  Mn  Mn16  1  0.66666667  0.50000000  0.03125000  1.0
  Mn  Mn17  1  0.66666667  0.83333333  0.03125000  1.0
  Ni  Ni18  1  0.16666667  0.08333333  0.05208333  1.0
  Ni  Ni19  1  0.16666667  0.41666667  0.05208333  1.0
  Ni  Ni20  1  0.16666667  0.75000000  0.05208333  1.0
  Ni  Ni21  1  0.50000000  0.08333333  0.05208333  1.0
  Ni  Ni22  1  0.50000000  0.41666667  0.05208333  1.0
  Ni  Ni23  1  0.50000000  0.75000000  0.05208333  1.0
  Ni  Ni24  1  0.83333333  0.08333333  0.05208333  1.0
  Ni  Ni25  1  0.83333333  0.41666667  0.05208333  1.0
  Ni  Ni26  1  0.83333333  0.75000000  0.05208333  1.0
  Ni  Ni27  1  0.16666667  0.25000000  0.01041667  1.0
  Ni  Ni28  1  0.16666667  0.58333333  0.01041667  1.0
  Ni  Ni29  1  0.16666667  0.91666667  0.01041667  1.0
  Ni  Ni30  1  0.50000000  0.25000000  0.01041667  1.0
  Ni  Ni31  1  0.50000000  0.58333333  0.01041667  1.0
  Ni  Ni32  1  0.50000000  0.91666667  0.01041667  1.0
  Ni  Ni33  1  0.83333333  0.25000000  0.01041667  1.0
  Ni  Ni34  1  0.83333333  0.58333333  0.01041667  1.0
  Ni  Ni35  1  0.83333333  0.91666667  0.01041667  1.0
  Mn  Mn36  1  0.00000000  0.00000000  0.15625000  1.0
  Mn  Mn37  1  0.00000000  0.33333333  0.15625000  1.0
  Mn  Mn38  1  0.00000000  0.66666667  0.15625000  1.0
  Mn  Mn39  1  0.33333333  0.00000000  0.15625000  1.0
  Mn  Mn40  1  0.33333333  0.33333333  0.15625000  1.0
  Mn  Mn41  1  0.33333333  0.66666667  0.15625000  1.0
  Mn  Mn42  1  0.66666667  0.00000000  0.15625000  1.0
  Mn  Mn43  1  0.66666667  0.33333333  0.15625000  1.0
  Mn  Mn44  1  0.66666667  0.66666667  0.15625000  1.0
  Mn  Mn45  1  0.00000000  0.16666667  0.11458333  1.0
  Mn  Mn46  1  0.00000000  0.50000000  0.11458333  1.0
  Mn  Mn47  1  0.00000000  0.83333333  0.11458333  1.0
  Mn  Mn48  1  0.33333333  0.16666667  0.11458333  1.0
  Mn  Mn49  1  0.33333333  0.50000000  0.11458333  1.0
  Mn  Mn50  1  0.33333333  0.83333333  0.11458333  1.0
  Mn  Mn51  1  0.66666667  0.16666667  0.11458333  1.0
  Mn  Mn52  1  0.66666667  0.50000000  0.11458333  1.0
  Mn  Mn53  1  0.66666667  0.83333333  0.11458333  1.0
  Ni  Ni54  1  0.16666667  0.08333333  0.13541667  1.0
  Ni  Ni55  1  0.16666667  0.41666667  0.13541667  1.0
  Ni  Ni56  1  0.16666667  0.75000000  0.13541667  1.0
  Ni  Ni57  1  0.50000000  0.08333333  0.13541667  1.0
  Ni  Ni58  1  0.50000000  0.41666667  0.13541667  1.0
  Ni  Ni59  1  0.50000000  0.75000000  0.13541667  1.0
  Ni  Ni60  1  0.83333333  0.08333333  0.13541667  1.0
  Ni  Ni61  1  0.83333333  0.41666667  0.13541667  1.0
  Ni  Ni62  1  0.83333333  0.75000000  0.13541667  1.0
  Ni  Ni63  1  0.16666667  0.25000000  0.09375000  1.0
  Ni  Ni64  1  0.16666667  0.58333333  0.09375000  1.0
  Ni  Ni65  1  0.16666667  0.91666667  0.09375000  1.0
  Ni  Ni66  1  0.50000000  0.25000000  0.09375000  1.0
  Ni  Ni67  1  0.50000000  0.58333333  0.09375000  1.0
  Ni  Ni68  1  0.50000000  0.91666667  0.09375000  1.0
  Ni  Ni69  1  0.83333333  0.25000000  0.09375000  1.0
  Ni  Ni70  1  0.83333333  0.58333333  0.09375000  1.0
  Ni  Ni71  1  0.83333333  0.91666667  0.09375000  1.0
  Mn  Mn72  1  0.00000000  0.00000000  0.23958333  1.0
  Mn  Mn73  1  0.00000000  0.33333333  0.23958333  1.0
  Mn  Mn74  1  0.00000000  0.66666667  0.23958333  1.0
  Mn  Mn75  1  0.33333333  0.00000000  0.23958333  1.0
  Mn  Mn76  1  0.33333333  0.33333333  0.23958333  1.0
  Mn  Mn77  1  0.33333333  0.66666667  0.23958333  1.0
  Mn  Mn78  1  0.66666667  0.00000000  0.23958333  1.0
  Mn  Mn79  1  0.66666667  0.33333333  0.23958333  1.0
  Mn  Mn80  1  0.66666667  0.66666667  0.23958333  1.0
  Mn  Mn81  1  0.00000000  0.16666667  0.19791667  1.0
  Mn  Mn82  1  0.00000000  0.50000000  0.19791667  1.0
  Mn  Mn83  1  0.00000000  0.83333333  0.19791667  1.0
  Mn  Mn84  1  0.33333333  0.16666667  0.19791667  1.0
  Mn  Mn85  1  0.33333333  0.50000000  0.19791667  1.0
  Mn  Mn86  1  0.33333333  0.83333333  0.19791667  1.0
  Mn  Mn87  1  0.66666667  0.16666667  0.19791667  1.0
  Mn  Mn88  1  0.66666667  0.50000000  0.19791667  1.0
  Mn  Mn89  1  0.66666667  0.83333333  0.19791667  1.0
  Ni  Ni90  1  0.16666667  0.08333333  0.21875000  1.0
  Ni  Ni91  1  0.16666667  0.41666667  0.21875000  1.0
  Ni  Ni92  1  0.16666667  0.75000000  0.21875000  1.0
  Ni  Ni93  1  0.50000000  0.08333333  0.21875000  1.0
  Ni  Ni94  1  0.50000000  0.41666667  0.21875000  1.0
  Ni  Ni95  1  0.50000000  0.75000000  0.21875000  1.0
  Ni  Ni96  1  0.83333333  0.08333333  0.21875000  1.0
  Ni  Ni97  1  0.83333333  0.41666667  0.21875000  1.0
  Ni  Ni98  1  0.83333333  0.75000000  0.21875000  1.0
  Ni  Ni99  1  0.16666667  0.25000000  0.17708333  1.0
  Ni  Ni100  1  0.16666667  0.58333333  0.17708333  1.0
  Ni  Ni101  1  0.16666667  0.91666667  0.17708333  1.0
  Ni  Ni102  1  0.50000000  0.25000000  0.17708333  1.0
  Ni  Ni103  1  0.50000000  0.58333333  0.17708333  1.0
  Ni  Ni104  1  0.50000000  0.91666667  0.17708333  1.0
  Ni  Ni105  1  0.83333333  0.25000000  0.17708333  1.0
  Ni  Ni106  1  0.83333333  0.58333333  0.17708333  1.0
  Ni  Ni107  1  0.83333333  0.91666667  0.17708333  1.0
  Mn  Mn108  1  0.00000000  0.00000000  0.32291667  1.0
  Mn  Mn109  1  0.00000000  0.33333333  0.32291667  1.0
  Mn  Mn110  1  0.00000000  0.66666667  0.32291667  1.0
  Mn  Mn111  1  0.33333333  0.00000000  0.32291667  1.0
  Mn  Mn112  1  0.33333333  0.33333333  0.32291667  1.0
  Mn  Mn113  1  0.33333333  0.66666667  0.32291667  1.0
  Mn  Mn114  1  0.66666667  0.00000000  0.32291667  1.0
  Mn  Mn115  1  0.66666667  0.33333333  0.32291667  1.0
  Mn  Mn116  1  0.66666667  0.66666667  0.32291667  1.0
  Mn  Mn117  1  0.00000000  0.16666667  0.28125000  1.0
  Mn  Mn118  1  0.00000000  0.50000000  0.28125000  1.0
  Mn  Mn119  1  0.00000000  0.83333333  0.28125000  1.0
  Mn  Mn120  1  0.33333333  0.16666667  0.28125000  1.0
  Mn  Mn121  1  0.33333333  0.50000000  0.28125000  1.0
  Mn  Mn122  1  0.33333333  0.83333333  0.28125000  1.0
  Mn  Mn123  1  0.66666667  0.16666667  0.28125000  1.0
  Mn  Mn124  1  0.66666667  0.50000000  0.28125000  1.0
  Mn  Mn125  1  0.66666667  0.83333333  0.28125000  1.0
  Ni  Ni126  1  0.16666667  0.08333333  0.30208333  1.0
  Ni  Ni127  1  0.16666667  0.41666667  0.30208333  1.0
  Ni  Ni128  1  0.16666667  0.75000000  0.30208333  1.0
  Ni  Ni129  1  0.50000000  0.08333333  0.30208333  1.0
  Ni  Ni130  1  0.50000000  0.41666667  0.30208333  1.0
  Ni  Ni131  1  0.50000000  0.75000000  0.30208333  1.0
  Ni  Ni132  1  0.83333333  0.08333333  0.30208333  1.0
  Ni  Ni133  1  0.83333333  0.41666667  0.30208333  1.0
  Ni  Ni134  1  0.83333333  0.75000000  0.30208333  1.0
  Ni  Ni135  1  0.16666667  0.25000000  0.26041667  1.0
  Ni  Ni136  1  0.16666667  0.58333333  0.26041667  1.0
  Ni  Ni137  1  0.16666667  0.91666667  0.26041667  1.0
  Ni  Ni138  1  0.50000000  0.25000000  0.26041667  1.0
  Ni  Ni139  1  0.50000000  0.58333333  0.26041667  1.0
  Ni  Ni140  1  0.50000000  0.91666667  0.26041667  1.0
  Ni  Ni141  1  0.83333333  0.25000000  0.26041667  1.0
  Ni  Ni142  1  0.83333333  0.58333333  0.26041667  1.0
  Ni  Ni143  1  0.83333333  0.91666667  0.26041667  1.0
  Mn  Mn144  1  0.00000000  0.00000000  0.40625000  1.0
  Mn  Mn145  1  0.00000000  0.33333333  0.40625000  1.0
  Mn  Mn146  1  0.00000000  0.66666667  0.40625000  1.0
  Mn  Mn147  1  0.33333333  0.00000000  0.40625000  1.0
  Mn  Mn148  1  0.33333333  0.33333333  0.40625000  1.0
  Mn  Mn149  1  0.33333333  0.66666667  0.40625000  1.0
  Mn  Mn150  1  0.66666667  0.00000000  0.40625000  1.0
  Mn  Mn151  1  0.66666667  0.33333333  0.40625000  1.0
  Mn  Mn152  1  0.66666667  0.66666667  0.40625000  1.0
  Mn  Mn153  1  0.00000000  0.16666667  0.36458333  1.0
  Mn  Mn154  1  0.00000000  0.50000000  0.36458333  1.0
  Mn  Mn155  1  0.00000000  0.83333333  0.36458333  1.0
  Mn  Mn156  1  0.33333333  0.16666667  0.36458333  1.0
  Mn  Mn157  1  0.33333333  0.50000000  0.36458333  1.0
  Mn  Mn158  1  0.33333333  0.83333333  0.36458333  1.0
  Mn  Mn159  1  0.66666667  0.16666667  0.36458333  1.0
  Mn  Mn160  1  0.66666667  0.50000000  0.36458333  1.0
  Mn  Mn161  1  0.66666667  0.83333333  0.36458333  1.0
  Ni  Ni162  1  0.16666667  0.08333333  0.38541667  1.0
  Ni  Ni163  1  0.16666667  0.41666667  0.38541667  1.0
  Ni  Ni164  1  0.16666667  0.75000000  0.38541667  1.0
  Ni  Ni165  1  0.50000000  0.08333333  0.38541667  1.0
  Ni  Ni166  1  0.50000000  0.41666667  0.38541667  1.0
  Ni  Ni167  1  0.50000000  0.75000000  0.38541667  1.0
  Ni  Ni168  1  0.83333333  0.08333333  0.38541667  1.0
  Ni  Ni169  1  0.83333333  0.41666667  0.38541667  1.0
  Ni  Ni170  1  0.83333333  0.75000000  0.38541667  1.0
  Ni  Ni171  1  0.16666667  0.25000000  0.34375000  1.0
  Ni  Ni172  1  0.16666667  0.58333333  0.34375000  1.0
  Ni  Ni173  1  0.16666667  0.91666667  0.34375000  1.0
  Ni  Ni174  1  0.50000000  0.25000000  0.34375000  1.0
  Ni  Ni175  1  0.50000000  0.58333333  0.34375000  1.0
  Ni  Ni176  1  0.50000000  0.91666667  0.34375000  1.0
  Ni  Ni177  1  0.83333333  0.25000000  0.34375000  1.0
  Ni  Ni178  1  0.83333333  0.58333333  0.34375000  1.0
  Ni  Ni179  1  0.83333333  0.91666667  0.34375000  1.0
