# generated using pymatgen
data_MnNi
_symmetry_space_group_name_H-M   'P 1'
_cell_length_a   15.01304335
_cell_length_b   16.75132604
_cell_length_c   27.47934664
_cell_angle_alpha   94.77526603
_cell_angle_beta   92.34711292
_cell_angle_gamma   103.74293305
_symmetry_Int_Tables_number   1
_chemical_formula_structural   MnNi
_chemical_formula_sum   'Mn126 Ni126'
_cell_volume   6676.41221602
_cell_formula_units_Z   126
loop_
 _symmetry_equiv_pos_site_id
 _symmetry_equiv_pos_as_xyz
  1  'x, y, z'
loop_
 _atom_site_type_symbol
 _atom_site_label
 _atom_site_symmetry_multiplicity
 _atom_site_fract_x
 _atom_site_fract_y
 _atom_site_fract_z
 _atom_site_occupancy
  Mn  Mn0  1  0.27450980  0.18627451  0.98529412  1.0
  Mn  Mn1  1  0.27450980  0.51960784  0.98529412  1.0
  Mn  Mn2  1  0.27450980  0.85294118  0.98529412  1.0
  Mn  Mn3  1  0.60784314  0.18627451  0.98529412  1.0
  Mn  Mn4  1  0.60784314  0.51960784  0.98529412  1.0
  Mn  Mn5  1  0.60784314  0.85294118  0.98529412  1.0
  Mn  Mn6  1  0.94117647  0.18627451  0.98529412  1.0
  Mn  Mn7  1  0.94117647  0.51960784  0.98529412  1.0
  Mn  Mn8  1  0.94117647  0.85294118  0.98529412  1.0
  Mn  Mn9  1  0.15686275  0.05882353  0.95588235  1.0
  Mn  Mn10  1  0.15686275  0.39215686  0.95588235  1.0
  Mn  Mn11  1  0.15686275  0.72549020  0.95588235  1.0
  Mn  Mn12  1  0.49019608  0.05882353  0.95588235  1.0
  Mn  Mn13  1  0.49019608  0.39215686  0.95588235  1.0
  Mn  Mn14  1  0.49019608  0.72549020  0.95588235  1.0
  Mn  Mn15  1  0.82352941  0.05882353  0.95588235  1.0
  Mn  Mn16  1  0.82352941  0.39215686  0.95588235  1.0
  Mn  Mn17  1  0.82352941  0.72549020  0.95588235  1.0
  Mn  Mn18  1  0.03921569  0.26470588  0.92647059  1.0
  Mn  Mn19  1  0.03921569  0.59803922  0.92647059  1.0
  Mn  Mn20  1  0.03921569  0.93137255  0.92647059  1.0
  Mn  Mn21  1  0.37254902  0.26470588  0.92647059  1.0
  Mn  Mn22  1  0.37254902  0.59803922  0.92647059  1.0
  Mn  Mn23  1  0.37254902  0.93137255  0.92647059  1.0
  Mn  Mn24  1  0.70588235  0.26470588  0.92647059  1.0
  Mn  Mn25  1  0.70588235  0.59803922  0.92647059  1.0
  Mn  Mn26  1  0.70588235  0.93137255  0.92647059  1.0
  Mn  Mn27  1  0.25490196  0.13725490  0.89705882  1.0
  Mn  Mn28  1  0.25490196  0.47058824  0.89705882  1.0
  Mn  Mn29  1  0.25490196  0.80392157  0.89705882  1.0
  Mn  Mn30  1  0.58823529  0.13725490  0.89705882  1.0
  Mn  Mn31  1  0.58823529  0.47058824  0.89705882  1.0
  Mn  Mn32  1  0.58823529  0.80392157  0.89705882  1.0
  Mn  Mn33  1  0.92156863  0.13725490  0.89705882  1.0
  Mn  Mn34  1  0.92156863  0.47058824  0.89705882  1.0
  Mn  Mn35  1  0.92156863  0.80392157  0.89705882  1.0
  Mn  Mn36  1  0.13725490  0.00980392  0.86764706  1.0
  Mn  Mn37  1  0.13725490  0.34313725  0.86764706  1.0
  Mn  Mn38  1  0.13725490  0.67647059  0.86764706  1.0
  Mn  Mn39  1  0.47058824  0.00980392  0.86764706  1.0
  Mn  Mn40  1  0.47058824  0.34313725  0.86764706  1.0
  Mn  Mn41  1  0.47058824  0.67647059  0.86764706  1.0
  Mn  Mn42  1  0.80392157  0.00980392  0.86764706  1.0
  Mn  Mn43  1  0.80392157  0.34313725  0.86764706  1.0
  Mn  Mn44  1  0.80392157  0.67647059  0.86764706  1.0
  Mn  Mn45  1  0.01960784  0.21568627  0.83823529  1.0
  Mn  Mn46  1  0.01960784  0.54901961  0.83823529  1.0
  Mn  Mn47  1  0.01960784  0.88235294  0.83823529  1.0
  Mn  Mn48  1  0.35294118  0.21568627  0.83823529  1.0
  Mn  Mn49  1  0.35294118  0.54901961  0.83823529  1.0
  Mn  Mn50  1  0.35294118  0.88235294  0.83823529  1.0
  Mn  Mn51  1  0.68627451  0.21568627  0.83823529  1.0
  Mn  Mn52  1  0.68627451  0.54901961  0.83823529  1.0
  Mn  Mn53  1  0.68627451  0.88235294  0.83823529  1.0
  Mn  Mn54  1  0.23529412  0.08823529  0.80882353  1.0
  Mn  Mn55  1  0.23529412  0.42156863  0.80882353  1.0
  Mn  Mn56  1  0.23529412  0.75490196  0.80882353  1.0
  Mn  Mn57  1  0.56862745  0.08823529  0.80882353  1.0
  Mn  Mn58  1  0.56862745  0.42156863  0.80882353  1.0
  Mn  Mn59  1  0.56862745  0.75490196  0.80882353  1.0
  Mn  Mn60  1  0.90196078  0.08823529  0.80882353  1.0
  Mn  Mn61  1  0.90196078  0.42156863  0.80882353  1.0
  Mn  Mn62  1  0.90196078  0.75490196  0.80882353  1.0
  Mn  Mn63  1  0.11764706  0.29411765  0.77941176  1.0
  Mn  Mn64  1  0.11764706  0.62745098  0.77941176  1.0
  Mn  Mn65  1  0.11764706  0.96078431  0.77941176  1.0
  Mn  Mn66  1  0.45098039  0.29411765  0.77941176  1.0
  Mn  Mn67  1  0.45098039  0.62745098  0.77941176  1.0
  Mn  Mn68  1  0.45098039  0.96078431  0.77941176  1.0
  Mn  Mn69  1  0.78431373  0.29411765  0.77941176  1.0
  Mn  Mn70  1  0.78431373  0.62745098  0.77941176  1.0
  Mn  Mn71  1  0.78431373  0.96078431  0.77941176  1.0
  Mn  Mn72  1  0.00000000  0.16666667  0.75000000  1.0
  Mn  Mn73  1  0.00000000  0.50000000  0.75000000  1.0
  Mn  Mn74  1  0.00000000  0.83333333  0.75000000  1.0
  Mn  Mn75  1  0.33333333  0.16666667  0.75000000  1.0
  Mn  Mn76  1  0.33333333  0.50000000  0.75000000  1.0
  Mn  Mn77  1  0.33333333  0.83333333  0.75000000  1.0
  Mn  Mn78  1  0.66666667  0.16666667  0.75000000  1.0
  Mn  Mn79  1  0.66666667  0.50000000  0.75000000  1.0
  Mn  Mn80  1  0.66666667  0.83333333  0.75000000  1.0
  Mn  Mn81  1  0.21568627  0.03921569  0.72058824  1.0
  Mn  Mn82  1  0.21568627  0.37254902  0.72058824  1.0
  Mn  Mn83  1  0.21568627  0.70588235  0.72058824  1.0
  Mn  Mn84  1  0.54901961  0.03921569  0.72058824  1.0
  Mn  Mn85  1  0.54901961  0.37254902  0.72058824  1.0
  Mn  Mn86  1  0.54901961  0.70588235  0.72058824  1.0
  Mn  Mn87  1  0.88235294  0.03921569  0.72058824  1.0
  Mn  Mn88  1  0.88235294  0.37254902  0.72058824  1.0
  Mn  Mn89  1  0.88235294  0.70588235  0.72058824  1.0
  Mn  Mn90  1  0.09803922  0.24509804  0.69117647  1.0
  Mn  Mn91  1  0.09803922  0.57843137  0.69117647  1.0
  Mn  Mn92  1  0.09803922  0.91176471  0.69117647  1.0
  Mn  Mn93  1  0.43137255  0.24509804  0.69117647  1.0
  Mn  Mn94  1  0.43137255  0.57843137  0.69117647  1.0
  Mn  Mn95  1  0.43137255  0.91176471  0.69117647  1.0
  Mn  Mn96  1  0.76470588  0.24509804  0.69117647  1.0
  Mn  Mn97  1  0.76470588  0.57843137  0.69117647  1.0
  Mn  Mn98  1  0.76470588  0.91176471  0.69117647  1.0
  Mn  Mn99  1  0.31372549  0.11764706  0.66176471  1.0
  Mn  Mn100  1  0.31372549  0.45098039  0.66176471  1.0
  Mn  Mn101  1  0.31372549  0.78431373  0.66176471  1.0
  Mn  Mn102  1  0.64705882  0.11764706  0.66176471  1.0
  Mn  Mn103  1  0.64705882  0.45098039  0.66176471  1.0
  Mn  Mn104  1  0.64705882  0.78431373  0.66176471  1.0
  Mn  Mn105  1  0.98039216  0.11764706  0.66176471  1.0
  Mn  Mn106  1  0.98039216  0.45098039  0.66176471  1.0
  Mn  Mn107  1  0.98039216  0.78431373  0.66176471  1.0
  Mn  Mn108  1  0.19607843  0.32352941  0.63235294  1.0
  Mn  Mn109  1  0.19607843  0.65686275  0.63235294  1.0
  Mn  Mn110  1  0.19607843  0.99019608  0.63235294  1.0
  Mn  Mn111  1  0.52941176  0.32352941  0.63235294  1.0
  Mn  Mn112  1  0.52941176  0.65686275  0.63235294  1.0
  Mn  Mn113  1  0.52941176  0.99019608  0.63235294  1.0
  Mn  Mn114  1  0.86274510  0.32352941  0.63235294  1.0
  Mn  Mn115  1  0.86274510  0.65686275  0.63235294  1.0
  Mn  Mn116  1  0.86274510  0.99019608  0.63235294  1.0
  Mn  Mn117  1  0.07843137  0.19607843  0.60294118  1.0
  Mn  Mn118  1  0.07843137  0.52941176  0.60294118  1.0
  Mn  Mn119  1  0.07843137  0.86274510  0.60294118  1.0
  Mn  Mn120  1  0.41176471  0.19607843  0.60294118  1.0
  Mn  Mn121  1  0.41176471  0.52941176  0.60294118  1.0
  Mn  Mn122  1  0.41176471  0.86274510  0.60294118  1.0
  Mn  Mn123  1  0.74509804  0.19607843  0.60294118  1.0
  Mn  Mn124  1  0.74509804  0.52941176  0.60294118  1.0
  Mn  Mn125  1  0.74509804  0.86274510  0.60294118  1.0
  Ni  Ni126  1  0.32352941  0.05882353  0.95588235  1.0
  Ni  Ni127  1  0.32352941  0.39215686  0.95588235  1.0
  Ni  Ni128  1  0.32352941  0.72549020  0.95588235  1.0
  Ni  Ni129  1  0.65686275  0.05882353  0.95588235  1.0
  Ni  Ni130  1  0.65686275  0.39215686  0.95588235  1.0
  Ni  Ni131  1  0.65686275  0.72549020  0.95588235  1.0
  Ni  Ni132  1  0.99019608  0.05882353  0.95588235  1.0
  Ni  Ni133  1  0.99019608  0.39215686  0.95588235  1.0
  Ni  Ni134  1  0.99019608  0.72549020  0.95588235  1.0
  Ni  Ni135  1  0.10784314  0.18627451  0.98529412  1.0
  Ni  Ni136  1  0.10784314  0.51960784  0.98529412  1.0
  Ni  Ni137  1  0.10784314  0.85294118  0.98529412  1.0
  Ni  Ni138  1  0.44117647  0.18627451  0.98529412  1.0
  Ni  Ni139  1  0.44117647  0.51960784  0.98529412  1.0
  Ni  Ni140  1  0.44117647  0.85294118  0.98529412  1.0
  Ni  Ni141  1  0.77450980  0.18627451  0.98529412  1.0
  Ni  Ni142  1  0.77450980  0.51960784  0.98529412  1.0
  Ni  Ni143  1  0.77450980  0.85294118  0.98529412  1.0
  Ni  Ni144  1  0.08823529  0.13725490  0.89705882  1.0
  Ni  Ni145  1  0.08823529  0.47058824  0.89705882  1.0
  Ni  Ni146  1  0.08823529  0.80392157  0.89705882  1.0
  Ni  Ni147  1  0.42156863  0.13725490  0.89705882  1.0
  Ni  Ni148  1  0.42156863  0.47058824  0.89705882  1.0
  Ni  Ni149  1  0.42156863  0.80392157  0.89705882  1.0
  Ni  Ni150  1  0.75490196  0.13725490  0.89705882  1.0
  Ni  Ni151  1  0.75490196  0.47058824  0.89705882  1.0
  Ni  Ni152  1  0.75490196  0.80392157  0.89705882  1.0
  Ni  Ni153  1  0.20588235  0.26470588  0.92647059  1.0
  Ni  Ni154  1  0.20588235  0.59803922  0.92647059  1.0
  Ni  Ni155  1  0.20588235  0.93137255  0.92647059  1.0
  Ni  Ni156  1  0.53921569  0.26470588  0.92647059  1.0
  Ni  Ni157  1  0.53921569  0.59803922  0.92647059  1.0
  Ni  Ni158  1  0.53921569  0.93137255  0.92647059  1.0
  Ni  Ni159  1  0.87254902  0.26470588  0.92647059  1.0
  Ni  Ni160  1  0.87254902  0.59803922  0.92647059  1.0
  Ni  Ni161  1  0.87254902  0.93137255  0.92647059  1.0
  Ni  Ni162  1  0.18627451  0.21568627  0.83823529  1.0
  Ni  Ni163  1  0.18627451  0.54901961  0.83823529  1.0
  Ni  Ni164  1  0.18627451  0.88235294  0.83823529  1.0
  Ni  Ni165  1  0.51960784  0.21568627  0.83823529  1.0
  Ni  Ni166  1  0.51960784  0.54901961  0.83823529  1.0
  Ni  Ni167  1  0.51960784  0.88235294  0.83823529  1.0
  Ni  Ni168  1  0.85294118  0.21568627  0.83823529  1.0
  Ni  Ni169  1  0.85294118  0.54901961  0.83823529  1.0
  Ni  Ni170  1  0.85294118  0.88235294  0.83823529  1.0
  Ni  Ni171  1  0.30392157  0.00980392  0.86764706  1.0
  Ni  Ni172  1  0.30392157  0.34313725  0.86764706  1.0
  Ni  Ni173  1  0.30392157  0.67647059  0.86764706  1.0
  Ni  Ni174  1  0.63725490  0.00980392  0.86764706  1.0
  Ni  Ni175  1  0.63725490  0.34313725  0.86764706  1.0
  Ni  Ni176  1  0.63725490  0.67647059  0.86764706  1.0
  Ni  Ni177  1  0.97058824  0.00980392  0.86764706  1.0
  Ni  Ni178  1  0.97058824  0.34313725  0.86764706  1.0
  Ni  Ni179  1  0.97058824  0.67647059  0.86764706  1.0
  Ni  Ni180  1  0.28431373  0.29411765  0.77941176  1.0
  Ni  Ni181  1  0.28431373  0.62745098  0.77941176  1.0
  Ni  Ni182  1  0.28431373  0.96078431  0.77941176  1.0
  Ni  Ni183  1  0.61764706  0.29411765  0.77941176  1.0
  Ni  Ni184  1  0.61764706  0.62745098  0.77941176  1.0
  Ni  Ni185  1  0.61764706  0.96078431  0.77941176  1.0
  Ni  Ni186  1  0.95098039  0.29411765  0.77941176  1.0
  Ni  Ni187  1  0.95098039  0.62745098  0.77941176  1.0
  Ni  Ni188  1  0.95098039  0.96078431  0.77941176  1.0
  Ni  Ni189  1  0.06862745  0.08823529  0.80882353  1.0
  Ni  Ni190  1  0.06862745  0.42156863  0.80882353  1.0
  Ni  Ni191  1  0.06862745  0.75490196  0.80882353  1.0
  Ni  Ni192  1  0.40196078  0.08823529  0.80882353  1.0
  Ni  Ni193  1  0.40196078  0.42156863  0.80882353  1.0
  Ni  Ni194  1  0.40196078  0.75490196  0.80882353  1.0
  Ni  Ni195  1  0.73529412  0.08823529  0.80882353  1.0
  Ni  Ni196  1  0.73529412  0.42156863  0.80882353  1.0
  Ni  Ni197  1  0.73529412  0.75490196  0.80882353  1.0
  Ni  Ni198  1  0.04901961  0.03921569  0.72058824  1.0
  Ni  Ni199  1  0.04901961  0.37254902  0.72058824  1.0
  Ni  Ni200  1  0.04901961  0.70588235  0.72058824  1.0
  Ni  Ni201  1  0.38235294  0.03921569  0.72058824  1.0
  Ni  Ni202  1  0.38235294  0.37254902  0.72058824  1.0
  Ni  Ni203  1  0.38235294  0.70588235  0.72058824  1.0
  Ni  Ni204  1  0.71568627  0.03921569  0.72058824  1.0
  Ni  Ni205  1  0.71568627  0.37254902  0.72058824  1.0
  Ni  Ni206  1  0.71568627  0.70588235  0.72058824  1.0
  Ni  Ni207  1  0.16666667  0.16666667  0.75000000  1.0
  Ni  Ni208  1  0.16666667  0.50000000  0.75000000  1.0
  Ni  Ni209  1  0.16666667  0.83333333  0.75000000  1.0
  Ni  Ni210  1  0.50000000  0.16666667  0.75000000  1.0
  Ni  Ni211  1  0.50000000  0.50000000  0.75000000  1.0
  Ni  Ni212  1  0.50000000  0.83333333  0.75000000  1.0
  Ni  Ni213  1  0.83333333  0.16666667  0.75000000  1.0
  Ni  Ni214  1  0.83333333  0.50000000  0.75000000  1.0
  Ni  Ni215  1  0.83333333  0.83333333  0.75000000  1.0
  Ni  Ni216  1  0.14705882  0.11764706  0.66176471  1.0
  Ni  Ni217  1  0.14705882  0.45098039  0.66176471  1.0
  Ni  Ni218  1  0.14705882  0.78431373  0.66176471  1.0
  Ni  Ni219  1  0.48039216  0.11764706  0.66176471  1.0
  Ni  Ni220  1  0.48039216  0.45098039  0.66176471  1.0
  Ni  Ni221  1  0.48039216  0.78431373  0.66176471  1.0
  Ni  Ni222  1  0.81372549  0.11764706  0.66176471  1.0
  Ni  Ni223  1  0.81372549  0.45098039  0.66176471  1.0
  Ni  Ni224  1  0.81372549  0.78431373  0.66176471  1.0
  Ni  Ni225  1  0.26470588  0.24509804  0.69117647  1.0
  Ni  Ni226  1  0.26470588  0.57843137  0.69117647  1.0
  Ni  Ni227  1  0.26470588  0.91176471  0.69117647  1.0
  Ni  Ni228  1  0.59803922  0.24509804  0.69117647  1.0
  Ni  Ni229  1  0.59803922  0.57843137  0.69117647  1.0
  Ni  Ni230  1  0.59803922  0.91176471  0.69117647  1.0
  Ni  Ni231  1  0.93137255  0.24509804  0.69117647  1.0
  Ni  Ni232  1  0.93137255  0.57843137  0.69117647  1.0
  Ni  Ni233  1  0.93137255  0.91176471  0.69117647  1.0
  Ni  Ni234  1  0.24509804  0.19607843  0.60294118  1.0
  Ni  Ni235  1  0.24509804  0.52941176  0.60294118  1.0
  Ni  Ni236  1  0.24509804  0.86274510  0.60294118  1.0
  Ni  Ni237  1  0.57843137  0.19607843  0.60294118  1.0
  Ni  Ni238  1  0.57843137  0.52941176  0.60294118  1.0
  Ni  Ni239  1  0.57843137  0.86274510  0.60294118  1.0
  Ni  Ni240  1  0.91176471  0.19607843  0.60294118  1.0
  Ni  Ni241  1  0.91176471  0.52941176  0.60294118  1.0
  Ni  Ni242  1  0.91176471  0.86274510  0.60294118  1.0
  Ni  Ni243  1  0.02941176  0.32352941  0.63235294  1.0
  Ni  Ni244  1  0.02941176  0.65686275  0.63235294  1.0
  Ni  Ni245  1  0.02941176  0.99019608  0.63235294  1.0
  Ni  Ni246  1  0.36274510  0.32352941  0.63235294  1.0
  Ni  Ni247  1  0.36274510  0.65686275  0.63235294  1.0
  Ni  Ni248  1  0.36274510  0.99019608  0.63235294  1.0
  Ni  Ni249  1  0.69607843  0.32352941  0.63235294  1.0
  Ni  Ni250  1  0.69607843  0.65686275  0.63235294  1.0
  Ni  Ni251  1  0.69607843  0.99019608  0.63235294  1.0
