# generated using pymatgen
data_MnNi
_symmetry_space_group_name_H-M   'P 1'
_cell_length_a   7.43071015
_cell_length_b   15.01304335
_cell_length_c   28.16627721
_cell_angle_alpha   90.81835789
_cell_angle_beta   90.00000000
_cell_angle_gamma   90.00000000
_symmetry_Int_Tables_number   1
_chemical_formula_structural   MnNi
_chemical_formula_sum   'Mn54 Ni54'
_cell_volume   3141.84104283
_cell_formula_units_Z   54
loop_
 _symmetry_equiv_pos_site_id
 _symmetry_equiv_pos_as_xyz
  1  'x, y, z'
loop_
 _atom_site_type_symbol
 _atom_site_label
 _atom_site_symmetry_multiplicity
 _atom_site_fract_x
 _atom_site_fract_y
 _atom_site_fract_z
 _atom_site_occupancy
  Mn  Mn0  1  0.00000000  0.12500000  0.90625000  1.0
  Mn  Mn1  1  0.00000000  0.45833333  0.90625000  1.0
  Mn  Mn2  1  0.00000000  0.79166667  0.90625000  1.0
  Mn  Mn3  1  0.33333333  0.12500000  0.90625000  1.0
  Mn  Mn4  1  0.33333333  0.45833333  0.90625000  1.0
  Mn  Mn5  1  0.33333333  0.79166667  0.90625000  1.0
  Mn  Mn6  1  0.66666667  0.12500000  0.90625000  1.0
  Mn  Mn7  1  0.66666667  0.45833333  0.90625000  1.0
  Mn  Mn8  1  0.66666667  0.79166667  0.90625000  1.0
  Mn  Mn9  1  0.16666667  0.20833333  0.96875000  1.0
  Mn  Mn10  1  0.16666667  0.54166667  0.96875000  1.0
  Mn  Mn11  1  0.16666667  0.87500000  0.96875000  1.0
  Mn  Mn12  1  0.50000000  0.20833333  0.96875000  1.0
  Mn  Mn13  1  0.50000000  0.54166667  0.96875000  1.0
  Mn  Mn14  1  0.50000000  0.87500000  0.96875000  1.0
  Mn  Mn15  1  0.83333333  0.20833333  0.96875000  1.0
  Mn  Mn16  1  0.83333333  0.54166667  0.96875000  1.0
  Mn  Mn17  1  0.83333333  0.87500000  0.96875000  1.0
  Mn  Mn18  1  0.00000000  0.29166667  0.78125000  1.0
  Mn  Mn19  1  0.00000000  0.62500000  0.78125000  1.0
  Mn  Mn20  1  0.00000000  0.95833333  0.78125000  1.0
  Mn  Mn21  1  0.33333333  0.29166667  0.78125000  1.0
  Mn  Mn22  1  0.33333333  0.62500000  0.78125000  1.0
  Mn  Mn23  1  0.33333333  0.95833333  0.78125000  1.0
  Mn  Mn24  1  0.66666667  0.29166667  0.78125000  1.0
  Mn  Mn25  1  0.66666667  0.62500000  0.78125000  1.0
  Mn  Mn26  1  0.66666667  0.95833333  0.78125000  1.0
  Mn  Mn27  1  0.16666667  0.04166667  0.84375000  1.0
  Mn  Mn28  1  0.16666667  0.37500000  0.84375000  1.0
  Mn  Mn29  1  0.16666667  0.70833333  0.84375000  1.0
  Mn  Mn30  1  0.50000000  0.04166667  0.84375000  1.0
  Mn  Mn31  1  0.50000000  0.37500000  0.84375000  1.0
  Mn  Mn32  1  0.50000000  0.70833333  0.84375000  1.0
  Mn  Mn33  1  0.83333333  0.04166667  0.84375000  1.0
  Mn  Mn34  1  0.83333333  0.37500000  0.84375000  1.0
  Mn  Mn35  1  0.83333333  0.70833333  0.84375000  1.0
  Mn  Mn36  1  0.00000000  0.12500000  0.65625000  1.0
  Mn  Mn37  1  0.00000000  0.45833333  0.65625000  1.0
  Mn  Mn38  1  0.00000000  0.79166667  0.65625000  1.0
  Mn  Mn39  1  0.33333333  0.12500000  0.65625000  1.0
  Mn  Mn40  1  0.33333333  0.45833333  0.65625000  1.0
  Mn  Mn41  1  0.33333333  0.79166667  0.65625000  1.0
  Mn  Mn42  1  0.66666667  0.12500000  0.65625000  1.0
  Mn  Mn43  1  0.66666667  0.45833333  0.65625000  1.0
  Mn  Mn44  1  0.66666667  0.79166667  0.65625000  1.0
  Mn  Mn45  1  0.16666667  0.20833333  0.71875000  1.0
  Mn  Mn46  1  0.16666667  0.54166667  0.71875000  1.0
  Mn  Mn47  1  0.16666667  0.87500000  0.71875000  1.0
  Mn  Mn48  1  0.50000000  0.20833333  0.71875000  1.0
  Mn  Mn49  1  0.50000000  0.54166667  0.71875000  1.0
  Mn  Mn50  1  0.50000000  0.87500000  0.71875000  1.0
  Mn  Mn51  1  0.83333333  0.20833333  0.71875000  1.0
  Mn  Mn52  1  0.83333333  0.54166667  0.71875000  1.0
  Mn  Mn53  1  0.83333333  0.87500000  0.71875000  1.0
  Ni  Ni54  1  0.00000000  0.29166667  0.90625000  1.0
  Ni  Ni55  1  0.00000000  0.62500000  0.90625000  1.0
  Ni  Ni56  1  0.00000000  0.95833333  0.90625000  1.0
  Ni  Ni57  1  0.33333333  0.29166667  0.90625000  1.0
  Ni  Ni58  1  0.33333333  0.62500000  0.90625000  1.0
  Ni  Ni59  1  0.33333333  0.95833333  0.90625000  1.0
  Ni  Ni60  1  0.66666667  0.29166667  0.90625000  1.0
  Ni  Ni61  1  0.66666667  0.62500000  0.90625000  1.0
  Ni  Ni62  1  0.66666667  0.95833333  0.90625000  1.0
  Ni  Ni63  1  0.16666667  0.04166667  0.96875000  1.0
  Ni  Ni64  1  0.16666667  0.37500000  0.96875000  1.0
  Ni  Ni65  1  0.16666667  0.70833333  0.96875000  1.0
  Ni  Ni66  1  0.50000000  0.04166667  0.96875000  1.0
  Ni  Ni67  1  0.50000000  0.37500000  0.96875000  1.0
  Ni  Ni68  1  0.50000000  0.70833333  0.96875000  1.0
  Ni  Ni69  1  0.83333333  0.04166667  0.96875000  1.0
  Ni  Ni70  1  0.83333333  0.37500000  0.96875000  1.0
  Ni  Ni71  1  0.83333333  0.70833333  0.96875000  1.0
  Ni  Ni72  1  0.00000000  0.12500000  0.78125000  1.0
  Ni  Ni73  1  0.00000000  0.45833333  0.78125000  1.0
  Ni  Ni74  1  0.00000000  0.79166667  0.78125000  1.0
  Ni  Ni75  1  0.33333333  0.12500000  0.78125000  1.0
  Ni  Ni76  1  0.33333333  0.45833333  0.78125000  1.0
  Ni  Ni77  1  0.33333333  0.79166667  0.78125000  1.0
  Ni  Ni78  1  0.66666667  0.12500000  0.78125000  1.0
  Ni  Ni79  1  0.66666667  0.45833333  0.78125000  1.0
  Ni  Ni80  1  0.66666667  0.79166667  0.78125000  1.0
  Ni  Ni81  1  0.16666667  0.20833333  0.84375000  1.0
  Ni  Ni82  1  0.16666667  0.54166667  0.84375000  1.0
  Ni  Ni83  1  0.16666667  0.87500000  0.84375000  1.0
  Ni  Ni84  1  0.50000000  0.20833333  0.84375000  1.0
  Ni  Ni85  1  0.50000000  0.54166667  0.84375000  1.0
  Ni  Ni86  1  0.50000000  0.87500000  0.84375000  1.0
  Ni  Ni87  1  0.83333333  0.20833333  0.84375000  1.0
  Ni  Ni88  1  0.83333333  0.54166667  0.84375000  1.0
  Ni  Ni89  1  0.83333333  0.87500000  0.84375000  1.0
  Ni  Ni90  1  0.00000000  0.29166667  0.65625000  1.0
  Ni  Ni91  1  0.00000000  0.62500000  0.65625000  1.0
  Ni  Ni92  1  0.00000000  0.95833333  0.65625000  1.0
  Ni  Ni93  1  0.33333333  0.29166667  0.65625000  1.0
  Ni  Ni94  1  0.33333333  0.62500000  0.65625000  1.0
  Ni  Ni95  1  0.33333333  0.95833333  0.65625000  1.0
  Ni  Ni96  1  0.66666667  0.29166667  0.65625000  1.0
  Ni  Ni97  1  0.66666667  0.62500000  0.65625000  1.0
  Ni  Ni98  1  0.66666667  0.95833333  0.65625000  1.0
  Ni  Ni99  1  0.16666667  0.04166667  0.71875000  1.0
  Ni  Ni100  1  0.16666667  0.37500000  0.71875000  1.0
  Ni  Ni101  1  0.16666667  0.70833333  0.71875000  1.0
  Ni  Ni102  1  0.50000000  0.04166667  0.71875000  1.0
  Ni  Ni103  1  0.50000000  0.37500000  0.71875000  1.0
  Ni  Ni104  1  0.50000000  0.70833333  0.71875000  1.0
  Ni  Ni105  1  0.83333333  0.04166667  0.71875000  1.0
  Ni  Ni106  1  0.83333333  0.37500000  0.71875000  1.0
  Ni  Ni107  1  0.83333333  0.70833333  0.71875000  1.0
