# generated using pymatgen
data_MnNi
_symmetry_space_group_name_H-M   'P 1'
_cell_length_a   8.84597100
_cell_length_b   12.29154032
_cell_length_c   36.98107400
_cell_angle_alpha   46.02803518
_cell_angle_beta   90.00000000
_cell_angle_gamma   90.00000000
_symmetry_Int_Tables_number   1
_chemical_formula_structural   MnNi
_chemical_formula_sum   'Mn45 Ni45'
_cell_volume   2893.81352625
_cell_formula_units_Z   45
loop_
 _symmetry_equiv_pos_site_id
 _symmetry_equiv_pos_as_xyz
  1  'x, y, z'
loop_
 _atom_site_type_symbol
 _atom_site_label
 _atom_site_symmetry_multiplicity
 _atom_site_fract_x
 _atom_site_fract_y
 _atom_site_fract_z
 _atom_site_occupancy
  Mn  Mn0  1  0.00000000  0.00000000  0.03846154  1.0
  Mn  Mn1  1  0.00000000  0.33333333  0.03846154  1.0
  Mn  Mn2  1  0.00000000  0.66666667  0.03846154  1.0
  Mn  Mn3  1  0.33333333  0.00000000  0.03846154  1.0
  Mn  Mn4  1  0.33333333  0.33333333  0.03846154  1.0
  Mn  Mn5  1  0.33333333  0.66666667  0.03846154  1.0
  Mn  Mn6  1  0.66666667  0.00000000  0.03846154  1.0
  Mn  Mn7  1  0.66666667  0.33333333  0.03846154  1.0
  Mn  Mn8  1  0.66666667  0.66666667  0.03846154  1.0
  Ni  Ni9  1  0.16666667  0.16666667  0.03846154  1.0
  Ni  Ni10  1  0.16666667  0.50000000  0.03846154  1.0
  Ni  Ni11  1  0.16666667  0.83333333  0.03846154  1.0
  Ni  Ni12  1  0.50000000  0.16666667  0.03846154  1.0
  Ni  Ni13  1  0.50000000  0.50000000  0.03846154  1.0
  Ni  Ni14  1  0.50000000  0.83333333  0.03846154  1.0
  Ni  Ni15  1  0.83333333  0.16666667  0.03846154  1.0
  Ni  Ni16  1  0.83333333  0.50000000  0.03846154  1.0
  Ni  Ni17  1  0.83333333  0.83333333  0.03846154  1.0
  Mn  Mn18  1  0.00000000  0.00000000  0.11538462  1.0
  Mn  Mn19  1  0.00000000  0.33333333  0.11538462  1.0
  Mn  Mn20  1  0.00000000  0.66666667  0.11538462  1.0
  Mn  Mn21  1  0.33333333  0.00000000  0.11538462  1.0
  Mn  Mn22  1  0.33333333  0.33333333  0.11538462  1.0
  Mn  Mn23  1  0.33333333  0.66666667  0.11538462  1.0
  Mn  Mn24  1  0.66666667  0.00000000  0.11538462  1.0
  Mn  Mn25  1  0.66666667  0.33333333  0.11538462  1.0
  Mn  Mn26  1  0.66666667  0.66666667  0.11538462  1.0
  Ni  Ni27  1  0.16666667  0.16666667  0.11538462  1.0
  Ni  Ni28  1  0.16666667  0.50000000  0.11538462  1.0
  Ni  Ni29  1  0.16666667  0.83333333  0.11538462  1.0
  Ni  Ni30  1  0.50000000  0.16666667  0.11538462  1.0
  Ni  Ni31  1  0.50000000  0.50000000  0.11538462  1.0
  Ni  Ni32  1  0.50000000  0.83333333  0.11538462  1.0
  Ni  Ni33  1  0.83333333  0.16666667  0.11538462  1.0
  Ni  Ni34  1  0.83333333  0.50000000  0.11538462  1.0
  Ni  Ni35  1  0.83333333  0.83333333  0.11538462  1.0
  Mn  Mn36  1  0.00000000  0.00000000  0.19230769  1.0
  Mn  Mn37  1  0.00000000  0.33333333  0.19230769  1.0
  Mn  Mn38  1  0.00000000  0.66666667  0.19230769  1.0
  Mn  Mn39  1  0.33333333  0.00000000  0.19230769  1.0
  Mn  Mn40  1  0.33333333  0.33333333  0.19230769  1.0
  Mn  Mn41  1  0.33333333  0.66666667  0.19230769  1.0
  Mn  Mn42  1  0.66666667  0.00000000  0.19230769  1.0
  Mn  Mn43  1  0.66666667  0.33333333  0.19230769  1.0
  Mn  Mn44  1  0.66666667  0.66666667  0.19230769  1.0
  Ni  Ni45  1  0.16666667  0.16666667  0.19230769  1.0
  Ni  Ni46  1  0.16666667  0.50000000  0.19230769  1.0
  Ni  Ni47  1  0.16666667  0.83333333  0.19230769  1.0
  Ni  Ni48  1  0.50000000  0.16666667  0.19230769  1.0
  Ni  Ni49  1  0.50000000  0.50000000  0.19230769  1.0
  Ni  Ni50  1  0.50000000  0.83333333  0.19230769  1.0
  Ni  Ni51  1  0.83333333  0.16666667  0.19230769  1.0
  Ni  Ni52  1  0.83333333  0.50000000  0.19230769  1.0
  Ni  Ni53  1  0.83333333  0.83333333  0.19230769  1.0
  Mn  Mn54  1  0.00000000  0.00000000  0.26923077  1.0
  Mn  Mn55  1  0.00000000  0.33333333  0.26923077  1.0
  Mn  Mn56  1  0.00000000  0.66666667  0.26923077  1.0
  Mn  Mn57  1  0.33333333  0.00000000  0.26923077  1.0
  Mn  Mn58  1  0.33333333  0.33333333  0.26923077  1.0
  Mn  Mn59  1  0.33333333  0.66666667  0.26923077  1.0
  Mn  Mn60  1  0.66666667  0.00000000  0.26923077  1.0
  Mn  Mn61  1  0.66666667  0.33333333  0.26923077  1.0
  Mn  Mn62  1  0.66666667  0.66666667  0.26923077  1.0
  Ni  Ni63  1  0.16666667  0.16666667  0.26923077  1.0
  Ni  Ni64  1  0.16666667  0.50000000  0.26923077  1.0
  Ni  Ni65  1  0.16666667  0.83333333  0.26923077  1.0
  Ni  Ni66  1  0.50000000  0.16666667  0.26923077  1.0
  Ni  Ni67  1  0.50000000  0.50000000  0.26923077  1.0
  Ni  Ni68  1  0.50000000  0.83333333  0.26923077  1.0
  Ni  Ni69  1  0.83333333  0.16666667  0.26923077  1.0
  Ni  Ni70  1  0.83333333  0.50000000  0.26923077  1.0
  Ni  Ni71  1  0.83333333  0.83333333  0.26923077  1.0
  Mn  Mn72  1  0.00000000  0.00000000  0.34615385  1.0
  Mn  Mn73  1  0.00000000  0.33333333  0.34615385  1.0
  Mn  Mn74  1  0.00000000  0.66666667  0.34615385  1.0
  Mn  Mn75  1  0.33333333  0.00000000  0.34615385  1.0
  Mn  Mn76  1  0.33333333  0.33333333  0.34615385  1.0
  Mn  Mn77  1  0.33333333  0.66666667  0.34615385  1.0
  Mn  Mn78  1  0.66666667  0.00000000  0.34615385  1.0
  Mn  Mn79  1  0.66666667  0.33333333  0.34615385  1.0
  Mn  Mn80  1  0.66666667  0.66666667  0.34615385  1.0
  Ni  Ni81  1  0.16666667  0.16666667  0.34615385  1.0
  Ni  Ni82  1  0.16666667  0.50000000  0.34615385  1.0
  Ni  Ni83  1  0.16666667  0.83333333  0.34615385  1.0
  Ni  Ni84  1  0.50000000  0.16666667  0.34615385  1.0
  Ni  Ni85  1  0.50000000  0.50000000  0.34615385  1.0
  Ni  Ni86  1  0.50000000  0.83333333  0.34615385  1.0
  Ni  Ni87  1  0.83333333  0.16666667  0.34615385  1.0
  Ni  Ni88  1  0.83333333  0.50000000  0.34615385  1.0
  Ni  Ni89  1  0.83333333  0.83333333  0.34615385  1.0
