# generated using pymatgen
data_MnNi
_symmetry_space_group_name_H-M   'P 1'
_cell_length_a   13.00868179
_cell_length_b   15.99686735
_cell_length_c   27.81899181
_cell_angle_alpha   89.76940693
_cell_angle_beta   86.02185088
_cell_angle_gamma   82.48899483
_symmetry_Int_Tables_number   1
_chemical_formula_structural   MnNi
_chemical_formula_sum   'Mn90 Ni90'
_cell_volume   5725.50618587
_cell_formula_units_Z   90
loop_
 _symmetry_equiv_pos_site_id
 _symmetry_equiv_pos_as_xyz
  1  'x, y, z'
loop_
 _atom_site_type_symbol
 _atom_site_label
 _atom_site_symmetry_multiplicity
 _atom_site_fract_x
 _atom_site_fract_y
 _atom_site_fract_z
 _atom_site_occupancy
  Mn  Mn0  1  0.31410256  0.07692308  0.94230769  1.0
  Mn  Mn1  1  0.31410256  0.41025641  0.94230769  1.0
  Mn  Mn2  1  0.31410256  0.74358974  0.94230769  1.0
  Mn  Mn3  1  0.64743590  0.07692308  0.94230769  1.0
  Mn  Mn4  1  0.64743590  0.41025641  0.94230769  1.0
  Mn  Mn5  1  0.64743590  0.74358974  0.94230769  1.0
  Mn  Mn6  1  0.98076923  0.07692308  0.94230769  1.0
  Mn  Mn7  1  0.98076923  0.41025641  0.94230769  1.0
  Mn  Mn8  1  0.98076923  0.74358974  0.94230769  1.0
  Mn  Mn9  1  0.16025641  0.19230769  0.98076923  1.0
  Mn  Mn10  1  0.16025641  0.52564103  0.98076923  1.0
  Mn  Mn11  1  0.16025641  0.85897436  0.98076923  1.0
  Mn  Mn12  1  0.49358974  0.19230769  0.98076923  1.0
  Mn  Mn13  1  0.49358974  0.52564103  0.98076923  1.0
  Mn  Mn14  1  0.49358974  0.85897436  0.98076923  1.0
  Mn  Mn15  1  0.82692308  0.19230769  0.98076923  1.0
  Mn  Mn16  1  0.82692308  0.52564103  0.98076923  1.0
  Mn  Mn17  1  0.82692308  0.85897436  0.98076923  1.0
  Mn  Mn18  1  0.28846154  0.17948718  0.86538462  1.0
  Mn  Mn19  1  0.28846154  0.51282051  0.86538462  1.0
  Mn  Mn20  1  0.28846154  0.84615385  0.86538462  1.0
  Mn  Mn21  1  0.62179487  0.17948718  0.86538462  1.0
  Mn  Mn22  1  0.62179487  0.51282051  0.86538462  1.0
  Mn  Mn23  1  0.62179487  0.84615385  0.86538462  1.0
  Mn  Mn24  1  0.95512821  0.17948718  0.86538462  1.0
  Mn  Mn25  1  0.95512821  0.51282051  0.86538462  1.0
  Mn  Mn26  1  0.95512821  0.84615385  0.86538462  1.0
  Mn  Mn27  1  0.13461538  0.29487179  0.90384615  1.0
  Mn  Mn28  1  0.13461538  0.62820513  0.90384615  1.0
  Mn  Mn29  1  0.13461538  0.96153846  0.90384615  1.0
  Mn  Mn30  1  0.46794872  0.29487179  0.90384615  1.0
  Mn  Mn31  1  0.46794872  0.62820513  0.90384615  1.0
  Mn  Mn32  1  0.46794872  0.96153846  0.90384615  1.0
  Mn  Mn33  1  0.80128205  0.29487179  0.90384615  1.0
  Mn  Mn34  1  0.80128205  0.62820513  0.90384615  1.0
  Mn  Mn35  1  0.80128205  0.96153846  0.90384615  1.0
  Mn  Mn36  1  0.26282051  0.28205128  0.78846154  1.0
  Mn  Mn37  1  0.26282051  0.61538462  0.78846154  1.0
  Mn  Mn38  1  0.26282051  0.94871795  0.78846154  1.0
  Mn  Mn39  1  0.59615385  0.28205128  0.78846154  1.0
  Mn  Mn40  1  0.59615385  0.61538462  0.78846154  1.0
  Mn  Mn41  1  0.59615385  0.94871795  0.78846154  1.0
  Mn  Mn42  1  0.92948718  0.28205128  0.78846154  1.0
  Mn  Mn43  1  0.92948718  0.61538462  0.78846154  1.0
  Mn  Mn44  1  0.92948718  0.94871795  0.78846154  1.0
  Mn  Mn45  1  0.10897436  0.06410256  0.82692308  1.0
  Mn  Mn46  1  0.10897436  0.39743590  0.82692308  1.0
  Mn  Mn47  1  0.10897436  0.73076923  0.82692308  1.0
  Mn  Mn48  1  0.44230769  0.06410256  0.82692308  1.0
  Mn  Mn49  1  0.44230769  0.39743590  0.82692308  1.0
  Mn  Mn50  1  0.44230769  0.73076923  0.82692308  1.0
  Mn  Mn51  1  0.77564103  0.06410256  0.82692308  1.0
  Mn  Mn52  1  0.77564103  0.39743590  0.82692308  1.0
  Mn  Mn53  1  0.77564103  0.73076923  0.82692308  1.0
  Mn  Mn54  1  0.23717949  0.05128205  0.71153846  1.0
  Mn  Mn55  1  0.23717949  0.38461538  0.71153846  1.0
  Mn  Mn56  1  0.23717949  0.71794872  0.71153846  1.0
  Mn  Mn57  1  0.57051282  0.05128205  0.71153846  1.0
  Mn  Mn58  1  0.57051282  0.38461538  0.71153846  1.0
  Mn  Mn59  1  0.57051282  0.71794872  0.71153846  1.0
  Mn  Mn60  1  0.90384615  0.05128205  0.71153846  1.0
  Mn  Mn61  1  0.90384615  0.38461538  0.71153846  1.0
  Mn  Mn62  1  0.90384615  0.71794872  0.71153846  1.0
  Mn  Mn63  1  0.08333333  0.16666667  0.75000000  1.0
  Mn  Mn64  1  0.08333333  0.50000000  0.75000000  1.0
  Mn  Mn65  1  0.08333333  0.83333333  0.75000000  1.0
  Mn  Mn66  1  0.41666667  0.16666667  0.75000000  1.0
  Mn  Mn67  1  0.41666667  0.50000000  0.75000000  1.0
  Mn  Mn68  1  0.41666667  0.83333333  0.75000000  1.0
  Mn  Mn69  1  0.75000000  0.16666667  0.75000000  1.0
  Mn  Mn70  1  0.75000000  0.50000000  0.75000000  1.0
  Mn  Mn71  1  0.75000000  0.83333333  0.75000000  1.0
  Mn  Mn72  1  0.21153846  0.15384615  0.63461538  1.0
  Mn  Mn73  1  0.21153846  0.48717949  0.63461538  1.0
  Mn  Mn74  1  0.21153846  0.82051282  0.63461538  1.0
  Mn  Mn75  1  0.54487179  0.15384615  0.63461538  1.0
  Mn  Mn76  1  0.54487179  0.48717949  0.63461538  1.0
  Mn  Mn77  1  0.54487179  0.82051282  0.63461538  1.0
  Mn  Mn78  1  0.87820513  0.15384615  0.63461538  1.0
  Mn  Mn79  1  0.87820513  0.48717949  0.63461538  1.0
  Mn  Mn80  1  0.87820513  0.82051282  0.63461538  1.0
  Mn  Mn81  1  0.05769231  0.26923077  0.67307692  1.0
  Mn  Mn82  1  0.05769231  0.60256410  0.67307692  1.0
  Mn  Mn83  1  0.05769231  0.93589744  0.67307692  1.0
  Mn  Mn84  1  0.39102564  0.26923077  0.67307692  1.0
  Mn  Mn85  1  0.39102564  0.60256410  0.67307692  1.0
  Mn  Mn86  1  0.39102564  0.93589744  0.67307692  1.0
  Mn  Mn87  1  0.72435897  0.26923077  0.67307692  1.0
  Mn  Mn88  1  0.72435897  0.60256410  0.67307692  1.0
  Mn  Mn89  1  0.72435897  0.93589744  0.67307692  1.0
  Ni  Ni90  1  0.31410256  0.24358974  0.94230769  1.0
  Ni  Ni91  1  0.31410256  0.57692308  0.94230769  1.0
  Ni  Ni92  1  0.31410256  0.91025641  0.94230769  1.0
  Ni  Ni93  1  0.64743590  0.24358974  0.94230769  1.0
  Ni  Ni94  1  0.64743590  0.57692308  0.94230769  1.0
  Ni  Ni95  1  0.64743590  0.91025641  0.94230769  1.0
  Ni  Ni96  1  0.98076923  0.24358974  0.94230769  1.0
  Ni  Ni97  1  0.98076923  0.57692308  0.94230769  1.0
  Ni  Ni98  1  0.98076923  0.91025641  0.94230769  1.0
  Ni  Ni99  1  0.16025641  0.02564103  0.98076923  1.0
  Ni  Ni100  1  0.16025641  0.35897436  0.98076923  1.0
  Ni  Ni101  1  0.16025641  0.69230769  0.98076923  1.0
  Ni  Ni102  1  0.49358974  0.02564103  0.98076923  1.0
  Ni  Ni103  1  0.49358974  0.35897436  0.98076923  1.0
  Ni  Ni104  1  0.49358974  0.69230769  0.98076923  1.0
  Ni  Ni105  1  0.82692308  0.02564103  0.98076923  1.0
  Ni  Ni106  1  0.82692308  0.35897436  0.98076923  1.0
  Ni  Ni107  1  0.82692308  0.69230769  0.98076923  1.0
  Ni  Ni108  1  0.28846154  0.01282051  0.86538462  1.0
  Ni  Ni109  1  0.28846154  0.34615385  0.86538462  1.0
  Ni  Ni110  1  0.28846154  0.67948718  0.86538462  1.0
  Ni  Ni111  1  0.62179487  0.01282051  0.86538462  1.0
  Ni  Ni112  1  0.62179487  0.34615385  0.86538462  1.0
  Ni  Ni113  1  0.62179487  0.67948718  0.86538462  1.0
  Ni  Ni114  1  0.95512821  0.01282051  0.86538462  1.0
  Ni  Ni115  1  0.95512821  0.34615385  0.86538462  1.0
  Ni  Ni116  1  0.95512821  0.67948718  0.86538462  1.0
  Ni  Ni117  1  0.13461538  0.12820513  0.90384615  1.0
  Ni  Ni118  1  0.13461538  0.46153846  0.90384615  1.0
  Ni  Ni119  1  0.13461538  0.79487179  0.90384615  1.0
  Ni  Ni120  1  0.46794872  0.12820513  0.90384615  1.0
  Ni  Ni121  1  0.46794872  0.46153846  0.90384615  1.0
  Ni  Ni122  1  0.46794872  0.79487179  0.90384615  1.0
  Ni  Ni123  1  0.80128205  0.12820513  0.90384615  1.0
  Ni  Ni124  1  0.80128205  0.46153846  0.90384615  1.0
  Ni  Ni125  1  0.80128205  0.79487179  0.90384615  1.0
  Ni  Ni126  1  0.26282051  0.11538462  0.78846154  1.0
  Ni  Ni127  1  0.26282051  0.44871795  0.78846154  1.0
  Ni  Ni128  1  0.26282051  0.78205128  0.78846154  1.0
  Ni  Ni129  1  0.59615385  0.11538462  0.78846154  1.0
  Ni  Ni130  1  0.59615385  0.44871795  0.78846154  1.0
  Ni  Ni131  1  0.59615385  0.78205128  0.78846154  1.0
  Ni  Ni132  1  0.92948718  0.11538462  0.78846154  1.0
  Ni  Ni133  1  0.92948718  0.44871795  0.78846154  1.0
  Ni  Ni134  1  0.92948718  0.78205128  0.78846154  1.0
  Ni  Ni135  1  0.10897436  0.23076923  0.82692308  1.0
  Ni  Ni136  1  0.10897436  0.56410256  0.82692308  1.0
  Ni  Ni137  1  0.10897436  0.89743590  0.82692308  1.0
  Ni  Ni138  1  0.44230769  0.23076923  0.82692308  1.0
  Ni  Ni139  1  0.44230769  0.56410256  0.82692308  1.0
  Ni  Ni140  1  0.44230769  0.89743590  0.82692308  1.0
  Ni  Ni141  1  0.77564103  0.23076923  0.82692308  1.0
  Ni  Ni142  1  0.77564103  0.56410256  0.82692308  1.0
  Ni  Ni143  1  0.77564103  0.89743590  0.82692308  1.0
  Ni  Ni144  1  0.23717949  0.21794872  0.71153846  1.0
  Ni  Ni145  1  0.23717949  0.55128205  0.71153846  1.0
  Ni  Ni146  1  0.23717949  0.88461538  0.71153846  1.0
  Ni  Ni147  1  0.57051282  0.21794872  0.71153846  1.0
  Ni  Ni148  1  0.57051282  0.55128205  0.71153846  1.0
  Ni  Ni149  1  0.57051282  0.88461538  0.71153846  1.0
  Ni  Ni150  1  0.90384615  0.21794872  0.71153846  1.0
  Ni  Ni151  1  0.90384615  0.55128205  0.71153846  1.0
  Ni  Ni152  1  0.90384615  0.88461538  0.71153846  1.0
  Ni  Ni153  1  0.08333333  0.00000000  0.75000000  1.0
  Ni  Ni154  1  0.08333333  0.33333333  0.75000000  1.0
  Ni  Ni155  1  0.08333333  0.66666667  0.75000000  1.0
  Ni  Ni156  1  0.41666667  0.00000000  0.75000000  1.0
  Ni  Ni157  1  0.41666667  0.33333333  0.75000000  1.0
  Ni  Ni158  1  0.41666667  0.66666667  0.75000000  1.0
  Ni  Ni159  1  0.75000000  0.00000000  0.75000000  1.0
  Ni  Ni160  1  0.75000000  0.33333333  0.75000000  1.0
  Ni  Ni161  1  0.75000000  0.66666667  0.75000000  1.0
  Ni  Ni162  1  0.21153846  0.32051282  0.63461538  1.0
  Ni  Ni163  1  0.21153846  0.65384615  0.63461538  1.0
  Ni  Ni164  1  0.21153846  0.98717949  0.63461538  1.0
  Ni  Ni165  1  0.54487179  0.32051282  0.63461538  1.0
  Ni  Ni166  1  0.54487179  0.65384615  0.63461538  1.0
  Ni  Ni167  1  0.54487179  0.98717949  0.63461538  1.0
  Ni  Ni168  1  0.87820513  0.32051282  0.63461538  1.0
  Ni  Ni169  1  0.87820513  0.65384615  0.63461538  1.0
  Ni  Ni170  1  0.87820513  0.98717949  0.63461538  1.0
  Ni  Ni171  1  0.05769231  0.10256410  0.67307692  1.0
  Ni  Ni172  1  0.05769231  0.43589744  0.67307692  1.0
  Ni  Ni173  1  0.05769231  0.76923077  0.67307692  1.0
  Ni  Ni174  1  0.39102564  0.10256410  0.67307692  1.0
  Ni  Ni175  1  0.39102564  0.43589744  0.67307692  1.0
  Ni  Ni176  1  0.39102564  0.76923077  0.67307692  1.0
  Ni  Ni177  1  0.72435897  0.10256410  0.67307692  1.0
  Ni  Ni178  1  0.72435897  0.43589744  0.67307692  1.0
  Ni  Ni179  1  0.72435897  0.76923077  0.67307692  1.0
