# generated using pymatgen
data_Nb3Ni
_symmetry_space_group_name_H-M   'P 1'
_cell_length_a   17.16456174
_cell_length_b   17.16456174
_cell_length_c   48.54871200
_cell_angle_alpha   90.00000000
_cell_angle_beta   45.00000000
_cell_angle_gamma   60.00000000
_symmetry_Int_Tables_number   1
_chemical_formula_structural   Nb3Ni
_chemical_formula_sum   'Nb135 Ni45'
_cell_volume   7151.76367329
_cell_formula_units_Z   45
loop_
 _symmetry_equiv_pos_site_id
 _symmetry_equiv_pos_as_xyz
  1  'x, y, z'
loop_
 _atom_site_type_symbol
 _atom_site_label
 _atom_site_symmetry_multiplicity
 _atom_site_fract_x
 _atom_site_fract_y
 _atom_site_fract_z
 _atom_site_occupancy
  Nb  Nb0  1  0.16666667  0.16666667  0.04166667  1.0
  Nb  Nb1  1  0.16666667  0.50000000  0.04166667  1.0
  Nb  Nb2  1  0.16666667  0.83333333  0.04166667  1.0
  Nb  Nb3  1  0.50000000  0.16666667  0.04166667  1.0
  Nb  Nb4  1  0.50000000  0.50000000  0.04166667  1.0
  Nb  Nb5  1  0.50000000  0.83333333  0.04166667  1.0
  Nb  Nb6  1  0.83333333  0.16666667  0.04166667  1.0
  Nb  Nb7  1  0.83333333  0.50000000  0.04166667  1.0
  Nb  Nb8  1  0.83333333  0.83333333  0.04166667  1.0
  Nb  Nb9  1  0.16666667  0.00000000  0.04166667  1.0
  Nb  Nb10  1  0.16666667  0.33333333  0.04166667  1.0
  Nb  Nb11  1  0.16666667  0.66666667  0.04166667  1.0
  Nb  Nb12  1  0.50000000  0.00000000  0.04166667  1.0
  Nb  Nb13  1  0.50000000  0.33333333  0.04166667  1.0
  Nb  Nb14  1  0.50000000  0.66666667  0.04166667  1.0
  Nb  Nb15  1  0.83333333  0.00000000  0.04166667  1.0
  Nb  Nb16  1  0.83333333  0.33333333  0.04166667  1.0
  Nb  Nb17  1  0.83333333  0.66666667  0.04166667  1.0
  Nb  Nb18  1  0.00000000  0.16666667  0.04166667  1.0
  Nb  Nb19  1  0.00000000  0.50000000  0.04166667  1.0
  Nb  Nb20  1  1.00000000  0.83333333  0.04166667  1.0
  Nb  Nb21  1  0.33333333  0.16666667  0.04166667  1.0
  Nb  Nb22  1  0.33333333  0.50000000  0.04166667  1.0
  Nb  Nb23  1  0.33333333  0.83333333  0.04166667  1.0
  Nb  Nb24  1  0.66666667  0.16666667  0.04166667  1.0
  Nb  Nb25  1  0.66666667  0.50000000  0.04166667  1.0
  Nb  Nb26  1  0.66666667  0.83333333  0.04166667  1.0
  Ni  Ni27  1  0.00000000  0.00000000  0.04166667  1.0
  Ni  Ni28  1  0.00000000  0.33333333  0.04166667  1.0
  Ni  Ni29  1  0.00000000  0.66666667  0.04166667  1.0
  Ni  Ni30  1  0.33333333  0.00000000  0.04166667  1.0
  Ni  Ni31  1  0.33333333  0.33333333  0.04166667  1.0
  Ni  Ni32  1  0.33333333  0.66666667  0.04166667  1.0
  Ni  Ni33  1  0.66666667  0.00000000  0.04166667  1.0
  Ni  Ni34  1  0.66666667  0.33333333  0.04166667  1.0
  Ni  Ni35  1  0.66666667  0.66666667  0.04166667  1.0
  Nb  Nb36  1  0.16666667  0.16666667  0.12500000  1.0
  Nb  Nb37  1  0.16666667  0.50000000  0.12500000  1.0
  Nb  Nb38  1  0.16666667  0.83333333  0.12500000  1.0
  Nb  Nb39  1  0.50000000  0.16666667  0.12500000  1.0
  Nb  Nb40  1  0.50000000  0.50000000  0.12500000  1.0
  Nb  Nb41  1  0.50000000  0.83333333  0.12500000  1.0
  Nb  Nb42  1  0.83333333  0.16666667  0.12500000  1.0
  Nb  Nb43  1  0.83333333  0.50000000  0.12500000  1.0
  Nb  Nb44  1  0.83333333  0.83333333  0.12500000  1.0
  Nb  Nb45  1  0.16666667  0.00000000  0.12500000  1.0
  Nb  Nb46  1  0.16666667  0.33333333  0.12500000  1.0
  Nb  Nb47  1  0.16666667  0.66666667  0.12500000  1.0
  Nb  Nb48  1  0.50000000  0.00000000  0.12500000  1.0
  Nb  Nb49  1  0.50000000  0.33333333  0.12500000  1.0
  Nb  Nb50  1  0.50000000  0.66666667  0.12500000  1.0
  Nb  Nb51  1  0.83333333  0.00000000  0.12500000  1.0
  Nb  Nb52  1  0.83333333  0.33333333  0.12500000  1.0
  Nb  Nb53  1  0.83333333  0.66666667  0.12500000  1.0
  Nb  Nb54  1  0.00000000  0.16666667  0.12500000  1.0
  Nb  Nb55  1  0.00000000  0.50000000  0.12500000  1.0
  Nb  Nb56  1  1.00000000  0.83333333  0.12500000  1.0
  Nb  Nb57  1  0.33333333  0.16666667  0.12500000  1.0
  Nb  Nb58  1  0.33333333  0.50000000  0.12500000  1.0
  Nb  Nb59  1  0.33333333  0.83333333  0.12500000  1.0
  Nb  Nb60  1  0.66666667  0.16666667  0.12500000  1.0
  Nb  Nb61  1  0.66666667  0.50000000  0.12500000  1.0
  Nb  Nb62  1  0.66666667  0.83333333  0.12500000  1.0
  Ni  Ni63  1  0.00000000  0.00000000  0.12500000  1.0
  Ni  Ni64  1  0.00000000  0.33333333  0.12500000  1.0
  Ni  Ni65  1  0.00000000  0.66666667  0.12500000  1.0
  Ni  Ni66  1  0.33333333  0.00000000  0.12500000  1.0
  Ni  Ni67  1  0.33333333  0.33333333  0.12500000  1.0
  Ni  Ni68  1  0.33333333  0.66666667  0.12500000  1.0
  Ni  Ni69  1  0.66666667  0.00000000  0.12500000  1.0
  Ni  Ni70  1  0.66666667  0.33333333  0.12500000  1.0
  Ni  Ni71  1  0.66666667  0.66666667  0.12500000  1.0
  Nb  Nb72  1  0.16666667  0.16666667  0.20833333  1.0
  Nb  Nb73  1  0.16666667  0.50000000  0.20833333  1.0
  Nb  Nb74  1  0.16666667  0.83333333  0.20833333  1.0
  Nb  Nb75  1  0.50000000  0.16666667  0.20833333  1.0
  Nb  Nb76  1  0.50000000  0.50000000  0.20833333  1.0
  Nb  Nb77  1  0.50000000  0.83333333  0.20833333  1.0
  Nb  Nb78  1  0.83333333  0.16666667  0.20833333  1.0
  Nb  Nb79  1  0.83333333  0.50000000  0.20833333  1.0
  Nb  Nb80  1  0.83333333  0.83333333  0.20833333  1.0
  Nb  Nb81  1  0.16666667  0.00000000  0.20833333  1.0
  Nb  Nb82  1  0.16666667  0.33333333  0.20833333  1.0
  Nb  Nb83  1  0.16666667  0.66666667  0.20833333  1.0
  Nb  Nb84  1  0.50000000  0.00000000  0.20833333  1.0
  Nb  Nb85  1  0.50000000  0.33333333  0.20833333  1.0
  Nb  Nb86  1  0.50000000  0.66666667  0.20833333  1.0
  Nb  Nb87  1  0.83333333  0.00000000  0.20833333  1.0
  Nb  Nb88  1  0.83333333  0.33333333  0.20833333  1.0
  Nb  Nb89  1  0.83333333  0.66666667  0.20833333  1.0
  Nb  Nb90  1  0.00000000  0.16666667  0.20833333  1.0
  Nb  Nb91  1  0.00000000  0.50000000  0.20833333  1.0
  Nb  Nb92  1  1.00000000  0.83333333  0.20833333  1.0
  Nb  Nb93  1  0.33333333  0.16666667  0.20833333  1.0
  Nb  Nb94  1  0.33333333  0.50000000  0.20833333  1.0
  Nb  Nb95  1  0.33333333  0.83333333  0.20833333  1.0
  Nb  Nb96  1  0.66666667  0.16666667  0.20833333  1.0
  Nb  Nb97  1  0.66666667  0.50000000  0.20833333  1.0
  Nb  Nb98  1  0.66666667  0.83333333  0.20833333  1.0
  Ni  Ni99  1  0.00000000  0.00000000  0.20833333  1.0
  Ni  Ni100  1  0.00000000  0.33333333  0.20833333  1.0
  Ni  Ni101  1  0.00000000  0.66666667  0.20833333  1.0
  Ni  Ni102  1  0.33333333  0.00000000  0.20833333  1.0
  Ni  Ni103  1  0.33333333  0.33333333  0.20833333  1.0
  Ni  Ni104  1  0.33333333  0.66666667  0.20833333  1.0
  Ni  Ni105  1  0.66666667  0.00000000  0.20833333  1.0
  Ni  Ni106  1  0.66666667  0.33333333  0.20833333  1.0
  Ni  Ni107  1  0.66666667  0.66666667  0.20833333  1.0
  Nb  Nb108  1  0.16666667  0.16666667  0.29166667  1.0
  Nb  Nb109  1  0.16666667  0.50000000  0.29166667  1.0
  Nb  Nb110  1  0.16666667  0.83333333  0.29166667  1.0
  Nb  Nb111  1  0.50000000  0.16666667  0.29166667  1.0
  Nb  Nb112  1  0.50000000  0.50000000  0.29166667  1.0
  Nb  Nb113  1  0.50000000  0.83333333  0.29166667  1.0
  Nb  Nb114  1  0.83333333  0.16666667  0.29166667  1.0
  Nb  Nb115  1  0.83333333  0.50000000  0.29166667  1.0
  Nb  Nb116  1  0.83333333  0.83333333  0.29166667  1.0
  Nb  Nb117  1  0.16666667  0.00000000  0.29166667  1.0
  Nb  Nb118  1  0.16666667  0.33333333  0.29166667  1.0
  Nb  Nb119  1  0.16666667  0.66666667  0.29166667  1.0
  Nb  Nb120  1  0.50000000  0.00000000  0.29166667  1.0
  Nb  Nb121  1  0.50000000  0.33333333  0.29166667  1.0
  Nb  Nb122  1  0.50000000  0.66666667  0.29166667  1.0
  Nb  Nb123  1  0.83333333  0.00000000  0.29166667  1.0
  Nb  Nb124  1  0.83333333  0.33333333  0.29166667  1.0
  Nb  Nb125  1  0.83333333  0.66666667  0.29166667  1.0
  Nb  Nb126  1  0.00000000  0.16666667  0.29166667  1.0
  Nb  Nb127  1  0.00000000  0.50000000  0.29166667  1.0
  Nb  Nb128  1  1.00000000  0.83333333  0.29166667  1.0
  Nb  Nb129  1  0.33333333  0.16666667  0.29166667  1.0
  Nb  Nb130  1  0.33333333  0.50000000  0.29166667  1.0
  Nb  Nb131  1  0.33333333  0.83333333  0.29166667  1.0
  Nb  Nb132  1  0.66666667  0.16666667  0.29166667  1.0
  Nb  Nb133  1  0.66666667  0.50000000  0.29166667  1.0
  Nb  Nb134  1  0.66666667  0.83333333  0.29166667  1.0
  Ni  Ni135  1  0.00000000  0.00000000  0.29166667  1.0
  Ni  Ni136  1  0.00000000  0.33333333  0.29166667  1.0
  Ni  Ni137  1  0.00000000  0.66666667  0.29166667  1.0
  Ni  Ni138  1  0.33333333  0.00000000  0.29166667  1.0
  Ni  Ni139  1  0.33333333  0.33333333  0.29166667  1.0
  Ni  Ni140  1  0.33333333  0.66666667  0.29166667  1.0
  Ni  Ni141  1  0.66666667  0.00000000  0.29166667  1.0
  Ni  Ni142  1  0.66666667  0.33333333  0.29166667  1.0
  Ni  Ni143  1  0.66666667  0.66666667  0.29166667  1.0
  Nb  Nb144  1  0.16666667  0.16666667  0.37500000  1.0
  Nb  Nb145  1  0.16666667  0.50000000  0.37500000  1.0
  Nb  Nb146  1  0.16666667  0.83333333  0.37500000  1.0
  Nb  Nb147  1  0.50000000  0.16666667  0.37500000  1.0
  Nb  Nb148  1  0.50000000  0.50000000  0.37500000  1.0
  Nb  Nb149  1  0.50000000  0.83333333  0.37500000  1.0
  Nb  Nb150  1  0.83333333  0.16666667  0.37500000  1.0
  Nb  Nb151  1  0.83333333  0.50000000  0.37500000  1.0
  Nb  Nb152  1  0.83333333  0.83333333  0.37500000  1.0
  Nb  Nb153  1  0.16666667  0.00000000  0.37500000  1.0
  Nb  Nb154  1  0.16666667  0.33333333  0.37500000  1.0
  Nb  Nb155  1  0.16666667  0.66666667  0.37500000  1.0
  Nb  Nb156  1  0.50000000  0.00000000  0.37500000  1.0
  Nb  Nb157  1  0.50000000  0.33333333  0.37500000  1.0
  Nb  Nb158  1  0.50000000  0.66666667  0.37500000  1.0
  Nb  Nb159  1  0.83333333  0.00000000  0.37500000  1.0
  Nb  Nb160  1  0.83333333  0.33333333  0.37500000  1.0
  Nb  Nb161  1  0.83333333  0.66666667  0.37500000  1.0
  Nb  Nb162  1  0.00000000  0.16666667  0.37500000  1.0
  Nb  Nb163  1  0.00000000  0.50000000  0.37500000  1.0
  Nb  Nb164  1  1.00000000  0.83333333  0.37500000  1.0
  Nb  Nb165  1  0.33333333  0.16666667  0.37500000  1.0
  Nb  Nb166  1  0.33333333  0.50000000  0.37500000  1.0
  Nb  Nb167  1  0.33333333  0.83333333  0.37500000  1.0
  Nb  Nb168  1  0.66666667  0.16666667  0.37500000  1.0
  Nb  Nb169  1  0.66666667  0.50000000  0.37500000  1.0
  Nb  Nb170  1  0.66666667  0.83333333  0.37500000  1.0
  Ni  Ni171  1  0.00000000  0.00000000  0.37500000  1.0
  Ni  Ni172  1  0.00000000  0.33333333  0.37500000  1.0
  Ni  Ni173  1  0.00000000  0.66666667  0.37500000  1.0
  Ni  Ni174  1  0.33333333  0.00000000  0.37500000  1.0
  Ni  Ni175  1  0.33333333  0.33333333  0.37500000  1.0
  Ni  Ni176  1  0.33333333  0.66666667  0.37500000  1.0
  Ni  Ni177  1  0.66666667  0.00000000  0.37500000  1.0
  Ni  Ni178  1  0.66666667  0.33333333  0.37500000  1.0
  Ni  Ni179  1  0.66666667  0.66666667  0.37500000  1.0
