# generated using pymatgen
data_Nb3Ni
_symmetry_space_group_name_H-M   'P 1'
_cell_length_a   23.55472448
_cell_length_b   23.55472448
_cell_length_c   54.39730608
_cell_angle_alpha   30.00000000
_cell_angle_beta   90.00000000
_cell_angle_gamma   99.59406823
_symmetry_Int_Tables_number   1
_chemical_formula_structural   Nb3Ni
_chemical_formula_sum   'Nb270 Ni90'
_cell_volume   14227.45409797
_cell_formula_units_Z   90
loop_
 _symmetry_equiv_pos_site_id
 _symmetry_equiv_pos_as_xyz
  1  'x, y, z'
loop_
 _atom_site_type_symbol
 _atom_site_label
 _atom_site_symmetry_multiplicity
 _atom_site_fract_x
 _atom_site_fract_y
 _atom_site_fract_z
 _atom_site_occupancy
  Nb  Nb0  1  0.25000000  0.16666667  0.01562500  1.0
  Nb  Nb1  1  0.25000000  0.50000000  0.01562500  1.0
  Nb  Nb2  1  0.25000000  0.83333333  0.01562500  1.0
  Nb  Nb3  1  0.58333333  0.16666667  0.01562500  1.0
  Nb  Nb4  1  0.58333333  0.50000000  0.01562500  1.0
  Nb  Nb5  1  0.58333333  0.83333333  0.01562500  1.0
  Nb  Nb6  1  0.91666667  0.16666667  0.01562500  1.0
  Nb  Nb7  1  0.91666667  0.50000000  0.01562500  1.0
  Nb  Nb8  1  0.91666667  0.83333333  0.01562500  1.0
  Nb  Nb9  1  0.08333333  0.16666667  0.05729167  1.0
  Nb  Nb10  1  0.08333333  0.50000000  0.05729167  1.0
  Nb  Nb11  1  0.08333333  0.83333333  0.05729167  1.0
  Nb  Nb12  1  0.41666667  0.16666667  0.05729167  1.0
  Nb  Nb13  1  0.41666667  0.50000000  0.05729167  1.0
  Nb  Nb14  1  0.41666667  0.83333333  0.05729167  1.0
  Nb  Nb15  1  0.75000000  0.16666667  0.05729167  1.0
  Nb  Nb16  1  0.75000000  0.50000000  0.05729167  1.0
  Nb  Nb17  1  0.75000000  0.83333333  0.05729167  1.0
  Nb  Nb18  1  0.29166667  0.08333333  0.00520833  1.0
  Nb  Nb19  1  0.29166667  0.41666667  0.00520833  1.0
  Nb  Nb20  1  0.29166667  0.75000000  0.00520833  1.0
  Nb  Nb21  1  0.62500000  0.08333333  0.00520833  1.0
  Nb  Nb22  1  0.62500000  0.41666667  0.00520833  1.0
  Nb  Nb23  1  0.62500000  0.75000000  0.00520833  1.0
  Nb  Nb24  1  0.95833333  0.08333333  0.00520833  1.0
  Nb  Nb25  1  0.95833333  0.41666667  0.00520833  1.0
  Nb  Nb26  1  0.95833333  0.75000000  0.00520833  1.0
  Nb  Nb27  1  0.12500000  0.08333333  0.04687500  1.0
  Nb  Nb28  1  0.12500000  0.41666667  0.04687500  1.0
  Nb  Nb29  1  0.12500000  0.75000000  0.04687500  1.0
  Nb  Nb30  1  0.45833333  0.08333333  0.04687500  1.0
  Nb  Nb31  1  0.45833333  0.41666667  0.04687500  1.0
  Nb  Nb32  1  0.45833333  0.75000000  0.04687500  1.0
  Nb  Nb33  1  0.79166667  0.08333333  0.04687500  1.0
  Nb  Nb34  1  0.79166667  0.41666667  0.04687500  1.0
  Nb  Nb35  1  0.79166667  0.75000000  0.04687500  1.0
  Nb  Nb36  1  0.20833333  0.25000000  0.02604167  1.0
  Nb  Nb37  1  0.20833333  0.58333333  0.02604167  1.0
  Nb  Nb38  1  0.20833333  0.91666667  0.02604167  1.0
  Nb  Nb39  1  0.54166667  0.25000000  0.02604167  1.0
  Nb  Nb40  1  0.54166667  0.58333333  0.02604167  1.0
  Nb  Nb41  1  0.54166667  0.91666667  0.02604167  1.0
  Nb  Nb42  1  0.87500000  0.25000000  0.02604167  1.0
  Nb  Nb43  1  0.87500000  0.58333333  0.02604167  1.0
  Nb  Nb44  1  0.87500000  0.91666667  0.02604167  1.0
  Nb  Nb45  1  0.04166667  0.25000000  0.06770833  1.0
  Nb  Nb46  1  0.04166667  0.58333333  0.06770833  1.0
  Nb  Nb47  1  0.04166667  0.91666667  0.06770833  1.0
  Nb  Nb48  1  0.37500000  0.25000000  0.06770833  1.0
  Nb  Nb49  1  0.37500000  0.58333333  0.06770833  1.0
  Nb  Nb50  1  0.37500000  0.91666667  0.06770833  1.0
  Nb  Nb51  1  0.70833333  0.25000000  0.06770833  1.0
  Nb  Nb52  1  0.70833333  0.58333333  0.06770833  1.0
  Nb  Nb53  1  0.70833333  0.91666667  0.06770833  1.0
  Ni  Ni54  1  0.16666667  0.33333333  0.03645833  1.0
  Ni  Ni55  1  0.16666667  0.66666667  0.03645833  1.0
  Ni  Ni56  1  0.16666667  0.00000000  0.03645833  1.0
  Ni  Ni57  1  0.50000000  0.33333333  0.03645833  1.0
  Ni  Ni58  1  0.50000000  0.66666667  0.03645833  1.0
  Ni  Ni59  1  0.50000000  0.00000000  0.03645833  1.0
  Ni  Ni60  1  0.83333333  0.33333333  0.03645833  1.0
  Ni  Ni61  1  0.83333333  0.66666667  0.03645833  1.0
  Ni  Ni62  1  0.83333333  0.00000000  0.03645833  1.0
  Ni  Ni63  1  0.00000000  0.00000000  0.07812500  1.0
  Ni  Ni64  1  0.00000000  0.33333333  0.07812500  1.0
  Ni  Ni65  1  0.00000000  0.66666667  0.07812500  1.0
  Ni  Ni66  1  0.33333333  0.00000000  0.07812500  1.0
  Ni  Ni67  1  0.33333333  0.33333333  0.07812500  1.0
  Ni  Ni68  1  0.33333333  0.66666667  0.07812500  1.0
  Ni  Ni69  1  0.66666667  0.00000000  0.07812500  1.0
  Ni  Ni70  1  0.66666667  0.33333333  0.07812500  1.0
  Ni  Ni71  1  0.66666667  0.66666667  0.07812500  1.0
  Nb  Nb72  1  0.25000000  0.16666667  0.09895833  1.0
  Nb  Nb73  1  0.25000000  0.50000000  0.09895833  1.0
  Nb  Nb74  1  0.25000000  0.83333333  0.09895833  1.0
  Nb  Nb75  1  0.58333333  0.16666667  0.09895833  1.0
  Nb  Nb76  1  0.58333333  0.50000000  0.09895833  1.0
  Nb  Nb77  1  0.58333333  0.83333333  0.09895833  1.0
  Nb  Nb78  1  0.91666667  0.16666667  0.09895833  1.0
  Nb  Nb79  1  0.91666667  0.50000000  0.09895833  1.0
  Nb  Nb80  1  0.91666667  0.83333333  0.09895833  1.0
  Nb  Nb81  1  0.08333333  0.16666667  0.14062500  1.0
  Nb  Nb82  1  0.08333333  0.50000000  0.14062500  1.0
  Nb  Nb83  1  0.08333333  0.83333333  0.14062500  1.0
  Nb  Nb84  1  0.41666667  0.16666667  0.14062500  1.0
  Nb  Nb85  1  0.41666667  0.50000000  0.14062500  1.0
  Nb  Nb86  1  0.41666667  0.83333333  0.14062500  1.0
  Nb  Nb87  1  0.75000000  0.16666667  0.14062500  1.0
  Nb  Nb88  1  0.75000000  0.50000000  0.14062500  1.0
  Nb  Nb89  1  0.75000000  0.83333333  0.14062500  1.0
  Nb  Nb90  1  0.29166667  0.08333333  0.08854167  1.0
  Nb  Nb91  1  0.29166667  0.41666667  0.08854167  1.0
  Nb  Nb92  1  0.29166667  0.75000000  0.08854167  1.0
  Nb  Nb93  1  0.62500000  0.08333333  0.08854167  1.0
  Nb  Nb94  1  0.62500000  0.41666667  0.08854167  1.0
  Nb  Nb95  1  0.62500000  0.75000000  0.08854167  1.0
  Nb  Nb96  1  0.95833333  0.08333333  0.08854167  1.0
  Nb  Nb97  1  0.95833333  0.41666667  0.08854167  1.0
  Nb  Nb98  1  0.95833333  0.75000000  0.08854167  1.0
  Nb  Nb99  1  0.12500000  0.08333333  0.13020833  1.0
  Nb  Nb100  1  0.12500000  0.41666667  0.13020833  1.0
  Nb  Nb101  1  0.12500000  0.75000000  0.13020833  1.0
  Nb  Nb102  1  0.45833333  0.08333333  0.13020833  1.0
  Nb  Nb103  1  0.45833333  0.41666667  0.13020833  1.0
  Nb  Nb104  1  0.45833333  0.75000000  0.13020833  1.0
  Nb  Nb105  1  0.79166667  0.08333333  0.13020833  1.0
  Nb  Nb106  1  0.79166667  0.41666667  0.13020833  1.0
  Nb  Nb107  1  0.79166667  0.75000000  0.13020833  1.0
  Nb  Nb108  1  0.20833333  0.25000000  0.10937500  1.0
  Nb  Nb109  1  0.20833333  0.58333333  0.10937500  1.0
  Nb  Nb110  1  0.20833333  0.91666667  0.10937500  1.0
  Nb  Nb111  1  0.54166667  0.25000000  0.10937500  1.0
  Nb  Nb112  1  0.54166667  0.58333333  0.10937500  1.0
  Nb  Nb113  1  0.54166667  0.91666667  0.10937500  1.0
  Nb  Nb114  1  0.87500000  0.25000000  0.10937500  1.0
  Nb  Nb115  1  0.87500000  0.58333333  0.10937500  1.0
  Nb  Nb116  1  0.87500000  0.91666667  0.10937500  1.0
  Nb  Nb117  1  0.04166667  0.25000000  0.15104167  1.0
  Nb  Nb118  1  0.04166667  0.58333333  0.15104167  1.0
  Nb  Nb119  1  0.04166667  0.91666667  0.15104167  1.0
  Nb  Nb120  1  0.37500000  0.25000000  0.15104167  1.0
  Nb  Nb121  1  0.37500000  0.58333333  0.15104167  1.0
  Nb  Nb122  1  0.37500000  0.91666667  0.15104167  1.0
  Nb  Nb123  1  0.70833333  0.25000000  0.15104167  1.0
  Nb  Nb124  1  0.70833333  0.58333333  0.15104167  1.0
  Nb  Nb125  1  0.70833333  0.91666667  0.15104167  1.0
  Ni  Ni126  1  0.16666667  0.33333333  0.11979167  1.0
  Ni  Ni127  1  0.16666667  0.66666667  0.11979167  1.0
  Ni  Ni128  1  0.16666667  0.00000000  0.11979167  1.0
  Ni  Ni129  1  0.50000000  0.33333333  0.11979167  1.0
  Ni  Ni130  1  0.50000000  0.66666667  0.11979167  1.0
  Ni  Ni131  1  0.50000000  0.00000000  0.11979167  1.0
  Ni  Ni132  1  0.83333333  0.33333333  0.11979167  1.0
  Ni  Ni133  1  0.83333333  0.66666667  0.11979167  1.0
  Ni  Ni134  1  0.83333333  0.00000000  0.11979167  1.0
  Ni  Ni135  1  0.00000000  0.00000000  0.16145833  1.0
  Ni  Ni136  1  0.00000000  0.33333333  0.16145833  1.0
  Ni  Ni137  1  0.00000000  0.66666667  0.16145833  1.0
  Ni  Ni138  1  0.33333333  0.00000000  0.16145833  1.0
  Ni  Ni139  1  0.33333333  0.33333333  0.16145833  1.0
  Ni  Ni140  1  0.33333333  0.66666667  0.16145833  1.0
  Ni  Ni141  1  0.66666667  0.00000000  0.16145833  1.0
  Ni  Ni142  1  0.66666667  0.33333333  0.16145833  1.0
  Ni  Ni143  1  0.66666667  0.66666667  0.16145833  1.0
  Nb  Nb144  1  0.25000000  0.16666667  0.18229167  1.0
  Nb  Nb145  1  0.25000000  0.50000000  0.18229167  1.0
  Nb  Nb146  1  0.25000000  0.83333333  0.18229167  1.0
  Nb  Nb147  1  0.58333333  0.16666667  0.18229167  1.0
  Nb  Nb148  1  0.58333333  0.50000000  0.18229167  1.0
  Nb  Nb149  1  0.58333333  0.83333333  0.18229167  1.0
  Nb  Nb150  1  0.91666667  0.16666667  0.18229167  1.0
  Nb  Nb151  1  0.91666667  0.50000000  0.18229167  1.0
  Nb  Nb152  1  0.91666667  0.83333333  0.18229167  1.0
  Nb  Nb153  1  0.08333333  0.16666667  0.22395833  1.0
  Nb  Nb154  1  0.08333333  0.50000000  0.22395833  1.0
  Nb  Nb155  1  0.08333333  0.83333333  0.22395833  1.0
  Nb  Nb156  1  0.41666667  0.16666667  0.22395833  1.0
  Nb  Nb157  1  0.41666667  0.50000000  0.22395833  1.0
  Nb  Nb158  1  0.41666667  0.83333333  0.22395833  1.0
  Nb  Nb159  1  0.75000000  0.16666667  0.22395833  1.0
  Nb  Nb160  1  0.75000000  0.50000000  0.22395833  1.0
  Nb  Nb161  1  0.75000000  0.83333333  0.22395833  1.0
  Nb  Nb162  1  0.29166667  0.08333333  0.17187500  1.0
  Nb  Nb163  1  0.29166667  0.41666667  0.17187500  1.0
  Nb  Nb164  1  0.29166667  0.75000000  0.17187500  1.0
  Nb  Nb165  1  0.62500000  0.08333333  0.17187500  1.0
  Nb  Nb166  1  0.62500000  0.41666667  0.17187500  1.0
  Nb  Nb167  1  0.62500000  0.75000000  0.17187500  1.0
  Nb  Nb168  1  0.95833333  0.08333333  0.17187500  1.0
  Nb  Nb169  1  0.95833333  0.41666667  0.17187500  1.0
  Nb  Nb170  1  0.95833333  0.75000000  0.17187500  1.0
  Nb  Nb171  1  0.12500000  0.08333333  0.21354167  1.0
  Nb  Nb172  1  0.12500000  0.41666667  0.21354167  1.0
  Nb  Nb173  1  0.12500000  0.75000000  0.21354167  1.0
  Nb  Nb174  1  0.45833333  0.08333333  0.21354167  1.0
  Nb  Nb175  1  0.45833333  0.41666667  0.21354167  1.0
  Nb  Nb176  1  0.45833333  0.75000000  0.21354167  1.0
  Nb  Nb177  1  0.79166667  0.08333333  0.21354167  1.0
  Nb  Nb178  1  0.79166667  0.41666667  0.21354167  1.0
  Nb  Nb179  1  0.79166667  0.75000000  0.21354167  1.0
  Nb  Nb180  1  0.20833333  0.25000000  0.19270833  1.0
  Nb  Nb181  1  0.20833333  0.58333333  0.19270833  1.0
  Nb  Nb182  1  0.20833333  0.91666667  0.19270833  1.0
  Nb  Nb183  1  0.54166667  0.25000000  0.19270833  1.0
  Nb  Nb184  1  0.54166667  0.58333333  0.19270833  1.0
  Nb  Nb185  1  0.54166667  0.91666667  0.19270833  1.0
  Nb  Nb186  1  0.87500000  0.25000000  0.19270833  1.0
  Nb  Nb187  1  0.87500000  0.58333333  0.19270833  1.0
  Nb  Nb188  1  0.87500000  0.91666667  0.19270833  1.0
  Nb  Nb189  1  0.04166667  0.25000000  0.23437500  1.0
  Nb  Nb190  1  0.04166667  0.58333333  0.23437500  1.0
  Nb  Nb191  1  0.04166667  0.91666667  0.23437500  1.0
  Nb  Nb192  1  0.37500000  0.25000000  0.23437500  1.0
  Nb  Nb193  1  0.37500000  0.58333333  0.23437500  1.0
  Nb  Nb194  1  0.37500000  0.91666667  0.23437500  1.0
  Nb  Nb195  1  0.70833333  0.25000000  0.23437500  1.0
  Nb  Nb196  1  0.70833333  0.58333333  0.23437500  1.0
  Nb  Nb197  1  0.70833333  0.91666667  0.23437500  1.0
  Ni  Ni198  1  0.16666667  0.33333333  0.20312500  1.0
  Ni  Ni199  1  0.16666667  0.66666667  0.20312500  1.0
  Ni  Ni200  1  0.16666667  0.00000000  0.20312500  1.0
  Ni  Ni201  1  0.50000000  0.33333333  0.20312500  1.0
  Ni  Ni202  1  0.50000000  0.66666667  0.20312500  1.0
  Ni  Ni203  1  0.50000000  0.00000000  0.20312500  1.0
  Ni  Ni204  1  0.83333333  0.33333333  0.20312500  1.0
  Ni  Ni205  1  0.83333333  0.66666667  0.20312500  1.0
  Ni  Ni206  1  0.83333333  0.00000000  0.20312500  1.0
  Ni  Ni207  1  0.00000000  0.00000000  0.24479167  1.0
  Ni  Ni208  1  0.00000000  0.33333333  0.24479167  1.0
  Ni  Ni209  1  0.00000000  0.66666667  0.24479167  1.0
  Ni  Ni210  1  0.33333333  0.00000000  0.24479167  1.0
  Ni  Ni211  1  0.33333333  0.33333333  0.24479167  1.0
  Ni  Ni212  1  0.33333333  0.66666667  0.24479167  1.0
  Ni  Ni213  1  0.66666667  0.00000000  0.24479167  1.0
  Ni  Ni214  1  0.66666667  0.33333333  0.24479167  1.0
  Ni  Ni215  1  0.66666667  0.66666667  0.24479167  1.0
  Nb  Nb216  1  0.25000000  0.16666667  0.26562500  1.0
  Nb  Nb217  1  0.25000000  0.50000000  0.26562500  1.0
  Nb  Nb218  1  0.25000000  0.83333333  0.26562500  1.0
  Nb  Nb219  1  0.58333333  0.16666667  0.26562500  1.0
  Nb  Nb220  1  0.58333333  0.50000000  0.26562500  1.0
  Nb  Nb221  1  0.58333333  0.83333333  0.26562500  1.0
  Nb  Nb222  1  0.91666667  0.16666667  0.26562500  1.0
  Nb  Nb223  1  0.91666667  0.50000000  0.26562500  1.0
  Nb  Nb224  1  0.91666667  0.83333333  0.26562500  1.0
  Nb  Nb225  1  0.08333333  0.16666667  0.30729167  1.0
  Nb  Nb226  1  0.08333333  0.50000000  0.30729167  1.0
  Nb  Nb227  1  0.08333333  0.83333333  0.30729167  1.0
  Nb  Nb228  1  0.41666667  0.16666667  0.30729167  1.0
  Nb  Nb229  1  0.41666667  0.50000000  0.30729167  1.0
  Nb  Nb230  1  0.41666667  0.83333333  0.30729167  1.0
  Nb  Nb231  1  0.75000000  0.16666667  0.30729167  1.0
  Nb  Nb232  1  0.75000000  0.50000000  0.30729167  1.0
  Nb  Nb233  1  0.75000000  0.83333333  0.30729167  1.0
  Nb  Nb234  1  0.29166667  0.08333333  0.25520833  1.0
  Nb  Nb235  1  0.29166667  0.41666667  0.25520833  1.0
  Nb  Nb236  1  0.29166667  0.75000000  0.25520833  1.0
  Nb  Nb237  1  0.62500000  0.08333333  0.25520833  1.0
  Nb  Nb238  1  0.62500000  0.41666667  0.25520833  1.0
  Nb  Nb239  1  0.62500000  0.75000000  0.25520833  1.0
  Nb  Nb240  1  0.95833333  0.08333333  0.25520833  1.0
  Nb  Nb241  1  0.95833333  0.41666667  0.25520833  1.0
  Nb  Nb242  1  0.95833333  0.75000000  0.25520833  1.0
  Nb  Nb243  1  0.12500000  0.08333333  0.29687500  1.0
  Nb  Nb244  1  0.12500000  0.41666667  0.29687500  1.0
  Nb  Nb245  1  0.12500000  0.75000000  0.29687500  1.0
  Nb  Nb246  1  0.45833333  0.08333333  0.29687500  1.0
  Nb  Nb247  1  0.45833333  0.41666667  0.29687500  1.0
  Nb  Nb248  1  0.45833333  0.75000000  0.29687500  1.0
  Nb  Nb249  1  0.79166667  0.08333333  0.29687500  1.0
  Nb  Nb250  1  0.79166667  0.41666667  0.29687500  1.0
  Nb  Nb251  1  0.79166667  0.75000000  0.29687500  1.0
  Nb  Nb252  1  0.20833333  0.25000000  0.27604167  1.0
  Nb  Nb253  1  0.20833333  0.58333333  0.27604167  1.0
  Nb  Nb254  1  0.20833333  0.91666667  0.27604167  1.0
  Nb  Nb255  1  0.54166667  0.25000000  0.27604167  1.0
  Nb  Nb256  1  0.54166667  0.58333333  0.27604167  1.0
  Nb  Nb257  1  0.54166667  0.91666667  0.27604167  1.0
  Nb  Nb258  1  0.87500000  0.25000000  0.27604167  1.0
  Nb  Nb259  1  0.87500000  0.58333333  0.27604167  1.0
  Nb  Nb260  1  0.87500000  0.91666667  0.27604167  1.0
  Nb  Nb261  1  0.04166667  0.25000000  0.31770833  1.0
  Nb  Nb262  1  0.04166667  0.58333333  0.31770833  1.0
  Nb  Nb263  1  0.04166667  0.91666667  0.31770833  1.0
  Nb  Nb264  1  0.37500000  0.25000000  0.31770833  1.0
  Nb  Nb265  1  0.37500000  0.58333333  0.31770833  1.0
  Nb  Nb266  1  0.37500000  0.91666667  0.31770833  1.0
  Nb  Nb267  1  0.70833333  0.25000000  0.31770833  1.0
  Nb  Nb268  1  0.70833333  0.58333333  0.31770833  1.0
  Nb  Nb269  1  0.70833333  0.91666667  0.31770833  1.0
  Ni  Ni270  1  0.16666667  0.33333333  0.28645833  1.0
  Ni  Ni271  1  0.16666667  0.66666667  0.28645833  1.0
  Ni  Ni272  1  0.16666667  0.00000000  0.28645833  1.0
  Ni  Ni273  1  0.50000000  0.33333333  0.28645833  1.0
  Ni  Ni274  1  0.50000000  0.66666667  0.28645833  1.0
  Ni  Ni275  1  0.50000000  0.00000000  0.28645833  1.0
  Ni  Ni276  1  0.83333333  0.33333333  0.28645833  1.0
  Ni  Ni277  1  0.83333333  0.66666667  0.28645833  1.0
  Ni  Ni278  1  0.83333333  0.00000000  0.28645833  1.0
  Ni  Ni279  1  0.00000000  0.00000000  0.32812500  1.0
  Ni  Ni280  1  0.00000000  0.33333333  0.32812500  1.0
  Ni  Ni281  1  0.00000000  0.66666667  0.32812500  1.0
  Ni  Ni282  1  0.33333333  0.00000000  0.32812500  1.0
  Ni  Ni283  1  0.33333333  0.33333333  0.32812500  1.0
  Ni  Ni284  1  0.33333333  0.66666667  0.32812500  1.0
  Ni  Ni285  1  0.66666667  0.00000000  0.32812500  1.0
  Ni  Ni286  1  0.66666667  0.33333333  0.32812500  1.0
  Ni  Ni287  1  0.66666667  0.66666667  0.32812500  1.0
  Nb  Nb288  1  0.25000000  0.16666667  0.34895833  1.0
  Nb  Nb289  1  0.25000000  0.50000000  0.34895833  1.0
  Nb  Nb290  1  0.25000000  0.83333333  0.34895833  1.0
  Nb  Nb291  1  0.58333333  0.16666667  0.34895833  1.0
  Nb  Nb292  1  0.58333333  0.50000000  0.34895833  1.0
  Nb  Nb293  1  0.58333333  0.83333333  0.34895833  1.0
  Nb  Nb294  1  0.91666667  0.16666667  0.34895833  1.0
  Nb  Nb295  1  0.91666667  0.50000000  0.34895833  1.0
  Nb  Nb296  1  0.91666667  0.83333333  0.34895833  1.0
  Nb  Nb297  1  0.08333333  0.16666667  0.39062500  1.0
  Nb  Nb298  1  0.08333333  0.50000000  0.39062500  1.0
  Nb  Nb299  1  0.08333333  0.83333333  0.39062500  1.0
  Nb  Nb300  1  0.41666667  0.16666667  0.39062500  1.0
  Nb  Nb301  1  0.41666667  0.50000000  0.39062500  1.0
  Nb  Nb302  1  0.41666667  0.83333333  0.39062500  1.0
  Nb  Nb303  1  0.75000000  0.16666667  0.39062500  1.0
  Nb  Nb304  1  0.75000000  0.50000000  0.39062500  1.0
  Nb  Nb305  1  0.75000000  0.83333333  0.39062500  1.0
  Nb  Nb306  1  0.29166667  0.08333333  0.33854167  1.0
  Nb  Nb307  1  0.29166667  0.41666667  0.33854167  1.0
  Nb  Nb308  1  0.29166667  0.75000000  0.33854167  1.0
  Nb  Nb309  1  0.62500000  0.08333333  0.33854167  1.0
  Nb  Nb310  1  0.62500000  0.41666667  0.33854167  1.0
  Nb  Nb311  1  0.62500000  0.75000000  0.33854167  1.0
  Nb  Nb312  1  0.95833333  0.08333333  0.33854167  1.0
  Nb  Nb313  1  0.95833333  0.41666667  0.33854167  1.0
  Nb  Nb314  1  0.95833333  0.75000000  0.33854167  1.0
  Nb  Nb315  1  0.12500000  0.08333333  0.38020833  1.0
  Nb  Nb316  1  0.12500000  0.41666667  0.38020833  1.0
  Nb  Nb317  1  0.12500000  0.75000000  0.38020833  1.0
  Nb  Nb318  1  0.45833333  0.08333333  0.38020833  1.0
  Nb  Nb319  1  0.45833333  0.41666667  0.38020833  1.0
  Nb  Nb320  1  0.45833333  0.75000000  0.38020833  1.0
  Nb  Nb321  1  0.79166667  0.08333333  0.38020833  1.0
  Nb  Nb322  1  0.79166667  0.41666667  0.38020833  1.0
  Nb  Nb323  1  0.79166667  0.75000000  0.38020833  1.0
  Nb  Nb324  1  0.20833333  0.25000000  0.35937500  1.0
  Nb  Nb325  1  0.20833333  0.58333333  0.35937500  1.0
  Nb  Nb326  1  0.20833333  0.91666667  0.35937500  1.0
  Nb  Nb327  1  0.54166667  0.25000000  0.35937500  1.0
  Nb  Nb328  1  0.54166667  0.58333333  0.35937500  1.0
  Nb  Nb329  1  0.54166667  0.91666667  0.35937500  1.0
  Nb  Nb330  1  0.87500000  0.25000000  0.35937500  1.0
  Nb  Nb331  1  0.87500000  0.58333333  0.35937500  1.0
  Nb  Nb332  1  0.87500000  0.91666667  0.35937500  1.0
  Nb  Nb333  1  0.04166667  0.25000000  0.40104167  1.0
  Nb  Nb334  1  0.04166667  0.58333333  0.40104167  1.0
  Nb  Nb335  1  0.04166667  0.91666667  0.40104167  1.0
  Nb  Nb336  1  0.37500000  0.25000000  0.40104167  1.0
  Nb  Nb337  1  0.37500000  0.58333333  0.40104167  1.0
  Nb  Nb338  1  0.37500000  0.91666667  0.40104167  1.0
  Nb  Nb339  1  0.70833333  0.25000000  0.40104167  1.0
  Nb  Nb340  1  0.70833333  0.58333333  0.40104167  1.0
  Nb  Nb341  1  0.70833333  0.91666667  0.40104167  1.0
  Ni  Ni342  1  0.16666667  0.33333333  0.36979167  1.0
  Ni  Ni343  1  0.16666667  0.66666667  0.36979167  1.0
  Ni  Ni344  1  0.16666667  0.00000000  0.36979167  1.0
  Ni  Ni345  1  0.50000000  0.33333333  0.36979167  1.0
  Ni  Ni346  1  0.50000000  0.66666667  0.36979167  1.0
  Ni  Ni347  1  0.50000000  0.00000000  0.36979167  1.0
  Ni  Ni348  1  0.83333333  0.33333333  0.36979167  1.0
  Ni  Ni349  1  0.83333333  0.66666667  0.36979167  1.0
  Ni  Ni350  1  0.83333333  0.00000000  0.36979167  1.0
  Ni  Ni351  1  0.00000000  0.00000000  0.41145833  1.0
  Ni  Ni352  1  0.00000000  0.33333333  0.41145833  1.0
  Ni  Ni353  1  0.00000000  0.66666667  0.41145833  1.0
  Ni  Ni354  1  0.33333333  0.00000000  0.41145833  1.0
  Ni  Ni355  1  0.33333333  0.33333333  0.41145833  1.0
  Ni  Ni356  1  0.33333333  0.66666667  0.41145833  1.0
  Ni  Ni357  1  0.66666667  0.00000000  0.41145833  1.0
  Ni  Ni358  1  0.66666667  0.33333333  0.41145833  1.0
  Ni  Ni359  1  0.66666667  0.66666667  0.41145833  1.0
