# generated using pymatgen
data_Nb3Ni
_symmetry_space_group_name_H-M   'P 1'
_cell_length_a   22.68443139
_cell_length_b   27.99088064
_cell_length_c   26.76951855
_cell_angle_alpha   88.30714388
_cell_angle_beta   84.49224632
_cell_angle_gamma   66.80401770
_symmetry_Int_Tables_number   1
_chemical_formula_structural   Nb3Ni
_chemical_formula_sum   'Nb270 Ni90'
_cell_volume   15550.70698798
_cell_formula_units_Z   90
loop_
 _symmetry_equiv_pos_site_id
 _symmetry_equiv_pos_as_xyz
  1  'x, y, z'
loop_
 _atom_site_type_symbol
 _atom_site_label
 _atom_site_symmetry_multiplicity
 _atom_site_fract_x
 _atom_site_fract_y
 _atom_site_fract_z
 _atom_site_occupancy
  Nb  Nb0  1  0.29326923  0.21474359  0.05288462  1.0
  Nb  Nb1  1  0.29326923  0.54807692  0.05288462  1.0
  Nb  Nb2  1  0.29326923  0.88141026  0.05288462  1.0
  Nb  Nb3  1  0.62660256  0.21474359  0.05288462  1.0
  Nb  Nb4  1  0.62660256  0.54807692  0.05288462  1.0
  Nb  Nb5  1  0.62660256  0.88141026  0.05288462  1.0
  Nb  Nb6  1  0.95993590  0.21474359  0.05288462  1.0
  Nb  Nb7  1  0.95993590  0.54807692  0.05288462  1.0
  Nb  Nb8  1  0.95993590  0.88141026  0.05288462  1.0
  Nb  Nb9  1  0.21634615  0.07371795  0.01442308  1.0
  Nb  Nb10  1  0.21634615  0.40705128  0.01442308  1.0
  Nb  Nb11  1  0.21634615  0.74038462  0.01442308  1.0
  Nb  Nb12  1  0.54967949  0.07371795  0.01442308  1.0
  Nb  Nb13  1  0.54967949  0.40705128  0.01442308  1.0
  Nb  Nb14  1  0.54967949  0.74038462  0.01442308  1.0
  Nb  Nb15  1  0.88301282  0.07371795  0.01442308  1.0
  Nb  Nb16  1  0.88301282  0.40705128  0.01442308  1.0
  Nb  Nb17  1  0.88301282  0.74038462  0.01442308  1.0
  Nb  Nb18  1  0.11378205  0.03846154  0.00480769  1.0
  Nb  Nb19  1  0.11378205  0.37179487  0.00480769  1.0
  Nb  Nb20  1  0.11378205  0.70512821  0.00480769  1.0
  Nb  Nb21  1  0.44711538  0.03846154  0.00480769  1.0
  Nb  Nb22  1  0.44711538  0.37179487  0.00480769  1.0
  Nb  Nb23  1  0.44711538  0.70512821  0.00480769  1.0
  Nb  Nb24  1  0.78044872  0.03846154  0.00480769  1.0
  Nb  Nb25  1  0.78044872  0.37179487  0.00480769  1.0
  Nb  Nb26  1  0.78044872  0.70512821  0.00480769  1.0
  Nb  Nb27  1  0.19070513  0.17948718  0.04326923  1.0
  Nb  Nb28  1  0.19070513  0.51282051  0.04326923  1.0
  Nb  Nb29  1  0.19070513  0.84615385  0.04326923  1.0
  Nb  Nb30  1  0.52403846  0.17948718  0.04326923  1.0
  Nb  Nb31  1  0.52403846  0.51282051  0.04326923  1.0
  Nb  Nb32  1  0.52403846  0.84615385  0.04326923  1.0
  Nb  Nb33  1  0.85737179  0.17948718  0.04326923  1.0
  Nb  Nb34  1  0.85737179  0.51282051  0.04326923  1.0
  Nb  Nb35  1  0.85737179  0.84615385  0.04326923  1.0
  Nb  Nb36  1  0.06250000  0.25000000  0.06250000  1.0
  Nb  Nb37  1  0.06250000  0.58333333  0.06250000  1.0
  Nb  Nb38  1  0.06250000  0.91666667  0.06250000  1.0
  Nb  Nb39  1  0.39583333  0.25000000  0.06250000  1.0
  Nb  Nb40  1  0.39583333  0.58333333  0.06250000  1.0
  Nb  Nb41  1  0.39583333  0.91666667  0.06250000  1.0
  Nb  Nb42  1  0.72916667  0.25000000  0.06250000  1.0
  Nb  Nb43  1  0.72916667  0.58333333  0.06250000  1.0
  Nb  Nb44  1  0.72916667  0.91666667  0.06250000  1.0
  Nb  Nb45  1  0.31891026  0.10897436  0.02403846  1.0
  Nb  Nb46  1  0.31891026  0.44230769  0.02403846  1.0
  Nb  Nb47  1  0.31891026  0.77564103  0.02403846  1.0
  Nb  Nb48  1  0.65224359  0.10897436  0.02403846  1.0
  Nb  Nb49  1  0.65224359  0.44230769  0.02403846  1.0
  Nb  Nb50  1  0.65224359  0.77564103  0.02403846  1.0
  Nb  Nb51  1  0.98557692  0.10897436  0.02403846  1.0
  Nb  Nb52  1  0.98557692  0.44230769  0.02403846  1.0
  Nb  Nb53  1  0.98557692  0.77564103  0.02403846  1.0
  Nb  Nb54  1  0.11378205  0.16346154  0.12980769  1.0
  Nb  Nb55  1  0.11378205  0.49679487  0.12980769  1.0
  Nb  Nb56  1  0.11378205  0.83012821  0.12980769  1.0
  Nb  Nb57  1  0.44711538  0.16346154  0.12980769  1.0
  Nb  Nb58  1  0.44711538  0.49679487  0.12980769  1.0
  Nb  Nb59  1  0.44711538  0.83012821  0.12980769  1.0
  Nb  Nb60  1  0.78044872  0.16346154  0.12980769  1.0
  Nb  Nb61  1  0.78044872  0.49679487  0.12980769  1.0
  Nb  Nb62  1  0.78044872  0.83012821  0.12980769  1.0
  Nb  Nb63  1  0.03685897  0.02243590  0.09134615  1.0
  Nb  Nb64  1  0.03685897  0.35576923  0.09134615  1.0
  Nb  Nb65  1  0.03685897  0.68910256  0.09134615  1.0
  Nb  Nb66  1  0.37019231  0.02243590  0.09134615  1.0
  Nb  Nb67  1  0.37019231  0.35576923  0.09134615  1.0
  Nb  Nb68  1  0.37019231  0.68910256  0.09134615  1.0
  Nb  Nb69  1  0.70352564  0.02243590  0.09134615  1.0
  Nb  Nb70  1  0.70352564  0.35576923  0.09134615  1.0
  Nb  Nb71  1  0.70352564  0.68910256  0.09134615  1.0
  Nb  Nb72  1  0.26762821  0.32051282  0.08173077  1.0
  Nb  Nb73  1  0.26762821  0.65384615  0.08173077  1.0
  Nb  Nb74  1  0.26762821  0.98717949  0.08173077  1.0
  Nb  Nb75  1  0.60096154  0.32051282  0.08173077  1.0
  Nb  Nb76  1  0.60096154  0.65384615  0.08173077  1.0
  Nb  Nb77  1  0.60096154  0.98717949  0.08173077  1.0
  Nb  Nb78  1  0.93429487  0.32051282  0.08173077  1.0
  Nb  Nb79  1  0.93429487  0.65384615  0.08173077  1.0
  Nb  Nb80  1  0.93429487  0.98717949  0.08173077  1.0
  Nb  Nb81  1  0.01121795  0.12820513  0.12019231  1.0
  Nb  Nb82  1  0.01121795  0.46153846  0.12019231  1.0
  Nb  Nb83  1  0.01121795  0.79487179  0.12019231  1.0
  Nb  Nb84  1  0.34455128  0.12820513  0.12019231  1.0
  Nb  Nb85  1  0.34455128  0.46153846  0.12019231  1.0
  Nb  Nb86  1  0.34455128  0.79487179  0.12019231  1.0
  Nb  Nb87  1  0.67788462  0.12820513  0.12019231  1.0
  Nb  Nb88  1  0.67788462  0.46153846  0.12019231  1.0
  Nb  Nb89  1  0.67788462  0.79487179  0.12019231  1.0
  Nb  Nb90  1  0.21634615  0.19871795  0.13942308  1.0
  Nb  Nb91  1  0.21634615  0.53205128  0.13942308  1.0
  Nb  Nb92  1  0.21634615  0.86538462  0.13942308  1.0
  Nb  Nb93  1  0.54967949  0.19871795  0.13942308  1.0
  Nb  Nb94  1  0.54967949  0.53205128  0.13942308  1.0
  Nb  Nb95  1  0.54967949  0.86538462  0.13942308  1.0
  Nb  Nb96  1  0.88301282  0.19871795  0.13942308  1.0
  Nb  Nb97  1  0.88301282  0.53205128  0.13942308  1.0
  Nb  Nb98  1  0.88301282  0.86538462  0.13942308  1.0
  Nb  Nb99  1  0.13942308  0.05769231  0.10096154  1.0
  Nb  Nb100  1  0.13942308  0.39102564  0.10096154  1.0
  Nb  Nb101  1  0.13942308  0.72435897  0.10096154  1.0
  Nb  Nb102  1  0.47275641  0.05769231  0.10096154  1.0
  Nb  Nb103  1  0.47275641  0.39102564  0.10096154  1.0
  Nb  Nb104  1  0.47275641  0.72435897  0.10096154  1.0
  Nb  Nb105  1  0.80608974  0.05769231  0.10096154  1.0
  Nb  Nb106  1  0.80608974  0.39102564  0.10096154  1.0
  Nb  Nb107  1  0.80608974  0.72435897  0.10096154  1.0
  Nb  Nb108  1  0.26762821  0.11217949  0.20673077  1.0
  Nb  Nb109  1  0.26762821  0.44551282  0.20673077  1.0
  Nb  Nb110  1  0.26762821  0.77884615  0.20673077  1.0
  Nb  Nb111  1  0.60096154  0.11217949  0.20673077  1.0
  Nb  Nb112  1  0.60096154  0.44551282  0.20673077  1.0
  Nb  Nb113  1  0.60096154  0.77884615  0.20673077  1.0
  Nb  Nb114  1  0.93429487  0.11217949  0.20673077  1.0
  Nb  Nb115  1  0.93429487  0.44551282  0.20673077  1.0
  Nb  Nb116  1  0.93429487  0.77884615  0.20673077  1.0
  Nb  Nb117  1  0.19070513  0.30448718  0.16826923  1.0
  Nb  Nb118  1  0.19070513  0.63782051  0.16826923  1.0
  Nb  Nb119  1  0.19070513  0.97115385  0.16826923  1.0
  Nb  Nb120  1  0.52403846  0.30448718  0.16826923  1.0
  Nb  Nb121  1  0.52403846  0.63782051  0.16826923  1.0
  Nb  Nb122  1  0.52403846  0.97115385  0.16826923  1.0
  Nb  Nb123  1  0.85737179  0.30448718  0.16826923  1.0
  Nb  Nb124  1  0.85737179  0.63782051  0.16826923  1.0
  Nb  Nb125  1  0.85737179  0.97115385  0.16826923  1.0
  Nb  Nb126  1  0.08814103  0.26923077  0.15865385  1.0
  Nb  Nb127  1  0.08814103  0.60256410  0.15865385  1.0
  Nb  Nb128  1  0.08814103  0.93589744  0.15865385  1.0
  Nb  Nb129  1  0.42147436  0.26923077  0.15865385  1.0
  Nb  Nb130  1  0.42147436  0.60256410  0.15865385  1.0
  Nb  Nb131  1  0.42147436  0.93589744  0.15865385  1.0
  Nb  Nb132  1  0.75480769  0.26923077  0.15865385  1.0
  Nb  Nb133  1  0.75480769  0.60256410  0.15865385  1.0
  Nb  Nb134  1  0.75480769  0.93589744  0.15865385  1.0
  Nb  Nb135  1  0.16506410  0.07692308  0.19711538  1.0
  Nb  Nb136  1  0.16506410  0.41025641  0.19711538  1.0
  Nb  Nb137  1  0.16506410  0.74358974  0.19711538  1.0
  Nb  Nb138  1  0.49839744  0.07692308  0.19711538  1.0
  Nb  Nb139  1  0.49839744  0.41025641  0.19711538  1.0
  Nb  Nb140  1  0.49839744  0.74358974  0.19711538  1.0
  Nb  Nb141  1  0.83173077  0.07692308  0.19711538  1.0
  Nb  Nb142  1  0.83173077  0.41025641  0.19711538  1.0
  Nb  Nb143  1  0.83173077  0.74358974  0.19711538  1.0
  Nb  Nb144  1  0.03685897  0.14743590  0.21634615  1.0
  Nb  Nb145  1  0.03685897  0.48076923  0.21634615  1.0
  Nb  Nb146  1  0.03685897  0.81410256  0.21634615  1.0
  Nb  Nb147  1  0.37019231  0.14743590  0.21634615  1.0
  Nb  Nb148  1  0.37019231  0.48076923  0.21634615  1.0
  Nb  Nb149  1  0.37019231  0.81410256  0.21634615  1.0
  Nb  Nb150  1  0.70352564  0.14743590  0.21634615  1.0
  Nb  Nb151  1  0.70352564  0.48076923  0.21634615  1.0
  Nb  Nb152  1  0.70352564  0.81410256  0.21634615  1.0
  Nb  Nb153  1  0.29326923  0.00641026  0.17788462  1.0
  Nb  Nb154  1  0.29326923  0.33974359  0.17788462  1.0
  Nb  Nb155  1  0.29326923  0.67307692  0.17788462  1.0
  Nb  Nb156  1  0.62660256  0.00641026  0.17788462  1.0
  Nb  Nb157  1  0.62660256  0.33974359  0.17788462  1.0
  Nb  Nb158  1  0.62660256  0.67307692  0.17788462  1.0
  Nb  Nb159  1  0.95993590  0.00641026  0.17788462  1.0
  Nb  Nb160  1  0.95993590  0.33974359  0.17788462  1.0
  Nb  Nb161  1  0.95993590  0.67307692  0.17788462  1.0
  Nb  Nb162  1  0.08814103  0.06089744  0.28365385  1.0
  Nb  Nb163  1  0.08814103  0.39423077  0.28365385  1.0
  Nb  Nb164  1  0.08814103  0.72756410  0.28365385  1.0
  Nb  Nb165  1  0.42147436  0.06089744  0.28365385  1.0
  Nb  Nb166  1  0.42147436  0.39423077  0.28365385  1.0
  Nb  Nb167  1  0.42147436  0.72756410  0.28365385  1.0
  Nb  Nb168  1  0.75480769  0.06089744  0.28365385  1.0
  Nb  Nb169  1  0.75480769  0.39423077  0.28365385  1.0
  Nb  Nb170  1  0.75480769  0.72756410  0.28365385  1.0
  Nb  Nb171  1  0.01121795  0.25320513  0.24519231  1.0
  Nb  Nb172  1  0.01121795  0.58653846  0.24519231  1.0
  Nb  Nb173  1  0.01121795  0.91987179  0.24519231  1.0
  Nb  Nb174  1  0.34455128  0.25320513  0.24519231  1.0
  Nb  Nb175  1  0.34455128  0.58653846  0.24519231  1.0
  Nb  Nb176  1  0.34455128  0.91987179  0.24519231  1.0
  Nb  Nb177  1  0.67788462  0.25320513  0.24519231  1.0
  Nb  Nb178  1  0.67788462  0.58653846  0.24519231  1.0
  Nb  Nb179  1  0.67788462  0.91987179  0.24519231  1.0
  Nb  Nb180  1  0.24198718  0.21794872  0.23557692  1.0
  Nb  Nb181  1  0.24198718  0.55128205  0.23557692  1.0
  Nb  Nb182  1  0.24198718  0.88461538  0.23557692  1.0
  Nb  Nb183  1  0.57532051  0.21794872  0.23557692  1.0
  Nb  Nb184  1  0.57532051  0.55128205  0.23557692  1.0
  Nb  Nb185  1  0.57532051  0.88461538  0.23557692  1.0
  Nb  Nb186  1  0.90865385  0.21794872  0.23557692  1.0
  Nb  Nb187  1  0.90865385  0.55128205  0.23557692  1.0
  Nb  Nb188  1  0.90865385  0.88461538  0.23557692  1.0
  Nb  Nb189  1  0.31891026  0.02564103  0.27403846  1.0
  Nb  Nb190  1  0.31891026  0.35897436  0.27403846  1.0
  Nb  Nb191  1  0.31891026  0.69230769  0.27403846  1.0
  Nb  Nb192  1  0.65224359  0.02564103  0.27403846  1.0
  Nb  Nb193  1  0.65224359  0.35897436  0.27403846  1.0
  Nb  Nb194  1  0.65224359  0.69230769  0.27403846  1.0
  Nb  Nb195  1  0.98557692  0.02564103  0.27403846  1.0
  Nb  Nb196  1  0.98557692  0.35897436  0.27403846  1.0
  Nb  Nb197  1  0.98557692  0.69230769  0.27403846  1.0
  Nb  Nb198  1  0.19070513  0.09615385  0.29326923  1.0
  Nb  Nb199  1  0.19070513  0.42948718  0.29326923  1.0
  Nb  Nb200  1  0.19070513  0.76282051  0.29326923  1.0
  Nb  Nb201  1  0.52403846  0.09615385  0.29326923  1.0
  Nb  Nb202  1  0.52403846  0.42948718  0.29326923  1.0
  Nb  Nb203  1  0.52403846  0.76282051  0.29326923  1.0
  Nb  Nb204  1  0.85737179  0.09615385  0.29326923  1.0
  Nb  Nb205  1  0.85737179  0.42948718  0.29326923  1.0
  Nb  Nb206  1  0.85737179  0.76282051  0.29326923  1.0
  Nb  Nb207  1  0.11378205  0.28846154  0.25480769  1.0
  Nb  Nb208  1  0.11378205  0.62179487  0.25480769  1.0
  Nb  Nb209  1  0.11378205  0.95512821  0.25480769  1.0
  Nb  Nb210  1  0.44711538  0.28846154  0.25480769  1.0
  Nb  Nb211  1  0.44711538  0.62179487  0.25480769  1.0
  Nb  Nb212  1  0.44711538  0.95512821  0.25480769  1.0
  Nb  Nb213  1  0.78044872  0.28846154  0.25480769  1.0
  Nb  Nb214  1  0.78044872  0.62179487  0.25480769  1.0
  Nb  Nb215  1  0.78044872  0.95512821  0.25480769  1.0
  Nb  Nb216  1  0.24198718  0.00961538  0.36057692  1.0
  Nb  Nb217  1  0.24198718  0.34294872  0.36057692  1.0
  Nb  Nb218  1  0.24198718  0.67628205  0.36057692  1.0
  Nb  Nb219  1  0.57532051  0.00961538  0.36057692  1.0
  Nb  Nb220  1  0.57532051  0.34294872  0.36057692  1.0
  Nb  Nb221  1  0.57532051  0.67628205  0.36057692  1.0
  Nb  Nb222  1  0.90865385  0.00961538  0.36057692  1.0
  Nb  Nb223  1  0.90865385  0.34294872  0.36057692  1.0
  Nb  Nb224  1  0.90865385  0.67628205  0.36057692  1.0
  Nb  Nb225  1  0.16506410  0.20192308  0.32211538  1.0
  Nb  Nb226  1  0.16506410  0.53525641  0.32211538  1.0
  Nb  Nb227  1  0.16506410  0.86858974  0.32211538  1.0
  Nb  Nb228  1  0.49839744  0.20192308  0.32211538  1.0
  Nb  Nb229  1  0.49839744  0.53525641  0.32211538  1.0
  Nb  Nb230  1  0.49839744  0.86858974  0.32211538  1.0
  Nb  Nb231  1  0.83173077  0.20192308  0.32211538  1.0
  Nb  Nb232  1  0.83173077  0.53525641  0.32211538  1.0
  Nb  Nb233  1  0.83173077  0.86858974  0.32211538  1.0
  Nb  Nb234  1  0.06250000  0.16666667  0.31250000  1.0
  Nb  Nb235  1  0.06250000  0.50000000  0.31250000  1.0
  Nb  Nb236  1  0.06250000  0.83333333  0.31250000  1.0
  Nb  Nb237  1  0.39583333  0.16666667  0.31250000  1.0
  Nb  Nb238  1  0.39583333  0.50000000  0.31250000  1.0
  Nb  Nb239  1  0.39583333  0.83333333  0.31250000  1.0
  Nb  Nb240  1  0.72916667  0.16666667  0.31250000  1.0
  Nb  Nb241  1  0.72916667  0.50000000  0.31250000  1.0
  Nb  Nb242  1  0.72916667  0.83333333  0.31250000  1.0
  Nb  Nb243  1  0.13942308  0.30769231  0.35096154  1.0
  Nb  Nb244  1  0.13942308  0.64102564  0.35096154  1.0
  Nb  Nb245  1  0.13942308  0.97435897  0.35096154  1.0
  Nb  Nb246  1  0.47275641  0.30769231  0.35096154  1.0
  Nb  Nb247  1  0.47275641  0.64102564  0.35096154  1.0
  Nb  Nb248  1  0.47275641  0.97435897  0.35096154  1.0
  Nb  Nb249  1  0.80608974  0.30769231  0.35096154  1.0
  Nb  Nb250  1  0.80608974  0.64102564  0.35096154  1.0
  Nb  Nb251  1  0.80608974  0.97435897  0.35096154  1.0
  Nb  Nb252  1  0.01121795  0.04487179  0.37019231  1.0
  Nb  Nb253  1  0.01121795  0.37820513  0.37019231  1.0
  Nb  Nb254  1  0.01121795  0.71153846  0.37019231  1.0
  Nb  Nb255  1  0.34455128  0.04487179  0.37019231  1.0
  Nb  Nb256  1  0.34455128  0.37820513  0.37019231  1.0
  Nb  Nb257  1  0.34455128  0.71153846  0.37019231  1.0
  Nb  Nb258  1  0.67788462  0.04487179  0.37019231  1.0
  Nb  Nb259  1  0.67788462  0.37820513  0.37019231  1.0
  Nb  Nb260  1  0.67788462  0.71153846  0.37019231  1.0
  Nb  Nb261  1  0.26762821  0.23717949  0.33173077  1.0
  Nb  Nb262  1  0.26762821  0.57051282  0.33173077  1.0
  Nb  Nb263  1  0.26762821  0.90384615  0.33173077  1.0
  Nb  Nb264  1  0.60096154  0.23717949  0.33173077  1.0
  Nb  Nb265  1  0.60096154  0.57051282  0.33173077  1.0
  Nb  Nb266  1  0.60096154  0.90384615  0.33173077  1.0
  Nb  Nb267  1  0.93429487  0.23717949  0.33173077  1.0
  Nb  Nb268  1  0.93429487  0.57051282  0.33173077  1.0
  Nb  Nb269  1  0.93429487  0.90384615  0.33173077  1.0
  Ni  Ni270  1  0.16506410  0.28525641  0.07211538  1.0
  Ni  Ni271  1  0.16506410  0.61858974  0.07211538  1.0
  Ni  Ni272  1  0.16506410  0.95192308  0.07211538  1.0
  Ni  Ni273  1  0.49839744  0.28525641  0.07211538  1.0
  Ni  Ni274  1  0.49839744  0.61858974  0.07211538  1.0
  Ni  Ni275  1  0.49839744  0.95192308  0.07211538  1.0
  Ni  Ni276  1  0.83173077  0.28525641  0.07211538  1.0
  Ni  Ni277  1  0.83173077  0.61858974  0.07211538  1.0
  Ni  Ni278  1  0.83173077  0.95192308  0.07211538  1.0
  Ni  Ni279  1  0.08814103  0.14423077  0.03365385  1.0
  Ni  Ni280  1  0.08814103  0.47756410  0.03365385  1.0
  Ni  Ni281  1  0.08814103  0.81089744  0.03365385  1.0
  Ni  Ni282  1  0.42147436  0.14423077  0.03365385  1.0
  Ni  Ni283  1  0.42147436  0.47756410  0.03365385  1.0
  Ni  Ni284  1  0.42147436  0.81089744  0.03365385  1.0
  Ni  Ni285  1  0.75480769  0.14423077  0.03365385  1.0
  Ni  Ni286  1  0.75480769  0.47756410  0.03365385  1.0
  Ni  Ni287  1  0.75480769  0.81089744  0.03365385  1.0
  Ni  Ni288  1  0.31891026  0.23397436  0.14903846  1.0
  Ni  Ni289  1  0.31891026  0.56730769  0.14903846  1.0
  Ni  Ni290  1  0.31891026  0.90064103  0.14903846  1.0
  Ni  Ni291  1  0.65224359  0.23397436  0.14903846  1.0
  Ni  Ni292  1  0.65224359  0.56730769  0.14903846  1.0
  Ni  Ni293  1  0.65224359  0.90064103  0.14903846  1.0
  Ni  Ni294  1  0.98557692  0.23397436  0.14903846  1.0
  Ni  Ni295  1  0.98557692  0.56730769  0.14903846  1.0
  Ni  Ni296  1  0.98557692  0.90064103  0.14903846  1.0
  Ni  Ni297  1  0.24198718  0.09294872  0.11057692  1.0
  Ni  Ni298  1  0.24198718  0.42628205  0.11057692  1.0
  Ni  Ni299  1  0.24198718  0.75961538  0.11057692  1.0
  Ni  Ni300  1  0.57532051  0.09294872  0.11057692  1.0
  Ni  Ni301  1  0.57532051  0.42628205  0.11057692  1.0
  Ni  Ni302  1  0.57532051  0.75961538  0.11057692  1.0
  Ni  Ni303  1  0.90865385  0.09294872  0.11057692  1.0
  Ni  Ni304  1  0.90865385  0.42628205  0.11057692  1.0
  Ni  Ni305  1  0.90865385  0.75961538  0.11057692  1.0
  Ni  Ni306  1  0.13942308  0.18269231  0.22596154  1.0
  Ni  Ni307  1  0.13942308  0.51602564  0.22596154  1.0
  Ni  Ni308  1  0.13942308  0.84935897  0.22596154  1.0
  Ni  Ni309  1  0.47275641  0.18269231  0.22596154  1.0
  Ni  Ni310  1  0.47275641  0.51602564  0.22596154  1.0
  Ni  Ni311  1  0.47275641  0.84935897  0.22596154  1.0
  Ni  Ni312  1  0.80608974  0.18269231  0.22596154  1.0
  Ni  Ni313  1  0.80608974  0.51602564  0.22596154  1.0
  Ni  Ni314  1  0.80608974  0.84935897  0.22596154  1.0
  Ni  Ni315  1  0.06250000  0.04166667  0.18750000  1.0
  Ni  Ni316  1  0.06250000  0.37500000  0.18750000  1.0
  Ni  Ni317  1  0.06250000  0.70833333  0.18750000  1.0
  Ni  Ni318  1  0.39583333  0.04166667  0.18750000  1.0
  Ni  Ni319  1  0.39583333  0.37500000  0.18750000  1.0
  Ni  Ni320  1  0.39583333  0.70833333  0.18750000  1.0
  Ni  Ni321  1  0.72916667  0.04166667  0.18750000  1.0
  Ni  Ni322  1  0.72916667  0.37500000  0.18750000  1.0
  Ni  Ni323  1  0.72916667  0.70833333  0.18750000  1.0
  Ni  Ni324  1  0.29326923  0.13141026  0.30288462  1.0
  Ni  Ni325  1  0.29326923  0.46474359  0.30288462  1.0
  Ni  Ni326  1  0.29326923  0.79807692  0.30288462  1.0
  Ni  Ni327  1  0.62660256  0.13141026  0.30288462  1.0
  Ni  Ni328  1  0.62660256  0.46474359  0.30288462  1.0
  Ni  Ni329  1  0.62660256  0.79807692  0.30288462  1.0
  Ni  Ni330  1  0.95993590  0.13141026  0.30288462  1.0
  Ni  Ni331  1  0.95993590  0.46474359  0.30288462  1.0
  Ni  Ni332  1  0.95993590  0.79807692  0.30288462  1.0
  Ni  Ni333  1  0.21634615  0.32371795  0.26442308  1.0
  Ni  Ni334  1  0.21634615  0.65705128  0.26442308  1.0
  Ni  Ni335  1  0.21634615  0.99038462  0.26442308  1.0
  Ni  Ni336  1  0.54967949  0.32371795  0.26442308  1.0
  Ni  Ni337  1  0.54967949  0.65705128  0.26442308  1.0
  Ni  Ni338  1  0.54967949  0.99038462  0.26442308  1.0
  Ni  Ni339  1  0.88301282  0.32371795  0.26442308  1.0
  Ni  Ni340  1  0.88301282  0.65705128  0.26442308  1.0
  Ni  Ni341  1  0.88301282  0.99038462  0.26442308  1.0
  Ni  Ni342  1  0.11378205  0.08012821  0.37980769  1.0
  Ni  Ni343  1  0.11378205  0.41346154  0.37980769  1.0
  Ni  Ni344  1  0.11378205  0.74679487  0.37980769  1.0
  Ni  Ni345  1  0.44711538  0.08012821  0.37980769  1.0
  Ni  Ni346  1  0.44711538  0.41346154  0.37980769  1.0
  Ni  Ni347  1  0.44711538  0.74679487  0.37980769  1.0
  Ni  Ni348  1  0.78044872  0.08012821  0.37980769  1.0
  Ni  Ni349  1  0.78044872  0.41346154  0.37980769  1.0
  Ni  Ni350  1  0.78044872  0.74679487  0.37980769  1.0
  Ni  Ni351  1  0.03685897  0.27243590  0.34134615  1.0
  Ni  Ni352  1  0.03685897  0.60576923  0.34134615  1.0
  Ni  Ni353  1  0.03685897  0.93910256  0.34134615  1.0
  Ni  Ni354  1  0.37019231  0.27243590  0.34134615  1.0
  Ni  Ni355  1  0.37019231  0.60576923  0.34134615  1.0
  Ni  Ni356  1  0.37019231  0.93910256  0.34134615  1.0
  Ni  Ni357  1  0.70352564  0.27243590  0.34134615  1.0
  Ni  Ni358  1  0.70352564  0.60576923  0.34134615  1.0
  Ni  Ni359  1  0.70352564  0.93910256  0.34134615  1.0
