# generated using pymatgen
data_Nb3Ni
_symmetry_space_group_name_H-M   'P 1'
_cell_length_a   11.90165399
_cell_length_b   38.92254815
_cell_length_c   26.20550862
_cell_angle_alpha   88.94328721
_cell_angle_beta   85.65888081
_cell_angle_gamma   81.20561803
_symmetry_Int_Tables_number   1
_chemical_formula_structural   Nb3Ni
_chemical_formula_sum   'Nb216 Ni72'
_cell_volume   11962.08229844
_cell_formula_units_Z   72
loop_
 _symmetry_equiv_pos_site_id
 _symmetry_equiv_pos_as_xyz
  1  'x, y, z'
loop_
 _atom_site_type_symbol
 _atom_site_label
 _atom_site_symmetry_multiplicity
 _atom_site_fract_x
 _atom_site_fract_y
 _atom_site_fract_z
 _atom_site_occupancy
  Nb  Nb0  1  0.06458333  0.23125000  0.98125000  1.0
  Nb  Nb1  1  0.06458333  0.56458333  0.98125000  1.0
  Nb  Nb2  1  0.06458333  0.89791667  0.98125000  1.0
  Nb  Nb3  1  0.39791667  0.23125000  0.98125000  1.0
  Nb  Nb4  1  0.39791667  0.56458333  0.98125000  1.0
  Nb  Nb5  1  0.39791667  0.89791667  0.98125000  1.0
  Nb  Nb6  1  0.73125000  0.23125000  0.98125000  1.0
  Nb  Nb7  1  0.73125000  0.56458333  0.98125000  1.0
  Nb  Nb8  1  0.73125000  0.89791667  0.98125000  1.0
  Nb  Nb9  1  0.18125000  0.01458333  0.93125000  1.0
  Nb  Nb10  1  0.18125000  0.34791667  0.93125000  1.0
  Nb  Nb11  1  0.18125000  0.68125000  0.93125000  1.0
  Nb  Nb12  1  0.51458333  0.01458333  0.93125000  1.0
  Nb  Nb13  1  0.51458333  0.34791667  0.93125000  1.0
  Nb  Nb14  1  0.51458333  0.68125000  0.93125000  1.0
  Nb  Nb15  1  0.84791667  0.01458333  0.93125000  1.0
  Nb  Nb16  1  0.84791667  0.34791667  0.93125000  1.0
  Nb  Nb17  1  0.84791667  0.68125000  0.93125000  1.0
  Nb  Nb18  1  0.31875000  0.06875000  0.94375000  1.0
  Nb  Nb19  1  0.31875000  0.40208333  0.94375000  1.0
  Nb  Nb20  1  0.31875000  0.73541667  0.94375000  1.0
  Nb  Nb21  1  0.65208333  0.06875000  0.94375000  1.0
  Nb  Nb22  1  0.65208333  0.40208333  0.94375000  1.0
  Nb  Nb23  1  0.65208333  0.73541667  0.94375000  1.0
  Nb  Nb24  1  0.98541667  0.06875000  0.94375000  1.0
  Nb  Nb25  1  0.98541667  0.40208333  0.94375000  1.0
  Nb  Nb26  1  0.98541667  0.73541667  0.94375000  1.0
  Nb  Nb27  1  0.20208333  0.28541667  0.99375000  1.0
  Nb  Nb28  1  0.20208333  0.61875000  0.99375000  1.0
  Nb  Nb29  1  0.20208333  0.95208333  0.99375000  1.0
  Nb  Nb30  1  0.53541667  0.28541667  0.99375000  1.0
  Nb  Nb31  1  0.53541667  0.61875000  0.99375000  1.0
  Nb  Nb32  1  0.53541667  0.95208333  0.99375000  1.0
  Nb  Nb33  1  0.86875000  0.28541667  0.99375000  1.0
  Nb  Nb34  1  0.86875000  0.61875000  0.99375000  1.0
  Nb  Nb35  1  0.86875000  0.95208333  0.99375000  1.0
  Nb  Nb36  1  0.26041667  0.17708333  0.96875000  1.0
  Nb  Nb37  1  0.26041667  0.51041667  0.96875000  1.0
  Nb  Nb38  1  0.26041667  0.84375000  0.96875000  1.0
  Nb  Nb39  1  0.59375000  0.17708333  0.96875000  1.0
  Nb  Nb40  1  0.59375000  0.51041667  0.96875000  1.0
  Nb  Nb41  1  0.59375000  0.84375000  0.96875000  1.0
  Nb  Nb42  1  0.92708333  0.17708333  0.96875000  1.0
  Nb  Nb43  1  0.92708333  0.51041667  0.96875000  1.0
  Nb  Nb44  1  0.92708333  0.84375000  0.96875000  1.0
  Nb  Nb45  1  0.04375000  0.29375000  0.91875000  1.0
  Nb  Nb46  1  0.04375000  0.62708333  0.91875000  1.0
  Nb  Nb47  1  0.04375000  0.96041667  0.91875000  1.0
  Nb  Nb48  1  0.37708333  0.29375000  0.91875000  1.0
  Nb  Nb49  1  0.37708333  0.62708333  0.91875000  1.0
  Nb  Nb50  1  0.37708333  0.96041667  0.91875000  1.0
  Nb  Nb51  1  0.71041667  0.29375000  0.91875000  1.0
  Nb  Nb52  1  0.71041667  0.62708333  0.91875000  1.0
  Nb  Nb53  1  0.71041667  0.96041667  0.91875000  1.0
  Nb  Nb54  1  0.29791667  0.13125000  0.88125000  1.0
  Nb  Nb55  1  0.29791667  0.46458333  0.88125000  1.0
  Nb  Nb56  1  0.29791667  0.79791667  0.88125000  1.0
  Nb  Nb57  1  0.63125000  0.13125000  0.88125000  1.0
  Nb  Nb58  1  0.63125000  0.46458333  0.88125000  1.0
  Nb  Nb59  1  0.63125000  0.79791667  0.88125000  1.0
  Nb  Nb60  1  0.96458333  0.13125000  0.88125000  1.0
  Nb  Nb61  1  0.96458333  0.46458333  0.88125000  1.0
  Nb  Nb62  1  0.96458333  0.79791667  0.88125000  1.0
  Nb  Nb63  1  0.08125000  0.24791667  0.83125000  1.0
  Nb  Nb64  1  0.08125000  0.58125000  0.83125000  1.0
  Nb  Nb65  1  0.08125000  0.91458333  0.83125000  1.0
  Nb  Nb66  1  0.41458333  0.24791667  0.83125000  1.0
  Nb  Nb67  1  0.41458333  0.58125000  0.83125000  1.0
  Nb  Nb68  1  0.41458333  0.91458333  0.83125000  1.0
  Nb  Nb69  1  0.74791667  0.24791667  0.83125000  1.0
  Nb  Nb70  1  0.74791667  0.58125000  0.83125000  1.0
  Nb  Nb71  1  0.74791667  0.91458333  0.83125000  1.0
  Nb  Nb72  1  0.21875000  0.30208333  0.84375000  1.0
  Nb  Nb73  1  0.21875000  0.63541667  0.84375000  1.0
  Nb  Nb74  1  0.21875000  0.96875000  0.84375000  1.0
  Nb  Nb75  1  0.55208333  0.30208333  0.84375000  1.0
  Nb  Nb76  1  0.55208333  0.63541667  0.84375000  1.0
  Nb  Nb77  1  0.55208333  0.96875000  0.84375000  1.0
  Nb  Nb78  1  0.88541667  0.30208333  0.84375000  1.0
  Nb  Nb79  1  0.88541667  0.63541667  0.84375000  1.0
  Nb  Nb80  1  0.88541667  0.96875000  0.84375000  1.0
  Nb  Nb81  1  0.10208333  0.18541667  0.89375000  1.0
  Nb  Nb82  1  0.10208333  0.51875000  0.89375000  1.0
  Nb  Nb83  1  0.10208333  0.85208333  0.89375000  1.0
  Nb  Nb84  1  0.43541667  0.18541667  0.89375000  1.0
  Nb  Nb85  1  0.43541667  0.51875000  0.89375000  1.0
  Nb  Nb86  1  0.43541667  0.85208333  0.89375000  1.0
  Nb  Nb87  1  0.76875000  0.18541667  0.89375000  1.0
  Nb  Nb88  1  0.76875000  0.51875000  0.89375000  1.0
  Nb  Nb89  1  0.76875000  0.85208333  0.89375000  1.0
  Nb  Nb90  1  0.16041667  0.07708333  0.86875000  1.0
  Nb  Nb91  1  0.16041667  0.41041667  0.86875000  1.0
  Nb  Nb92  1  0.16041667  0.74375000  0.86875000  1.0
  Nb  Nb93  1  0.49375000  0.07708333  0.86875000  1.0
  Nb  Nb94  1  0.49375000  0.41041667  0.86875000  1.0
  Nb  Nb95  1  0.49375000  0.74375000  0.86875000  1.0
  Nb  Nb96  1  0.82708333  0.07708333  0.86875000  1.0
  Nb  Nb97  1  0.82708333  0.41041667  0.86875000  1.0
  Nb  Nb98  1  0.82708333  0.74375000  0.86875000  1.0
  Nb  Nb99  1  0.27708333  0.19375000  0.81875000  1.0
  Nb  Nb100  1  0.27708333  0.52708333  0.81875000  1.0
  Nb  Nb101  1  0.27708333  0.86041667  0.81875000  1.0
  Nb  Nb102  1  0.61041667  0.19375000  0.81875000  1.0
  Nb  Nb103  1  0.61041667  0.52708333  0.81875000  1.0
  Nb  Nb104  1  0.61041667  0.86041667  0.81875000  1.0
  Nb  Nb105  1  0.94375000  0.19375000  0.81875000  1.0
  Nb  Nb106  1  0.94375000  0.52708333  0.81875000  1.0
  Nb  Nb107  1  0.94375000  0.86041667  0.81875000  1.0
  Nb  Nb108  1  0.19791667  0.03125000  0.78125000  1.0
  Nb  Nb109  1  0.19791667  0.36458333  0.78125000  1.0
  Nb  Nb110  1  0.19791667  0.69791667  0.78125000  1.0
  Nb  Nb111  1  0.53125000  0.03125000  0.78125000  1.0
  Nb  Nb112  1  0.53125000  0.36458333  0.78125000  1.0
  Nb  Nb113  1  0.53125000  0.69791667  0.78125000  1.0
  Nb  Nb114  1  0.86458333  0.03125000  0.78125000  1.0
  Nb  Nb115  1  0.86458333  0.36458333  0.78125000  1.0
  Nb  Nb116  1  0.86458333  0.69791667  0.78125000  1.0
  Nb  Nb117  1  0.31458333  0.14791667  0.73125000  1.0
  Nb  Nb118  1  0.31458333  0.48125000  0.73125000  1.0
  Nb  Nb119  1  0.31458333  0.81458333  0.73125000  1.0
  Nb  Nb120  1  0.64791667  0.14791667  0.73125000  1.0
  Nb  Nb121  1  0.64791667  0.48125000  0.73125000  1.0
  Nb  Nb122  1  0.64791667  0.81458333  0.73125000  1.0
  Nb  Nb123  1  0.98125000  0.14791667  0.73125000  1.0
  Nb  Nb124  1  0.98125000  0.48125000  0.73125000  1.0
  Nb  Nb125  1  0.98125000  0.81458333  0.73125000  1.0
  Nb  Nb126  1  0.11875000  0.20208333  0.74375000  1.0
  Nb  Nb127  1  0.11875000  0.53541667  0.74375000  1.0
  Nb  Nb128  1  0.11875000  0.86875000  0.74375000  1.0
  Nb  Nb129  1  0.45208333  0.20208333  0.74375000  1.0
  Nb  Nb130  1  0.45208333  0.53541667  0.74375000  1.0
  Nb  Nb131  1  0.45208333  0.86875000  0.74375000  1.0
  Nb  Nb132  1  0.78541667  0.20208333  0.74375000  1.0
  Nb  Nb133  1  0.78541667  0.53541667  0.74375000  1.0
  Nb  Nb134  1  0.78541667  0.86875000  0.74375000  1.0
  Nb  Nb135  1  0.00208333  0.08541667  0.79375000  1.0
  Nb  Nb136  1  0.00208333  0.41875000  0.79375000  1.0
  Nb  Nb137  1  0.00208333  0.75208333  0.79375000  1.0
  Nb  Nb138  1  0.33541667  0.08541667  0.79375000  1.0
  Nb  Nb139  1  0.33541667  0.41875000  0.79375000  1.0
  Nb  Nb140  1  0.33541667  0.75208333  0.79375000  1.0
  Nb  Nb141  1  0.66875000  0.08541667  0.79375000  1.0
  Nb  Nb142  1  0.66875000  0.41875000  0.79375000  1.0
  Nb  Nb143  1  0.66875000  0.75208333  0.79375000  1.0
  Nb  Nb144  1  0.06041667  0.31041667  0.76875000  1.0
  Nb  Nb145  1  0.06041667  0.64375000  0.76875000  1.0
  Nb  Nb146  1  0.06041667  0.97708333  0.76875000  1.0
  Nb  Nb147  1  0.39375000  0.31041667  0.76875000  1.0
  Nb  Nb148  1  0.39375000  0.64375000  0.76875000  1.0
  Nb  Nb149  1  0.39375000  0.97708333  0.76875000  1.0
  Nb  Nb150  1  0.72708333  0.31041667  0.76875000  1.0
  Nb  Nb151  1  0.72708333  0.64375000  0.76875000  1.0
  Nb  Nb152  1  0.72708333  0.97708333  0.76875000  1.0
  Nb  Nb153  1  0.17708333  0.09375000  0.71875000  1.0
  Nb  Nb154  1  0.17708333  0.42708333  0.71875000  1.0
  Nb  Nb155  1  0.17708333  0.76041667  0.71875000  1.0
  Nb  Nb156  1  0.51041667  0.09375000  0.71875000  1.0
  Nb  Nb157  1  0.51041667  0.42708333  0.71875000  1.0
  Nb  Nb158  1  0.51041667  0.76041667  0.71875000  1.0
  Nb  Nb159  1  0.84375000  0.09375000  0.71875000  1.0
  Nb  Nb160  1  0.84375000  0.42708333  0.71875000  1.0
  Nb  Nb161  1  0.84375000  0.76041667  0.71875000  1.0
  Nb  Nb162  1  0.09791667  0.26458333  0.68125000  1.0
  Nb  Nb163  1  0.09791667  0.59791667  0.68125000  1.0
  Nb  Nb164  1  0.09791667  0.93125000  0.68125000  1.0
  Nb  Nb165  1  0.43125000  0.26458333  0.68125000  1.0
  Nb  Nb166  1  0.43125000  0.59791667  0.68125000  1.0
  Nb  Nb167  1  0.43125000  0.93125000  0.68125000  1.0
  Nb  Nb168  1  0.76458333  0.26458333  0.68125000  1.0
  Nb  Nb169  1  0.76458333  0.59791667  0.68125000  1.0
  Nb  Nb170  1  0.76458333  0.93125000  0.68125000  1.0
  Nb  Nb171  1  0.21458333  0.04791667  0.63125000  1.0
  Nb  Nb172  1  0.21458333  0.38125000  0.63125000  1.0
  Nb  Nb173  1  0.21458333  0.71458333  0.63125000  1.0
  Nb  Nb174  1  0.54791667  0.04791667  0.63125000  1.0
  Nb  Nb175  1  0.54791667  0.38125000  0.63125000  1.0
  Nb  Nb176  1  0.54791667  0.71458333  0.63125000  1.0
  Nb  Nb177  1  0.88125000  0.04791667  0.63125000  1.0
  Nb  Nb178  1  0.88125000  0.38125000  0.63125000  1.0
  Nb  Nb179  1  0.88125000  0.71458333  0.63125000  1.0
  Nb  Nb180  1  0.01875000  0.10208333  0.64375000  1.0
  Nb  Nb181  1  0.01875000  0.43541667  0.64375000  1.0
  Nb  Nb182  1  0.01875000  0.76875000  0.64375000  1.0
  Nb  Nb183  1  0.35208333  0.10208333  0.64375000  1.0
  Nb  Nb184  1  0.35208333  0.43541667  0.64375000  1.0
  Nb  Nb185  1  0.35208333  0.76875000  0.64375000  1.0
  Nb  Nb186  1  0.68541667  0.10208333  0.64375000  1.0
  Nb  Nb187  1  0.68541667  0.43541667  0.64375000  1.0
  Nb  Nb188  1  0.68541667  0.76875000  0.64375000  1.0
  Nb  Nb189  1  0.23541667  0.31875000  0.69375000  1.0
  Nb  Nb190  1  0.23541667  0.65208333  0.69375000  1.0
  Nb  Nb191  1  0.23541667  0.98541667  0.69375000  1.0
  Nb  Nb192  1  0.56875000  0.31875000  0.69375000  1.0
  Nb  Nb193  1  0.56875000  0.65208333  0.69375000  1.0
  Nb  Nb194  1  0.56875000  0.98541667  0.69375000  1.0
  Nb  Nb195  1  0.90208333  0.31875000  0.69375000  1.0
  Nb  Nb196  1  0.90208333  0.65208333  0.69375000  1.0
  Nb  Nb197  1  0.90208333  0.98541667  0.69375000  1.0
  Nb  Nb198  1  0.29375000  0.21041667  0.66875000  1.0
  Nb  Nb199  1  0.29375000  0.54375000  0.66875000  1.0
  Nb  Nb200  1  0.29375000  0.87708333  0.66875000  1.0
  Nb  Nb201  1  0.62708333  0.21041667  0.66875000  1.0
  Nb  Nb202  1  0.62708333  0.54375000  0.66875000  1.0
  Nb  Nb203  1  0.62708333  0.87708333  0.66875000  1.0
  Nb  Nb204  1  0.96041667  0.21041667  0.66875000  1.0
  Nb  Nb205  1  0.96041667  0.54375000  0.66875000  1.0
  Nb  Nb206  1  0.96041667  0.87708333  0.66875000  1.0
  Nb  Nb207  1  0.07708333  0.32708333  0.61875000  1.0
  Nb  Nb208  1  0.07708333  0.66041667  0.61875000  1.0
  Nb  Nb209  1  0.07708333  0.99375000  0.61875000  1.0
  Nb  Nb210  1  0.41041667  0.32708333  0.61875000  1.0
  Nb  Nb211  1  0.41041667  0.66041667  0.61875000  1.0
  Nb  Nb212  1  0.41041667  0.99375000  0.61875000  1.0
  Nb  Nb213  1  0.74375000  0.32708333  0.61875000  1.0
  Nb  Nb214  1  0.74375000  0.66041667  0.61875000  1.0
  Nb  Nb215  1  0.74375000  0.99375000  0.61875000  1.0
  Ni  Ni216  1  0.12291667  0.12291667  0.95625000  1.0
  Ni  Ni217  1  0.12291667  0.45625000  0.95625000  1.0
  Ni  Ni218  1  0.12291667  0.78958333  0.95625000  1.0
  Ni  Ni219  1  0.45625000  0.12291667  0.95625000  1.0
  Ni  Ni220  1  0.45625000  0.45625000  0.95625000  1.0
  Ni  Ni221  1  0.45625000  0.78958333  0.95625000  1.0
  Ni  Ni222  1  0.78958333  0.12291667  0.95625000  1.0
  Ni  Ni223  1  0.78958333  0.45625000  0.95625000  1.0
  Ni  Ni224  1  0.78958333  0.78958333  0.95625000  1.0
  Ni  Ni225  1  0.23958333  0.23958333  0.90625000  1.0
  Ni  Ni226  1  0.23958333  0.57291667  0.90625000  1.0
  Ni  Ni227  1  0.23958333  0.90625000  0.90625000  1.0
  Ni  Ni228  1  0.57291667  0.23958333  0.90625000  1.0
  Ni  Ni229  1  0.57291667  0.57291667  0.90625000  1.0
  Ni  Ni230  1  0.57291667  0.90625000  0.90625000  1.0
  Ni  Ni231  1  0.90625000  0.23958333  0.90625000  1.0
  Ni  Ni232  1  0.90625000  0.57291667  0.90625000  1.0
  Ni  Ni233  1  0.90625000  0.90625000  0.90625000  1.0
  Ni  Ni234  1  0.02291667  0.02291667  0.85625000  1.0
  Ni  Ni235  1  0.02291667  0.35625000  0.85625000  1.0
  Ni  Ni236  1  0.02291667  0.68958333  0.85625000  1.0
  Ni  Ni237  1  0.35625000  0.02291667  0.85625000  1.0
  Ni  Ni238  1  0.35625000  0.35625000  0.85625000  1.0
  Ni  Ni239  1  0.35625000  0.68958333  0.85625000  1.0
  Ni  Ni240  1  0.68958333  0.02291667  0.85625000  1.0
  Ni  Ni241  1  0.68958333  0.35625000  0.85625000  1.0
  Ni  Ni242  1  0.68958333  0.68958333  0.85625000  1.0
  Ni  Ni243  1  0.13958333  0.13958333  0.80625000  1.0
  Ni  Ni244  1  0.13958333  0.47291667  0.80625000  1.0
  Ni  Ni245  1  0.13958333  0.80625000  0.80625000  1.0
  Ni  Ni246  1  0.47291667  0.13958333  0.80625000  1.0
  Ni  Ni247  1  0.47291667  0.47291667  0.80625000  1.0
  Ni  Ni248  1  0.47291667  0.80625000  0.80625000  1.0
  Ni  Ni249  1  0.80625000  0.13958333  0.80625000  1.0
  Ni  Ni250  1  0.80625000  0.47291667  0.80625000  1.0
  Ni  Ni251  1  0.80625000  0.80625000  0.80625000  1.0
  Ni  Ni252  1  0.25625000  0.25625000  0.75625000  1.0
  Ni  Ni253  1  0.25625000  0.58958333  0.75625000  1.0
  Ni  Ni254  1  0.25625000  0.92291667  0.75625000  1.0
  Ni  Ni255  1  0.58958333  0.25625000  0.75625000  1.0
  Ni  Ni256  1  0.58958333  0.58958333  0.75625000  1.0
  Ni  Ni257  1  0.58958333  0.92291667  0.75625000  1.0
  Ni  Ni258  1  0.92291667  0.25625000  0.75625000  1.0
  Ni  Ni259  1  0.92291667  0.58958333  0.75625000  1.0
  Ni  Ni260  1  0.92291667  0.92291667  0.75625000  1.0
  Ni  Ni261  1  0.03958333  0.03958333  0.70625000  1.0
  Ni  Ni262  1  0.03958333  0.37291667  0.70625000  1.0
  Ni  Ni263  1  0.03958333  0.70625000  0.70625000  1.0
  Ni  Ni264  1  0.37291667  0.03958333  0.70625000  1.0
  Ni  Ni265  1  0.37291667  0.37291667  0.70625000  1.0
  Ni  Ni266  1  0.37291667  0.70625000  0.70625000  1.0
  Ni  Ni267  1  0.70625000  0.03958333  0.70625000  1.0
  Ni  Ni268  1  0.70625000  0.37291667  0.70625000  1.0
  Ni  Ni269  1  0.70625000  0.70625000  0.70625000  1.0
  Ni  Ni270  1  0.15625000  0.15625000  0.65625000  1.0
  Ni  Ni271  1  0.15625000  0.48958333  0.65625000  1.0
  Ni  Ni272  1  0.15625000  0.82291667  0.65625000  1.0
  Ni  Ni273  1  0.48958333  0.15625000  0.65625000  1.0
  Ni  Ni274  1  0.48958333  0.48958333  0.65625000  1.0
  Ni  Ni275  1  0.48958333  0.82291667  0.65625000  1.0
  Ni  Ni276  1  0.82291667  0.15625000  0.65625000  1.0
  Ni  Ni277  1  0.82291667  0.48958333  0.65625000  1.0
  Ni  Ni278  1  0.82291667  0.82291667  0.65625000  1.0
  Ni  Ni279  1  0.27291667  0.27291667  0.60625000  1.0
  Ni  Ni280  1  0.27291667  0.60625000  0.60625000  1.0
  Ni  Ni281  1  0.27291667  0.93958333  0.60625000  1.0
  Ni  Ni282  1  0.60625000  0.27291667  0.60625000  1.0
  Ni  Ni283  1  0.60625000  0.60625000  0.60625000  1.0
  Ni  Ni284  1  0.60625000  0.93958333  0.60625000  1.0
  Ni  Ni285  1  0.93958333  0.27291667  0.60625000  1.0
  Ni  Ni286  1  0.93958333  0.60625000  0.60625000  1.0
  Ni  Ni287  1  0.93958333  0.93958333  0.60625000  1.0
