# generated using pymatgen
data_Nb3Ni
_symmetry_space_group_name_H-M   'P 1'
_cell_length_a   16.83148050
_cell_length_b   27.99088064
_cell_length_c   101.38697960
_cell_angle_alpha   23.03507865
_cell_angle_beta   90.00000000
_cell_angle_gamma   72.50274699
_symmetry_Int_Tables_number   1
_chemical_formula_structural   Nb3Ni
_chemical_formula_sum   'Nb216 Ni72'
_cell_volume   11962.08229844
_cell_formula_units_Z   72
loop_
 _symmetry_equiv_pos_site_id
 _symmetry_equiv_pos_as_xyz
  1  'x, y, z'
loop_
 _atom_site_type_symbol
 _atom_site_label
 _atom_site_symmetry_multiplicity
 _atom_site_fract_x
 _atom_site_fract_y
 _atom_site_fract_z
 _atom_site_occupancy
  Nb  Nb0  1  0.16666667  0.00000000  0.03750000  1.0
  Nb  Nb1  1  0.16666667  0.33333333  0.03750000  1.0
  Nb  Nb2  1  0.16666667  0.66666667  0.03750000  1.0
  Nb  Nb3  1  0.50000000  0.00000000  0.03750000  1.0
  Nb  Nb4  1  0.50000000  0.33333333  0.03750000  1.0
  Nb  Nb5  1  0.50000000  0.66666667  0.03750000  1.0
  Nb  Nb6  1  0.83333333  0.00000000  0.03750000  1.0
  Nb  Nb7  1  0.83333333  0.33333333  0.03750000  1.0
  Nb  Nb8  1  0.83333333  0.66666667  0.03750000  1.0
  Nb  Nb9  1  0.08333333  0.33333333  0.01250000  1.0
  Nb  Nb10  1  0.08333333  0.66666667  0.01250000  1.0
  Nb  Nb11  1  0.08333333  0.00000000  0.01250000  1.0
  Nb  Nb12  1  0.41666667  0.33333333  0.01250000  1.0
  Nb  Nb13  1  0.41666667  0.66666667  0.01250000  1.0
  Nb  Nb14  1  0.41666667  0.00000000  0.01250000  1.0
  Nb  Nb15  1  0.75000000  0.33333333  0.01250000  1.0
  Nb  Nb16  1  0.75000000  0.66666667  0.01250000  1.0
  Nb  Nb17  1  0.75000000  0.00000000  0.01250000  1.0
  Nb  Nb18  1  0.25000000  0.00000000  0.01250000  1.0
  Nb  Nb19  1  0.25000000  0.33333333  0.01250000  1.0
  Nb  Nb20  1  0.25000000  0.66666667  0.01250000  1.0
  Nb  Nb21  1  0.58333333  0.00000000  0.01250000  1.0
  Nb  Nb22  1  0.58333333  0.33333333  0.01250000  1.0
  Nb  Nb23  1  0.58333333  0.66666667  0.01250000  1.0
  Nb  Nb24  1  0.91666667  0.00000000  0.01250000  1.0
  Nb  Nb25  1  0.91666667  0.33333333  0.01250000  1.0
  Nb  Nb26  1  0.91666667  0.66666667  0.01250000  1.0
  Ni  Ni27  1  0.00000000  0.00000000  0.03750000  1.0
  Ni  Ni28  1  0.00000000  0.33333333  0.03750000  1.0
  Ni  Ni29  1  0.00000000  0.66666667  0.03750000  1.0
  Ni  Ni30  1  0.33333333  0.00000000  0.03750000  1.0
  Ni  Ni31  1  0.33333333  0.33333333  0.03750000  1.0
  Ni  Ni32  1  0.33333333  0.66666667  0.03750000  1.0
  Ni  Ni33  1  0.66666667  0.00000000  0.03750000  1.0
  Ni  Ni34  1  0.66666667  0.33333333  0.03750000  1.0
  Ni  Ni35  1  0.66666667  0.66666667  0.03750000  1.0
  Nb  Nb36  1  0.16666667  0.00000000  0.08750000  1.0
  Nb  Nb37  1  0.16666667  0.33333333  0.08750000  1.0
  Nb  Nb38  1  0.16666667  0.66666667  0.08750000  1.0
  Nb  Nb39  1  0.50000000  0.00000000  0.08750000  1.0
  Nb  Nb40  1  0.50000000  0.33333333  0.08750000  1.0
  Nb  Nb41  1  0.50000000  0.66666667  0.08750000  1.0
  Nb  Nb42  1  0.83333333  0.00000000  0.08750000  1.0
  Nb  Nb43  1  0.83333333  0.33333333  0.08750000  1.0
  Nb  Nb44  1  0.83333333  0.66666667  0.08750000  1.0
  Nb  Nb45  1  0.08333333  0.33333333  0.06250000  1.0
  Nb  Nb46  1  0.08333333  0.66666667  0.06250000  1.0
  Nb  Nb47  1  0.08333333  0.00000000  0.06250000  1.0
  Nb  Nb48  1  0.41666667  0.33333333  0.06250000  1.0
  Nb  Nb49  1  0.41666667  0.66666667  0.06250000  1.0
  Nb  Nb50  1  0.41666667  0.00000000  0.06250000  1.0
  Nb  Nb51  1  0.75000000  0.33333333  0.06250000  1.0
  Nb  Nb52  1  0.75000000  0.66666667  0.06250000  1.0
  Nb  Nb53  1  0.75000000  0.00000000  0.06250000  1.0
  Nb  Nb54  1  0.25000000  0.00000000  0.06250000  1.0
  Nb  Nb55  1  0.25000000  0.33333333  0.06250000  1.0
  Nb  Nb56  1  0.25000000  0.66666667  0.06250000  1.0
  Nb  Nb57  1  0.58333333  0.00000000  0.06250000  1.0
  Nb  Nb58  1  0.58333333  0.33333333  0.06250000  1.0
  Nb  Nb59  1  0.58333333  0.66666667  0.06250000  1.0
  Nb  Nb60  1  0.91666667  0.00000000  0.06250000  1.0
  Nb  Nb61  1  0.91666667  0.33333333  0.06250000  1.0
  Nb  Nb62  1  0.91666667  0.66666667  0.06250000  1.0
  Ni  Ni63  1  0.00000000  0.00000000  0.08750000  1.0
  Ni  Ni64  1  0.00000000  0.33333333  0.08750000  1.0
  Ni  Ni65  1  0.00000000  0.66666667  0.08750000  1.0
  Ni  Ni66  1  0.33333333  0.00000000  0.08750000  1.0
  Ni  Ni67  1  0.33333333  0.33333333  0.08750000  1.0
  Ni  Ni68  1  0.33333333  0.66666667  0.08750000  1.0
  Ni  Ni69  1  0.66666667  0.00000000  0.08750000  1.0
  Ni  Ni70  1  0.66666667  0.33333333  0.08750000  1.0
  Ni  Ni71  1  0.66666667  0.66666667  0.08750000  1.0
  Nb  Nb72  1  0.16666667  0.00000000  0.13750000  1.0
  Nb  Nb73  1  0.16666667  0.33333333  0.13750000  1.0
  Nb  Nb74  1  0.16666667  0.66666667  0.13750000  1.0
  Nb  Nb75  1  0.50000000  0.00000000  0.13750000  1.0
  Nb  Nb76  1  0.50000000  0.33333333  0.13750000  1.0
  Nb  Nb77  1  0.50000000  0.66666667  0.13750000  1.0
  Nb  Nb78  1  0.83333333  0.00000000  0.13750000  1.0
  Nb  Nb79  1  0.83333333  0.33333333  0.13750000  1.0
  Nb  Nb80  1  0.83333333  0.66666667  0.13750000  1.0
  Nb  Nb81  1  0.08333333  0.33333333  0.11250000  1.0
  Nb  Nb82  1  0.08333333  0.66666667  0.11250000  1.0
  Nb  Nb83  1  0.08333333  0.00000000  0.11250000  1.0
  Nb  Nb84  1  0.41666667  0.33333333  0.11250000  1.0
  Nb  Nb85  1  0.41666667  0.66666667  0.11250000  1.0
  Nb  Nb86  1  0.41666667  0.00000000  0.11250000  1.0
  Nb  Nb87  1  0.75000000  0.33333333  0.11250000  1.0
  Nb  Nb88  1  0.75000000  0.66666667  0.11250000  1.0
  Nb  Nb89  1  0.75000000  0.00000000  0.11250000  1.0
  Nb  Nb90  1  0.25000000  0.00000000  0.11250000  1.0
  Nb  Nb91  1  0.25000000  0.33333333  0.11250000  1.0
  Nb  Nb92  1  0.25000000  0.66666667  0.11250000  1.0
  Nb  Nb93  1  0.58333333  0.00000000  0.11250000  1.0
  Nb  Nb94  1  0.58333333  0.33333333  0.11250000  1.0
  Nb  Nb95  1  0.58333333  0.66666667  0.11250000  1.0
  Nb  Nb96  1  0.91666667  0.00000000  0.11250000  1.0
  Nb  Nb97  1  0.91666667  0.33333333  0.11250000  1.0
  Nb  Nb98  1  0.91666667  0.66666667  0.11250000  1.0
  Ni  Ni99  1  0.00000000  0.00000000  0.13750000  1.0
  Ni  Ni100  1  0.00000000  0.33333333  0.13750000  1.0
  Ni  Ni101  1  0.00000000  0.66666667  0.13750000  1.0
  Ni  Ni102  1  0.33333333  0.00000000  0.13750000  1.0
  Ni  Ni103  1  0.33333333  0.33333333  0.13750000  1.0
  Ni  Ni104  1  0.33333333  0.66666667  0.13750000  1.0
  Ni  Ni105  1  0.66666667  0.00000000  0.13750000  1.0
  Ni  Ni106  1  0.66666667  0.33333333  0.13750000  1.0
  Ni  Ni107  1  0.66666667  0.66666667  0.13750000  1.0
  Nb  Nb108  1  0.16666667  0.00000000  0.18750000  1.0
  Nb  Nb109  1  0.16666667  0.33333333  0.18750000  1.0
  Nb  Nb110  1  0.16666667  0.66666667  0.18750000  1.0
  Nb  Nb111  1  0.50000000  0.00000000  0.18750000  1.0
  Nb  Nb112  1  0.50000000  0.33333333  0.18750000  1.0
  Nb  Nb113  1  0.50000000  0.66666667  0.18750000  1.0
  Nb  Nb114  1  0.83333333  0.00000000  0.18750000  1.0
  Nb  Nb115  1  0.83333333  0.33333333  0.18750000  1.0
  Nb  Nb116  1  0.83333333  0.66666667  0.18750000  1.0
  Nb  Nb117  1  0.08333333  0.33333333  0.16250000  1.0
  Nb  Nb118  1  0.08333333  0.66666667  0.16250000  1.0
  Nb  Nb119  1  0.08333333  0.00000000  0.16250000  1.0
  Nb  Nb120  1  0.41666667  0.33333333  0.16250000  1.0
  Nb  Nb121  1  0.41666667  0.66666667  0.16250000  1.0
  Nb  Nb122  1  0.41666667  0.00000000  0.16250000  1.0
  Nb  Nb123  1  0.75000000  0.33333333  0.16250000  1.0
  Nb  Nb124  1  0.75000000  0.66666667  0.16250000  1.0
  Nb  Nb125  1  0.75000000  0.00000000  0.16250000  1.0
  Nb  Nb126  1  0.25000000  0.00000000  0.16250000  1.0
  Nb  Nb127  1  0.25000000  0.33333333  0.16250000  1.0
  Nb  Nb128  1  0.25000000  0.66666667  0.16250000  1.0
  Nb  Nb129  1  0.58333333  0.00000000  0.16250000  1.0
  Nb  Nb130  1  0.58333333  0.33333333  0.16250000  1.0
  Nb  Nb131  1  0.58333333  0.66666667  0.16250000  1.0
  Nb  Nb132  1  0.91666667  0.00000000  0.16250000  1.0
  Nb  Nb133  1  0.91666667  0.33333333  0.16250000  1.0
  Nb  Nb134  1  0.91666667  0.66666667  0.16250000  1.0
  Ni  Ni135  1  0.00000000  0.00000000  0.18750000  1.0
  Ni  Ni136  1  0.00000000  0.33333333  0.18750000  1.0
  Ni  Ni137  1  0.00000000  0.66666667  0.18750000  1.0
  Ni  Ni138  1  0.33333333  0.00000000  0.18750000  1.0
  Ni  Ni139  1  0.33333333  0.33333333  0.18750000  1.0
  Ni  Ni140  1  0.33333333  0.66666667  0.18750000  1.0
  Ni  Ni141  1  0.66666667  0.00000000  0.18750000  1.0
  Ni  Ni142  1  0.66666667  0.33333333  0.18750000  1.0
  Ni  Ni143  1  0.66666667  0.66666667  0.18750000  1.0
  Nb  Nb144  1  0.16666667  0.00000000  0.23750000  1.0
  Nb  Nb145  1  0.16666667  0.33333333  0.23750000  1.0
  Nb  Nb146  1  0.16666667  0.66666667  0.23750000  1.0
  Nb  Nb147  1  0.50000000  0.00000000  0.23750000  1.0
  Nb  Nb148  1  0.50000000  0.33333333  0.23750000  1.0
  Nb  Nb149  1  0.50000000  0.66666667  0.23750000  1.0
  Nb  Nb150  1  0.83333333  0.00000000  0.23750000  1.0
  Nb  Nb151  1  0.83333333  0.33333333  0.23750000  1.0
  Nb  Nb152  1  0.83333333  0.66666667  0.23750000  1.0
  Nb  Nb153  1  0.08333333  0.33333333  0.21250000  1.0
  Nb  Nb154  1  0.08333333  0.66666667  0.21250000  1.0
  Nb  Nb155  1  0.08333333  0.00000000  0.21250000  1.0
  Nb  Nb156  1  0.41666667  0.33333333  0.21250000  1.0
  Nb  Nb157  1  0.41666667  0.66666667  0.21250000  1.0
  Nb  Nb158  1  0.41666667  0.00000000  0.21250000  1.0
  Nb  Nb159  1  0.75000000  0.33333333  0.21250000  1.0
  Nb  Nb160  1  0.75000000  0.66666667  0.21250000  1.0
  Nb  Nb161  1  0.75000000  0.00000000  0.21250000  1.0
  Nb  Nb162  1  0.25000000  0.00000000  0.21250000  1.0
  Nb  Nb163  1  0.25000000  0.33333333  0.21250000  1.0
  Nb  Nb164  1  0.25000000  0.66666667  0.21250000  1.0
  Nb  Nb165  1  0.58333333  0.00000000  0.21250000  1.0
  Nb  Nb166  1  0.58333333  0.33333333  0.21250000  1.0
  Nb  Nb167  1  0.58333333  0.66666667  0.21250000  1.0
  Nb  Nb168  1  0.91666667  0.00000000  0.21250000  1.0
  Nb  Nb169  1  0.91666667  0.33333333  0.21250000  1.0
  Nb  Nb170  1  0.91666667  0.66666667  0.21250000  1.0
  Ni  Ni171  1  0.00000000  0.00000000  0.23750000  1.0
  Ni  Ni172  1  0.00000000  0.33333333  0.23750000  1.0
  Ni  Ni173  1  0.00000000  0.66666667  0.23750000  1.0
  Ni  Ni174  1  0.33333333  0.00000000  0.23750000  1.0
  Ni  Ni175  1  0.33333333  0.33333333  0.23750000  1.0
  Ni  Ni176  1  0.33333333  0.66666667  0.23750000  1.0
  Ni  Ni177  1  0.66666667  0.00000000  0.23750000  1.0
  Ni  Ni178  1  0.66666667  0.33333333  0.23750000  1.0
  Ni  Ni179  1  0.66666667  0.66666667  0.23750000  1.0
  Nb  Nb180  1  0.16666667  0.00000000  0.28750000  1.0
  Nb  Nb181  1  0.16666667  0.33333333  0.28750000  1.0
  Nb  Nb182  1  0.16666667  0.66666667  0.28750000  1.0
  Nb  Nb183  1  0.50000000  0.00000000  0.28750000  1.0
  Nb  Nb184  1  0.50000000  0.33333333  0.28750000  1.0
  Nb  Nb185  1  0.50000000  0.66666667  0.28750000  1.0
  Nb  Nb186  1  0.83333333  0.00000000  0.28750000  1.0
  Nb  Nb187  1  0.83333333  0.33333333  0.28750000  1.0
  Nb  Nb188  1  0.83333333  0.66666667  0.28750000  1.0
  Nb  Nb189  1  0.08333333  0.33333333  0.26250000  1.0
  Nb  Nb190  1  0.08333333  0.66666667  0.26250000  1.0
  Nb  Nb191  1  0.08333333  0.00000000  0.26250000  1.0
  Nb  Nb192  1  0.41666667  0.33333333  0.26250000  1.0
  Nb  Nb193  1  0.41666667  0.66666667  0.26250000  1.0
  Nb  Nb194  1  0.41666667  0.00000000  0.26250000  1.0
  Nb  Nb195  1  0.75000000  0.33333333  0.26250000  1.0
  Nb  Nb196  1  0.75000000  0.66666667  0.26250000  1.0
  Nb  Nb197  1  0.75000000  0.00000000  0.26250000  1.0
  Nb  Nb198  1  0.25000000  0.00000000  0.26250000  1.0
  Nb  Nb199  1  0.25000000  0.33333333  0.26250000  1.0
  Nb  Nb200  1  0.25000000  0.66666667  0.26250000  1.0
  Nb  Nb201  1  0.58333333  0.00000000  0.26250000  1.0
  Nb  Nb202  1  0.58333333  0.33333333  0.26250000  1.0
  Nb  Nb203  1  0.58333333  0.66666667  0.26250000  1.0
  Nb  Nb204  1  0.91666667  0.00000000  0.26250000  1.0
  Nb  Nb205  1  0.91666667  0.33333333  0.26250000  1.0
  Nb  Nb206  1  0.91666667  0.66666667  0.26250000  1.0
  Ni  Ni207  1  0.00000000  0.00000000  0.28750000  1.0
  Ni  Ni208  1  0.00000000  0.33333333  0.28750000  1.0
  Ni  Ni209  1  0.00000000  0.66666667  0.28750000  1.0
  Ni  Ni210  1  0.33333333  0.00000000  0.28750000  1.0
  Ni  Ni211  1  0.33333333  0.33333333  0.28750000  1.0
  Ni  Ni212  1  0.33333333  0.66666667  0.28750000  1.0
  Ni  Ni213  1  0.66666667  0.00000000  0.28750000  1.0
  Ni  Ni214  1  0.66666667  0.33333333  0.28750000  1.0
  Ni  Ni215  1  0.66666667  0.66666667  0.28750000  1.0
  Nb  Nb216  1  0.16666667  0.00000000  0.33750000  1.0
  Nb  Nb217  1  0.16666667  0.33333333  0.33750000  1.0
  Nb  Nb218  1  0.16666667  0.66666667  0.33750000  1.0
  Nb  Nb219  1  0.50000000  0.00000000  0.33750000  1.0
  Nb  Nb220  1  0.50000000  0.33333333  0.33750000  1.0
  Nb  Nb221  1  0.50000000  0.66666667  0.33750000  1.0
  Nb  Nb222  1  0.83333333  0.00000000  0.33750000  1.0
  Nb  Nb223  1  0.83333333  0.33333333  0.33750000  1.0
  Nb  Nb224  1  0.83333333  0.66666667  0.33750000  1.0
  Nb  Nb225  1  0.08333333  0.33333333  0.31250000  1.0
  Nb  Nb226  1  0.08333333  0.66666667  0.31250000  1.0
  Nb  Nb227  1  0.08333333  0.00000000  0.31250000  1.0
  Nb  Nb228  1  0.41666667  0.33333333  0.31250000  1.0
  Nb  Nb229  1  0.41666667  0.66666667  0.31250000  1.0
  Nb  Nb230  1  0.41666667  0.00000000  0.31250000  1.0
  Nb  Nb231  1  0.75000000  0.33333333  0.31250000  1.0
  Nb  Nb232  1  0.75000000  0.66666667  0.31250000  1.0
  Nb  Nb233  1  0.75000000  0.00000000  0.31250000  1.0
  Nb  Nb234  1  0.25000000  0.00000000  0.31250000  1.0
  Nb  Nb235  1  0.25000000  0.33333333  0.31250000  1.0
  Nb  Nb236  1  0.25000000  0.66666667  0.31250000  1.0
  Nb  Nb237  1  0.58333333  0.00000000  0.31250000  1.0
  Nb  Nb238  1  0.58333333  0.33333333  0.31250000  1.0
  Nb  Nb239  1  0.58333333  0.66666667  0.31250000  1.0
  Nb  Nb240  1  0.91666667  0.00000000  0.31250000  1.0
  Nb  Nb241  1  0.91666667  0.33333333  0.31250000  1.0
  Nb  Nb242  1  0.91666667  0.66666667  0.31250000  1.0
  Ni  Ni243  1  0.00000000  0.00000000  0.33750000  1.0
  Ni  Ni244  1  0.00000000  0.33333333  0.33750000  1.0
  Ni  Ni245  1  0.00000000  0.66666667  0.33750000  1.0
  Ni  Ni246  1  0.33333333  0.00000000  0.33750000  1.0
  Ni  Ni247  1  0.33333333  0.33333333  0.33750000  1.0
  Ni  Ni248  1  0.33333333  0.66666667  0.33750000  1.0
  Ni  Ni249  1  0.66666667  0.00000000  0.33750000  1.0
  Ni  Ni250  1  0.66666667  0.33333333  0.33750000  1.0
  Ni  Ni251  1  0.66666667  0.66666667  0.33750000  1.0
  Nb  Nb252  1  0.16666667  0.00000000  0.38750000  1.0
  Nb  Nb253  1  0.16666667  0.33333333  0.38750000  1.0
  Nb  Nb254  1  0.16666667  0.66666667  0.38750000  1.0
  Nb  Nb255  1  0.50000000  0.00000000  0.38750000  1.0
  Nb  Nb256  1  0.50000000  0.33333333  0.38750000  1.0
  Nb  Nb257  1  0.50000000  0.66666667  0.38750000  1.0
  Nb  Nb258  1  0.83333333  0.00000000  0.38750000  1.0
  Nb  Nb259  1  0.83333333  0.33333333  0.38750000  1.0
  Nb  Nb260  1  0.83333333  0.66666667  0.38750000  1.0
  Nb  Nb261  1  0.08333333  0.33333333  0.36250000  1.0
  Nb  Nb262  1  0.08333333  0.66666667  0.36250000  1.0
  Nb  Nb263  1  0.08333333  0.00000000  0.36250000  1.0
  Nb  Nb264  1  0.41666667  0.33333333  0.36250000  1.0
  Nb  Nb265  1  0.41666667  0.66666667  0.36250000  1.0
  Nb  Nb266  1  0.41666667  0.00000000  0.36250000  1.0
  Nb  Nb267  1  0.75000000  0.33333333  0.36250000  1.0
  Nb  Nb268  1  0.75000000  0.66666667  0.36250000  1.0
  Nb  Nb269  1  0.75000000  0.00000000  0.36250000  1.0
  Nb  Nb270  1  0.25000000  0.00000000  0.36250000  1.0
  Nb  Nb271  1  0.25000000  0.33333333  0.36250000  1.0
  Nb  Nb272  1  0.25000000  0.66666667  0.36250000  1.0
  Nb  Nb273  1  0.58333333  0.00000000  0.36250000  1.0
  Nb  Nb274  1  0.58333333  0.33333333  0.36250000  1.0
  Nb  Nb275  1  0.58333333  0.66666667  0.36250000  1.0
  Nb  Nb276  1  0.91666667  0.00000000  0.36250000  1.0
  Nb  Nb277  1  0.91666667  0.33333333  0.36250000  1.0
  Nb  Nb278  1  0.91666667  0.66666667  0.36250000  1.0
  Ni  Ni279  1  0.00000000  0.00000000  0.38750000  1.0
  Ni  Ni280  1  0.00000000  0.33333333  0.38750000  1.0
  Ni  Ni281  1  0.00000000  0.66666667  0.38750000  1.0
  Ni  Ni282  1  0.33333333  0.00000000  0.38750000  1.0
  Ni  Ni283  1  0.33333333  0.33333333  0.38750000  1.0
  Ni  Ni284  1  0.33333333  0.66666667  0.38750000  1.0
  Ni  Ni285  1  0.66666667  0.00000000  0.38750000  1.0
  Ni  Ni286  1  0.66666667  0.33333333  0.38750000  1.0
  Ni  Ni287  1  0.66666667  0.66666667  0.38750000  1.0
