# generated using pymatgen
data_Nb5Ni
_symmetry_space_group_name_H-M   'P 1'
_cell_length_a   25.30748322
_cell_length_b   25.30748322
_cell_length_c   42.17913870
_cell_angle_alpha   120.00000000
_cell_angle_beta   120.00000000
_cell_angle_gamma   60.00000000
_symmetry_Int_Tables_number   1
_chemical_formula_structural   Nb5Ni
_chemical_formula_sum   'Nb360 Ni72'
_cell_volume   19102.07845646
_cell_formula_units_Z   72
loop_
 _symmetry_equiv_pos_site_id
 _symmetry_equiv_pos_as_xyz
  1  'x, y, z'
loop_
 _atom_site_type_symbol
 _atom_site_label
 _atom_site_symmetry_multiplicity
 _atom_site_fract_x
 _atom_site_fract_y
 _atom_site_fract_z
 _atom_site_occupancy
  Nb  Nb0  1  0.16055167  0.27981611  0.02261027  1.0
  Nb  Nb1  1  0.16055167  0.61314944  0.02261027  1.0
  Nb  Nb2  1  0.16055167  0.94648278  0.02261027  1.0
  Nb  Nb3  1  0.49388500  0.27981611  0.02261027  1.0
  Nb  Nb4  1  0.49388500  0.61314944  0.02261027  1.0
  Nb  Nb5  1  0.49388500  0.94648278  0.02261027  1.0
  Nb  Nb6  1  0.82721833  0.27981611  0.02261027  1.0
  Nb  Nb7  1  0.82721833  0.61314944  0.02261027  1.0
  Nb  Nb8  1  0.82721833  0.94648278  0.02261027  1.0
  Nb  Nb9  1  0.27185033  0.06148300  0.15361013  1.0
  Nb  Nb10  1  0.27185033  0.39481633  0.15361013  1.0
  Nb  Nb11  1  0.27185033  0.72814967  0.15361013  1.0
  Nb  Nb12  1  0.60518367  0.06148300  0.15361013  1.0
  Nb  Nb13  1  0.60518367  0.39481633  0.15361013  1.0
  Nb  Nb14  1  0.60518367  0.72814967  0.15361013  1.0
  Nb  Nb15  1  0.93851700  0.06148300  0.15361013  1.0
  Nb  Nb16  1  0.93851700  0.39481633  0.15361013  1.0
  Nb  Nb17  1  0.93851700  0.72814967  0.15361013  1.0
  Nb  Nb18  1  0.27981611  0.16055167  0.02261027  1.0
  Nb  Nb19  1  0.27981611  0.49388500  0.02261027  1.0
  Nb  Nb20  1  0.27981611  0.82721833  0.02261027  1.0
  Nb  Nb21  1  0.61314944  0.16055167  0.02261027  1.0
  Nb  Nb22  1  0.61314944  0.49388500  0.02261027  1.0
  Nb  Nb23  1  0.61314944  0.82721833  0.02261027  1.0
  Nb  Nb24  1  0.94648278  0.16055167  0.02261027  1.0
  Nb  Nb25  1  0.94648278  0.49388500  0.02261027  1.0
  Nb  Nb26  1  0.94648278  0.82721833  0.02261027  1.0
  Nb  Nb27  1  0.14481633  0.02185033  0.17738973  1.0
  Nb  Nb28  1  0.14481633  0.35518367  0.17738973  1.0
  Nb  Nb29  1  0.14481633  0.68851700  0.17738973  1.0
  Nb  Nb30  1  0.47814967  0.02185033  0.17738973  1.0
  Nb  Nb31  1  0.47814967  0.35518367  0.17738973  1.0
  Nb  Nb32  1  0.47814967  0.68851700  0.17738973  1.0
  Nb  Nb33  1  0.81148300  0.02185033  0.17738973  1.0
  Nb  Nb34  1  0.81148300  0.35518367  0.17738973  1.0
  Nb  Nb35  1  0.81148300  0.68851700  0.17738973  1.0
  Nb  Nb36  1  0.25611500  0.13685056  0.10838960  1.0
  Nb  Nb37  1  0.25611500  0.47018389  0.10838960  1.0
  Nb  Nb38  1  0.25611500  0.80351722  0.10838960  1.0
  Nb  Nb39  1  0.58944833  0.13685056  0.10838960  1.0
  Nb  Nb40  1  0.58944833  0.47018389  0.10838960  1.0
  Nb  Nb41  1  0.58944833  0.80351722  0.10838960  1.0
  Nb  Nb42  1  0.92278167  0.13685056  0.10838960  1.0
  Nb  Nb43  1  0.92278167  0.47018389  0.10838960  1.0
  Nb  Nb44  1  0.92278167  0.80351722  0.10838960  1.0
  Nb  Nb45  1  0.14481633  0.02185033  0.10361013  1.0
  Nb  Nb46  1  0.14481633  0.35518367  0.10361013  1.0
  Nb  Nb47  1  0.14481633  0.68851700  0.10361013  1.0
  Nb  Nb48  1  0.47814967  0.02185033  0.10361013  1.0
  Nb  Nb49  1  0.47814967  0.35518367  0.10361013  1.0
  Nb  Nb50  1  0.47814967  0.68851700  0.10361013  1.0
  Nb  Nb51  1  0.81148300  0.02185033  0.10361013  1.0
  Nb  Nb52  1  0.81148300  0.35518367  0.10361013  1.0
  Nb  Nb53  1  0.81148300  0.68851700  0.10361013  1.0
  Nb  Nb54  1  0.02185033  0.14481633  0.17738973  1.0
  Nb  Nb55  1  0.02185033  0.47814967  0.17738973  1.0
  Nb  Nb56  1  0.02185033  0.81148300  0.17738973  1.0
  Nb  Nb57  1  0.35518367  0.14481633  0.17738973  1.0
  Nb  Nb58  1  0.35518367  0.47814967  0.17738973  1.0
  Nb  Nb59  1  0.35518367  0.81148300  0.17738973  1.0
  Nb  Nb60  1  0.68851700  0.14481633  0.17738973  1.0
  Nb  Nb61  1  0.68851700  0.47814967  0.17738973  1.0
  Nb  Nb62  1  0.68851700  0.81148300  0.17738973  1.0
  Nb  Nb63  1  0.13685056  0.25611500  0.10838960  1.0
  Nb  Nb64  1  0.13685056  0.58944833  0.10838960  1.0
  Nb  Nb65  1  0.13685056  0.92278167  0.10838960  1.0
  Nb  Nb66  1  0.47018389  0.25611500  0.10838960  1.0
  Nb  Nb67  1  0.47018389  0.58944833  0.10838960  1.0
  Nb  Nb68  1  0.47018389  0.92278167  0.10838960  1.0
  Nb  Nb69  1  0.80351722  0.25611500  0.10838960  1.0
  Nb  Nb70  1  0.80351722  0.58944833  0.10838960  1.0
  Nb  Nb71  1  0.80351722  0.92278167  0.10838960  1.0
  Nb  Nb72  1  0.27981611  0.27981611  0.02261027  1.0
  Nb  Nb73  1  0.27981611  0.61314944  0.02261027  1.0
  Nb  Nb74  1  0.27981611  0.94648278  0.02261027  1.0
  Nb  Nb75  1  0.61314944  0.27981611  0.02261027  1.0
  Nb  Nb76  1  0.61314944  0.61314944  0.02261027  1.0
  Nb  Nb77  1  0.61314944  0.94648278  0.02261027  1.0
  Nb  Nb78  1  0.94648278  0.27981611  0.02261027  1.0
  Nb  Nb79  1  0.94648278  0.61314944  0.02261027  1.0
  Nb  Nb80  1  0.94648278  0.94648278  0.02261027  1.0
  Nb  Nb81  1  0.13685056  0.13685056  0.03683094  1.0
  Nb  Nb82  1  0.13685056  0.47018389  0.03683094  1.0
  Nb  Nb83  1  0.13685056  0.80351722  0.03683094  1.0
  Nb  Nb84  1  0.47018389  0.13685056  0.03683094  1.0
  Nb  Nb85  1  0.47018389  0.47018389  0.03683094  1.0
  Nb  Nb86  1  0.47018389  0.80351722  0.03683094  1.0
  Nb  Nb87  1  0.80351722  0.13685056  0.03683094  1.0
  Nb  Nb88  1  0.80351722  0.47018389  0.03683094  1.0
  Nb  Nb89  1  0.80351722  0.80351722  0.03683094  1.0
  Nb  Nb90  1  0.02185033  0.02185033  0.10361013  1.0
  Nb  Nb91  1  0.02185033  0.35518367  0.10361013  1.0
  Nb  Nb92  1  0.02185033  0.68851700  0.10361013  1.0
  Nb  Nb93  1  0.35518367  0.02185033  0.10361013  1.0
  Nb  Nb94  1  0.35518367  0.35518367  0.10361013  1.0
  Nb  Nb95  1  0.35518367  0.68851700  0.10361013  1.0
  Nb  Nb96  1  0.68851700  0.02185033  0.10361013  1.0
  Nb  Nb97  1  0.68851700  0.35518367  0.10361013  1.0
  Nb  Nb98  1  0.68851700  0.68851700  0.10361013  1.0
  Nb  Nb99  1  0.14481633  0.14481633  0.17738973  1.0
  Nb  Nb100  1  0.14481633  0.47814967  0.17738973  1.0
  Nb  Nb101  1  0.14481633  0.81148300  0.17738973  1.0
  Nb  Nb102  1  0.47814967  0.14481633  0.17738973  1.0
  Nb  Nb103  1  0.47814967  0.47814967  0.17738973  1.0
  Nb  Nb104  1  0.47814967  0.81148300  0.17738973  1.0
  Nb  Nb105  1  0.81148300  0.14481633  0.17738973  1.0
  Nb  Nb106  1  0.81148300  0.47814967  0.17738973  1.0
  Nb  Nb107  1  0.81148300  0.81148300  0.17738973  1.0
  Nb  Nb108  1  0.27185033  0.27185033  0.15361013  1.0
  Nb  Nb109  1  0.27185033  0.60518367  0.15361013  1.0
  Nb  Nb110  1  0.27185033  0.93851700  0.15361013  1.0
  Nb  Nb111  1  0.60518367  0.27185033  0.15361013  1.0
  Nb  Nb112  1  0.60518367  0.60518367  0.15361013  1.0
  Nb  Nb113  1  0.60518367  0.93851700  0.15361013  1.0
  Nb  Nb114  1  0.93851700  0.27185033  0.15361013  1.0
  Nb  Nb115  1  0.93851700  0.60518367  0.15361013  1.0
  Nb  Nb116  1  0.93851700  0.93851700  0.15361013  1.0
  Nb  Nb117  1  0.06148300  0.27185033  0.15361013  1.0
  Nb  Nb118  1  0.06148300  0.60518367  0.15361013  1.0
  Nb  Nb119  1  0.06148300  0.93851700  0.15361013  1.0
  Nb  Nb120  1  0.39481633  0.27185033  0.15361013  1.0
  Nb  Nb121  1  0.39481633  0.60518367  0.15361013  1.0
  Nb  Nb122  1  0.39481633  0.93851700  0.15361013  1.0
  Nb  Nb123  1  0.72814967  0.27185033  0.15361013  1.0
  Nb  Nb124  1  0.72814967  0.60518367  0.15361013  1.0
  Nb  Nb125  1  0.72814967  0.93851700  0.15361013  1.0
  Nb  Nb126  1  0.02185033  0.14481633  0.10361013  1.0
  Nb  Nb127  1  0.02185033  0.47814967  0.10361013  1.0
  Nb  Nb128  1  0.02185033  0.81148300  0.10361013  1.0
  Nb  Nb129  1  0.35518367  0.14481633  0.10361013  1.0
  Nb  Nb130  1  0.35518367  0.47814967  0.10361013  1.0
  Nb  Nb131  1  0.35518367  0.81148300  0.10361013  1.0
  Nb  Nb132  1  0.68851700  0.14481633  0.10361013  1.0
  Nb  Nb133  1  0.68851700  0.47814967  0.10361013  1.0
  Nb  Nb134  1  0.68851700  0.81148300  0.10361013  1.0
  Nb  Nb135  1  0.13685056  0.13685056  0.10838960  1.0
  Nb  Nb136  1  0.13685056  0.47018389  0.10838960  1.0
  Nb  Nb137  1  0.13685056  0.80351722  0.10838960  1.0
  Nb  Nb138  1  0.47018389  0.13685056  0.10838960  1.0
  Nb  Nb139  1  0.47018389  0.47018389  0.10838960  1.0
  Nb  Nb140  1  0.47018389  0.80351722  0.10838960  1.0
  Nb  Nb141  1  0.80351722  0.13685056  0.10838960  1.0
  Nb  Nb142  1  0.80351722  0.47018389  0.10838960  1.0
  Nb  Nb143  1  0.80351722  0.80351722  0.10838960  1.0
  Nb  Nb144  1  0.27981611  0.27981611  0.09416893  1.0
  Nb  Nb145  1  0.27981611  0.61314944  0.09416893  1.0
  Nb  Nb146  1  0.27981611  0.94648278  0.09416893  1.0
  Nb  Nb147  1  0.61314944  0.27981611  0.09416893  1.0
  Nb  Nb148  1  0.61314944  0.61314944  0.09416893  1.0
  Nb  Nb149  1  0.61314944  0.94648278  0.09416893  1.0
  Nb  Nb150  1  0.94648278  0.27981611  0.09416893  1.0
  Nb  Nb151  1  0.94648278  0.61314944  0.09416893  1.0
  Nb  Nb152  1  0.94648278  0.94648278  0.09416893  1.0
  Nb  Nb153  1  0.27185033  0.06148300  0.02738973  1.0
  Nb  Nb154  1  0.27185033  0.39481633  0.02738973  1.0
  Nb  Nb155  1  0.27185033  0.72814967  0.02738973  1.0
  Nb  Nb156  1  0.60518367  0.06148300  0.02738973  1.0
  Nb  Nb157  1  0.60518367  0.39481633  0.02738973  1.0
  Nb  Nb158  1  0.60518367  0.72814967  0.02738973  1.0
  Nb  Nb159  1  0.93851700  0.06148300  0.02738973  1.0
  Nb  Nb160  1  0.93851700  0.39481633  0.02738973  1.0
  Nb  Nb161  1  0.93851700  0.72814967  0.02738973  1.0
  Nb  Nb162  1  0.06148300  0.27185033  0.02738973  1.0
  Nb  Nb163  1  0.06148300  0.60518367  0.02738973  1.0
  Nb  Nb164  1  0.06148300  0.93851700  0.02738973  1.0
  Nb  Nb165  1  0.39481633  0.27185033  0.02738973  1.0
  Nb  Nb166  1  0.39481633  0.60518367  0.02738973  1.0
  Nb  Nb167  1  0.39481633  0.93851700  0.02738973  1.0
  Nb  Nb168  1  0.72814967  0.27185033  0.02738973  1.0
  Nb  Nb169  1  0.72814967  0.60518367  0.02738973  1.0
  Nb  Nb170  1  0.72814967  0.93851700  0.02738973  1.0
  Nb  Nb171  1  0.06148300  0.06148300  0.02738973  1.0
  Nb  Nb172  1  0.06148300  0.39481633  0.02738973  1.0
  Nb  Nb173  1  0.06148300  0.72814967  0.02738973  1.0
  Nb  Nb174  1  0.39481633  0.06148300  0.02738973  1.0
  Nb  Nb175  1  0.39481633  0.39481633  0.02738973  1.0
  Nb  Nb176  1  0.39481633  0.72814967  0.02738973  1.0
  Nb  Nb177  1  0.72814967  0.06148300  0.02738973  1.0
  Nb  Nb178  1  0.72814967  0.39481633  0.02738973  1.0
  Nb  Nb179  1  0.72814967  0.72814967  0.02738973  1.0
  Ni  Ni180  1  0.20833333  0.04166667  0.06549993  1.0
  Ni  Ni181  1  0.20833333  0.37500000  0.06549993  1.0
  Ni  Ni182  1  0.20833333  0.70833333  0.06549993  1.0
  Ni  Ni183  1  0.54166667  0.04166667  0.06549993  1.0
  Ni  Ni184  1  0.54166667  0.37500000  0.06549993  1.0
  Ni  Ni185  1  0.54166667  0.70833333  0.06549993  1.0
  Ni  Ni186  1  0.87500000  0.04166667  0.06549993  1.0
  Ni  Ni187  1  0.87500000  0.37500000  0.06549993  1.0
  Ni  Ni188  1  0.87500000  0.70833333  0.06549993  1.0
  Ni  Ni189  1  0.04166667  0.20833333  0.06549993  1.0
  Ni  Ni190  1  0.04166667  0.54166667  0.06549993  1.0
  Ni  Ni191  1  0.04166667  0.87500000  0.06549993  1.0
  Ni  Ni192  1  0.37500000  0.20833333  0.06549993  1.0
  Ni  Ni193  1  0.37500000  0.54166667  0.06549993  1.0
  Ni  Ni194  1  0.37500000  0.87500000  0.06549993  1.0
  Ni  Ni195  1  0.70833333  0.20833333  0.06549993  1.0
  Ni  Ni196  1  0.70833333  0.54166667  0.06549993  1.0
  Ni  Ni197  1  0.70833333  0.87500000  0.06549993  1.0
  Ni  Ni198  1  0.20833333  0.20833333  0.16549993  1.0
  Ni  Ni199  1  0.20833333  0.54166667  0.16549993  1.0
  Ni  Ni200  1  0.20833333  0.87500000  0.16549993  1.0
  Ni  Ni201  1  0.54166667  0.20833333  0.16549993  1.0
  Ni  Ni202  1  0.54166667  0.54166667  0.16549993  1.0
  Ni  Ni203  1  0.54166667  0.87500000  0.16549993  1.0
  Ni  Ni204  1  0.87500000  0.20833333  0.16549993  1.0
  Ni  Ni205  1  0.87500000  0.54166667  0.16549993  1.0
  Ni  Ni206  1  0.87500000  0.87500000  0.16549993  1.0
  Ni  Ni207  1  0.20833333  0.20833333  0.06549993  1.0
  Ni  Ni208  1  0.20833333  0.54166667  0.06549993  1.0
  Ni  Ni209  1  0.20833333  0.87500000  0.06549993  1.0
  Ni  Ni210  1  0.54166667  0.20833333  0.06549993  1.0
  Ni  Ni211  1  0.54166667  0.54166667  0.06549993  1.0
  Ni  Ni212  1  0.54166667  0.87500000  0.06549993  1.0
  Ni  Ni213  1  0.87500000  0.20833333  0.06549993  1.0
  Ni  Ni214  1  0.87500000  0.54166667  0.06549993  1.0
  Ni  Ni215  1  0.87500000  0.87500000  0.06549993  1.0
  Nb  Nb216  1  0.16055167  0.27981611  0.22261027  1.0
  Nb  Nb217  1  0.16055167  0.61314944  0.22261027  1.0
  Nb  Nb218  1  0.16055167  0.94648278  0.22261027  1.0
  Nb  Nb219  1  0.49388500  0.27981611  0.22261027  1.0
  Nb  Nb220  1  0.49388500  0.61314944  0.22261027  1.0
  Nb  Nb221  1  0.49388500  0.94648278  0.22261027  1.0
  Nb  Nb222  1  0.82721833  0.27981611  0.22261027  1.0
  Nb  Nb223  1  0.82721833  0.61314944  0.22261027  1.0
  Nb  Nb224  1  0.82721833  0.94648278  0.22261027  1.0
  Nb  Nb225  1  0.27185033  0.06148300  0.35361013  1.0
  Nb  Nb226  1  0.27185033  0.39481633  0.35361013  1.0
  Nb  Nb227  1  0.27185033  0.72814967  0.35361013  1.0
  Nb  Nb228  1  0.60518367  0.06148300  0.35361013  1.0
  Nb  Nb229  1  0.60518367  0.39481633  0.35361013  1.0
  Nb  Nb230  1  0.60518367  0.72814967  0.35361013  1.0
  Nb  Nb231  1  0.93851700  0.06148300  0.35361013  1.0
  Nb  Nb232  1  0.93851700  0.39481633  0.35361013  1.0
  Nb  Nb233  1  0.93851700  0.72814967  0.35361013  1.0
  Nb  Nb234  1  0.27981611  0.16055167  0.22261027  1.0
  Nb  Nb235  1  0.27981611  0.49388500  0.22261027  1.0
  Nb  Nb236  1  0.27981611  0.82721833  0.22261027  1.0
  Nb  Nb237  1  0.61314944  0.16055167  0.22261027  1.0
  Nb  Nb238  1  0.61314944  0.49388500  0.22261027  1.0
  Nb  Nb239  1  0.61314944  0.82721833  0.22261027  1.0
  Nb  Nb240  1  0.94648278  0.16055167  0.22261027  1.0
  Nb  Nb241  1  0.94648278  0.49388500  0.22261027  1.0
  Nb  Nb242  1  0.94648278  0.82721833  0.22261027  1.0
  Nb  Nb243  1  0.14481633  0.02185033  0.37738973  1.0
  Nb  Nb244  1  0.14481633  0.35518367  0.37738973  1.0
  Nb  Nb245  1  0.14481633  0.68851700  0.37738973  1.0
  Nb  Nb246  1  0.47814967  0.02185033  0.37738973  1.0
  Nb  Nb247  1  0.47814967  0.35518367  0.37738973  1.0
  Nb  Nb248  1  0.47814967  0.68851700  0.37738973  1.0
  Nb  Nb249  1  0.81148300  0.02185033  0.37738973  1.0
  Nb  Nb250  1  0.81148300  0.35518367  0.37738973  1.0
  Nb  Nb251  1  0.81148300  0.68851700  0.37738973  1.0
  Nb  Nb252  1  0.25611500  0.13685056  0.30838960  1.0
  Nb  Nb253  1  0.25611500  0.47018389  0.30838960  1.0
  Nb  Nb254  1  0.25611500  0.80351722  0.30838960  1.0
  Nb  Nb255  1  0.58944833  0.13685056  0.30838960  1.0
  Nb  Nb256  1  0.58944833  0.47018389  0.30838960  1.0
  Nb  Nb257  1  0.58944833  0.80351722  0.30838960  1.0
  Nb  Nb258  1  0.92278167  0.13685056  0.30838960  1.0
  Nb  Nb259  1  0.92278167  0.47018389  0.30838960  1.0
  Nb  Nb260  1  0.92278167  0.80351722  0.30838960  1.0
  Nb  Nb261  1  0.14481633  0.02185033  0.30361013  1.0
  Nb  Nb262  1  0.14481633  0.35518367  0.30361013  1.0
  Nb  Nb263  1  0.14481633  0.68851700  0.30361013  1.0
  Nb  Nb264  1  0.47814967  0.02185033  0.30361013  1.0
  Nb  Nb265  1  0.47814967  0.35518367  0.30361013  1.0
  Nb  Nb266  1  0.47814967  0.68851700  0.30361013  1.0
  Nb  Nb267  1  0.81148300  0.02185033  0.30361013  1.0
  Nb  Nb268  1  0.81148300  0.35518367  0.30361013  1.0
  Nb  Nb269  1  0.81148300  0.68851700  0.30361013  1.0
  Nb  Nb270  1  0.02185033  0.14481633  0.37738973  1.0
  Nb  Nb271  1  0.02185033  0.47814967  0.37738973  1.0
  Nb  Nb272  1  0.02185033  0.81148300  0.37738973  1.0
  Nb  Nb273  1  0.35518367  0.14481633  0.37738973  1.0
  Nb  Nb274  1  0.35518367  0.47814967  0.37738973  1.0
  Nb  Nb275  1  0.35518367  0.81148300  0.37738973  1.0
  Nb  Nb276  1  0.68851700  0.14481633  0.37738973  1.0
  Nb  Nb277  1  0.68851700  0.47814967  0.37738973  1.0
  Nb  Nb278  1  0.68851700  0.81148300  0.37738973  1.0
  Nb  Nb279  1  0.13685056  0.25611500  0.30838960  1.0
  Nb  Nb280  1  0.13685056  0.58944833  0.30838960  1.0
  Nb  Nb281  1  0.13685056  0.92278167  0.30838960  1.0
  Nb  Nb282  1  0.47018389  0.25611500  0.30838960  1.0
  Nb  Nb283  1  0.47018389  0.58944833  0.30838960  1.0
  Nb  Nb284  1  0.47018389  0.92278167  0.30838960  1.0
  Nb  Nb285  1  0.80351722  0.25611500  0.30838960  1.0
  Nb  Nb286  1  0.80351722  0.58944833  0.30838960  1.0
  Nb  Nb287  1  0.80351722  0.92278167  0.30838960  1.0
  Nb  Nb288  1  0.27981611  0.27981611  0.22261027  1.0
  Nb  Nb289  1  0.27981611  0.61314944  0.22261027  1.0
  Nb  Nb290  1  0.27981611  0.94648278  0.22261027  1.0
  Nb  Nb291  1  0.61314944  0.27981611  0.22261027  1.0
  Nb  Nb292  1  0.61314944  0.61314944  0.22261027  1.0
  Nb  Nb293  1  0.61314944  0.94648278  0.22261027  1.0
  Nb  Nb294  1  0.94648278  0.27981611  0.22261027  1.0
  Nb  Nb295  1  0.94648278  0.61314944  0.22261027  1.0
  Nb  Nb296  1  0.94648278  0.94648278  0.22261027  1.0
  Nb  Nb297  1  0.13685056  0.13685056  0.23683094  1.0
  Nb  Nb298  1  0.13685056  0.47018389  0.23683094  1.0
  Nb  Nb299  1  0.13685056  0.80351722  0.23683094  1.0
  Nb  Nb300  1  0.47018389  0.13685056  0.23683094  1.0
  Nb  Nb301  1  0.47018389  0.47018389  0.23683094  1.0
  Nb  Nb302  1  0.47018389  0.80351722  0.23683094  1.0
  Nb  Nb303  1  0.80351722  0.13685056  0.23683094  1.0
  Nb  Nb304  1  0.80351722  0.47018389  0.23683094  1.0
  Nb  Nb305  1  0.80351722  0.80351722  0.23683094  1.0
  Nb  Nb306  1  0.02185033  0.02185033  0.30361013  1.0
  Nb  Nb307  1  0.02185033  0.35518367  0.30361013  1.0
  Nb  Nb308  1  0.02185033  0.68851700  0.30361013  1.0
  Nb  Nb309  1  0.35518367  0.02185033  0.30361013  1.0
  Nb  Nb310  1  0.35518367  0.35518367  0.30361013  1.0
  Nb  Nb311  1  0.35518367  0.68851700  0.30361013  1.0
  Nb  Nb312  1  0.68851700  0.02185033  0.30361013  1.0
  Nb  Nb313  1  0.68851700  0.35518367  0.30361013  1.0
  Nb  Nb314  1  0.68851700  0.68851700  0.30361013  1.0
  Nb  Nb315  1  0.14481633  0.14481633  0.37738973  1.0
  Nb  Nb316  1  0.14481633  0.47814967  0.37738973  1.0
  Nb  Nb317  1  0.14481633  0.81148300  0.37738973  1.0
  Nb  Nb318  1  0.47814967  0.14481633  0.37738973  1.0
  Nb  Nb319  1  0.47814967  0.47814967  0.37738973  1.0
  Nb  Nb320  1  0.47814967  0.81148300  0.37738973  1.0
  Nb  Nb321  1  0.81148300  0.14481633  0.37738973  1.0
  Nb  Nb322  1  0.81148300  0.47814967  0.37738973  1.0
  Nb  Nb323  1  0.81148300  0.81148300  0.37738973  1.0
  Nb  Nb324  1  0.27185033  0.27185033  0.35361013  1.0
  Nb  Nb325  1  0.27185033  0.60518367  0.35361013  1.0
  Nb  Nb326  1  0.27185033  0.93851700  0.35361013  1.0
  Nb  Nb327  1  0.60518367  0.27185033  0.35361013  1.0
  Nb  Nb328  1  0.60518367  0.60518367  0.35361013  1.0
  Nb  Nb329  1  0.60518367  0.93851700  0.35361013  1.0
  Nb  Nb330  1  0.93851700  0.27185033  0.35361013  1.0
  Nb  Nb331  1  0.93851700  0.60518367  0.35361013  1.0
  Nb  Nb332  1  0.93851700  0.93851700  0.35361013  1.0
  Nb  Nb333  1  0.06148300  0.27185033  0.35361013  1.0
  Nb  Nb334  1  0.06148300  0.60518367  0.35361013  1.0
  Nb  Nb335  1  0.06148300  0.93851700  0.35361013  1.0
  Nb  Nb336  1  0.39481633  0.27185033  0.35361013  1.0
  Nb  Nb337  1  0.39481633  0.60518367  0.35361013  1.0
  Nb  Nb338  1  0.39481633  0.93851700  0.35361013  1.0
  Nb  Nb339  1  0.72814967  0.27185033  0.35361013  1.0
  Nb  Nb340  1  0.72814967  0.60518367  0.35361013  1.0
  Nb  Nb341  1  0.72814967  0.93851700  0.35361013  1.0
  Nb  Nb342  1  0.02185033  0.14481633  0.30361013  1.0
  Nb  Nb343  1  0.02185033  0.47814967  0.30361013  1.0
  Nb  Nb344  1  0.02185033  0.81148300  0.30361013  1.0
  Nb  Nb345  1  0.35518367  0.14481633  0.30361013  1.0
  Nb  Nb346  1  0.35518367  0.47814967  0.30361013  1.0
  Nb  Nb347  1  0.35518367  0.81148300  0.30361013  1.0
  Nb  Nb348  1  0.68851700  0.14481633  0.30361013  1.0
  Nb  Nb349  1  0.68851700  0.47814967  0.30361013  1.0
  Nb  Nb350  1  0.68851700  0.81148300  0.30361013  1.0
  Nb  Nb351  1  0.13685056  0.13685056  0.30838960  1.0
  Nb  Nb352  1  0.13685056  0.47018389  0.30838960  1.0
  Nb  Nb353  1  0.13685056  0.80351722  0.30838960  1.0
  Nb  Nb354  1  0.47018389  0.13685056  0.30838960  1.0
  Nb  Nb355  1  0.47018389  0.47018389  0.30838960  1.0
  Nb  Nb356  1  0.47018389  0.80351722  0.30838960  1.0
  Nb  Nb357  1  0.80351722  0.13685056  0.30838960  1.0
  Nb  Nb358  1  0.80351722  0.47018389  0.30838960  1.0
  Nb  Nb359  1  0.80351722  0.80351722  0.30838960  1.0
  Nb  Nb360  1  0.27981611  0.27981611  0.29416893  1.0
  Nb  Nb361  1  0.27981611  0.61314944  0.29416893  1.0
  Nb  Nb362  1  0.27981611  0.94648278  0.29416893  1.0
  Nb  Nb363  1  0.61314944  0.27981611  0.29416893  1.0
  Nb  Nb364  1  0.61314944  0.61314944  0.29416893  1.0
  Nb  Nb365  1  0.61314944  0.94648278  0.29416893  1.0
  Nb  Nb366  1  0.94648278  0.27981611  0.29416893  1.0
  Nb  Nb367  1  0.94648278  0.61314944  0.29416893  1.0
  Nb  Nb368  1  0.94648278  0.94648278  0.29416893  1.0
  Nb  Nb369  1  0.27185033  0.06148300  0.22738973  1.0
  Nb  Nb370  1  0.27185033  0.39481633  0.22738973  1.0
  Nb  Nb371  1  0.27185033  0.72814967  0.22738973  1.0
  Nb  Nb372  1  0.60518367  0.06148300  0.22738973  1.0
  Nb  Nb373  1  0.60518367  0.39481633  0.22738973  1.0
  Nb  Nb374  1  0.60518367  0.72814967  0.22738973  1.0
  Nb  Nb375  1  0.93851700  0.06148300  0.22738973  1.0
  Nb  Nb376  1  0.93851700  0.39481633  0.22738973  1.0
  Nb  Nb377  1  0.93851700  0.72814967  0.22738973  1.0
  Nb  Nb378  1  0.06148300  0.27185033  0.22738973  1.0
  Nb  Nb379  1  0.06148300  0.60518367  0.22738973  1.0
  Nb  Nb380  1  0.06148300  0.93851700  0.22738973  1.0
  Nb  Nb381  1  0.39481633  0.27185033  0.22738973  1.0
  Nb  Nb382  1  0.39481633  0.60518367  0.22738973  1.0
  Nb  Nb383  1  0.39481633  0.93851700  0.22738973  1.0
  Nb  Nb384  1  0.72814967  0.27185033  0.22738973  1.0
  Nb  Nb385  1  0.72814967  0.60518367  0.22738973  1.0
  Nb  Nb386  1  0.72814967  0.93851700  0.22738973  1.0
  Nb  Nb387  1  0.06148300  0.06148300  0.22738973  1.0
  Nb  Nb388  1  0.06148300  0.39481633  0.22738973  1.0
  Nb  Nb389  1  0.06148300  0.72814967  0.22738973  1.0
  Nb  Nb390  1  0.39481633  0.06148300  0.22738973  1.0
  Nb  Nb391  1  0.39481633  0.39481633  0.22738973  1.0
  Nb  Nb392  1  0.39481633  0.72814967  0.22738973  1.0
  Nb  Nb393  1  0.72814967  0.06148300  0.22738973  1.0
  Nb  Nb394  1  0.72814967  0.39481633  0.22738973  1.0
  Nb  Nb395  1  0.72814967  0.72814967  0.22738973  1.0
  Ni  Ni396  1  0.20833333  0.04166667  0.26549993  1.0
  Ni  Ni397  1  0.20833333  0.37500000  0.26549993  1.0
  Ni  Ni398  1  0.20833333  0.70833333  0.26549993  1.0
  Ni  Ni399  1  0.54166667  0.04166667  0.26549993  1.0
  Ni  Ni400  1  0.54166667  0.37500000  0.26549993  1.0
  Ni  Ni401  1  0.54166667  0.70833333  0.26549993  1.0
  Ni  Ni402  1  0.87500000  0.04166667  0.26549993  1.0
  Ni  Ni403  1  0.87500000  0.37500000  0.26549993  1.0
  Ni  Ni404  1  0.87500000  0.70833333  0.26549993  1.0
  Ni  Ni405  1  0.04166667  0.20833333  0.26549993  1.0
  Ni  Ni406  1  0.04166667  0.54166667  0.26549993  1.0
  Ni  Ni407  1  0.04166667  0.87500000  0.26549993  1.0
  Ni  Ni408  1  0.37500000  0.20833333  0.26549993  1.0
  Ni  Ni409  1  0.37500000  0.54166667  0.26549993  1.0
  Ni  Ni410  1  0.37500000  0.87500000  0.26549993  1.0
  Ni  Ni411  1  0.70833333  0.20833333  0.26549993  1.0
  Ni  Ni412  1  0.70833333  0.54166667  0.26549993  1.0
  Ni  Ni413  1  0.70833333  0.87500000  0.26549993  1.0
  Ni  Ni414  1  0.20833333  0.20833333  0.36549993  1.0
  Ni  Ni415  1  0.20833333  0.54166667  0.36549993  1.0
  Ni  Ni416  1  0.20833333  0.87500000  0.36549993  1.0
  Ni  Ni417  1  0.54166667  0.20833333  0.36549993  1.0
  Ni  Ni418  1  0.54166667  0.54166667  0.36549993  1.0
  Ni  Ni419  1  0.54166667  0.87500000  0.36549993  1.0
  Ni  Ni420  1  0.87500000  0.20833333  0.36549993  1.0
  Ni  Ni421  1  0.87500000  0.54166667  0.36549993  1.0
  Ni  Ni422  1  0.87500000  0.87500000  0.36549993  1.0
  Ni  Ni423  1  0.20833333  0.20833333  0.26549993  1.0
  Ni  Ni424  1  0.20833333  0.54166667  0.26549993  1.0
  Ni  Ni425  1  0.20833333  0.87500000  0.26549993  1.0
  Ni  Ni426  1  0.54166667  0.20833333  0.26549993  1.0
  Ni  Ni427  1  0.54166667  0.54166667  0.26549993  1.0
  Ni  Ni428  1  0.54166667  0.87500000  0.26549993  1.0
  Ni  Ni429  1  0.87500000  0.20833333  0.26549993  1.0
  Ni  Ni430  1  0.87500000  0.54166667  0.26549993  1.0
  Ni  Ni431  1  0.87500000  0.87500000  0.26549993  1.0
