# generated using pymatgen
data_Nb6Ni7
_symmetry_space_group_name_H-M   'P 1'
_cell_length_a   27.82061559
_cell_length_b   14.67864071
_cell_length_c   64.91476971
_cell_angle_alpha   105.29617742
_cell_angle_beta   30.59235483
_cell_angle_gamma   90.00000000
_symmetry_Int_Tables_number   1
_chemical_formula_structural   Nb6Ni7
_chemical_formula_sum   'Nb162 Ni189'
_cell_volume   11537.16066708
_cell_formula_units_Z   27
loop_
 _symmetry_equiv_pos_site_id
 _symmetry_equiv_pos_as_xyz
  1  'x, y, z'
loop_
 _atom_site_type_symbol
 _atom_site_label
 _atom_site_symmetry_multiplicity
 _atom_site_fract_x
 _atom_site_fract_y
 _atom_site_fract_z
 _atom_site_occupancy
  Nb  Nb0  1  0.05621300  0.05621300  0.04114014  1.0
  Nb  Nb1  1  0.05621300  0.38954633  0.04114014  1.0
  Nb  Nb2  1  0.05621300  0.72287967  0.04114014  1.0
  Nb  Nb3  1  0.38954633  0.05621300  0.04114014  1.0
  Nb  Nb4  1  0.38954633  0.38954633  0.04114014  1.0
  Nb  Nb5  1  0.38954633  0.72287967  0.04114014  1.0
  Nb  Nb6  1  0.72287967  0.05621300  0.04114014  1.0
  Nb  Nb7  1  0.72287967  0.38954633  0.04114014  1.0
  Nb  Nb8  1  0.72287967  0.72287967  0.04114014  1.0
  Nb  Nb9  1  0.27712033  0.27712033  0.08763214  1.0
  Nb  Nb10  1  0.27712033  0.61045367  0.08763214  1.0
  Nb  Nb11  1  0.27712033  0.94378700  0.08763214  1.0
  Nb  Nb12  1  0.61045367  0.27712033  0.08763214  1.0
  Nb  Nb13  1  0.61045367  0.61045367  0.08763214  1.0
  Nb  Nb14  1  0.61045367  0.94378700  0.08763214  1.0
  Nb  Nb15  1  0.94378700  0.27712033  0.08763214  1.0
  Nb  Nb16  1  0.94378700  0.61045367  0.08763214  1.0
  Nb  Nb17  1  0.94378700  0.94378700  0.08763214  1.0
  Nb  Nb18  1  0.11484533  0.11484533  0.09139643  1.0
  Nb  Nb19  1  0.11484533  0.44817867  0.09139643  1.0
  Nb  Nb20  1  0.11484533  0.78151200  0.09139643  1.0
  Nb  Nb21  1  0.44817867  0.11484533  0.09139643  1.0
  Nb  Nb22  1  0.44817867  0.44817867  0.09139643  1.0
  Nb  Nb23  1  0.44817867  0.78151200  0.09139643  1.0
  Nb  Nb24  1  0.78151200  0.11484533  0.09139643  1.0
  Nb  Nb25  1  0.78151200  0.44817867  0.09139643  1.0
  Nb  Nb26  1  0.78151200  0.78151200  0.09139643  1.0
  Nb  Nb27  1  0.21848800  0.21848800  0.03737586  1.0
  Nb  Nb28  1  0.21848800  0.55182133  0.03737586  1.0
  Nb  Nb29  1  0.21848800  0.88515467  0.03737586  1.0
  Nb  Nb30  1  0.55182133  0.21848800  0.03737586  1.0
  Nb  Nb31  1  0.55182133  0.55182133  0.03737586  1.0
  Nb  Nb32  1  0.55182133  0.88515467  0.03737586  1.0
  Nb  Nb33  1  0.88515467  0.21848800  0.03737586  1.0
  Nb  Nb34  1  0.88515467  0.55182133  0.03737586  1.0
  Nb  Nb35  1  0.88515467  0.88515467  0.03737586  1.0
  Nb  Nb36  1  0.15023433  0.15023433  0.12172986  1.0
  Nb  Nb37  1  0.15023433  0.48356767  0.12172986  1.0
  Nb  Nb38  1  0.15023433  0.81690100  0.12172986  1.0
  Nb  Nb39  1  0.48356767  0.15023433  0.12172986  1.0
  Nb  Nb40  1  0.48356767  0.48356767  0.12172986  1.0
  Nb  Nb41  1  0.48356767  0.81690100  0.12172986  1.0
  Nb  Nb42  1  0.81690100  0.15023433  0.12172986  1.0
  Nb  Nb43  1  0.81690100  0.48356767  0.12172986  1.0
  Nb  Nb44  1  0.81690100  0.81690100  0.12172986  1.0
  Nb  Nb45  1  0.18309900  0.18309900  0.00704243  1.0
  Nb  Nb46  1  0.18309900  0.51643233  0.00704243  1.0
  Nb  Nb47  1  0.18309900  0.84976567  0.00704243  1.0
  Nb  Nb48  1  0.51643233  0.18309900  0.00704243  1.0
  Nb  Nb49  1  0.51643233  0.51643233  0.00704243  1.0
  Nb  Nb50  1  0.51643233  0.84976567  0.00704243  1.0
  Nb  Nb51  1  0.84976567  0.18309900  0.00704243  1.0
  Nb  Nb52  1  0.84976567  0.51643233  0.00704243  1.0
  Nb  Nb53  1  0.84976567  0.84976567  0.00704243  1.0
  Ni  Ni54  1  0.00000000  0.00000000  0.13581471  1.0
  Ni  Ni55  1  0.00000000  0.33333333  0.13581471  1.0
  Ni  Ni56  1  0.00000000  0.66666667  0.13581471  1.0
  Ni  Ni57  1  0.33333333  0.00000000  0.13581471  1.0
  Ni  Ni58  1  0.33333333  0.33333333  0.13581471  1.0
  Ni  Ni59  1  0.33333333  0.66666667  0.13581471  1.0
  Ni  Ni60  1  0.66666667  0.00000000  0.13581471  1.0
  Ni  Ni61  1  0.66666667  0.33333333  0.13581471  1.0
  Ni  Ni62  1  0.66666667  0.66666667  0.13581471  1.0
  Ni  Ni63  1  0.03018533  0.03018533  0.09034457  1.0
  Ni  Ni64  1  0.03018533  0.36351867  0.09034457  1.0
  Ni  Ni65  1  0.03018533  0.69685200  0.09034457  1.0
  Ni  Ni66  1  0.36351867  0.03018533  0.09034457  1.0
  Ni  Ni67  1  0.36351867  0.36351867  0.09034457  1.0
  Ni  Ni68  1  0.36351867  0.69685200  0.09034457  1.0
  Ni  Ni69  1  0.69685200  0.03018533  0.09034457  1.0
  Ni  Ni70  1  0.69685200  0.36351867  0.09034457  1.0
  Ni  Ni71  1  0.69685200  0.69685200  0.09034457  1.0
  Ni  Ni72  1  0.03018533  0.19705100  0.09034457  1.0
  Ni  Ni73  1  0.03018533  0.53038433  0.09034457  1.0
  Ni  Ni74  1  0.03018533  0.86371767  0.09034457  1.0
  Ni  Ni75  1  0.36351867  0.19705100  0.09034457  1.0
  Ni  Ni76  1  0.36351867  0.53038433  0.09034457  1.0
  Ni  Ni77  1  0.36351867  0.86371767  0.09034457  1.0
  Ni  Ni78  1  0.69685200  0.19705100  0.09034457  1.0
  Ni  Ni79  1  0.69685200  0.53038433  0.09034457  1.0
  Ni  Ni80  1  0.69685200  0.86371767  0.09034457  1.0
  Ni  Ni81  1  0.19705100  0.03018533  0.01883071  1.0
  Ni  Ni82  1  0.19705100  0.36351867  0.01883071  1.0
  Ni  Ni83  1  0.19705100  0.69685200  0.01883071  1.0
  Ni  Ni84  1  0.53038433  0.03018533  0.01883071  1.0
  Ni  Ni85  1  0.53038433  0.36351867  0.01883071  1.0
  Ni  Ni86  1  0.53038433  0.69685200  0.01883071  1.0
  Ni  Ni87  1  0.86371767  0.03018533  0.01883071  1.0
  Ni  Ni88  1  0.86371767  0.36351867  0.01883071  1.0
  Ni  Ni89  1  0.86371767  0.69685200  0.01883071  1.0
  Ni  Ni90  1  0.30314800  0.30314800  0.03842771  1.0
  Ni  Ni91  1  0.30314800  0.63648133  0.03842771  1.0
  Ni  Ni92  1  0.30314800  0.96981467  0.03842771  1.0
  Ni  Ni93  1  0.63648133  0.30314800  0.03842771  1.0
  Ni  Ni94  1  0.63648133  0.63648133  0.03842771  1.0
  Ni  Ni95  1  0.63648133  0.96981467  0.03842771  1.0
  Ni  Ni96  1  0.96981467  0.30314800  0.03842771  1.0
  Ni  Ni97  1  0.96981467  0.63648133  0.03842771  1.0
  Ni  Ni98  1  0.96981467  0.96981467  0.03842771  1.0
  Ni  Ni99  1  0.30314800  0.13628233  0.03842771  1.0
  Ni  Ni100  1  0.30314800  0.46961567  0.03842771  1.0
  Ni  Ni101  1  0.30314800  0.80294900  0.03842771  1.0
  Ni  Ni102  1  0.63648133  0.13628233  0.03842771  1.0
  Ni  Ni103  1  0.63648133  0.46961567  0.03842771  1.0
  Ni  Ni104  1  0.63648133  0.80294900  0.03842771  1.0
  Ni  Ni105  1  0.96981467  0.13628233  0.03842771  1.0
  Ni  Ni106  1  0.96981467  0.46961567  0.03842771  1.0
  Ni  Ni107  1  0.96981467  0.80294900  0.03842771  1.0
  Ni  Ni108  1  0.13628233  0.30314800  0.10994157  1.0
  Ni  Ni109  1  0.13628233  0.63648133  0.10994157  1.0
  Ni  Ni110  1  0.13628233  0.96981467  0.10994157  1.0
  Ni  Ni111  1  0.46961567  0.30314800  0.10994157  1.0
  Ni  Ni112  1  0.46961567  0.63648133  0.10994157  1.0
  Ni  Ni113  1  0.46961567  0.96981467  0.10994157  1.0
  Ni  Ni114  1  0.80294900  0.30314800  0.10994157  1.0
  Ni  Ni115  1  0.80294900  0.63648133  0.10994157  1.0
  Ni  Ni116  1  0.80294900  0.96981467  0.10994157  1.0
  Nb  Nb117  1  0.05621300  0.05621300  0.18399729  1.0
  Nb  Nb118  1  0.05621300  0.38954633  0.18399729  1.0
  Nb  Nb119  1  0.05621300  0.72287967  0.18399729  1.0
  Nb  Nb120  1  0.38954633  0.05621300  0.18399729  1.0
  Nb  Nb121  1  0.38954633  0.38954633  0.18399729  1.0
  Nb  Nb122  1  0.38954633  0.72287967  0.18399729  1.0
  Nb  Nb123  1  0.72287967  0.05621300  0.18399729  1.0
  Nb  Nb124  1  0.72287967  0.38954633  0.18399729  1.0
  Nb  Nb125  1  0.72287967  0.72287967  0.18399729  1.0
  Nb  Nb126  1  0.27712033  0.27712033  0.23048929  1.0
  Nb  Nb127  1  0.27712033  0.61045367  0.23048929  1.0
  Nb  Nb128  1  0.27712033  0.94378700  0.23048929  1.0
  Nb  Nb129  1  0.61045367  0.27712033  0.23048929  1.0
  Nb  Nb130  1  0.61045367  0.61045367  0.23048929  1.0
  Nb  Nb131  1  0.61045367  0.94378700  0.23048929  1.0
  Nb  Nb132  1  0.94378700  0.27712033  0.23048929  1.0
  Nb  Nb133  1  0.94378700  0.61045367  0.23048929  1.0
  Nb  Nb134  1  0.94378700  0.94378700  0.23048929  1.0
  Nb  Nb135  1  0.11484533  0.11484533  0.23425357  1.0
  Nb  Nb136  1  0.11484533  0.44817867  0.23425357  1.0
  Nb  Nb137  1  0.11484533  0.78151200  0.23425357  1.0
  Nb  Nb138  1  0.44817867  0.11484533  0.23425357  1.0
  Nb  Nb139  1  0.44817867  0.44817867  0.23425357  1.0
  Nb  Nb140  1  0.44817867  0.78151200  0.23425357  1.0
  Nb  Nb141  1  0.78151200  0.11484533  0.23425357  1.0
  Nb  Nb142  1  0.78151200  0.44817867  0.23425357  1.0
  Nb  Nb143  1  0.78151200  0.78151200  0.23425357  1.0
  Nb  Nb144  1  0.21848800  0.21848800  0.18023300  1.0
  Nb  Nb145  1  0.21848800  0.55182133  0.18023300  1.0
  Nb  Nb146  1  0.21848800  0.88515467  0.18023300  1.0
  Nb  Nb147  1  0.55182133  0.21848800  0.18023300  1.0
  Nb  Nb148  1  0.55182133  0.55182133  0.18023300  1.0
  Nb  Nb149  1  0.55182133  0.88515467  0.18023300  1.0
  Nb  Nb150  1  0.88515467  0.21848800  0.18023300  1.0
  Nb  Nb151  1  0.88515467  0.55182133  0.18023300  1.0
  Nb  Nb152  1  0.88515467  0.88515467  0.18023300  1.0
  Nb  Nb153  1  0.15023433  0.15023433  0.26458700  1.0
  Nb  Nb154  1  0.15023433  0.48356767  0.26458700  1.0
  Nb  Nb155  1  0.15023433  0.81690100  0.26458700  1.0
  Nb  Nb156  1  0.48356767  0.15023433  0.26458700  1.0
  Nb  Nb157  1  0.48356767  0.48356767  0.26458700  1.0
  Nb  Nb158  1  0.48356767  0.81690100  0.26458700  1.0
  Nb  Nb159  1  0.81690100  0.15023433  0.26458700  1.0
  Nb  Nb160  1  0.81690100  0.48356767  0.26458700  1.0
  Nb  Nb161  1  0.81690100  0.81690100  0.26458700  1.0
  Nb  Nb162  1  0.18309900  0.18309900  0.14989957  1.0
  Nb  Nb163  1  0.18309900  0.51643233  0.14989957  1.0
  Nb  Nb164  1  0.18309900  0.84976567  0.14989957  1.0
  Nb  Nb165  1  0.51643233  0.18309900  0.14989957  1.0
  Nb  Nb166  1  0.51643233  0.51643233  0.14989957  1.0
  Nb  Nb167  1  0.51643233  0.84976567  0.14989957  1.0
  Nb  Nb168  1  0.84976567  0.18309900  0.14989957  1.0
  Nb  Nb169  1  0.84976567  0.51643233  0.14989957  1.0
  Nb  Nb170  1  0.84976567  0.84976567  0.14989957  1.0
  Ni  Ni171  1  0.00000000  0.00000000  0.27867186  1.0
  Ni  Ni172  1  0.00000000  0.33333333  0.27867186  1.0
  Ni  Ni173  1  0.00000000  0.66666667  0.27867186  1.0
  Ni  Ni174  1  0.33333333  0.00000000  0.27867186  1.0
  Ni  Ni175  1  0.33333333  0.33333333  0.27867186  1.0
  Ni  Ni176  1  0.33333333  0.66666667  0.27867186  1.0
  Ni  Ni177  1  0.66666667  0.00000000  0.27867186  1.0
  Ni  Ni178  1  0.66666667  0.33333333  0.27867186  1.0
  Ni  Ni179  1  0.66666667  0.66666667  0.27867186  1.0
  Ni  Ni180  1  0.03018533  0.03018533  0.23320171  1.0
  Ni  Ni181  1  0.03018533  0.36351867  0.23320171  1.0
  Ni  Ni182  1  0.03018533  0.69685200  0.23320171  1.0
  Ni  Ni183  1  0.36351867  0.03018533  0.23320171  1.0
  Ni  Ni184  1  0.36351867  0.36351867  0.23320171  1.0
  Ni  Ni185  1  0.36351867  0.69685200  0.23320171  1.0
  Ni  Ni186  1  0.69685200  0.03018533  0.23320171  1.0
  Ni  Ni187  1  0.69685200  0.36351867  0.23320171  1.0
  Ni  Ni188  1  0.69685200  0.69685200  0.23320171  1.0
  Ni  Ni189  1  0.03018533  0.19705100  0.23320171  1.0
  Ni  Ni190  1  0.03018533  0.53038433  0.23320171  1.0
  Ni  Ni191  1  0.03018533  0.86371767  0.23320171  1.0
  Ni  Ni192  1  0.36351867  0.19705100  0.23320171  1.0
  Ni  Ni193  1  0.36351867  0.53038433  0.23320171  1.0
  Ni  Ni194  1  0.36351867  0.86371767  0.23320171  1.0
  Ni  Ni195  1  0.69685200  0.19705100  0.23320171  1.0
  Ni  Ni196  1  0.69685200  0.53038433  0.23320171  1.0
  Ni  Ni197  1  0.69685200  0.86371767  0.23320171  1.0
  Ni  Ni198  1  0.19705100  0.03018533  0.16168786  1.0
  Ni  Ni199  1  0.19705100  0.36351867  0.16168786  1.0
  Ni  Ni200  1  0.19705100  0.69685200  0.16168786  1.0
  Ni  Ni201  1  0.53038433  0.03018533  0.16168786  1.0
  Ni  Ni202  1  0.53038433  0.36351867  0.16168786  1.0
  Ni  Ni203  1  0.53038433  0.69685200  0.16168786  1.0
  Ni  Ni204  1  0.86371767  0.03018533  0.16168786  1.0
  Ni  Ni205  1  0.86371767  0.36351867  0.16168786  1.0
  Ni  Ni206  1  0.86371767  0.69685200  0.16168786  1.0
  Ni  Ni207  1  0.30314800  0.30314800  0.18128486  1.0
  Ni  Ni208  1  0.30314800  0.63648133  0.18128486  1.0
  Ni  Ni209  1  0.30314800  0.96981467  0.18128486  1.0
  Ni  Ni210  1  0.63648133  0.30314800  0.18128486  1.0
  Ni  Ni211  1  0.63648133  0.63648133  0.18128486  1.0
  Ni  Ni212  1  0.63648133  0.96981467  0.18128486  1.0
  Ni  Ni213  1  0.96981467  0.30314800  0.18128486  1.0
  Ni  Ni214  1  0.96981467  0.63648133  0.18128486  1.0
  Ni  Ni215  1  0.96981467  0.96981467  0.18128486  1.0
  Ni  Ni216  1  0.30314800  0.13628233  0.18128486  1.0
  Ni  Ni217  1  0.30314800  0.46961567  0.18128486  1.0
  Ni  Ni218  1  0.30314800  0.80294900  0.18128486  1.0
  Ni  Ni219  1  0.63648133  0.13628233  0.18128486  1.0
  Ni  Ni220  1  0.63648133  0.46961567  0.18128486  1.0
  Ni  Ni221  1  0.63648133  0.80294900  0.18128486  1.0
  Ni  Ni222  1  0.96981467  0.13628233  0.18128486  1.0
  Ni  Ni223  1  0.96981467  0.46961567  0.18128486  1.0
  Ni  Ni224  1  0.96981467  0.80294900  0.18128486  1.0
  Ni  Ni225  1  0.13628233  0.30314800  0.25279871  1.0
  Ni  Ni226  1  0.13628233  0.63648133  0.25279871  1.0
  Ni  Ni227  1  0.13628233  0.96981467  0.25279871  1.0
  Ni  Ni228  1  0.46961567  0.30314800  0.25279871  1.0
  Ni  Ni229  1  0.46961567  0.63648133  0.25279871  1.0
  Ni  Ni230  1  0.46961567  0.96981467  0.25279871  1.0
  Ni  Ni231  1  0.80294900  0.30314800  0.25279871  1.0
  Ni  Ni232  1  0.80294900  0.63648133  0.25279871  1.0
  Ni  Ni233  1  0.80294900  0.96981467  0.25279871  1.0
  Nb  Nb234  1  0.05621300  0.05621300  0.32685443  1.0
  Nb  Nb235  1  0.05621300  0.38954633  0.32685443  1.0
  Nb  Nb236  1  0.05621300  0.72287967  0.32685443  1.0
  Nb  Nb237  1  0.38954633  0.05621300  0.32685443  1.0
  Nb  Nb238  1  0.38954633  0.38954633  0.32685443  1.0
  Nb  Nb239  1  0.38954633  0.72287967  0.32685443  1.0
  Nb  Nb240  1  0.72287967  0.05621300  0.32685443  1.0
  Nb  Nb241  1  0.72287967  0.38954633  0.32685443  1.0
  Nb  Nb242  1  0.72287967  0.72287967  0.32685443  1.0
  Nb  Nb243  1  0.27712033  0.27712033  0.37334643  1.0
  Nb  Nb244  1  0.27712033  0.61045367  0.37334643  1.0
  Nb  Nb245  1  0.27712033  0.94378700  0.37334643  1.0
  Nb  Nb246  1  0.61045367  0.27712033  0.37334643  1.0
  Nb  Nb247  1  0.61045367  0.61045367  0.37334643  1.0
  Nb  Nb248  1  0.61045367  0.94378700  0.37334643  1.0
  Nb  Nb249  1  0.94378700  0.27712033  0.37334643  1.0
  Nb  Nb250  1  0.94378700  0.61045367  0.37334643  1.0
  Nb  Nb251  1  0.94378700  0.94378700  0.37334643  1.0
  Nb  Nb252  1  0.11484533  0.11484533  0.37711071  1.0
  Nb  Nb253  1  0.11484533  0.44817867  0.37711071  1.0
  Nb  Nb254  1  0.11484533  0.78151200  0.37711071  1.0
  Nb  Nb255  1  0.44817867  0.11484533  0.37711071  1.0
  Nb  Nb256  1  0.44817867  0.44817867  0.37711071  1.0
  Nb  Nb257  1  0.44817867  0.78151200  0.37711071  1.0
  Nb  Nb258  1  0.78151200  0.11484533  0.37711071  1.0
  Nb  Nb259  1  0.78151200  0.44817867  0.37711071  1.0
  Nb  Nb260  1  0.78151200  0.78151200  0.37711071  1.0
  Nb  Nb261  1  0.21848800  0.21848800  0.32309014  1.0
  Nb  Nb262  1  0.21848800  0.55182133  0.32309014  1.0
  Nb  Nb263  1  0.21848800  0.88515467  0.32309014  1.0
  Nb  Nb264  1  0.55182133  0.21848800  0.32309014  1.0
  Nb  Nb265  1  0.55182133  0.55182133  0.32309014  1.0
  Nb  Nb266  1  0.55182133  0.88515467  0.32309014  1.0
  Nb  Nb267  1  0.88515467  0.21848800  0.32309014  1.0
  Nb  Nb268  1  0.88515467  0.55182133  0.32309014  1.0
  Nb  Nb269  1  0.88515467  0.88515467  0.32309014  1.0
  Nb  Nb270  1  0.15023433  0.15023433  0.40744414  1.0
  Nb  Nb271  1  0.15023433  0.48356767  0.40744414  1.0
  Nb  Nb272  1  0.15023433  0.81690100  0.40744414  1.0
  Nb  Nb273  1  0.48356767  0.15023433  0.40744414  1.0
  Nb  Nb274  1  0.48356767  0.48356767  0.40744414  1.0
  Nb  Nb275  1  0.48356767  0.81690100  0.40744414  1.0
  Nb  Nb276  1  0.81690100  0.15023433  0.40744414  1.0
  Nb  Nb277  1  0.81690100  0.48356767  0.40744414  1.0
  Nb  Nb278  1  0.81690100  0.81690100  0.40744414  1.0
  Nb  Nb279  1  0.18309900  0.18309900  0.29275671  1.0
  Nb  Nb280  1  0.18309900  0.51643233  0.29275671  1.0
  Nb  Nb281  1  0.18309900  0.84976567  0.29275671  1.0
  Nb  Nb282  1  0.51643233  0.18309900  0.29275671  1.0
  Nb  Nb283  1  0.51643233  0.51643233  0.29275671  1.0
  Nb  Nb284  1  0.51643233  0.84976567  0.29275671  1.0
  Nb  Nb285  1  0.84976567  0.18309900  0.29275671  1.0
  Nb  Nb286  1  0.84976567  0.51643233  0.29275671  1.0
  Nb  Nb287  1  0.84976567  0.84976567  0.29275671  1.0
  Ni  Ni288  1  0.00000000  0.00000000  0.42152900  1.0
  Ni  Ni289  1  0.00000000  0.33333333  0.42152900  1.0
  Ni  Ni290  1  0.00000000  0.66666667  0.42152900  1.0
  Ni  Ni291  1  0.33333333  0.00000000  0.42152900  1.0
  Ni  Ni292  1  0.33333333  0.33333333  0.42152900  1.0
  Ni  Ni293  1  0.33333333  0.66666667  0.42152900  1.0
  Ni  Ni294  1  0.66666667  0.00000000  0.42152900  1.0
  Ni  Ni295  1  0.66666667  0.33333333  0.42152900  1.0
  Ni  Ni296  1  0.66666667  0.66666667  0.42152900  1.0
  Ni  Ni297  1  0.03018533  0.03018533  0.37605886  1.0
  Ni  Ni298  1  0.03018533  0.36351867  0.37605886  1.0
  Ni  Ni299  1  0.03018533  0.69685200  0.37605886  1.0
  Ni  Ni300  1  0.36351867  0.03018533  0.37605886  1.0
  Ni  Ni301  1  0.36351867  0.36351867  0.37605886  1.0
  Ni  Ni302  1  0.36351867  0.69685200  0.37605886  1.0
  Ni  Ni303  1  0.69685200  0.03018533  0.37605886  1.0
  Ni  Ni304  1  0.69685200  0.36351867  0.37605886  1.0
  Ni  Ni305  1  0.69685200  0.69685200  0.37605886  1.0
  Ni  Ni306  1  0.03018533  0.19705100  0.37605886  1.0
  Ni  Ni307  1  0.03018533  0.53038433  0.37605886  1.0
  Ni  Ni308  1  0.03018533  0.86371767  0.37605886  1.0
  Ni  Ni309  1  0.36351867  0.19705100  0.37605886  1.0
  Ni  Ni310  1  0.36351867  0.53038433  0.37605886  1.0
  Ni  Ni311  1  0.36351867  0.86371767  0.37605886  1.0
  Ni  Ni312  1  0.69685200  0.19705100  0.37605886  1.0
  Ni  Ni313  1  0.69685200  0.53038433  0.37605886  1.0
  Ni  Ni314  1  0.69685200  0.86371767  0.37605886  1.0
  Ni  Ni315  1  0.19705100  0.03018533  0.30454500  1.0
  Ni  Ni316  1  0.19705100  0.36351867  0.30454500  1.0
  Ni  Ni317  1  0.19705100  0.69685200  0.30454500  1.0
  Ni  Ni318  1  0.53038433  0.03018533  0.30454500  1.0
  Ni  Ni319  1  0.53038433  0.36351867  0.30454500  1.0
  Ni  Ni320  1  0.53038433  0.69685200  0.30454500  1.0
  Ni  Ni321  1  0.86371767  0.03018533  0.30454500  1.0
  Ni  Ni322  1  0.86371767  0.36351867  0.30454500  1.0
  Ni  Ni323  1  0.86371767  0.69685200  0.30454500  1.0
  Ni  Ni324  1  0.30314800  0.30314800  0.32414200  1.0
  Ni  Ni325  1  0.30314800  0.63648133  0.32414200  1.0
  Ni  Ni326  1  0.30314800  0.96981467  0.32414200  1.0
  Ni  Ni327  1  0.63648133  0.30314800  0.32414200  1.0
  Ni  Ni328  1  0.63648133  0.63648133  0.32414200  1.0
  Ni  Ni329  1  0.63648133  0.96981467  0.32414200  1.0
  Ni  Ni330  1  0.96981467  0.30314800  0.32414200  1.0
  Ni  Ni331  1  0.96981467  0.63648133  0.32414200  1.0
  Ni  Ni332  1  0.96981467  0.96981467  0.32414200  1.0
  Ni  Ni333  1  0.30314800  0.13628233  0.32414200  1.0
  Ni  Ni334  1  0.30314800  0.46961567  0.32414200  1.0
  Ni  Ni335  1  0.30314800  0.80294900  0.32414200  1.0
  Ni  Ni336  1  0.63648133  0.13628233  0.32414200  1.0
  Ni  Ni337  1  0.63648133  0.46961567  0.32414200  1.0
  Ni  Ni338  1  0.63648133  0.80294900  0.32414200  1.0
  Ni  Ni339  1  0.96981467  0.13628233  0.32414200  1.0
  Ni  Ni340  1  0.96981467  0.46961567  0.32414200  1.0
  Ni  Ni341  1  0.96981467  0.80294900  0.32414200  1.0
  Ni  Ni342  1  0.13628233  0.30314800  0.39565586  1.0
  Ni  Ni343  1  0.13628233  0.63648133  0.39565586  1.0
  Ni  Ni344  1  0.13628233  0.96981467  0.39565586  1.0
  Ni  Ni345  1  0.46961567  0.30314800  0.39565586  1.0
  Ni  Ni346  1  0.46961567  0.63648133  0.39565586  1.0
  Ni  Ni347  1  0.46961567  0.96981467  0.39565586  1.0
  Ni  Ni348  1  0.80294900  0.30314800  0.39565586  1.0
  Ni  Ni349  1  0.80294900  0.63648133  0.39565586  1.0
  Ni  Ni350  1  0.80294900  0.96981467  0.39565586  1.0
