# generated using pymatgen
data_Nb6Ni7
_symmetry_space_group_name_H-M   'P 1'
_cell_length_a   27.82061559
_cell_length_b   53.67014174
_cell_length_c   111.28246236
_cell_angle_alpha   15.29617742
_cell_angle_beta   30.59235483
_cell_angle_gamma   26.82055019
_symmetry_Int_Tables_number   1
_chemical_formula_structural   Nb6Ni7
_chemical_formula_sum   'Nb270 Ni315'
_cell_volume   19777.98971500
_cell_formula_units_Z   45
loop_
 _symmetry_equiv_pos_site_id
 _symmetry_equiv_pos_as_xyz
  1  'x, y, z'
loop_
 _atom_site_type_symbol
 _atom_site_label
 _atom_site_symmetry_multiplicity
 _atom_site_fract_x
 _atom_site_fract_y
 _atom_site_fract_z
 _atom_site_occupancy
  Nb  Nb0  1  0.05621300  0.05621300  0.06247512  1.0
  Nb  Nb1  1  0.05621300  0.38954633  0.06247512  1.0
  Nb  Nb2  1  0.05621300  0.72287967  0.06247512  1.0
  Nb  Nb3  1  0.38954633  0.05621300  0.06247512  1.0
  Nb  Nb4  1  0.38954633  0.38954633  0.06247512  1.0
  Nb  Nb5  1  0.38954633  0.72287967  0.06247512  1.0
  Nb  Nb6  1  0.72287967  0.05621300  0.06247512  1.0
  Nb  Nb7  1  0.72287967  0.38954633  0.06247512  1.0
  Nb  Nb8  1  0.72287967  0.72287967  0.06247512  1.0
  Nb  Nb9  1  0.27712033  0.27712033  0.06247513  1.0
  Nb  Nb10  1  0.27712033  0.61045367  0.06247513  1.0
  Nb  Nb11  1  0.27712033  0.94378700  0.06247513  1.0
  Nb  Nb12  1  0.61045367  0.27712033  0.06247512  1.0
  Nb  Nb13  1  0.61045367  0.61045367  0.06247513  1.0
  Nb  Nb14  1  0.61045367  0.94378700  0.06247513  1.0
  Nb  Nb15  1  0.94378700  0.27712033  0.06247513  1.0
  Nb  Nb16  1  0.94378700  0.61045367  0.06247512  1.0
  Nb  Nb17  1  0.94378700  0.94378700  0.06247512  1.0
  Nb  Nb18  1  0.11484533  0.11484533  0.06247512  1.0
  Nb  Nb19  1  0.11484533  0.44817867  0.06247512  1.0
  Nb  Nb20  1  0.11484533  0.78151200  0.06247512  1.0
  Nb  Nb21  1  0.44817867  0.11484533  0.06247512  1.0
  Nb  Nb22  1  0.44817867  0.44817867  0.06247512  1.0
  Nb  Nb23  1  0.44817867  0.78151200  0.06247512  1.0
  Nb  Nb24  1  0.78151200  0.11484533  0.06247512  1.0
  Nb  Nb25  1  0.78151200  0.44817867  0.06247512  1.0
  Nb  Nb26  1  0.78151200  0.78151200  0.06247512  1.0
  Nb  Nb27  1  0.21848800  0.21848800  0.06247512  1.0
  Nb  Nb28  1  0.21848800  0.55182133  0.06247512  1.0
  Nb  Nb29  1  0.21848800  0.88515467  0.06247512  1.0
  Nb  Nb30  1  0.55182133  0.21848800  0.06247512  1.0
  Nb  Nb31  1  0.55182133  0.55182133  0.06247512  1.0
  Nb  Nb32  1  0.55182133  0.88515467  0.06247512  1.0
  Nb  Nb33  1  0.88515467  0.21848800  0.06247513  1.0
  Nb  Nb34  1  0.88515467  0.55182133  0.06247512  1.0
  Nb  Nb35  1  0.88515467  0.88515467  0.06247512  1.0
  Nb  Nb36  1  0.15023433  0.15023433  0.06247513  1.0
  Nb  Nb37  1  0.15023433  0.48356767  0.06247513  1.0
  Nb  Nb38  1  0.15023433  0.81690100  0.06247513  1.0
  Nb  Nb39  1  0.48356767  0.15023433  0.06247512  1.0
  Nb  Nb40  1  0.48356767  0.48356767  0.06247513  1.0
  Nb  Nb41  1  0.48356767  0.81690100  0.06247512  1.0
  Nb  Nb42  1  0.81690100  0.15023433  0.06247512  1.0
  Nb  Nb43  1  0.81690100  0.48356767  0.06247512  1.0
  Nb  Nb44  1  0.81690100  0.81690100  0.06247512  1.0
  Nb  Nb45  1  0.18309900  0.18309900  0.06247512  1.0
  Nb  Nb46  1  0.18309900  0.51643233  0.06247512  1.0
  Nb  Nb47  1  0.18309900  0.84976567  0.06247512  1.0
  Nb  Nb48  1  0.51643233  0.18309900  0.06247512  1.0
  Nb  Nb49  1  0.51643233  0.51643233  0.06247512  1.0
  Nb  Nb50  1  0.51643233  0.84976567  0.06247512  1.0
  Nb  Nb51  1  0.84976567  0.18309900  0.06247512  1.0
  Nb  Nb52  1  0.84976567  0.51643233  0.06247512  1.0
  Nb  Nb53  1  0.84976567  0.84976567  0.06247512  1.0
  Ni  Ni54  1  0.00000000  0.00000000  0.06247512  1.0
  Ni  Ni55  1  0.00000000  0.33333333  0.06247512  1.0
  Ni  Ni56  1  0.00000000  0.66666667  0.06247512  1.0
  Ni  Ni57  1  0.33333333  0.00000000  0.06247512  1.0
  Ni  Ni58  1  0.33333333  0.33333333  0.06247512  1.0
  Ni  Ni59  1  0.33333333  0.66666667  0.06247512  1.0
  Ni  Ni60  1  0.66666667  0.00000000  0.06247512  1.0
  Ni  Ni61  1  0.66666667  0.33333333  0.06247512  1.0
  Ni  Ni62  1  0.66666667  0.66666667  0.06247512  1.0
  Ni  Ni63  1  0.03018533  0.03018533  0.02085821  1.0
  Ni  Ni64  1  0.03018533  0.36351867  0.02085821  1.0
  Ni  Ni65  1  0.03018533  0.69685200  0.02085821  1.0
  Ni  Ni66  1  0.36351867  0.03018533  0.02085821  1.0
  Ni  Ni67  1  0.36351867  0.36351867  0.02085821  1.0
  Ni  Ni68  1  0.36351867  0.69685200  0.02085821  1.0
  Ni  Ni69  1  0.69685200  0.03018533  0.02085821  1.0
  Ni  Ni70  1  0.69685200  0.36351867  0.02085821  1.0
  Ni  Ni71  1  0.69685200  0.69685200  0.02085821  1.0
  Ni  Ni72  1  0.03018533  0.19705100  0.02075871  1.0
  Ni  Ni73  1  0.03018533  0.53038433  0.02075871  1.0
  Ni  Ni74  1  0.03018533  0.86371767  0.02075871  1.0
  Ni  Ni75  1  0.36351867  0.19705100  0.02075871  1.0
  Ni  Ni76  1  0.36351867  0.53038433  0.02075871  1.0
  Ni  Ni77  1  0.36351867  0.86371767  0.02075871  1.0
  Ni  Ni78  1  0.69685200  0.19705100  0.02075871  1.0
  Ni  Ni79  1  0.69685200  0.53038433  0.02075871  1.0
  Ni  Ni80  1  0.69685200  0.86371767  0.02075871  1.0
  Ni  Ni81  1  0.19705100  0.03018533  0.06247513  1.0
  Ni  Ni82  1  0.19705100  0.36351867  0.06247513  1.0
  Ni  Ni83  1  0.19705100  0.69685200  0.06247513  1.0
  Ni  Ni84  1  0.53038433  0.03018533  0.06247512  1.0
  Ni  Ni85  1  0.53038433  0.36351867  0.06247513  1.0
  Ni  Ni86  1  0.53038433  0.69685200  0.06247513  1.0
  Ni  Ni87  1  0.86371767  0.03018533  0.06247512  1.0
  Ni  Ni88  1  0.86371767  0.36351867  0.06247513  1.0
  Ni  Ni89  1  0.86371767  0.69685200  0.06247512  1.0
  Ni  Ni90  1  0.30314800  0.30314800  0.02075871  1.0
  Ni  Ni91  1  0.30314800  0.63648133  0.02075871  1.0
  Ni  Ni92  1  0.30314800  0.96981467  0.02075871  1.0
  Ni  Ni93  1  0.63648133  0.30314800  0.02075871  1.0
  Ni  Ni94  1  0.63648133  0.63648133  0.02075871  1.0
  Ni  Ni95  1  0.63648133  0.96981467  0.02075871  1.0
  Ni  Ni96  1  0.96981467  0.30314800  0.02075871  1.0
  Ni  Ni97  1  0.96981467  0.63648133  0.02075871  1.0
  Ni  Ni98  1  0.96981467  0.96981467  0.02075871  1.0
  Ni  Ni99  1  0.30314800  0.13628233  0.02085821  1.0
  Ni  Ni100  1  0.30314800  0.46961567  0.02085821  1.0
  Ni  Ni101  1  0.30314800  0.80294900  0.02085821  1.0
  Ni  Ni102  1  0.63648133  0.13628233  0.02085821  1.0
  Ni  Ni103  1  0.63648133  0.46961567  0.02085821  1.0
  Ni  Ni104  1  0.63648133  0.80294900  0.02085821  1.0
  Ni  Ni105  1  0.96981467  0.13628233  0.02085821  1.0
  Ni  Ni106  1  0.96981467  0.46961567  0.02085821  1.0
  Ni  Ni107  1  0.96981467  0.80294900  0.02085821  1.0
  Ni  Ni108  1  0.13628233  0.30314800  0.06247513  1.0
  Ni  Ni109  1  0.13628233  0.63648133  0.06247512  1.0
  Ni  Ni110  1  0.13628233  0.96981467  0.06247512  1.0
  Ni  Ni111  1  0.46961567  0.30314800  0.06247513  1.0
  Ni  Ni112  1  0.46961567  0.63648133  0.06247512  1.0
  Ni  Ni113  1  0.46961567  0.96981467  0.06247512  1.0
  Ni  Ni114  1  0.80294900  0.30314800  0.06247513  1.0
  Ni  Ni115  1  0.80294900  0.63648133  0.06247512  1.0
  Ni  Ni116  1  0.80294900  0.96981467  0.06247512  1.0
  Nb  Nb117  1  0.05621300  0.05621300  0.14580846  1.0
  Nb  Nb118  1  0.05621300  0.38954633  0.14580846  1.0
  Nb  Nb119  1  0.05621300  0.72287967  0.14580846  1.0
  Nb  Nb120  1  0.38954633  0.05621300  0.14580846  1.0
  Nb  Nb121  1  0.38954633  0.38954633  0.14580846  1.0
  Nb  Nb122  1  0.38954633  0.72287967  0.14580846  1.0
  Nb  Nb123  1  0.72287967  0.05621300  0.14580846  1.0
  Nb  Nb124  1  0.72287967  0.38954633  0.14580846  1.0
  Nb  Nb125  1  0.72287967  0.72287967  0.14580846  1.0
  Nb  Nb126  1  0.27712033  0.27712033  0.14580846  1.0
  Nb  Nb127  1  0.27712033  0.61045367  0.14580846  1.0
  Nb  Nb128  1  0.27712033  0.94378700  0.14580846  1.0
  Nb  Nb129  1  0.61045367  0.27712033  0.14580846  1.0
  Nb  Nb130  1  0.61045367  0.61045367  0.14580846  1.0
  Nb  Nb131  1  0.61045367  0.94378700  0.14580846  1.0
  Nb  Nb132  1  0.94378700  0.27712033  0.14580846  1.0
  Nb  Nb133  1  0.94378700  0.61045367  0.14580846  1.0
  Nb  Nb134  1  0.94378700  0.94378700  0.14580846  1.0
  Nb  Nb135  1  0.11484533  0.11484533  0.14580846  1.0
  Nb  Nb136  1  0.11484533  0.44817867  0.14580846  1.0
  Nb  Nb137  1  0.11484533  0.78151200  0.14580846  1.0
  Nb  Nb138  1  0.44817867  0.11484533  0.14580846  1.0
  Nb  Nb139  1  0.44817867  0.44817867  0.14580846  1.0
  Nb  Nb140  1  0.44817867  0.78151200  0.14580846  1.0
  Nb  Nb141  1  0.78151200  0.11484533  0.14580846  1.0
  Nb  Nb142  1  0.78151200  0.44817867  0.14580846  1.0
  Nb  Nb143  1  0.78151200  0.78151200  0.14580846  1.0
  Nb  Nb144  1  0.21848800  0.21848800  0.14580846  1.0
  Nb  Nb145  1  0.21848800  0.55182133  0.14580846  1.0
  Nb  Nb146  1  0.21848800  0.88515467  0.14580846  1.0
  Nb  Nb147  1  0.55182133  0.21848800  0.14580846  1.0
  Nb  Nb148  1  0.55182133  0.55182133  0.14580846  1.0
  Nb  Nb149  1  0.55182133  0.88515467  0.14580846  1.0
  Nb  Nb150  1  0.88515467  0.21848800  0.14580846  1.0
  Nb  Nb151  1  0.88515467  0.55182133  0.14580846  1.0
  Nb  Nb152  1  0.88515467  0.88515467  0.14580846  1.0
  Nb  Nb153  1  0.15023433  0.15023433  0.14580846  1.0
  Nb  Nb154  1  0.15023433  0.48356767  0.14580846  1.0
  Nb  Nb155  1  0.15023433  0.81690100  0.14580846  1.0
  Nb  Nb156  1  0.48356767  0.15023433  0.14580846  1.0
  Nb  Nb157  1  0.48356767  0.48356767  0.14580846  1.0
  Nb  Nb158  1  0.48356767  0.81690100  0.14580846  1.0
  Nb  Nb159  1  0.81690100  0.15023433  0.14580846  1.0
  Nb  Nb160  1  0.81690100  0.48356767  0.14580846  1.0
  Nb  Nb161  1  0.81690100  0.81690100  0.14580846  1.0
  Nb  Nb162  1  0.18309900  0.18309900  0.14580846  1.0
  Nb  Nb163  1  0.18309900  0.51643233  0.14580846  1.0
  Nb  Nb164  1  0.18309900  0.84976567  0.14580846  1.0
  Nb  Nb165  1  0.51643233  0.18309900  0.14580846  1.0
  Nb  Nb166  1  0.51643233  0.51643233  0.14580846  1.0
  Nb  Nb167  1  0.51643233  0.84976567  0.14580846  1.0
  Nb  Nb168  1  0.84976567  0.18309900  0.14580846  1.0
  Nb  Nb169  1  0.84976567  0.51643233  0.14580846  1.0
  Nb  Nb170  1  0.84976567  0.84976567  0.14580846  1.0
  Ni  Ni171  1  0.00000000  0.00000000  0.14580846  1.0
  Ni  Ni172  1  0.00000000  0.33333333  0.14580846  1.0
  Ni  Ni173  1  0.00000000  0.66666667  0.14580846  1.0
  Ni  Ni174  1  0.33333333  0.00000000  0.14580846  1.0
  Ni  Ni175  1  0.33333333  0.33333333  0.14580846  1.0
  Ni  Ni176  1  0.33333333  0.66666667  0.14580846  1.0
  Ni  Ni177  1  0.66666667  0.00000000  0.14580846  1.0
  Ni  Ni178  1  0.66666667  0.33333333  0.14580846  1.0
  Ni  Ni179  1  0.66666667  0.66666667  0.14580846  1.0
  Ni  Ni180  1  0.03018533  0.03018533  0.10419154  1.0
  Ni  Ni181  1  0.03018533  0.36351867  0.10419154  1.0
  Ni  Ni182  1  0.03018533  0.69685200  0.10419154  1.0
  Ni  Ni183  1  0.36351867  0.03018533  0.10419154  1.0
  Ni  Ni184  1  0.36351867  0.36351867  0.10419154  1.0
  Ni  Ni185  1  0.36351867  0.69685200  0.10419154  1.0
  Ni  Ni186  1  0.69685200  0.03018533  0.10419154  1.0
  Ni  Ni187  1  0.69685200  0.36351867  0.10419154  1.0
  Ni  Ni188  1  0.69685200  0.69685200  0.10419154  1.0
  Ni  Ni189  1  0.03018533  0.19705100  0.10409204  1.0
  Ni  Ni190  1  0.03018533  0.53038433  0.10409204  1.0
  Ni  Ni191  1  0.03018533  0.86371767  0.10409204  1.0
  Ni  Ni192  1  0.36351867  0.19705100  0.10409204  1.0
  Ni  Ni193  1  0.36351867  0.53038433  0.10409204  1.0
  Ni  Ni194  1  0.36351867  0.86371767  0.10409204  1.0
  Ni  Ni195  1  0.69685200  0.19705100  0.10409204  1.0
  Ni  Ni196  1  0.69685200  0.53038433  0.10409204  1.0
  Ni  Ni197  1  0.69685200  0.86371767  0.10409204  1.0
  Ni  Ni198  1  0.19705100  0.03018533  0.14580846  1.0
  Ni  Ni199  1  0.19705100  0.36351867  0.14580846  1.0
  Ni  Ni200  1  0.19705100  0.69685200  0.14580846  1.0
  Ni  Ni201  1  0.53038433  0.03018533  0.14580846  1.0
  Ni  Ni202  1  0.53038433  0.36351867  0.14580846  1.0
  Ni  Ni203  1  0.53038433  0.69685200  0.14580846  1.0
  Ni  Ni204  1  0.86371767  0.03018533  0.14580846  1.0
  Ni  Ni205  1  0.86371767  0.36351867  0.14580846  1.0
  Ni  Ni206  1  0.86371767  0.69685200  0.14580846  1.0
  Ni  Ni207  1  0.30314800  0.30314800  0.10409204  1.0
  Ni  Ni208  1  0.30314800  0.63648133  0.10409204  1.0
  Ni  Ni209  1  0.30314800  0.96981467  0.10409204  1.0
  Ni  Ni210  1  0.63648133  0.30314800  0.10409204  1.0
  Ni  Ni211  1  0.63648133  0.63648133  0.10409204  1.0
  Ni  Ni212  1  0.63648133  0.96981467  0.10409204  1.0
  Ni  Ni213  1  0.96981467  0.30314800  0.10409204  1.0
  Ni  Ni214  1  0.96981467  0.63648133  0.10409204  1.0
  Ni  Ni215  1  0.96981467  0.96981467  0.10409204  1.0
  Ni  Ni216  1  0.30314800  0.13628233  0.10419154  1.0
  Ni  Ni217  1  0.30314800  0.46961567  0.10419154  1.0
  Ni  Ni218  1  0.30314800  0.80294900  0.10419154  1.0
  Ni  Ni219  1  0.63648133  0.13628233  0.10419154  1.0
  Ni  Ni220  1  0.63648133  0.46961567  0.10419154  1.0
  Ni  Ni221  1  0.63648133  0.80294900  0.10419154  1.0
  Ni  Ni222  1  0.96981467  0.13628233  0.10419154  1.0
  Ni  Ni223  1  0.96981467  0.46961567  0.10419154  1.0
  Ni  Ni224  1  0.96981467  0.80294900  0.10419154  1.0
  Ni  Ni225  1  0.13628233  0.30314800  0.14580846  1.0
  Ni  Ni226  1  0.13628233  0.63648133  0.14580846  1.0
  Ni  Ni227  1  0.13628233  0.96981467  0.14580846  1.0
  Ni  Ni228  1  0.46961567  0.30314800  0.14580846  1.0
  Ni  Ni229  1  0.46961567  0.63648133  0.14580846  1.0
  Ni  Ni230  1  0.46961567  0.96981467  0.14580846  1.0
  Ni  Ni231  1  0.80294900  0.30314800  0.14580846  1.0
  Ni  Ni232  1  0.80294900  0.63648133  0.14580846  1.0
  Ni  Ni233  1  0.80294900  0.96981467  0.14580846  1.0
  Nb  Nb234  1  0.05621300  0.05621300  0.22914179  1.0
  Nb  Nb235  1  0.05621300  0.38954633  0.22914179  1.0
  Nb  Nb236  1  0.05621300  0.72287967  0.22914179  1.0
  Nb  Nb237  1  0.38954633  0.05621300  0.22914179  1.0
  Nb  Nb238  1  0.38954633  0.38954633  0.22914179  1.0
  Nb  Nb239  1  0.38954633  0.72287967  0.22914179  1.0
  Nb  Nb240  1  0.72287967  0.05621300  0.22914179  1.0
  Nb  Nb241  1  0.72287967  0.38954633  0.22914179  1.0
  Nb  Nb242  1  0.72287967  0.72287967  0.22914179  1.0
  Nb  Nb243  1  0.27712033  0.27712033  0.22914179  1.0
  Nb  Nb244  1  0.27712033  0.61045367  0.22914179  1.0
  Nb  Nb245  1  0.27712033  0.94378700  0.22914179  1.0
  Nb  Nb246  1  0.61045367  0.27712033  0.22914179  1.0
  Nb  Nb247  1  0.61045367  0.61045367  0.22914179  1.0
  Nb  Nb248  1  0.61045367  0.94378700  0.22914179  1.0
  Nb  Nb249  1  0.94378700  0.27712033  0.22914179  1.0
  Nb  Nb250  1  0.94378700  0.61045367  0.22914179  1.0
  Nb  Nb251  1  0.94378700  0.94378700  0.22914179  1.0
  Nb  Nb252  1  0.11484533  0.11484533  0.22914179  1.0
  Nb  Nb253  1  0.11484533  0.44817867  0.22914179  1.0
  Nb  Nb254  1  0.11484533  0.78151200  0.22914179  1.0
  Nb  Nb255  1  0.44817867  0.11484533  0.22914179  1.0
  Nb  Nb256  1  0.44817867  0.44817867  0.22914179  1.0
  Nb  Nb257  1  0.44817867  0.78151200  0.22914179  1.0
  Nb  Nb258  1  0.78151200  0.11484533  0.22914179  1.0
  Nb  Nb259  1  0.78151200  0.44817867  0.22914179  1.0
  Nb  Nb260  1  0.78151200  0.78151200  0.22914179  1.0
  Nb  Nb261  1  0.21848800  0.21848800  0.22914179  1.0
  Nb  Nb262  1  0.21848800  0.55182133  0.22914179  1.0
  Nb  Nb263  1  0.21848800  0.88515467  0.22914179  1.0
  Nb  Nb264  1  0.55182133  0.21848800  0.22914179  1.0
  Nb  Nb265  1  0.55182133  0.55182133  0.22914179  1.0
  Nb  Nb266  1  0.55182133  0.88515467  0.22914179  1.0
  Nb  Nb267  1  0.88515467  0.21848800  0.22914179  1.0
  Nb  Nb268  1  0.88515467  0.55182133  0.22914179  1.0
  Nb  Nb269  1  0.88515467  0.88515467  0.22914179  1.0
  Nb  Nb270  1  0.15023433  0.15023433  0.22914179  1.0
  Nb  Nb271  1  0.15023433  0.48356767  0.22914179  1.0
  Nb  Nb272  1  0.15023433  0.81690100  0.22914179  1.0
  Nb  Nb273  1  0.48356767  0.15023433  0.22914179  1.0
  Nb  Nb274  1  0.48356767  0.48356767  0.22914179  1.0
  Nb  Nb275  1  0.48356767  0.81690100  0.22914179  1.0
  Nb  Nb276  1  0.81690100  0.15023433  0.22914179  1.0
  Nb  Nb277  1  0.81690100  0.48356767  0.22914179  1.0
  Nb  Nb278  1  0.81690100  0.81690100  0.22914179  1.0
  Nb  Nb279  1  0.18309900  0.18309900  0.22914179  1.0
  Nb  Nb280  1  0.18309900  0.51643233  0.22914179  1.0
  Nb  Nb281  1  0.18309900  0.84976567  0.22914179  1.0
  Nb  Nb282  1  0.51643233  0.18309900  0.22914179  1.0
  Nb  Nb283  1  0.51643233  0.51643233  0.22914179  1.0
  Nb  Nb284  1  0.51643233  0.84976567  0.22914179  1.0
  Nb  Nb285  1  0.84976567  0.18309900  0.22914179  1.0
  Nb  Nb286  1  0.84976567  0.51643233  0.22914179  1.0
  Nb  Nb287  1  0.84976567  0.84976567  0.22914179  1.0
  Ni  Ni288  1  0.00000000  0.00000000  0.22914179  1.0
  Ni  Ni289  1  0.00000000  0.33333333  0.22914179  1.0
  Ni  Ni290  1  0.00000000  0.66666667  0.22914179  1.0
  Ni  Ni291  1  0.33333333  0.00000000  0.22914179  1.0
  Ni  Ni292  1  0.33333333  0.33333333  0.22914179  1.0
  Ni  Ni293  1  0.33333333  0.66666667  0.22914179  1.0
  Ni  Ni294  1  0.66666667  0.00000000  0.22914179  1.0
  Ni  Ni295  1  0.66666667  0.33333333  0.22914179  1.0
  Ni  Ni296  1  0.66666667  0.66666667  0.22914179  1.0
  Ni  Ni297  1  0.03018533  0.03018533  0.18752487  1.0
  Ni  Ni298  1  0.03018533  0.36351867  0.18752488  1.0
  Ni  Ni299  1  0.03018533  0.69685200  0.18752488  1.0
  Ni  Ni300  1  0.36351867  0.03018533  0.18752487  1.0
  Ni  Ni301  1  0.36351867  0.36351867  0.18752488  1.0
  Ni  Ni302  1  0.36351867  0.69685200  0.18752488  1.0
  Ni  Ni303  1  0.69685200  0.03018533  0.18752487  1.0
  Ni  Ni304  1  0.69685200  0.36351867  0.18752487  1.0
  Ni  Ni305  1  0.69685200  0.69685200  0.18752488  1.0
  Ni  Ni306  1  0.03018533  0.19705100  0.18742538  1.0
  Ni  Ni307  1  0.03018533  0.53038433  0.18742538  1.0
  Ni  Ni308  1  0.03018533  0.86371767  0.18742537  1.0
  Ni  Ni309  1  0.36351867  0.19705100  0.18742537  1.0
  Ni  Ni310  1  0.36351867  0.53038433  0.18742538  1.0
  Ni  Ni311  1  0.36351867  0.86371767  0.18742537  1.0
  Ni  Ni312  1  0.69685200  0.19705100  0.18742537  1.0
  Ni  Ni313  1  0.69685200  0.53038433  0.18742537  1.0
  Ni  Ni314  1  0.69685200  0.86371767  0.18742537  1.0
  Ni  Ni315  1  0.19705100  0.03018533  0.22914179  1.0
  Ni  Ni316  1  0.19705100  0.36351867  0.22914179  1.0
  Ni  Ni317  1  0.19705100  0.69685200  0.22914179  1.0
  Ni  Ni318  1  0.53038433  0.03018533  0.22914179  1.0
  Ni  Ni319  1  0.53038433  0.36351867  0.22914179  1.0
  Ni  Ni320  1  0.53038433  0.69685200  0.22914179  1.0
  Ni  Ni321  1  0.86371767  0.03018533  0.22914179  1.0
  Ni  Ni322  1  0.86371767  0.36351867  0.22914179  1.0
  Ni  Ni323  1  0.86371767  0.69685200  0.22914179  1.0
  Ni  Ni324  1  0.30314800  0.30314800  0.18742537  1.0
  Ni  Ni325  1  0.30314800  0.63648133  0.18742537  1.0
  Ni  Ni326  1  0.30314800  0.96981467  0.18742538  1.0
  Ni  Ni327  1  0.63648133  0.30314800  0.18742538  1.0
  Ni  Ni328  1  0.63648133  0.63648133  0.18742537  1.0
  Ni  Ni329  1  0.63648133  0.96981467  0.18742538  1.0
  Ni  Ni330  1  0.96981467  0.30314800  0.18742537  1.0
  Ni  Ni331  1  0.96981467  0.63648133  0.18742537  1.0
  Ni  Ni332  1  0.96981467  0.96981467  0.18742538  1.0
  Ni  Ni333  1  0.30314800  0.13628233  0.18752487  1.0
  Ni  Ni334  1  0.30314800  0.46961567  0.18752487  1.0
  Ni  Ni335  1  0.30314800  0.80294900  0.18752488  1.0
  Ni  Ni336  1  0.63648133  0.13628233  0.18752487  1.0
  Ni  Ni337  1  0.63648133  0.46961567  0.18752488  1.0
  Ni  Ni338  1  0.63648133  0.80294900  0.18752488  1.0
  Ni  Ni339  1  0.96981467  0.13628233  0.18752487  1.0
  Ni  Ni340  1  0.96981467  0.46961567  0.18752488  1.0
  Ni  Ni341  1  0.96981467  0.80294900  0.18752488  1.0
  Ni  Ni342  1  0.13628233  0.30314800  0.22914179  1.0
  Ni  Ni343  1  0.13628233  0.63648133  0.22914179  1.0
  Ni  Ni344  1  0.13628233  0.96981467  0.22914179  1.0
  Ni  Ni345  1  0.46961567  0.30314800  0.22914179  1.0
  Ni  Ni346  1  0.46961567  0.63648133  0.22914179  1.0
  Ni  Ni347  1  0.46961567  0.96981467  0.22914179  1.0
  Ni  Ni348  1  0.80294900  0.30314800  0.22914179  1.0
  Ni  Ni349  1  0.80294900  0.63648133  0.22914179  1.0
  Ni  Ni350  1  0.80294900  0.96981467  0.22914179  1.0
  Nb  Nb351  1  0.05621300  0.05621300  0.31247512  1.0
  Nb  Nb352  1  0.05621300  0.38954633  0.31247512  1.0
  Nb  Nb353  1  0.05621300  0.72287967  0.31247512  1.0
  Nb  Nb354  1  0.38954633  0.05621300  0.31247512  1.0
  Nb  Nb355  1  0.38954633  0.38954633  0.31247512  1.0
  Nb  Nb356  1  0.38954633  0.72287967  0.31247512  1.0
  Nb  Nb357  1  0.72287967  0.05621300  0.31247512  1.0
  Nb  Nb358  1  0.72287967  0.38954633  0.31247512  1.0
  Nb  Nb359  1  0.72287967  0.72287967  0.31247512  1.0
  Nb  Nb360  1  0.27712033  0.27712033  0.31247513  1.0
  Nb  Nb361  1  0.27712033  0.61045367  0.31247512  1.0
  Nb  Nb362  1  0.27712033  0.94378700  0.31247513  1.0
  Nb  Nb363  1  0.61045367  0.27712033  0.31247512  1.0
  Nb  Nb364  1  0.61045367  0.61045367  0.31247512  1.0
  Nb  Nb365  1  0.61045367  0.94378700  0.31247512  1.0
  Nb  Nb366  1  0.94378700  0.27712033  0.31247513  1.0
  Nb  Nb367  1  0.94378700  0.61045367  0.31247512  1.0
  Nb  Nb368  1  0.94378700  0.94378700  0.31247512  1.0
  Nb  Nb369  1  0.11484533  0.11484533  0.31247512  1.0
  Nb  Nb370  1  0.11484533  0.44817867  0.31247512  1.0
  Nb  Nb371  1  0.11484533  0.78151200  0.31247512  1.0
  Nb  Nb372  1  0.44817867  0.11484533  0.31247512  1.0
  Nb  Nb373  1  0.44817867  0.44817867  0.31247512  1.0
  Nb  Nb374  1  0.44817867  0.78151200  0.31247512  1.0
  Nb  Nb375  1  0.78151200  0.11484533  0.31247512  1.0
  Nb  Nb376  1  0.78151200  0.44817867  0.31247512  1.0
  Nb  Nb377  1  0.78151200  0.78151200  0.31247512  1.0
  Nb  Nb378  1  0.21848800  0.21848800  0.31247512  1.0
  Nb  Nb379  1  0.21848800  0.55182133  0.31247513  1.0
  Nb  Nb380  1  0.21848800  0.88515467  0.31247512  1.0
  Nb  Nb381  1  0.55182133  0.21848800  0.31247512  1.0
  Nb  Nb382  1  0.55182133  0.55182133  0.31247513  1.0
  Nb  Nb383  1  0.55182133  0.88515467  0.31247512  1.0
  Nb  Nb384  1  0.88515467  0.21848800  0.31247512  1.0
  Nb  Nb385  1  0.88515467  0.55182133  0.31247513  1.0
  Nb  Nb386  1  0.88515467  0.88515467  0.31247512  1.0
  Nb  Nb387  1  0.15023433  0.15023433  0.31247513  1.0
  Nb  Nb388  1  0.15023433  0.48356767  0.31247513  1.0
  Nb  Nb389  1  0.15023433  0.81690100  0.31247513  1.0
  Nb  Nb390  1  0.48356767  0.15023433  0.31247513  1.0
  Nb  Nb391  1  0.48356767  0.48356767  0.31247513  1.0
  Nb  Nb392  1  0.48356767  0.81690100  0.31247513  1.0
  Nb  Nb393  1  0.81690100  0.15023433  0.31247513  1.0
  Nb  Nb394  1  0.81690100  0.48356767  0.31247512  1.0
  Nb  Nb395  1  0.81690100  0.81690100  0.31247513  1.0
  Nb  Nb396  1  0.18309900  0.18309900  0.31247512  1.0
  Nb  Nb397  1  0.18309900  0.51643233  0.31247512  1.0
  Nb  Nb398  1  0.18309900  0.84976567  0.31247512  1.0
  Nb  Nb399  1  0.51643233  0.18309900  0.31247513  1.0
  Nb  Nb400  1  0.51643233  0.51643233  0.31247512  1.0
  Nb  Nb401  1  0.51643233  0.84976567  0.31247512  1.0
  Nb  Nb402  1  0.84976567  0.18309900  0.31247513  1.0
  Nb  Nb403  1  0.84976567  0.51643233  0.31247512  1.0
  Nb  Nb404  1  0.84976567  0.84976567  0.31247512  1.0
  Ni  Ni405  1  0.00000000  0.00000000  0.31247512  1.0
  Ni  Ni406  1  0.00000000  0.33333333  0.31247512  1.0
  Ni  Ni407  1  0.00000000  0.66666667  0.31247512  1.0
  Ni  Ni408  1  0.33333333  0.00000000  0.31247512  1.0
  Ni  Ni409  1  0.33333333  0.33333333  0.31247512  1.0
  Ni  Ni410  1  0.33333333  0.66666667  0.31247512  1.0
  Ni  Ni411  1  0.66666667  0.00000000  0.31247512  1.0
  Ni  Ni412  1  0.66666667  0.33333333  0.31247513  1.0
  Ni  Ni413  1  0.66666667  0.66666667  0.31247512  1.0
  Ni  Ni414  1  0.03018533  0.03018533  0.27085821  1.0
  Ni  Ni415  1  0.03018533  0.36351867  0.27085821  1.0
  Ni  Ni416  1  0.03018533  0.69685200  0.27085821  1.0
  Ni  Ni417  1  0.36351867  0.03018533  0.27085821  1.0
  Ni  Ni418  1  0.36351867  0.36351867  0.27085821  1.0
  Ni  Ni419  1  0.36351867  0.69685200  0.27085821  1.0
  Ni  Ni420  1  0.69685200  0.03018533  0.27085821  1.0
  Ni  Ni421  1  0.69685200  0.36351867  0.27085821  1.0
  Ni  Ni422  1  0.69685200  0.69685200  0.27085821  1.0
  Ni  Ni423  1  0.03018533  0.19705100  0.27075871  1.0
  Ni  Ni424  1  0.03018533  0.53038433  0.27075871  1.0
  Ni  Ni425  1  0.03018533  0.86371767  0.27075871  1.0
  Ni  Ni426  1  0.36351867  0.19705100  0.27075871  1.0
  Ni  Ni427  1  0.36351867  0.53038433  0.27075871  1.0
  Ni  Ni428  1  0.36351867  0.86371767  0.27075871  1.0
  Ni  Ni429  1  0.69685200  0.19705100  0.27075871  1.0
  Ni  Ni430  1  0.69685200  0.53038433  0.27075871  1.0
  Ni  Ni431  1  0.69685200  0.86371767  0.27075871  1.0
  Ni  Ni432  1  0.19705100  0.03018533  0.31247512  1.0
  Ni  Ni433  1  0.19705100  0.36351867  0.31247512  1.0
  Ni  Ni434  1  0.19705100  0.69685200  0.31247513  1.0
  Ni  Ni435  1  0.53038433  0.03018533  0.31247512  1.0
  Ni  Ni436  1  0.53038433  0.36351867  0.31247512  1.0
  Ni  Ni437  1  0.53038433  0.69685200  0.31247513  1.0
  Ni  Ni438  1  0.86371767  0.03018533  0.31247512  1.0
  Ni  Ni439  1  0.86371767  0.36351867  0.31247512  1.0
  Ni  Ni440  1  0.86371767  0.69685200  0.31247512  1.0
  Ni  Ni441  1  0.30314800  0.30314800  0.27075871  1.0
  Ni  Ni442  1  0.30314800  0.63648133  0.27075871  1.0
  Ni  Ni443  1  0.30314800  0.96981467  0.27075871  1.0
  Ni  Ni444  1  0.63648133  0.30314800  0.27075871  1.0
  Ni  Ni445  1  0.63648133  0.63648133  0.27075871  1.0
  Ni  Ni446  1  0.63648133  0.96981467  0.27075871  1.0
  Ni  Ni447  1  0.96981467  0.30314800  0.27075871  1.0
  Ni  Ni448  1  0.96981467  0.63648133  0.27075871  1.0
  Ni  Ni449  1  0.96981467  0.96981467  0.27075871  1.0
  Ni  Ni450  1  0.30314800  0.13628233  0.27085821  1.0
  Ni  Ni451  1  0.30314800  0.46961567  0.27085821  1.0
  Ni  Ni452  1  0.30314800  0.80294900  0.27085821  1.0
  Ni  Ni453  1  0.63648133  0.13628233  0.27085821  1.0
  Ni  Ni454  1  0.63648133  0.46961567  0.27085821  1.0
  Ni  Ni455  1  0.63648133  0.80294900  0.27085821  1.0
  Ni  Ni456  1  0.96981467  0.13628233  0.27085821  1.0
  Ni  Ni457  1  0.96981467  0.46961567  0.27085821  1.0
  Ni  Ni458  1  0.96981467  0.80294900  0.27085821  1.0
  Ni  Ni459  1  0.13628233  0.30314800  0.31247513  1.0
  Ni  Ni460  1  0.13628233  0.63648133  0.31247512  1.0
  Ni  Ni461  1  0.13628233  0.96981467  0.31247512  1.0
  Ni  Ni462  1  0.46961567  0.30314800  0.31247513  1.0
  Ni  Ni463  1  0.46961567  0.63648133  0.31247512  1.0
  Ni  Ni464  1  0.46961567  0.96981467  0.31247512  1.0
  Ni  Ni465  1  0.80294900  0.30314800  0.31247513  1.0
  Ni  Ni466  1  0.80294900  0.63648133  0.31247512  1.0
  Ni  Ni467  1  0.80294900  0.96981467  0.31247512  1.0
  Nb  Nb468  1  0.05621300  0.05621300  0.39580846  1.0
  Nb  Nb469  1  0.05621300  0.38954633  0.39580846  1.0
  Nb  Nb470  1  0.05621300  0.72287967  0.39580846  1.0
  Nb  Nb471  1  0.38954633  0.05621300  0.39580846  1.0
  Nb  Nb472  1  0.38954633  0.38954633  0.39580846  1.0
  Nb  Nb473  1  0.38954633  0.72287967  0.39580846  1.0
  Nb  Nb474  1  0.72287967  0.05621300  0.39580846  1.0
  Nb  Nb475  1  0.72287967  0.38954633  0.39580846  1.0
  Nb  Nb476  1  0.72287967  0.72287967  0.39580846  1.0
  Nb  Nb477  1  0.27712033  0.27712033  0.39580846  1.0
  Nb  Nb478  1  0.27712033  0.61045367  0.39580846  1.0
  Nb  Nb479  1  0.27712033  0.94378700  0.39580846  1.0
  Nb  Nb480  1  0.61045367  0.27712033  0.39580846  1.0
  Nb  Nb481  1  0.61045367  0.61045367  0.39580846  1.0
  Nb  Nb482  1  0.61045367  0.94378700  0.39580846  1.0
  Nb  Nb483  1  0.94378700  0.27712033  0.39580846  1.0
  Nb  Nb484  1  0.94378700  0.61045367  0.39580846  1.0
  Nb  Nb485  1  0.94378700  0.94378700  0.39580846  1.0
  Nb  Nb486  1  0.11484533  0.11484533  0.39580846  1.0
  Nb  Nb487  1  0.11484533  0.44817867  0.39580846  1.0
  Nb  Nb488  1  0.11484533  0.78151200  0.39580846  1.0
  Nb  Nb489  1  0.44817867  0.11484533  0.39580846  1.0
  Nb  Nb490  1  0.44817867  0.44817867  0.39580846  1.0
  Nb  Nb491  1  0.44817867  0.78151200  0.39580846  1.0
  Nb  Nb492  1  0.78151200  0.11484533  0.39580846  1.0
  Nb  Nb493  1  0.78151200  0.44817867  0.39580846  1.0
  Nb  Nb494  1  0.78151200  0.78151200  0.39580846  1.0
  Nb  Nb495  1  0.21848800  0.21848800  0.39580846  1.0
  Nb  Nb496  1  0.21848800  0.55182133  0.39580846  1.0
  Nb  Nb497  1  0.21848800  0.88515467  0.39580846  1.0
  Nb  Nb498  1  0.55182133  0.21848800  0.39580846  1.0
  Nb  Nb499  1  0.55182133  0.55182133  0.39580846  1.0
  Nb  Nb500  1  0.55182133  0.88515467  0.39580846  1.0
  Nb  Nb501  1  0.88515467  0.21848800  0.39580846  1.0
  Nb  Nb502  1  0.88515467  0.55182133  0.39580846  1.0
  Nb  Nb503  1  0.88515467  0.88515467  0.39580846  1.0
  Nb  Nb504  1  0.15023433  0.15023433  0.39580846  1.0
  Nb  Nb505  1  0.15023433  0.48356767  0.39580846  1.0
  Nb  Nb506  1  0.15023433  0.81690100  0.39580846  1.0
  Nb  Nb507  1  0.48356767  0.15023433  0.39580846  1.0
  Nb  Nb508  1  0.48356767  0.48356767  0.39580846  1.0
  Nb  Nb509  1  0.48356767  0.81690100  0.39580846  1.0
  Nb  Nb510  1  0.81690100  0.15023433  0.39580846  1.0
  Nb  Nb511  1  0.81690100  0.48356767  0.39580846  1.0
  Nb  Nb512  1  0.81690100  0.81690100  0.39580846  1.0
  Nb  Nb513  1  0.18309900  0.18309900  0.39580846  1.0
  Nb  Nb514  1  0.18309900  0.51643233  0.39580846  1.0
  Nb  Nb515  1  0.18309900  0.84976567  0.39580846  1.0
  Nb  Nb516  1  0.51643233  0.18309900  0.39580846  1.0
  Nb  Nb517  1  0.51643233  0.51643233  0.39580846  1.0
  Nb  Nb518  1  0.51643233  0.84976567  0.39580846  1.0
  Nb  Nb519  1  0.84976567  0.18309900  0.39580846  1.0
  Nb  Nb520  1  0.84976567  0.51643233  0.39580846  1.0
  Nb  Nb521  1  0.84976567  0.84976567  0.39580846  1.0
  Ni  Ni522  1  0.00000000  0.00000000  0.39580846  1.0
  Ni  Ni523  1  0.00000000  0.33333333  0.39580846  1.0
  Ni  Ni524  1  0.00000000  0.66666667  0.39580846  1.0
  Ni  Ni525  1  0.33333333  0.00000000  0.39580846  1.0
  Ni  Ni526  1  0.33333333  0.33333333  0.39580846  1.0
  Ni  Ni527  1  0.33333333  0.66666667  0.39580846  1.0
  Ni  Ni528  1  0.66666667  0.00000000  0.39580846  1.0
  Ni  Ni529  1  0.66666667  0.33333333  0.39580846  1.0
  Ni  Ni530  1  0.66666667  0.66666667  0.39580846  1.0
  Ni  Ni531  1  0.03018533  0.03018533  0.35419154  1.0
  Ni  Ni532  1  0.03018533  0.36351867  0.35419154  1.0
  Ni  Ni533  1  0.03018533  0.69685200  0.35419154  1.0
  Ni  Ni534  1  0.36351867  0.03018533  0.35419154  1.0
  Ni  Ni535  1  0.36351867  0.36351867  0.35419154  1.0
  Ni  Ni536  1  0.36351867  0.69685200  0.35419154  1.0
  Ni  Ni537  1  0.69685200  0.03018533  0.35419154  1.0
  Ni  Ni538  1  0.69685200  0.36351867  0.35419154  1.0
  Ni  Ni539  1  0.69685200  0.69685200  0.35419154  1.0
  Ni  Ni540  1  0.03018533  0.19705100  0.35409204  1.0
  Ni  Ni541  1  0.03018533  0.53038433  0.35409204  1.0
  Ni  Ni542  1  0.03018533  0.86371767  0.35409204  1.0
  Ni  Ni543  1  0.36351867  0.19705100  0.35409204  1.0
  Ni  Ni544  1  0.36351867  0.53038433  0.35409204  1.0
  Ni  Ni545  1  0.36351867  0.86371767  0.35409204  1.0
  Ni  Ni546  1  0.69685200  0.19705100  0.35409204  1.0
  Ni  Ni547  1  0.69685200  0.53038433  0.35409204  1.0
  Ni  Ni548  1  0.69685200  0.86371767  0.35409204  1.0
  Ni  Ni549  1  0.19705100  0.03018533  0.39580846  1.0
  Ni  Ni550  1  0.19705100  0.36351867  0.39580846  1.0
  Ni  Ni551  1  0.19705100  0.69685200  0.39580846  1.0
  Ni  Ni552  1  0.53038433  0.03018533  0.39580846  1.0
  Ni  Ni553  1  0.53038433  0.36351867  0.39580846  1.0
  Ni  Ni554  1  0.53038433  0.69685200  0.39580846  1.0
  Ni  Ni555  1  0.86371767  0.03018533  0.39580846  1.0
  Ni  Ni556  1  0.86371767  0.36351867  0.39580846  1.0
  Ni  Ni557  1  0.86371767  0.69685200  0.39580846  1.0
  Ni  Ni558  1  0.30314800  0.30314800  0.35409204  1.0
  Ni  Ni559  1  0.30314800  0.63648133  0.35409204  1.0
  Ni  Ni560  1  0.30314800  0.96981467  0.35409204  1.0
  Ni  Ni561  1  0.63648133  0.30314800  0.35409204  1.0
  Ni  Ni562  1  0.63648133  0.63648133  0.35409204  1.0
  Ni  Ni563  1  0.63648133  0.96981467  0.35409204  1.0
  Ni  Ni564  1  0.96981467  0.30314800  0.35409204  1.0
  Ni  Ni565  1  0.96981467  0.63648133  0.35409204  1.0
  Ni  Ni566  1  0.96981467  0.96981467  0.35409204  1.0
  Ni  Ni567  1  0.30314800  0.13628233  0.35419154  1.0
  Ni  Ni568  1  0.30314800  0.46961567  0.35419154  1.0
  Ni  Ni569  1  0.30314800  0.80294900  0.35419154  1.0
  Ni  Ni570  1  0.63648133  0.13628233  0.35419154  1.0
  Ni  Ni571  1  0.63648133  0.46961567  0.35419154  1.0
  Ni  Ni572  1  0.63648133  0.80294900  0.35419154  1.0
  Ni  Ni573  1  0.96981467  0.13628233  0.35419154  1.0
  Ni  Ni574  1  0.96981467  0.46961567  0.35419154  1.0
  Ni  Ni575  1  0.96981467  0.80294900  0.35419154  1.0
  Ni  Ni576  1  0.13628233  0.30314800  0.39580846  1.0
  Ni  Ni577  1  0.13628233  0.63648133  0.39580846  1.0
  Ni  Ni578  1  0.13628233  0.96981467  0.39580846  1.0
  Ni  Ni579  1  0.46961567  0.30314800  0.39580846  1.0
  Ni  Ni580  1  0.46961567  0.63648133  0.39580846  1.0
  Ni  Ni581  1  0.46961567  0.96981467  0.39580846  1.0
  Ni  Ni582  1  0.80294900  0.30314800  0.39580846  1.0
  Ni  Ni583  1  0.80294900  0.63648133  0.39580846  1.0
  Ni  Ni584  1  0.80294900  0.96981467  0.39580846  1.0
