# generated using pymatgen
data_Nb6Ni7
_symmetry_space_group_name_H-M   'P 1'
_cell_length_a   34.71183715
_cell_length_b   14.67864071
_cell_length_c   46.36769265
_cell_angle_alpha   105.29617742
_cell_angle_beta   54.66478184
_cell_angle_gamma   77.79350087
_symmetry_Int_Tables_number   1
_chemical_formula_structural   Nb6Ni7
_chemical_formula_sum   'Nb216 Ni252'
_cell_volume   16481.65809583
_cell_formula_units_Z   36
loop_
 _symmetry_equiv_pos_site_id
 _symmetry_equiv_pos_as_xyz
  1  'x, y, z'
loop_
 _atom_site_type_symbol
 _atom_site_label
 _atom_site_symmetry_multiplicity
 _atom_site_fract_x
 _atom_site_fract_y
 _atom_site_fract_z
 _atom_site_occupancy
  Nb  Nb0  1  0.02810650  0.05621300  0.08198835  1.0
  Nb  Nb1  1  0.02810650  0.38954633  0.08198835  1.0
  Nb  Nb2  1  0.02810650  0.72287967  0.08198835  1.0
  Nb  Nb3  1  0.36143983  0.05621300  0.08198835  1.0
  Nb  Nb4  1  0.36143983  0.38954633  0.08198835  1.0
  Nb  Nb5  1  0.36143983  0.72287967  0.08198835  1.0
  Nb  Nb6  1  0.69477317  0.05621300  0.08198835  1.0
  Nb  Nb7  1  0.69477317  0.38954633  0.08198835  1.0
  Nb  Nb8  1  0.69477317  0.72287967  0.08198835  1.0
  Nb  Nb9  1  0.19477317  0.05621300  0.18198835  1.0
  Nb  Nb10  1  0.19477317  0.38954633  0.18198835  1.0
  Nb  Nb11  1  0.19477317  0.72287967  0.18198835  1.0
  Nb  Nb12  1  0.52810650  0.05621300  0.18198835  1.0
  Nb  Nb13  1  0.52810650  0.38954633  0.18198835  1.0
  Nb  Nb14  1  0.52810650  0.72287967  0.18198835  1.0
  Nb  Nb15  1  0.86143983  0.05621300  0.18198835  1.0
  Nb  Nb16  1  0.86143983  0.38954633  0.18198835  1.0
  Nb  Nb17  1  0.86143983  0.72287967  0.18198835  1.0
  Nb  Nb18  1  0.13856017  0.27712033  0.01334935  1.0
  Nb  Nb19  1  0.13856017  0.61045367  0.01334935  1.0
  Nb  Nb20  1  0.13856017  0.94378700  0.01334935  1.0
  Nb  Nb21  1  0.47189350  0.27712033  0.01334935  1.0
  Nb  Nb22  1  0.47189350  0.61045367  0.01334935  1.0
  Nb  Nb23  1  0.47189350  0.94378700  0.01334935  1.0
  Nb  Nb24  1  0.80522683  0.27712033  0.01334935  1.0
  Nb  Nb25  1  0.80522683  0.61045367  0.01334935  1.0
  Nb  Nb26  1  0.80522683  0.94378700  0.01334935  1.0
  Nb  Nb27  1  0.30522683  0.27712033  0.11334935  1.0
  Nb  Nb28  1  0.30522683  0.61045367  0.11334935  1.0
  Nb  Nb29  1  0.30522683  0.94378700  0.11334935  1.0
  Nb  Nb30  1  0.63856017  0.27712033  0.11334935  1.0
  Nb  Nb31  1  0.63856017  0.61045367  0.11334935  1.0
  Nb  Nb32  1  0.63856017  0.94378700  0.11334935  1.0
  Nb  Nb33  1  0.97189350  0.27712033  0.11334935  1.0
  Nb  Nb34  1  0.97189350  0.61045367  0.11334935  1.0
  Nb  Nb35  1  0.97189350  0.94378700  0.11334935  1.0
  Nb  Nb36  1  0.05742267  0.11484533  0.16993685  1.0
  Nb  Nb37  1  0.05742267  0.44817867  0.16993685  1.0
  Nb  Nb38  1  0.05742267  0.78151200  0.16993685  1.0
  Nb  Nb39  1  0.39075600  0.11484533  0.16993685  1.0
  Nb  Nb40  1  0.39075600  0.44817867  0.16993685  1.0
  Nb  Nb41  1  0.39075600  0.78151200  0.16993685  1.0
  Nb  Nb42  1  0.72408933  0.11484533  0.16993685  1.0
  Nb  Nb43  1  0.72408933  0.44817867  0.16993685  1.0
  Nb  Nb44  1  0.72408933  0.78151200  0.16993685  1.0
  Nb  Nb45  1  0.22408933  0.11484533  0.06993685  1.0
  Nb  Nb46  1  0.22408933  0.44817867  0.06993685  1.0
  Nb  Nb47  1  0.22408933  0.78151200  0.06993685  1.0
  Nb  Nb48  1  0.55742267  0.11484533  0.06993685  1.0
  Nb  Nb49  1  0.55742267  0.44817867  0.06993685  1.0
  Nb  Nb50  1  0.55742267  0.78151200  0.06993685  1.0
  Nb  Nb51  1  0.89075600  0.11484533  0.06993685  1.0
  Nb  Nb52  1  0.89075600  0.44817867  0.06993685  1.0
  Nb  Nb53  1  0.89075600  0.78151200  0.06993685  1.0
  Nb  Nb54  1  0.10924400  0.21848800  0.12540085  1.0
  Nb  Nb55  1  0.10924400  0.55182133  0.12540085  1.0
  Nb  Nb56  1  0.10924400  0.88515467  0.12540085  1.0
  Nb  Nb57  1  0.44257733  0.21848800  0.12540085  1.0
  Nb  Nb58  1  0.44257733  0.55182133  0.12540085  1.0
  Nb  Nb59  1  0.44257733  0.88515467  0.12540085  1.0
  Nb  Nb60  1  0.77591067  0.21848800  0.12540085  1.0
  Nb  Nb61  1  0.77591067  0.55182133  0.12540085  1.0
  Nb  Nb62  1  0.77591067  0.88515467  0.12540085  1.0
  Nb  Nb63  1  0.27591067  0.21848800  0.02540085  1.0
  Nb  Nb64  1  0.27591067  0.55182133  0.02540085  1.0
  Nb  Nb65  1  0.27591067  0.88515467  0.02540085  1.0
  Nb  Nb66  1  0.60924400  0.21848800  0.02540085  1.0
  Nb  Nb67  1  0.60924400  0.55182133  0.02540085  1.0
  Nb  Nb68  1  0.60924400  0.88515467  0.02540085  1.0
  Nb  Nb69  1  0.94257733  0.21848800  0.02540085  1.0
  Nb  Nb70  1  0.94257733  0.55182133  0.02540085  1.0
  Nb  Nb71  1  0.94257733  0.88515467  0.02540085  1.0
  Nb  Nb72  1  0.07511717  0.15023433  0.02302035  1.0
  Nb  Nb73  1  0.07511717  0.48356767  0.02302035  1.0
  Nb  Nb74  1  0.07511717  0.81690100  0.02302035  1.0
  Nb  Nb75  1  0.40845050  0.15023433  0.02302035  1.0
  Nb  Nb76  1  0.40845050  0.48356767  0.02302035  1.0
  Nb  Nb77  1  0.40845050  0.81690100  0.02302035  1.0
  Nb  Nb78  1  0.74178383  0.15023433  0.02302035  1.0
  Nb  Nb79  1  0.74178383  0.48356767  0.02302035  1.0
  Nb  Nb80  1  0.74178383  0.81690100  0.02302035  1.0
  Nb  Nb81  1  0.24178383  0.15023433  0.12302035  1.0
  Nb  Nb82  1  0.24178383  0.48356767  0.12302035  1.0
  Nb  Nb83  1  0.24178383  0.81690100  0.12302035  1.0
  Nb  Nb84  1  0.57511717  0.15023433  0.12302035  1.0
  Nb  Nb85  1  0.57511717  0.48356767  0.12302035  1.0
  Nb  Nb86  1  0.57511717  0.81690100  0.12302035  1.0
  Nb  Nb87  1  0.90845050  0.15023433  0.12302035  1.0
  Nb  Nb88  1  0.90845050  0.48356767  0.12302035  1.0
  Nb  Nb89  1  0.90845050  0.81690100  0.12302035  1.0
  Nb  Nb90  1  0.09154950  0.18309900  0.07231735  1.0
  Nb  Nb91  1  0.09154950  0.51643233  0.07231735  1.0
  Nb  Nb92  1  0.09154950  0.84976567  0.07231735  1.0
  Nb  Nb93  1  0.42488283  0.18309900  0.07231735  1.0
  Nb  Nb94  1  0.42488283  0.51643233  0.07231735  1.0
  Nb  Nb95  1  0.42488283  0.84976567  0.07231735  1.0
  Nb  Nb96  1  0.75821617  0.18309900  0.07231735  1.0
  Nb  Nb97  1  0.75821617  0.51643233  0.07231735  1.0
  Nb  Nb98  1  0.75821617  0.84976567  0.07231735  1.0
  Nb  Nb99  1  0.25821617  0.18309900  0.17231735  1.0
  Nb  Nb100  1  0.25821617  0.51643233  0.17231735  1.0
  Nb  Nb101  1  0.25821617  0.84976567  0.17231735  1.0
  Nb  Nb102  1  0.59154950  0.18309900  0.17231735  1.0
  Nb  Nb103  1  0.59154950  0.51643233  0.17231735  1.0
  Nb  Nb104  1  0.59154950  0.84976567  0.17231735  1.0
  Nb  Nb105  1  0.92488283  0.18309900  0.17231735  1.0
  Nb  Nb106  1  0.92488283  0.51643233  0.17231735  1.0
  Nb  Nb107  1  0.92488283  0.84976567  0.17231735  1.0
  Ni  Ni108  1  0.00000000  0.00000000  0.19766885  1.0
  Ni  Ni109  1  0.00000000  0.33333333  0.19766885  1.0
  Ni  Ni110  1  0.00000000  0.66666667  0.19766885  1.0
  Ni  Ni111  1  0.33333333  0.00000000  0.19766885  1.0
  Ni  Ni112  1  0.33333333  0.33333333  0.19766885  1.0
  Ni  Ni113  1  0.33333333  0.66666667  0.19766885  1.0
  Ni  Ni114  1  0.66666667  0.00000000  0.19766885  1.0
  Ni  Ni115  1  0.66666667  0.33333333  0.19766885  1.0
  Ni  Ni116  1  0.66666667  0.66666667  0.19766885  1.0
  Ni  Ni117  1  0.16666667  0.00000000  0.09766885  1.0
  Ni  Ni118  1  0.16666667  0.33333333  0.09766885  1.0
  Ni  Ni119  1  0.16666667  0.66666667  0.09766885  1.0
  Ni  Ni120  1  0.50000000  0.00000000  0.09766885  1.0
  Ni  Ni121  1  0.50000000  0.33333333  0.09766885  1.0
  Ni  Ni122  1  0.50000000  0.66666667  0.09766885  1.0
  Ni  Ni123  1  0.83333333  0.00000000  0.09766885  1.0
  Ni  Ni124  1  0.83333333  0.33333333  0.09766885  1.0
  Ni  Ni125  1  0.83333333  0.66666667  0.09766885  1.0
  Ni  Ni126  1  0.01509267  0.03018533  0.14306625  1.0
  Ni  Ni127  1  0.01509267  0.36351867  0.14306625  1.0
  Ni  Ni128  1  0.01509267  0.69685200  0.14306625  1.0
  Ni  Ni129  1  0.34842600  0.03018533  0.14306625  1.0
  Ni  Ni130  1  0.34842600  0.36351867  0.14306625  1.0
  Ni  Ni131  1  0.34842600  0.69685200  0.14306625  1.0
  Ni  Ni132  1  0.68175933  0.03018533  0.14306625  1.0
  Ni  Ni133  1  0.68175933  0.36351867  0.14306625  1.0
  Ni  Ni134  1  0.68175933  0.69685200  0.14306625  1.0
  Ni  Ni135  1  0.18175933  0.03018533  0.04306625  1.0
  Ni  Ni136  1  0.18175933  0.36351867  0.04306625  1.0
  Ni  Ni137  1  0.18175933  0.69685200  0.04306625  1.0
  Ni  Ni138  1  0.51509267  0.03018533  0.04306625  1.0
  Ni  Ni139  1  0.51509267  0.36351867  0.04306625  1.0
  Ni  Ni140  1  0.51509267  0.69685200  0.04306625  1.0
  Ni  Ni141  1  0.84842600  0.03018533  0.04306625  1.0
  Ni  Ni142  1  0.84842600  0.36351867  0.04306625  1.0
  Ni  Ni143  1  0.84842600  0.69685200  0.04306625  1.0
  Ni  Ni144  1  0.01509267  0.19705100  0.14306625  1.0
  Ni  Ni145  1  0.01509267  0.53038433  0.14306625  1.0
  Ni  Ni146  1  0.01509267  0.86371767  0.14306625  1.0
  Ni  Ni147  1  0.34842600  0.19705100  0.14306625  1.0
  Ni  Ni148  1  0.34842600  0.53038433  0.14306625  1.0
  Ni  Ni149  1  0.34842600  0.86371767  0.14306625  1.0
  Ni  Ni150  1  0.68175933  0.19705100  0.14306625  1.0
  Ni  Ni151  1  0.68175933  0.53038433  0.14306625  1.0
  Ni  Ni152  1  0.68175933  0.86371767  0.14306625  1.0
  Ni  Ni153  1  0.18175933  0.19705100  0.04306625  1.0
  Ni  Ni154  1  0.18175933  0.53038433  0.04306625  1.0
  Ni  Ni155  1  0.18175933  0.86371767  0.04306625  1.0
  Ni  Ni156  1  0.51509267  0.19705100  0.04306625  1.0
  Ni  Ni157  1  0.51509267  0.53038433  0.04306625  1.0
  Ni  Ni158  1  0.51509267  0.86371767  0.04306625  1.0
  Ni  Ni159  1  0.84842600  0.19705100  0.04306625  1.0
  Ni  Ni160  1  0.84842600  0.53038433  0.04306625  1.0
  Ni  Ni161  1  0.84842600  0.86371767  0.04306625  1.0
  Ni  Ni162  1  0.09852550  0.03018533  0.09300655  1.0
  Ni  Ni163  1  0.09852550  0.36351867  0.09300655  1.0
  Ni  Ni164  1  0.09852550  0.69685200  0.09300655  1.0
  Ni  Ni165  1  0.43185883  0.03018533  0.09300655  1.0
  Ni  Ni166  1  0.43185883  0.36351867  0.09300655  1.0
  Ni  Ni167  1  0.43185883  0.69685200  0.09300655  1.0
  Ni  Ni168  1  0.76519217  0.03018533  0.09300655  1.0
  Ni  Ni169  1  0.76519217  0.36351867  0.09300655  1.0
  Ni  Ni170  1  0.76519217  0.69685200  0.09300655  1.0
  Ni  Ni171  1  0.26519217  0.03018533  0.19300655  1.0
  Ni  Ni172  1  0.26519217  0.36351867  0.19300655  1.0
  Ni  Ni173  1  0.26519217  0.69685200  0.19300655  1.0
  Ni  Ni174  1  0.59852550  0.03018533  0.19300655  1.0
  Ni  Ni175  1  0.59852550  0.36351867  0.19300655  1.0
  Ni  Ni176  1  0.59852550  0.69685200  0.19300655  1.0
  Ni  Ni177  1  0.93185883  0.03018533  0.19300655  1.0
  Ni  Ni178  1  0.93185883  0.36351867  0.19300655  1.0
  Ni  Ni179  1  0.93185883  0.69685200  0.19300655  1.0
  Ni  Ni180  1  0.15157400  0.30314800  0.15227145  1.0
  Ni  Ni181  1  0.15157400  0.63648133  0.15227145  1.0
  Ni  Ni182  1  0.15157400  0.96981467  0.15227145  1.0
  Ni  Ni183  1  0.48490733  0.30314800  0.15227145  1.0
  Ni  Ni184  1  0.48490733  0.63648133  0.15227145  1.0
  Ni  Ni185  1  0.48490733  0.96981467  0.15227145  1.0
  Ni  Ni186  1  0.81824067  0.30314800  0.15227145  1.0
  Ni  Ni187  1  0.81824067  0.63648133  0.15227145  1.0
  Ni  Ni188  1  0.81824067  0.96981467  0.15227145  1.0
  Ni  Ni189  1  0.31824067  0.30314800  0.05227145  1.0
  Ni  Ni190  1  0.31824067  0.63648133  0.05227145  1.0
  Ni  Ni191  1  0.31824067  0.96981467  0.05227145  1.0
  Ni  Ni192  1  0.65157400  0.30314800  0.05227145  1.0
  Ni  Ni193  1  0.65157400  0.63648133  0.05227145  1.0
  Ni  Ni194  1  0.65157400  0.96981467  0.05227145  1.0
  Ni  Ni195  1  0.98490733  0.30314800  0.05227145  1.0
  Ni  Ni196  1  0.98490733  0.63648133  0.05227145  1.0
  Ni  Ni197  1  0.98490733  0.96981467  0.05227145  1.0
  Ni  Ni198  1  0.15157400  0.13628233  0.15227145  1.0
  Ni  Ni199  1  0.15157400  0.46961567  0.15227145  1.0
  Ni  Ni200  1  0.15157400  0.80294900  0.15227145  1.0
  Ni  Ni201  1  0.48490733  0.13628233  0.15227145  1.0
  Ni  Ni202  1  0.48490733  0.46961567  0.15227145  1.0
  Ni  Ni203  1  0.48490733  0.80294900  0.15227145  1.0
  Ni  Ni204  1  0.81824067  0.13628233  0.15227145  1.0
  Ni  Ni205  1  0.81824067  0.46961567  0.15227145  1.0
  Ni  Ni206  1  0.81824067  0.80294900  0.15227145  1.0
  Ni  Ni207  1  0.31824067  0.13628233  0.05227145  1.0
  Ni  Ni208  1  0.31824067  0.46961567  0.05227145  1.0
  Ni  Ni209  1  0.31824067  0.80294900  0.05227145  1.0
  Ni  Ni210  1  0.65157400  0.13628233  0.05227145  1.0
  Ni  Ni211  1  0.65157400  0.46961567  0.05227145  1.0
  Ni  Ni212  1  0.65157400  0.80294900  0.05227145  1.0
  Ni  Ni213  1  0.98490733  0.13628233  0.05227145  1.0
  Ni  Ni214  1  0.98490733  0.46961567  0.05227145  1.0
  Ni  Ni215  1  0.98490733  0.80294900  0.05227145  1.0
  Ni  Ni216  1  0.06814117  0.30314800  0.00233115  1.0
  Ni  Ni217  1  0.06814117  0.63648133  0.00233115  1.0
  Ni  Ni218  1  0.06814117  0.96981467  0.00233115  1.0
  Ni  Ni219  1  0.40147450  0.30314800  0.00233115  1.0
  Ni  Ni220  1  0.40147450  0.63648133  0.00233115  1.0
  Ni  Ni221  1  0.40147450  0.96981467  0.00233115  1.0
  Ni  Ni222  1  0.73480783  0.30314800  0.00233115  1.0
  Ni  Ni223  1  0.73480783  0.63648133  0.00233115  1.0
  Ni  Ni224  1  0.73480783  0.96981467  0.00233115  1.0
  Ni  Ni225  1  0.23480783  0.30314800  0.10233115  1.0
  Ni  Ni226  1  0.23480783  0.63648133  0.10233115  1.0
  Ni  Ni227  1  0.23480783  0.96981467  0.10233115  1.0
  Ni  Ni228  1  0.56814117  0.30314800  0.10233115  1.0
  Ni  Ni229  1  0.56814117  0.63648133  0.10233115  1.0
  Ni  Ni230  1  0.56814117  0.96981467  0.10233115  1.0
  Ni  Ni231  1  0.90147450  0.30314800  0.10233115  1.0
  Ni  Ni232  1  0.90147450  0.63648133  0.10233115  1.0
  Ni  Ni233  1  0.90147450  0.96981467  0.10233115  1.0
  Nb  Nb234  1  0.02810650  0.05621300  0.28198835  1.0
  Nb  Nb235  1  0.02810650  0.38954633  0.28198835  1.0
  Nb  Nb236  1  0.02810650  0.72287967  0.28198835  1.0
  Nb  Nb237  1  0.36143983  0.05621300  0.28198835  1.0
  Nb  Nb238  1  0.36143983  0.38954633  0.28198835  1.0
  Nb  Nb239  1  0.36143983  0.72287967  0.28198835  1.0
  Nb  Nb240  1  0.69477317  0.05621300  0.28198835  1.0
  Nb  Nb241  1  0.69477317  0.38954633  0.28198835  1.0
  Nb  Nb242  1  0.69477317  0.72287967  0.28198835  1.0
  Nb  Nb243  1  0.19477317  0.05621300  0.38198835  1.0
  Nb  Nb244  1  0.19477317  0.38954633  0.38198835  1.0
  Nb  Nb245  1  0.19477317  0.72287967  0.38198835  1.0
  Nb  Nb246  1  0.52810650  0.05621300  0.38198835  1.0
  Nb  Nb247  1  0.52810650  0.38954633  0.38198835  1.0
  Nb  Nb248  1  0.52810650  0.72287967  0.38198835  1.0
  Nb  Nb249  1  0.86143983  0.05621300  0.38198835  1.0
  Nb  Nb250  1  0.86143983  0.38954633  0.38198835  1.0
  Nb  Nb251  1  0.86143983  0.72287967  0.38198835  1.0
  Nb  Nb252  1  0.13856017  0.27712033  0.21334935  1.0
  Nb  Nb253  1  0.13856017  0.61045367  0.21334935  1.0
  Nb  Nb254  1  0.13856017  0.94378700  0.21334935  1.0
  Nb  Nb255  1  0.47189350  0.27712033  0.21334935  1.0
  Nb  Nb256  1  0.47189350  0.61045367  0.21334935  1.0
  Nb  Nb257  1  0.47189350  0.94378700  0.21334935  1.0
  Nb  Nb258  1  0.80522683  0.27712033  0.21334935  1.0
  Nb  Nb259  1  0.80522683  0.61045367  0.21334935  1.0
  Nb  Nb260  1  0.80522683  0.94378700  0.21334935  1.0
  Nb  Nb261  1  0.30522683  0.27712033  0.31334935  1.0
  Nb  Nb262  1  0.30522683  0.61045367  0.31334935  1.0
  Nb  Nb263  1  0.30522683  0.94378700  0.31334935  1.0
  Nb  Nb264  1  0.63856017  0.27712033  0.31334935  1.0
  Nb  Nb265  1  0.63856017  0.61045367  0.31334935  1.0
  Nb  Nb266  1  0.63856017  0.94378700  0.31334935  1.0
  Nb  Nb267  1  0.97189350  0.27712033  0.31334935  1.0
  Nb  Nb268  1  0.97189350  0.61045367  0.31334935  1.0
  Nb  Nb269  1  0.97189350  0.94378700  0.31334935  1.0
  Nb  Nb270  1  0.05742267  0.11484533  0.36993685  1.0
  Nb  Nb271  1  0.05742267  0.44817867  0.36993685  1.0
  Nb  Nb272  1  0.05742267  0.78151200  0.36993685  1.0
  Nb  Nb273  1  0.39075600  0.11484533  0.36993685  1.0
  Nb  Nb274  1  0.39075600  0.44817867  0.36993685  1.0
  Nb  Nb275  1  0.39075600  0.78151200  0.36993685  1.0
  Nb  Nb276  1  0.72408933  0.11484533  0.36993685  1.0
  Nb  Nb277  1  0.72408933  0.44817867  0.36993685  1.0
  Nb  Nb278  1  0.72408933  0.78151200  0.36993685  1.0
  Nb  Nb279  1  0.22408933  0.11484533  0.26993685  1.0
  Nb  Nb280  1  0.22408933  0.44817867  0.26993685  1.0
  Nb  Nb281  1  0.22408933  0.78151200  0.26993685  1.0
  Nb  Nb282  1  0.55742267  0.11484533  0.26993685  1.0
  Nb  Nb283  1  0.55742267  0.44817867  0.26993685  1.0
  Nb  Nb284  1  0.55742267  0.78151200  0.26993685  1.0
  Nb  Nb285  1  0.89075600  0.11484533  0.26993685  1.0
  Nb  Nb286  1  0.89075600  0.44817867  0.26993685  1.0
  Nb  Nb287  1  0.89075600  0.78151200  0.26993685  1.0
  Nb  Nb288  1  0.10924400  0.21848800  0.32540085  1.0
  Nb  Nb289  1  0.10924400  0.55182133  0.32540085  1.0
  Nb  Nb290  1  0.10924400  0.88515467  0.32540085  1.0
  Nb  Nb291  1  0.44257733  0.21848800  0.32540085  1.0
  Nb  Nb292  1  0.44257733  0.55182133  0.32540085  1.0
  Nb  Nb293  1  0.44257733  0.88515467  0.32540085  1.0
  Nb  Nb294  1  0.77591067  0.21848800  0.32540085  1.0
  Nb  Nb295  1  0.77591067  0.55182133  0.32540085  1.0
  Nb  Nb296  1  0.77591067  0.88515467  0.32540085  1.0
  Nb  Nb297  1  0.27591067  0.21848800  0.22540085  1.0
  Nb  Nb298  1  0.27591067  0.55182133  0.22540085  1.0
  Nb  Nb299  1  0.27591067  0.88515467  0.22540085  1.0
  Nb  Nb300  1  0.60924400  0.21848800  0.22540085  1.0
  Nb  Nb301  1  0.60924400  0.55182133  0.22540085  1.0
  Nb  Nb302  1  0.60924400  0.88515467  0.22540085  1.0
  Nb  Nb303  1  0.94257733  0.21848800  0.22540085  1.0
  Nb  Nb304  1  0.94257733  0.55182133  0.22540085  1.0
  Nb  Nb305  1  0.94257733  0.88515467  0.22540085  1.0
  Nb  Nb306  1  0.07511717  0.15023433  0.22302035  1.0
  Nb  Nb307  1  0.07511717  0.48356767  0.22302035  1.0
  Nb  Nb308  1  0.07511717  0.81690100  0.22302035  1.0
  Nb  Nb309  1  0.40845050  0.15023433  0.22302035  1.0
  Nb  Nb310  1  0.40845050  0.48356767  0.22302035  1.0
  Nb  Nb311  1  0.40845050  0.81690100  0.22302035  1.0
  Nb  Nb312  1  0.74178383  0.15023433  0.22302035  1.0
  Nb  Nb313  1  0.74178383  0.48356767  0.22302035  1.0
  Nb  Nb314  1  0.74178383  0.81690100  0.22302035  1.0
  Nb  Nb315  1  0.24178383  0.15023433  0.32302035  1.0
  Nb  Nb316  1  0.24178383  0.48356767  0.32302035  1.0
  Nb  Nb317  1  0.24178383  0.81690100  0.32302035  1.0
  Nb  Nb318  1  0.57511717  0.15023433  0.32302035  1.0
  Nb  Nb319  1  0.57511717  0.48356767  0.32302035  1.0
  Nb  Nb320  1  0.57511717  0.81690100  0.32302035  1.0
  Nb  Nb321  1  0.90845050  0.15023433  0.32302035  1.0
  Nb  Nb322  1  0.90845050  0.48356767  0.32302035  1.0
  Nb  Nb323  1  0.90845050  0.81690100  0.32302035  1.0
  Nb  Nb324  1  0.09154950  0.18309900  0.27231735  1.0
  Nb  Nb325  1  0.09154950  0.51643233  0.27231735  1.0
  Nb  Nb326  1  0.09154950  0.84976567  0.27231735  1.0
  Nb  Nb327  1  0.42488283  0.18309900  0.27231735  1.0
  Nb  Nb328  1  0.42488283  0.51643233  0.27231735  1.0
  Nb  Nb329  1  0.42488283  0.84976567  0.27231735  1.0
  Nb  Nb330  1  0.75821617  0.18309900  0.27231735  1.0
  Nb  Nb331  1  0.75821617  0.51643233  0.27231735  1.0
  Nb  Nb332  1  0.75821617  0.84976567  0.27231735  1.0
  Nb  Nb333  1  0.25821617  0.18309900  0.37231735  1.0
  Nb  Nb334  1  0.25821617  0.51643233  0.37231735  1.0
  Nb  Nb335  1  0.25821617  0.84976567  0.37231735  1.0
  Nb  Nb336  1  0.59154950  0.18309900  0.37231735  1.0
  Nb  Nb337  1  0.59154950  0.51643233  0.37231735  1.0
  Nb  Nb338  1  0.59154950  0.84976567  0.37231735  1.0
  Nb  Nb339  1  0.92488283  0.18309900  0.37231735  1.0
  Nb  Nb340  1  0.92488283  0.51643233  0.37231735  1.0
  Nb  Nb341  1  0.92488283  0.84976567  0.37231735  1.0
  Ni  Ni342  1  0.00000000  0.00000000  0.39766885  1.0
  Ni  Ni343  1  0.00000000  0.33333333  0.39766885  1.0
  Ni  Ni344  1  0.00000000  0.66666667  0.39766885  1.0
  Ni  Ni345  1  0.33333333  0.00000000  0.39766885  1.0
  Ni  Ni346  1  0.33333333  0.33333333  0.39766885  1.0
  Ni  Ni347  1  0.33333333  0.66666667  0.39766885  1.0
  Ni  Ni348  1  0.66666667  0.00000000  0.39766885  1.0
  Ni  Ni349  1  0.66666667  0.33333333  0.39766885  1.0
  Ni  Ni350  1  0.66666667  0.66666667  0.39766885  1.0
  Ni  Ni351  1  0.16666667  0.00000000  0.29766885  1.0
  Ni  Ni352  1  0.16666667  0.33333333  0.29766885  1.0
  Ni  Ni353  1  0.16666667  0.66666667  0.29766885  1.0
  Ni  Ni354  1  0.50000000  0.00000000  0.29766885  1.0
  Ni  Ni355  1  0.50000000  0.33333333  0.29766885  1.0
  Ni  Ni356  1  0.50000000  0.66666667  0.29766885  1.0
  Ni  Ni357  1  0.83333333  0.00000000  0.29766885  1.0
  Ni  Ni358  1  0.83333333  0.33333333  0.29766885  1.0
  Ni  Ni359  1  0.83333333  0.66666667  0.29766885  1.0
  Ni  Ni360  1  0.01509267  0.03018533  0.34306625  1.0
  Ni  Ni361  1  0.01509267  0.36351867  0.34306625  1.0
  Ni  Ni362  1  0.01509267  0.69685200  0.34306625  1.0
  Ni  Ni363  1  0.34842600  0.03018533  0.34306625  1.0
  Ni  Ni364  1  0.34842600  0.36351867  0.34306625  1.0
  Ni  Ni365  1  0.34842600  0.69685200  0.34306625  1.0
  Ni  Ni366  1  0.68175933  0.03018533  0.34306625  1.0
  Ni  Ni367  1  0.68175933  0.36351867  0.34306625  1.0
  Ni  Ni368  1  0.68175933  0.69685200  0.34306625  1.0
  Ni  Ni369  1  0.18175933  0.03018533  0.24306625  1.0
  Ni  Ni370  1  0.18175933  0.36351867  0.24306625  1.0
  Ni  Ni371  1  0.18175933  0.69685200  0.24306625  1.0
  Ni  Ni372  1  0.51509267  0.03018533  0.24306625  1.0
  Ni  Ni373  1  0.51509267  0.36351867  0.24306625  1.0
  Ni  Ni374  1  0.51509267  0.69685200  0.24306625  1.0
  Ni  Ni375  1  0.84842600  0.03018533  0.24306625  1.0
  Ni  Ni376  1  0.84842600  0.36351867  0.24306625  1.0
  Ni  Ni377  1  0.84842600  0.69685200  0.24306625  1.0
  Ni  Ni378  1  0.01509267  0.19705100  0.34306625  1.0
  Ni  Ni379  1  0.01509267  0.53038433  0.34306625  1.0
  Ni  Ni380  1  0.01509267  0.86371767  0.34306625  1.0
  Ni  Ni381  1  0.34842600  0.19705100  0.34306625  1.0
  Ni  Ni382  1  0.34842600  0.53038433  0.34306625  1.0
  Ni  Ni383  1  0.34842600  0.86371767  0.34306625  1.0
  Ni  Ni384  1  0.68175933  0.19705100  0.34306625  1.0
  Ni  Ni385  1  0.68175933  0.53038433  0.34306625  1.0
  Ni  Ni386  1  0.68175933  0.86371767  0.34306625  1.0
  Ni  Ni387  1  0.18175933  0.19705100  0.24306625  1.0
  Ni  Ni388  1  0.18175933  0.53038433  0.24306625  1.0
  Ni  Ni389  1  0.18175933  0.86371767  0.24306625  1.0
  Ni  Ni390  1  0.51509267  0.19705100  0.24306625  1.0
  Ni  Ni391  1  0.51509267  0.53038433  0.24306625  1.0
  Ni  Ni392  1  0.51509267  0.86371767  0.24306625  1.0
  Ni  Ni393  1  0.84842600  0.19705100  0.24306625  1.0
  Ni  Ni394  1  0.84842600  0.53038433  0.24306625  1.0
  Ni  Ni395  1  0.84842600  0.86371767  0.24306625  1.0
  Ni  Ni396  1  0.09852550  0.03018533  0.29300655  1.0
  Ni  Ni397  1  0.09852550  0.36351867  0.29300655  1.0
  Ni  Ni398  1  0.09852550  0.69685200  0.29300655  1.0
  Ni  Ni399  1  0.43185883  0.03018533  0.29300655  1.0
  Ni  Ni400  1  0.43185883  0.36351867  0.29300655  1.0
  Ni  Ni401  1  0.43185883  0.69685200  0.29300655  1.0
  Ni  Ni402  1  0.76519217  0.03018533  0.29300655  1.0
  Ni  Ni403  1  0.76519217  0.36351867  0.29300655  1.0
  Ni  Ni404  1  0.76519217  0.69685200  0.29300655  1.0
  Ni  Ni405  1  0.26519217  0.03018533  0.39300655  1.0
  Ni  Ni406  1  0.26519217  0.36351867  0.39300655  1.0
  Ni  Ni407  1  0.26519217  0.69685200  0.39300655  1.0
  Ni  Ni408  1  0.59852550  0.03018533  0.39300655  1.0
  Ni  Ni409  1  0.59852550  0.36351867  0.39300655  1.0
  Ni  Ni410  1  0.59852550  0.69685200  0.39300655  1.0
  Ni  Ni411  1  0.93185883  0.03018533  0.39300655  1.0
  Ni  Ni412  1  0.93185883  0.36351867  0.39300655  1.0
  Ni  Ni413  1  0.93185883  0.69685200  0.39300655  1.0
  Ni  Ni414  1  0.15157400  0.30314800  0.35227145  1.0
  Ni  Ni415  1  0.15157400  0.63648133  0.35227145  1.0
  Ni  Ni416  1  0.15157400  0.96981467  0.35227145  1.0
  Ni  Ni417  1  0.48490733  0.30314800  0.35227145  1.0
  Ni  Ni418  1  0.48490733  0.63648133  0.35227145  1.0
  Ni  Ni419  1  0.48490733  0.96981467  0.35227145  1.0
  Ni  Ni420  1  0.81824067  0.30314800  0.35227145  1.0
  Ni  Ni421  1  0.81824067  0.63648133  0.35227145  1.0
  Ni  Ni422  1  0.81824067  0.96981467  0.35227145  1.0
  Ni  Ni423  1  0.31824067  0.30314800  0.25227145  1.0
  Ni  Ni424  1  0.31824067  0.63648133  0.25227145  1.0
  Ni  Ni425  1  0.31824067  0.96981467  0.25227145  1.0
  Ni  Ni426  1  0.65157400  0.30314800  0.25227145  1.0
  Ni  Ni427  1  0.65157400  0.63648133  0.25227145  1.0
  Ni  Ni428  1  0.65157400  0.96981467  0.25227145  1.0
  Ni  Ni429  1  0.98490733  0.30314800  0.25227145  1.0
  Ni  Ni430  1  0.98490733  0.63648133  0.25227145  1.0
  Ni  Ni431  1  0.98490733  0.96981467  0.25227145  1.0
  Ni  Ni432  1  0.15157400  0.13628233  0.35227145  1.0
  Ni  Ni433  1  0.15157400  0.46961567  0.35227145  1.0
  Ni  Ni434  1  0.15157400  0.80294900  0.35227145  1.0
  Ni  Ni435  1  0.48490733  0.13628233  0.35227145  1.0
  Ni  Ni436  1  0.48490733  0.46961567  0.35227145  1.0
  Ni  Ni437  1  0.48490733  0.80294900  0.35227145  1.0
  Ni  Ni438  1  0.81824067  0.13628233  0.35227145  1.0
  Ni  Ni439  1  0.81824067  0.46961567  0.35227145  1.0
  Ni  Ni440  1  0.81824067  0.80294900  0.35227145  1.0
  Ni  Ni441  1  0.31824067  0.13628233  0.25227145  1.0
  Ni  Ni442  1  0.31824067  0.46961567  0.25227145  1.0
  Ni  Ni443  1  0.31824067  0.80294900  0.25227145  1.0
  Ni  Ni444  1  0.65157400  0.13628233  0.25227145  1.0
  Ni  Ni445  1  0.65157400  0.46961567  0.25227145  1.0
  Ni  Ni446  1  0.65157400  0.80294900  0.25227145  1.0
  Ni  Ni447  1  0.98490733  0.13628233  0.25227145  1.0
  Ni  Ni448  1  0.98490733  0.46961567  0.25227145  1.0
  Ni  Ni449  1  0.98490733  0.80294900  0.25227145  1.0
  Ni  Ni450  1  0.06814117  0.30314800  0.20233115  1.0
  Ni  Ni451  1  0.06814117  0.63648133  0.20233115  1.0
  Ni  Ni452  1  0.06814117  0.96981467  0.20233115  1.0
  Ni  Ni453  1  0.40147450  0.30314800  0.20233115  1.0
  Ni  Ni454  1  0.40147450  0.63648133  0.20233115  1.0
  Ni  Ni455  1  0.40147450  0.96981467  0.20233115  1.0
  Ni  Ni456  1  0.73480783  0.30314800  0.20233115  1.0
  Ni  Ni457  1  0.73480783  0.63648133  0.20233115  1.0
  Ni  Ni458  1  0.73480783  0.96981467  0.20233115  1.0
  Ni  Ni459  1  0.23480783  0.30314800  0.30233115  1.0
  Ni  Ni460  1  0.23480783  0.63648133  0.30233115  1.0
  Ni  Ni461  1  0.23480783  0.96981467  0.30233115  1.0
  Ni  Ni462  1  0.56814117  0.30314800  0.30233115  1.0
  Ni  Ni463  1  0.56814117  0.63648133  0.30233115  1.0
  Ni  Ni464  1  0.56814117  0.96981467  0.30233115  1.0
  Ni  Ni465  1  0.90147450  0.30314800  0.30233115  1.0
  Ni  Ni466  1  0.90147450  0.63648133  0.30233115  1.0
  Ni  Ni467  1  0.90147450  0.96981467  0.30233115  1.0
