# generated using pymatgen
data_Nb6Ni7
_symmetry_space_group_name_H-M   'P 1'
_cell_length_a   14.67864071
_cell_length_b   14.67864071
_cell_length_c   37.09415412
_cell_angle_alpha   105.29617742
_cell_angle_beta   105.29617742
_cell_angle_gamma   60.00000000
_symmetry_Int_Tables_number   1
_chemical_formula_structural   Nb6Ni7
_chemical_formula_sum   'Nb108 Ni126'
_cell_volume   6592.66323833
_cell_formula_units_Z   18
loop_
 _symmetry_equiv_pos_site_id
 _symmetry_equiv_pos_as_xyz
  1  'x, y, z'
loop_
 _atom_site_type_symbol
 _atom_site_label
 _atom_site_symmetry_multiplicity
 _atom_site_fract_x
 _atom_site_fract_y
 _atom_site_fract_z
 _atom_site_occupancy
  Nb  Nb0  1  0.05621300  0.05621300  0.12227825  1.0
  Nb  Nb1  1  0.05621300  0.38954633  0.12227825  1.0
  Nb  Nb2  1  0.05621300  0.72287967  0.12227825  1.0
  Nb  Nb3  1  0.38954633  0.05621300  0.12227825  1.0
  Nb  Nb4  1  0.38954633  0.38954633  0.12227825  1.0
  Nb  Nb5  1  0.38954633  0.72287967  0.12227825  1.0
  Nb  Nb6  1  0.72287967  0.05621300  0.12227825  1.0
  Nb  Nb7  1  0.72287967  0.38954633  0.12227825  1.0
  Nb  Nb8  1  0.72287967  0.72287967  0.12227825  1.0
  Nb  Nb9  1  0.27712033  0.27712033  0.11931975  1.0
  Nb  Nb10  1  0.27712033  0.61045367  0.11931975  1.0
  Nb  Nb11  1  0.27712033  0.94378700  0.11931975  1.0
  Nb  Nb12  1  0.61045367  0.27712033  0.11931975  1.0
  Nb  Nb13  1  0.61045367  0.61045367  0.11931975  1.0
  Nb  Nb14  1  0.61045367  0.94378700  0.11931975  1.0
  Nb  Nb15  1  0.94378700  0.27712033  0.11931975  1.0
  Nb  Nb16  1  0.94378700  0.61045367  0.11931975  1.0
  Nb  Nb17  1  0.94378700  0.94378700  0.11931975  1.0
  Nb  Nb18  1  0.11484533  0.11484533  0.00420100  1.0
  Nb  Nb19  1  0.11484533  0.44817867  0.00420100  1.0
  Nb  Nb20  1  0.11484533  0.78151200  0.00420100  1.0
  Nb  Nb21  1  0.44817867  0.11484533  0.00420100  1.0
  Nb  Nb22  1  0.44817867  0.44817867  0.00420100  1.0
  Nb  Nb23  1  0.44817867  0.78151200  0.00420100  1.0
  Nb  Nb24  1  0.78151200  0.11484533  0.00420100  1.0
  Nb  Nb25  1  0.78151200  0.44817867  0.00420100  1.0
  Nb  Nb26  1  0.78151200  0.78151200  0.00420100  1.0
  Nb  Nb27  1  0.21848800  0.21848800  0.23739700  1.0
  Nb  Nb28  1  0.21848800  0.55182133  0.23739700  1.0
  Nb  Nb29  1  0.21848800  0.88515467  0.23739700  1.0
  Nb  Nb30  1  0.55182133  0.21848800  0.23739700  1.0
  Nb  Nb31  1  0.55182133  0.55182133  0.23739700  1.0
  Nb  Nb32  1  0.55182133  0.88515467  0.23739700  1.0
  Nb  Nb33  1  0.88515467  0.21848800  0.23739700  1.0
  Nb  Nb34  1  0.88515467  0.55182133  0.23739700  1.0
  Nb  Nb35  1  0.88515467  0.88515467  0.23739700  1.0
  Nb  Nb36  1  0.15023433  0.15023433  0.08382625  1.0
  Nb  Nb37  1  0.15023433  0.48356767  0.08382625  1.0
  Nb  Nb38  1  0.15023433  0.81690100  0.08382625  1.0
  Nb  Nb39  1  0.48356767  0.15023433  0.08382625  1.0
  Nb  Nb40  1  0.48356767  0.48356767  0.08382625  1.0
  Nb  Nb41  1  0.48356767  0.81690100  0.08382625  1.0
  Nb  Nb42  1  0.81690100  0.15023433  0.08382625  1.0
  Nb  Nb43  1  0.81690100  0.48356767  0.08382625  1.0
  Nb  Nb44  1  0.81690100  0.81690100  0.08382625  1.0
  Nb  Nb45  1  0.18309900  0.18309900  0.15777175  1.0
  Nb  Nb46  1  0.18309900  0.51643233  0.15777175  1.0
  Nb  Nb47  1  0.18309900  0.84976567  0.15777175  1.0
  Nb  Nb48  1  0.51643233  0.18309900  0.15777175  1.0
  Nb  Nb49  1  0.51643233  0.51643233  0.15777175  1.0
  Nb  Nb50  1  0.51643233  0.84976567  0.15777175  1.0
  Nb  Nb51  1  0.84976567  0.18309900  0.15777175  1.0
  Nb  Nb52  1  0.84976567  0.51643233  0.15777175  1.0
  Nb  Nb53  1  0.84976567  0.84976567  0.15777175  1.0
  Ni  Ni54  1  0.00000000  0.00000000  0.24579900  1.0
  Ni  Ni55  1  0.00000000  0.33333333  0.24579900  1.0
  Ni  Ni56  1  0.00000000  0.66666667  0.24579900  1.0
  Ni  Ni57  1  0.33333333  0.00000000  0.24579900  1.0
  Ni  Ni58  1  0.33333333  0.33333333  0.24579900  1.0
  Ni  Ni59  1  0.33333333  0.66666667  0.24579900  1.0
  Ni  Ni60  1  0.66666667  0.00000000  0.24579900  1.0
  Ni  Ni61  1  0.66666667  0.33333333  0.24579900  1.0
  Ni  Ni62  1  0.66666667  0.66666667  0.24579900  1.0
  Ni  Ni63  1  0.03018533  0.03018533  0.18886525  1.0
  Ni  Ni64  1  0.03018533  0.36351867  0.18886525  1.0
  Ni  Ni65  1  0.03018533  0.69685200  0.18886525  1.0
  Ni  Ni66  1  0.36351867  0.03018533  0.18886525  1.0
  Ni  Ni67  1  0.36351867  0.36351867  0.18886525  1.0
  Ni  Ni68  1  0.36351867  0.69685200  0.18886525  1.0
  Ni  Ni69  1  0.69685200  0.03018533  0.18886525  1.0
  Ni  Ni70  1  0.69685200  0.36351867  0.18886525  1.0
  Ni  Ni71  1  0.69685200  0.69685200  0.18886525  1.0
  Ni  Ni72  1  0.03018533  0.19705100  0.18886525  1.0
  Ni  Ni73  1  0.03018533  0.53038433  0.18886525  1.0
  Ni  Ni74  1  0.03018533  0.86371767  0.18886525  1.0
  Ni  Ni75  1  0.36351867  0.19705100  0.18886525  1.0
  Ni  Ni76  1  0.36351867  0.53038433  0.18886525  1.0
  Ni  Ni77  1  0.36351867  0.86371767  0.18886525  1.0
  Ni  Ni78  1  0.69685200  0.19705100  0.18886525  1.0
  Ni  Ni79  1  0.69685200  0.53038433  0.18886525  1.0
  Ni  Ni80  1  0.69685200  0.86371767  0.18886525  1.0
  Ni  Ni81  1  0.19705100  0.03018533  0.18886525  1.0
  Ni  Ni82  1  0.19705100  0.36351867  0.18886525  1.0
  Ni  Ni83  1  0.19705100  0.69685200  0.18886525  1.0
  Ni  Ni84  1  0.53038433  0.03018533  0.18886525  1.0
  Ni  Ni85  1  0.53038433  0.36351867  0.18886525  1.0
  Ni  Ni86  1  0.53038433  0.69685200  0.18886525  1.0
  Ni  Ni87  1  0.86371767  0.03018533  0.18886525  1.0
  Ni  Ni88  1  0.86371767  0.36351867  0.18886525  1.0
  Ni  Ni89  1  0.86371767  0.69685200  0.18886525  1.0
  Ni  Ni90  1  0.30314800  0.30314800  0.05273275  1.0
  Ni  Ni91  1  0.30314800  0.63648133  0.05273275  1.0
  Ni  Ni92  1  0.30314800  0.96981467  0.05273275  1.0
  Ni  Ni93  1  0.63648133  0.30314800  0.05273275  1.0
  Ni  Ni94  1  0.63648133  0.63648133  0.05273275  1.0
  Ni  Ni95  1  0.63648133  0.96981467  0.05273275  1.0
  Ni  Ni96  1  0.96981467  0.30314800  0.05273275  1.0
  Ni  Ni97  1  0.96981467  0.63648133  0.05273275  1.0
  Ni  Ni98  1  0.96981467  0.96981467  0.05273275  1.0
  Ni  Ni99  1  0.30314800  0.13628233  0.05273275  1.0
  Ni  Ni100  1  0.30314800  0.46961567  0.05273275  1.0
  Ni  Ni101  1  0.30314800  0.80294900  0.05273275  1.0
  Ni  Ni102  1  0.63648133  0.13628233  0.05273275  1.0
  Ni  Ni103  1  0.63648133  0.46961567  0.05273275  1.0
  Ni  Ni104  1  0.63648133  0.80294900  0.05273275  1.0
  Ni  Ni105  1  0.96981467  0.13628233  0.05273275  1.0
  Ni  Ni106  1  0.96981467  0.46961567  0.05273275  1.0
  Ni  Ni107  1  0.96981467  0.80294900  0.05273275  1.0
  Ni  Ni108  1  0.13628233  0.30314800  0.05273275  1.0
  Ni  Ni109  1  0.13628233  0.63648133  0.05273275  1.0
  Ni  Ni110  1  0.13628233  0.96981467  0.05273275  1.0
  Ni  Ni111  1  0.46961567  0.30314800  0.05273275  1.0
  Ni  Ni112  1  0.46961567  0.63648133  0.05273275  1.0
  Ni  Ni113  1  0.46961567  0.96981467  0.05273275  1.0
  Ni  Ni114  1  0.80294900  0.30314800  0.05273275  1.0
  Ni  Ni115  1  0.80294900  0.63648133  0.05273275  1.0
  Ni  Ni116  1  0.80294900  0.96981467  0.05273275  1.0
  Nb  Nb117  1  0.05621300  0.05621300  0.37227825  1.0
  Nb  Nb118  1  0.05621300  0.38954633  0.37227825  1.0
  Nb  Nb119  1  0.05621300  0.72287967  0.37227825  1.0
  Nb  Nb120  1  0.38954633  0.05621300  0.37227825  1.0
  Nb  Nb121  1  0.38954633  0.38954633  0.37227825  1.0
  Nb  Nb122  1  0.38954633  0.72287967  0.37227825  1.0
  Nb  Nb123  1  0.72287967  0.05621300  0.37227825  1.0
  Nb  Nb124  1  0.72287967  0.38954633  0.37227825  1.0
  Nb  Nb125  1  0.72287967  0.72287967  0.37227825  1.0
  Nb  Nb126  1  0.27712033  0.27712033  0.36931975  1.0
  Nb  Nb127  1  0.27712033  0.61045367  0.36931975  1.0
  Nb  Nb128  1  0.27712033  0.94378700  0.36931975  1.0
  Nb  Nb129  1  0.61045367  0.27712033  0.36931975  1.0
  Nb  Nb130  1  0.61045367  0.61045367  0.36931975  1.0
  Nb  Nb131  1  0.61045367  0.94378700  0.36931975  1.0
  Nb  Nb132  1  0.94378700  0.27712033  0.36931975  1.0
  Nb  Nb133  1  0.94378700  0.61045367  0.36931975  1.0
  Nb  Nb134  1  0.94378700  0.94378700  0.36931975  1.0
  Nb  Nb135  1  0.11484533  0.11484533  0.25420100  1.0
  Nb  Nb136  1  0.11484533  0.44817867  0.25420100  1.0
  Nb  Nb137  1  0.11484533  0.78151200  0.25420100  1.0
  Nb  Nb138  1  0.44817867  0.11484533  0.25420100  1.0
  Nb  Nb139  1  0.44817867  0.44817867  0.25420100  1.0
  Nb  Nb140  1  0.44817867  0.78151200  0.25420100  1.0
  Nb  Nb141  1  0.78151200  0.11484533  0.25420100  1.0
  Nb  Nb142  1  0.78151200  0.44817867  0.25420100  1.0
  Nb  Nb143  1  0.78151200  0.78151200  0.25420100  1.0
  Nb  Nb144  1  0.21848800  0.21848800  0.48739700  1.0
  Nb  Nb145  1  0.21848800  0.55182133  0.48739700  1.0
  Nb  Nb146  1  0.21848800  0.88515467  0.48739700  1.0
  Nb  Nb147  1  0.55182133  0.21848800  0.48739700  1.0
  Nb  Nb148  1  0.55182133  0.55182133  0.48739700  1.0
  Nb  Nb149  1  0.55182133  0.88515467  0.48739700  1.0
  Nb  Nb150  1  0.88515467  0.21848800  0.48739700  1.0
  Nb  Nb151  1  0.88515467  0.55182133  0.48739700  1.0
  Nb  Nb152  1  0.88515467  0.88515467  0.48739700  1.0
  Nb  Nb153  1  0.15023433  0.15023433  0.33382625  1.0
  Nb  Nb154  1  0.15023433  0.48356767  0.33382625  1.0
  Nb  Nb155  1  0.15023433  0.81690100  0.33382625  1.0
  Nb  Nb156  1  0.48356767  0.15023433  0.33382625  1.0
  Nb  Nb157  1  0.48356767  0.48356767  0.33382625  1.0
  Nb  Nb158  1  0.48356767  0.81690100  0.33382625  1.0
  Nb  Nb159  1  0.81690100  0.15023433  0.33382625  1.0
  Nb  Nb160  1  0.81690100  0.48356767  0.33382625  1.0
  Nb  Nb161  1  0.81690100  0.81690100  0.33382625  1.0
  Nb  Nb162  1  0.18309900  0.18309900  0.40777175  1.0
  Nb  Nb163  1  0.18309900  0.51643233  0.40777175  1.0
  Nb  Nb164  1  0.18309900  0.84976567  0.40777175  1.0
  Nb  Nb165  1  0.51643233  0.18309900  0.40777175  1.0
  Nb  Nb166  1  0.51643233  0.51643233  0.40777175  1.0
  Nb  Nb167  1  0.51643233  0.84976567  0.40777175  1.0
  Nb  Nb168  1  0.84976567  0.18309900  0.40777175  1.0
  Nb  Nb169  1  0.84976567  0.51643233  0.40777175  1.0
  Nb  Nb170  1  0.84976567  0.84976567  0.40777175  1.0
  Ni  Ni171  1  0.00000000  0.00000000  0.49579900  1.0
  Ni  Ni172  1  0.00000000  0.33333333  0.49579900  1.0
  Ni  Ni173  1  0.00000000  0.66666667  0.49579900  1.0
  Ni  Ni174  1  0.33333333  0.00000000  0.49579900  1.0
  Ni  Ni175  1  0.33333333  0.33333333  0.49579900  1.0
  Ni  Ni176  1  0.33333333  0.66666667  0.49579900  1.0
  Ni  Ni177  1  0.66666667  0.00000000  0.49579900  1.0
  Ni  Ni178  1  0.66666667  0.33333333  0.49579900  1.0
  Ni  Ni179  1  0.66666667  0.66666667  0.49579900  1.0
  Ni  Ni180  1  0.03018533  0.03018533  0.43886525  1.0
  Ni  Ni181  1  0.03018533  0.36351867  0.43886525  1.0
  Ni  Ni182  1  0.03018533  0.69685200  0.43886525  1.0
  Ni  Ni183  1  0.36351867  0.03018533  0.43886525  1.0
  Ni  Ni184  1  0.36351867  0.36351867  0.43886525  1.0
  Ni  Ni185  1  0.36351867  0.69685200  0.43886525  1.0
  Ni  Ni186  1  0.69685200  0.03018533  0.43886525  1.0
  Ni  Ni187  1  0.69685200  0.36351867  0.43886525  1.0
  Ni  Ni188  1  0.69685200  0.69685200  0.43886525  1.0
  Ni  Ni189  1  0.03018533  0.19705100  0.43886525  1.0
  Ni  Ni190  1  0.03018533  0.53038433  0.43886525  1.0
  Ni  Ni191  1  0.03018533  0.86371767  0.43886525  1.0
  Ni  Ni192  1  0.36351867  0.19705100  0.43886525  1.0
  Ni  Ni193  1  0.36351867  0.53038433  0.43886525  1.0
  Ni  Ni194  1  0.36351867  0.86371767  0.43886525  1.0
  Ni  Ni195  1  0.69685200  0.19705100  0.43886525  1.0
  Ni  Ni196  1  0.69685200  0.53038433  0.43886525  1.0
  Ni  Ni197  1  0.69685200  0.86371767  0.43886525  1.0
  Ni  Ni198  1  0.19705100  0.03018533  0.43886525  1.0
  Ni  Ni199  1  0.19705100  0.36351867  0.43886525  1.0
  Ni  Ni200  1  0.19705100  0.69685200  0.43886525  1.0
  Ni  Ni201  1  0.53038433  0.03018533  0.43886525  1.0
  Ni  Ni202  1  0.53038433  0.36351867  0.43886525  1.0
  Ni  Ni203  1  0.53038433  0.69685200  0.43886525  1.0
  Ni  Ni204  1  0.86371767  0.03018533  0.43886525  1.0
  Ni  Ni205  1  0.86371767  0.36351867  0.43886525  1.0
  Ni  Ni206  1  0.86371767  0.69685200  0.43886525  1.0
  Ni  Ni207  1  0.30314800  0.30314800  0.30273275  1.0
  Ni  Ni208  1  0.30314800  0.63648133  0.30273275  1.0
  Ni  Ni209  1  0.30314800  0.96981467  0.30273275  1.0
  Ni  Ni210  1  0.63648133  0.30314800  0.30273275  1.0
  Ni  Ni211  1  0.63648133  0.63648133  0.30273275  1.0
  Ni  Ni212  1  0.63648133  0.96981467  0.30273275  1.0
  Ni  Ni213  1  0.96981467  0.30314800  0.30273275  1.0
  Ni  Ni214  1  0.96981467  0.63648133  0.30273275  1.0
  Ni  Ni215  1  0.96981467  0.96981467  0.30273275  1.0
  Ni  Ni216  1  0.30314800  0.13628233  0.30273275  1.0
  Ni  Ni217  1  0.30314800  0.46961567  0.30273275  1.0
  Ni  Ni218  1  0.30314800  0.80294900  0.30273275  1.0
  Ni  Ni219  1  0.63648133  0.13628233  0.30273275  1.0
  Ni  Ni220  1  0.63648133  0.46961567  0.30273275  1.0
  Ni  Ni221  1  0.63648133  0.80294900  0.30273275  1.0
  Ni  Ni222  1  0.96981467  0.13628233  0.30273275  1.0
  Ni  Ni223  1  0.96981467  0.46961567  0.30273275  1.0
  Ni  Ni224  1  0.96981467  0.80294900  0.30273275  1.0
  Ni  Ni225  1  0.13628233  0.30314800  0.30273275  1.0
  Ni  Ni226  1  0.13628233  0.63648133  0.30273275  1.0
  Ni  Ni227  1  0.13628233  0.96981467  0.30273275  1.0
  Ni  Ni228  1  0.46961567  0.30314800  0.30273275  1.0
  Ni  Ni229  1  0.46961567  0.63648133  0.30273275  1.0
  Ni  Ni230  1  0.46961567  0.96981467  0.30273275  1.0
  Ni  Ni231  1  0.80294900  0.30314800  0.30273275  1.0
  Ni  Ni232  1  0.80294900  0.63648133  0.30273275  1.0
  Ni  Ni233  1  0.80294900  0.96981467  0.30273275  1.0
