# generated using pymatgen
data_NbNi3
_symmetry_space_group_name_H-M   'P 1'
_cell_length_a   10.91098800
_cell_length_b   34.69498983
_cell_length_c   29.09596800
_cell_angle_alpha   99.04682205
_cell_angle_beta   90.00000001
_cell_angle_gamma   99.04682206
_symmetry_Int_Tables_number   1
_chemical_formula_structural   NbNi3
_chemical_formula_sum   'Nb90 Ni270'
_cell_volume   10738.68688385
_cell_formula_units_Z   90
loop_
 _symmetry_equiv_pos_site_id
 _symmetry_equiv_pos_as_xyz
  1  'x, y, z'
loop_
 _atom_site_type_symbol
 _atom_site_label
 _atom_site_symmetry_multiplicity
 _atom_site_fract_x
 _atom_site_fract_y
 _atom_site_fract_z
 _atom_site_occupancy
  Nb  Nb0  1  0.23611111  0.11805556  0.96354167  1.0
  Nb  Nb1  1  0.23611111  0.45138889  0.96354167  1.0
  Nb  Nb2  1  0.23611111  0.78472222  0.96354167  1.0
  Nb  Nb3  1  0.56944444  0.11805556  0.96354167  1.0
  Nb  Nb4  1  0.56944444  0.45138889  0.96354167  1.0
  Nb  Nb5  1  0.56944444  0.78472222  0.96354167  1.0
  Nb  Nb6  1  0.90277778  0.11805556  0.96354167  1.0
  Nb  Nb7  1  0.90277778  0.45138889  0.96354167  1.0
  Nb  Nb8  1  0.90277778  0.78472222  0.96354167  1.0
  Nb  Nb9  1  0.12500000  0.22916667  0.92187500  1.0
  Nb  Nb10  1  0.12500000  0.56250000  0.92187500  1.0
  Nb  Nb11  1  0.12500000  0.89583333  0.92187500  1.0
  Nb  Nb12  1  0.45833333  0.22916667  0.92187500  1.0
  Nb  Nb13  1  0.45833333  0.56250000  0.92187500  1.0
  Nb  Nb14  1  0.45833333  0.89583333  0.92187500  1.0
  Nb  Nb15  1  0.79166667  0.22916667  0.92187500  1.0
  Nb  Nb16  1  0.79166667  0.56250000  0.92187500  1.0
  Nb  Nb17  1  0.79166667  0.89583333  0.92187500  1.0
  Nb  Nb18  1  0.01388889  0.00694444  0.88020833  1.0
  Nb  Nb19  1  0.01388889  0.34027778  0.88020833  1.0
  Nb  Nb20  1  0.01388889  0.67361111  0.88020833  1.0
  Nb  Nb21  1  0.34722222  0.00694444  0.88020833  1.0
  Nb  Nb22  1  0.34722222  0.34027778  0.88020833  1.0
  Nb  Nb23  1  0.34722222  0.67361111  0.88020833  1.0
  Nb  Nb24  1  0.68055556  0.00694444  0.88020833  1.0
  Nb  Nb25  1  0.68055556  0.34027778  0.88020833  1.0
  Nb  Nb26  1  0.68055556  0.67361111  0.88020833  1.0
  Nb  Nb27  1  0.23611111  0.11805556  0.83854167  1.0
  Nb  Nb28  1  0.23611111  0.45138889  0.83854167  1.0
  Nb  Nb29  1  0.23611111  0.78472222  0.83854167  1.0
  Nb  Nb30  1  0.56944444  0.11805556  0.83854167  1.0
  Nb  Nb31  1  0.56944444  0.45138889  0.83854167  1.0
  Nb  Nb32  1  0.56944444  0.78472222  0.83854167  1.0
  Nb  Nb33  1  0.90277778  0.11805556  0.83854167  1.0
  Nb  Nb34  1  0.90277778  0.45138889  0.83854167  1.0
  Nb  Nb35  1  0.90277778  0.78472222  0.83854167  1.0
  Nb  Nb36  1  0.12500000  0.22916667  0.79687500  1.0
  Nb  Nb37  1  0.12500000  0.56250000  0.79687500  1.0
  Nb  Nb38  1  0.12500000  0.89583333  0.79687500  1.0
  Nb  Nb39  1  0.45833333  0.22916667  0.79687500  1.0
  Nb  Nb40  1  0.45833333  0.56250000  0.79687500  1.0
  Nb  Nb41  1  0.45833333  0.89583333  0.79687500  1.0
  Nb  Nb42  1  0.79166667  0.22916667  0.79687500  1.0
  Nb  Nb43  1  0.79166667  0.56250000  0.79687500  1.0
  Nb  Nb44  1  0.79166667  0.89583333  0.79687500  1.0
  Nb  Nb45  1  0.01388889  0.00694444  0.75520833  1.0
  Nb  Nb46  1  0.01388889  0.34027778  0.75520833  1.0
  Nb  Nb47  1  0.01388889  0.67361111  0.75520833  1.0
  Nb  Nb48  1  0.34722222  0.00694444  0.75520833  1.0
  Nb  Nb49  1  0.34722222  0.34027778  0.75520833  1.0
  Nb  Nb50  1  0.34722222  0.67361111  0.75520833  1.0
  Nb  Nb51  1  0.68055556  0.00694444  0.75520833  1.0
  Nb  Nb52  1  0.68055556  0.34027778  0.75520833  1.0
  Nb  Nb53  1  0.68055556  0.67361111  0.75520833  1.0
  Nb  Nb54  1  0.23611111  0.11805556  0.71354167  1.0
  Nb  Nb55  1  0.23611111  0.45138889  0.71354167  1.0
  Nb  Nb56  1  0.23611111  0.78472222  0.71354167  1.0
  Nb  Nb57  1  0.56944444  0.11805556  0.71354167  1.0
  Nb  Nb58  1  0.56944444  0.45138889  0.71354167  1.0
  Nb  Nb59  1  0.56944444  0.78472222  0.71354167  1.0
  Nb  Nb60  1  0.90277778  0.11805556  0.71354167  1.0
  Nb  Nb61  1  0.90277778  0.45138889  0.71354167  1.0
  Nb  Nb62  1  0.90277778  0.78472222  0.71354167  1.0
  Nb  Nb63  1  0.12500000  0.22916667  0.67187500  1.0
  Nb  Nb64  1  0.12500000  0.56250000  0.67187500  1.0
  Nb  Nb65  1  0.12500000  0.89583333  0.67187500  1.0
  Nb  Nb66  1  0.45833333  0.22916667  0.67187500  1.0
  Nb  Nb67  1  0.45833333  0.56250000  0.67187500  1.0
  Nb  Nb68  1  0.45833333  0.89583333  0.67187500  1.0
  Nb  Nb69  1  0.79166667  0.22916667  0.67187500  1.0
  Nb  Nb70  1  0.79166667  0.56250000  0.67187500  1.0
  Nb  Nb71  1  0.79166667  0.89583333  0.67187500  1.0
  Nb  Nb72  1  0.01388889  0.00694444  0.63020833  1.0
  Nb  Nb73  1  0.01388889  0.34027778  0.63020833  1.0
  Nb  Nb74  1  0.01388889  0.67361111  0.63020833  1.0
  Nb  Nb75  1  0.34722222  0.00694444  0.63020833  1.0
  Nb  Nb76  1  0.34722222  0.34027778  0.63020833  1.0
  Nb  Nb77  1  0.34722222  0.67361111  0.63020833  1.0
  Nb  Nb78  1  0.68055556  0.00694444  0.63020833  1.0
  Nb  Nb79  1  0.68055556  0.34027778  0.63020833  1.0
  Nb  Nb80  1  0.68055556  0.67361111  0.63020833  1.0
  Nb  Nb81  1  0.23611111  0.11805556  0.58854167  1.0
  Nb  Nb82  1  0.23611111  0.45138889  0.58854167  1.0
  Nb  Nb83  1  0.23611111  0.78472222  0.58854167  1.0
  Nb  Nb84  1  0.56944444  0.11805556  0.58854167  1.0
  Nb  Nb85  1  0.56944444  0.45138889  0.58854167  1.0
  Nb  Nb86  1  0.56944444  0.78472222  0.58854167  1.0
  Nb  Nb87  1  0.90277778  0.11805556  0.58854167  1.0
  Nb  Nb88  1  0.90277778  0.45138889  0.58854167  1.0
  Nb  Nb89  1  0.90277778  0.78472222  0.58854167  1.0
  Ni  Ni90  1  0.29166667  0.22916667  0.98437500  1.0
  Ni  Ni91  1  0.29166667  0.56250000  0.98437500  1.0
  Ni  Ni92  1  0.29166667  0.89583333  0.98437500  1.0
  Ni  Ni93  1  0.62500000  0.22916667  0.98437500  1.0
  Ni  Ni94  1  0.62500000  0.56250000  0.98437500  1.0
  Ni  Ni95  1  0.62500000  0.89583333  0.98437500  1.0
  Ni  Ni96  1  0.95833333  0.22916667  0.98437500  1.0
  Ni  Ni97  1  0.95833333  0.56250000  0.98437500  1.0
  Ni  Ni98  1  0.95833333  0.89583333  0.98437500  1.0
  Ni  Ni99  1  0.18055556  0.00694444  0.94270833  1.0
  Ni  Ni100  1  0.18055556  0.34027778  0.94270833  1.0
  Ni  Ni101  1  0.18055556  0.67361111  0.94270833  1.0
  Ni  Ni102  1  0.51388889  0.00694444  0.94270833  1.0
  Ni  Ni103  1  0.51388889  0.34027778  0.94270833  1.0
  Ni  Ni104  1  0.51388889  0.67361111  0.94270833  1.0
  Ni  Ni105  1  0.84722222  0.00694444  0.94270833  1.0
  Ni  Ni106  1  0.84722222  0.34027778  0.94270833  1.0
  Ni  Ni107  1  0.84722222  0.67361111  0.94270833  1.0
  Ni  Ni108  1  0.04166667  0.06250000  0.95312500  1.0
  Ni  Ni109  1  0.04166667  0.39583333  0.95312500  1.0
  Ni  Ni110  1  0.04166667  0.72916667  0.95312500  1.0
  Ni  Ni111  1  0.37500000  0.06250000  0.95312500  1.0
  Ni  Ni112  1  0.37500000  0.39583333  0.95312500  1.0
  Ni  Ni113  1  0.37500000  0.72916667  0.95312500  1.0
  Ni  Ni114  1  0.70833333  0.06250000  0.95312500  1.0
  Ni  Ni115  1  0.70833333  0.39583333  0.95312500  1.0
  Ni  Ni116  1  0.70833333  0.72916667  0.95312500  1.0
  Ni  Ni117  1  0.15277778  0.28472222  0.99479167  1.0
  Ni  Ni118  1  0.15277778  0.61805556  0.99479167  1.0
  Ni  Ni119  1  0.15277778  0.95138889  0.99479167  1.0
  Ni  Ni120  1  0.48611111  0.28472222  0.99479167  1.0
  Ni  Ni121  1  0.48611111  0.61805556  0.99479167  1.0
  Ni  Ni122  1  0.48611111  0.95138889  0.99479167  1.0
  Ni  Ni123  1  0.81944444  0.28472222  0.99479167  1.0
  Ni  Ni124  1  0.81944444  0.61805556  0.99479167  1.0
  Ni  Ni125  1  0.81944444  0.95138889  0.99479167  1.0
  Ni  Ni126  1  0.09722222  0.17361111  0.97395833  1.0
  Ni  Ni127  1  0.09722222  0.50694444  0.97395833  1.0
  Ni  Ni128  1  0.09722222  0.84027778  0.97395833  1.0
  Ni  Ni129  1  0.43055556  0.17361111  0.97395833  1.0
  Ni  Ni130  1  0.43055556  0.50694444  0.97395833  1.0
  Ni  Ni131  1  0.43055556  0.84027778  0.97395833  1.0
  Ni  Ni132  1  0.76388889  0.17361111  0.97395833  1.0
  Ni  Ni133  1  0.76388889  0.50694444  0.97395833  1.0
  Ni  Ni134  1  0.76388889  0.84027778  0.97395833  1.0
  Ni  Ni135  1  0.31944444  0.28472222  0.93229167  1.0
  Ni  Ni136  1  0.31944444  0.61805556  0.93229167  1.0
  Ni  Ni137  1  0.31944444  0.95138889  0.93229167  1.0
  Ni  Ni138  1  0.65277778  0.28472222  0.93229167  1.0
  Ni  Ni139  1  0.65277778  0.61805556  0.93229167  1.0
  Ni  Ni140  1  0.65277778  0.95138889  0.93229167  1.0
  Ni  Ni141  1  0.98611111  0.28472222  0.93229167  1.0
  Ni  Ni142  1  0.98611111  0.61805556  0.93229167  1.0
  Ni  Ni143  1  0.98611111  0.95138889  0.93229167  1.0
  Ni  Ni144  1  0.06944444  0.11805556  0.90104167  1.0
  Ni  Ni145  1  0.06944444  0.45138889  0.90104167  1.0
  Ni  Ni146  1  0.06944444  0.78472222  0.90104167  1.0
  Ni  Ni147  1  0.40277778  0.11805556  0.90104167  1.0
  Ni  Ni148  1  0.40277778  0.45138889  0.90104167  1.0
  Ni  Ni149  1  0.40277778  0.78472222  0.90104167  1.0
  Ni  Ni150  1  0.73611111  0.11805556  0.90104167  1.0
  Ni  Ni151  1  0.73611111  0.45138889  0.90104167  1.0
  Ni  Ni152  1  0.73611111  0.78472222  0.90104167  1.0
  Ni  Ni153  1  0.29166667  0.22916667  0.85937500  1.0
  Ni  Ni154  1  0.29166667  0.56250000  0.85937500  1.0
  Ni  Ni155  1  0.29166667  0.89583333  0.85937500  1.0
  Ni  Ni156  1  0.62500000  0.22916667  0.85937500  1.0
  Ni  Ni157  1  0.62500000  0.56250000  0.85937500  1.0
  Ni  Ni158  1  0.62500000  0.89583333  0.85937500  1.0
  Ni  Ni159  1  0.95833333  0.22916667  0.85937500  1.0
  Ni  Ni160  1  0.95833333  0.56250000  0.85937500  1.0
  Ni  Ni161  1  0.95833333  0.89583333  0.85937500  1.0
  Ni  Ni162  1  0.15277778  0.28472222  0.86979167  1.0
  Ni  Ni163  1  0.15277778  0.61805556  0.86979167  1.0
  Ni  Ni164  1  0.15277778  0.95138889  0.86979167  1.0
  Ni  Ni165  1  0.48611111  0.28472222  0.86979167  1.0
  Ni  Ni166  1  0.48611111  0.61805556  0.86979167  1.0
  Ni  Ni167  1  0.48611111  0.95138889  0.86979167  1.0
  Ni  Ni168  1  0.81944444  0.28472222  0.86979167  1.0
  Ni  Ni169  1  0.81944444  0.61805556  0.86979167  1.0
  Ni  Ni170  1  0.81944444  0.95138889  0.86979167  1.0
  Ni  Ni171  1  0.26388889  0.17361111  0.91145833  1.0
  Ni  Ni172  1  0.26388889  0.50694444  0.91145833  1.0
  Ni  Ni173  1  0.26388889  0.84027778  0.91145833  1.0
  Ni  Ni174  1  0.59722222  0.17361111  0.91145833  1.0
  Ni  Ni175  1  0.59722222  0.50694444  0.91145833  1.0
  Ni  Ni176  1  0.59722222  0.84027778  0.91145833  1.0
  Ni  Ni177  1  0.93055556  0.17361111  0.91145833  1.0
  Ni  Ni178  1  0.93055556  0.50694444  0.91145833  1.0
  Ni  Ni179  1  0.93055556  0.84027778  0.91145833  1.0
  Ni  Ni180  1  0.20833333  0.06250000  0.89062500  1.0
  Ni  Ni181  1  0.20833333  0.39583333  0.89062500  1.0
  Ni  Ni182  1  0.20833333  0.72916667  0.89062500  1.0
  Ni  Ni183  1  0.54166667  0.06250000  0.89062500  1.0
  Ni  Ni184  1  0.54166667  0.39583333  0.89062500  1.0
  Ni  Ni185  1  0.54166667  0.72916667  0.89062500  1.0
  Ni  Ni186  1  0.87500000  0.06250000  0.89062500  1.0
  Ni  Ni187  1  0.87500000  0.39583333  0.89062500  1.0
  Ni  Ni188  1  0.87500000  0.72916667  0.89062500  1.0
  Ni  Ni189  1  0.09722222  0.17361111  0.84895833  1.0
  Ni  Ni190  1  0.09722222  0.50694444  0.84895833  1.0
  Ni  Ni191  1  0.09722222  0.84027778  0.84895833  1.0
  Ni  Ni192  1  0.43055556  0.17361111  0.84895833  1.0
  Ni  Ni193  1  0.43055556  0.50694444  0.84895833  1.0
  Ni  Ni194  1  0.43055556  0.84027778  0.84895833  1.0
  Ni  Ni195  1  0.76388889  0.17361111  0.84895833  1.0
  Ni  Ni196  1  0.76388889  0.50694444  0.84895833  1.0
  Ni  Ni197  1  0.76388889  0.84027778  0.84895833  1.0
  Ni  Ni198  1  0.18055556  0.00694444  0.81770833  1.0
  Ni  Ni199  1  0.18055556  0.34027778  0.81770833  1.0
  Ni  Ni200  1  0.18055556  0.67361111  0.81770833  1.0
  Ni  Ni201  1  0.51388889  0.00694444  0.81770833  1.0
  Ni  Ni202  1  0.51388889  0.34027778  0.81770833  1.0
  Ni  Ni203  1  0.51388889  0.67361111  0.81770833  1.0
  Ni  Ni204  1  0.84722222  0.00694444  0.81770833  1.0
  Ni  Ni205  1  0.84722222  0.34027778  0.81770833  1.0
  Ni  Ni206  1  0.84722222  0.67361111  0.81770833  1.0
  Ni  Ni207  1  0.06944444  0.11805556  0.77604167  1.0
  Ni  Ni208  1  0.06944444  0.45138889  0.77604167  1.0
  Ni  Ni209  1  0.06944444  0.78472222  0.77604167  1.0
  Ni  Ni210  1  0.40277778  0.11805556  0.77604167  1.0
  Ni  Ni211  1  0.40277778  0.45138889  0.77604167  1.0
  Ni  Ni212  1  0.40277778  0.78472222  0.77604167  1.0
  Ni  Ni213  1  0.73611111  0.11805556  0.77604167  1.0
  Ni  Ni214  1  0.73611111  0.45138889  0.77604167  1.0
  Ni  Ni215  1  0.73611111  0.78472222  0.77604167  1.0
  Ni  Ni216  1  0.26388889  0.17361111  0.78645833  1.0
  Ni  Ni217  1  0.26388889  0.50694444  0.78645833  1.0
  Ni  Ni218  1  0.26388889  0.84027778  0.78645833  1.0
  Ni  Ni219  1  0.59722222  0.17361111  0.78645833  1.0
  Ni  Ni220  1  0.59722222  0.50694444  0.78645833  1.0
  Ni  Ni221  1  0.59722222  0.84027778  0.78645833  1.0
  Ni  Ni222  1  0.93055556  0.17361111  0.78645833  1.0
  Ni  Ni223  1  0.93055556  0.50694444  0.78645833  1.0
  Ni  Ni224  1  0.93055556  0.84027778  0.78645833  1.0
  Ni  Ni225  1  0.04166667  0.06250000  0.82812500  1.0
  Ni  Ni226  1  0.04166667  0.39583333  0.82812500  1.0
  Ni  Ni227  1  0.04166667  0.72916667  0.82812500  1.0
  Ni  Ni228  1  0.37500000  0.06250000  0.82812500  1.0
  Ni  Ni229  1  0.37500000  0.39583333  0.82812500  1.0
  Ni  Ni230  1  0.37500000  0.72916667  0.82812500  1.0
  Ni  Ni231  1  0.70833333  0.06250000  0.82812500  1.0
  Ni  Ni232  1  0.70833333  0.39583333  0.82812500  1.0
  Ni  Ni233  1  0.70833333  0.72916667  0.82812500  1.0
  Ni  Ni234  1  0.31944444  0.28472222  0.80729167  1.0
  Ni  Ni235  1  0.31944444  0.61805556  0.80729167  1.0
  Ni  Ni236  1  0.31944444  0.95138889  0.80729167  1.0
  Ni  Ni237  1  0.65277778  0.28472222  0.80729167  1.0
  Ni  Ni238  1  0.65277778  0.61805556  0.80729167  1.0
  Ni  Ni239  1  0.65277778  0.95138889  0.80729167  1.0
  Ni  Ni240  1  0.98611111  0.28472222  0.80729167  1.0
  Ni  Ni241  1  0.98611111  0.61805556  0.80729167  1.0
  Ni  Ni242  1  0.98611111  0.95138889  0.80729167  1.0
  Ni  Ni243  1  0.20833333  0.06250000  0.76562500  1.0
  Ni  Ni244  1  0.20833333  0.39583333  0.76562500  1.0
  Ni  Ni245  1  0.20833333  0.72916667  0.76562500  1.0
  Ni  Ni246  1  0.54166667  0.06250000  0.76562500  1.0
  Ni  Ni247  1  0.54166667  0.39583333  0.76562500  1.0
  Ni  Ni248  1  0.54166667  0.72916667  0.76562500  1.0
  Ni  Ni249  1  0.87500000  0.06250000  0.76562500  1.0
  Ni  Ni250  1  0.87500000  0.39583333  0.76562500  1.0
  Ni  Ni251  1  0.87500000  0.72916667  0.76562500  1.0
  Ni  Ni252  1  0.29166667  0.22916667  0.73437500  1.0
  Ni  Ni253  1  0.29166667  0.56250000  0.73437500  1.0
  Ni  Ni254  1  0.29166667  0.89583333  0.73437500  1.0
  Ni  Ni255  1  0.62500000  0.22916667  0.73437500  1.0
  Ni  Ni256  1  0.62500000  0.56250000  0.73437500  1.0
  Ni  Ni257  1  0.62500000  0.89583333  0.73437500  1.0
  Ni  Ni258  1  0.95833333  0.22916667  0.73437500  1.0
  Ni  Ni259  1  0.95833333  0.56250000  0.73437500  1.0
  Ni  Ni260  1  0.95833333  0.89583333  0.73437500  1.0
  Ni  Ni261  1  0.18055556  0.00694444  0.69270833  1.0
  Ni  Ni262  1  0.18055556  0.34027778  0.69270833  1.0
  Ni  Ni263  1  0.18055556  0.67361111  0.69270833  1.0
  Ni  Ni264  1  0.51388889  0.00694444  0.69270833  1.0
  Ni  Ni265  1  0.51388889  0.34027778  0.69270833  1.0
  Ni  Ni266  1  0.51388889  0.67361111  0.69270833  1.0
  Ni  Ni267  1  0.84722222  0.00694444  0.69270833  1.0
  Ni  Ni268  1  0.84722222  0.34027778  0.69270833  1.0
  Ni  Ni269  1  0.84722222  0.67361111  0.69270833  1.0
  Ni  Ni270  1  0.04166667  0.06250000  0.70312500  1.0
  Ni  Ni271  1  0.04166667  0.39583333  0.70312500  1.0
  Ni  Ni272  1  0.04166667  0.72916667  0.70312500  1.0
  Ni  Ni273  1  0.37500000  0.06250000  0.70312500  1.0
  Ni  Ni274  1  0.37500000  0.39583333  0.70312500  1.0
  Ni  Ni275  1  0.37500000  0.72916667  0.70312500  1.0
  Ni  Ni276  1  0.70833333  0.06250000  0.70312500  1.0
  Ni  Ni277  1  0.70833333  0.39583333  0.70312500  1.0
  Ni  Ni278  1  0.70833333  0.72916667  0.70312500  1.0
  Ni  Ni279  1  0.15277778  0.28472222  0.74479167  1.0
  Ni  Ni280  1  0.15277778  0.61805556  0.74479167  1.0
  Ni  Ni281  1  0.15277778  0.95138889  0.74479167  1.0
  Ni  Ni282  1  0.48611111  0.28472222  0.74479167  1.0
  Ni  Ni283  1  0.48611111  0.61805556  0.74479167  1.0
  Ni  Ni284  1  0.48611111  0.95138889  0.74479167  1.0
  Ni  Ni285  1  0.81944444  0.28472222  0.74479167  1.0
  Ni  Ni286  1  0.81944444  0.61805556  0.74479167  1.0
  Ni  Ni287  1  0.81944444  0.95138889  0.74479167  1.0
  Ni  Ni288  1  0.09722222  0.17361111  0.72395833  1.0
  Ni  Ni289  1  0.09722222  0.50694444  0.72395833  1.0
  Ni  Ni290  1  0.09722222  0.84027778  0.72395833  1.0
  Ni  Ni291  1  0.43055556  0.17361111  0.72395833  1.0
  Ni  Ni292  1  0.43055556  0.50694444  0.72395833  1.0
  Ni  Ni293  1  0.43055556  0.84027778  0.72395833  1.0
  Ni  Ni294  1  0.76388889  0.17361111  0.72395833  1.0
  Ni  Ni295  1  0.76388889  0.50694444  0.72395833  1.0
  Ni  Ni296  1  0.76388889  0.84027778  0.72395833  1.0
  Ni  Ni297  1  0.31944444  0.28472222  0.68229167  1.0
  Ni  Ni298  1  0.31944444  0.61805556  0.68229167  1.0
  Ni  Ni299  1  0.31944444  0.95138889  0.68229167  1.0
  Ni  Ni300  1  0.65277778  0.28472222  0.68229167  1.0
  Ni  Ni301  1  0.65277778  0.61805556  0.68229167  1.0
  Ni  Ni302  1  0.65277778  0.95138889  0.68229167  1.0
  Ni  Ni303  1  0.98611111  0.28472222  0.68229167  1.0
  Ni  Ni304  1  0.98611111  0.61805556  0.68229167  1.0
  Ni  Ni305  1  0.98611111  0.95138889  0.68229167  1.0
  Ni  Ni306  1  0.06944444  0.11805556  0.65104167  1.0
  Ni  Ni307  1  0.06944444  0.45138889  0.65104167  1.0
  Ni  Ni308  1  0.06944444  0.78472222  0.65104167  1.0
  Ni  Ni309  1  0.40277778  0.11805556  0.65104167  1.0
  Ni  Ni310  1  0.40277778  0.45138889  0.65104167  1.0
  Ni  Ni311  1  0.40277778  0.78472222  0.65104167  1.0
  Ni  Ni312  1  0.73611111  0.11805556  0.65104167  1.0
  Ni  Ni313  1  0.73611111  0.45138889  0.65104167  1.0
  Ni  Ni314  1  0.73611111  0.78472222  0.65104167  1.0
  Ni  Ni315  1  0.29166667  0.22916667  0.60937500  1.0
  Ni  Ni316  1  0.29166667  0.56250000  0.60937500  1.0
  Ni  Ni317  1  0.29166667  0.89583333  0.60937500  1.0
  Ni  Ni318  1  0.62500000  0.22916667  0.60937500  1.0
  Ni  Ni319  1  0.62500000  0.56250000  0.60937500  1.0
  Ni  Ni320  1  0.62500000  0.89583333  0.60937500  1.0
  Ni  Ni321  1  0.95833333  0.22916667  0.60937500  1.0
  Ni  Ni322  1  0.95833333  0.56250000  0.60937500  1.0
  Ni  Ni323  1  0.95833333  0.89583333  0.60937500  1.0
  Ni  Ni324  1  0.15277778  0.28472222  0.61979167  1.0
  Ni  Ni325  1  0.15277778  0.61805556  0.61979167  1.0
  Ni  Ni326  1  0.15277778  0.95138889  0.61979167  1.0
  Ni  Ni327  1  0.48611111  0.28472222  0.61979167  1.0
  Ni  Ni328  1  0.48611111  0.61805556  0.61979167  1.0
  Ni  Ni329  1  0.48611111  0.95138889  0.61979167  1.0
  Ni  Ni330  1  0.81944444  0.28472222  0.61979167  1.0
  Ni  Ni331  1  0.81944444  0.61805556  0.61979167  1.0
  Ni  Ni332  1  0.81944444  0.95138889  0.61979167  1.0
  Ni  Ni333  1  0.26388889  0.17361111  0.66145833  1.0
  Ni  Ni334  1  0.26388889  0.50694444  0.66145833  1.0
  Ni  Ni335  1  0.26388889  0.84027778  0.66145833  1.0
  Ni  Ni336  1  0.59722222  0.17361111  0.66145833  1.0
  Ni  Ni337  1  0.59722222  0.50694444  0.66145833  1.0
  Ni  Ni338  1  0.59722222  0.84027778  0.66145833  1.0
  Ni  Ni339  1  0.93055556  0.17361111  0.66145833  1.0
  Ni  Ni340  1  0.93055556  0.50694444  0.66145833  1.0
  Ni  Ni341  1  0.93055556  0.84027778  0.66145833  1.0
  Ni  Ni342  1  0.20833333  0.06250000  0.64062500  1.0
  Ni  Ni343  1  0.20833333  0.39583333  0.64062500  1.0
  Ni  Ni344  1  0.20833333  0.72916667  0.64062500  1.0
  Ni  Ni345  1  0.54166667  0.06250000  0.64062500  1.0
  Ni  Ni346  1  0.54166667  0.39583333  0.64062500  1.0
  Ni  Ni347  1  0.54166667  0.72916667  0.64062500  1.0
  Ni  Ni348  1  0.87500000  0.06250000  0.64062500  1.0
  Ni  Ni349  1  0.87500000  0.39583333  0.64062500  1.0
  Ni  Ni350  1  0.87500000  0.72916667  0.64062500  1.0
  Ni  Ni351  1  0.09722222  0.17361111  0.59895833  1.0
  Ni  Ni352  1  0.09722222  0.50694444  0.59895833  1.0
  Ni  Ni353  1  0.09722222  0.84027778  0.59895833  1.0
  Ni  Ni354  1  0.43055556  0.17361111  0.59895833  1.0
  Ni  Ni355  1  0.43055556  0.50694444  0.59895833  1.0
  Ni  Ni356  1  0.43055556  0.84027778  0.59895833  1.0
  Ni  Ni357  1  0.76388889  0.17361111  0.59895833  1.0
  Ni  Ni358  1  0.76388889  0.50694444  0.59895833  1.0
  Ni  Ni359  1  0.76388889  0.84027778  0.59895833  1.0
