# generated using pymatgen
data_NbNi3
_symmetry_space_group_name_H-M   'P 1'
_cell_length_a   20.60969249
_cell_length_b   25.05176173
_cell_length_c   28.19815849
_cell_angle_alpha   92.92219598
_cell_angle_beta   93.11672659
_cell_angle_gamma   112.15962426
_symmetry_Int_Tables_number   1
_chemical_formula_structural   NbNi3
_chemical_formula_sum   'Nb108 Ni324'
_cell_volume   13423.35860481
_cell_formula_units_Z   108
loop_
 _symmetry_equiv_pos_site_id
 _symmetry_equiv_pos_as_xyz
  1  'x, y, z'
loop_
 _atom_site_type_symbol
 _atom_site_label
 _atom_site_symmetry_multiplicity
 _atom_site_fract_x
 _atom_site_fract_y
 _atom_site_fract_z
 _atom_site_occupancy
  Nb  Nb0  1  0.16666667  0.04166667  0.93750000  1.0
  Nb  Nb1  1  0.16666667  0.37500000  0.93750000  1.0
  Nb  Nb2  1  0.16666667  0.70833333  0.93750000  1.0
  Nb  Nb3  1  0.50000000  0.04166667  0.93750000  1.0
  Nb  Nb4  1  0.50000000  0.37500000  0.93750000  1.0
  Nb  Nb5  1  0.50000000  0.70833333  0.93750000  1.0
  Nb  Nb6  1  0.83333333  0.04166667  0.93750000  1.0
  Nb  Nb7  1  0.83333333  0.37500000  0.93750000  1.0
  Nb  Nb8  1  0.83333333  0.70833333  0.93750000  1.0
  Nb  Nb9  1  0.08888889  0.18611111  0.97083333  1.0
  Nb  Nb10  1  0.08888889  0.51944444  0.97083333  1.0
  Nb  Nb11  1  0.08888889  0.85277778  0.97083333  1.0
  Nb  Nb12  1  0.42222222  0.18611111  0.97083333  1.0
  Nb  Nb13  1  0.42222222  0.51944444  0.97083333  1.0
  Nb  Nb14  1  0.42222222  0.85277778  0.97083333  1.0
  Nb  Nb15  1  0.75555556  0.18611111  0.97083333  1.0
  Nb  Nb16  1  0.75555556  0.51944444  0.97083333  1.0
  Nb  Nb17  1  0.75555556  0.85277778  0.97083333  1.0
  Nb  Nb18  1  0.32222222  0.08611111  0.87083333  1.0
  Nb  Nb19  1  0.32222222  0.41944444  0.87083333  1.0
  Nb  Nb20  1  0.32222222  0.75277778  0.87083333  1.0
  Nb  Nb21  1  0.65555556  0.08611111  0.87083333  1.0
  Nb  Nb22  1  0.65555556  0.41944444  0.87083333  1.0
  Nb  Nb23  1  0.65555556  0.75277778  0.87083333  1.0
  Nb  Nb24  1  0.98888889  0.08611111  0.87083333  1.0
  Nb  Nb25  1  0.98888889  0.41944444  0.87083333  1.0
  Nb  Nb26  1  0.98888889  0.75277778  0.87083333  1.0
  Nb  Nb27  1  0.24444444  0.23055556  0.90416667  1.0
  Nb  Nb28  1  0.24444444  0.56388889  0.90416667  1.0
  Nb  Nb29  1  0.24444444  0.89722222  0.90416667  1.0
  Nb  Nb30  1  0.57777778  0.23055556  0.90416667  1.0
  Nb  Nb31  1  0.57777778  0.56388889  0.90416667  1.0
  Nb  Nb32  1  0.57777778  0.89722222  0.90416667  1.0
  Nb  Nb33  1  0.91111111  0.23055556  0.90416667  1.0
  Nb  Nb34  1  0.91111111  0.56388889  0.90416667  1.0
  Nb  Nb35  1  0.91111111  0.89722222  0.90416667  1.0
  Nb  Nb36  1  0.14444444  0.13055556  0.80416667  1.0
  Nb  Nb37  1  0.14444444  0.46388889  0.80416667  1.0
  Nb  Nb38  1  0.14444444  0.79722222  0.80416667  1.0
  Nb  Nb39  1  0.47777778  0.13055556  0.80416667  1.0
  Nb  Nb40  1  0.47777778  0.46388889  0.80416667  1.0
  Nb  Nb41  1  0.47777778  0.79722222  0.80416667  1.0
  Nb  Nb42  1  0.81111111  0.13055556  0.80416667  1.0
  Nb  Nb43  1  0.81111111  0.46388889  0.80416667  1.0
  Nb  Nb44  1  0.81111111  0.79722222  0.80416667  1.0
  Nb  Nb45  1  0.06666667  0.27500000  0.83750000  1.0
  Nb  Nb46  1  0.06666667  0.60833333  0.83750000  1.0
  Nb  Nb47  1  0.06666667  0.94166667  0.83750000  1.0
  Nb  Nb48  1  0.40000000  0.27500000  0.83750000  1.0
  Nb  Nb49  1  0.40000000  0.60833333  0.83750000  1.0
  Nb  Nb50  1  0.40000000  0.94166667  0.83750000  1.0
  Nb  Nb51  1  0.73333333  0.27500000  0.83750000  1.0
  Nb  Nb52  1  0.73333333  0.60833333  0.83750000  1.0
  Nb  Nb53  1  0.73333333  0.94166667  0.83750000  1.0
  Nb  Nb54  1  0.30000000  0.17500000  0.73750000  1.0
  Nb  Nb55  1  0.30000000  0.50833333  0.73750000  1.0
  Nb  Nb56  1  0.30000000  0.84166667  0.73750000  1.0
  Nb  Nb57  1  0.63333333  0.17500000  0.73750000  1.0
  Nb  Nb58  1  0.63333333  0.50833333  0.73750000  1.0
  Nb  Nb59  1  0.63333333  0.84166667  0.73750000  1.0
  Nb  Nb60  1  0.96666667  0.17500000  0.73750000  1.0
  Nb  Nb61  1  0.96666667  0.50833333  0.73750000  1.0
  Nb  Nb62  1  0.96666667  0.84166667  0.73750000  1.0
  Nb  Nb63  1  0.22222222  0.31944444  0.77083333  1.0
  Nb  Nb64  1  0.22222222  0.65277778  0.77083333  1.0
  Nb  Nb65  1  0.22222222  0.98611111  0.77083333  1.0
  Nb  Nb66  1  0.55555556  0.31944444  0.77083333  1.0
  Nb  Nb67  1  0.55555556  0.65277778  0.77083333  1.0
  Nb  Nb68  1  0.55555556  0.98611111  0.77083333  1.0
  Nb  Nb69  1  0.88888889  0.31944444  0.77083333  1.0
  Nb  Nb70  1  0.88888889  0.65277778  0.77083333  1.0
  Nb  Nb71  1  0.88888889  0.98611111  0.77083333  1.0
  Nb  Nb72  1  0.12222222  0.21944444  0.67083333  1.0
  Nb  Nb73  1  0.12222222  0.55277778  0.67083333  1.0
  Nb  Nb74  1  0.12222222  0.88611111  0.67083333  1.0
  Nb  Nb75  1  0.45555556  0.21944444  0.67083333  1.0
  Nb  Nb76  1  0.45555556  0.55277778  0.67083333  1.0
  Nb  Nb77  1  0.45555556  0.88611111  0.67083333  1.0
  Nb  Nb78  1  0.78888889  0.21944444  0.67083333  1.0
  Nb  Nb79  1  0.78888889  0.55277778  0.67083333  1.0
  Nb  Nb80  1  0.78888889  0.88611111  0.67083333  1.0
  Nb  Nb81  1  0.04444444  0.03055556  0.70416667  1.0
  Nb  Nb82  1  0.04444444  0.36388889  0.70416667  1.0
  Nb  Nb83  1  0.04444444  0.69722222  0.70416667  1.0
  Nb  Nb84  1  0.37777778  0.03055556  0.70416667  1.0
  Nb  Nb85  1  0.37777778  0.36388889  0.70416667  1.0
  Nb  Nb86  1  0.37777778  0.69722222  0.70416667  1.0
  Nb  Nb87  1  0.71111111  0.03055556  0.70416667  1.0
  Nb  Nb88  1  0.71111111  0.36388889  0.70416667  1.0
  Nb  Nb89  1  0.71111111  0.69722222  0.70416667  1.0
  Nb  Nb90  1  0.27777778  0.26388889  0.60416667  1.0
  Nb  Nb91  1  0.27777778  0.59722222  0.60416667  1.0
  Nb  Nb92  1  0.27777778  0.93055556  0.60416667  1.0
  Nb  Nb93  1  0.61111111  0.26388889  0.60416667  1.0
  Nb  Nb94  1  0.61111111  0.59722222  0.60416667  1.0
  Nb  Nb95  1  0.61111111  0.93055556  0.60416667  1.0
  Nb  Nb96  1  0.94444444  0.26388889  0.60416667  1.0
  Nb  Nb97  1  0.94444444  0.59722222  0.60416667  1.0
  Nb  Nb98  1  0.94444444  0.93055556  0.60416667  1.0
  Nb  Nb99  1  0.20000000  0.07500000  0.63750000  1.0
  Nb  Nb100  1  0.20000000  0.40833333  0.63750000  1.0
  Nb  Nb101  1  0.20000000  0.74166667  0.63750000  1.0
  Nb  Nb102  1  0.53333333  0.07500000  0.63750000  1.0
  Nb  Nb103  1  0.53333333  0.40833333  0.63750000  1.0
  Nb  Nb104  1  0.53333333  0.74166667  0.63750000  1.0
  Nb  Nb105  1  0.86666667  0.07500000  0.63750000  1.0
  Nb  Nb106  1  0.86666667  0.40833333  0.63750000  1.0
  Nb  Nb107  1  0.86666667  0.74166667  0.63750000  1.0
  Ni  Ni108  1  0.29444444  0.11388889  0.95416667  1.0
  Ni  Ni109  1  0.29444444  0.44722222  0.95416667  1.0
  Ni  Ni110  1  0.29444444  0.78055556  0.95416667  1.0
  Ni  Ni111  1  0.62777778  0.11388889  0.95416667  1.0
  Ni  Ni112  1  0.62777778  0.44722222  0.95416667  1.0
  Ni  Ni113  1  0.62777778  0.78055556  0.95416667  1.0
  Ni  Ni114  1  0.96111111  0.11388889  0.95416667  1.0
  Ni  Ni115  1  0.96111111  0.44722222  0.95416667  1.0
  Ni  Ni116  1  0.96111111  0.78055556  0.95416667  1.0
  Ni  Ni117  1  0.21666667  0.25833333  0.98750000  1.0
  Ni  Ni118  1  0.21666667  0.59166667  0.98750000  1.0
  Ni  Ni119  1  0.21666667  0.92500000  0.98750000  1.0
  Ni  Ni120  1  0.55000000  0.25833333  0.98750000  1.0
  Ni  Ni121  1  0.55000000  0.59166667  0.98750000  1.0
  Ni  Ni122  1  0.55000000  0.92500000  0.98750000  1.0
  Ni  Ni123  1  0.88333333  0.25833333  0.98750000  1.0
  Ni  Ni124  1  0.88333333  0.59166667  0.98750000  1.0
  Ni  Ni125  1  0.88333333  0.92500000  0.98750000  1.0
  Ni  Ni126  1  0.11388889  0.29444444  0.99583333  1.0
  Ni  Ni127  1  0.11388889  0.62777778  0.99583333  1.0
  Ni  Ni128  1  0.11388889  0.96111111  0.99583333  1.0
  Ni  Ni129  1  0.44722222  0.29444444  0.99583333  1.0
  Ni  Ni130  1  0.44722222  0.62777778  0.99583333  1.0
  Ni  Ni131  1  0.44722222  0.96111111  0.99583333  1.0
  Ni  Ni132  1  0.78055556  0.29444444  0.99583333  1.0
  Ni  Ni133  1  0.78055556  0.62777778  0.99583333  1.0
  Ni  Ni134  1  0.78055556  0.96111111  0.99583333  1.0
  Ni  Ni135  1  0.19166667  0.15000000  0.96250000  1.0
  Ni  Ni136  1  0.19166667  0.48333333  0.96250000  1.0
  Ni  Ni137  1  0.19166667  0.81666667  0.96250000  1.0
  Ni  Ni138  1  0.52500000  0.15000000  0.96250000  1.0
  Ni  Ni139  1  0.52500000  0.48333333  0.96250000  1.0
  Ni  Ni140  1  0.52500000  0.81666667  0.96250000  1.0
  Ni  Ni141  1  0.85833333  0.15000000  0.96250000  1.0
  Ni  Ni142  1  0.85833333  0.48333333  0.96250000  1.0
  Ni  Ni143  1  0.85833333  0.81666667  0.96250000  1.0
  Ni  Ni144  1  0.06388889  0.07777778  0.94583333  1.0
  Ni  Ni145  1  0.06388889  0.41111111  0.94583333  1.0
  Ni  Ni146  1  0.06388889  0.74444444  0.94583333  1.0
  Ni  Ni147  1  0.39722222  0.07777778  0.94583333  1.0
  Ni  Ni148  1  0.39722222  0.41111111  0.94583333  1.0
  Ni  Ni149  1  0.39722222  0.74444444  0.94583333  1.0
  Ni  Ni150  1  0.73055556  0.07777778  0.94583333  1.0
  Ni  Ni151  1  0.73055556  0.41111111  0.94583333  1.0
  Ni  Ni152  1  0.73055556  0.74444444  0.94583333  1.0
  Ni  Ni153  1  0.31944444  0.22222222  0.97916667  1.0
  Ni  Ni154  1  0.31944444  0.55555556  0.97916667  1.0
  Ni  Ni155  1  0.31944444  0.88888889  0.97916667  1.0
  Ni  Ni156  1  0.65277778  0.22222222  0.97916667  1.0
  Ni  Ni157  1  0.65277778  0.55555556  0.97916667  1.0
  Ni  Ni158  1  0.65277778  0.88888889  0.97916667  1.0
  Ni  Ni159  1  0.98611111  0.22222222  0.97916667  1.0
  Ni  Ni160  1  0.98611111  0.55555556  0.97916667  1.0
  Ni  Ni161  1  0.98611111  0.88888889  0.97916667  1.0
  Ni  Ni162  1  0.11666667  0.15833333  0.88750000  1.0
  Ni  Ni163  1  0.11666667  0.49166667  0.88750000  1.0
  Ni  Ni164  1  0.11666667  0.82500000  0.88750000  1.0
  Ni  Ni165  1  0.45000000  0.15833333  0.88750000  1.0
  Ni  Ni166  1  0.45000000  0.49166667  0.88750000  1.0
  Ni  Ni167  1  0.45000000  0.82500000  0.88750000  1.0
  Ni  Ni168  1  0.78333333  0.15833333  0.88750000  1.0
  Ni  Ni169  1  0.78333333  0.49166667  0.88750000  1.0
  Ni  Ni170  1  0.78333333  0.82500000  0.88750000  1.0
  Ni  Ni171  1  0.03888889  0.30277778  0.92083333  1.0
  Ni  Ni172  1  0.03888889  0.63611111  0.92083333  1.0
  Ni  Ni173  1  0.03888889  0.96944444  0.92083333  1.0
  Ni  Ni174  1  0.37222222  0.30277778  0.92083333  1.0
  Ni  Ni175  1  0.37222222  0.63611111  0.92083333  1.0
  Ni  Ni176  1  0.37222222  0.96944444  0.92083333  1.0
  Ni  Ni177  1  0.70555556  0.30277778  0.92083333  1.0
  Ni  Ni178  1  0.70555556  0.63611111  0.92083333  1.0
  Ni  Ni179  1  0.70555556  0.96944444  0.92083333  1.0
  Ni  Ni180  1  0.26944444  0.00555556  0.92916667  1.0
  Ni  Ni181  1  0.26944444  0.33888889  0.92916667  1.0
  Ni  Ni182  1  0.26944444  0.67222222  0.92916667  1.0
  Ni  Ni183  1  0.60277778  0.00555556  0.92916667  1.0
  Ni  Ni184  1  0.60277778  0.33888889  0.92916667  1.0
  Ni  Ni185  1  0.60277778  0.67222222  0.92916667  1.0
  Ni  Ni186  1  0.93611111  0.00555556  0.92916667  1.0
  Ni  Ni187  1  0.93611111  0.33888889  0.92916667  1.0
  Ni  Ni188  1  0.93611111  0.67222222  0.92916667  1.0
  Ni  Ni189  1  0.01388889  0.19444444  0.89583333  1.0
  Ni  Ni190  1  0.01388889  0.52777778  0.89583333  1.0
  Ni  Ni191  1  0.01388889  0.86111111  0.89583333  1.0
  Ni  Ni192  1  0.34722222  0.19444444  0.89583333  1.0
  Ni  Ni193  1  0.34722222  0.52777778  0.89583333  1.0
  Ni  Ni194  1  0.34722222  0.86111111  0.89583333  1.0
  Ni  Ni195  1  0.68055556  0.19444444  0.89583333  1.0
  Ni  Ni196  1  0.68055556  0.52777778  0.89583333  1.0
  Ni  Ni197  1  0.68055556  0.86111111  0.89583333  1.0
  Ni  Ni198  1  0.21944444  0.12222222  0.87916667  1.0
  Ni  Ni199  1  0.21944444  0.45555556  0.87916667  1.0
  Ni  Ni200  1  0.21944444  0.78888889  0.87916667  1.0
  Ni  Ni201  1  0.55277778  0.12222222  0.87916667  1.0
  Ni  Ni202  1  0.55277778  0.45555556  0.87916667  1.0
  Ni  Ni203  1  0.55277778  0.78888889  0.87916667  1.0
  Ni  Ni204  1  0.88611111  0.12222222  0.87916667  1.0
  Ni  Ni205  1  0.88611111  0.45555556  0.87916667  1.0
  Ni  Ni206  1  0.88611111  0.78888889  0.87916667  1.0
  Ni  Ni207  1  0.14166667  0.26666667  0.91250000  1.0
  Ni  Ni208  1  0.14166667  0.60000000  0.91250000  1.0
  Ni  Ni209  1  0.14166667  0.93333333  0.91250000  1.0
  Ni  Ni210  1  0.47500000  0.26666667  0.91250000  1.0
  Ni  Ni211  1  0.47500000  0.60000000  0.91250000  1.0
  Ni  Ni212  1  0.47500000  0.93333333  0.91250000  1.0
  Ni  Ni213  1  0.80833333  0.26666667  0.91250000  1.0
  Ni  Ni214  1  0.80833333  0.60000000  0.91250000  1.0
  Ni  Ni215  1  0.80833333  0.93333333  0.91250000  1.0
  Ni  Ni216  1  0.27222222  0.20277778  0.82083333  1.0
  Ni  Ni217  1  0.27222222  0.53611111  0.82083333  1.0
  Ni  Ni218  1  0.27222222  0.86944444  0.82083333  1.0
  Ni  Ni219  1  0.60555556  0.20277778  0.82083333  1.0
  Ni  Ni220  1  0.60555556  0.53611111  0.82083333  1.0
  Ni  Ni221  1  0.60555556  0.86944444  0.82083333  1.0
  Ni  Ni222  1  0.93888889  0.20277778  0.82083333  1.0
  Ni  Ni223  1  0.93888889  0.53611111  0.82083333  1.0
  Ni  Ni224  1  0.93888889  0.86944444  0.82083333  1.0
  Ni  Ni225  1  0.19444444  0.01388889  0.85416667  1.0
  Ni  Ni226  1  0.19444444  0.34722222  0.85416667  1.0
  Ni  Ni227  1  0.19444444  0.68055556  0.85416667  1.0
  Ni  Ni228  1  0.52777778  0.01388889  0.85416667  1.0
  Ni  Ni229  1  0.52777778  0.34722222  0.85416667  1.0
  Ni  Ni230  1  0.52777778  0.68055556  0.85416667  1.0
  Ni  Ni231  1  0.86111111  0.01388889  0.85416667  1.0
  Ni  Ni232  1  0.86111111  0.34722222  0.85416667  1.0
  Ni  Ni233  1  0.86111111  0.68055556  0.85416667  1.0
  Ni  Ni234  1  0.09166667  0.05000000  0.86250000  1.0
  Ni  Ni235  1  0.09166667  0.38333333  0.86250000  1.0
  Ni  Ni236  1  0.09166667  0.71666667  0.86250000  1.0
  Ni  Ni237  1  0.42500000  0.05000000  0.86250000  1.0
  Ni  Ni238  1  0.42500000  0.38333333  0.86250000  1.0
  Ni  Ni239  1  0.42500000  0.71666667  0.86250000  1.0
  Ni  Ni240  1  0.75833333  0.05000000  0.86250000  1.0
  Ni  Ni241  1  0.75833333  0.38333333  0.86250000  1.0
  Ni  Ni242  1  0.75833333  0.71666667  0.86250000  1.0
  Ni  Ni243  1  0.16944444  0.23888889  0.82916667  1.0
  Ni  Ni244  1  0.16944444  0.57222222  0.82916667  1.0
  Ni  Ni245  1  0.16944444  0.90555556  0.82916667  1.0
  Ni  Ni246  1  0.50277778  0.23888889  0.82916667  1.0
  Ni  Ni247  1  0.50277778  0.57222222  0.82916667  1.0
  Ni  Ni248  1  0.50277778  0.90555556  0.82916667  1.0
  Ni  Ni249  1  0.83611111  0.23888889  0.82916667  1.0
  Ni  Ni250  1  0.83611111  0.57222222  0.82916667  1.0
  Ni  Ni251  1  0.83611111  0.90555556  0.82916667  1.0
  Ni  Ni252  1  0.04166667  0.16666667  0.81250000  1.0
  Ni  Ni253  1  0.04166667  0.50000000  0.81250000  1.0
  Ni  Ni254  1  0.04166667  0.83333333  0.81250000  1.0
  Ni  Ni255  1  0.37500000  0.16666667  0.81250000  1.0
  Ni  Ni256  1  0.37500000  0.50000000  0.81250000  1.0
  Ni  Ni257  1  0.37500000  0.83333333  0.81250000  1.0
  Ni  Ni258  1  0.70833333  0.16666667  0.81250000  1.0
  Ni  Ni259  1  0.70833333  0.50000000  0.81250000  1.0
  Ni  Ni260  1  0.70833333  0.83333333  0.81250000  1.0
  Ni  Ni261  1  0.29722222  0.31111111  0.84583333  1.0
  Ni  Ni262  1  0.29722222  0.64444444  0.84583333  1.0
  Ni  Ni263  1  0.29722222  0.97777778  0.84583333  1.0
  Ni  Ni264  1  0.63055556  0.31111111  0.84583333  1.0
  Ni  Ni265  1  0.63055556  0.64444444  0.84583333  1.0
  Ni  Ni266  1  0.63055556  0.97777778  0.84583333  1.0
  Ni  Ni267  1  0.96388889  0.31111111  0.84583333  1.0
  Ni  Ni268  1  0.96388889  0.64444444  0.84583333  1.0
  Ni  Ni269  1  0.96388889  0.97777778  0.84583333  1.0
  Ni  Ni270  1  0.09444444  0.24722222  0.75416667  1.0
  Ni  Ni271  1  0.09444444  0.58055556  0.75416667  1.0
  Ni  Ni272  1  0.09444444  0.91388889  0.75416667  1.0
  Ni  Ni273  1  0.42777778  0.24722222  0.75416667  1.0
  Ni  Ni274  1  0.42777778  0.58055556  0.75416667  1.0
  Ni  Ni275  1  0.42777778  0.91388889  0.75416667  1.0
  Ni  Ni276  1  0.76111111  0.24722222  0.75416667  1.0
  Ni  Ni277  1  0.76111111  0.58055556  0.75416667  1.0
  Ni  Ni278  1  0.76111111  0.91388889  0.75416667  1.0
  Ni  Ni279  1  0.01666667  0.05833333  0.78750000  1.0
  Ni  Ni280  1  0.01666667  0.39166667  0.78750000  1.0
  Ni  Ni281  1  0.01666667  0.72500000  0.78750000  1.0
  Ni  Ni282  1  0.35000000  0.05833333  0.78750000  1.0
  Ni  Ni283  1  0.35000000  0.39166667  0.78750000  1.0
  Ni  Ni284  1  0.35000000  0.72500000  0.78750000  1.0
  Ni  Ni285  1  0.68333333  0.05833333  0.78750000  1.0
  Ni  Ni286  1  0.68333333  0.39166667  0.78750000  1.0
  Ni  Ni287  1  0.68333333  0.72500000  0.78750000  1.0
  Ni  Ni288  1  0.24722222  0.09444444  0.79583333  1.0
  Ni  Ni289  1  0.24722222  0.42777778  0.79583333  1.0
  Ni  Ni290  1  0.24722222  0.76111111  0.79583333  1.0
  Ni  Ni291  1  0.58055556  0.09444444  0.79583333  1.0
  Ni  Ni292  1  0.58055556  0.42777778  0.79583333  1.0
  Ni  Ni293  1  0.58055556  0.76111111  0.79583333  1.0
  Ni  Ni294  1  0.91388889  0.09444444  0.79583333  1.0
  Ni  Ni295  1  0.91388889  0.42777778  0.79583333  1.0
  Ni  Ni296  1  0.91388889  0.76111111  0.79583333  1.0
  Ni  Ni297  1  0.32500000  0.28333333  0.76250000  1.0
  Ni  Ni298  1  0.32500000  0.61666667  0.76250000  1.0
  Ni  Ni299  1  0.32500000  0.95000000  0.76250000  1.0
  Ni  Ni300  1  0.65833333  0.28333333  0.76250000  1.0
  Ni  Ni301  1  0.65833333  0.61666667  0.76250000  1.0
  Ni  Ni302  1  0.65833333  0.95000000  0.76250000  1.0
  Ni  Ni303  1  0.99166667  0.28333333  0.76250000  1.0
  Ni  Ni304  1  0.99166667  0.61666667  0.76250000  1.0
  Ni  Ni305  1  0.99166667  0.95000000  0.76250000  1.0
  Ni  Ni306  1  0.19722222  0.21111111  0.74583333  1.0
  Ni  Ni307  1  0.19722222  0.54444444  0.74583333  1.0
  Ni  Ni308  1  0.19722222  0.87777778  0.74583333  1.0
  Ni  Ni309  1  0.53055556  0.21111111  0.74583333  1.0
  Ni  Ni310  1  0.53055556  0.54444444  0.74583333  1.0
  Ni  Ni311  1  0.53055556  0.87777778  0.74583333  1.0
  Ni  Ni312  1  0.86388889  0.21111111  0.74583333  1.0
  Ni  Ni313  1  0.86388889  0.54444444  0.74583333  1.0
  Ni  Ni314  1  0.86388889  0.87777778  0.74583333  1.0
  Ni  Ni315  1  0.11944444  0.02222222  0.77916667  1.0
  Ni  Ni316  1  0.11944444  0.35555556  0.77916667  1.0
  Ni  Ni317  1  0.11944444  0.68888889  0.77916667  1.0
  Ni  Ni318  1  0.45277778  0.02222222  0.77916667  1.0
  Ni  Ni319  1  0.45277778  0.35555556  0.77916667  1.0
  Ni  Ni320  1  0.45277778  0.68888889  0.77916667  1.0
  Ni  Ni321  1  0.78611111  0.02222222  0.77916667  1.0
  Ni  Ni322  1  0.78611111  0.35555556  0.77916667  1.0
  Ni  Ni323  1  0.78611111  0.68888889  0.77916667  1.0
  Ni  Ni324  1  0.25000000  0.29166667  0.68750000  1.0
  Ni  Ni325  1  0.25000000  0.62500000  0.68750000  1.0
  Ni  Ni326  1  0.25000000  0.95833333  0.68750000  1.0
  Ni  Ni327  1  0.58333333  0.29166667  0.68750000  1.0
  Ni  Ni328  1  0.58333333  0.62500000  0.68750000  1.0
  Ni  Ni329  1  0.58333333  0.95833333  0.68750000  1.0
  Ni  Ni330  1  0.91666667  0.29166667  0.68750000  1.0
  Ni  Ni331  1  0.91666667  0.62500000  0.68750000  1.0
  Ni  Ni332  1  0.91666667  0.95833333  0.68750000  1.0
  Ni  Ni333  1  0.17222222  0.10277778  0.72083333  1.0
  Ni  Ni334  1  0.17222222  0.43611111  0.72083333  1.0
  Ni  Ni335  1  0.17222222  0.76944444  0.72083333  1.0
  Ni  Ni336  1  0.50555556  0.10277778  0.72083333  1.0
  Ni  Ni337  1  0.50555556  0.43611111  0.72083333  1.0
  Ni  Ni338  1  0.50555556  0.76944444  0.72083333  1.0
  Ni  Ni339  1  0.83888889  0.10277778  0.72083333  1.0
  Ni  Ni340  1  0.83888889  0.43611111  0.72083333  1.0
  Ni  Ni341  1  0.83888889  0.76944444  0.72083333  1.0
  Ni  Ni342  1  0.06944444  0.13888889  0.72916667  1.0
  Ni  Ni343  1  0.06944444  0.47222222  0.72916667  1.0
  Ni  Ni344  1  0.06944444  0.80555556  0.72916667  1.0
  Ni  Ni345  1  0.40277778  0.13888889  0.72916667  1.0
  Ni  Ni346  1  0.40277778  0.47222222  0.72916667  1.0
  Ni  Ni347  1  0.40277778  0.80555556  0.72916667  1.0
  Ni  Ni348  1  0.73611111  0.13888889  0.72916667  1.0
  Ni  Ni349  1  0.73611111  0.47222222  0.72916667  1.0
  Ni  Ni350  1  0.73611111  0.80555556  0.72916667  1.0
  Ni  Ni351  1  0.14722222  0.32777778  0.69583333  1.0
  Ni  Ni352  1  0.14722222  0.66111111  0.69583333  1.0
  Ni  Ni353  1  0.14722222  0.99444444  0.69583333  1.0
  Ni  Ni354  1  0.48055556  0.32777778  0.69583333  1.0
  Ni  Ni355  1  0.48055556  0.66111111  0.69583333  1.0
  Ni  Ni356  1  0.48055556  0.99444444  0.69583333  1.0
  Ni  Ni357  1  0.81388889  0.32777778  0.69583333  1.0
  Ni  Ni358  1  0.81388889  0.66111111  0.69583333  1.0
  Ni  Ni359  1  0.81388889  0.99444444  0.69583333  1.0
  Ni  Ni360  1  0.01944444  0.25555556  0.67916667  1.0
  Ni  Ni361  1  0.01944444  0.58888889  0.67916667  1.0
  Ni  Ni362  1  0.01944444  0.92222222  0.67916667  1.0
  Ni  Ni363  1  0.35277778  0.25555556  0.67916667  1.0
  Ni  Ni364  1  0.35277778  0.58888889  0.67916667  1.0
  Ni  Ni365  1  0.35277778  0.92222222  0.67916667  1.0
  Ni  Ni366  1  0.68611111  0.25555556  0.67916667  1.0
  Ni  Ni367  1  0.68611111  0.58888889  0.67916667  1.0
  Ni  Ni368  1  0.68611111  0.92222222  0.67916667  1.0
  Ni  Ni369  1  0.27500000  0.06666667  0.71250000  1.0
  Ni  Ni370  1  0.27500000  0.40000000  0.71250000  1.0
  Ni  Ni371  1  0.27500000  0.73333333  0.71250000  1.0
  Ni  Ni372  1  0.60833333  0.06666667  0.71250000  1.0
  Ni  Ni373  1  0.60833333  0.40000000  0.71250000  1.0
  Ni  Ni374  1  0.60833333  0.73333333  0.71250000  1.0
  Ni  Ni375  1  0.94166667  0.06666667  0.71250000  1.0
  Ni  Ni376  1  0.94166667  0.40000000  0.71250000  1.0
  Ni  Ni377  1  0.94166667  0.73333333  0.71250000  1.0
  Ni  Ni378  1  0.07222222  0.00277778  0.62083333  1.0
  Ni  Ni379  1  0.07222222  0.33611111  0.62083333  1.0
  Ni  Ni380  1  0.07222222  0.66944444  0.62083333  1.0
  Ni  Ni381  1  0.40555556  0.00277778  0.62083333  1.0
  Ni  Ni382  1  0.40555556  0.33611111  0.62083333  1.0
  Ni  Ni383  1  0.40555556  0.66944444  0.62083333  1.0
  Ni  Ni384  1  0.73888889  0.00277778  0.62083333  1.0
  Ni  Ni385  1  0.73888889  0.33611111  0.62083333  1.0
  Ni  Ni386  1  0.73888889  0.66944444  0.62083333  1.0
  Ni  Ni387  1  0.32777778  0.14722222  0.65416667  1.0
  Ni  Ni388  1  0.32777778  0.48055556  0.65416667  1.0
  Ni  Ni389  1  0.32777778  0.81388889  0.65416667  1.0
  Ni  Ni390  1  0.66111111  0.14722222  0.65416667  1.0
  Ni  Ni391  1  0.66111111  0.48055556  0.65416667  1.0
  Ni  Ni392  1  0.66111111  0.81388889  0.65416667  1.0
  Ni  Ni393  1  0.99444444  0.14722222  0.65416667  1.0
  Ni  Ni394  1  0.99444444  0.48055556  0.65416667  1.0
  Ni  Ni395  1  0.99444444  0.81388889  0.65416667  1.0
  Ni  Ni396  1  0.22500000  0.18333333  0.66250000  1.0
  Ni  Ni397  1  0.22500000  0.51666667  0.66250000  1.0
  Ni  Ni398  1  0.22500000  0.85000000  0.66250000  1.0
  Ni  Ni399  1  0.55833333  0.18333333  0.66250000  1.0
  Ni  Ni400  1  0.55833333  0.51666667  0.66250000  1.0
  Ni  Ni401  1  0.55833333  0.85000000  0.66250000  1.0
  Ni  Ni402  1  0.89166667  0.18333333  0.66250000  1.0
  Ni  Ni403  1  0.89166667  0.51666667  0.66250000  1.0
  Ni  Ni404  1  0.89166667  0.85000000  0.66250000  1.0
  Ni  Ni405  1  0.30277778  0.03888889  0.62916667  1.0
  Ni  Ni406  1  0.30277778  0.37222222  0.62916667  1.0
  Ni  Ni407  1  0.30277778  0.70555556  0.62916667  1.0
  Ni  Ni408  1  0.63611111  0.03888889  0.62916667  1.0
  Ni  Ni409  1  0.63611111  0.37222222  0.62916667  1.0
  Ni  Ni410  1  0.63611111  0.70555556  0.62916667  1.0
  Ni  Ni411  1  0.96944444  0.03888889  0.62916667  1.0
  Ni  Ni412  1  0.96944444  0.37222222  0.62916667  1.0
  Ni  Ni413  1  0.96944444  0.70555556  0.62916667  1.0
  Ni  Ni414  1  0.17500000  0.30000000  0.61250000  1.0
  Ni  Ni415  1  0.17500000  0.63333333  0.61250000  1.0
  Ni  Ni416  1  0.17500000  0.96666667  0.61250000  1.0
  Ni  Ni417  1  0.50833333  0.30000000  0.61250000  1.0
  Ni  Ni418  1  0.50833333  0.63333333  0.61250000  1.0
  Ni  Ni419  1  0.50833333  0.96666667  0.61250000  1.0
  Ni  Ni420  1  0.84166667  0.30000000  0.61250000  1.0
  Ni  Ni421  1  0.84166667  0.63333333  0.61250000  1.0
  Ni  Ni422  1  0.84166667  0.96666667  0.61250000  1.0
  Ni  Ni423  1  0.09722222  0.11111111  0.64583333  1.0
  Ni  Ni424  1  0.09722222  0.44444444  0.64583333  1.0
  Ni  Ni425  1  0.09722222  0.77777778  0.64583333  1.0
  Ni  Ni426  1  0.43055556  0.11111111  0.64583333  1.0
  Ni  Ni427  1  0.43055556  0.44444444  0.64583333  1.0
  Ni  Ni428  1  0.43055556  0.77777778  0.64583333  1.0
  Ni  Ni429  1  0.76388889  0.11111111  0.64583333  1.0
  Ni  Ni430  1  0.76388889  0.44444444  0.64583333  1.0
  Ni  Ni431  1  0.76388889  0.77777778  0.64583333  1.0
