# generated using pymatgen
data_NbNi2
_symmetry_space_group_name_H-M   'P 1'
_cell_length_a   14.38705812
_cell_length_b   14.38705812
_cell_length_c   31.33270800
_cell_angle_alpha   90.00000000
_cell_angle_beta   90.00000000
_cell_angle_gamma   120.00000000
_symmetry_Int_Tables_number   1
_chemical_formula_structural   NbNi2
_chemical_formula_sum   'Nb72 Ni144'
_cell_volume   5616.58788913
_cell_formula_units_Z   72
loop_
 _symmetry_equiv_pos_site_id
 _symmetry_equiv_pos_as_xyz
  1  'x, y, z'
loop_
 _atom_site_type_symbol
 _atom_site_label
 _atom_site_symmetry_multiplicity
 _atom_site_fract_x
 _atom_site_fract_y
 _atom_site_fract_z
 _atom_site_occupancy
  Nb  Nb0  1  0.00000000  0.00000000  0.42685400  1.0
  Nb  Nb1  1  0.00000000  0.33333333  0.42685400  1.0
  Nb  Nb2  1  0.00000000  0.66666667  0.42685400  1.0
  Nb  Nb3  1  0.33333333  0.00000000  0.42685400  1.0
  Nb  Nb4  1  0.33333333  0.33333333  0.42685400  1.0
  Nb  Nb5  1  0.33333333  0.66666667  0.42685400  1.0
  Nb  Nb6  1  0.66666667  0.00000000  0.42685400  1.0
  Nb  Nb7  1  0.66666667  0.33333333  0.42685400  1.0
  Nb  Nb8  1  0.66666667  0.66666667  0.42685400  1.0
  Nb  Nb9  1  0.00000000  0.00000000  0.02438200  1.0
  Nb  Nb10  1  0.00000000  0.33333333  0.02438200  1.0
  Nb  Nb11  1  0.00000000  0.66666667  0.02438200  1.0
  Nb  Nb12  1  0.33333333  0.00000000  0.02438200  1.0
  Nb  Nb13  1  0.33333333  0.33333333  0.02438200  1.0
  Nb  Nb14  1  0.33333333  0.66666667  0.02438200  1.0
  Nb  Nb15  1  0.66666667  0.00000000  0.02438200  1.0
  Nb  Nb16  1  0.66666667  0.33333333  0.02438200  1.0
  Nb  Nb17  1  0.66666667  0.66666667  0.02438200  1.0
  Nb  Nb18  1  0.00000000  0.00000000  0.17685400  1.0
  Nb  Nb19  1  0.00000000  0.33333333  0.17685400  1.0
  Nb  Nb20  1  0.00000000  0.66666667  0.17685400  1.0
  Nb  Nb21  1  0.33333333  0.00000000  0.17685400  1.0
  Nb  Nb22  1  0.33333333  0.33333333  0.17685400  1.0
  Nb  Nb23  1  0.33333333  0.66666667  0.17685400  1.0
  Nb  Nb24  1  0.66666667  0.00000000  0.17685400  1.0
  Nb  Nb25  1  0.66666667  0.33333333  0.17685400  1.0
  Nb  Nb26  1  0.66666667  0.66666667  0.17685400  1.0
  Nb  Nb27  1  0.00000000  0.00000000  0.27438200  1.0
  Nb  Nb28  1  0.00000000  0.33333333  0.27438200  1.0
  Nb  Nb29  1  0.00000000  0.66666667  0.27438200  1.0
  Nb  Nb30  1  0.33333333  0.00000000  0.27438200  1.0
  Nb  Nb31  1  0.33333333  0.33333333  0.27438200  1.0
  Nb  Nb32  1  0.33333333  0.66666667  0.27438200  1.0
  Nb  Nb33  1  0.66666667  0.00000000  0.27438200  1.0
  Nb  Nb34  1  0.66666667  0.33333333  0.27438200  1.0
  Nb  Nb35  1  0.66666667  0.66666667  0.27438200  1.0
  Nb  Nb36  1  0.22222222  0.11111111  0.05265250  1.0
  Nb  Nb37  1  0.22222222  0.44444444  0.05265250  1.0
  Nb  Nb38  1  0.22222222  0.77777778  0.05265250  1.0
  Nb  Nb39  1  0.55555556  0.11111111  0.05265250  1.0
  Nb  Nb40  1  0.55555556  0.44444444  0.05265250  1.0
  Nb  Nb41  1  0.55555556  0.77777778  0.05265250  1.0
  Nb  Nb42  1  0.88888889  0.11111111  0.05265250  1.0
  Nb  Nb43  1  0.88888889  0.44444444  0.05265250  1.0
  Nb  Nb44  1  0.88888889  0.77777778  0.05265250  1.0
  Nb  Nb45  1  0.11111111  0.22222222  0.39858350  1.0
  Nb  Nb46  1  0.11111111  0.55555556  0.39858350  1.0
  Nb  Nb47  1  0.11111111  0.88888889  0.39858350  1.0
  Nb  Nb48  1  0.44444444  0.22222222  0.39858350  1.0
  Nb  Nb49  1  0.44444444  0.55555556  0.39858350  1.0
  Nb  Nb50  1  0.44444444  0.88888889  0.39858350  1.0
  Nb  Nb51  1  0.77777778  0.22222222  0.39858350  1.0
  Nb  Nb52  1  0.77777778  0.55555556  0.39858350  1.0
  Nb  Nb53  1  0.77777778  0.88888889  0.39858350  1.0
  Nb  Nb54  1  0.11111111  0.22222222  0.30265250  1.0
  Nb  Nb55  1  0.11111111  0.55555556  0.30265250  1.0
  Nb  Nb56  1  0.11111111  0.88888889  0.30265250  1.0
  Nb  Nb57  1  0.44444444  0.22222222  0.30265250  1.0
  Nb  Nb58  1  0.44444444  0.55555556  0.30265250  1.0
  Nb  Nb59  1  0.44444444  0.88888889  0.30265250  1.0
  Nb  Nb60  1  0.77777778  0.22222222  0.30265250  1.0
  Nb  Nb61  1  0.77777778  0.55555556  0.30265250  1.0
  Nb  Nb62  1  0.77777778  0.88888889  0.30265250  1.0
  Nb  Nb63  1  0.22222222  0.11111111  0.14858350  1.0
  Nb  Nb64  1  0.22222222  0.44444444  0.14858350  1.0
  Nb  Nb65  1  0.22222222  0.77777778  0.14858350  1.0
  Nb  Nb66  1  0.55555556  0.11111111  0.14858350  1.0
  Nb  Nb67  1  0.55555556  0.44444444  0.14858350  1.0
  Nb  Nb68  1  0.55555556  0.77777778  0.14858350  1.0
  Nb  Nb69  1  0.88888889  0.11111111  0.14858350  1.0
  Nb  Nb70  1  0.88888889  0.44444444  0.14858350  1.0
  Nb  Nb71  1  0.88888889  0.77777778  0.14858350  1.0
  Ni  Ni72  1  0.22222222  0.11111111  0.41357150  1.0
  Ni  Ni73  1  0.22222222  0.44444444  0.41357150  1.0
  Ni  Ni74  1  0.22222222  0.77777778  0.41357150  1.0
  Ni  Ni75  1  0.55555556  0.11111111  0.41357150  1.0
  Ni  Ni76  1  0.55555556  0.44444444  0.41357150  1.0
  Ni  Ni77  1  0.55555556  0.77777778  0.41357150  1.0
  Ni  Ni78  1  0.88888889  0.11111111  0.41357150  1.0
  Ni  Ni79  1  0.88888889  0.44444444  0.41357150  1.0
  Ni  Ni80  1  0.88888889  0.77777778  0.41357150  1.0
  Ni  Ni81  1  0.11111111  0.22222222  0.03766450  1.0
  Ni  Ni82  1  0.11111111  0.55555556  0.03766450  1.0
  Ni  Ni83  1  0.11111111  0.88888889  0.03766450  1.0
  Ni  Ni84  1  0.44444444  0.22222222  0.03766450  1.0
  Ni  Ni85  1  0.44444444  0.55555556  0.03766450  1.0
  Ni  Ni86  1  0.44444444  0.88888889  0.03766450  1.0
  Ni  Ni87  1  0.77777778  0.22222222  0.03766450  1.0
  Ni  Ni88  1  0.77777778  0.55555556  0.03766450  1.0
  Ni  Ni89  1  0.77777778  0.88888889  0.03766450  1.0
  Ni  Ni90  1  0.11111111  0.22222222  0.16357150  1.0
  Ni  Ni91  1  0.11111111  0.55555556  0.16357150  1.0
  Ni  Ni92  1  0.11111111  0.88888889  0.16357150  1.0
  Ni  Ni93  1  0.44444444  0.22222222  0.16357150  1.0
  Ni  Ni94  1  0.44444444  0.55555556  0.16357150  1.0
  Ni  Ni95  1  0.44444444  0.88888889  0.16357150  1.0
  Ni  Ni96  1  0.77777778  0.22222222  0.16357150  1.0
  Ni  Ni97  1  0.77777778  0.55555556  0.16357150  1.0
  Ni  Ni98  1  0.77777778  0.88888889  0.16357150  1.0
  Ni  Ni99  1  0.22222222  0.11111111  0.28766450  1.0
  Ni  Ni100  1  0.22222222  0.44444444  0.28766450  1.0
  Ni  Ni101  1  0.22222222  0.77777778  0.28766450  1.0
  Ni  Ni102  1  0.55555556  0.11111111  0.28766450  1.0
  Ni  Ni103  1  0.55555556  0.44444444  0.28766450  1.0
  Ni  Ni104  1  0.55555556  0.77777778  0.28766450  1.0
  Ni  Ni105  1  0.88888889  0.11111111  0.28766450  1.0
  Ni  Ni106  1  0.88888889  0.44444444  0.28766450  1.0
  Ni  Ni107  1  0.88888889  0.77777778  0.28766450  1.0
  Ni  Ni108  1  0.16666667  0.00000000  0.47561800  1.0
  Ni  Ni109  1  0.16666667  0.33333333  0.47561800  1.0
  Ni  Ni110  1  0.16666667  0.66666667  0.47561800  1.0
  Ni  Ni111  1  0.50000000  0.00000000  0.47561800  1.0
  Ni  Ni112  1  0.50000000  0.33333333  0.47561800  1.0
  Ni  Ni113  1  0.50000000  0.66666667  0.47561800  1.0
  Ni  Ni114  1  0.83333333  0.00000000  0.47561800  1.0
  Ni  Ni115  1  0.83333333  0.33333333  0.47561800  1.0
  Ni  Ni116  1  0.83333333  0.66666667  0.47561800  1.0
  Ni  Ni117  1  0.00000000  0.16666667  0.47561800  1.0
  Ni  Ni118  1  0.00000000  0.50000000  0.47561800  1.0
  Ni  Ni119  1  0.00000000  0.83333333  0.47561800  1.0
  Ni  Ni120  1  0.33333333  0.16666667  0.47561800  1.0
  Ni  Ni121  1  0.33333333  0.50000000  0.47561800  1.0
  Ni  Ni122  1  0.33333333  0.83333333  0.47561800  1.0
  Ni  Ni123  1  0.66666667  0.16666667  0.47561800  1.0
  Ni  Ni124  1  0.66666667  0.50000000  0.47561800  1.0
  Ni  Ni125  1  0.66666667  0.83333333  0.47561800  1.0
  Ni  Ni126  1  0.16666667  0.16666667  0.47561800  1.0
  Ni  Ni127  1  0.16666667  0.50000000  0.47561800  1.0
  Ni  Ni128  1  0.16666667  0.83333333  0.47561800  1.0
  Ni  Ni129  1  0.50000000  0.16666667  0.47561800  1.0
  Ni  Ni130  1  0.50000000  0.50000000  0.47561800  1.0
  Ni  Ni131  1  0.50000000  0.83333333  0.47561800  1.0
  Ni  Ni132  1  0.83333333  0.16666667  0.47561800  1.0
  Ni  Ni133  1  0.83333333  0.50000000  0.47561800  1.0
  Ni  Ni134  1  0.83333333  0.83333333  0.47561800  1.0
  Ni  Ni135  1  0.16666667  0.00000000  0.22561800  1.0
  Ni  Ni136  1  0.16666667  0.33333333  0.22561800  1.0
  Ni  Ni137  1  0.16666667  0.66666667  0.22561800  1.0
  Ni  Ni138  1  0.50000000  0.00000000  0.22561800  1.0
  Ni  Ni139  1  0.50000000  0.33333333  0.22561800  1.0
  Ni  Ni140  1  0.50000000  0.66666667  0.22561800  1.0
  Ni  Ni141  1  0.83333333  0.00000000  0.22561800  1.0
  Ni  Ni142  1  0.83333333  0.33333333  0.22561800  1.0
  Ni  Ni143  1  0.83333333  0.66666667  0.22561800  1.0
  Ni  Ni144  1  0.00000000  0.16666667  0.22561800  1.0
  Ni  Ni145  1  0.00000000  0.50000000  0.22561800  1.0
  Ni  Ni146  1  0.00000000  0.83333333  0.22561800  1.0
  Ni  Ni147  1  0.33333333  0.16666667  0.22561800  1.0
  Ni  Ni148  1  0.33333333  0.50000000  0.22561800  1.0
  Ni  Ni149  1  0.33333333  0.83333333  0.22561800  1.0
  Ni  Ni150  1  0.66666667  0.16666667  0.22561800  1.0
  Ni  Ni151  1  0.66666667  0.50000000  0.22561800  1.0
  Ni  Ni152  1  0.66666667  0.83333333  0.22561800  1.0
  Ni  Ni153  1  0.16666667  0.16666667  0.22561800  1.0
  Ni  Ni154  1  0.16666667  0.50000000  0.22561800  1.0
  Ni  Ni155  1  0.16666667  0.83333333  0.22561800  1.0
  Ni  Ni156  1  0.50000000  0.16666667  0.22561800  1.0
  Ni  Ni157  1  0.50000000  0.50000000  0.22561800  1.0
  Ni  Ni158  1  0.50000000  0.83333333  0.22561800  1.0
  Ni  Ni159  1  0.83333333  0.16666667  0.22561800  1.0
  Ni  Ni160  1  0.83333333  0.50000000  0.22561800  1.0
  Ni  Ni161  1  0.83333333  0.83333333  0.22561800  1.0
  Ni  Ni162  1  0.27852933  0.22372533  0.35061800  1.0
  Ni  Ni163  1  0.27852933  0.55705867  0.35061800  1.0
  Ni  Ni164  1  0.27852933  0.89039200  0.35061800  1.0
  Ni  Ni165  1  0.61186267  0.22372533  0.35061800  1.0
  Ni  Ni166  1  0.61186267  0.55705867  0.35061800  1.0
  Ni  Ni167  1  0.61186267  0.89039200  0.35061800  1.0
  Ni  Ni168  1  0.94519600  0.22372533  0.35061800  1.0
  Ni  Ni169  1  0.94519600  0.55705867  0.35061800  1.0
  Ni  Ni170  1  0.94519600  0.89039200  0.35061800  1.0
  Ni  Ni171  1  0.10960800  0.05480400  0.35061800  1.0
  Ni  Ni172  1  0.10960800  0.38813733  0.35061800  1.0
  Ni  Ni173  1  0.10960800  0.72147067  0.35061800  1.0
  Ni  Ni174  1  0.44294133  0.05480400  0.35061800  1.0
  Ni  Ni175  1  0.44294133  0.38813733  0.35061800  1.0
  Ni  Ni176  1  0.44294133  0.72147067  0.35061800  1.0
  Ni  Ni177  1  0.77627467  0.05480400  0.35061800  1.0
  Ni  Ni178  1  0.77627467  0.38813733  0.35061800  1.0
  Ni  Ni179  1  0.77627467  0.72147067  0.35061800  1.0
  Ni  Ni180  1  0.27852933  0.05480400  0.35061800  1.0
  Ni  Ni181  1  0.27852933  0.38813733  0.35061800  1.0
  Ni  Ni182  1  0.27852933  0.72147067  0.35061800  1.0
  Ni  Ni183  1  0.61186267  0.05480400  0.35061800  1.0
  Ni  Ni184  1  0.61186267  0.38813733  0.35061800  1.0
  Ni  Ni185  1  0.61186267  0.72147067  0.35061800  1.0
  Ni  Ni186  1  0.94519600  0.05480400  0.35061800  1.0
  Ni  Ni187  1  0.94519600  0.38813733  0.35061800  1.0
  Ni  Ni188  1  0.94519600  0.72147067  0.35061800  1.0
  Ni  Ni189  1  0.05480400  0.10960800  0.10061800  1.0
  Ni  Ni190  1  0.05480400  0.44294133  0.10061800  1.0
  Ni  Ni191  1  0.05480400  0.77627467  0.10061800  1.0
  Ni  Ni192  1  0.38813733  0.10960800  0.10061800  1.0
  Ni  Ni193  1  0.38813733  0.44294133  0.10061800  1.0
  Ni  Ni194  1  0.38813733  0.77627467  0.10061800  1.0
  Ni  Ni195  1  0.72147067  0.10960800  0.10061800  1.0
  Ni  Ni196  1  0.72147067  0.44294133  0.10061800  1.0
  Ni  Ni197  1  0.72147067  0.77627467  0.10061800  1.0
  Ni  Ni198  1  0.22372533  0.27852933  0.10061800  1.0
  Ni  Ni199  1  0.22372533  0.61186267  0.10061800  1.0
  Ni  Ni200  1  0.22372533  0.94519600  0.10061800  1.0
  Ni  Ni201  1  0.55705867  0.27852933  0.10061800  1.0
  Ni  Ni202  1  0.55705867  0.61186267  0.10061800  1.0
  Ni  Ni203  1  0.55705867  0.94519600  0.10061800  1.0
  Ni  Ni204  1  0.89039200  0.27852933  0.10061800  1.0
  Ni  Ni205  1  0.89039200  0.61186267  0.10061800  1.0
  Ni  Ni206  1  0.89039200  0.94519600  0.10061800  1.0
  Ni  Ni207  1  0.05480400  0.27852933  0.10061800  1.0
  Ni  Ni208  1  0.05480400  0.61186267  0.10061800  1.0
  Ni  Ni209  1  0.05480400  0.94519600  0.10061800  1.0
  Ni  Ni210  1  0.38813733  0.27852933  0.10061800  1.0
  Ni  Ni211  1  0.38813733  0.61186267  0.10061800  1.0
  Ni  Ni212  1  0.38813733  0.94519600  0.10061800  1.0
  Ni  Ni213  1  0.72147067  0.27852933  0.10061800  1.0
  Ni  Ni214  1  0.72147067  0.61186267  0.10061800  1.0
  Ni  Ni215  1  0.72147067  0.94519600  0.10061800  1.0
