# generated using pymatgen
data_NbNi3
_symmetry_space_group_name_H-M   'P 1'
_cell_length_a   18.77214619
_cell_length_b   29.80599244
_cell_length_c   35.78345400
_cell_angle_alpha   59.03465314
_cell_angle_beta   90.00000000
_cell_angle_gamma   54.28722203
_symmetry_Int_Tables_number   1
_chemical_formula_structural   NbNi3
_chemical_formula_sum   'Nb108 Ni324'
_cell_volume   12576.04652113
_cell_formula_units_Z   108
loop_
 _symmetry_equiv_pos_site_id
 _symmetry_equiv_pos_as_xyz
  1  'x, y, z'
loop_
 _atom_site_type_symbol
 _atom_site_label
 _atom_site_symmetry_multiplicity
 _atom_site_fract_x
 _atom_site_fract_y
 _atom_site_fract_z
 _atom_site_occupancy
  Nb  Nb0  1  0.11655733  0.02505467  0.04283371  1.0
  Nb  Nb1  1  0.11655733  0.35838800  0.04283371  1.0
  Nb  Nb2  1  0.11655733  0.69172133  0.04283371  1.0
  Nb  Nb3  1  0.44989067  0.02505467  0.04283371  1.0
  Nb  Nb4  1  0.44989067  0.35838800  0.04283371  1.0
  Nb  Nb5  1  0.44989067  0.69172133  0.04283371  1.0
  Nb  Nb6  1  0.78322400  0.02505467  0.04283371  1.0
  Nb  Nb7  1  0.78322400  0.35838800  0.04283371  1.0
  Nb  Nb8  1  0.78322400  0.69172133  0.04283371  1.0
  Nb  Nb9  1  0.11655733  0.19172133  0.11426229  1.0
  Nb  Nb10  1  0.11655733  0.52505467  0.11426229  1.0
  Nb  Nb11  1  0.11655733  0.85838800  0.11426229  1.0
  Nb  Nb12  1  0.44989067  0.19172133  0.11426229  1.0
  Nb  Nb13  1  0.44989067  0.52505467  0.11426229  1.0
  Nb  Nb14  1  0.44989067  0.85838800  0.11426229  1.0
  Nb  Nb15  1  0.78322400  0.19172133  0.11426229  1.0
  Nb  Nb16  1  0.78322400  0.52505467  0.11426229  1.0
  Nb  Nb17  1  0.78322400  0.85838800  0.11426229  1.0
  Nb  Nb18  1  0.21677600  0.05827867  0.10002343  1.0
  Nb  Nb19  1  0.21677600  0.39161200  0.10002343  1.0
  Nb  Nb20  1  0.21677600  0.72494533  0.10002343  1.0
  Nb  Nb21  1  0.55010933  0.05827867  0.10002343  1.0
  Nb  Nb22  1  0.55010933  0.39161200  0.10002343  1.0
  Nb  Nb23  1  0.55010933  0.72494533  0.10002343  1.0
  Nb  Nb24  1  0.88344267  0.05827867  0.10002343  1.0
  Nb  Nb25  1  0.88344267  0.39161200  0.10002343  1.0
  Nb  Nb26  1  0.88344267  0.72494533  0.10002343  1.0
  Nb  Nb27  1  0.21677600  0.22494533  0.02859486  1.0
  Nb  Nb28  1  0.21677600  0.55827867  0.02859486  1.0
  Nb  Nb29  1  0.21677600  0.89161200  0.02859486  1.0
  Nb  Nb30  1  0.55010933  0.22494533  0.02859486  1.0
  Nb  Nb31  1  0.55010933  0.55827867  0.02859486  1.0
  Nb  Nb32  1  0.55010933  0.89161200  0.02859486  1.0
  Nb  Nb33  1  0.88344267  0.22494533  0.02859486  1.0
  Nb  Nb34  1  0.88344267  0.55827867  0.02859486  1.0
  Nb  Nb35  1  0.88344267  0.89161200  0.02859486  1.0
  Ni  Ni36  1  0.28030367  0.27651483  0.11350907  1.0
  Ni  Ni37  1  0.28030367  0.60984817  0.11350907  1.0
  Ni  Ni38  1  0.28030367  0.94318150  0.11350907  1.0
  Ni  Ni39  1  0.61363700  0.27651483  0.11350907  1.0
  Ni  Ni40  1  0.61363700  0.60984817  0.11350907  1.0
  Ni  Ni41  1  0.61363700  0.94318150  0.11350907  1.0
  Ni  Ni42  1  0.94697033  0.27651483  0.11350907  1.0
  Ni  Ni43  1  0.94697033  0.60984817  0.11350907  1.0
  Ni  Ni44  1  0.94697033  0.94318150  0.11350907  1.0
  Ni  Ni45  1  0.28030367  0.10984817  0.04208050  1.0
  Ni  Ni46  1  0.28030367  0.44318150  0.04208050  1.0
  Ni  Ni47  1  0.28030367  0.77651483  0.04208050  1.0
  Ni  Ni48  1  0.61363700  0.10984817  0.04208050  1.0
  Ni  Ni49  1  0.61363700  0.44318150  0.04208050  1.0
  Ni  Ni50  1  0.61363700  0.77651483  0.04208050  1.0
  Ni  Ni51  1  0.94697033  0.10984817  0.04208050  1.0
  Ni  Ni52  1  0.94697033  0.44318150  0.04208050  1.0
  Ni  Ni53  1  0.94697033  0.77651483  0.04208050  1.0
  Ni  Ni54  1  0.28030367  0.27651483  0.04233536  1.0
  Ni  Ni55  1  0.28030367  0.60984817  0.04233536  1.0
  Ni  Ni56  1  0.28030367  0.94318150  0.04233536  1.0
  Ni  Ni57  1  0.61363700  0.27651483  0.04233536  1.0
  Ni  Ni58  1  0.61363700  0.60984817  0.04233536  1.0
  Ni  Ni59  1  0.61363700  0.94318150  0.04233536  1.0
  Ni  Ni60  1  0.94697033  0.27651483  0.04233536  1.0
  Ni  Ni61  1  0.94697033  0.60984817  0.04233536  1.0
  Ni  Ni62  1  0.94697033  0.94318150  0.04233536  1.0
  Ni  Ni63  1  0.28030367  0.10984817  0.11376393  1.0
  Ni  Ni64  1  0.28030367  0.44318150  0.11376393  1.0
  Ni  Ni65  1  0.28030367  0.77651483  0.11376393  1.0
  Ni  Ni66  1  0.61363700  0.10984817  0.11376393  1.0
  Ni  Ni67  1  0.61363700  0.44318150  0.11376393  1.0
  Ni  Ni68  1  0.61363700  0.77651483  0.11376393  1.0
  Ni  Ni69  1  0.94697033  0.10984817  0.11376393  1.0
  Ni  Ni70  1  0.94697033  0.44318150  0.11376393  1.0
  Ni  Ni71  1  0.94697033  0.77651483  0.11376393  1.0
  Ni  Ni72  1  0.05302967  0.14015183  0.02934807  1.0
  Ni  Ni73  1  0.05302967  0.47348517  0.02934807  1.0
  Ni  Ni74  1  0.05302967  0.80681850  0.02934807  1.0
  Ni  Ni75  1  0.38636300  0.14015183  0.02934807  1.0
  Ni  Ni76  1  0.38636300  0.47348517  0.02934807  1.0
  Ni  Ni77  1  0.38636300  0.80681850  0.02934807  1.0
  Ni  Ni78  1  0.71969633  0.14015183  0.02934807  1.0
  Ni  Ni79  1  0.71969633  0.47348517  0.02934807  1.0
  Ni  Ni80  1  0.71969633  0.80681850  0.02934807  1.0
  Ni  Ni81  1  0.05302967  0.30681850  0.10077664  1.0
  Ni  Ni82  1  0.05302967  0.64015183  0.10077664  1.0
  Ni  Ni83  1  0.05302967  0.97348517  0.10077664  1.0
  Ni  Ni84  1  0.38636300  0.30681850  0.10077664  1.0
  Ni  Ni85  1  0.38636300  0.64015183  0.10077664  1.0
  Ni  Ni86  1  0.38636300  0.97348517  0.10077664  1.0
  Ni  Ni87  1  0.71969633  0.30681850  0.10077664  1.0
  Ni  Ni88  1  0.71969633  0.64015183  0.10077664  1.0
  Ni  Ni89  1  0.71969633  0.97348517  0.10077664  1.0
  Ni  Ni90  1  0.05302967  0.14015183  0.10052179  1.0
  Ni  Ni91  1  0.05302967  0.47348517  0.10052179  1.0
  Ni  Ni92  1  0.05302967  0.80681850  0.10052179  1.0
  Ni  Ni93  1  0.38636300  0.14015183  0.10052179  1.0
  Ni  Ni94  1  0.38636300  0.47348517  0.10052179  1.0
  Ni  Ni95  1  0.38636300  0.80681850  0.10052179  1.0
  Ni  Ni96  1  0.71969633  0.14015183  0.10052179  1.0
  Ni  Ni97  1  0.71969633  0.47348517  0.10052179  1.0
  Ni  Ni98  1  0.71969633  0.80681850  0.10052179  1.0
  Ni  Ni99  1  0.05302967  0.30681850  0.02909321  1.0
  Ni  Ni100  1  0.05302967  0.64015183  0.02909321  1.0
  Ni  Ni101  1  0.05302967  0.97348517  0.02909321  1.0
  Ni  Ni102  1  0.38636300  0.30681850  0.02909321  1.0
  Ni  Ni103  1  0.38636300  0.64015183  0.02909321  1.0
  Ni  Ni104  1  0.38636300  0.97348517  0.02909321  1.0
  Ni  Ni105  1  0.71969633  0.30681850  0.02909321  1.0
  Ni  Ni106  1  0.71969633  0.64015183  0.02909321  1.0
  Ni  Ni107  1  0.71969633  0.97348517  0.02909321  1.0
  Ni  Ni108  1  0.22717533  0.05307900  0.03082329  1.0
  Ni  Ni109  1  0.22717533  0.38641233  0.03082329  1.0
  Ni  Ni110  1  0.22717533  0.71974567  0.03082329  1.0
  Ni  Ni111  1  0.56050867  0.05307900  0.03082329  1.0
  Ni  Ni112  1  0.56050867  0.38641233  0.03082329  1.0
  Ni  Ni113  1  0.56050867  0.71974567  0.03082329  1.0
  Ni  Ni114  1  0.89384200  0.05307900  0.03082329  1.0
  Ni  Ni115  1  0.89384200  0.38641233  0.03082329  1.0
  Ni  Ni116  1  0.89384200  0.71974567  0.03082329  1.0
  Ni  Ni117  1  0.22717533  0.21974567  0.10225186  1.0
  Ni  Ni118  1  0.22717533  0.55307900  0.10225186  1.0
  Ni  Ni119  1  0.22717533  0.88641233  0.10225186  1.0
  Ni  Ni120  1  0.56050867  0.21974567  0.10225186  1.0
  Ni  Ni121  1  0.56050867  0.55307900  0.10225186  1.0
  Ni  Ni122  1  0.56050867  0.88641233  0.10225186  1.0
  Ni  Ni123  1  0.89384200  0.21974567  0.10225186  1.0
  Ni  Ni124  1  0.89384200  0.55307900  0.10225186  1.0
  Ni  Ni125  1  0.89384200  0.88641233  0.10225186  1.0
  Ni  Ni126  1  0.10615800  0.03025433  0.11203386  1.0
  Ni  Ni127  1  0.10615800  0.36358767  0.11203386  1.0
  Ni  Ni128  1  0.10615800  0.69692100  0.11203386  1.0
  Ni  Ni129  1  0.43949133  0.03025433  0.11203386  1.0
  Ni  Ni130  1  0.43949133  0.36358767  0.11203386  1.0
  Ni  Ni131  1  0.43949133  0.69692100  0.11203386  1.0
  Ni  Ni132  1  0.77282467  0.03025433  0.11203386  1.0
  Ni  Ni133  1  0.77282467  0.36358767  0.11203386  1.0
  Ni  Ni134  1  0.77282467  0.69692100  0.11203386  1.0
  Ni  Ni135  1  0.10615800  0.19692100  0.04060529  1.0
  Ni  Ni136  1  0.10615800  0.53025433  0.04060529  1.0
  Ni  Ni137  1  0.10615800  0.86358767  0.04060529  1.0
  Ni  Ni138  1  0.43949133  0.19692100  0.04060529  1.0
  Ni  Ni139  1  0.43949133  0.53025433  0.04060529  1.0
  Ni  Ni140  1  0.43949133  0.86358767  0.04060529  1.0
  Ni  Ni141  1  0.77282467  0.19692100  0.04060529  1.0
  Ni  Ni142  1  0.77282467  0.53025433  0.04060529  1.0
  Ni  Ni143  1  0.77282467  0.86358767  0.04060529  1.0
  Nb  Nb144  1  0.11655733  0.02505467  0.18569086  1.0
  Nb  Nb145  1  0.11655733  0.35838800  0.18569086  1.0
  Nb  Nb146  1  0.11655733  0.69172133  0.18569086  1.0
  Nb  Nb147  1  0.44989067  0.02505467  0.18569086  1.0
  Nb  Nb148  1  0.44989067  0.35838800  0.18569086  1.0
  Nb  Nb149  1  0.44989067  0.69172133  0.18569086  1.0
  Nb  Nb150  1  0.78322400  0.02505467  0.18569086  1.0
  Nb  Nb151  1  0.78322400  0.35838800  0.18569086  1.0
  Nb  Nb152  1  0.78322400  0.69172133  0.18569086  1.0
  Nb  Nb153  1  0.11655733  0.19172133  0.25711943  1.0
  Nb  Nb154  1  0.11655733  0.52505467  0.25711943  1.0
  Nb  Nb155  1  0.11655733  0.85838800  0.25711943  1.0
  Nb  Nb156  1  0.44989067  0.19172133  0.25711943  1.0
  Nb  Nb157  1  0.44989067  0.52505467  0.25711943  1.0
  Nb  Nb158  1  0.44989067  0.85838800  0.25711943  1.0
  Nb  Nb159  1  0.78322400  0.19172133  0.25711943  1.0
  Nb  Nb160  1  0.78322400  0.52505467  0.25711943  1.0
  Nb  Nb161  1  0.78322400  0.85838800  0.25711943  1.0
  Nb  Nb162  1  0.21677600  0.05827867  0.24288057  1.0
  Nb  Nb163  1  0.21677600  0.39161200  0.24288057  1.0
  Nb  Nb164  1  0.21677600  0.72494533  0.24288057  1.0
  Nb  Nb165  1  0.55010933  0.05827867  0.24288057  1.0
  Nb  Nb166  1  0.55010933  0.39161200  0.24288057  1.0
  Nb  Nb167  1  0.55010933  0.72494533  0.24288057  1.0
  Nb  Nb168  1  0.88344267  0.05827867  0.24288057  1.0
  Nb  Nb169  1  0.88344267  0.39161200  0.24288057  1.0
  Nb  Nb170  1  0.88344267  0.72494533  0.24288057  1.0
  Nb  Nb171  1  0.21677600  0.22494533  0.17145200  1.0
  Nb  Nb172  1  0.21677600  0.55827867  0.17145200  1.0
  Nb  Nb173  1  0.21677600  0.89161200  0.17145200  1.0
  Nb  Nb174  1  0.55010933  0.22494533  0.17145200  1.0
  Nb  Nb175  1  0.55010933  0.55827867  0.17145200  1.0
  Nb  Nb176  1  0.55010933  0.89161200  0.17145200  1.0
  Nb  Nb177  1  0.88344267  0.22494533  0.17145200  1.0
  Nb  Nb178  1  0.88344267  0.55827867  0.17145200  1.0
  Nb  Nb179  1  0.88344267  0.89161200  0.17145200  1.0
  Ni  Ni180  1  0.28030367  0.27651483  0.25636621  1.0
  Ni  Ni181  1  0.28030367  0.60984817  0.25636621  1.0
  Ni  Ni182  1  0.28030367  0.94318150  0.25636621  1.0
  Ni  Ni183  1  0.61363700  0.27651483  0.25636621  1.0
  Ni  Ni184  1  0.61363700  0.60984817  0.25636621  1.0
  Ni  Ni185  1  0.61363700  0.94318150  0.25636621  1.0
  Ni  Ni186  1  0.94697033  0.27651483  0.25636621  1.0
  Ni  Ni187  1  0.94697033  0.60984817  0.25636621  1.0
  Ni  Ni188  1  0.94697033  0.94318150  0.25636621  1.0
  Ni  Ni189  1  0.28030367  0.10984817  0.18493764  1.0
  Ni  Ni190  1  0.28030367  0.44318150  0.18493764  1.0
  Ni  Ni191  1  0.28030367  0.77651483  0.18493764  1.0
  Ni  Ni192  1  0.61363700  0.10984817  0.18493764  1.0
  Ni  Ni193  1  0.61363700  0.44318150  0.18493764  1.0
  Ni  Ni194  1  0.61363700  0.77651483  0.18493764  1.0
  Ni  Ni195  1  0.94697033  0.10984817  0.18493764  1.0
  Ni  Ni196  1  0.94697033  0.44318150  0.18493764  1.0
  Ni  Ni197  1  0.94697033  0.77651483  0.18493764  1.0
  Ni  Ni198  1  0.28030367  0.27651483  0.18519250  1.0
  Ni  Ni199  1  0.28030367  0.60984817  0.18519250  1.0
  Ni  Ni200  1  0.28030367  0.94318150  0.18519250  1.0
  Ni  Ni201  1  0.61363700  0.27651483  0.18519250  1.0
  Ni  Ni202  1  0.61363700  0.60984817  0.18519250  1.0
  Ni  Ni203  1  0.61363700  0.94318150  0.18519250  1.0
  Ni  Ni204  1  0.94697033  0.27651483  0.18519250  1.0
  Ni  Ni205  1  0.94697033  0.60984817  0.18519250  1.0
  Ni  Ni206  1  0.94697033  0.94318150  0.18519250  1.0
  Ni  Ni207  1  0.28030367  0.10984817  0.25662107  1.0
  Ni  Ni208  1  0.28030367  0.44318150  0.25662107  1.0
  Ni  Ni209  1  0.28030367  0.77651483  0.25662107  1.0
  Ni  Ni210  1  0.61363700  0.10984817  0.25662107  1.0
  Ni  Ni211  1  0.61363700  0.44318150  0.25662107  1.0
  Ni  Ni212  1  0.61363700  0.77651483  0.25662107  1.0
  Ni  Ni213  1  0.94697033  0.10984817  0.25662107  1.0
  Ni  Ni214  1  0.94697033  0.44318150  0.25662107  1.0
  Ni  Ni215  1  0.94697033  0.77651483  0.25662107  1.0
  Ni  Ni216  1  0.05302967  0.14015183  0.17220521  1.0
  Ni  Ni217  1  0.05302967  0.47348517  0.17220521  1.0
  Ni  Ni218  1  0.05302967  0.80681850  0.17220521  1.0
  Ni  Ni219  1  0.38636300  0.14015183  0.17220521  1.0
  Ni  Ni220  1  0.38636300  0.47348517  0.17220521  1.0
  Ni  Ni221  1  0.38636300  0.80681850  0.17220521  1.0
  Ni  Ni222  1  0.71969633  0.14015183  0.17220521  1.0
  Ni  Ni223  1  0.71969633  0.47348517  0.17220521  1.0
  Ni  Ni224  1  0.71969633  0.80681850  0.17220521  1.0
  Ni  Ni225  1  0.05302967  0.30681850  0.24363379  1.0
  Ni  Ni226  1  0.05302967  0.64015183  0.24363379  1.0
  Ni  Ni227  1  0.05302967  0.97348517  0.24363379  1.0
  Ni  Ni228  1  0.38636300  0.30681850  0.24363379  1.0
  Ni  Ni229  1  0.38636300  0.64015183  0.24363379  1.0
  Ni  Ni230  1  0.38636300  0.97348517  0.24363379  1.0
  Ni  Ni231  1  0.71969633  0.30681850  0.24363379  1.0
  Ni  Ni232  1  0.71969633  0.64015183  0.24363379  1.0
  Ni  Ni233  1  0.71969633  0.97348517  0.24363379  1.0
  Ni  Ni234  1  0.05302967  0.14015183  0.24337893  1.0
  Ni  Ni235  1  0.05302967  0.47348517  0.24337893  1.0
  Ni  Ni236  1  0.05302967  0.80681850  0.24337893  1.0
  Ni  Ni237  1  0.38636300  0.14015183  0.24337893  1.0
  Ni  Ni238  1  0.38636300  0.47348517  0.24337893  1.0
  Ni  Ni239  1  0.38636300  0.80681850  0.24337893  1.0
  Ni  Ni240  1  0.71969633  0.14015183  0.24337893  1.0
  Ni  Ni241  1  0.71969633  0.47348517  0.24337893  1.0
  Ni  Ni242  1  0.71969633  0.80681850  0.24337893  1.0
  Ni  Ni243  1  0.05302967  0.30681850  0.17195036  1.0
  Ni  Ni244  1  0.05302967  0.64015183  0.17195036  1.0
  Ni  Ni245  1  0.05302967  0.97348517  0.17195036  1.0
  Ni  Ni246  1  0.38636300  0.30681850  0.17195036  1.0
  Ni  Ni247  1  0.38636300  0.64015183  0.17195036  1.0
  Ni  Ni248  1  0.38636300  0.97348517  0.17195036  1.0
  Ni  Ni249  1  0.71969633  0.30681850  0.17195036  1.0
  Ni  Ni250  1  0.71969633  0.64015183  0.17195036  1.0
  Ni  Ni251  1  0.71969633  0.97348517  0.17195036  1.0
  Ni  Ni252  1  0.22717533  0.05307900  0.17368043  1.0
  Ni  Ni253  1  0.22717533  0.38641233  0.17368043  1.0
  Ni  Ni254  1  0.22717533  0.71974567  0.17368043  1.0
  Ni  Ni255  1  0.56050867  0.05307900  0.17368043  1.0
  Ni  Ni256  1  0.56050867  0.38641233  0.17368043  1.0
  Ni  Ni257  1  0.56050867  0.71974567  0.17368043  1.0
  Ni  Ni258  1  0.89384200  0.05307900  0.17368043  1.0
  Ni  Ni259  1  0.89384200  0.38641233  0.17368043  1.0
  Ni  Ni260  1  0.89384200  0.71974567  0.17368043  1.0
  Ni  Ni261  1  0.22717533  0.21974567  0.24510900  1.0
  Ni  Ni262  1  0.22717533  0.55307900  0.24510900  1.0
  Ni  Ni263  1  0.22717533  0.88641233  0.24510900  1.0
  Ni  Ni264  1  0.56050867  0.21974567  0.24510900  1.0
  Ni  Ni265  1  0.56050867  0.55307900  0.24510900  1.0
  Ni  Ni266  1  0.56050867  0.88641233  0.24510900  1.0
  Ni  Ni267  1  0.89384200  0.21974567  0.24510900  1.0
  Ni  Ni268  1  0.89384200  0.55307900  0.24510900  1.0
  Ni  Ni269  1  0.89384200  0.88641233  0.24510900  1.0
  Ni  Ni270  1  0.10615800  0.03025433  0.25489100  1.0
  Ni  Ni271  1  0.10615800  0.36358767  0.25489100  1.0
  Ni  Ni272  1  0.10615800  0.69692100  0.25489100  1.0
  Ni  Ni273  1  0.43949133  0.03025433  0.25489100  1.0
  Ni  Ni274  1  0.43949133  0.36358767  0.25489100  1.0
  Ni  Ni275  1  0.43949133  0.69692100  0.25489100  1.0
  Ni  Ni276  1  0.77282467  0.03025433  0.25489100  1.0
  Ni  Ni277  1  0.77282467  0.36358767  0.25489100  1.0
  Ni  Ni278  1  0.77282467  0.69692100  0.25489100  1.0
  Ni  Ni279  1  0.10615800  0.19692100  0.18346243  1.0
  Ni  Ni280  1  0.10615800  0.53025433  0.18346243  1.0
  Ni  Ni281  1  0.10615800  0.86358767  0.18346243  1.0
  Ni  Ni282  1  0.43949133  0.19692100  0.18346243  1.0
  Ni  Ni283  1  0.43949133  0.53025433  0.18346243  1.0
  Ni  Ni284  1  0.43949133  0.86358767  0.18346243  1.0
  Ni  Ni285  1  0.77282467  0.19692100  0.18346243  1.0
  Ni  Ni286  1  0.77282467  0.53025433  0.18346243  1.0
  Ni  Ni287  1  0.77282467  0.86358767  0.18346243  1.0
  Nb  Nb288  1  0.11655733  0.02505467  0.32854800  1.0
  Nb  Nb289  1  0.11655733  0.35838800  0.32854800  1.0
  Nb  Nb290  1  0.11655733  0.69172133  0.32854800  1.0
  Nb  Nb291  1  0.44989067  0.02505467  0.32854800  1.0
  Nb  Nb292  1  0.44989067  0.35838800  0.32854800  1.0
  Nb  Nb293  1  0.44989067  0.69172133  0.32854800  1.0
  Nb  Nb294  1  0.78322400  0.02505467  0.32854800  1.0
  Nb  Nb295  1  0.78322400  0.35838800  0.32854800  1.0
  Nb  Nb296  1  0.78322400  0.69172133  0.32854800  1.0
  Nb  Nb297  1  0.11655733  0.19172133  0.39997657  1.0
  Nb  Nb298  1  0.11655733  0.52505467  0.39997657  1.0
  Nb  Nb299  1  0.11655733  0.85838800  0.39997657  1.0
  Nb  Nb300  1  0.44989067  0.19172133  0.39997657  1.0
  Nb  Nb301  1  0.44989067  0.52505467  0.39997657  1.0
  Nb  Nb302  1  0.44989067  0.85838800  0.39997657  1.0
  Nb  Nb303  1  0.78322400  0.19172133  0.39997657  1.0
  Nb  Nb304  1  0.78322400  0.52505467  0.39997657  1.0
  Nb  Nb305  1  0.78322400  0.85838800  0.39997657  1.0
  Nb  Nb306  1  0.21677600  0.05827867  0.38573771  1.0
  Nb  Nb307  1  0.21677600  0.39161200  0.38573771  1.0
  Nb  Nb308  1  0.21677600  0.72494533  0.38573771  1.0
  Nb  Nb309  1  0.55010933  0.05827867  0.38573771  1.0
  Nb  Nb310  1  0.55010933  0.39161200  0.38573771  1.0
  Nb  Nb311  1  0.55010933  0.72494533  0.38573771  1.0
  Nb  Nb312  1  0.88344267  0.05827867  0.38573771  1.0
  Nb  Nb313  1  0.88344267  0.39161200  0.38573771  1.0
  Nb  Nb314  1  0.88344267  0.72494533  0.38573771  1.0
  Nb  Nb315  1  0.21677600  0.22494533  0.31430914  1.0
  Nb  Nb316  1  0.21677600  0.55827867  0.31430914  1.0
  Nb  Nb317  1  0.21677600  0.89161200  0.31430914  1.0
  Nb  Nb318  1  0.55010933  0.22494533  0.31430914  1.0
  Nb  Nb319  1  0.55010933  0.55827867  0.31430914  1.0
  Nb  Nb320  1  0.55010933  0.89161200  0.31430914  1.0
  Nb  Nb321  1  0.88344267  0.22494533  0.31430914  1.0
  Nb  Nb322  1  0.88344267  0.55827867  0.31430914  1.0
  Nb  Nb323  1  0.88344267  0.89161200  0.31430914  1.0
  Ni  Ni324  1  0.28030367  0.27651483  0.39922336  1.0
  Ni  Ni325  1  0.28030367  0.60984817  0.39922336  1.0
  Ni  Ni326  1  0.28030367  0.94318150  0.39922336  1.0
  Ni  Ni327  1  0.61363700  0.27651483  0.39922336  1.0
  Ni  Ni328  1  0.61363700  0.60984817  0.39922336  1.0
  Ni  Ni329  1  0.61363700  0.94318150  0.39922336  1.0
  Ni  Ni330  1  0.94697033  0.27651483  0.39922336  1.0
  Ni  Ni331  1  0.94697033  0.60984817  0.39922336  1.0
  Ni  Ni332  1  0.94697033  0.94318150  0.39922336  1.0
  Ni  Ni333  1  0.28030367  0.10984817  0.32779479  1.0
  Ni  Ni334  1  0.28030367  0.44318150  0.32779479  1.0
  Ni  Ni335  1  0.28030367  0.77651483  0.32779479  1.0
  Ni  Ni336  1  0.61363700  0.10984817  0.32779479  1.0
  Ni  Ni337  1  0.61363700  0.44318150  0.32779479  1.0
  Ni  Ni338  1  0.61363700  0.77651483  0.32779479  1.0
  Ni  Ni339  1  0.94697033  0.10984817  0.32779479  1.0
  Ni  Ni340  1  0.94697033  0.44318150  0.32779479  1.0
  Ni  Ni341  1  0.94697033  0.77651483  0.32779479  1.0
  Ni  Ni342  1  0.28030367  0.27651483  0.32804964  1.0
  Ni  Ni343  1  0.28030367  0.60984817  0.32804964  1.0
  Ni  Ni344  1  0.28030367  0.94318150  0.32804964  1.0
  Ni  Ni345  1  0.61363700  0.27651483  0.32804964  1.0
  Ni  Ni346  1  0.61363700  0.60984817  0.32804964  1.0
  Ni  Ni347  1  0.61363700  0.94318150  0.32804964  1.0
  Ni  Ni348  1  0.94697033  0.27651483  0.32804964  1.0
  Ni  Ni349  1  0.94697033  0.60984817  0.32804964  1.0
  Ni  Ni350  1  0.94697033  0.94318150  0.32804964  1.0
  Ni  Ni351  1  0.28030367  0.10984817  0.39947821  1.0
  Ni  Ni352  1  0.28030367  0.44318150  0.39947821  1.0
  Ni  Ni353  1  0.28030367  0.77651483  0.39947821  1.0
  Ni  Ni354  1  0.61363700  0.10984817  0.39947821  1.0
  Ni  Ni355  1  0.61363700  0.44318150  0.39947821  1.0
  Ni  Ni356  1  0.61363700  0.77651483  0.39947821  1.0
  Ni  Ni357  1  0.94697033  0.10984817  0.39947821  1.0
  Ni  Ni358  1  0.94697033  0.44318150  0.39947821  1.0
  Ni  Ni359  1  0.94697033  0.77651483  0.39947821  1.0
  Ni  Ni360  1  0.05302967  0.14015183  0.31506236  1.0
  Ni  Ni361  1  0.05302967  0.47348517  0.31506236  1.0
  Ni  Ni362  1  0.05302967  0.80681850  0.31506236  1.0
  Ni  Ni363  1  0.38636300  0.14015183  0.31506236  1.0
  Ni  Ni364  1  0.38636300  0.47348517  0.31506236  1.0
  Ni  Ni365  1  0.38636300  0.80681850  0.31506236  1.0
  Ni  Ni366  1  0.71969633  0.14015183  0.31506236  1.0
  Ni  Ni367  1  0.71969633  0.47348517  0.31506236  1.0
  Ni  Ni368  1  0.71969633  0.80681850  0.31506236  1.0
  Ni  Ni369  1  0.05302967  0.30681850  0.38649093  1.0
  Ni  Ni370  1  0.05302967  0.64015183  0.38649093  1.0
  Ni  Ni371  1  0.05302967  0.97348517  0.38649093  1.0
  Ni  Ni372  1  0.38636300  0.30681850  0.38649093  1.0
  Ni  Ni373  1  0.38636300  0.64015183  0.38649093  1.0
  Ni  Ni374  1  0.38636300  0.97348517  0.38649093  1.0
  Ni  Ni375  1  0.71969633  0.30681850  0.38649093  1.0
  Ni  Ni376  1  0.71969633  0.64015183  0.38649093  1.0
  Ni  Ni377  1  0.71969633  0.97348517  0.38649093  1.0
  Ni  Ni378  1  0.05302967  0.14015183  0.38623607  1.0
  Ni  Ni379  1  0.05302967  0.47348517  0.38623607  1.0
  Ni  Ni380  1  0.05302967  0.80681850  0.38623607  1.0
  Ni  Ni381  1  0.38636300  0.14015183  0.38623607  1.0
  Ni  Ni382  1  0.38636300  0.47348517  0.38623607  1.0
  Ni  Ni383  1  0.38636300  0.80681850  0.38623607  1.0
  Ni  Ni384  1  0.71969633  0.14015183  0.38623607  1.0
  Ni  Ni385  1  0.71969633  0.47348517  0.38623607  1.0
  Ni  Ni386  1  0.71969633  0.80681850  0.38623607  1.0
  Ni  Ni387  1  0.05302967  0.30681850  0.31480750  1.0
  Ni  Ni388  1  0.05302967  0.64015183  0.31480750  1.0
  Ni  Ni389  1  0.05302967  0.97348517  0.31480750  1.0
  Ni  Ni390  1  0.38636300  0.30681850  0.31480750  1.0
  Ni  Ni391  1  0.38636300  0.64015183  0.31480750  1.0
  Ni  Ni392  1  0.38636300  0.97348517  0.31480750  1.0
  Ni  Ni393  1  0.71969633  0.30681850  0.31480750  1.0
  Ni  Ni394  1  0.71969633  0.64015183  0.31480750  1.0
  Ni  Ni395  1  0.71969633  0.97348517  0.31480750  1.0
  Ni  Ni396  1  0.22717533  0.05307900  0.31653757  1.0
  Ni  Ni397  1  0.22717533  0.38641233  0.31653757  1.0
  Ni  Ni398  1  0.22717533  0.71974567  0.31653757  1.0
  Ni  Ni399  1  0.56050867  0.05307900  0.31653757  1.0
  Ni  Ni400  1  0.56050867  0.38641233  0.31653757  1.0
  Ni  Ni401  1  0.56050867  0.71974567  0.31653757  1.0
  Ni  Ni402  1  0.89384200  0.05307900  0.31653757  1.0
  Ni  Ni403  1  0.89384200  0.38641233  0.31653757  1.0
  Ni  Ni404  1  0.89384200  0.71974567  0.31653757  1.0
  Ni  Ni405  1  0.22717533  0.21974567  0.38796614  1.0
  Ni  Ni406  1  0.22717533  0.55307900  0.38796614  1.0
  Ni  Ni407  1  0.22717533  0.88641233  0.38796614  1.0
  Ni  Ni408  1  0.56050867  0.21974567  0.38796614  1.0
  Ni  Ni409  1  0.56050867  0.55307900  0.38796614  1.0
  Ni  Ni410  1  0.56050867  0.88641233  0.38796614  1.0
  Ni  Ni411  1  0.89384200  0.21974567  0.38796614  1.0
  Ni  Ni412  1  0.89384200  0.55307900  0.38796614  1.0
  Ni  Ni413  1  0.89384200  0.88641233  0.38796614  1.0
  Ni  Ni414  1  0.10615800  0.03025433  0.39774814  1.0
  Ni  Ni415  1  0.10615800  0.36358767  0.39774814  1.0
  Ni  Ni416  1  0.10615800  0.69692100  0.39774814  1.0
  Ni  Ni417  1  0.43949133  0.03025433  0.39774814  1.0
  Ni  Ni418  1  0.43949133  0.36358767  0.39774814  1.0
  Ni  Ni419  1  0.43949133  0.69692100  0.39774814  1.0
  Ni  Ni420  1  0.77282467  0.03025433  0.39774814  1.0
  Ni  Ni421  1  0.77282467  0.36358767  0.39774814  1.0
  Ni  Ni422  1  0.77282467  0.69692100  0.39774814  1.0
  Ni  Ni423  1  0.10615800  0.19692100  0.32631957  1.0
  Ni  Ni424  1  0.10615800  0.53025433  0.32631957  1.0
  Ni  Ni425  1  0.10615800  0.86358767  0.32631957  1.0
  Ni  Ni426  1  0.43949133  0.19692100  0.32631957  1.0
  Ni  Ni427  1  0.43949133  0.53025433  0.32631957  1.0
  Ni  Ni428  1  0.43949133  0.86358767  0.32631957  1.0
  Ni  Ni429  1  0.77282467  0.19692100  0.32631957  1.0
  Ni  Ni430  1  0.77282467  0.53025433  0.32631957  1.0
  Ni  Ni431  1  0.77282467  0.86358767  0.32631957  1.0
