# generated using pymatgen
data_NbNi3
_symmetry_space_group_name_H-M   'P 1'
_cell_length_a   20.59796895
_cell_length_b   24.24003283
_cell_length_c   29.01342313
_cell_angle_alpha   93.56695166
_cell_angle_beta   92.94750437
_cell_angle_gamma   95.29710726
_symmetry_Int_Tables_number   1
_chemical_formula_structural   NbNi3
_chemical_formula_sum   'Nb108 Ni324'
_cell_volume   14372.62459557
_cell_formula_units_Z   108
loop_
 _symmetry_equiv_pos_site_id
 _symmetry_equiv_pos_as_xyz
  1  'x, y, z'
loop_
 _atom_site_type_symbol
 _atom_site_label
 _atom_site_symmetry_multiplicity
 _atom_site_fract_x
 _atom_site_fract_y
 _atom_site_fract_z
 _atom_site_occupancy
  Nb  Nb0  1  0.30827867  0.06457950  0.11554875  1.0
  Nb  Nb1  1  0.30827867  0.39791283  0.11554875  1.0
  Nb  Nb2  1  0.30827867  0.73124617  0.11554875  1.0
  Nb  Nb3  1  0.64161200  0.06457950  0.11554875  1.0
  Nb  Nb4  1  0.64161200  0.39791283  0.11554875  1.0
  Nb  Nb5  1  0.64161200  0.73124617  0.11554875  1.0
  Nb  Nb6  1  0.97494533  0.06457950  0.11554875  1.0
  Nb  Nb7  1  0.97494533  0.39791283  0.11554875  1.0
  Nb  Nb8  1  0.97494533  0.73124617  0.11554875  1.0
  Nb  Nb9  1  0.14161200  0.27291283  0.05304875  1.0
  Nb  Nb10  1  0.14161200  0.60624617  0.05304875  1.0
  Nb  Nb11  1  0.14161200  0.93957950  0.05304875  1.0
  Nb  Nb12  1  0.47494533  0.27291283  0.05304875  1.0
  Nb  Nb13  1  0.47494533  0.60624617  0.05304875  1.0
  Nb  Nb14  1  0.47494533  0.93957950  0.05304875  1.0
  Nb  Nb15  1  0.80827867  0.27291283  0.05304875  1.0
  Nb  Nb16  1  0.80827867  0.60624617  0.05304875  1.0
  Nb  Nb17  1  0.80827867  0.93957950  0.05304875  1.0
  Nb  Nb18  1  0.10838800  0.08132817  0.04058975  1.0
  Nb  Nb19  1  0.10838800  0.41466150  0.04058975  1.0
  Nb  Nb20  1  0.10838800  0.74799483  0.04058975  1.0
  Nb  Nb21  1  0.44172133  0.08132817  0.04058975  1.0
  Nb  Nb22  1  0.44172133  0.41466150  0.04058975  1.0
  Nb  Nb23  1  0.44172133  0.74799483  0.04058975  1.0
  Nb  Nb24  1  0.77505467  0.08132817  0.04058975  1.0
  Nb  Nb25  1  0.77505467  0.41466150  0.04058975  1.0
  Nb  Nb26  1  0.77505467  0.74799483  0.04058975  1.0
  Nb  Nb27  1  0.27505467  0.20632817  0.10308975  1.0
  Nb  Nb28  1  0.27505467  0.53966150  0.10308975  1.0
  Nb  Nb29  1  0.27505467  0.87299483  0.10308975  1.0
  Nb  Nb30  1  0.60838800  0.20632817  0.10308975  1.0
  Nb  Nb31  1  0.60838800  0.53966150  0.10308975  1.0
  Nb  Nb32  1  0.60838800  0.87299483  0.10308975  1.0
  Nb  Nb33  1  0.94172133  0.20632817  0.10308975  1.0
  Nb  Nb34  1  0.94172133  0.53966150  0.10308975  1.0
  Nb  Nb35  1  0.94172133  0.87299483  0.10308975  1.0
  Nb  Nb36  1  0.30827867  0.31457950  0.24054875  1.0
  Nb  Nb37  1  0.30827867  0.64791283  0.24054875  1.0
  Nb  Nb38  1  0.30827867  0.98124617  0.24054875  1.0
  Nb  Nb39  1  0.64161200  0.31457950  0.24054875  1.0
  Nb  Nb40  1  0.64161200  0.64791283  0.24054875  1.0
  Nb  Nb41  1  0.64161200  0.98124617  0.24054875  1.0
  Nb  Nb42  1  0.97494533  0.31457950  0.24054875  1.0
  Nb  Nb43  1  0.97494533  0.64791283  0.24054875  1.0
  Nb  Nb44  1  0.97494533  0.98124617  0.24054875  1.0
  Nb  Nb45  1  0.14161200  0.18957950  0.17804875  1.0
  Nb  Nb46  1  0.14161200  0.52291283  0.17804875  1.0
  Nb  Nb47  1  0.14161200  0.85624617  0.17804875  1.0
  Nb  Nb48  1  0.47494533  0.18957950  0.17804875  1.0
  Nb  Nb49  1  0.47494533  0.52291283  0.17804875  1.0
  Nb  Nb50  1  0.47494533  0.85624617  0.17804875  1.0
  Nb  Nb51  1  0.80827867  0.18957950  0.17804875  1.0
  Nb  Nb52  1  0.80827867  0.52291283  0.17804875  1.0
  Nb  Nb53  1  0.80827867  0.85624617  0.17804875  1.0
  Nb  Nb54  1  0.10838800  0.33132817  0.16558975  1.0
  Nb  Nb55  1  0.10838800  0.66466150  0.16558975  1.0
  Nb  Nb56  1  0.10838800  0.99799483  0.16558975  1.0
  Nb  Nb57  1  0.44172133  0.33132817  0.16558975  1.0
  Nb  Nb58  1  0.44172133  0.66466150  0.16558975  1.0
  Nb  Nb59  1  0.44172133  0.99799483  0.16558975  1.0
  Nb  Nb60  1  0.77505467  0.33132817  0.16558975  1.0
  Nb  Nb61  1  0.77505467  0.66466150  0.16558975  1.0
  Nb  Nb62  1  0.77505467  0.99799483  0.16558975  1.0
  Nb  Nb63  1  0.27505467  0.12299483  0.22808975  1.0
  Nb  Nb64  1  0.27505467  0.45632817  0.22808975  1.0
  Nb  Nb65  1  0.27505467  0.78966150  0.22808975  1.0
  Nb  Nb66  1  0.60838800  0.12299483  0.22808975  1.0
  Nb  Nb67  1  0.60838800  0.45632817  0.22808975  1.0
  Nb  Nb68  1  0.60838800  0.78966150  0.22808975  1.0
  Nb  Nb69  1  0.94172133  0.12299483  0.22808975  1.0
  Nb  Nb70  1  0.94172133  0.45632817  0.22808975  1.0
  Nb  Nb71  1  0.94172133  0.78966150  0.22808975  1.0
  Nb  Nb72  1  0.30827867  0.23124617  0.36554875  1.0
  Nb  Nb73  1  0.30827867  0.56457950  0.36554875  1.0
  Nb  Nb74  1  0.30827867  0.89791283  0.36554875  1.0
  Nb  Nb75  1  0.64161200  0.23124617  0.36554875  1.0
  Nb  Nb76  1  0.64161200  0.56457950  0.36554875  1.0
  Nb  Nb77  1  0.64161200  0.89791283  0.36554875  1.0
  Nb  Nb78  1  0.97494533  0.23124617  0.36554875  1.0
  Nb  Nb79  1  0.97494533  0.56457950  0.36554875  1.0
  Nb  Nb80  1  0.97494533  0.89791283  0.36554875  1.0
  Nb  Nb81  1  0.14161200  0.10624617  0.30304875  1.0
  Nb  Nb82  1  0.14161200  0.43957950  0.30304875  1.0
  Nb  Nb83  1  0.14161200  0.77291283  0.30304875  1.0
  Nb  Nb84  1  0.47494533  0.10624617  0.30304875  1.0
  Nb  Nb85  1  0.47494533  0.43957950  0.30304875  1.0
  Nb  Nb86  1  0.47494533  0.77291283  0.30304875  1.0
  Nb  Nb87  1  0.80827867  0.10624617  0.30304875  1.0
  Nb  Nb88  1  0.80827867  0.43957950  0.30304875  1.0
  Nb  Nb89  1  0.80827867  0.77291283  0.30304875  1.0
  Nb  Nb90  1  0.10838800  0.24799483  0.29058975  1.0
  Nb  Nb91  1  0.10838800  0.58132817  0.29058975  1.0
  Nb  Nb92  1  0.10838800  0.91466150  0.29058975  1.0
  Nb  Nb93  1  0.44172133  0.24799483  0.29058975  1.0
  Nb  Nb94  1  0.44172133  0.58132817  0.29058975  1.0
  Nb  Nb95  1  0.44172133  0.91466150  0.29058975  1.0
  Nb  Nb96  1  0.77505467  0.24799483  0.29058975  1.0
  Nb  Nb97  1  0.77505467  0.58132817  0.29058975  1.0
  Nb  Nb98  1  0.77505467  0.91466150  0.29058975  1.0
  Nb  Nb99  1  0.27505467  0.03966150  0.35308975  1.0
  Nb  Nb100  1  0.27505467  0.37299483  0.35308975  1.0
  Nb  Nb101  1  0.27505467  0.70632817  0.35308975  1.0
  Nb  Nb102  1  0.60838800  0.03966150  0.35308975  1.0
  Nb  Nb103  1  0.60838800  0.37299483  0.35308975  1.0
  Nb  Nb104  1  0.60838800  0.70632817  0.35308975  1.0
  Nb  Nb105  1  0.94172133  0.03966150  0.35308975  1.0
  Nb  Nb106  1  0.94172133  0.37299483  0.35308975  1.0
  Nb  Nb107  1  0.94172133  0.70632817  0.35308975  1.0
  Ni  Ni108  1  0.01530050  0.24045621  0.03682044  1.0
  Ni  Ni109  1  0.01530050  0.57378954  0.03682044  1.0
  Ni  Ni110  1  0.01530050  0.90712287  0.03682044  1.0
  Ni  Ni111  1  0.34863383  0.24045621  0.03682044  1.0
  Ni  Ni112  1  0.34863383  0.57378954  0.03682044  1.0
  Ni  Ni113  1  0.34863383  0.90712287  0.03682044  1.0
  Ni  Ni114  1  0.68196717  0.24045621  0.03682044  1.0
  Ni  Ni115  1  0.68196717  0.57378954  0.03682044  1.0
  Ni  Ni116  1  0.68196717  0.90712287  0.03682044  1.0
  Ni  Ni117  1  0.18196717  0.03212287  0.09932044  1.0
  Ni  Ni118  1  0.18196717  0.36545621  0.09932044  1.0
  Ni  Ni119  1  0.18196717  0.69878954  0.09932044  1.0
  Ni  Ni120  1  0.51530050  0.03212287  0.09932044  1.0
  Ni  Ni121  1  0.51530050  0.36545621  0.09932044  1.0
  Ni  Ni122  1  0.51530050  0.69878954  0.09932044  1.0
  Ni  Ni123  1  0.84863383  0.03212287  0.09932044  1.0
  Ni  Ni124  1  0.84863383  0.36545621  0.09932044  1.0
  Ni  Ni125  1  0.84863383  0.69878954  0.09932044  1.0
  Ni  Ni126  1  0.09833650  0.17817921  0.00568194  1.0
  Ni  Ni127  1  0.09833650  0.51151254  0.00568194  1.0
  Ni  Ni128  1  0.09833650  0.84484587  0.00568194  1.0
  Ni  Ni129  1  0.43166983  0.17817921  0.00568194  1.0
  Ni  Ni130  1  0.43166983  0.51151254  0.00568194  1.0
  Ni  Ni131  1  0.43166983  0.84484587  0.00568194  1.0
  Ni  Ni132  1  0.76500317  0.17817921  0.00568194  1.0
  Ni  Ni133  1  0.76500317  0.51151254  0.00568194  1.0
  Ni  Ni134  1  0.76500317  0.84484587  0.00568194  1.0
  Ni  Ni135  1  0.26500317  0.30317921  0.06818194  1.0
  Ni  Ni136  1  0.26500317  0.63651254  0.06818194  1.0
  Ni  Ni137  1  0.26500317  0.96984587  0.06818194  1.0
  Ni  Ni138  1  0.59833650  0.30317921  0.06818194  1.0
  Ni  Ni139  1  0.59833650  0.63651254  0.06818194  1.0
  Ni  Ni140  1  0.59833650  0.96984587  0.06818194  1.0
  Ni  Ni141  1  0.93166983  0.30317921  0.06818194  1.0
  Ni  Ni142  1  0.93166983  0.63651254  0.06818194  1.0
  Ni  Ni143  1  0.93166983  0.96984587  0.06818194  1.0
  Ni  Ni144  1  0.23469950  0.11378479  0.05681806  1.0
  Ni  Ni145  1  0.23469950  0.44711813  0.05681806  1.0
  Ni  Ni146  1  0.23469950  0.78045146  0.05681806  1.0
  Ni  Ni147  1  0.56803283  0.11378479  0.05681806  1.0
  Ni  Ni148  1  0.56803283  0.44711813  0.05681806  1.0
  Ni  Ni149  1  0.56803283  0.78045146  0.05681806  1.0
  Ni  Ni150  1  0.90136617  0.11378479  0.05681806  1.0
  Ni  Ni151  1  0.90136617  0.44711813  0.05681806  1.0
  Ni  Ni152  1  0.90136617  0.78045146  0.05681806  1.0
  Ni  Ni153  1  0.06803283  0.23878479  0.11931806  1.0
  Ni  Ni154  1  0.06803283  0.57211813  0.11931806  1.0
  Ni  Ni155  1  0.06803283  0.90545146  0.11931806  1.0
  Ni  Ni156  1  0.40136617  0.23878479  0.11931806  1.0
  Ni  Ni157  1  0.40136617  0.57211813  0.11931806  1.0
  Ni  Ni158  1  0.40136617  0.90545146  0.11931806  1.0
  Ni  Ni159  1  0.73469950  0.23878479  0.11931806  1.0
  Ni  Ni160  1  0.73469950  0.57211813  0.11931806  1.0
  Ni  Ni161  1  0.73469950  0.90545146  0.11931806  1.0
  Ni  Ni162  1  0.31833017  0.05106179  0.02545656  1.0
  Ni  Ni163  1  0.31833017  0.38439513  0.02545656  1.0
  Ni  Ni164  1  0.31833017  0.71772846  0.02545656  1.0
  Ni  Ni165  1  0.65166350  0.05106179  0.02545656  1.0
  Ni  Ni166  1  0.65166350  0.38439513  0.02545656  1.0
  Ni  Ni167  1  0.65166350  0.71772846  0.02545656  1.0
  Ni  Ni168  1  0.98499683  0.05106179  0.02545656  1.0
  Ni  Ni169  1  0.98499683  0.38439513  0.02545656  1.0
  Ni  Ni170  1  0.98499683  0.71772846  0.02545656  1.0
  Ni  Ni171  1  0.15166350  0.17606179  0.08795656  1.0
  Ni  Ni172  1  0.15166350  0.50939512  0.08795656  1.0
  Ni  Ni173  1  0.15166350  0.84272846  0.08795656  1.0
  Ni  Ni174  1  0.48499683  0.17606179  0.08795656  1.0
  Ni  Ni175  1  0.48499683  0.50939512  0.08795656  1.0
  Ni  Ni176  1  0.48499683  0.84272846  0.08795656  1.0
  Ni  Ni177  1  0.81833017  0.17606179  0.08795656  1.0
  Ni  Ni178  1  0.81833017  0.50939512  0.08795656  1.0
  Ni  Ni179  1  0.81833017  0.84272846  0.08795656  1.0
  Ni  Ni180  1  0.03025433  0.14772792  0.07378962  1.0
  Ni  Ni181  1  0.03025433  0.48106125  0.07378962  1.0
  Ni  Ni182  1  0.03025433  0.81439458  0.07378962  1.0
  Ni  Ni183  1  0.36358767  0.14772792  0.07378962  1.0
  Ni  Ni184  1  0.36358767  0.48106125  0.07378962  1.0
  Ni  Ni185  1  0.36358767  0.81439458  0.07378962  1.0
  Ni  Ni186  1  0.69692100  0.14772792  0.07378962  1.0
  Ni  Ni187  1  0.69692100  0.48106125  0.07378962  1.0
  Ni  Ni188  1  0.69692100  0.81439458  0.07378962  1.0
  Ni  Ni189  1  0.19692100  0.02272792  0.01128962  1.0
  Ni  Ni190  1  0.19692100  0.35606125  0.01128962  1.0
  Ni  Ni191  1  0.19692100  0.68939458  0.01128962  1.0
  Ni  Ni192  1  0.53025433  0.02272792  0.01128962  1.0
  Ni  Ni193  1  0.53025433  0.35606125  0.01128962  1.0
  Ni  Ni194  1  0.53025433  0.68939458  0.01128962  1.0
  Ni  Ni195  1  0.86358767  0.02272792  0.01128962  1.0
  Ni  Ni196  1  0.86358767  0.35606125  0.01128962  1.0
  Ni  Ni197  1  0.86358767  0.68939458  0.01128962  1.0
  Ni  Ni198  1  0.05307900  0.33151308  0.08234888  1.0
  Ni  Ni199  1  0.05307900  0.66484642  0.08234888  1.0
  Ni  Ni200  1  0.05307900  0.99817975  0.08234888  1.0
  Ni  Ni201  1  0.38641233  0.33151308  0.08234888  1.0
  Ni  Ni202  1  0.38641233  0.66484642  0.08234888  1.0
  Ni  Ni203  1  0.38641233  0.99817975  0.08234888  1.0
  Ni  Ni204  1  0.71974567  0.33151308  0.08234888  1.0
  Ni  Ni205  1  0.71974567  0.66484642  0.08234888  1.0
  Ni  Ni206  1  0.71974567  0.99817975  0.08234888  1.0
  Ni  Ni207  1  0.21974567  0.20651308  0.01984887  1.0
  Ni  Ni208  1  0.21974567  0.53984642  0.01984888  1.0
  Ni  Ni209  1  0.21974567  0.87317975  0.01984887  1.0
  Ni  Ni210  1  0.55307900  0.20651308  0.01984887  1.0
  Ni  Ni211  1  0.55307900  0.53984642  0.01984888  1.0
  Ni  Ni212  1  0.55307900  0.87317975  0.01984888  1.0
  Ni  Ni213  1  0.88641233  0.20651308  0.01984887  1.0
  Ni  Ni214  1  0.88641233  0.53984642  0.01984887  1.0
  Ni  Ni215  1  0.88641233  0.87317975  0.01984888  1.0
  Ni  Ni216  1  0.01530050  0.15712287  0.16182044  1.0
  Ni  Ni217  1  0.01530050  0.49045621  0.16182044  1.0
  Ni  Ni218  1  0.01530050  0.82378954  0.16182044  1.0
  Ni  Ni219  1  0.34863383  0.15712287  0.16182044  1.0
  Ni  Ni220  1  0.34863383  0.49045621  0.16182044  1.0
  Ni  Ni221  1  0.34863383  0.82378954  0.16182044  1.0
  Ni  Ni222  1  0.68196717  0.15712287  0.16182044  1.0
  Ni  Ni223  1  0.68196717  0.49045621  0.16182044  1.0
  Ni  Ni224  1  0.68196717  0.82378954  0.16182044  1.0
  Ni  Ni225  1  0.18196717  0.28212287  0.22432044  1.0
  Ni  Ni226  1  0.18196717  0.61545621  0.22432044  1.0
  Ni  Ni227  1  0.18196717  0.94878954  0.22432044  1.0
  Ni  Ni228  1  0.51530050  0.28212287  0.22432044  1.0
  Ni  Ni229  1  0.51530050  0.61545621  0.22432044  1.0
  Ni  Ni230  1  0.51530050  0.94878954  0.22432044  1.0
  Ni  Ni231  1  0.84863383  0.28212287  0.22432044  1.0
  Ni  Ni232  1  0.84863383  0.61545621  0.22432044  1.0
  Ni  Ni233  1  0.84863383  0.94878954  0.22432044  1.0
  Ni  Ni234  1  0.09833650  0.09484588  0.13068194  1.0
  Ni  Ni235  1  0.09833650  0.42817921  0.13068194  1.0
  Ni  Ni236  1  0.09833650  0.76151254  0.13068194  1.0
  Ni  Ni237  1  0.43166983  0.09484588  0.13068194  1.0
  Ni  Ni238  1  0.43166983  0.42817921  0.13068194  1.0
  Ni  Ni239  1  0.43166983  0.76151254  0.13068194  1.0
  Ni  Ni240  1  0.76500317  0.09484588  0.13068194  1.0
  Ni  Ni241  1  0.76500317  0.42817921  0.13068194  1.0
  Ni  Ni242  1  0.76500317  0.76151254  0.13068194  1.0
  Ni  Ni243  1  0.26500317  0.21984587  0.19318194  1.0
  Ni  Ni244  1  0.26500317  0.55317921  0.19318194  1.0
  Ni  Ni245  1  0.26500317  0.88651254  0.19318194  1.0
  Ni  Ni246  1  0.59833650  0.21984587  0.19318194  1.0
  Ni  Ni247  1  0.59833650  0.55317921  0.19318194  1.0
  Ni  Ni248  1  0.59833650  0.88651254  0.19318194  1.0
  Ni  Ni249  1  0.93166983  0.21984587  0.19318194  1.0
  Ni  Ni250  1  0.93166983  0.55317921  0.19318194  1.0
  Ni  Ni251  1  0.93166983  0.88651254  0.19318194  1.0
  Ni  Ni252  1  0.23469950  0.03045146  0.18181806  1.0
  Ni  Ni253  1  0.23469950  0.36378479  0.18181806  1.0
  Ni  Ni254  1  0.23469950  0.69711813  0.18181806  1.0
  Ni  Ni255  1  0.56803283  0.03045146  0.18181806  1.0
  Ni  Ni256  1  0.56803283  0.36378479  0.18181806  1.0
  Ni  Ni257  1  0.56803283  0.69711813  0.18181806  1.0
  Ni  Ni258  1  0.90136617  0.03045146  0.18181806  1.0
  Ni  Ni259  1  0.90136617  0.36378479  0.18181806  1.0
  Ni  Ni260  1  0.90136617  0.69711813  0.18181806  1.0
  Ni  Ni261  1  0.06803283  0.15545146  0.24431806  1.0
  Ni  Ni262  1  0.06803283  0.48878479  0.24431806  1.0
  Ni  Ni263  1  0.06803283  0.82211813  0.24431806  1.0
  Ni  Ni264  1  0.40136617  0.15545146  0.24431806  1.0
  Ni  Ni265  1  0.40136617  0.48878479  0.24431806  1.0
  Ni  Ni266  1  0.40136617  0.82211813  0.24431806  1.0
  Ni  Ni267  1  0.73469950  0.15545146  0.24431806  1.0
  Ni  Ni268  1  0.73469950  0.48878479  0.24431806  1.0
  Ni  Ni269  1  0.73469950  0.82211813  0.24431806  1.0
  Ni  Ni270  1  0.31833017  0.30106179  0.15045656  1.0
  Ni  Ni271  1  0.31833017  0.63439513  0.15045656  1.0
  Ni  Ni272  1  0.31833017  0.96772846  0.15045656  1.0
  Ni  Ni273  1  0.65166350  0.30106179  0.15045656  1.0
  Ni  Ni274  1  0.65166350  0.63439513  0.15045656  1.0
  Ni  Ni275  1  0.65166350  0.96772846  0.15045656  1.0
  Ni  Ni276  1  0.98499683  0.30106179  0.15045656  1.0
  Ni  Ni277  1  0.98499683  0.63439513  0.15045656  1.0
  Ni  Ni278  1  0.98499683  0.96772846  0.15045656  1.0
  Ni  Ni279  1  0.15166350  0.09272846  0.21295656  1.0
  Ni  Ni280  1  0.15166350  0.42606179  0.21295656  1.0
  Ni  Ni281  1  0.15166350  0.75939512  0.21295656  1.0
  Ni  Ni282  1  0.48499683  0.09272846  0.21295656  1.0
  Ni  Ni283  1  0.48499683  0.42606179  0.21295656  1.0
  Ni  Ni284  1  0.48499683  0.75939512  0.21295656  1.0
  Ni  Ni285  1  0.81833017  0.09272846  0.21295656  1.0
  Ni  Ni286  1  0.81833017  0.42606179  0.21295656  1.0
  Ni  Ni287  1  0.81833017  0.75939512  0.21295656  1.0
  Ni  Ni288  1  0.03025433  0.06439458  0.19878962  1.0
  Ni  Ni289  1  0.03025433  0.39772792  0.19878962  1.0
  Ni  Ni290  1  0.03025433  0.73106125  0.19878962  1.0
  Ni  Ni291  1  0.36358767  0.06439458  0.19878962  1.0
  Ni  Ni292  1  0.36358767  0.39772792  0.19878962  1.0
  Ni  Ni293  1  0.36358767  0.73106125  0.19878962  1.0
  Ni  Ni294  1  0.69692100  0.06439458  0.19878962  1.0
  Ni  Ni295  1  0.69692100  0.39772792  0.19878962  1.0
  Ni  Ni296  1  0.69692100  0.73106125  0.19878962  1.0
  Ni  Ni297  1  0.19692100  0.27272792  0.13628962  1.0
  Ni  Ni298  1  0.19692100  0.60606125  0.13628962  1.0
  Ni  Ni299  1  0.19692100  0.93939458  0.13628962  1.0
  Ni  Ni300  1  0.53025433  0.27272792  0.13628962  1.0
  Ni  Ni301  1  0.53025433  0.60606125  0.13628962  1.0
  Ni  Ni302  1  0.53025433  0.93939458  0.13628962  1.0
  Ni  Ni303  1  0.86358767  0.27272792  0.13628962  1.0
  Ni  Ni304  1  0.86358767  0.60606125  0.13628962  1.0
  Ni  Ni305  1  0.86358767  0.93939458  0.13628962  1.0
  Ni  Ni306  1  0.05307900  0.24817975  0.20734887  1.0
  Ni  Ni307  1  0.05307900  0.58151308  0.20734887  1.0
  Ni  Ni308  1  0.05307900  0.91484642  0.20734887  1.0
  Ni  Ni309  1  0.38641233  0.24817975  0.20734887  1.0
  Ni  Ni310  1  0.38641233  0.58151308  0.20734887  1.0
  Ni  Ni311  1  0.38641233  0.91484642  0.20734887  1.0
  Ni  Ni312  1  0.71974567  0.24817975  0.20734887  1.0
  Ni  Ni313  1  0.71974567  0.58151308  0.20734887  1.0
  Ni  Ni314  1  0.71974567  0.91484642  0.20734887  1.0
  Ni  Ni315  1  0.21974567  0.12317975  0.14484888  1.0
  Ni  Ni316  1  0.21974567  0.45651308  0.14484888  1.0
  Ni  Ni317  1  0.21974567  0.78984642  0.14484888  1.0
  Ni  Ni318  1  0.55307900  0.12317975  0.14484888  1.0
  Ni  Ni319  1  0.55307900  0.45651308  0.14484887  1.0
  Ni  Ni320  1  0.55307900  0.78984642  0.14484888  1.0
  Ni  Ni321  1  0.88641233  0.12317975  0.14484888  1.0
  Ni  Ni322  1  0.88641233  0.45651308  0.14484888  1.0
  Ni  Ni323  1  0.88641233  0.78984642  0.14484888  1.0
  Ni  Ni324  1  0.01530050  0.07378954  0.28682044  1.0
  Ni  Ni325  1  0.01530050  0.40712287  0.28682044  1.0
  Ni  Ni326  1  0.01530050  0.74045621  0.28682044  1.0
  Ni  Ni327  1  0.34863383  0.07378954  0.28682044  1.0
  Ni  Ni328  1  0.34863383  0.40712287  0.28682044  1.0
  Ni  Ni329  1  0.34863383  0.74045621  0.28682044  1.0
  Ni  Ni330  1  0.68196717  0.07378954  0.28682044  1.0
  Ni  Ni331  1  0.68196717  0.40712287  0.28682044  1.0
  Ni  Ni332  1  0.68196717  0.74045621  0.28682044  1.0
  Ni  Ni333  1  0.18196717  0.19878954  0.34932044  1.0
  Ni  Ni334  1  0.18196717  0.53212287  0.34932044  1.0
  Ni  Ni335  1  0.18196717  0.86545621  0.34932044  1.0
  Ni  Ni336  1  0.51530050  0.19878954  0.34932044  1.0
  Ni  Ni337  1  0.51530050  0.53212287  0.34932044  1.0
  Ni  Ni338  1  0.51530050  0.86545621  0.34932044  1.0
  Ni  Ni339  1  0.84863383  0.19878954  0.34932044  1.0
  Ni  Ni340  1  0.84863383  0.53212287  0.34932044  1.0
  Ni  Ni341  1  0.84863383  0.86545621  0.34932044  1.0
  Ni  Ni342  1  0.09833650  0.01151254  0.25568194  1.0
  Ni  Ni343  1  0.09833650  0.34484587  0.25568194  1.0
  Ni  Ni344  1  0.09833650  0.67817921  0.25568194  1.0
  Ni  Ni345  1  0.43166983  0.01151254  0.25568194  1.0
  Ni  Ni346  1  0.43166983  0.34484587  0.25568194  1.0
  Ni  Ni347  1  0.43166983  0.67817921  0.25568194  1.0
  Ni  Ni348  1  0.76500317  0.01151254  0.25568194  1.0
  Ni  Ni349  1  0.76500317  0.34484587  0.25568194  1.0
  Ni  Ni350  1  0.76500317  0.67817921  0.25568194  1.0
  Ni  Ni351  1  0.26500317  0.13651254  0.31818194  1.0
  Ni  Ni352  1  0.26500317  0.46984587  0.31818194  1.0
  Ni  Ni353  1  0.26500317  0.80317921  0.31818194  1.0
  Ni  Ni354  1  0.59833650  0.13651254  0.31818194  1.0
  Ni  Ni355  1  0.59833650  0.46984587  0.31818194  1.0
  Ni  Ni356  1  0.59833650  0.80317921  0.31818194  1.0
  Ni  Ni357  1  0.93166983  0.13651254  0.31818194  1.0
  Ni  Ni358  1  0.93166983  0.46984587  0.31818194  1.0
  Ni  Ni359  1  0.93166983  0.80317921  0.31818194  1.0
  Ni  Ni360  1  0.23469950  0.28045146  0.30681806  1.0
  Ni  Ni361  1  0.23469950  0.61378479  0.30681806  1.0
  Ni  Ni362  1  0.23469950  0.94711813  0.30681806  1.0
  Ni  Ni363  1  0.56803283  0.28045146  0.30681806  1.0
  Ni  Ni364  1  0.56803283  0.61378479  0.30681806  1.0
  Ni  Ni365  1  0.56803283  0.94711813  0.30681806  1.0
  Ni  Ni366  1  0.90136617  0.28045146  0.30681806  1.0
  Ni  Ni367  1  0.90136617  0.61378479  0.30681806  1.0
  Ni  Ni368  1  0.90136617  0.94711813  0.30681806  1.0
  Ni  Ni369  1  0.06803283  0.07211813  0.36931806  1.0
  Ni  Ni370  1  0.06803283  0.40545146  0.36931806  1.0
  Ni  Ni371  1  0.06803283  0.73878479  0.36931806  1.0
  Ni  Ni372  1  0.40136617  0.07211813  0.36931806  1.0
  Ni  Ni373  1  0.40136617  0.40545146  0.36931806  1.0
  Ni  Ni374  1  0.40136617  0.73878479  0.36931806  1.0
  Ni  Ni375  1  0.73469950  0.07211813  0.36931806  1.0
  Ni  Ni376  1  0.73469950  0.40545146  0.36931806  1.0
  Ni  Ni377  1  0.73469950  0.73878479  0.36931806  1.0
  Ni  Ni378  1  0.31833017  0.21772846  0.27545656  1.0
  Ni  Ni379  1  0.31833017  0.55106179  0.27545656  1.0
  Ni  Ni380  1  0.31833017  0.88439513  0.27545656  1.0
  Ni  Ni381  1  0.65166350  0.21772846  0.27545656  1.0
  Ni  Ni382  1  0.65166350  0.55106179  0.27545656  1.0
  Ni  Ni383  1  0.65166350  0.88439513  0.27545656  1.0
  Ni  Ni384  1  0.98499683  0.21772846  0.27545656  1.0
  Ni  Ni385  1  0.98499683  0.55106179  0.27545656  1.0
  Ni  Ni386  1  0.98499683  0.88439513  0.27545656  1.0
  Ni  Ni387  1  0.15166350  0.00939513  0.33795656  1.0
  Ni  Ni388  1  0.15166350  0.34272846  0.33795656  1.0
  Ni  Ni389  1  0.15166350  0.67606179  0.33795656  1.0
  Ni  Ni390  1  0.48499683  0.00939513  0.33795656  1.0
  Ni  Ni391  1  0.48499683  0.34272846  0.33795656  1.0
  Ni  Ni392  1  0.48499683  0.67606179  0.33795656  1.0
  Ni  Ni393  1  0.81833017  0.00939513  0.33795656  1.0
  Ni  Ni394  1  0.81833017  0.34272846  0.33795656  1.0
  Ni  Ni395  1  0.81833017  0.67606179  0.33795656  1.0
  Ni  Ni396  1  0.03025433  0.31439458  0.32378963  1.0
  Ni  Ni397  1  0.03025433  0.64772792  0.32378962  1.0
  Ni  Ni398  1  0.03025433  0.98106125  0.32378963  1.0
  Ni  Ni399  1  0.36358767  0.31439458  0.32378963  1.0
  Ni  Ni400  1  0.36358767  0.64772792  0.32378963  1.0
  Ni  Ni401  1  0.36358767  0.98106125  0.32378963  1.0
  Ni  Ni402  1  0.69692100  0.31439458  0.32378963  1.0
  Ni  Ni403  1  0.69692100  0.64772792  0.32378963  1.0
  Ni  Ni404  1  0.69692100  0.98106125  0.32378963  1.0
  Ni  Ni405  1  0.19692100  0.18939458  0.26128963  1.0
  Ni  Ni406  1  0.19692100  0.52272792  0.26128963  1.0
  Ni  Ni407  1  0.19692100  0.85606125  0.26128963  1.0
  Ni  Ni408  1  0.53025433  0.18939458  0.26128963  1.0
  Ni  Ni409  1  0.53025433  0.52272792  0.26128963  1.0
  Ni  Ni410  1  0.53025433  0.85606125  0.26128963  1.0
  Ni  Ni411  1  0.86358767  0.18939458  0.26128963  1.0
  Ni  Ni412  1  0.86358767  0.52272792  0.26128963  1.0
  Ni  Ni413  1  0.86358767  0.85606125  0.26128963  1.0
  Ni  Ni414  1  0.05307900  0.16484642  0.33234887  1.0
  Ni  Ni415  1  0.05307900  0.49817975  0.33234887  1.0
  Ni  Ni416  1  0.05307900  0.83151308  0.33234888  1.0
  Ni  Ni417  1  0.38641233  0.16484642  0.33234887  1.0
  Ni  Ni418  1  0.38641233  0.49817975  0.33234888  1.0
  Ni  Ni419  1  0.38641233  0.83151308  0.33234887  1.0
  Ni  Ni420  1  0.71974567  0.16484642  0.33234887  1.0
  Ni  Ni421  1  0.71974567  0.49817975  0.33234887  1.0
  Ni  Ni422  1  0.71974567  0.83151308  0.33234887  1.0
  Ni  Ni423  1  0.21974567  0.03984642  0.26984888  1.0
  Ni  Ni424  1  0.21974567  0.37317975  0.26984887  1.0
  Ni  Ni425  1  0.21974567  0.70651308  0.26984887  1.0
  Ni  Ni426  1  0.55307900  0.03984642  0.26984888  1.0
  Ni  Ni427  1  0.55307900  0.37317975  0.26984887  1.0
  Ni  Ni428  1  0.55307900  0.70651308  0.26984887  1.0
  Ni  Ni429  1  0.88641233  0.03984642  0.26984887  1.0
  Ni  Ni430  1  0.88641233  0.37317975  0.26984887  1.0
  Ni  Ni431  1  0.88641233  0.70651308  0.26984887  1.0
