# generated using pymatgen
data_NbNi3
_symmetry_space_group_name_H-M   'P 1'
_cell_length_a   15.67858108
_cell_length_b   24.79001334
_cell_length_c   44.34572400
_cell_angle_alpha   116.56505118
_cell_angle_beta   135.00000000
_cell_angle_gamma   71.56505118
_symmetry_Int_Tables_number   1
_chemical_formula_structural   NbNi3
_chemical_formula_sum   'Nb90 Ni270'
_cell_volume   10900.97295323
_cell_formula_units_Z   90
loop_
 _symmetry_equiv_pos_site_id
 _symmetry_equiv_pos_as_xyz
  1  'x, y, z'
loop_
 _atom_site_type_symbol
 _atom_site_label
 _atom_site_symmetry_multiplicity
 _atom_site_fract_x
 _atom_site_fract_y
 _atom_site_fract_z
 _atom_site_occupancy
  Nb  Nb0  1  0.00000000  0.00000000  0.07291667  1.0
  Nb  Nb1  1  0.00000000  0.33333333  0.07291667  1.0
  Nb  Nb2  1  0.00000000  0.66666667  0.07291667  1.0
  Nb  Nb3  1  0.33333333  0.00000000  0.07291667  1.0
  Nb  Nb4  1  0.33333333  0.33333333  0.07291667  1.0
  Nb  Nb5  1  0.33333333  0.66666667  0.07291667  1.0
  Nb  Nb6  1  0.66666667  0.00000000  0.07291667  1.0
  Nb  Nb7  1  0.66666667  0.33333333  0.07291667  1.0
  Nb  Nb8  1  0.66666667  0.66666667  0.07291667  1.0
  Nb  Nb9  1  0.00000000  0.16666667  0.03125000  1.0
  Nb  Nb10  1  0.00000000  0.50000000  0.03125000  1.0
  Nb  Nb11  1  0.00000000  0.83333333  0.03125000  1.0
  Nb  Nb12  1  0.33333333  0.16666667  0.03125000  1.0
  Nb  Nb13  1  0.33333333  0.50000000  0.03125000  1.0
  Nb  Nb14  1  0.33333333  0.83333333  0.03125000  1.0
  Nb  Nb15  1  0.66666667  0.16666667  0.03125000  1.0
  Nb  Nb16  1  0.66666667  0.50000000  0.03125000  1.0
  Nb  Nb17  1  0.66666667  0.83333333  0.03125000  1.0
  Ni  Ni18  1  0.16666667  0.08333333  0.05208333  1.0
  Ni  Ni19  1  0.16666667  0.41666667  0.05208333  1.0
  Ni  Ni20  1  0.16666667  0.75000000  0.05208333  1.0
  Ni  Ni21  1  0.50000000  0.08333333  0.05208333  1.0
  Ni  Ni22  1  0.50000000  0.41666667  0.05208333  1.0
  Ni  Ni23  1  0.50000000  0.75000000  0.05208333  1.0
  Ni  Ni24  1  0.83333333  0.08333333  0.05208333  1.0
  Ni  Ni25  1  0.83333333  0.41666667  0.05208333  1.0
  Ni  Ni26  1  0.83333333  0.75000000  0.05208333  1.0
  Ni  Ni27  1  0.16666667  0.25000000  0.01041667  1.0
  Ni  Ni28  1  0.16666667  0.58333333  0.01041667  1.0
  Ni  Ni29  1  0.16666667  0.91666667  0.01041667  1.0
  Ni  Ni30  1  0.50000000  0.25000000  0.01041667  1.0
  Ni  Ni31  1  0.50000000  0.58333333  0.01041667  1.0
  Ni  Ni32  1  0.50000000  0.91666667  0.01041667  1.0
  Ni  Ni33  1  0.83333333  0.25000000  0.01041667  1.0
  Ni  Ni34  1  0.83333333  0.58333333  0.01041667  1.0
  Ni  Ni35  1  0.83333333  0.91666667  0.01041667  1.0
  Ni  Ni36  1  0.16666667  0.00000000  0.07291667  1.0
  Ni  Ni37  1  0.16666667  0.33333333  0.07291667  1.0
  Ni  Ni38  1  0.16666667  0.66666667  0.07291667  1.0
  Ni  Ni39  1  0.50000000  0.00000000  0.07291667  1.0
  Ni  Ni40  1  0.50000000  0.33333333  0.07291667  1.0
  Ni  Ni41  1  0.50000000  0.66666667  0.07291667  1.0
  Ni  Ni42  1  0.83333333  0.00000000  0.07291667  1.0
  Ni  Ni43  1  0.83333333  0.33333333  0.07291667  1.0
  Ni  Ni44  1  0.83333333  0.66666667  0.07291667  1.0
  Ni  Ni45  1  0.16666667  0.16666667  0.03125000  1.0
  Ni  Ni46  1  0.16666667  0.50000000  0.03125000  1.0
  Ni  Ni47  1  0.16666667  0.83333333  0.03125000  1.0
  Ni  Ni48  1  0.50000000  0.16666667  0.03125000  1.0
  Ni  Ni49  1  0.50000000  0.50000000  0.03125000  1.0
  Ni  Ni50  1  0.50000000  0.83333333  0.03125000  1.0
  Ni  Ni51  1  0.83333333  0.16666667  0.03125000  1.0
  Ni  Ni52  1  0.83333333  0.50000000  0.03125000  1.0
  Ni  Ni53  1  0.83333333  0.83333333  0.03125000  1.0
  Ni  Ni54  1  0.00000000  0.08333333  0.05208333  1.0
  Ni  Ni55  1  0.00000000  0.41666667  0.05208333  1.0
  Ni  Ni56  1  0.00000000  0.75000000  0.05208333  1.0
  Ni  Ni57  1  0.33333333  0.08333333  0.05208333  1.0
  Ni  Ni58  1  0.33333333  0.41666667  0.05208333  1.0
  Ni  Ni59  1  0.33333333  0.75000000  0.05208333  1.0
  Ni  Ni60  1  0.66666667  0.08333333  0.05208333  1.0
  Ni  Ni61  1  0.66666667  0.41666667  0.05208333  1.0
  Ni  Ni62  1  0.66666667  0.75000000  0.05208333  1.0
  Ni  Ni63  1  0.00000000  0.25000000  0.01041667  1.0
  Ni  Ni64  1  0.00000000  0.58333333  0.01041667  1.0
  Ni  Ni65  1  0.00000000  0.91666667  0.01041667  1.0
  Ni  Ni66  1  0.33333333  0.25000000  0.01041667  1.0
  Ni  Ni67  1  0.33333333  0.58333333  0.01041667  1.0
  Ni  Ni68  1  0.33333333  0.91666667  0.01041667  1.0
  Ni  Ni69  1  0.66666667  0.25000000  0.01041667  1.0
  Ni  Ni70  1  0.66666667  0.58333333  0.01041667  1.0
  Ni  Ni71  1  0.66666667  0.91666667  0.01041667  1.0
  Nb  Nb72  1  0.00000000  0.00000000  0.15625000  1.0
  Nb  Nb73  1  0.00000000  0.33333333  0.15625000  1.0
  Nb  Nb74  1  0.00000000  0.66666667  0.15625000  1.0
  Nb  Nb75  1  0.33333333  0.00000000  0.15625000  1.0
  Nb  Nb76  1  0.33333333  0.33333333  0.15625000  1.0
  Nb  Nb77  1  0.33333333  0.66666667  0.15625000  1.0
  Nb  Nb78  1  0.66666667  0.00000000  0.15625000  1.0
  Nb  Nb79  1  0.66666667  0.33333333  0.15625000  1.0
  Nb  Nb80  1  0.66666667  0.66666667  0.15625000  1.0
  Nb  Nb81  1  0.00000000  0.16666667  0.11458333  1.0
  Nb  Nb82  1  0.00000000  0.50000000  0.11458333  1.0
  Nb  Nb83  1  0.00000000  0.83333333  0.11458333  1.0
  Nb  Nb84  1  0.33333333  0.16666667  0.11458333  1.0
  Nb  Nb85  1  0.33333333  0.50000000  0.11458333  1.0
  Nb  Nb86  1  0.33333333  0.83333333  0.11458333  1.0
  Nb  Nb87  1  0.66666667  0.16666667  0.11458333  1.0
  Nb  Nb88  1  0.66666667  0.50000000  0.11458333  1.0
  Nb  Nb89  1  0.66666667  0.83333333  0.11458333  1.0
  Ni  Ni90  1  0.16666667  0.08333333  0.13541667  1.0
  Ni  Ni91  1  0.16666667  0.41666667  0.13541667  1.0
  Ni  Ni92  1  0.16666667  0.75000000  0.13541667  1.0
  Ni  Ni93  1  0.50000000  0.08333333  0.13541667  1.0
  Ni  Ni94  1  0.50000000  0.41666667  0.13541667  1.0
  Ni  Ni95  1  0.50000000  0.75000000  0.13541667  1.0
  Ni  Ni96  1  0.83333333  0.08333333  0.13541667  1.0
  Ni  Ni97  1  0.83333333  0.41666667  0.13541667  1.0
  Ni  Ni98  1  0.83333333  0.75000000  0.13541667  1.0
  Ni  Ni99  1  0.16666667  0.25000000  0.09375000  1.0
  Ni  Ni100  1  0.16666667  0.58333333  0.09375000  1.0
  Ni  Ni101  1  0.16666667  0.91666667  0.09375000  1.0
  Ni  Ni102  1  0.50000000  0.25000000  0.09375000  1.0
  Ni  Ni103  1  0.50000000  0.58333333  0.09375000  1.0
  Ni  Ni104  1  0.50000000  0.91666667  0.09375000  1.0
  Ni  Ni105  1  0.83333333  0.25000000  0.09375000  1.0
  Ni  Ni106  1  0.83333333  0.58333333  0.09375000  1.0
  Ni  Ni107  1  0.83333333  0.91666667  0.09375000  1.0
  Ni  Ni108  1  0.16666667  0.00000000  0.15625000  1.0
  Ni  Ni109  1  0.16666667  0.33333333  0.15625000  1.0
  Ni  Ni110  1  0.16666667  0.66666667  0.15625000  1.0
  Ni  Ni111  1  0.50000000  0.00000000  0.15625000  1.0
  Ni  Ni112  1  0.50000000  0.33333333  0.15625000  1.0
  Ni  Ni113  1  0.50000000  0.66666667  0.15625000  1.0
  Ni  Ni114  1  0.83333333  0.00000000  0.15625000  1.0
  Ni  Ni115  1  0.83333333  0.33333333  0.15625000  1.0
  Ni  Ni116  1  0.83333333  0.66666667  0.15625000  1.0
  Ni  Ni117  1  0.16666667  0.16666667  0.11458333  1.0
  Ni  Ni118  1  0.16666667  0.50000000  0.11458333  1.0
  Ni  Ni119  1  0.16666667  0.83333333  0.11458333  1.0
  Ni  Ni120  1  0.50000000  0.16666667  0.11458333  1.0
  Ni  Ni121  1  0.50000000  0.50000000  0.11458333  1.0
  Ni  Ni122  1  0.50000000  0.83333333  0.11458333  1.0
  Ni  Ni123  1  0.83333333  0.16666667  0.11458333  1.0
  Ni  Ni124  1  0.83333333  0.50000000  0.11458333  1.0
  Ni  Ni125  1  0.83333333  0.83333333  0.11458333  1.0
  Ni  Ni126  1  0.00000000  0.08333333  0.13541667  1.0
  Ni  Ni127  1  0.00000000  0.41666667  0.13541667  1.0
  Ni  Ni128  1  0.00000000  0.75000000  0.13541667  1.0
  Ni  Ni129  1  0.33333333  0.08333333  0.13541667  1.0
  Ni  Ni130  1  0.33333333  0.41666667  0.13541667  1.0
  Ni  Ni131  1  0.33333333  0.75000000  0.13541667  1.0
  Ni  Ni132  1  0.66666667  0.08333333  0.13541667  1.0
  Ni  Ni133  1  0.66666667  0.41666667  0.13541667  1.0
  Ni  Ni134  1  0.66666667  0.75000000  0.13541667  1.0
  Ni  Ni135  1  0.00000000  0.25000000  0.09375000  1.0
  Ni  Ni136  1  0.00000000  0.58333333  0.09375000  1.0
  Ni  Ni137  1  0.00000000  0.91666667  0.09375000  1.0
  Ni  Ni138  1  0.33333333  0.25000000  0.09375000  1.0
  Ni  Ni139  1  0.33333333  0.58333333  0.09375000  1.0
  Ni  Ni140  1  0.33333333  0.91666667  0.09375000  1.0
  Ni  Ni141  1  0.66666667  0.25000000  0.09375000  1.0
  Ni  Ni142  1  0.66666667  0.58333333  0.09375000  1.0
  Ni  Ni143  1  0.66666667  0.91666667  0.09375000  1.0
  Nb  Nb144  1  0.00000000  0.00000000  0.23958333  1.0
  Nb  Nb145  1  0.00000000  0.33333333  0.23958333  1.0
  Nb  Nb146  1  0.00000000  0.66666667  0.23958333  1.0
  Nb  Nb147  1  0.33333333  0.00000000  0.23958333  1.0
  Nb  Nb148  1  0.33333333  0.33333333  0.23958333  1.0
  Nb  Nb149  1  0.33333333  0.66666667  0.23958333  1.0
  Nb  Nb150  1  0.66666667  0.00000000  0.23958333  1.0
  Nb  Nb151  1  0.66666667  0.33333333  0.23958333  1.0
  Nb  Nb152  1  0.66666667  0.66666667  0.23958333  1.0
  Nb  Nb153  1  0.00000000  0.16666667  0.19791667  1.0
  Nb  Nb154  1  0.00000000  0.50000000  0.19791667  1.0
  Nb  Nb155  1  0.00000000  0.83333333  0.19791667  1.0
  Nb  Nb156  1  0.33333333  0.16666667  0.19791667  1.0
  Nb  Nb157  1  0.33333333  0.50000000  0.19791667  1.0
  Nb  Nb158  1  0.33333333  0.83333333  0.19791667  1.0
  Nb  Nb159  1  0.66666667  0.16666667  0.19791667  1.0
  Nb  Nb160  1  0.66666667  0.50000000  0.19791667  1.0
  Nb  Nb161  1  0.66666667  0.83333333  0.19791667  1.0
  Ni  Ni162  1  0.16666667  0.08333333  0.21875000  1.0
  Ni  Ni163  1  0.16666667  0.41666667  0.21875000  1.0
  Ni  Ni164  1  0.16666667  0.75000000  0.21875000  1.0
  Ni  Ni165  1  0.50000000  0.08333333  0.21875000  1.0
  Ni  Ni166  1  0.50000000  0.41666667  0.21875000  1.0
  Ni  Ni167  1  0.50000000  0.75000000  0.21875000  1.0
  Ni  Ni168  1  0.83333333  0.08333333  0.21875000  1.0
  Ni  Ni169  1  0.83333333  0.41666667  0.21875000  1.0
  Ni  Ni170  1  0.83333333  0.75000000  0.21875000  1.0
  Ni  Ni171  1  0.16666667  0.25000000  0.17708333  1.0
  Ni  Ni172  1  0.16666667  0.58333333  0.17708333  1.0
  Ni  Ni173  1  0.16666667  0.91666667  0.17708333  1.0
  Ni  Ni174  1  0.50000000  0.25000000  0.17708333  1.0
  Ni  Ni175  1  0.50000000  0.58333333  0.17708333  1.0
  Ni  Ni176  1  0.50000000  0.91666667  0.17708333  1.0
  Ni  Ni177  1  0.83333333  0.25000000  0.17708333  1.0
  Ni  Ni178  1  0.83333333  0.58333333  0.17708333  1.0
  Ni  Ni179  1  0.83333333  0.91666667  0.17708333  1.0
  Ni  Ni180  1  0.16666667  0.00000000  0.23958333  1.0
  Ni  Ni181  1  0.16666667  0.33333333  0.23958333  1.0
  Ni  Ni182  1  0.16666667  0.66666667  0.23958333  1.0
  Ni  Ni183  1  0.50000000  0.00000000  0.23958333  1.0
  Ni  Ni184  1  0.50000000  0.33333333  0.23958333  1.0
  Ni  Ni185  1  0.50000000  0.66666667  0.23958333  1.0
  Ni  Ni186  1  0.83333333  0.00000000  0.23958333  1.0
  Ni  Ni187  1  0.83333333  0.33333333  0.23958333  1.0
  Ni  Ni188  1  0.83333333  0.66666667  0.23958333  1.0
  Ni  Ni189  1  0.16666667  0.16666667  0.19791667  1.0
  Ni  Ni190  1  0.16666667  0.50000000  0.19791667  1.0
  Ni  Ni191  1  0.16666667  0.83333333  0.19791667  1.0
  Ni  Ni192  1  0.50000000  0.16666667  0.19791667  1.0
  Ni  Ni193  1  0.50000000  0.50000000  0.19791667  1.0
  Ni  Ni194  1  0.50000000  0.83333333  0.19791667  1.0
  Ni  Ni195  1  0.83333333  0.16666667  0.19791667  1.0
  Ni  Ni196  1  0.83333333  0.50000000  0.19791667  1.0
  Ni  Ni197  1  0.83333333  0.83333333  0.19791667  1.0
  Ni  Ni198  1  0.00000000  0.08333333  0.21875000  1.0
  Ni  Ni199  1  0.00000000  0.41666667  0.21875000  1.0
  Ni  Ni200  1  0.00000000  0.75000000  0.21875000  1.0
  Ni  Ni201  1  0.33333333  0.08333333  0.21875000  1.0
  Ni  Ni202  1  0.33333333  0.41666667  0.21875000  1.0
  Ni  Ni203  1  0.33333333  0.75000000  0.21875000  1.0
  Ni  Ni204  1  0.66666667  0.08333333  0.21875000  1.0
  Ni  Ni205  1  0.66666667  0.41666667  0.21875000  1.0
  Ni  Ni206  1  0.66666667  0.75000000  0.21875000  1.0
  Ni  Ni207  1  0.00000000  0.25000000  0.17708333  1.0
  Ni  Ni208  1  0.00000000  0.58333333  0.17708333  1.0
  Ni  Ni209  1  0.00000000  0.91666667  0.17708333  1.0
  Ni  Ni210  1  0.33333333  0.25000000  0.17708333  1.0
  Ni  Ni211  1  0.33333333  0.58333333  0.17708333  1.0
  Ni  Ni212  1  0.33333333  0.91666667  0.17708333  1.0
  Ni  Ni213  1  0.66666667  0.25000000  0.17708333  1.0
  Ni  Ni214  1  0.66666667  0.58333333  0.17708333  1.0
  Ni  Ni215  1  0.66666667  0.91666667  0.17708333  1.0
  Nb  Nb216  1  0.00000000  0.00000000  0.32291667  1.0
  Nb  Nb217  1  0.00000000  0.33333333  0.32291667  1.0
  Nb  Nb218  1  0.00000000  0.66666667  0.32291667  1.0
  Nb  Nb219  1  0.33333333  0.00000000  0.32291667  1.0
  Nb  Nb220  1  0.33333333  0.33333333  0.32291667  1.0
  Nb  Nb221  1  0.33333333  0.66666667  0.32291667  1.0
  Nb  Nb222  1  0.66666667  0.00000000  0.32291667  1.0
  Nb  Nb223  1  0.66666667  0.33333333  0.32291667  1.0
  Nb  Nb224  1  0.66666667  0.66666667  0.32291667  1.0
  Nb  Nb225  1  0.00000000  0.16666667  0.28125000  1.0
  Nb  Nb226  1  0.00000000  0.50000000  0.28125000  1.0
  Nb  Nb227  1  0.00000000  0.83333333  0.28125000  1.0
  Nb  Nb228  1  0.33333333  0.16666667  0.28125000  1.0
  Nb  Nb229  1  0.33333333  0.50000000  0.28125000  1.0
  Nb  Nb230  1  0.33333333  0.83333333  0.28125000  1.0
  Nb  Nb231  1  0.66666667  0.16666667  0.28125000  1.0
  Nb  Nb232  1  0.66666667  0.50000000  0.28125000  1.0
  Nb  Nb233  1  0.66666667  0.83333333  0.28125000  1.0
  Ni  Ni234  1  0.16666667  0.08333333  0.30208333  1.0
  Ni  Ni235  1  0.16666667  0.41666667  0.30208333  1.0
  Ni  Ni236  1  0.16666667  0.75000000  0.30208333  1.0
  Ni  Ni237  1  0.50000000  0.08333333  0.30208333  1.0
  Ni  Ni238  1  0.50000000  0.41666667  0.30208333  1.0
  Ni  Ni239  1  0.50000000  0.75000000  0.30208333  1.0
  Ni  Ni240  1  0.83333333  0.08333333  0.30208333  1.0
  Ni  Ni241  1  0.83333333  0.41666667  0.30208333  1.0
  Ni  Ni242  1  0.83333333  0.75000000  0.30208333  1.0
  Ni  Ni243  1  0.16666667  0.25000000  0.26041667  1.0
  Ni  Ni244  1  0.16666667  0.58333333  0.26041667  1.0
  Ni  Ni245  1  0.16666667  0.91666667  0.26041667  1.0
  Ni  Ni246  1  0.50000000  0.25000000  0.26041667  1.0
  Ni  Ni247  1  0.50000000  0.58333333  0.26041667  1.0
  Ni  Ni248  1  0.50000000  0.91666667  0.26041667  1.0
  Ni  Ni249  1  0.83333333  0.25000000  0.26041667  1.0
  Ni  Ni250  1  0.83333333  0.58333333  0.26041667  1.0
  Ni  Ni251  1  0.83333333  0.91666667  0.26041667  1.0
  Ni  Ni252  1  0.16666667  0.00000000  0.32291667  1.0
  Ni  Ni253  1  0.16666667  0.33333333  0.32291667  1.0
  Ni  Ni254  1  0.16666667  0.66666667  0.32291667  1.0
  Ni  Ni255  1  0.50000000  0.00000000  0.32291667  1.0
  Ni  Ni256  1  0.50000000  0.33333333  0.32291667  1.0
  Ni  Ni257  1  0.50000000  0.66666667  0.32291667  1.0
  Ni  Ni258  1  0.83333333  0.00000000  0.32291667  1.0
  Ni  Ni259  1  0.83333333  0.33333333  0.32291667  1.0
  Ni  Ni260  1  0.83333333  0.66666667  0.32291667  1.0
  Ni  Ni261  1  0.16666667  0.16666667  0.28125000  1.0
  Ni  Ni262  1  0.16666667  0.50000000  0.28125000  1.0
  Ni  Ni263  1  0.16666667  0.83333333  0.28125000  1.0
  Ni  Ni264  1  0.50000000  0.16666667  0.28125000  1.0
  Ni  Ni265  1  0.50000000  0.50000000  0.28125000  1.0
  Ni  Ni266  1  0.50000000  0.83333333  0.28125000  1.0
  Ni  Ni267  1  0.83333333  0.16666667  0.28125000  1.0
  Ni  Ni268  1  0.83333333  0.50000000  0.28125000  1.0
  Ni  Ni269  1  0.83333333  0.83333333  0.28125000  1.0
  Ni  Ni270  1  0.00000000  0.08333333  0.30208333  1.0
  Ni  Ni271  1  0.00000000  0.41666667  0.30208333  1.0
  Ni  Ni272  1  0.00000000  0.75000000  0.30208333  1.0
  Ni  Ni273  1  0.33333333  0.08333333  0.30208333  1.0
  Ni  Ni274  1  0.33333333  0.41666667  0.30208333  1.0
  Ni  Ni275  1  0.33333333  0.75000000  0.30208333  1.0
  Ni  Ni276  1  0.66666667  0.08333333  0.30208333  1.0
  Ni  Ni277  1  0.66666667  0.41666667  0.30208333  1.0
  Ni  Ni278  1  0.66666667  0.75000000  0.30208333  1.0
  Ni  Ni279  1  0.00000000  0.25000000  0.26041667  1.0
  Ni  Ni280  1  0.00000000  0.58333333  0.26041667  1.0
  Ni  Ni281  1  0.00000000  0.91666667  0.26041667  1.0
  Ni  Ni282  1  0.33333333  0.25000000  0.26041667  1.0
  Ni  Ni283  1  0.33333333  0.58333333  0.26041667  1.0
  Ni  Ni284  1  0.33333333  0.91666667  0.26041667  1.0
  Ni  Ni285  1  0.66666667  0.25000000  0.26041667  1.0
  Ni  Ni286  1  0.66666667  0.58333333  0.26041667  1.0
  Ni  Ni287  1  0.66666667  0.91666667  0.26041667  1.0
  Nb  Nb288  1  0.00000000  0.00000000  0.40625000  1.0
  Nb  Nb289  1  0.00000000  0.33333333  0.40625000  1.0
  Nb  Nb290  1  0.00000000  0.66666667  0.40625000  1.0
  Nb  Nb291  1  0.33333333  0.00000000  0.40625000  1.0
  Nb  Nb292  1  0.33333333  0.33333333  0.40625000  1.0
  Nb  Nb293  1  0.33333333  0.66666667  0.40625000  1.0
  Nb  Nb294  1  0.66666667  0.00000000  0.40625000  1.0
  Nb  Nb295  1  0.66666667  0.33333333  0.40625000  1.0
  Nb  Nb296  1  0.66666667  0.66666667  0.40625000  1.0
  Nb  Nb297  1  0.00000000  0.16666667  0.36458333  1.0
  Nb  Nb298  1  0.00000000  0.50000000  0.36458333  1.0
  Nb  Nb299  1  0.00000000  0.83333333  0.36458333  1.0
  Nb  Nb300  1  0.33333333  0.16666667  0.36458333  1.0
  Nb  Nb301  1  0.33333333  0.50000000  0.36458333  1.0
  Nb  Nb302  1  0.33333333  0.83333333  0.36458333  1.0
  Nb  Nb303  1  0.66666667  0.16666667  0.36458333  1.0
  Nb  Nb304  1  0.66666667  0.50000000  0.36458333  1.0
  Nb  Nb305  1  0.66666667  0.83333333  0.36458333  1.0
  Ni  Ni306  1  0.16666667  0.08333333  0.38541667  1.0
  Ni  Ni307  1  0.16666667  0.41666667  0.38541667  1.0
  Ni  Ni308  1  0.16666667  0.75000000  0.38541667  1.0
  Ni  Ni309  1  0.50000000  0.08333333  0.38541667  1.0
  Ni  Ni310  1  0.50000000  0.41666667  0.38541667  1.0
  Ni  Ni311  1  0.50000000  0.75000000  0.38541667  1.0
  Ni  Ni312  1  0.83333333  0.08333333  0.38541667  1.0
  Ni  Ni313  1  0.83333333  0.41666667  0.38541667  1.0
  Ni  Ni314  1  0.83333333  0.75000000  0.38541667  1.0
  Ni  Ni315  1  0.16666667  0.25000000  0.34375000  1.0
  Ni  Ni316  1  0.16666667  0.58333333  0.34375000  1.0
  Ni  Ni317  1  0.16666667  0.91666667  0.34375000  1.0
  Ni  Ni318  1  0.50000000  0.25000000  0.34375000  1.0
  Ni  Ni319  1  0.50000000  0.58333333  0.34375000  1.0
  Ni  Ni320  1  0.50000000  0.91666667  0.34375000  1.0
  Ni  Ni321  1  0.83333333  0.25000000  0.34375000  1.0
  Ni  Ni322  1  0.83333333  0.58333333  0.34375000  1.0
  Ni  Ni323  1  0.83333333  0.91666667  0.34375000  1.0
  Ni  Ni324  1  0.16666667  0.00000000  0.40625000  1.0
  Ni  Ni325  1  0.16666667  0.33333333  0.40625000  1.0
  Ni  Ni326  1  0.16666667  0.66666667  0.40625000  1.0
  Ni  Ni327  1  0.50000000  0.00000000  0.40625000  1.0
  Ni  Ni328  1  0.50000000  0.33333333  0.40625000  1.0
  Ni  Ni329  1  0.50000000  0.66666667  0.40625000  1.0
  Ni  Ni330  1  0.83333333  0.00000000  0.40625000  1.0
  Ni  Ni331  1  0.83333333  0.33333333  0.40625000  1.0
  Ni  Ni332  1  0.83333333  0.66666667  0.40625000  1.0
  Ni  Ni333  1  0.16666667  0.16666667  0.36458333  1.0
  Ni  Ni334  1  0.16666667  0.50000000  0.36458333  1.0
  Ni  Ni335  1  0.16666667  0.83333333  0.36458333  1.0
  Ni  Ni336  1  0.50000000  0.16666667  0.36458333  1.0
  Ni  Ni337  1  0.50000000  0.50000000  0.36458333  1.0
  Ni  Ni338  1  0.50000000  0.83333333  0.36458333  1.0
  Ni  Ni339  1  0.83333333  0.16666667  0.36458333  1.0
  Ni  Ni340  1  0.83333333  0.50000000  0.36458333  1.0
  Ni  Ni341  1  0.83333333  0.83333333  0.36458333  1.0
  Ni  Ni342  1  0.00000000  0.08333333  0.38541667  1.0
  Ni  Ni343  1  0.00000000  0.41666667  0.38541667  1.0
  Ni  Ni344  1  0.00000000  0.75000000  0.38541667  1.0
  Ni  Ni345  1  0.33333333  0.08333333  0.38541667  1.0
  Ni  Ni346  1  0.33333333  0.41666667  0.38541667  1.0
  Ni  Ni347  1  0.33333333  0.75000000  0.38541667  1.0
  Ni  Ni348  1  0.66666667  0.08333333  0.38541667  1.0
  Ni  Ni349  1  0.66666667  0.41666667  0.38541667  1.0
  Ni  Ni350  1  0.66666667  0.75000000  0.38541667  1.0
  Ni  Ni351  1  0.00000000  0.25000000  0.34375000  1.0
  Ni  Ni352  1  0.00000000  0.58333333  0.34375000  1.0
  Ni  Ni353  1  0.00000000  0.91666667  0.34375000  1.0
  Ni  Ni354  1  0.33333333  0.25000000  0.34375000  1.0
  Ni  Ni355  1  0.33333333  0.58333333  0.34375000  1.0
  Ni  Ni356  1  0.33333333  0.91666667  0.34375000  1.0
  Ni  Ni357  1  0.66666667  0.25000000  0.34375000  1.0
  Ni  Ni358  1  0.66666667  0.58333333  0.34375000  1.0
  Ni  Ni359  1  0.66666667  0.91666667  0.34375000  1.0
