# generated using pymatgen
data_NbNi3
_symmetry_space_group_name_H-M   'P 1'
_cell_length_a   12.77900100
_cell_length_b   20.59796895
_cell_length_c   36.66939200
_cell_angle_alpha   131.88142057
_cell_angle_beta   90.00000000
_cell_angle_gamma   90.00000000
_symmetry_Int_Tables_number   1
_chemical_formula_structural   NbNi3
_chemical_formula_sum   'Nb54 Ni162'
_cell_volume   7186.31229779
_cell_formula_units_Z   54
loop_
 _symmetry_equiv_pos_site_id
 _symmetry_equiv_pos_as_xyz
  1  'x, y, z'
loop_
 _atom_site_type_symbol
 _atom_site_label
 _atom_site_symmetry_multiplicity
 _atom_site_fract_x
 _atom_site_fract_y
 _atom_site_fract_z
 _atom_site_occupancy
  Nb  Nb0  1  0.16666667  0.16666667  0.00376931  1.0
  Nb  Nb1  1  0.16666667  0.50000000  0.00376931  1.0
  Nb  Nb2  1  0.16666667  0.83333333  0.00376931  1.0
  Nb  Nb3  1  0.50000000  0.16666667  0.00376931  1.0
  Nb  Nb4  1  0.50000000  0.50000000  0.00376931  1.0
  Nb  Nb5  1  0.50000000  0.83333333  0.00376931  1.0
  Nb  Nb6  1  0.83333333  0.16666667  0.00376931  1.0
  Nb  Nb7  1  0.83333333  0.50000000  0.00376931  1.0
  Nb  Nb8  1  0.83333333  0.83333333  0.00376931  1.0
  Nb  Nb9  1  0.00000000  0.00000000  0.02868731  1.0
  Nb  Nb10  1  0.00000000  0.33333333  0.02868731  1.0
  Nb  Nb11  1  0.00000000  0.66666667  0.02868731  1.0
  Nb  Nb12  1  0.33333333  0.00000000  0.02868731  1.0
  Nb  Nb13  1  0.33333333  0.33333333  0.02868731  1.0
  Nb  Nb14  1  0.33333333  0.66666667  0.02868731  1.0
  Nb  Nb15  1  0.66666667  0.00000000  0.02868731  1.0
  Nb  Nb16  1  0.66666667  0.33333333  0.02868731  1.0
  Nb  Nb17  1  0.66666667  0.66666667  0.02868731  1.0
  Ni  Ni18  1  0.16666667  0.08363067  0.03622594  1.0
  Ni  Ni19  1  0.16666667  0.41696400  0.03622594  1.0
  Ni  Ni20  1  0.16666667  0.75029733  0.03622594  1.0
  Ni  Ni21  1  0.50000000  0.08363067  0.03622594  1.0
  Ni  Ni22  1  0.50000000  0.41696400  0.03622594  1.0
  Ni  Ni23  1  0.50000000  0.75029733  0.03622594  1.0
  Ni  Ni24  1  0.83333333  0.08363067  0.03622594  1.0
  Ni  Ni25  1  0.83333333  0.41696400  0.03622594  1.0
  Ni  Ni26  1  0.83333333  0.75029733  0.03622594  1.0
  Ni  Ni27  1  0.16666667  0.24970267  0.09850294  1.0
  Ni  Ni28  1  0.16666667  0.58303600  0.09850294  1.0
  Ni  Ni29  1  0.16666667  0.91636933  0.09850294  1.0
  Ni  Ni30  1  0.50000000  0.24970267  0.09850294  1.0
  Ni  Ni31  1  0.50000000  0.58303600  0.09850294  1.0
  Ni  Ni32  1  0.50000000  0.91636933  0.09850294  1.0
  Ni  Ni33  1  0.83333333  0.24970267  0.09850294  1.0
  Ni  Ni34  1  0.83333333  0.58303600  0.09850294  1.0
  Ni  Ni35  1  0.83333333  0.91636933  0.09850294  1.0
  Ni  Ni36  1  0.00000000  0.08303600  0.12123069  1.0
  Ni  Ni37  1  0.00000000  0.41636933  0.12123069  1.0
  Ni  Ni38  1  0.00000000  0.74970267  0.12123069  1.0
  Ni  Ni39  1  0.33333333  0.08303600  0.12123069  1.0
  Ni  Ni40  1  0.33333333  0.41636933  0.12123069  1.0
  Ni  Ni41  1  0.33333333  0.74970267  0.12123069  1.0
  Ni  Ni42  1  0.66666667  0.08303600  0.12123069  1.0
  Ni  Ni43  1  0.66666667  0.41636933  0.12123069  1.0
  Ni  Ni44  1  0.66666667  0.74970267  0.12123069  1.0
  Ni  Ni45  1  0.00000000  0.25029733  0.05895369  1.0
  Ni  Ni46  1  0.00000000  0.58363067  0.05895369  1.0
  Ni  Ni47  1  0.00000000  0.91696400  0.05895369  1.0
  Ni  Ni48  1  0.33333333  0.25029733  0.05895369  1.0
  Ni  Ni49  1  0.33333333  0.58363067  0.05895369  1.0
  Ni  Ni50  1  0.33333333  0.91696400  0.05895369  1.0
  Ni  Ni51  1  0.66666667  0.25029733  0.05895369  1.0
  Ni  Ni52  1  0.66666667  0.58363067  0.05895369  1.0
  Ni  Ni53  1  0.66666667  0.91696400  0.05895369  1.0
  Ni  Ni54  1  0.00000000  0.16666667  0.08728756  1.0
  Ni  Ni55  1  0.00000000  0.50000000  0.08728756  1.0
  Ni  Ni56  1  0.00000000  0.83333333  0.08728756  1.0
  Ni  Ni57  1  0.33333333  0.16666667  0.08728756  1.0
  Ni  Ni58  1  0.33333333  0.50000000  0.08728756  1.0
  Ni  Ni59  1  0.33333333  0.83333333  0.08728756  1.0
  Ni  Ni60  1  0.66666667  0.16666667  0.08728756  1.0
  Ni  Ni61  1  0.66666667  0.50000000  0.08728756  1.0
  Ni  Ni62  1  0.66666667  0.83333333  0.08728756  1.0
  Ni  Ni63  1  0.16666667  0.00000000  0.07016906  1.0
  Ni  Ni64  1  0.16666667  0.33333333  0.07016906  1.0
  Ni  Ni65  1  0.16666667  0.66666667  0.07016906  1.0
  Ni  Ni66  1  0.50000000  0.00000000  0.07016906  1.0
  Ni  Ni67  1  0.50000000  0.33333333  0.07016906  1.0
  Ni  Ni68  1  0.50000000  0.66666667  0.07016906  1.0
  Ni  Ni69  1  0.83333333  0.00000000  0.07016906  1.0
  Ni  Ni70  1  0.83333333  0.33333333  0.07016906  1.0
  Ni  Ni71  1  0.83333333  0.66666667  0.07016906  1.0
  Nb  Nb72  1  0.16666667  0.16666667  0.12876931  1.0
  Nb  Nb73  1  0.16666667  0.50000000  0.12876931  1.0
  Nb  Nb74  1  0.16666667  0.83333333  0.12876931  1.0
  Nb  Nb75  1  0.50000000  0.16666667  0.12876931  1.0
  Nb  Nb76  1  0.50000000  0.50000000  0.12876931  1.0
  Nb  Nb77  1  0.50000000  0.83333333  0.12876931  1.0
  Nb  Nb78  1  0.83333333  0.16666667  0.12876931  1.0
  Nb  Nb79  1  0.83333333  0.50000000  0.12876931  1.0
  Nb  Nb80  1  0.83333333  0.83333333  0.12876931  1.0
  Nb  Nb81  1  0.00000000  0.00000000  0.15368731  1.0
  Nb  Nb82  1  0.00000000  0.33333333  0.15368731  1.0
  Nb  Nb83  1  0.00000000  0.66666667  0.15368731  1.0
  Nb  Nb84  1  0.33333333  0.00000000  0.15368731  1.0
  Nb  Nb85  1  0.33333333  0.33333333  0.15368731  1.0
  Nb  Nb86  1  0.33333333  0.66666667  0.15368731  1.0
  Nb  Nb87  1  0.66666667  0.00000000  0.15368731  1.0
  Nb  Nb88  1  0.66666667  0.33333333  0.15368731  1.0
  Nb  Nb89  1  0.66666667  0.66666667  0.15368731  1.0
  Ni  Ni90  1  0.16666667  0.08363067  0.16122594  1.0
  Ni  Ni91  1  0.16666667  0.41696400  0.16122594  1.0
  Ni  Ni92  1  0.16666667  0.75029733  0.16122594  1.0
  Ni  Ni93  1  0.50000000  0.08363067  0.16122594  1.0
  Ni  Ni94  1  0.50000000  0.41696400  0.16122594  1.0
  Ni  Ni95  1  0.50000000  0.75029733  0.16122594  1.0
  Ni  Ni96  1  0.83333333  0.08363067  0.16122594  1.0
  Ni  Ni97  1  0.83333333  0.41696400  0.16122594  1.0
  Ni  Ni98  1  0.83333333  0.75029733  0.16122594  1.0
  Ni  Ni99  1  0.16666667  0.24970267  0.22350294  1.0
  Ni  Ni100  1  0.16666667  0.58303600  0.22350294  1.0
  Ni  Ni101  1  0.16666667  0.91636933  0.22350294  1.0
  Ni  Ni102  1  0.50000000  0.24970267  0.22350294  1.0
  Ni  Ni103  1  0.50000000  0.58303600  0.22350294  1.0
  Ni  Ni104  1  0.50000000  0.91636933  0.22350294  1.0
  Ni  Ni105  1  0.83333333  0.24970267  0.22350294  1.0
  Ni  Ni106  1  0.83333333  0.58303600  0.22350294  1.0
  Ni  Ni107  1  0.83333333  0.91636933  0.22350294  1.0
  Ni  Ni108  1  0.00000000  0.08303600  0.24623069  1.0
  Ni  Ni109  1  0.00000000  0.41636933  0.24623069  1.0
  Ni  Ni110  1  0.00000000  0.74970267  0.24623069  1.0
  Ni  Ni111  1  0.33333333  0.08303600  0.24623069  1.0
  Ni  Ni112  1  0.33333333  0.41636933  0.24623069  1.0
  Ni  Ni113  1  0.33333333  0.74970267  0.24623069  1.0
  Ni  Ni114  1  0.66666667  0.08303600  0.24623069  1.0
  Ni  Ni115  1  0.66666667  0.41636933  0.24623069  1.0
  Ni  Ni116  1  0.66666667  0.74970267  0.24623069  1.0
  Ni  Ni117  1  0.00000000  0.25029733  0.18395369  1.0
  Ni  Ni118  1  0.00000000  0.58363067  0.18395369  1.0
  Ni  Ni119  1  0.00000000  0.91696400  0.18395369  1.0
  Ni  Ni120  1  0.33333333  0.25029733  0.18395369  1.0
  Ni  Ni121  1  0.33333333  0.58363067  0.18395369  1.0
  Ni  Ni122  1  0.33333333  0.91696400  0.18395369  1.0
  Ni  Ni123  1  0.66666667  0.25029733  0.18395369  1.0
  Ni  Ni124  1  0.66666667  0.58363067  0.18395369  1.0
  Ni  Ni125  1  0.66666667  0.91696400  0.18395369  1.0
  Ni  Ni126  1  0.00000000  0.16666667  0.21228756  1.0
  Ni  Ni127  1  0.00000000  0.50000000  0.21228756  1.0
  Ni  Ni128  1  0.00000000  0.83333333  0.21228756  1.0
  Ni  Ni129  1  0.33333333  0.16666667  0.21228756  1.0
  Ni  Ni130  1  0.33333333  0.50000000  0.21228756  1.0
  Ni  Ni131  1  0.33333333  0.83333333  0.21228756  1.0
  Ni  Ni132  1  0.66666667  0.16666667  0.21228756  1.0
  Ni  Ni133  1  0.66666667  0.50000000  0.21228756  1.0
  Ni  Ni134  1  0.66666667  0.83333333  0.21228756  1.0
  Ni  Ni135  1  0.16666667  0.00000000  0.19516906  1.0
  Ni  Ni136  1  0.16666667  0.33333333  0.19516906  1.0
  Ni  Ni137  1  0.16666667  0.66666667  0.19516906  1.0
  Ni  Ni138  1  0.50000000  0.00000000  0.19516906  1.0
  Ni  Ni139  1  0.50000000  0.33333333  0.19516906  1.0
  Ni  Ni140  1  0.50000000  0.66666667  0.19516906  1.0
  Ni  Ni141  1  0.83333333  0.00000000  0.19516906  1.0
  Ni  Ni142  1  0.83333333  0.33333333  0.19516906  1.0
  Ni  Ni143  1  0.83333333  0.66666667  0.19516906  1.0
  Nb  Nb144  1  0.16666667  0.16666667  0.25376931  1.0
  Nb  Nb145  1  0.16666667  0.50000000  0.25376931  1.0
  Nb  Nb146  1  0.16666667  0.83333333  0.25376931  1.0
  Nb  Nb147  1  0.50000000  0.16666667  0.25376931  1.0
  Nb  Nb148  1  0.50000000  0.50000000  0.25376931  1.0
  Nb  Nb149  1  0.50000000  0.83333333  0.25376931  1.0
  Nb  Nb150  1  0.83333333  0.16666667  0.25376931  1.0
  Nb  Nb151  1  0.83333333  0.50000000  0.25376931  1.0
  Nb  Nb152  1  0.83333333  0.83333333  0.25376931  1.0
  Nb  Nb153  1  0.00000000  0.00000000  0.27868731  1.0
  Nb  Nb154  1  0.00000000  0.33333333  0.27868731  1.0
  Nb  Nb155  1  0.00000000  0.66666667  0.27868731  1.0
  Nb  Nb156  1  0.33333333  0.00000000  0.27868731  1.0
  Nb  Nb157  1  0.33333333  0.33333333  0.27868731  1.0
  Nb  Nb158  1  0.33333333  0.66666667  0.27868731  1.0
  Nb  Nb159  1  0.66666667  0.00000000  0.27868731  1.0
  Nb  Nb160  1  0.66666667  0.33333333  0.27868731  1.0
  Nb  Nb161  1  0.66666667  0.66666667  0.27868731  1.0
  Ni  Ni162  1  0.16666667  0.08363067  0.28622594  1.0
  Ni  Ni163  1  0.16666667  0.41696400  0.28622594  1.0
  Ni  Ni164  1  0.16666667  0.75029733  0.28622594  1.0
  Ni  Ni165  1  0.50000000  0.08363067  0.28622594  1.0
  Ni  Ni166  1  0.50000000  0.41696400  0.28622594  1.0
  Ni  Ni167  1  0.50000000  0.75029733  0.28622594  1.0
  Ni  Ni168  1  0.83333333  0.08363067  0.28622594  1.0
  Ni  Ni169  1  0.83333333  0.41696400  0.28622594  1.0
  Ni  Ni170  1  0.83333333  0.75029733  0.28622594  1.0
  Ni  Ni171  1  0.16666667  0.24970267  0.34850294  1.0
  Ni  Ni172  1  0.16666667  0.58303600  0.34850294  1.0
  Ni  Ni173  1  0.16666667  0.91636933  0.34850294  1.0
  Ni  Ni174  1  0.50000000  0.24970267  0.34850294  1.0
  Ni  Ni175  1  0.50000000  0.58303600  0.34850294  1.0
  Ni  Ni176  1  0.50000000  0.91636933  0.34850294  1.0
  Ni  Ni177  1  0.83333333  0.24970267  0.34850294  1.0
  Ni  Ni178  1  0.83333333  0.58303600  0.34850294  1.0
  Ni  Ni179  1  0.83333333  0.91636933  0.34850294  1.0
  Ni  Ni180  1  0.00000000  0.08303600  0.37123069  1.0
  Ni  Ni181  1  0.00000000  0.41636933  0.37123069  1.0
  Ni  Ni182  1  0.00000000  0.74970267  0.37123069  1.0
  Ni  Ni183  1  0.33333333  0.08303600  0.37123069  1.0
  Ni  Ni184  1  0.33333333  0.41636933  0.37123069  1.0
  Ni  Ni185  1  0.33333333  0.74970267  0.37123069  1.0
  Ni  Ni186  1  0.66666667  0.08303600  0.37123069  1.0
  Ni  Ni187  1  0.66666667  0.41636933  0.37123069  1.0
  Ni  Ni188  1  0.66666667  0.74970267  0.37123069  1.0
  Ni  Ni189  1  0.00000000  0.25029733  0.30895369  1.0
  Ni  Ni190  1  0.00000000  0.58363067  0.30895369  1.0
  Ni  Ni191  1  0.00000000  0.91696400  0.30895369  1.0
  Ni  Ni192  1  0.33333333  0.25029733  0.30895369  1.0
  Ni  Ni193  1  0.33333333  0.58363067  0.30895369  1.0
  Ni  Ni194  1  0.33333333  0.91696400  0.30895369  1.0
  Ni  Ni195  1  0.66666667  0.25029733  0.30895369  1.0
  Ni  Ni196  1  0.66666667  0.58363067  0.30895369  1.0
  Ni  Ni197  1  0.66666667  0.91696400  0.30895369  1.0
  Ni  Ni198  1  0.00000000  0.16666667  0.33728756  1.0
  Ni  Ni199  1  0.00000000  0.50000000  0.33728756  1.0
  Ni  Ni200  1  0.00000000  0.83333333  0.33728756  1.0
  Ni  Ni201  1  0.33333333  0.16666667  0.33728756  1.0
  Ni  Ni202  1  0.33333333  0.50000000  0.33728756  1.0
  Ni  Ni203  1  0.33333333  0.83333333  0.33728756  1.0
  Ni  Ni204  1  0.66666667  0.16666667  0.33728756  1.0
  Ni  Ni205  1  0.66666667  0.50000000  0.33728756  1.0
  Ni  Ni206  1  0.66666667  0.83333333  0.33728756  1.0
  Ni  Ni207  1  0.16666667  0.00000000  0.32016906  1.0
  Ni  Ni208  1  0.16666667  0.33333333  0.32016906  1.0
  Ni  Ni209  1  0.16666667  0.66666667  0.32016906  1.0
  Ni  Ni210  1  0.50000000  0.00000000  0.32016906  1.0
  Ni  Ni211  1  0.50000000  0.33333333  0.32016906  1.0
  Ni  Ni212  1  0.50000000  0.66666667  0.32016906  1.0
  Ni  Ni213  1  0.83333333  0.00000000  0.32016906  1.0
  Ni  Ni214  1  0.83333333  0.33333333  0.32016906  1.0
  Ni  Ni215  1  0.83333333  0.66666667  0.32016906  1.0
