# generated using pymatgen
data_NbNi
_symmetry_space_group_name_H-M   'P 1'
_cell_length_a   54.00767526
_cell_length_b   14.70811264
_cell_length_c   126.01790894
_cell_angle_alpha   97.82609997
_cell_angle_beta   15.65219994
_cell_angle_gamma   90.00000000
_symmetry_Int_Tables_number   1
_chemical_formula_structural   NbNi
_chemical_formula_sum   'Nb351 Ni351'
_cell_volume   23315.30134972
_cell_formula_units_Z   351
loop_
 _symmetry_equiv_pos_site_id
 _symmetry_equiv_pos_as_xyz
  1  'x, y, z'
loop_
 _atom_site_type_symbol
 _atom_site_label
 _atom_site_symmetry_multiplicity
 _atom_site_fract_x
 _atom_site_fract_y
 _atom_site_fract_z
 _atom_site_occupancy
  Nb  Nb0  1  0.25840067  0.25840067  0.07226229  1.0
  Nb  Nb1  1  0.25840067  0.59173400  0.07226229  1.0
  Nb  Nb2  1  0.25840067  0.92506733  0.07226229  1.0
  Nb  Nb3  1  0.59173400  0.25840067  0.07226229  1.0
  Nb  Nb4  1  0.59173400  0.59173400  0.07226229  1.0
  Nb  Nb5  1  0.59173400  0.92506733  0.07226229  1.0
  Nb  Nb6  1  0.92506733  0.25840067  0.07226229  1.0
  Nb  Nb7  1  0.92506733  0.59173400  0.07226229  1.0
  Nb  Nb8  1  0.92506733  0.92506733  0.07226229  1.0
  Nb  Nb9  1  0.09121700  0.09121700  0.07181914  1.0
  Nb  Nb10  1  0.09121700  0.42455033  0.07181914  1.0
  Nb  Nb11  1  0.09121700  0.75788367  0.07181914  1.0
  Nb  Nb12  1  0.42455033  0.09121700  0.07181914  1.0
  Nb  Nb13  1  0.42455033  0.42455033  0.07181914  1.0
  Nb  Nb14  1  0.42455033  0.75788367  0.07181914  1.0
  Nb  Nb15  1  0.75788367  0.09121700  0.07181914  1.0
  Nb  Nb16  1  0.75788367  0.42455033  0.07181914  1.0
  Nb  Nb17  1  0.75788367  0.75788367  0.07181914  1.0
  Nb  Nb18  1  0.24211633  0.24211633  0.05830429  1.0
  Nb  Nb19  1  0.24211633  0.57544967  0.05830429  1.0
  Nb  Nb20  1  0.24211633  0.90878300  0.05830429  1.0
  Nb  Nb21  1  0.57544967  0.24211633  0.05830429  1.0
  Nb  Nb22  1  0.57544967  0.57544967  0.05830429  1.0
  Nb  Nb23  1  0.57544967  0.90878300  0.05830429  1.0
  Nb  Nb24  1  0.90878300  0.24211633  0.05830429  1.0
  Nb  Nb25  1  0.90878300  0.57544967  0.05830429  1.0
  Nb  Nb26  1  0.90878300  0.90878300  0.05830429  1.0
  Nb  Nb27  1  0.07493267  0.07493267  0.05786114  1.0
  Nb  Nb28  1  0.07493267  0.40826600  0.05786114  1.0
  Nb  Nb29  1  0.07493267  0.74159933  0.05786114  1.0
  Nb  Nb30  1  0.40826600  0.07493267  0.05786114  1.0
  Nb  Nb31  1  0.40826600  0.40826600  0.05786114  1.0
  Nb  Nb32  1  0.40826600  0.74159933  0.05786114  1.0
  Nb  Nb33  1  0.74159933  0.07493267  0.05786114  1.0
  Nb  Nb34  1  0.74159933  0.40826600  0.05786114  1.0
  Nb  Nb35  1  0.74159933  0.74159933  0.05786114  1.0
  Nb  Nb36  1  0.13932200  0.13932200  0.11305200  1.0
  Nb  Nb37  1  0.13932200  0.47265533  0.11305200  1.0
  Nb  Nb38  1  0.13932200  0.80598867  0.11305200  1.0
  Nb  Nb39  1  0.47265533  0.13932200  0.11305200  1.0
  Nb  Nb40  1  0.47265533  0.47265533  0.11305200  1.0
  Nb  Nb41  1  0.47265533  0.80598867  0.11305200  1.0
  Nb  Nb42  1  0.80598867  0.13932200  0.11305200  1.0
  Nb  Nb43  1  0.80598867  0.47265533  0.11305200  1.0
  Nb  Nb44  1  0.80598867  0.80598867  0.11305200  1.0
  Nb  Nb45  1  0.30516667  0.30516667  0.11234743  1.0
  Nb  Nb46  1  0.30516667  0.63850000  0.11234743  1.0
  Nb  Nb47  1  0.30516667  0.97183333  0.11234743  1.0
  Nb  Nb48  1  0.63850000  0.30516667  0.11234743  1.0
  Nb  Nb49  1  0.63850000  0.63850000  0.11234743  1.0
  Nb  Nb50  1  0.63850000  0.97183333  0.11234743  1.0
  Nb  Nb51  1  0.97183333  0.30516667  0.11234743  1.0
  Nb  Nb52  1  0.97183333  0.63850000  0.11234743  1.0
  Nb  Nb53  1  0.97183333  0.97183333  0.11234743  1.0
  Nb  Nb54  1  0.02816667  0.02816667  0.01777600  1.0
  Nb  Nb55  1  0.02816667  0.36150000  0.01777600  1.0
  Nb  Nb56  1  0.02816667  0.69483333  0.01777600  1.0
  Nb  Nb57  1  0.36150000  0.02816667  0.01777600  1.0
  Nb  Nb58  1  0.36150000  0.36150000  0.01777600  1.0
  Nb  Nb59  1  0.36150000  0.69483333  0.01777600  1.0
  Nb  Nb60  1  0.69483333  0.02816667  0.01777600  1.0
  Nb  Nb61  1  0.69483333  0.36150000  0.01777600  1.0
  Nb  Nb62  1  0.69483333  0.69483333  0.01777600  1.0
  Nb  Nb63  1  0.19401133  0.19401133  0.01707143  1.0
  Nb  Nb64  1  0.19401133  0.52734467  0.01707143  1.0
  Nb  Nb65  1  0.19401133  0.86067800  0.01707143  1.0
  Nb  Nb66  1  0.52734467  0.19401133  0.01707143  1.0
  Nb  Nb67  1  0.52734467  0.52734467  0.01707143  1.0
  Nb  Nb68  1  0.52734467  0.86067800  0.01707143  1.0
  Nb  Nb69  1  0.86067800  0.19401133  0.01707143  1.0
  Nb  Nb70  1  0.86067800  0.52734467  0.01707143  1.0
  Nb  Nb71  1  0.86067800  0.86067800  0.01707143  1.0
  Nb  Nb72  1  0.27566333  0.27566333  0.08705886  1.0
  Nb  Nb73  1  0.27566333  0.60899667  0.08705886  1.0
  Nb  Nb74  1  0.27566333  0.94233000  0.08705886  1.0
  Nb  Nb75  1  0.60899667  0.27566333  0.08705886  1.0
  Nb  Nb76  1  0.60899667  0.60899667  0.08705886  1.0
  Nb  Nb77  1  0.60899667  0.94233000  0.08705886  1.0
  Nb  Nb78  1  0.94233000  0.27566333  0.08705886  1.0
  Nb  Nb79  1  0.94233000  0.60899667  0.08705886  1.0
  Nb  Nb80  1  0.94233000  0.94233000  0.08705886  1.0
  Nb  Nb81  1  0.10887600  0.10887600  0.08695543  1.0
  Nb  Nb82  1  0.10887600  0.44220933  0.08695543  1.0
  Nb  Nb83  1  0.10887600  0.77554267  0.08695543  1.0
  Nb  Nb84  1  0.44220933  0.10887600  0.08695543  1.0
  Nb  Nb85  1  0.44220933  0.44220933  0.08695543  1.0
  Nb  Nb86  1  0.44220933  0.77554267  0.08695543  1.0
  Nb  Nb87  1  0.77554267  0.10887600  0.08695543  1.0
  Nb  Nb88  1  0.77554267  0.44220933  0.08695543  1.0
  Nb  Nb89  1  0.77554267  0.77554267  0.08695543  1.0
  Nb  Nb90  1  0.22445733  0.22445733  0.04316800  1.0
  Nb  Nb91  1  0.22445733  0.55779067  0.04316800  1.0
  Nb  Nb92  1  0.22445733  0.89112400  0.04316800  1.0
  Nb  Nb93  1  0.55779067  0.22445733  0.04316800  1.0
  Nb  Nb94  1  0.55779067  0.55779067  0.04316800  1.0
  Nb  Nb95  1  0.55779067  0.89112400  0.04316800  1.0
  Nb  Nb96  1  0.89112400  0.22445733  0.04316800  1.0
  Nb  Nb97  1  0.89112400  0.55779067  0.04316800  1.0
  Nb  Nb98  1  0.89112400  0.89112400  0.04316800  1.0
  Nb  Nb99  1  0.05767000  0.05767000  0.04306457  1.0
  Nb  Nb100  1  0.05767000  0.39100333  0.04306457  1.0
  Nb  Nb101  1  0.05767000  0.72433667  0.04306457  1.0
  Nb  Nb102  1  0.39100333  0.05767000  0.04306457  1.0
  Nb  Nb103  1  0.39100333  0.39100333  0.04306457  1.0
  Nb  Nb104  1  0.39100333  0.72433667  0.04306457  1.0
  Nb  Nb105  1  0.72433667  0.05767000  0.04306457  1.0
  Nb  Nb106  1  0.72433667  0.39100333  0.04306457  1.0
  Nb  Nb107  1  0.72433667  0.72433667  0.04306457  1.0
  Nb  Nb108  1  0.00000000  0.00000000  0.13649029  1.0
  Nb  Nb109  1  0.00000000  0.33333333  0.13649029  1.0
  Nb  Nb110  1  0.00000000  0.66666667  0.13649029  1.0
  Nb  Nb111  1  0.33333333  0.00000000  0.13649029  1.0
  Nb  Nb112  1  0.33333333  0.33333333  0.13649029  1.0
  Nb  Nb113  1  0.33333333  0.66666667  0.13649029  1.0
  Nb  Nb114  1  0.66666667  0.00000000  0.13649029  1.0
  Nb  Nb115  1  0.66666667  0.33333333  0.13649029  1.0
  Nb  Nb116  1  0.66666667  0.66666667  0.13649029  1.0
  Ni  Ni117  1  0.06948400  0.23413733  0.12375657  1.0
  Ni  Ni118  1  0.06948400  0.56747067  0.12375657  1.0
  Ni  Ni119  1  0.06948400  0.90080400  0.12375657  1.0
  Ni  Ni120  1  0.40281733  0.23413733  0.12375657  1.0
  Ni  Ni121  1  0.40281733  0.56747067  0.12375657  1.0
  Ni  Ni122  1  0.40281733  0.90080400  0.12375657  1.0
  Ni  Ni123  1  0.73615067  0.23413733  0.12375657  1.0
  Ni  Ni124  1  0.73615067  0.56747067  0.12375657  1.0
  Ni  Ni125  1  0.73615067  0.90080400  0.12375657  1.0
  Ni  Ni126  1  0.23472867  0.06790367  0.12333271  1.0
  Ni  Ni127  1  0.23472867  0.40123700  0.12333271  1.0
  Ni  Ni128  1  0.23472867  0.73457033  0.12333271  1.0
  Ni  Ni129  1  0.56806200  0.06790367  0.12333271  1.0
  Ni  Ni130  1  0.56806200  0.40123700  0.12333271  1.0
  Ni  Ni131  1  0.56806200  0.73457033  0.12333271  1.0
  Ni  Ni132  1  0.90139533  0.06790367  0.12333271  1.0
  Ni  Ni133  1  0.90139533  0.40123700  0.12333271  1.0
  Ni  Ni134  1  0.90139533  0.73457033  0.12333271  1.0
  Ni  Ni135  1  0.23413733  0.06948400  0.05319086  1.0
  Ni  Ni136  1  0.23413733  0.40281733  0.05319086  1.0
  Ni  Ni137  1  0.23413733  0.73615067  0.05319086  1.0
  Ni  Ni138  1  0.56747067  0.06948400  0.05319086  1.0
  Ni  Ni139  1  0.56747067  0.40281733  0.05319086  1.0
  Ni  Ni140  1  0.56747067  0.73615067  0.05319086  1.0
  Ni  Ni141  1  0.90080400  0.06948400  0.05319086  1.0
  Ni  Ni142  1  0.90080400  0.40281733  0.05319086  1.0
  Ni  Ni143  1  0.90080400  0.73615067  0.05319086  1.0
  Ni  Ni144  1  0.06790367  0.23472867  0.05197200  1.0
  Ni  Ni145  1  0.06790367  0.56806200  0.05197200  1.0
  Ni  Ni146  1  0.06790367  0.90139533  0.05197200  1.0
  Ni  Ni147  1  0.40123700  0.23472867  0.05197200  1.0
  Ni  Ni148  1  0.40123700  0.56806200  0.05197200  1.0
  Ni  Ni149  1  0.40123700  0.90139533  0.05197200  1.0
  Ni  Ni150  1  0.73457033  0.23472867  0.05197200  1.0
  Ni  Ni151  1  0.73457033  0.56806200  0.05197200  1.0
  Ni  Ni152  1  0.73457033  0.90139533  0.05197200  1.0
  Ni  Ni153  1  0.06948400  0.06948400  0.12375657  1.0
  Ni  Ni154  1  0.06948400  0.40281733  0.12375657  1.0
  Ni  Ni155  1  0.06948400  0.73615067  0.12375657  1.0
  Ni  Ni156  1  0.40281733  0.06948400  0.12375657  1.0
  Ni  Ni157  1  0.40281733  0.40281733  0.12375657  1.0
  Ni  Ni158  1  0.40281733  0.73615067  0.12375657  1.0
  Ni  Ni159  1  0.73615067  0.06948400  0.12375657  1.0
  Ni  Ni160  1  0.73615067  0.40281733  0.12375657  1.0
  Ni  Ni161  1  0.73615067  0.73615067  0.12375657  1.0
  Ni  Ni162  1  0.23472867  0.23472867  0.12333271  1.0
  Ni  Ni163  1  0.23472867  0.56806200  0.12333271  1.0
  Ni  Ni164  1  0.23472867  0.90139533  0.12333271  1.0
  Ni  Ni165  1  0.56806200  0.23472867  0.12333271  1.0
  Ni  Ni166  1  0.56806200  0.56806200  0.12333271  1.0
  Ni  Ni167  1  0.56806200  0.90139533  0.12333271  1.0
  Ni  Ni168  1  0.90139533  0.23472867  0.12333271  1.0
  Ni  Ni169  1  0.90139533  0.56806200  0.12333271  1.0
  Ni  Ni170  1  0.90139533  0.90139533  0.12333271  1.0
  Ni  Ni171  1  0.09860467  0.26542967  0.00679071  1.0
  Ni  Ni172  1  0.09860467  0.59876300  0.00679071  1.0
  Ni  Ni173  1  0.09860467  0.93209633  0.00679071  1.0
  Ni  Ni174  1  0.43193800  0.26542967  0.00679071  1.0
  Ni  Ni175  1  0.43193800  0.59876300  0.00679071  1.0
  Ni  Ni176  1  0.43193800  0.93209633  0.00679071  1.0
  Ni  Ni177  1  0.76527133  0.26542967  0.00679071  1.0
  Ni  Ni178  1  0.76527133  0.59876300  0.00679071  1.0
  Ni  Ni179  1  0.76527133  0.93209633  0.00679071  1.0
  Ni  Ni180  1  0.26384933  0.09919600  0.00636686  1.0
  Ni  Ni181  1  0.26384933  0.43252933  0.00636686  1.0
  Ni  Ni182  1  0.26384933  0.76586267  0.00636686  1.0
  Ni  Ni183  1  0.59718267  0.09919600  0.00636686  1.0
  Ni  Ni184  1  0.59718267  0.43252933  0.00636686  1.0
  Ni  Ni185  1  0.59718267  0.76586267  0.00636686  1.0
  Ni  Ni186  1  0.93051600  0.09919600  0.00636686  1.0
  Ni  Ni187  1  0.93051600  0.43252933  0.00636686  1.0
  Ni  Ni188  1  0.93051600  0.76586267  0.00636686  1.0
  Ni  Ni189  1  0.26542967  0.09860467  0.07815143  1.0
  Ni  Ni190  1  0.26542967  0.43193800  0.07815143  1.0
  Ni  Ni191  1  0.26542967  0.76527133  0.07815143  1.0
  Ni  Ni192  1  0.59876300  0.09860467  0.07815143  1.0
  Ni  Ni193  1  0.59876300  0.43193800  0.07815143  1.0
  Ni  Ni194  1  0.59876300  0.76527133  0.07815143  1.0
  Ni  Ni195  1  0.93209633  0.09860467  0.07815143  1.0
  Ni  Ni196  1  0.93209633  0.43193800  0.07815143  1.0
  Ni  Ni197  1  0.93209633  0.76527133  0.07815143  1.0
  Ni  Ni198  1  0.09919600  0.26384933  0.07693257  1.0
  Ni  Ni199  1  0.09919600  0.59718267  0.07693257  1.0
  Ni  Ni200  1  0.09919600  0.93051600  0.07693257  1.0
  Ni  Ni201  1  0.43252933  0.26384933  0.07693257  1.0
  Ni  Ni202  1  0.43252933  0.59718267  0.07693257  1.0
  Ni  Ni203  1  0.43252933  0.93051600  0.07693257  1.0
  Ni  Ni204  1  0.76586267  0.26384933  0.07693257  1.0
  Ni  Ni205  1  0.76586267  0.59718267  0.07693257  1.0
  Ni  Ni206  1  0.76586267  0.93051600  0.07693257  1.0
  Ni  Ni207  1  0.09860467  0.09860467  0.00679071  1.0
  Ni  Ni208  1  0.09860467  0.43193800  0.00679071  1.0
  Ni  Ni209  1  0.09860467  0.76527133  0.00679071  1.0
  Ni  Ni210  1  0.43193800  0.09860467  0.00679071  1.0
  Ni  Ni211  1  0.43193800  0.43193800  0.00679071  1.0
  Ni  Ni212  1  0.43193800  0.76527133  0.00679071  1.0
  Ni  Ni213  1  0.76527133  0.09860467  0.00679071  1.0
  Ni  Ni214  1  0.76527133  0.43193800  0.00679071  1.0
  Ni  Ni215  1  0.76527133  0.76527133  0.00679071  1.0
  Ni  Ni216  1  0.26384933  0.26384933  0.00636686  1.0
  Ni  Ni217  1  0.26384933  0.59718267  0.00636686  1.0
  Ni  Ni218  1  0.26384933  0.93051600  0.00636686  1.0
  Ni  Ni219  1  0.59718267  0.26384933  0.00636686  1.0
  Ni  Ni220  1  0.59718267  0.59718267  0.00636686  1.0
  Ni  Ni221  1  0.59718267  0.93051600  0.00636686  1.0
  Ni  Ni222  1  0.93051600  0.26384933  0.00636686  1.0
  Ni  Ni223  1  0.93051600  0.59718267  0.00636686  1.0
  Ni  Ni224  1  0.93051600  0.93051600  0.00636686  1.0
  Ni  Ni225  1  0.16666667  0.16666667  0.13649029  1.0
  Ni  Ni226  1  0.16666667  0.50000000  0.13649029  1.0
  Ni  Ni227  1  0.16666667  0.83333333  0.13649029  1.0
  Ni  Ni228  1  0.50000000  0.16666667  0.13649029  1.0
  Ni  Ni229  1  0.50000000  0.50000000  0.13649029  1.0
  Ni  Ni230  1  0.50000000  0.83333333  0.13649029  1.0
  Ni  Ni231  1  0.83333333  0.16666667  0.13649029  1.0
  Ni  Ni232  1  0.83333333  0.50000000  0.13649029  1.0
  Ni  Ni233  1  0.83333333  0.83333333  0.13649029  1.0
  Nb  Nb234  1  0.25840067  0.25840067  0.21511943  1.0
  Nb  Nb235  1  0.25840067  0.59173400  0.21511943  1.0
  Nb  Nb236  1  0.25840067  0.92506733  0.21511943  1.0
  Nb  Nb237  1  0.59173400  0.25840067  0.21511943  1.0
  Nb  Nb238  1  0.59173400  0.59173400  0.21511943  1.0
  Nb  Nb239  1  0.59173400  0.92506733  0.21511943  1.0
  Nb  Nb240  1  0.92506733  0.25840067  0.21511943  1.0
  Nb  Nb241  1  0.92506733  0.59173400  0.21511943  1.0
  Nb  Nb242  1  0.92506733  0.92506733  0.21511943  1.0
  Nb  Nb243  1  0.09121700  0.09121700  0.21467629  1.0
  Nb  Nb244  1  0.09121700  0.42455033  0.21467629  1.0
  Nb  Nb245  1  0.09121700  0.75788367  0.21467629  1.0
  Nb  Nb246  1  0.42455033  0.09121700  0.21467629  1.0
  Nb  Nb247  1  0.42455033  0.42455033  0.21467629  1.0
  Nb  Nb248  1  0.42455033  0.75788367  0.21467629  1.0
  Nb  Nb249  1  0.75788367  0.09121700  0.21467629  1.0
  Nb  Nb250  1  0.75788367  0.42455033  0.21467629  1.0
  Nb  Nb251  1  0.75788367  0.75788367  0.21467629  1.0
  Nb  Nb252  1  0.24211633  0.24211633  0.20116143  1.0
  Nb  Nb253  1  0.24211633  0.57544967  0.20116143  1.0
  Nb  Nb254  1  0.24211633  0.90878300  0.20116143  1.0
  Nb  Nb255  1  0.57544967  0.24211633  0.20116143  1.0
  Nb  Nb256  1  0.57544967  0.57544967  0.20116143  1.0
  Nb  Nb257  1  0.57544967  0.90878300  0.20116143  1.0
  Nb  Nb258  1  0.90878300  0.24211633  0.20116143  1.0
  Nb  Nb259  1  0.90878300  0.57544967  0.20116143  1.0
  Nb  Nb260  1  0.90878300  0.90878300  0.20116143  1.0
  Nb  Nb261  1  0.07493267  0.07493267  0.20071829  1.0
  Nb  Nb262  1  0.07493267  0.40826600  0.20071829  1.0
  Nb  Nb263  1  0.07493267  0.74159933  0.20071829  1.0
  Nb  Nb264  1  0.40826600  0.07493267  0.20071829  1.0
  Nb  Nb265  1  0.40826600  0.40826600  0.20071829  1.0
  Nb  Nb266  1  0.40826600  0.74159933  0.20071829  1.0
  Nb  Nb267  1  0.74159933  0.07493267  0.20071829  1.0
  Nb  Nb268  1  0.74159933  0.40826600  0.20071829  1.0
  Nb  Nb269  1  0.74159933  0.74159933  0.20071829  1.0
  Nb  Nb270  1  0.13932200  0.13932200  0.25590914  1.0
  Nb  Nb271  1  0.13932200  0.47265533  0.25590914  1.0
  Nb  Nb272  1  0.13932200  0.80598867  0.25590914  1.0
  Nb  Nb273  1  0.47265533  0.13932200  0.25590914  1.0
  Nb  Nb274  1  0.47265533  0.47265533  0.25590914  1.0
  Nb  Nb275  1  0.47265533  0.80598867  0.25590914  1.0
  Nb  Nb276  1  0.80598867  0.13932200  0.25590914  1.0
  Nb  Nb277  1  0.80598867  0.47265533  0.25590914  1.0
  Nb  Nb278  1  0.80598867  0.80598867  0.25590914  1.0
  Nb  Nb279  1  0.30516667  0.30516667  0.25520457  1.0
  Nb  Nb280  1  0.30516667  0.63850000  0.25520457  1.0
  Nb  Nb281  1  0.30516667  0.97183333  0.25520457  1.0
  Nb  Nb282  1  0.63850000  0.30516667  0.25520457  1.0
  Nb  Nb283  1  0.63850000  0.63850000  0.25520457  1.0
  Nb  Nb284  1  0.63850000  0.97183333  0.25520457  1.0
  Nb  Nb285  1  0.97183333  0.30516667  0.25520457  1.0
  Nb  Nb286  1  0.97183333  0.63850000  0.25520457  1.0
  Nb  Nb287  1  0.97183333  0.97183333  0.25520457  1.0
  Nb  Nb288  1  0.02816667  0.02816667  0.16063314  1.0
  Nb  Nb289  1  0.02816667  0.36150000  0.16063314  1.0
  Nb  Nb290  1  0.02816667  0.69483333  0.16063314  1.0
  Nb  Nb291  1  0.36150000  0.02816667  0.16063314  1.0
  Nb  Nb292  1  0.36150000  0.36150000  0.16063314  1.0
  Nb  Nb293  1  0.36150000  0.69483333  0.16063314  1.0
  Nb  Nb294  1  0.69483333  0.02816667  0.16063314  1.0
  Nb  Nb295  1  0.69483333  0.36150000  0.16063314  1.0
  Nb  Nb296  1  0.69483333  0.69483333  0.16063314  1.0
  Nb  Nb297  1  0.19401133  0.19401133  0.15992857  1.0
  Nb  Nb298  1  0.19401133  0.52734467  0.15992857  1.0
  Nb  Nb299  1  0.19401133  0.86067800  0.15992857  1.0
  Nb  Nb300  1  0.52734467  0.19401133  0.15992857  1.0
  Nb  Nb301  1  0.52734467  0.52734467  0.15992857  1.0
  Nb  Nb302  1  0.52734467  0.86067800  0.15992857  1.0
  Nb  Nb303  1  0.86067800  0.19401133  0.15992857  1.0
  Nb  Nb304  1  0.86067800  0.52734467  0.15992857  1.0
  Nb  Nb305  1  0.86067800  0.86067800  0.15992857  1.0
  Nb  Nb306  1  0.27566333  0.27566333  0.22991600  1.0
  Nb  Nb307  1  0.27566333  0.60899667  0.22991600  1.0
  Nb  Nb308  1  0.27566333  0.94233000  0.22991600  1.0
  Nb  Nb309  1  0.60899667  0.27566333  0.22991600  1.0
  Nb  Nb310  1  0.60899667  0.60899667  0.22991600  1.0
  Nb  Nb311  1  0.60899667  0.94233000  0.22991600  1.0
  Nb  Nb312  1  0.94233000  0.27566333  0.22991600  1.0
  Nb  Nb313  1  0.94233000  0.60899667  0.22991600  1.0
  Nb  Nb314  1  0.94233000  0.94233000  0.22991600  1.0
  Nb  Nb315  1  0.10887600  0.10887600  0.22981257  1.0
  Nb  Nb316  1  0.10887600  0.44220933  0.22981257  1.0
  Nb  Nb317  1  0.10887600  0.77554267  0.22981257  1.0
  Nb  Nb318  1  0.44220933  0.10887600  0.22981257  1.0
  Nb  Nb319  1  0.44220933  0.44220933  0.22981257  1.0
  Nb  Nb320  1  0.44220933  0.77554267  0.22981257  1.0
  Nb  Nb321  1  0.77554267  0.10887600  0.22981257  1.0
  Nb  Nb322  1  0.77554267  0.44220933  0.22981257  1.0
  Nb  Nb323  1  0.77554267  0.77554267  0.22981257  1.0
  Nb  Nb324  1  0.22445733  0.22445733  0.18602514  1.0
  Nb  Nb325  1  0.22445733  0.55779067  0.18602514  1.0
  Nb  Nb326  1  0.22445733  0.89112400  0.18602514  1.0
  Nb  Nb327  1  0.55779067  0.22445733  0.18602514  1.0
  Nb  Nb328  1  0.55779067  0.55779067  0.18602514  1.0
  Nb  Nb329  1  0.55779067  0.89112400  0.18602514  1.0
  Nb  Nb330  1  0.89112400  0.22445733  0.18602514  1.0
  Nb  Nb331  1  0.89112400  0.55779067  0.18602514  1.0
  Nb  Nb332  1  0.89112400  0.89112400  0.18602514  1.0
  Nb  Nb333  1  0.05767000  0.05767000  0.18592171  1.0
  Nb  Nb334  1  0.05767000  0.39100333  0.18592171  1.0
  Nb  Nb335  1  0.05767000  0.72433667  0.18592171  1.0
  Nb  Nb336  1  0.39100333  0.05767000  0.18592171  1.0
  Nb  Nb337  1  0.39100333  0.39100333  0.18592171  1.0
  Nb  Nb338  1  0.39100333  0.72433667  0.18592171  1.0
  Nb  Nb339  1  0.72433667  0.05767000  0.18592171  1.0
  Nb  Nb340  1  0.72433667  0.39100333  0.18592171  1.0
  Nb  Nb341  1  0.72433667  0.72433667  0.18592171  1.0
  Nb  Nb342  1  0.00000000  0.00000000  0.27934743  1.0
  Nb  Nb343  1  0.00000000  0.33333333  0.27934743  1.0
  Nb  Nb344  1  0.00000000  0.66666667  0.27934743  1.0
  Nb  Nb345  1  0.33333333  0.00000000  0.27934743  1.0
  Nb  Nb346  1  0.33333333  0.33333333  0.27934743  1.0
  Nb  Nb347  1  0.33333333  0.66666667  0.27934743  1.0
  Nb  Nb348  1  0.66666667  0.00000000  0.27934743  1.0
  Nb  Nb349  1  0.66666667  0.33333333  0.27934743  1.0
  Nb  Nb350  1  0.66666667  0.66666667  0.27934743  1.0
  Ni  Ni351  1  0.06948400  0.23413733  0.26661371  1.0
  Ni  Ni352  1  0.06948400  0.56747067  0.26661371  1.0
  Ni  Ni353  1  0.06948400  0.90080400  0.26661371  1.0
  Ni  Ni354  1  0.40281733  0.23413733  0.26661371  1.0
  Ni  Ni355  1  0.40281733  0.56747067  0.26661371  1.0
  Ni  Ni356  1  0.40281733  0.90080400  0.26661371  1.0
  Ni  Ni357  1  0.73615067  0.23413733  0.26661371  1.0
  Ni  Ni358  1  0.73615067  0.56747067  0.26661371  1.0
  Ni  Ni359  1  0.73615067  0.90080400  0.26661371  1.0
  Ni  Ni360  1  0.23472867  0.06790367  0.26618986  1.0
  Ni  Ni361  1  0.23472867  0.40123700  0.26618986  1.0
  Ni  Ni362  1  0.23472867  0.73457033  0.26618986  1.0
  Ni  Ni363  1  0.56806200  0.06790367  0.26618986  1.0
  Ni  Ni364  1  0.56806200  0.40123700  0.26618986  1.0
  Ni  Ni365  1  0.56806200  0.73457033  0.26618986  1.0
  Ni  Ni366  1  0.90139533  0.06790367  0.26618986  1.0
  Ni  Ni367  1  0.90139533  0.40123700  0.26618986  1.0
  Ni  Ni368  1  0.90139533  0.73457033  0.26618986  1.0
  Ni  Ni369  1  0.23413733  0.06948400  0.19604800  1.0
  Ni  Ni370  1  0.23413733  0.40281733  0.19604800  1.0
  Ni  Ni371  1  0.23413733  0.73615067  0.19604800  1.0
  Ni  Ni372  1  0.56747067  0.06948400  0.19604800  1.0
  Ni  Ni373  1  0.56747067  0.40281733  0.19604800  1.0
  Ni  Ni374  1  0.56747067  0.73615067  0.19604800  1.0
  Ni  Ni375  1  0.90080400  0.06948400  0.19604800  1.0
  Ni  Ni376  1  0.90080400  0.40281733  0.19604800  1.0
  Ni  Ni377  1  0.90080400  0.73615067  0.19604800  1.0
  Ni  Ni378  1  0.06790367  0.23472867  0.19482914  1.0
  Ni  Ni379  1  0.06790367  0.56806200  0.19482914  1.0
  Ni  Ni380  1  0.06790367  0.90139533  0.19482914  1.0
  Ni  Ni381  1  0.40123700  0.23472867  0.19482914  1.0
  Ni  Ni382  1  0.40123700  0.56806200  0.19482914  1.0
  Ni  Ni383  1  0.40123700  0.90139533  0.19482914  1.0
  Ni  Ni384  1  0.73457033  0.23472867  0.19482914  1.0
  Ni  Ni385  1  0.73457033  0.56806200  0.19482914  1.0
  Ni  Ni386  1  0.73457033  0.90139533  0.19482914  1.0
  Ni  Ni387  1  0.06948400  0.06948400  0.26661371  1.0
  Ni  Ni388  1  0.06948400  0.40281733  0.26661371  1.0
  Ni  Ni389  1  0.06948400  0.73615067  0.26661371  1.0
  Ni  Ni390  1  0.40281733  0.06948400  0.26661371  1.0
  Ni  Ni391  1  0.40281733  0.40281733  0.26661371  1.0
  Ni  Ni392  1  0.40281733  0.73615067  0.26661371  1.0
  Ni  Ni393  1  0.73615067  0.06948400  0.26661371  1.0
  Ni  Ni394  1  0.73615067  0.40281733  0.26661371  1.0
  Ni  Ni395  1  0.73615067  0.73615067  0.26661371  1.0
  Ni  Ni396  1  0.23472867  0.23472867  0.26618986  1.0
  Ni  Ni397  1  0.23472867  0.56806200  0.26618986  1.0
  Ni  Ni398  1  0.23472867  0.90139533  0.26618986  1.0
  Ni  Ni399  1  0.56806200  0.23472867  0.26618986  1.0
  Ni  Ni400  1  0.56806200  0.56806200  0.26618986  1.0
  Ni  Ni401  1  0.56806200  0.90139533  0.26618986  1.0
  Ni  Ni402  1  0.90139533  0.23472867  0.26618986  1.0
  Ni  Ni403  1  0.90139533  0.56806200  0.26618986  1.0
  Ni  Ni404  1  0.90139533  0.90139533  0.26618986  1.0
  Ni  Ni405  1  0.09860467  0.26542967  0.14964786  1.0
  Ni  Ni406  1  0.09860467  0.59876300  0.14964786  1.0
  Ni  Ni407  1  0.09860467  0.93209633  0.14964786  1.0
  Ni  Ni408  1  0.43193800  0.26542967  0.14964786  1.0
  Ni  Ni409  1  0.43193800  0.59876300  0.14964786  1.0
  Ni  Ni410  1  0.43193800  0.93209633  0.14964786  1.0
  Ni  Ni411  1  0.76527133  0.26542967  0.14964786  1.0
  Ni  Ni412  1  0.76527133  0.59876300  0.14964786  1.0
  Ni  Ni413  1  0.76527133  0.93209633  0.14964786  1.0
  Ni  Ni414  1  0.26384933  0.09919600  0.14922400  1.0
  Ni  Ni415  1  0.26384933  0.43252933  0.14922400  1.0
  Ni  Ni416  1  0.26384933  0.76586267  0.14922400  1.0
  Ni  Ni417  1  0.59718267  0.09919600  0.14922400  1.0
  Ni  Ni418  1  0.59718267  0.43252933  0.14922400  1.0
  Ni  Ni419  1  0.59718267  0.76586267  0.14922400  1.0
  Ni  Ni420  1  0.93051600  0.09919600  0.14922400  1.0
  Ni  Ni421  1  0.93051600  0.43252933  0.14922400  1.0
  Ni  Ni422  1  0.93051600  0.76586267  0.14922400  1.0
  Ni  Ni423  1  0.26542967  0.09860467  0.22100857  1.0
  Ni  Ni424  1  0.26542967  0.43193800  0.22100857  1.0
  Ni  Ni425  1  0.26542967  0.76527133  0.22100857  1.0
  Ni  Ni426  1  0.59876300  0.09860467  0.22100857  1.0
  Ni  Ni427  1  0.59876300  0.43193800  0.22100857  1.0
  Ni  Ni428  1  0.59876300  0.76527133  0.22100857  1.0
  Ni  Ni429  1  0.93209633  0.09860467  0.22100857  1.0
  Ni  Ni430  1  0.93209633  0.43193800  0.22100857  1.0
  Ni  Ni431  1  0.93209633  0.76527133  0.22100857  1.0
  Ni  Ni432  1  0.09919600  0.26384933  0.21978971  1.0
  Ni  Ni433  1  0.09919600  0.59718267  0.21978971  1.0
  Ni  Ni434  1  0.09919600  0.93051600  0.21978971  1.0
  Ni  Ni435  1  0.43252933  0.26384933  0.21978971  1.0
  Ni  Ni436  1  0.43252933  0.59718267  0.21978971  1.0
  Ni  Ni437  1  0.43252933  0.93051600  0.21978971  1.0
  Ni  Ni438  1  0.76586267  0.26384933  0.21978971  1.0
  Ni  Ni439  1  0.76586267  0.59718267  0.21978971  1.0
  Ni  Ni440  1  0.76586267  0.93051600  0.21978971  1.0
  Ni  Ni441  1  0.09860467  0.09860467  0.14964786  1.0
  Ni  Ni442  1  0.09860467  0.43193800  0.14964786  1.0
  Ni  Ni443  1  0.09860467  0.76527133  0.14964786  1.0
  Ni  Ni444  1  0.43193800  0.09860467  0.14964786  1.0
  Ni  Ni445  1  0.43193800  0.43193800  0.14964786  1.0
  Ni  Ni446  1  0.43193800  0.76527133  0.14964786  1.0
  Ni  Ni447  1  0.76527133  0.09860467  0.14964786  1.0
  Ni  Ni448  1  0.76527133  0.43193800  0.14964786  1.0
  Ni  Ni449  1  0.76527133  0.76527133  0.14964786  1.0
  Ni  Ni450  1  0.26384933  0.26384933  0.14922400  1.0
  Ni  Ni451  1  0.26384933  0.59718267  0.14922400  1.0
  Ni  Ni452  1  0.26384933  0.93051600  0.14922400  1.0
  Ni  Ni453  1  0.59718267  0.26384933  0.14922400  1.0
  Ni  Ni454  1  0.59718267  0.59718267  0.14922400  1.0
  Ni  Ni455  1  0.59718267  0.93051600  0.14922400  1.0
  Ni  Ni456  1  0.93051600  0.26384933  0.14922400  1.0
  Ni  Ni457  1  0.93051600  0.59718267  0.14922400  1.0
  Ni  Ni458  1  0.93051600  0.93051600  0.14922400  1.0
  Ni  Ni459  1  0.16666667  0.16666667  0.27934743  1.0
  Ni  Ni460  1  0.16666667  0.50000000  0.27934743  1.0
  Ni  Ni461  1  0.16666667  0.83333333  0.27934743  1.0
  Ni  Ni462  1  0.50000000  0.16666667  0.27934743  1.0
  Ni  Ni463  1  0.50000000  0.50000000  0.27934743  1.0
  Ni  Ni464  1  0.50000000  0.83333333  0.27934743  1.0
  Ni  Ni465  1  0.83333333  0.16666667  0.27934743  1.0
  Ni  Ni466  1  0.83333333  0.50000000  0.27934743  1.0
  Ni  Ni467  1  0.83333333  0.83333333  0.27934743  1.0
  Nb  Nb468  1  0.25840067  0.25840067  0.35797657  1.0
  Nb  Nb469  1  0.25840067  0.59173400  0.35797657  1.0
  Nb  Nb470  1  0.25840067  0.92506733  0.35797657  1.0
  Nb  Nb471  1  0.59173400  0.25840067  0.35797657  1.0
  Nb  Nb472  1  0.59173400  0.59173400  0.35797657  1.0
  Nb  Nb473  1  0.59173400  0.92506733  0.35797657  1.0
  Nb  Nb474  1  0.92506733  0.25840067  0.35797657  1.0
  Nb  Nb475  1  0.92506733  0.59173400  0.35797657  1.0
  Nb  Nb476  1  0.92506733  0.92506733  0.35797657  1.0
  Nb  Nb477  1  0.09121700  0.09121700  0.35753343  1.0
  Nb  Nb478  1  0.09121700  0.42455033  0.35753343  1.0
  Nb  Nb479  1  0.09121700  0.75788367  0.35753343  1.0
  Nb  Nb480  1  0.42455033  0.09121700  0.35753343  1.0
  Nb  Nb481  1  0.42455033  0.42455033  0.35753343  1.0
  Nb  Nb482  1  0.42455033  0.75788367  0.35753343  1.0
  Nb  Nb483  1  0.75788367  0.09121700  0.35753343  1.0
  Nb  Nb484  1  0.75788367  0.42455033  0.35753343  1.0
  Nb  Nb485  1  0.75788367  0.75788367  0.35753343  1.0
  Nb  Nb486  1  0.24211633  0.24211633  0.34401857  1.0
  Nb  Nb487  1  0.24211633  0.57544967  0.34401857  1.0
  Nb  Nb488  1  0.24211633  0.90878300  0.34401857  1.0
  Nb  Nb489  1  0.57544967  0.24211633  0.34401857  1.0
  Nb  Nb490  1  0.57544967  0.57544967  0.34401857  1.0
  Nb  Nb491  1  0.57544967  0.90878300  0.34401857  1.0
  Nb  Nb492  1  0.90878300  0.24211633  0.34401857  1.0
  Nb  Nb493  1  0.90878300  0.57544967  0.34401857  1.0
  Nb  Nb494  1  0.90878300  0.90878300  0.34401857  1.0
  Nb  Nb495  1  0.07493267  0.07493267  0.34357543  1.0
  Nb  Nb496  1  0.07493267  0.40826600  0.34357543  1.0
  Nb  Nb497  1  0.07493267  0.74159933  0.34357543  1.0
  Nb  Nb498  1  0.40826600  0.07493267  0.34357543  1.0
  Nb  Nb499  1  0.40826600  0.40826600  0.34357543  1.0
  Nb  Nb500  1  0.40826600  0.74159933  0.34357543  1.0
  Nb  Nb501  1  0.74159933  0.07493267  0.34357543  1.0
  Nb  Nb502  1  0.74159933  0.40826600  0.34357543  1.0
  Nb  Nb503  1  0.74159933  0.74159933  0.34357543  1.0
  Nb  Nb504  1  0.13932200  0.13932200  0.39876629  1.0
  Nb  Nb505  1  0.13932200  0.47265533  0.39876629  1.0
  Nb  Nb506  1  0.13932200  0.80598867  0.39876629  1.0
  Nb  Nb507  1  0.47265533  0.13932200  0.39876629  1.0
  Nb  Nb508  1  0.47265533  0.47265533  0.39876629  1.0
  Nb  Nb509  1  0.47265533  0.80598867  0.39876629  1.0
  Nb  Nb510  1  0.80598867  0.13932200  0.39876629  1.0
  Nb  Nb511  1  0.80598867  0.47265533  0.39876629  1.0
  Nb  Nb512  1  0.80598867  0.80598867  0.39876629  1.0
  Nb  Nb513  1  0.30516667  0.30516667  0.39806171  1.0
  Nb  Nb514  1  0.30516667  0.63850000  0.39806171  1.0
  Nb  Nb515  1  0.30516667  0.97183333  0.39806171  1.0
  Nb  Nb516  1  0.63850000  0.30516667  0.39806171  1.0
  Nb  Nb517  1  0.63850000  0.63850000  0.39806171  1.0
  Nb  Nb518  1  0.63850000  0.97183333  0.39806171  1.0
  Nb  Nb519  1  0.97183333  0.30516667  0.39806171  1.0
  Nb  Nb520  1  0.97183333  0.63850000  0.39806171  1.0
  Nb  Nb521  1  0.97183333  0.97183333  0.39806171  1.0
  Nb  Nb522  1  0.02816667  0.02816667  0.30349029  1.0
  Nb  Nb523  1  0.02816667  0.36150000  0.30349029  1.0
  Nb  Nb524  1  0.02816667  0.69483333  0.30349029  1.0
  Nb  Nb525  1  0.36150000  0.02816667  0.30349029  1.0
  Nb  Nb526  1  0.36150000  0.36150000  0.30349029  1.0
  Nb  Nb527  1  0.36150000  0.69483333  0.30349029  1.0
  Nb  Nb528  1  0.69483333  0.02816667  0.30349029  1.0
  Nb  Nb529  1  0.69483333  0.36150000  0.30349029  1.0
  Nb  Nb530  1  0.69483333  0.69483333  0.30349029  1.0
  Nb  Nb531  1  0.19401133  0.19401133  0.30278571  1.0
  Nb  Nb532  1  0.19401133  0.52734467  0.30278571  1.0
  Nb  Nb533  1  0.19401133  0.86067800  0.30278571  1.0
  Nb  Nb534  1  0.52734467  0.19401133  0.30278571  1.0
  Nb  Nb535  1  0.52734467  0.52734467  0.30278571  1.0
  Nb  Nb536  1  0.52734467  0.86067800  0.30278571  1.0
  Nb  Nb537  1  0.86067800  0.19401133  0.30278571  1.0
  Nb  Nb538  1  0.86067800  0.52734467  0.30278571  1.0
  Nb  Nb539  1  0.86067800  0.86067800  0.30278571  1.0
  Nb  Nb540  1  0.27566333  0.27566333  0.37277314  1.0
  Nb  Nb541  1  0.27566333  0.60899667  0.37277314  1.0
  Nb  Nb542  1  0.27566333  0.94233000  0.37277314  1.0
  Nb  Nb543  1  0.60899667  0.27566333  0.37277314  1.0
  Nb  Nb544  1  0.60899667  0.60899667  0.37277314  1.0
  Nb  Nb545  1  0.60899667  0.94233000  0.37277314  1.0
  Nb  Nb546  1  0.94233000  0.27566333  0.37277314  1.0
  Nb  Nb547  1  0.94233000  0.60899667  0.37277314  1.0
  Nb  Nb548  1  0.94233000  0.94233000  0.37277314  1.0
  Nb  Nb549  1  0.10887600  0.10887600  0.37266971  1.0
  Nb  Nb550  1  0.10887600  0.44220933  0.37266971  1.0
  Nb  Nb551  1  0.10887600  0.77554267  0.37266971  1.0
  Nb  Nb552  1  0.44220933  0.10887600  0.37266971  1.0
  Nb  Nb553  1  0.44220933  0.44220933  0.37266971  1.0
  Nb  Nb554  1  0.44220933  0.77554267  0.37266971  1.0
  Nb  Nb555  1  0.77554267  0.10887600  0.37266971  1.0
  Nb  Nb556  1  0.77554267  0.44220933  0.37266971  1.0
  Nb  Nb557  1  0.77554267  0.77554267  0.37266971  1.0
  Nb  Nb558  1  0.22445733  0.22445733  0.32888229  1.0
  Nb  Nb559  1  0.22445733  0.55779067  0.32888229  1.0
  Nb  Nb560  1  0.22445733  0.89112400  0.32888229  1.0
  Nb  Nb561  1  0.55779067  0.22445733  0.32888229  1.0
  Nb  Nb562  1  0.55779067  0.55779067  0.32888229  1.0
  Nb  Nb563  1  0.55779067  0.89112400  0.32888229  1.0
  Nb  Nb564  1  0.89112400  0.22445733  0.32888229  1.0
  Nb  Nb565  1  0.89112400  0.55779067  0.32888229  1.0
  Nb  Nb566  1  0.89112400  0.89112400  0.32888229  1.0
  Nb  Nb567  1  0.05767000  0.05767000  0.32877886  1.0
  Nb  Nb568  1  0.05767000  0.39100333  0.32877886  1.0
  Nb  Nb569  1  0.05767000  0.72433667  0.32877886  1.0
  Nb  Nb570  1  0.39100333  0.05767000  0.32877886  1.0
  Nb  Nb571  1  0.39100333  0.39100333  0.32877886  1.0
  Nb  Nb572  1  0.39100333  0.72433667  0.32877886  1.0
  Nb  Nb573  1  0.72433667  0.05767000  0.32877886  1.0
  Nb  Nb574  1  0.72433667  0.39100333  0.32877886  1.0
  Nb  Nb575  1  0.72433667  0.72433667  0.32877886  1.0
  Nb  Nb576  1  0.00000000  0.00000000  0.42220457  1.0
  Nb  Nb577  1  0.00000000  0.33333333  0.42220457  1.0
  Nb  Nb578  1  0.00000000  0.66666667  0.42220457  1.0
  Nb  Nb579  1  0.33333333  0.00000000  0.42220457  1.0
  Nb  Nb580  1  0.33333333  0.33333333  0.42220457  1.0
  Nb  Nb581  1  0.33333333  0.66666667  0.42220457  1.0
  Nb  Nb582  1  0.66666667  0.00000000  0.42220457  1.0
  Nb  Nb583  1  0.66666667  0.33333333  0.42220457  1.0
  Nb  Nb584  1  0.66666667  0.66666667  0.42220457  1.0
  Ni  Ni585  1  0.06948400  0.23413733  0.40947086  1.0
  Ni  Ni586  1  0.06948400  0.56747067  0.40947086  1.0
  Ni  Ni587  1  0.06948400  0.90080400  0.40947086  1.0
  Ni  Ni588  1  0.40281733  0.23413733  0.40947086  1.0
  Ni  Ni589  1  0.40281733  0.56747067  0.40947086  1.0
  Ni  Ni590  1  0.40281733  0.90080400  0.40947086  1.0
  Ni  Ni591  1  0.73615067  0.23413733  0.40947086  1.0
  Ni  Ni592  1  0.73615067  0.56747067  0.40947086  1.0
  Ni  Ni593  1  0.73615067  0.90080400  0.40947086  1.0
  Ni  Ni594  1  0.23472867  0.06790367  0.40904700  1.0
  Ni  Ni595  1  0.23472867  0.40123700  0.40904700  1.0
  Ni  Ni596  1  0.23472867  0.73457033  0.40904700  1.0
  Ni  Ni597  1  0.56806200  0.06790367  0.40904700  1.0
  Ni  Ni598  1  0.56806200  0.40123700  0.40904700  1.0
  Ni  Ni599  1  0.56806200  0.73457033  0.40904700  1.0
  Ni  Ni600  1  0.90139533  0.06790367  0.40904700  1.0
  Ni  Ni601  1  0.90139533  0.40123700  0.40904700  1.0
  Ni  Ni602  1  0.90139533  0.73457033  0.40904700  1.0
  Ni  Ni603  1  0.23413733  0.06948400  0.33890514  1.0
  Ni  Ni604  1  0.23413733  0.40281733  0.33890514  1.0
  Ni  Ni605  1  0.23413733  0.73615067  0.33890514  1.0
  Ni  Ni606  1  0.56747067  0.06948400  0.33890514  1.0
  Ni  Ni607  1  0.56747067  0.40281733  0.33890514  1.0
  Ni  Ni608  1  0.56747067  0.73615067  0.33890514  1.0
  Ni  Ni609  1  0.90080400  0.06948400  0.33890514  1.0
  Ni  Ni610  1  0.90080400  0.40281733  0.33890514  1.0
  Ni  Ni611  1  0.90080400  0.73615067  0.33890514  1.0
  Ni  Ni612  1  0.06790367  0.23472867  0.33768629  1.0
  Ni  Ni613  1  0.06790367  0.56806200  0.33768629  1.0
  Ni  Ni614  1  0.06790367  0.90139533  0.33768629  1.0
  Ni  Ni615  1  0.40123700  0.23472867  0.33768629  1.0
  Ni  Ni616  1  0.40123700  0.56806200  0.33768629  1.0
  Ni  Ni617  1  0.40123700  0.90139533  0.33768629  1.0
  Ni  Ni618  1  0.73457033  0.23472867  0.33768629  1.0
  Ni  Ni619  1  0.73457033  0.56806200  0.33768629  1.0
  Ni  Ni620  1  0.73457033  0.90139533  0.33768629  1.0
  Ni  Ni621  1  0.06948400  0.06948400  0.40947086  1.0
  Ni  Ni622  1  0.06948400  0.40281733  0.40947086  1.0
  Ni  Ni623  1  0.06948400  0.73615067  0.40947086  1.0
  Ni  Ni624  1  0.40281733  0.06948400  0.40947086  1.0
  Ni  Ni625  1  0.40281733  0.40281733  0.40947086  1.0
  Ni  Ni626  1  0.40281733  0.73615067  0.40947086  1.0
  Ni  Ni627  1  0.73615067  0.06948400  0.40947086  1.0
  Ni  Ni628  1  0.73615067  0.40281733  0.40947086  1.0
  Ni  Ni629  1  0.73615067  0.73615067  0.40947086  1.0
  Ni  Ni630  1  0.23472867  0.23472867  0.40904700  1.0
  Ni  Ni631  1  0.23472867  0.56806200  0.40904700  1.0
  Ni  Ni632  1  0.23472867  0.90139533  0.40904700  1.0
  Ni  Ni633  1  0.56806200  0.23472867  0.40904700  1.0
  Ni  Ni634  1  0.56806200  0.56806200  0.40904700  1.0
  Ni  Ni635  1  0.56806200  0.90139533  0.40904700  1.0
  Ni  Ni636  1  0.90139533  0.23472867  0.40904700  1.0
  Ni  Ni637  1  0.90139533  0.56806200  0.40904700  1.0
  Ni  Ni638  1  0.90139533  0.90139533  0.40904700  1.0
  Ni  Ni639  1  0.09860467  0.26542967  0.29250500  1.0
  Ni  Ni640  1  0.09860467  0.59876300  0.29250500  1.0
  Ni  Ni641  1  0.09860467  0.93209633  0.29250500  1.0
  Ni  Ni642  1  0.43193800  0.26542967  0.29250500  1.0
  Ni  Ni643  1  0.43193800  0.59876300  0.29250500  1.0
  Ni  Ni644  1  0.43193800  0.93209633  0.29250500  1.0
  Ni  Ni645  1  0.76527133  0.26542967  0.29250500  1.0
  Ni  Ni646  1  0.76527133  0.59876300  0.29250500  1.0
  Ni  Ni647  1  0.76527133  0.93209633  0.29250500  1.0
  Ni  Ni648  1  0.26384933  0.09919600  0.29208114  1.0
  Ni  Ni649  1  0.26384933  0.43252933  0.29208114  1.0
  Ni  Ni650  1  0.26384933  0.76586267  0.29208114  1.0
  Ni  Ni651  1  0.59718267  0.09919600  0.29208114  1.0
  Ni  Ni652  1  0.59718267  0.43252933  0.29208114  1.0
  Ni  Ni653  1  0.59718267  0.76586267  0.29208114  1.0
  Ni  Ni654  1  0.93051600  0.09919600  0.29208114  1.0
  Ni  Ni655  1  0.93051600  0.43252933  0.29208114  1.0
  Ni  Ni656  1  0.93051600  0.76586267  0.29208114  1.0
  Ni  Ni657  1  0.26542967  0.09860467  0.36386571  1.0
  Ni  Ni658  1  0.26542967  0.43193800  0.36386571  1.0
  Ni  Ni659  1  0.26542967  0.76527133  0.36386571  1.0
  Ni  Ni660  1  0.59876300  0.09860467  0.36386571  1.0
  Ni  Ni661  1  0.59876300  0.43193800  0.36386571  1.0
  Ni  Ni662  1  0.59876300  0.76527133  0.36386571  1.0
  Ni  Ni663  1  0.93209633  0.09860467  0.36386571  1.0
  Ni  Ni664  1  0.93209633  0.43193800  0.36386571  1.0
  Ni  Ni665  1  0.93209633  0.76527133  0.36386571  1.0
  Ni  Ni666  1  0.09919600  0.26384933  0.36264686  1.0
  Ni  Ni667  1  0.09919600  0.59718267  0.36264686  1.0
  Ni  Ni668  1  0.09919600  0.93051600  0.36264686  1.0
  Ni  Ni669  1  0.43252933  0.26384933  0.36264686  1.0
  Ni  Ni670  1  0.43252933  0.59718267  0.36264686  1.0
  Ni  Ni671  1  0.43252933  0.93051600  0.36264686  1.0
  Ni  Ni672  1  0.76586267  0.26384933  0.36264686  1.0
  Ni  Ni673  1  0.76586267  0.59718267  0.36264686  1.0
  Ni  Ni674  1  0.76586267  0.93051600  0.36264686  1.0
  Ni  Ni675  1  0.09860467  0.09860467  0.29250500  1.0
  Ni  Ni676  1  0.09860467  0.43193800  0.29250500  1.0
  Ni  Ni677  1  0.09860467  0.76527133  0.29250500  1.0
  Ni  Ni678  1  0.43193800  0.09860467  0.29250500  1.0
  Ni  Ni679  1  0.43193800  0.43193800  0.29250500  1.0
  Ni  Ni680  1  0.43193800  0.76527133  0.29250500  1.0
  Ni  Ni681  1  0.76527133  0.09860467  0.29250500  1.0
  Ni  Ni682  1  0.76527133  0.43193800  0.29250500  1.0
  Ni  Ni683  1  0.76527133  0.76527133  0.29250500  1.0
  Ni  Ni684  1  0.26384933  0.26384933  0.29208114  1.0
  Ni  Ni685  1  0.26384933  0.59718267  0.29208114  1.0
  Ni  Ni686  1  0.26384933  0.93051600  0.29208114  1.0
  Ni  Ni687  1  0.59718267  0.26384933  0.29208114  1.0
  Ni  Ni688  1  0.59718267  0.59718267  0.29208114  1.0
  Ni  Ni689  1  0.59718267  0.93051600  0.29208114  1.0
  Ni  Ni690  1  0.93051600  0.26384933  0.29208114  1.0
  Ni  Ni691  1  0.93051600  0.59718267  0.29208114  1.0
  Ni  Ni692  1  0.93051600  0.93051600  0.29208114  1.0
  Ni  Ni693  1  0.16666667  0.16666667  0.42220457  1.0
  Ni  Ni694  1  0.16666667  0.50000000  0.42220457  1.0
  Ni  Ni695  1  0.16666667  0.83333333  0.42220457  1.0
  Ni  Ni696  1  0.50000000  0.16666667  0.42220457  1.0
  Ni  Ni697  1  0.50000000  0.50000000  0.42220457  1.0
  Ni  Ni698  1  0.50000000  0.83333333  0.42220457  1.0
  Ni  Ni699  1  0.83333333  0.16666667  0.42220457  1.0
  Ni  Ni700  1  0.83333333  0.50000000  0.42220457  1.0
  Ni  Ni701  1  0.83333333  0.83333333  0.42220457  1.0
