# generated using pymatgen
data_NbNi2
_symmetry_space_group_name_H-M   'P 1'
_cell_length_a   14.37819474
_cell_length_b   38.04112758
_cell_length_c   47.92731580
_cell_angle_alpha   40.89339465
_cell_angle_beta   60.00000000
_cell_angle_gamma   79.10660535
_symmetry_Int_Tables_number   1
_chemical_formula_structural   NbNi2
_chemical_formula_sum   'Nb144 Ni288'
_cell_volume   14012.21613130
_cell_formula_units_Z   144
loop_
 _symmetry_equiv_pos_site_id
 _symmetry_equiv_pos_as_xyz
  1  'x, y, z'
loop_
 _atom_site_type_symbol
 _atom_site_label
 _atom_site_symmetry_multiplicity
 _atom_site_fract_x
 _atom_site_fract_y
 _atom_site_fract_z
 _atom_site_occupancy
  Nb  Nb0  1  0.25000000  0.04166667  0.02187500  1.0
  Nb  Nb1  1  0.25000000  0.37500000  0.02187500  1.0
  Nb  Nb2  1  0.25000000  0.70833333  0.02187500  1.0
  Nb  Nb3  1  0.58333333  0.04166667  0.02187500  1.0
  Nb  Nb4  1  0.58333333  0.37500000  0.02187500  1.0
  Nb  Nb5  1  0.58333333  0.70833333  0.02187500  1.0
  Nb  Nb6  1  0.91666667  0.04166667  0.02187500  1.0
  Nb  Nb7  1  0.91666667  0.37500000  0.02187500  1.0
  Nb  Nb8  1  0.91666667  0.70833333  0.02187500  1.0
  Nb  Nb9  1  0.25000000  0.20833333  0.07187500  1.0
  Nb  Nb10  1  0.25000000  0.54166667  0.07187500  1.0
  Nb  Nb11  1  0.25000000  0.87500000  0.07187500  1.0
  Nb  Nb12  1  0.58333333  0.20833333  0.07187500  1.0
  Nb  Nb13  1  0.58333333  0.54166667  0.07187500  1.0
  Nb  Nb14  1  0.58333333  0.87500000  0.07187500  1.0
  Nb  Nb15  1  0.91666667  0.20833333  0.07187500  1.0
  Nb  Nb16  1  0.91666667  0.54166667  0.07187500  1.0
  Nb  Nb17  1  0.91666667  0.87500000  0.07187500  1.0
  Nb  Nb18  1  0.16666667  0.08333333  0.05937500  1.0
  Nb  Nb19  1  0.16666667  0.41666667  0.05937500  1.0
  Nb  Nb20  1  0.16666667  0.75000000  0.05937500  1.0
  Nb  Nb21  1  0.50000000  0.08333333  0.05937500  1.0
  Nb  Nb22  1  0.50000000  0.41666667  0.05937500  1.0
  Nb  Nb23  1  0.50000000  0.75000000  0.05937500  1.0
  Nb  Nb24  1  0.83333333  0.08333333  0.05937500  1.0
  Nb  Nb25  1  0.83333333  0.41666667  0.05937500  1.0
  Nb  Nb26  1  0.83333333  0.75000000  0.05937500  1.0
  Nb  Nb27  1  0.16666667  0.25000000  0.00937500  1.0
  Nb  Nb28  1  0.16666667  0.58333333  0.00937500  1.0
  Nb  Nb29  1  0.16666667  0.91666667  0.00937500  1.0
  Nb  Nb30  1  0.50000000  0.25000000  0.00937500  1.0
  Nb  Nb31  1  0.50000000  0.58333333  0.00937500  1.0
  Nb  Nb32  1  0.50000000  0.91666667  0.00937500  1.0
  Nb  Nb33  1  0.83333333  0.25000000  0.00937500  1.0
  Nb  Nb34  1  0.83333333  0.58333333  0.00937500  1.0
  Nb  Nb35  1  0.83333333  0.91666667  0.00937500  1.0
  Ni  Ni36  1  0.04166667  0.06250000  0.04062500  1.0
  Ni  Ni37  1  0.04166667  0.39583333  0.04062500  1.0
  Ni  Ni38  1  0.04166667  0.72916667  0.04062500  1.0
  Ni  Ni39  1  0.37500000  0.06250000  0.04062500  1.0
  Ni  Ni40  1  0.37500000  0.39583333  0.04062500  1.0
  Ni  Ni41  1  0.37500000  0.72916667  0.04062500  1.0
  Ni  Ni42  1  0.70833333  0.06250000  0.04062500  1.0
  Ni  Ni43  1  0.70833333  0.39583333  0.04062500  1.0
  Ni  Ni44  1  0.70833333  0.72916667  0.04062500  1.0
  Ni  Ni45  1  0.04166667  0.22916667  0.09062500  1.0
  Ni  Ni46  1  0.04166667  0.56250000  0.09062500  1.0
  Ni  Ni47  1  0.04166667  0.89583333  0.09062500  1.0
  Ni  Ni48  1  0.37500000  0.22916667  0.09062500  1.0
  Ni  Ni49  1  0.37500000  0.56250000  0.09062500  1.0
  Ni  Ni50  1  0.37500000  0.89583333  0.09062500  1.0
  Ni  Ni51  1  0.70833333  0.22916667  0.09062500  1.0
  Ni  Ni52  1  0.70833333  0.56250000  0.09062500  1.0
  Ni  Ni53  1  0.70833333  0.89583333  0.09062500  1.0
  Ni  Ni54  1  0.20833333  0.14583333  0.06562500  1.0
  Ni  Ni55  1  0.20833333  0.47916667  0.06562500  1.0
  Ni  Ni56  1  0.20833333  0.81250000  0.06562500  1.0
  Ni  Ni57  1  0.54166667  0.14583333  0.06562500  1.0
  Ni  Ni58  1  0.54166667  0.47916667  0.06562500  1.0
  Ni  Ni59  1  0.54166667  0.81250000  0.06562500  1.0
  Ni  Ni60  1  0.87500000  0.14583333  0.06562500  1.0
  Ni  Ni61  1  0.87500000  0.47916667  0.06562500  1.0
  Ni  Ni62  1  0.87500000  0.81250000  0.06562500  1.0
  Ni  Ni63  1  0.20833333  0.31250000  0.01562500  1.0
  Ni  Ni64  1  0.20833333  0.64583333  0.01562500  1.0
  Ni  Ni65  1  0.20833333  0.97916667  0.01562500  1.0
  Ni  Ni66  1  0.54166667  0.31250000  0.01562500  1.0
  Ni  Ni67  1  0.54166667  0.64583333  0.01562500  1.0
  Ni  Ni68  1  0.54166667  0.97916667  0.01562500  1.0
  Ni  Ni69  1  0.87500000  0.31250000  0.01562500  1.0
  Ni  Ni70  1  0.87500000  0.64583333  0.01562500  1.0
  Ni  Ni71  1  0.87500000  0.97916667  0.01562500  1.0
  Ni  Ni72  1  0.04166667  0.14583333  0.06562500  1.0
  Ni  Ni73  1  0.04166667  0.47916667  0.06562500  1.0
  Ni  Ni74  1  0.04166667  0.81250000  0.06562500  1.0
  Ni  Ni75  1  0.37500000  0.14583333  0.06562500  1.0
  Ni  Ni76  1  0.37500000  0.47916667  0.06562500  1.0
  Ni  Ni77  1  0.37500000  0.81250000  0.06562500  1.0
  Ni  Ni78  1  0.70833333  0.14583333  0.06562500  1.0
  Ni  Ni79  1  0.70833333  0.47916667  0.06562500  1.0
  Ni  Ni80  1  0.70833333  0.81250000  0.06562500  1.0
  Ni  Ni81  1  0.04166667  0.31250000  0.01562500  1.0
  Ni  Ni82  1  0.04166667  0.64583333  0.01562500  1.0
  Ni  Ni83  1  0.04166667  0.97916667  0.01562500  1.0
  Ni  Ni84  1  0.37500000  0.31250000  0.01562500  1.0
  Ni  Ni85  1  0.37500000  0.64583333  0.01562500  1.0
  Ni  Ni86  1  0.37500000  0.97916667  0.01562500  1.0
  Ni  Ni87  1  0.70833333  0.31250000  0.01562500  1.0
  Ni  Ni88  1  0.70833333  0.64583333  0.01562500  1.0
  Ni  Ni89  1  0.70833333  0.97916667  0.01562500  1.0
  Ni  Ni90  1  0.04166667  0.14583333  0.01562500  1.0
  Ni  Ni91  1  0.04166667  0.47916667  0.01562500  1.0
  Ni  Ni92  1  0.04166667  0.81250000  0.01562500  1.0
  Ni  Ni93  1  0.37500000  0.14583333  0.01562500  1.0
  Ni  Ni94  1  0.37500000  0.47916667  0.01562500  1.0
  Ni  Ni95  1  0.37500000  0.81250000  0.01562500  1.0
  Ni  Ni96  1  0.70833333  0.14583333  0.01562500  1.0
  Ni  Ni97  1  0.70833333  0.47916667  0.01562500  1.0
  Ni  Ni98  1  0.70833333  0.81250000  0.01562500  1.0
  Ni  Ni99  1  0.04166667  0.31250000  0.06562500  1.0
  Ni  Ni100  1  0.04166667  0.64583333  0.06562500  1.0
  Ni  Ni101  1  0.04166667  0.97916667  0.06562500  1.0
  Ni  Ni102  1  0.37500000  0.31250000  0.06562500  1.0
  Ni  Ni103  1  0.37500000  0.64583333  0.06562500  1.0
  Ni  Ni104  1  0.37500000  0.97916667  0.06562500  1.0
  Ni  Ni105  1  0.70833333  0.31250000  0.06562500  1.0
  Ni  Ni106  1  0.70833333  0.64583333  0.06562500  1.0
  Ni  Ni107  1  0.70833333  0.97916667  0.06562500  1.0
  Nb  Nb108  1  0.25000000  0.04166667  0.12187500  1.0
  Nb  Nb109  1  0.25000000  0.37500000  0.12187500  1.0
  Nb  Nb110  1  0.25000000  0.70833333  0.12187500  1.0
  Nb  Nb111  1  0.58333333  0.04166667  0.12187500  1.0
  Nb  Nb112  1  0.58333333  0.37500000  0.12187500  1.0
  Nb  Nb113  1  0.58333333  0.70833333  0.12187500  1.0
  Nb  Nb114  1  0.91666667  0.04166667  0.12187500  1.0
  Nb  Nb115  1  0.91666667  0.37500000  0.12187500  1.0
  Nb  Nb116  1  0.91666667  0.70833333  0.12187500  1.0
  Nb  Nb117  1  0.25000000  0.20833333  0.17187500  1.0
  Nb  Nb118  1  0.25000000  0.54166667  0.17187500  1.0
  Nb  Nb119  1  0.25000000  0.87500000  0.17187500  1.0
  Nb  Nb120  1  0.58333333  0.20833333  0.17187500  1.0
  Nb  Nb121  1  0.58333333  0.54166667  0.17187500  1.0
  Nb  Nb122  1  0.58333333  0.87500000  0.17187500  1.0
  Nb  Nb123  1  0.91666667  0.20833333  0.17187500  1.0
  Nb  Nb124  1  0.91666667  0.54166667  0.17187500  1.0
  Nb  Nb125  1  0.91666667  0.87500000  0.17187500  1.0
  Nb  Nb126  1  0.16666667  0.08333333  0.15937500  1.0
  Nb  Nb127  1  0.16666667  0.41666667  0.15937500  1.0
  Nb  Nb128  1  0.16666667  0.75000000  0.15937500  1.0
  Nb  Nb129  1  0.50000000  0.08333333  0.15937500  1.0
  Nb  Nb130  1  0.50000000  0.41666667  0.15937500  1.0
  Nb  Nb131  1  0.50000000  0.75000000  0.15937500  1.0
  Nb  Nb132  1  0.83333333  0.08333333  0.15937500  1.0
  Nb  Nb133  1  0.83333333  0.41666667  0.15937500  1.0
  Nb  Nb134  1  0.83333333  0.75000000  0.15937500  1.0
  Nb  Nb135  1  0.16666667  0.25000000  0.10937500  1.0
  Nb  Nb136  1  0.16666667  0.58333333  0.10937500  1.0
  Nb  Nb137  1  0.16666667  0.91666667  0.10937500  1.0
  Nb  Nb138  1  0.50000000  0.25000000  0.10937500  1.0
  Nb  Nb139  1  0.50000000  0.58333333  0.10937500  1.0
  Nb  Nb140  1  0.50000000  0.91666667  0.10937500  1.0
  Nb  Nb141  1  0.83333333  0.25000000  0.10937500  1.0
  Nb  Nb142  1  0.83333333  0.58333333  0.10937500  1.0
  Nb  Nb143  1  0.83333333  0.91666667  0.10937500  1.0
  Ni  Ni144  1  0.04166667  0.06250000  0.14062500  1.0
  Ni  Ni145  1  0.04166667  0.39583333  0.14062500  1.0
  Ni  Ni146  1  0.04166667  0.72916667  0.14062500  1.0
  Ni  Ni147  1  0.37500000  0.06250000  0.14062500  1.0
  Ni  Ni148  1  0.37500000  0.39583333  0.14062500  1.0
  Ni  Ni149  1  0.37500000  0.72916667  0.14062500  1.0
  Ni  Ni150  1  0.70833333  0.06250000  0.14062500  1.0
  Ni  Ni151  1  0.70833333  0.39583333  0.14062500  1.0
  Ni  Ni152  1  0.70833333  0.72916667  0.14062500  1.0
  Ni  Ni153  1  0.04166667  0.22916667  0.19062500  1.0
  Ni  Ni154  1  0.04166667  0.56250000  0.19062500  1.0
  Ni  Ni155  1  0.04166667  0.89583333  0.19062500  1.0
  Ni  Ni156  1  0.37500000  0.22916667  0.19062500  1.0
  Ni  Ni157  1  0.37500000  0.56250000  0.19062500  1.0
  Ni  Ni158  1  0.37500000  0.89583333  0.19062500  1.0
  Ni  Ni159  1  0.70833333  0.22916667  0.19062500  1.0
  Ni  Ni160  1  0.70833333  0.56250000  0.19062500  1.0
  Ni  Ni161  1  0.70833333  0.89583333  0.19062500  1.0
  Ni  Ni162  1  0.20833333  0.14583333  0.16562500  1.0
  Ni  Ni163  1  0.20833333  0.47916667  0.16562500  1.0
  Ni  Ni164  1  0.20833333  0.81250000  0.16562500  1.0
  Ni  Ni165  1  0.54166667  0.14583333  0.16562500  1.0
  Ni  Ni166  1  0.54166667  0.47916667  0.16562500  1.0
  Ni  Ni167  1  0.54166667  0.81250000  0.16562500  1.0
  Ni  Ni168  1  0.87500000  0.14583333  0.16562500  1.0
  Ni  Ni169  1  0.87500000  0.47916667  0.16562500  1.0
  Ni  Ni170  1  0.87500000  0.81250000  0.16562500  1.0
  Ni  Ni171  1  0.20833333  0.31250000  0.11562500  1.0
  Ni  Ni172  1  0.20833333  0.64583333  0.11562500  1.0
  Ni  Ni173  1  0.20833333  0.97916667  0.11562500  1.0
  Ni  Ni174  1  0.54166667  0.31250000  0.11562500  1.0
  Ni  Ni175  1  0.54166667  0.64583333  0.11562500  1.0
  Ni  Ni176  1  0.54166667  0.97916667  0.11562500  1.0
  Ni  Ni177  1  0.87500000  0.31250000  0.11562500  1.0
  Ni  Ni178  1  0.87500000  0.64583333  0.11562500  1.0
  Ni  Ni179  1  0.87500000  0.97916667  0.11562500  1.0
  Ni  Ni180  1  0.04166667  0.14583333  0.16562500  1.0
  Ni  Ni181  1  0.04166667  0.47916667  0.16562500  1.0
  Ni  Ni182  1  0.04166667  0.81250000  0.16562500  1.0
  Ni  Ni183  1  0.37500000  0.14583333  0.16562500  1.0
  Ni  Ni184  1  0.37500000  0.47916667  0.16562500  1.0
  Ni  Ni185  1  0.37500000  0.81250000  0.16562500  1.0
  Ni  Ni186  1  0.70833333  0.14583333  0.16562500  1.0
  Ni  Ni187  1  0.70833333  0.47916667  0.16562500  1.0
  Ni  Ni188  1  0.70833333  0.81250000  0.16562500  1.0
  Ni  Ni189  1  0.04166667  0.31250000  0.11562500  1.0
  Ni  Ni190  1  0.04166667  0.64583333  0.11562500  1.0
  Ni  Ni191  1  0.04166667  0.97916667  0.11562500  1.0
  Ni  Ni192  1  0.37500000  0.31250000  0.11562500  1.0
  Ni  Ni193  1  0.37500000  0.64583333  0.11562500  1.0
  Ni  Ni194  1  0.37500000  0.97916667  0.11562500  1.0
  Ni  Ni195  1  0.70833333  0.31250000  0.11562500  1.0
  Ni  Ni196  1  0.70833333  0.64583333  0.11562500  1.0
  Ni  Ni197  1  0.70833333  0.97916667  0.11562500  1.0
  Ni  Ni198  1  0.04166667  0.14583333  0.11562500  1.0
  Ni  Ni199  1  0.04166667  0.47916667  0.11562500  1.0
  Ni  Ni200  1  0.04166667  0.81250000  0.11562500  1.0
  Ni  Ni201  1  0.37500000  0.14583333  0.11562500  1.0
  Ni  Ni202  1  0.37500000  0.47916667  0.11562500  1.0
  Ni  Ni203  1  0.37500000  0.81250000  0.11562500  1.0
  Ni  Ni204  1  0.70833333  0.14583333  0.11562500  1.0
  Ni  Ni205  1  0.70833333  0.47916667  0.11562500  1.0
  Ni  Ni206  1  0.70833333  0.81250000  0.11562500  1.0
  Ni  Ni207  1  0.04166667  0.31250000  0.16562500  1.0
  Ni  Ni208  1  0.04166667  0.64583333  0.16562500  1.0
  Ni  Ni209  1  0.04166667  0.97916667  0.16562500  1.0
  Ni  Ni210  1  0.37500000  0.31250000  0.16562500  1.0
  Ni  Ni211  1  0.37500000  0.64583333  0.16562500  1.0
  Ni  Ni212  1  0.37500000  0.97916667  0.16562500  1.0
  Ni  Ni213  1  0.70833333  0.31250000  0.16562500  1.0
  Ni  Ni214  1  0.70833333  0.64583333  0.16562500  1.0
  Ni  Ni215  1  0.70833333  0.97916667  0.16562500  1.0
  Nb  Nb216  1  0.25000000  0.04166667  0.22187500  1.0
  Nb  Nb217  1  0.25000000  0.37500000  0.22187500  1.0
  Nb  Nb218  1  0.25000000  0.70833333  0.22187500  1.0
  Nb  Nb219  1  0.58333333  0.04166667  0.22187500  1.0
  Nb  Nb220  1  0.58333333  0.37500000  0.22187500  1.0
  Nb  Nb221  1  0.58333333  0.70833333  0.22187500  1.0
  Nb  Nb222  1  0.91666667  0.04166667  0.22187500  1.0
  Nb  Nb223  1  0.91666667  0.37500000  0.22187500  1.0
  Nb  Nb224  1  0.91666667  0.70833333  0.22187500  1.0
  Nb  Nb225  1  0.25000000  0.20833333  0.27187500  1.0
  Nb  Nb226  1  0.25000000  0.54166667  0.27187500  1.0
  Nb  Nb227  1  0.25000000  0.87500000  0.27187500  1.0
  Nb  Nb228  1  0.58333333  0.20833333  0.27187500  1.0
  Nb  Nb229  1  0.58333333  0.54166667  0.27187500  1.0
  Nb  Nb230  1  0.58333333  0.87500000  0.27187500  1.0
  Nb  Nb231  1  0.91666667  0.20833333  0.27187500  1.0
  Nb  Nb232  1  0.91666667  0.54166667  0.27187500  1.0
  Nb  Nb233  1  0.91666667  0.87500000  0.27187500  1.0
  Nb  Nb234  1  0.16666667  0.08333333  0.25937500  1.0
  Nb  Nb235  1  0.16666667  0.41666667  0.25937500  1.0
  Nb  Nb236  1  0.16666667  0.75000000  0.25937500  1.0
  Nb  Nb237  1  0.50000000  0.08333333  0.25937500  1.0
  Nb  Nb238  1  0.50000000  0.41666667  0.25937500  1.0
  Nb  Nb239  1  0.50000000  0.75000000  0.25937500  1.0
  Nb  Nb240  1  0.83333333  0.08333333  0.25937500  1.0
  Nb  Nb241  1  0.83333333  0.41666667  0.25937500  1.0
  Nb  Nb242  1  0.83333333  0.75000000  0.25937500  1.0
  Nb  Nb243  1  0.16666667  0.25000000  0.20937500  1.0
  Nb  Nb244  1  0.16666667  0.58333333  0.20937500  1.0
  Nb  Nb245  1  0.16666667  0.91666667  0.20937500  1.0
  Nb  Nb246  1  0.50000000  0.25000000  0.20937500  1.0
  Nb  Nb247  1  0.50000000  0.58333333  0.20937500  1.0
  Nb  Nb248  1  0.50000000  0.91666667  0.20937500  1.0
  Nb  Nb249  1  0.83333333  0.25000000  0.20937500  1.0
  Nb  Nb250  1  0.83333333  0.58333333  0.20937500  1.0
  Nb  Nb251  1  0.83333333  0.91666667  0.20937500  1.0
  Ni  Ni252  1  0.04166667  0.06250000  0.24062500  1.0
  Ni  Ni253  1  0.04166667  0.39583333  0.24062500  1.0
  Ni  Ni254  1  0.04166667  0.72916667  0.24062500  1.0
  Ni  Ni255  1  0.37500000  0.06250000  0.24062500  1.0
  Ni  Ni256  1  0.37500000  0.39583333  0.24062500  1.0
  Ni  Ni257  1  0.37500000  0.72916667  0.24062500  1.0
  Ni  Ni258  1  0.70833333  0.06250000  0.24062500  1.0
  Ni  Ni259  1  0.70833333  0.39583333  0.24062500  1.0
  Ni  Ni260  1  0.70833333  0.72916667  0.24062500  1.0
  Ni  Ni261  1  0.04166667  0.22916667  0.29062500  1.0
  Ni  Ni262  1  0.04166667  0.56250000  0.29062500  1.0
  Ni  Ni263  1  0.04166667  0.89583333  0.29062500  1.0
  Ni  Ni264  1  0.37500000  0.22916667  0.29062500  1.0
  Ni  Ni265  1  0.37500000  0.56250000  0.29062500  1.0
  Ni  Ni266  1  0.37500000  0.89583333  0.29062500  1.0
  Ni  Ni267  1  0.70833333  0.22916667  0.29062500  1.0
  Ni  Ni268  1  0.70833333  0.56250000  0.29062500  1.0
  Ni  Ni269  1  0.70833333  0.89583333  0.29062500  1.0
  Ni  Ni270  1  0.20833333  0.14583333  0.26562500  1.0
  Ni  Ni271  1  0.20833333  0.47916667  0.26562500  1.0
  Ni  Ni272  1  0.20833333  0.81250000  0.26562500  1.0
  Ni  Ni273  1  0.54166667  0.14583333  0.26562500  1.0
  Ni  Ni274  1  0.54166667  0.47916667  0.26562500  1.0
  Ni  Ni275  1  0.54166667  0.81250000  0.26562500  1.0
  Ni  Ni276  1  0.87500000  0.14583333  0.26562500  1.0
  Ni  Ni277  1  0.87500000  0.47916667  0.26562500  1.0
  Ni  Ni278  1  0.87500000  0.81250000  0.26562500  1.0
  Ni  Ni279  1  0.20833333  0.31250000  0.21562500  1.0
  Ni  Ni280  1  0.20833333  0.64583333  0.21562500  1.0
  Ni  Ni281  1  0.20833333  0.97916667  0.21562500  1.0
  Ni  Ni282  1  0.54166667  0.31250000  0.21562500  1.0
  Ni  Ni283  1  0.54166667  0.64583333  0.21562500  1.0
  Ni  Ni284  1  0.54166667  0.97916667  0.21562500  1.0
  Ni  Ni285  1  0.87500000  0.31250000  0.21562500  1.0
  Ni  Ni286  1  0.87500000  0.64583333  0.21562500  1.0
  Ni  Ni287  1  0.87500000  0.97916667  0.21562500  1.0
  Ni  Ni288  1  0.04166667  0.14583333  0.26562500  1.0
  Ni  Ni289  1  0.04166667  0.47916667  0.26562500  1.0
  Ni  Ni290  1  0.04166667  0.81250000  0.26562500  1.0
  Ni  Ni291  1  0.37500000  0.14583333  0.26562500  1.0
  Ni  Ni292  1  0.37500000  0.47916667  0.26562500  1.0
  Ni  Ni293  1  0.37500000  0.81250000  0.26562500  1.0
  Ni  Ni294  1  0.70833333  0.14583333  0.26562500  1.0
  Ni  Ni295  1  0.70833333  0.47916667  0.26562500  1.0
  Ni  Ni296  1  0.70833333  0.81250000  0.26562500  1.0
  Ni  Ni297  1  0.04166667  0.31250000  0.21562500  1.0
  Ni  Ni298  1  0.04166667  0.64583333  0.21562500  1.0
  Ni  Ni299  1  0.04166667  0.97916667  0.21562500  1.0
  Ni  Ni300  1  0.37500000  0.31250000  0.21562500  1.0
  Ni  Ni301  1  0.37500000  0.64583333  0.21562500  1.0
  Ni  Ni302  1  0.37500000  0.97916667  0.21562500  1.0
  Ni  Ni303  1  0.70833333  0.31250000  0.21562500  1.0
  Ni  Ni304  1  0.70833333  0.64583333  0.21562500  1.0
  Ni  Ni305  1  0.70833333  0.97916667  0.21562500  1.0
  Ni  Ni306  1  0.04166667  0.14583333  0.21562500  1.0
  Ni  Ni307  1  0.04166667  0.47916667  0.21562500  1.0
  Ni  Ni308  1  0.04166667  0.81250000  0.21562500  1.0
  Ni  Ni309  1  0.37500000  0.14583333  0.21562500  1.0
  Ni  Ni310  1  0.37500000  0.47916667  0.21562500  1.0
  Ni  Ni311  1  0.37500000  0.81250000  0.21562500  1.0
  Ni  Ni312  1  0.70833333  0.14583333  0.21562500  1.0
  Ni  Ni313  1  0.70833333  0.47916667  0.21562500  1.0
  Ni  Ni314  1  0.70833333  0.81250000  0.21562500  1.0
  Ni  Ni315  1  0.04166667  0.31250000  0.26562500  1.0
  Ni  Ni316  1  0.04166667  0.64583333  0.26562500  1.0
  Ni  Ni317  1  0.04166667  0.97916667  0.26562500  1.0
  Ni  Ni318  1  0.37500000  0.31250000  0.26562500  1.0
  Ni  Ni319  1  0.37500000  0.64583333  0.26562500  1.0
  Ni  Ni320  1  0.37500000  0.97916667  0.26562500  1.0
  Ni  Ni321  1  0.70833333  0.31250000  0.26562500  1.0
  Ni  Ni322  1  0.70833333  0.64583333  0.26562500  1.0
  Ni  Ni323  1  0.70833333  0.97916667  0.26562500  1.0
  Nb  Nb324  1  0.25000000  0.04166667  0.32187500  1.0
  Nb  Nb325  1  0.25000000  0.37500000  0.32187500  1.0
  Nb  Nb326  1  0.25000000  0.70833333  0.32187500  1.0
  Nb  Nb327  1  0.58333333  0.04166667  0.32187500  1.0
  Nb  Nb328  1  0.58333333  0.37500000  0.32187500  1.0
  Nb  Nb329  1  0.58333333  0.70833333  0.32187500  1.0
  Nb  Nb330  1  0.91666667  0.04166667  0.32187500  1.0
  Nb  Nb331  1  0.91666667  0.37500000  0.32187500  1.0
  Nb  Nb332  1  0.91666667  0.70833333  0.32187500  1.0
  Nb  Nb333  1  0.25000000  0.20833333  0.37187500  1.0
  Nb  Nb334  1  0.25000000  0.54166667  0.37187500  1.0
  Nb  Nb335  1  0.25000000  0.87500000  0.37187500  1.0
  Nb  Nb336  1  0.58333333  0.20833333  0.37187500  1.0
  Nb  Nb337  1  0.58333333  0.54166667  0.37187500  1.0
  Nb  Nb338  1  0.58333333  0.87500000  0.37187500  1.0
  Nb  Nb339  1  0.91666667  0.20833333  0.37187500  1.0
  Nb  Nb340  1  0.91666667  0.54166667  0.37187500  1.0
  Nb  Nb341  1  0.91666667  0.87500000  0.37187500  1.0
  Nb  Nb342  1  0.16666667  0.08333333  0.35937500  1.0
  Nb  Nb343  1  0.16666667  0.41666667  0.35937500  1.0
  Nb  Nb344  1  0.16666667  0.75000000  0.35937500  1.0
  Nb  Nb345  1  0.50000000  0.08333333  0.35937500  1.0
  Nb  Nb346  1  0.50000000  0.41666667  0.35937500  1.0
  Nb  Nb347  1  0.50000000  0.75000000  0.35937500  1.0
  Nb  Nb348  1  0.83333333  0.08333333  0.35937500  1.0
  Nb  Nb349  1  0.83333333  0.41666667  0.35937500  1.0
  Nb  Nb350  1  0.83333333  0.75000000  0.35937500  1.0
  Nb  Nb351  1  0.16666667  0.25000000  0.30937500  1.0
  Nb  Nb352  1  0.16666667  0.58333333  0.30937500  1.0
  Nb  Nb353  1  0.16666667  0.91666667  0.30937500  1.0
  Nb  Nb354  1  0.50000000  0.25000000  0.30937500  1.0
  Nb  Nb355  1  0.50000000  0.58333333  0.30937500  1.0
  Nb  Nb356  1  0.50000000  0.91666667  0.30937500  1.0
  Nb  Nb357  1  0.83333333  0.25000000  0.30937500  1.0
  Nb  Nb358  1  0.83333333  0.58333333  0.30937500  1.0
  Nb  Nb359  1  0.83333333  0.91666667  0.30937500  1.0
  Ni  Ni360  1  0.04166667  0.06250000  0.34062500  1.0
  Ni  Ni361  1  0.04166667  0.39583333  0.34062500  1.0
  Ni  Ni362  1  0.04166667  0.72916667  0.34062500  1.0
  Ni  Ni363  1  0.37500000  0.06250000  0.34062500  1.0
  Ni  Ni364  1  0.37500000  0.39583333  0.34062500  1.0
  Ni  Ni365  1  0.37500000  0.72916667  0.34062500  1.0
  Ni  Ni366  1  0.70833333  0.06250000  0.34062500  1.0
  Ni  Ni367  1  0.70833333  0.39583333  0.34062500  1.0
  Ni  Ni368  1  0.70833333  0.72916667  0.34062500  1.0
  Ni  Ni369  1  0.04166667  0.22916667  0.39062500  1.0
  Ni  Ni370  1  0.04166667  0.56250000  0.39062500  1.0
  Ni  Ni371  1  0.04166667  0.89583333  0.39062500  1.0
  Ni  Ni372  1  0.37500000  0.22916667  0.39062500  1.0
  Ni  Ni373  1  0.37500000  0.56250000  0.39062500  1.0
  Ni  Ni374  1  0.37500000  0.89583333  0.39062500  1.0
  Ni  Ni375  1  0.70833333  0.22916667  0.39062500  1.0
  Ni  Ni376  1  0.70833333  0.56250000  0.39062500  1.0
  Ni  Ni377  1  0.70833333  0.89583333  0.39062500  1.0
  Ni  Ni378  1  0.20833333  0.14583333  0.36562500  1.0
  Ni  Ni379  1  0.20833333  0.47916667  0.36562500  1.0
  Ni  Ni380  1  0.20833333  0.81250000  0.36562500  1.0
  Ni  Ni381  1  0.54166667  0.14583333  0.36562500  1.0
  Ni  Ni382  1  0.54166667  0.47916667  0.36562500  1.0
  Ni  Ni383  1  0.54166667  0.81250000  0.36562500  1.0
  Ni  Ni384  1  0.87500000  0.14583333  0.36562500  1.0
  Ni  Ni385  1  0.87500000  0.47916667  0.36562500  1.0
  Ni  Ni386  1  0.87500000  0.81250000  0.36562500  1.0
  Ni  Ni387  1  0.20833333  0.31250000  0.31562500  1.0
  Ni  Ni388  1  0.20833333  0.64583333  0.31562500  1.0
  Ni  Ni389  1  0.20833333  0.97916667  0.31562500  1.0
  Ni  Ni390  1  0.54166667  0.31250000  0.31562500  1.0
  Ni  Ni391  1  0.54166667  0.64583333  0.31562500  1.0
  Ni  Ni392  1  0.54166667  0.97916667  0.31562500  1.0
  Ni  Ni393  1  0.87500000  0.31250000  0.31562500  1.0
  Ni  Ni394  1  0.87500000  0.64583333  0.31562500  1.0
  Ni  Ni395  1  0.87500000  0.97916667  0.31562500  1.0
  Ni  Ni396  1  0.04166667  0.14583333  0.36562500  1.0
  Ni  Ni397  1  0.04166667  0.47916667  0.36562500  1.0
  Ni  Ni398  1  0.04166667  0.81250000  0.36562500  1.0
  Ni  Ni399  1  0.37500000  0.14583333  0.36562500  1.0
  Ni  Ni400  1  0.37500000  0.47916667  0.36562500  1.0
  Ni  Ni401  1  0.37500000  0.81250000  0.36562500  1.0
  Ni  Ni402  1  0.70833333  0.14583333  0.36562500  1.0
  Ni  Ni403  1  0.70833333  0.47916667  0.36562500  1.0
  Ni  Ni404  1  0.70833333  0.81250000  0.36562500  1.0
  Ni  Ni405  1  0.04166667  0.31250000  0.31562500  1.0
  Ni  Ni406  1  0.04166667  0.64583333  0.31562500  1.0
  Ni  Ni407  1  0.04166667  0.97916667  0.31562500  1.0
  Ni  Ni408  1  0.37500000  0.31250000  0.31562500  1.0
  Ni  Ni409  1  0.37500000  0.64583333  0.31562500  1.0
  Ni  Ni410  1  0.37500000  0.97916667  0.31562500  1.0
  Ni  Ni411  1  0.70833333  0.31250000  0.31562500  1.0
  Ni  Ni412  1  0.70833333  0.64583333  0.31562500  1.0
  Ni  Ni413  1  0.70833333  0.97916667  0.31562500  1.0
  Ni  Ni414  1  0.04166667  0.14583333  0.31562500  1.0
  Ni  Ni415  1  0.04166667  0.47916667  0.31562500  1.0
  Ni  Ni416  1  0.04166667  0.81250000  0.31562500  1.0
  Ni  Ni417  1  0.37500000  0.14583333  0.31562500  1.0
  Ni  Ni418  1  0.37500000  0.47916667  0.31562500  1.0
  Ni  Ni419  1  0.37500000  0.81250000  0.31562500  1.0
  Ni  Ni420  1  0.70833333  0.14583333  0.31562500  1.0
  Ni  Ni421  1  0.70833333  0.47916667  0.31562500  1.0
  Ni  Ni422  1  0.70833333  0.81250000  0.31562500  1.0
  Ni  Ni423  1  0.04166667  0.31250000  0.36562500  1.0
  Ni  Ni424  1  0.04166667  0.64583333  0.36562500  1.0
  Ni  Ni425  1  0.04166667  0.97916667  0.36562500  1.0
  Ni  Ni426  1  0.37500000  0.31250000  0.36562500  1.0
  Ni  Ni427  1  0.37500000  0.64583333  0.36562500  1.0
  Ni  Ni428  1  0.37500000  0.97916667  0.36562500  1.0
  Ni  Ni429  1  0.70833333  0.31250000  0.36562500  1.0
  Ni  Ni430  1  0.70833333  0.64583333  0.36562500  1.0
  Ni  Ni431  1  0.70833333  0.97916667  0.36562500  1.0
