# generated using pymatgen
data_NbNi3
_symmetry_space_group_name_H-M   'P 1'
_cell_length_a   11.08643100
_cell_length_b   15.67858108
_cell_length_c   36.95477000
_cell_angle_alpha   135.00000000
_cell_angle_beta   90.00000000
_cell_angle_gamma   90.00000000
_symmetry_Int_Tables_number   1
_chemical_formula_structural   NbNi3
_chemical_formula_sum   'Nb36 Ni108'
_cell_volume   4542.07206384
_cell_formula_units_Z   36
loop_
 _symmetry_equiv_pos_site_id
 _symmetry_equiv_pos_as_xyz
  1  'x, y, z'
loop_
 _atom_site_type_symbol
 _atom_site_label
 _atom_site_symmetry_multiplicity
 _atom_site_fract_x
 _atom_site_fract_y
 _atom_site_fract_z
 _atom_site_occupancy
  Nb  Nb0  1  0.00000000  0.00000000  0.07500000  1.0
  Nb  Nb1  1  0.00000000  0.33333333  0.07500000  1.0
  Nb  Nb2  1  0.00000000  0.66666667  0.07500000  1.0
  Nb  Nb3  1  0.33333333  0.00000000  0.07500000  1.0
  Nb  Nb4  1  0.33333333  0.33333333  0.07500000  1.0
  Nb  Nb5  1  0.33333333  0.66666667  0.07500000  1.0
  Nb  Nb6  1  0.66666667  0.00000000  0.07500000  1.0
  Nb  Nb7  1  0.66666667  0.33333333  0.07500000  1.0
  Nb  Nb8  1  0.66666667  0.66666667  0.07500000  1.0
  Ni  Ni9  1  0.16666667  0.16666667  0.02500000  1.0
  Ni  Ni10  1  0.16666667  0.50000000  0.02500000  1.0
  Ni  Ni11  1  0.16666667  0.83333333  0.02500000  1.0
  Ni  Ni12  1  0.50000000  0.16666667  0.02500000  1.0
  Ni  Ni13  1  0.50000000  0.50000000  0.02500000  1.0
  Ni  Ni14  1  0.50000000  0.83333333  0.02500000  1.0
  Ni  Ni15  1  0.83333333  0.16666667  0.02500000  1.0
  Ni  Ni16  1  0.83333333  0.50000000  0.02500000  1.0
  Ni  Ni17  1  0.83333333  0.83333333  0.02500000  1.0
  Ni  Ni18  1  0.00000000  0.16666667  0.07500000  1.0
  Ni  Ni19  1  0.00000000  0.50000000  0.07500000  1.0
  Ni  Ni20  1  0.00000000  0.83333333  0.07500000  1.0
  Ni  Ni21  1  0.33333333  0.16666667  0.07500000  1.0
  Ni  Ni22  1  0.33333333  0.50000000  0.07500000  1.0
  Ni  Ni23  1  0.33333333  0.83333333  0.07500000  1.0
  Ni  Ni24  1  0.66666667  0.16666667  0.07500000  1.0
  Ni  Ni25  1  0.66666667  0.50000000  0.07500000  1.0
  Ni  Ni26  1  0.66666667  0.83333333  0.07500000  1.0
  Ni  Ni27  1  0.16666667  0.00000000  0.02500000  1.0
  Ni  Ni28  1  0.16666667  0.33333333  0.02500000  1.0
  Ni  Ni29  1  0.16666667  0.66666667  0.02500000  1.0
  Ni  Ni30  1  0.50000000  0.00000000  0.02500000  1.0
  Ni  Ni31  1  0.50000000  0.33333333  0.02500000  1.0
  Ni  Ni32  1  0.50000000  0.66666667  0.02500000  1.0
  Ni  Ni33  1  0.83333333  0.00000000  0.02500000  1.0
  Ni  Ni34  1  0.83333333  0.33333333  0.02500000  1.0
  Ni  Ni35  1  0.83333333  0.66666667  0.02500000  1.0
  Nb  Nb36  1  0.00000000  0.00000000  0.17500000  1.0
  Nb  Nb37  1  0.00000000  0.33333333  0.17500000  1.0
  Nb  Nb38  1  0.00000000  0.66666667  0.17500000  1.0
  Nb  Nb39  1  0.33333333  0.00000000  0.17500000  1.0
  Nb  Nb40  1  0.33333333  0.33333333  0.17500000  1.0
  Nb  Nb41  1  0.33333333  0.66666667  0.17500000  1.0
  Nb  Nb42  1  0.66666667  0.00000000  0.17500000  1.0
  Nb  Nb43  1  0.66666667  0.33333333  0.17500000  1.0
  Nb  Nb44  1  0.66666667  0.66666667  0.17500000  1.0
  Ni  Ni45  1  0.16666667  0.16666667  0.12500000  1.0
  Ni  Ni46  1  0.16666667  0.50000000  0.12500000  1.0
  Ni  Ni47  1  0.16666667  0.83333333  0.12500000  1.0
  Ni  Ni48  1  0.50000000  0.16666667  0.12500000  1.0
  Ni  Ni49  1  0.50000000  0.50000000  0.12500000  1.0
  Ni  Ni50  1  0.50000000  0.83333333  0.12500000  1.0
  Ni  Ni51  1  0.83333333  0.16666667  0.12500000  1.0
  Ni  Ni52  1  0.83333333  0.50000000  0.12500000  1.0
  Ni  Ni53  1  0.83333333  0.83333333  0.12500000  1.0
  Ni  Ni54  1  0.00000000  0.16666667  0.17500000  1.0
  Ni  Ni55  1  0.00000000  0.50000000  0.17500000  1.0
  Ni  Ni56  1  0.00000000  0.83333333  0.17500000  1.0
  Ni  Ni57  1  0.33333333  0.16666667  0.17500000  1.0
  Ni  Ni58  1  0.33333333  0.50000000  0.17500000  1.0
  Ni  Ni59  1  0.33333333  0.83333333  0.17500000  1.0
  Ni  Ni60  1  0.66666667  0.16666667  0.17500000  1.0
  Ni  Ni61  1  0.66666667  0.50000000  0.17500000  1.0
  Ni  Ni62  1  0.66666667  0.83333333  0.17500000  1.0
  Ni  Ni63  1  0.16666667  0.00000000  0.12500000  1.0
  Ni  Ni64  1  0.16666667  0.33333333  0.12500000  1.0
  Ni  Ni65  1  0.16666667  0.66666667  0.12500000  1.0
  Ni  Ni66  1  0.50000000  0.00000000  0.12500000  1.0
  Ni  Ni67  1  0.50000000  0.33333333  0.12500000  1.0
  Ni  Ni68  1  0.50000000  0.66666667  0.12500000  1.0
  Ni  Ni69  1  0.83333333  0.00000000  0.12500000  1.0
  Ni  Ni70  1  0.83333333  0.33333333  0.12500000  1.0
  Ni  Ni71  1  0.83333333  0.66666667  0.12500000  1.0
  Nb  Nb72  1  0.00000000  0.00000000  0.27500000  1.0
  Nb  Nb73  1  0.00000000  0.33333333  0.27500000  1.0
  Nb  Nb74  1  0.00000000  0.66666667  0.27500000  1.0
  Nb  Nb75  1  0.33333333  0.00000000  0.27500000  1.0
  Nb  Nb76  1  0.33333333  0.33333333  0.27500000  1.0
  Nb  Nb77  1  0.33333333  0.66666667  0.27500000  1.0
  Nb  Nb78  1  0.66666667  0.00000000  0.27500000  1.0
  Nb  Nb79  1  0.66666667  0.33333333  0.27500000  1.0
  Nb  Nb80  1  0.66666667  0.66666667  0.27500000  1.0
  Ni  Ni81  1  0.16666667  0.16666667  0.22500000  1.0
  Ni  Ni82  1  0.16666667  0.50000000  0.22500000  1.0
  Ni  Ni83  1  0.16666667  0.83333333  0.22500000  1.0
  Ni  Ni84  1  0.50000000  0.16666667  0.22500000  1.0
  Ni  Ni85  1  0.50000000  0.50000000  0.22500000  1.0
  Ni  Ni86  1  0.50000000  0.83333333  0.22500000  1.0
  Ni  Ni87  1  0.83333333  0.16666667  0.22500000  1.0
  Ni  Ni88  1  0.83333333  0.50000000  0.22500000  1.0
  Ni  Ni89  1  0.83333333  0.83333333  0.22500000  1.0
  Ni  Ni90  1  0.00000000  0.16666667  0.27500000  1.0
  Ni  Ni91  1  0.00000000  0.50000000  0.27500000  1.0
  Ni  Ni92  1  0.00000000  0.83333333  0.27500000  1.0
  Ni  Ni93  1  0.33333333  0.16666667  0.27500000  1.0
  Ni  Ni94  1  0.33333333  0.50000000  0.27500000  1.0
  Ni  Ni95  1  0.33333333  0.83333333  0.27500000  1.0
  Ni  Ni96  1  0.66666667  0.16666667  0.27500000  1.0
  Ni  Ni97  1  0.66666667  0.50000000  0.27500000  1.0
  Ni  Ni98  1  0.66666667  0.83333333  0.27500000  1.0
  Ni  Ni99  1  0.16666667  0.00000000  0.22500000  1.0
  Ni  Ni100  1  0.16666667  0.33333333  0.22500000  1.0
  Ni  Ni101  1  0.16666667  0.66666667  0.22500000  1.0
  Ni  Ni102  1  0.50000000  0.00000000  0.22500000  1.0
  Ni  Ni103  1  0.50000000  0.33333333  0.22500000  1.0
  Ni  Ni104  1  0.50000000  0.66666667  0.22500000  1.0
  Ni  Ni105  1  0.83333333  0.00000000  0.22500000  1.0
  Ni  Ni106  1  0.83333333  0.33333333  0.22500000  1.0
  Ni  Ni107  1  0.83333333  0.66666667  0.22500000  1.0
  Nb  Nb108  1  0.00000000  0.00000000  0.37500000  1.0
  Nb  Nb109  1  0.00000000  0.33333333  0.37500000  1.0
  Nb  Nb110  1  0.00000000  0.66666667  0.37500000  1.0
  Nb  Nb111  1  0.33333333  0.00000000  0.37500000  1.0
  Nb  Nb112  1  0.33333333  0.33333333  0.37500000  1.0
  Nb  Nb113  1  0.33333333  0.66666667  0.37500000  1.0
  Nb  Nb114  1  0.66666667  0.00000000  0.37500000  1.0
  Nb  Nb115  1  0.66666667  0.33333333  0.37500000  1.0
  Nb  Nb116  1  0.66666667  0.66666667  0.37500000  1.0
  Ni  Ni117  1  0.16666667  0.16666667  0.32500000  1.0
  Ni  Ni118  1  0.16666667  0.50000000  0.32500000  1.0
  Ni  Ni119  1  0.16666667  0.83333333  0.32500000  1.0
  Ni  Ni120  1  0.50000000  0.16666667  0.32500000  1.0
  Ni  Ni121  1  0.50000000  0.50000000  0.32500000  1.0
  Ni  Ni122  1  0.50000000  0.83333333  0.32500000  1.0
  Ni  Ni123  1  0.83333333  0.16666667  0.32500000  1.0
  Ni  Ni124  1  0.83333333  0.50000000  0.32500000  1.0
  Ni  Ni125  1  0.83333333  0.83333333  0.32500000  1.0
  Ni  Ni126  1  0.00000000  0.16666667  0.37500000  1.0
  Ni  Ni127  1  0.00000000  0.50000000  0.37500000  1.0
  Ni  Ni128  1  0.00000000  0.83333333  0.37500000  1.0
  Ni  Ni129  1  0.33333333  0.16666667  0.37500000  1.0
  Ni  Ni130  1  0.33333333  0.50000000  0.37500000  1.0
  Ni  Ni131  1  0.33333333  0.83333333  0.37500000  1.0
  Ni  Ni132  1  0.66666667  0.16666667  0.37500000  1.0
  Ni  Ni133  1  0.66666667  0.50000000  0.37500000  1.0
  Ni  Ni134  1  0.66666667  0.83333333  0.37500000  1.0
  Ni  Ni135  1  0.16666667  0.00000000  0.32500000  1.0
  Ni  Ni136  1  0.16666667  0.33333333  0.32500000  1.0
  Ni  Ni137  1  0.16666667  0.66666667  0.32500000  1.0
  Ni  Ni138  1  0.50000000  0.00000000  0.32500000  1.0
  Ni  Ni139  1  0.50000000  0.33333333  0.32500000  1.0
  Ni  Ni140  1  0.50000000  0.66666667  0.32500000  1.0
  Ni  Ni141  1  0.83333333  0.00000000  0.32500000  1.0
  Ni  Ni142  1  0.83333333  0.33333333  0.32500000  1.0
  Ni  Ni143  1  0.83333333  0.66666667  0.32500000  1.0
