# generated using pymatgen
data_NbNi
_symmetry_space_group_name_H-M   'P 1'
_cell_length_a   14.70811264
_cell_length_b   14.70811264
_cell_length_c   36.00511684
_cell_angle_alpha   97.82609997
_cell_angle_beta   97.82609997
_cell_angle_gamma   60.00000000
_symmetry_Int_Tables_number   1
_chemical_formula_structural   NbNi
_chemical_formula_sum   'Nb117 Ni117'
_cell_volume   6661.51467135
_cell_formula_units_Z   117
loop_
 _symmetry_equiv_pos_site_id
 _symmetry_equiv_pos_as_xyz
  1  'x, y, z'
loop_
 _atom_site_type_symbol
 _atom_site_label
 _atom_site_symmetry_multiplicity
 _atom_site_fract_x
 _atom_site_fract_y
 _atom_site_fract_z
 _atom_site_occupancy
  Nb  Nb0  1  0.07493267  0.07493267  0.33216800  1.0
  Nb  Nb1  1  0.07493267  0.40826600  0.33216800  1.0
  Nb  Nb2  1  0.07493267  0.74159933  0.33216800  1.0
  Nb  Nb3  1  0.40826600  0.07493267  0.33216800  1.0
  Nb  Nb4  1  0.40826600  0.40826600  0.33216800  1.0
  Nb  Nb5  1  0.40826600  0.74159933  0.33216800  1.0
  Nb  Nb6  1  0.74159933  0.07493267  0.33216800  1.0
  Nb  Nb7  1  0.74159933  0.40826600  0.33216800  1.0
  Nb  Nb8  1  0.74159933  0.74159933  0.33216800  1.0
  Nb  Nb9  1  0.24211633  0.24211633  0.08449450  1.0
  Nb  Nb10  1  0.24211633  0.57544967  0.08449450  1.0
  Nb  Nb11  1  0.24211633  0.90878300  0.08449450  1.0
  Nb  Nb12  1  0.57544967  0.24211633  0.08449450  1.0
  Nb  Nb13  1  0.57544967  0.57544967  0.08449450  1.0
  Nb  Nb14  1  0.57544967  0.90878300  0.08449450  1.0
  Nb  Nb15  1  0.90878300  0.24211633  0.08449450  1.0
  Nb  Nb16  1  0.90878300  0.57544967  0.08449450  1.0
  Nb  Nb17  1  0.90878300  0.90878300  0.08449450  1.0
  Nb  Nb18  1  0.09121700  0.09121700  0.40544750  1.0
  Nb  Nb19  1  0.09121700  0.42455033  0.40544750  1.0
  Nb  Nb20  1  0.09121700  0.75788367  0.40544750  1.0
  Nb  Nb21  1  0.42455033  0.09121700  0.40544750  1.0
  Nb  Nb22  1  0.42455033  0.42455033  0.40544750  1.0
  Nb  Nb23  1  0.42455033  0.75788367  0.40544750  1.0
  Nb  Nb24  1  0.75788367  0.09121700  0.40544750  1.0
  Nb  Nb25  1  0.75788367  0.42455033  0.40544750  1.0
  Nb  Nb26  1  0.75788367  0.75788367  0.40544750  1.0
  Nb  Nb27  1  0.25840067  0.25840067  0.15777400  1.0
  Nb  Nb28  1  0.25840067  0.59173400  0.15777400  1.0
  Nb  Nb29  1  0.25840067  0.92506733  0.15777400  1.0
  Nb  Nb30  1  0.59173400  0.25840067  0.15777400  1.0
  Nb  Nb31  1  0.59173400  0.59173400  0.15777400  1.0
  Nb  Nb32  1  0.59173400  0.92506733  0.15777400  1.0
  Nb  Nb33  1  0.92506733  0.25840067  0.15777400  1.0
  Nb  Nb34  1  0.92506733  0.59173400  0.15777400  1.0
  Nb  Nb35  1  0.92506733  0.92506733  0.15777400  1.0
  Nb  Nb36  1  0.19401133  0.19401133  0.36802200  1.0
  Nb  Nb37  1  0.19401133  0.52734467  0.36802200  1.0
  Nb  Nb38  1  0.19401133  0.86067800  0.36802200  1.0
  Nb  Nb39  1  0.52734467  0.19401133  0.36802200  1.0
  Nb  Nb40  1  0.52734467  0.52734467  0.36802200  1.0
  Nb  Nb41  1  0.52734467  0.86067800  0.36802200  1.0
  Nb  Nb42  1  0.86067800  0.19401133  0.36802200  1.0
  Nb  Nb43  1  0.86067800  0.52734467  0.36802200  1.0
  Nb  Nb44  1  0.86067800  0.86067800  0.36802200  1.0
  Nb  Nb45  1  0.02816667  0.02816667  0.12172100  1.0
  Nb  Nb46  1  0.02816667  0.36150000  0.12172100  1.0
  Nb  Nb47  1  0.02816667  0.69483333  0.12172100  1.0
  Nb  Nb48  1  0.36150000  0.02816667  0.12172100  1.0
  Nb  Nb49  1  0.36150000  0.36150000  0.12172100  1.0
  Nb  Nb50  1  0.36150000  0.69483333  0.12172100  1.0
  Nb  Nb51  1  0.69483333  0.02816667  0.12172100  1.0
  Nb  Nb52  1  0.69483333  0.36150000  0.12172100  1.0
  Nb  Nb53  1  0.69483333  0.69483333  0.12172100  1.0
  Nb  Nb54  1  0.30516667  0.30516667  0.36822100  1.0
  Nb  Nb55  1  0.30516667  0.63850000  0.36822100  1.0
  Nb  Nb56  1  0.30516667  0.97183333  0.36822100  1.0
  Nb  Nb57  1  0.63850000  0.30516667  0.36822100  1.0
  Nb  Nb58  1  0.63850000  0.63850000  0.36822100  1.0
  Nb  Nb59  1  0.63850000  0.97183333  0.36822100  1.0
  Nb  Nb60  1  0.97183333  0.30516667  0.36822100  1.0
  Nb  Nb61  1  0.97183333  0.63850000  0.36822100  1.0
  Nb  Nb62  1  0.97183333  0.97183333  0.36822100  1.0
  Nb  Nb63  1  0.13932200  0.13932200  0.12192000  1.0
  Nb  Nb64  1  0.13932200  0.47265533  0.12192000  1.0
  Nb  Nb65  1  0.13932200  0.80598867  0.12192000  1.0
  Nb  Nb66  1  0.47265533  0.13932200  0.12192000  1.0
  Nb  Nb67  1  0.47265533  0.47265533  0.12192000  1.0
  Nb  Nb68  1  0.47265533  0.80598867  0.12192000  1.0
  Nb  Nb69  1  0.80598867  0.13932200  0.12192000  1.0
  Nb  Nb70  1  0.80598867  0.47265533  0.12192000  1.0
  Nb  Nb71  1  0.80598867  0.80598867  0.12192000  1.0
  Nb  Nb72  1  0.05767000  0.05767000  0.25448600  1.0
  Nb  Nb73  1  0.05767000  0.39100333  0.25448600  1.0
  Nb  Nb74  1  0.05767000  0.72433667  0.25448600  1.0
  Nb  Nb75  1  0.39100333  0.05767000  0.25448600  1.0
  Nb  Nb76  1  0.39100333  0.39100333  0.25448600  1.0
  Nb  Nb77  1  0.39100333  0.72433667  0.25448600  1.0
  Nb  Nb78  1  0.72433667  0.05767000  0.25448600  1.0
  Nb  Nb79  1  0.72433667  0.39100333  0.25448600  1.0
  Nb  Nb80  1  0.72433667  0.72433667  0.25448600  1.0
  Nb  Nb81  1  0.22445733  0.22445733  0.00502900  1.0
  Nb  Nb82  1  0.22445733  0.55779067  0.00502900  1.0
  Nb  Nb83  1  0.22445733  0.89112400  0.00502900  1.0
  Nb  Nb84  1  0.55779067  0.22445733  0.00502900  1.0
  Nb  Nb85  1  0.55779067  0.55779067  0.00502900  1.0
  Nb  Nb86  1  0.55779067  0.89112400  0.00502900  1.0
  Nb  Nb87  1  0.89112400  0.22445733  0.00502900  1.0
  Nb  Nb88  1  0.89112400  0.55779067  0.00502900  1.0
  Nb  Nb89  1  0.89112400  0.89112400  0.00502900  1.0
  Nb  Nb90  1  0.10887600  0.10887600  0.48491300  1.0
  Nb  Nb91  1  0.10887600  0.44220933  0.48491300  1.0
  Nb  Nb92  1  0.10887600  0.77554267  0.48491300  1.0
  Nb  Nb93  1  0.44220933  0.10887600  0.48491300  1.0
  Nb  Nb94  1  0.44220933  0.44220933  0.48491300  1.0
  Nb  Nb95  1  0.44220933  0.77554267  0.48491300  1.0
  Nb  Nb96  1  0.77554267  0.10887600  0.48491300  1.0
  Nb  Nb97  1  0.77554267  0.44220933  0.48491300  1.0
  Nb  Nb98  1  0.77554267  0.77554267  0.48491300  1.0
  Nb  Nb99  1  0.27566333  0.27566333  0.23545600  1.0
  Nb  Nb100  1  0.27566333  0.60899667  0.23545600  1.0
  Nb  Nb101  1  0.27566333  0.94233000  0.23545600  1.0
  Nb  Nb102  1  0.60899667  0.27566333  0.23545600  1.0
  Nb  Nb103  1  0.60899667  0.60899667  0.23545600  1.0
  Nb  Nb104  1  0.60899667  0.94233000  0.23545600  1.0
  Nb  Nb105  1  0.94233000  0.27566333  0.23545600  1.0
  Nb  Nb106  1  0.94233000  0.60899667  0.23545600  1.0
  Nb  Nb107  1  0.94233000  0.94233000  0.23545600  1.0
  Nb  Nb108  1  0.00000000  0.00000000  0.49497100  1.0
  Nb  Nb109  1  0.00000000  0.33333333  0.49497100  1.0
  Nb  Nb110  1  0.00000000  0.66666667  0.49497100  1.0
  Nb  Nb111  1  0.33333333  0.00000000  0.49497100  1.0
  Nb  Nb112  1  0.33333333  0.33333333  0.49497100  1.0
  Nb  Nb113  1  0.33333333  0.66666667  0.49497100  1.0
  Nb  Nb114  1  0.66666667  0.00000000  0.49497100  1.0
  Nb  Nb115  1  0.66666667  0.33333333  0.49497100  1.0
  Nb  Nb116  1  0.66666667  0.66666667  0.49497100  1.0
  Ni  Ni117  1  0.09919600  0.26384933  0.43531300  1.0
  Ni  Ni118  1  0.09919600  0.59718267  0.43531300  1.0
  Ni  Ni119  1  0.09919600  0.93051600  0.43531300  1.0
  Ni  Ni120  1  0.43252933  0.26384933  0.43531300  1.0
  Ni  Ni121  1  0.43252933  0.59718267  0.43531300  1.0
  Ni  Ni122  1  0.43252933  0.93051600  0.43531300  1.0
  Ni  Ni123  1  0.76586267  0.26384933  0.43531300  1.0
  Ni  Ni124  1  0.76586267  0.59718267  0.43531300  1.0
  Ni  Ni125  1  0.76586267  0.93051600  0.43531300  1.0
  Ni  Ni126  1  0.26542967  0.09860467  0.18892950  1.0
  Ni  Ni127  1  0.26542967  0.43193800  0.18892950  1.0
  Ni  Ni128  1  0.26542967  0.76527133  0.18892950  1.0
  Ni  Ni129  1  0.59876300  0.09860467  0.18892950  1.0
  Ni  Ni130  1  0.59876300  0.43193800  0.18892950  1.0
  Ni  Ni131  1  0.59876300  0.76527133  0.18892950  1.0
  Ni  Ni132  1  0.93209633  0.09860467  0.18892950  1.0
  Ni  Ni133  1  0.93209633  0.43193800  0.18892950  1.0
  Ni  Ni134  1  0.93209633  0.76527133  0.18892950  1.0
  Ni  Ni135  1  0.26384933  0.09919600  0.43531300  1.0
  Ni  Ni136  1  0.26384933  0.43252933  0.43531300  1.0
  Ni  Ni137  1  0.26384933  0.76586267  0.43531300  1.0
  Ni  Ni138  1  0.59718267  0.09919600  0.43531300  1.0
  Ni  Ni139  1  0.59718267  0.43252933  0.43531300  1.0
  Ni  Ni140  1  0.59718267  0.76586267  0.43531300  1.0
  Ni  Ni141  1  0.93051600  0.09919600  0.43531300  1.0
  Ni  Ni142  1  0.93051600  0.43252933  0.43531300  1.0
  Ni  Ni143  1  0.93051600  0.76586267  0.43531300  1.0
  Ni  Ni144  1  0.09860467  0.26542967  0.18892950  1.0
  Ni  Ni145  1  0.09860467  0.59876300  0.18892950  1.0
  Ni  Ni146  1  0.09860467  0.93209633  0.18892950  1.0
  Ni  Ni147  1  0.43193800  0.26542967  0.18892950  1.0
  Ni  Ni148  1  0.43193800  0.59876300  0.18892950  1.0
  Ni  Ni149  1  0.43193800  0.93209633  0.18892950  1.0
  Ni  Ni150  1  0.76527133  0.26542967  0.18892950  1.0
  Ni  Ni151  1  0.76527133  0.59876300  0.18892950  1.0
  Ni  Ni152  1  0.76527133  0.93209633  0.18892950  1.0
  Ni  Ni153  1  0.26384933  0.26384933  0.43531300  1.0
  Ni  Ni154  1  0.26384933  0.59718267  0.43531300  1.0
  Ni  Ni155  1  0.26384933  0.93051600  0.43531300  1.0
  Ni  Ni156  1  0.59718267  0.26384933  0.43531300  1.0
  Ni  Ni157  1  0.59718267  0.59718267  0.43531300  1.0
  Ni  Ni158  1  0.59718267  0.93051600  0.43531300  1.0
  Ni  Ni159  1  0.93051600  0.26384933  0.43531300  1.0
  Ni  Ni160  1  0.93051600  0.59718267  0.43531300  1.0
  Ni  Ni161  1  0.93051600  0.93051600  0.43531300  1.0
  Ni  Ni162  1  0.09860467  0.09860467  0.18892950  1.0
  Ni  Ni163  1  0.09860467  0.43193800  0.18892950  1.0
  Ni  Ni164  1  0.09860467  0.76527133  0.18892950  1.0
  Ni  Ni165  1  0.43193800  0.09860467  0.18892950  1.0
  Ni  Ni166  1  0.43193800  0.43193800  0.18892950  1.0
  Ni  Ni167  1  0.43193800  0.76527133  0.18892950  1.0
  Ni  Ni168  1  0.76527133  0.09860467  0.18892950  1.0
  Ni  Ni169  1  0.76527133  0.43193800  0.18892950  1.0
  Ni  Ni170  1  0.76527133  0.76527133  0.18892950  1.0
  Ni  Ni171  1  0.06790367  0.23472867  0.30101250  1.0
  Ni  Ni172  1  0.06790367  0.56806200  0.30101250  1.0
  Ni  Ni173  1  0.06790367  0.90139533  0.30101250  1.0
  Ni  Ni174  1  0.40123700  0.23472867  0.30101250  1.0
  Ni  Ni175  1  0.40123700  0.56806200  0.30101250  1.0
  Ni  Ni176  1  0.40123700  0.90139533  0.30101250  1.0
  Ni  Ni177  1  0.73457033  0.23472867  0.30101250  1.0
  Ni  Ni178  1  0.73457033  0.56806200  0.30101250  1.0
  Ni  Ni179  1  0.73457033  0.90139533  0.30101250  1.0
  Ni  Ni180  1  0.23413733  0.06948400  0.05462900  1.0
  Ni  Ni181  1  0.23413733  0.40281733  0.05462900  1.0
  Ni  Ni182  1  0.23413733  0.73615067  0.05462900  1.0
  Ni  Ni183  1  0.56747067  0.06948400  0.05462900  1.0
  Ni  Ni184  1  0.56747067  0.40281733  0.05462900  1.0
  Ni  Ni185  1  0.56747067  0.73615067  0.05462900  1.0
  Ni  Ni186  1  0.90080400  0.06948400  0.05462900  1.0
  Ni  Ni187  1  0.90080400  0.40281733  0.05462900  1.0
  Ni  Ni188  1  0.90080400  0.73615067  0.05462900  1.0
  Ni  Ni189  1  0.23472867  0.06790367  0.30101250  1.0
  Ni  Ni190  1  0.23472867  0.40123700  0.30101250  1.0
  Ni  Ni191  1  0.23472867  0.73457033  0.30101250  1.0
  Ni  Ni192  1  0.56806200  0.06790367  0.30101250  1.0
  Ni  Ni193  1  0.56806200  0.40123700  0.30101250  1.0
  Ni  Ni194  1  0.56806200  0.73457033  0.30101250  1.0
  Ni  Ni195  1  0.90139533  0.06790367  0.30101250  1.0
  Ni  Ni196  1  0.90139533  0.40123700  0.30101250  1.0
  Ni  Ni197  1  0.90139533  0.73457033  0.30101250  1.0
  Ni  Ni198  1  0.06948400  0.23413733  0.05462900  1.0
  Ni  Ni199  1  0.06948400  0.56747067  0.05462900  1.0
  Ni  Ni200  1  0.06948400  0.90080400  0.05462900  1.0
  Ni  Ni201  1  0.40281733  0.23413733  0.05462900  1.0
  Ni  Ni202  1  0.40281733  0.56747067  0.05462900  1.0
  Ni  Ni203  1  0.40281733  0.90080400  0.05462900  1.0
  Ni  Ni204  1  0.73615067  0.23413733  0.05462900  1.0
  Ni  Ni205  1  0.73615067  0.56747067  0.05462900  1.0
  Ni  Ni206  1  0.73615067  0.90080400  0.05462900  1.0
  Ni  Ni207  1  0.23472867  0.23472867  0.30101250  1.0
  Ni  Ni208  1  0.23472867  0.56806200  0.30101250  1.0
  Ni  Ni209  1  0.23472867  0.90139533  0.30101250  1.0
  Ni  Ni210  1  0.56806200  0.23472867  0.30101250  1.0
  Ni  Ni211  1  0.56806200  0.56806200  0.30101250  1.0
  Ni  Ni212  1  0.56806200  0.90139533  0.30101250  1.0
  Ni  Ni213  1  0.90139533  0.23472867  0.30101250  1.0
  Ni  Ni214  1  0.90139533  0.56806200  0.30101250  1.0
  Ni  Ni215  1  0.90139533  0.90139533  0.30101250  1.0
  Ni  Ni216  1  0.06948400  0.06948400  0.05462900  1.0
  Ni  Ni217  1  0.06948400  0.40281733  0.05462900  1.0
  Ni  Ni218  1  0.06948400  0.73615067  0.05462900  1.0
  Ni  Ni219  1  0.40281733  0.06948400  0.05462900  1.0
  Ni  Ni220  1  0.40281733  0.40281733  0.05462900  1.0
  Ni  Ni221  1  0.40281733  0.73615067  0.05462900  1.0
  Ni  Ni222  1  0.73615067  0.06948400  0.05462900  1.0
  Ni  Ni223  1  0.73615067  0.40281733  0.05462900  1.0
  Ni  Ni224  1  0.73615067  0.73615067  0.05462900  1.0
  Ni  Ni225  1  0.16666667  0.16666667  0.24497100  1.0
  Ni  Ni226  1  0.16666667  0.50000000  0.24497100  1.0
  Ni  Ni227  1  0.16666667  0.83333333  0.24497100  1.0
  Ni  Ni228  1  0.50000000  0.16666667  0.24497100  1.0
  Ni  Ni229  1  0.50000000  0.50000000  0.24497100  1.0
  Ni  Ni230  1  0.50000000  0.83333333  0.24497100  1.0
  Ni  Ni231  1  0.83333333  0.16666667  0.24497100  1.0
  Ni  Ni232  1  0.83333333  0.50000000  0.24497100  1.0
  Ni  Ni233  1  0.83333333  0.83333333  0.24497100  1.0
