# generated using pymatgen
data_Ni19Ge12
_symmetry_space_group_name_H-M   'P 1'
_cell_length_a   20.16839661
_cell_length_b   20.16839661
_cell_length_c   30.18952998
_cell_angle_alpha   89.94289440
_cell_angle_beta   90.05710560
_cell_angle_gamma   120.10956842
_symmetry_Int_Tables_number   1
_chemical_formula_structural   Ni19Ge12
_chemical_formula_sum   'Ni171 Ge108'
_cell_volume   10623.04166869
_cell_formula_units_Z   9
loop_
 _symmetry_equiv_pos_site_id
 _symmetry_equiv_pos_as_xyz
  1  'x, y, z'
loop_
 _atom_site_type_symbol
 _atom_site_label
 _atom_site_symmetry_multiplicity
 _atom_site_fract_x
 _atom_site_fract_y
 _atom_site_fract_z
 _atom_site_occupancy
  Ni  Ni0  1  0.10953567  0.10953567  0.14531183  1.0
  Ni  Ni1  1  0.10953567  0.44286900  0.14531183  1.0
  Ni  Ni2  1  0.10953567  0.77620233  0.14531183  1.0
  Ni  Ni3  1  0.44286900  0.10953567  0.14531183  1.0
  Ni  Ni4  1  0.44286900  0.44286900  0.14531183  1.0
  Ni  Ni5  1  0.44286900  0.77620233  0.14531183  1.0
  Ni  Ni6  1  0.77620233  0.10953567  0.14531183  1.0
  Ni  Ni7  1  0.77620233  0.44286900  0.14531183  1.0
  Ni  Ni8  1  0.77620233  0.77620233  0.14531183  1.0
  Ni  Ni9  1  0.33284700  0.33151400  0.22717683  1.0
  Ni  Ni10  1  0.33284700  0.66484733  0.22717683  1.0
  Ni  Ni11  1  0.33284700  0.99818067  0.22717683  1.0
  Ni  Ni12  1  0.66618033  0.33151400  0.22717683  1.0
  Ni  Ni13  1  0.66618033  0.66484733  0.22717683  1.0
  Ni  Ni14  1  0.66618033  0.99818067  0.22717683  1.0
  Ni  Ni15  1  0.99951367  0.33151400  0.22717683  1.0
  Ni  Ni16  1  0.99951367  0.66484733  0.22717683  1.0
  Ni  Ni17  1  0.99951367  0.99818067  0.22717683  1.0
  Ni  Ni18  1  0.33151400  0.33284700  0.06344683  1.0
  Ni  Ni19  1  0.33151400  0.66618033  0.06344683  1.0
  Ni  Ni20  1  0.33151400  0.99951367  0.06344683  1.0
  Ni  Ni21  1  0.66484733  0.33284700  0.06344683  1.0
  Ni  Ni22  1  0.66484733  0.66618033  0.06344683  1.0
  Ni  Ni23  1  0.66484733  0.99951367  0.06344683  1.0
  Ni  Ni24  1  0.99818067  0.33284700  0.06344683  1.0
  Ni  Ni25  1  0.99818067  0.66618033  0.06344683  1.0
  Ni  Ni26  1  0.99818067  0.99951367  0.06344683  1.0
  Ni  Ni27  1  0.22262600  0.11222733  0.22788883  1.0
  Ni  Ni28  1  0.22262600  0.44556067  0.22788883  1.0
  Ni  Ni29  1  0.22262600  0.77889400  0.22788883  1.0
  Ni  Ni30  1  0.55595933  0.11222733  0.22788883  1.0
  Ni  Ni31  1  0.55595933  0.44556067  0.22788883  1.0
  Ni  Ni32  1  0.55595933  0.77889400  0.22788883  1.0
  Ni  Ni33  1  0.88929267  0.11222733  0.22788883  1.0
  Ni  Ni34  1  0.88929267  0.44556067  0.22788883  1.0
  Ni  Ni35  1  0.88929267  0.77889400  0.22788883  1.0
  Ni  Ni36  1  0.11222733  0.22262600  0.06273483  1.0
  Ni  Ni37  1  0.11222733  0.55595933  0.06273483  1.0
  Ni  Ni38  1  0.11222733  0.88929267  0.06273483  1.0
  Ni  Ni39  1  0.44556067  0.22262600  0.06273483  1.0
  Ni  Ni40  1  0.44556067  0.55595933  0.06273483  1.0
  Ni  Ni41  1  0.44556067  0.88929267  0.06273483  1.0
  Ni  Ni42  1  0.77889400  0.22262600  0.06273483  1.0
  Ni  Ni43  1  0.77889400  0.55595933  0.06273483  1.0
  Ni  Ni44  1  0.77889400  0.88929267  0.06273483  1.0
  Ni  Ni45  1  0.33253467  0.22049067  0.31076917  1.0
  Ni  Ni46  1  0.33253467  0.55382400  0.31076917  1.0
  Ni  Ni47  1  0.33253467  0.88715733  0.31076917  1.0
  Ni  Ni48  1  0.66586800  0.22049067  0.31076917  1.0
  Ni  Ni49  1  0.66586800  0.55382400  0.31076917  1.0
  Ni  Ni50  1  0.66586800  0.88715733  0.31076917  1.0
  Ni  Ni51  1  0.99920133  0.22049067  0.31076917  1.0
  Ni  Ni52  1  0.99920133  0.55382400  0.31076917  1.0
  Ni  Ni53  1  0.99920133  0.88715733  0.31076917  1.0
  Ni  Ni54  1  0.22049067  0.33253467  0.31318783  1.0
  Ni  Ni55  1  0.22049067  0.66586800  0.31318783  1.0
  Ni  Ni56  1  0.22049067  0.99920133  0.31318783  1.0
  Ni  Ni57  1  0.55382400  0.33253467  0.31318783  1.0
  Ni  Ni58  1  0.55382400  0.66586800  0.31318783  1.0
  Ni  Ni59  1  0.55382400  0.99920133  0.31318783  1.0
  Ni  Ni60  1  0.88715733  0.33253467  0.31318783  1.0
  Ni  Ni61  1  0.88715733  0.66586800  0.31318783  1.0
  Ni  Ni62  1  0.88715733  0.99920133  0.31318783  1.0
  Ni  Ni63  1  0.00489800  0.11114933  0.27006017  1.0
  Ni  Ni64  1  0.00489800  0.44448267  0.27006017  1.0
  Ni  Ni65  1  0.00489800  0.77781600  0.27006017  1.0
  Ni  Ni66  1  0.33823133  0.11114933  0.27006017  1.0
  Ni  Ni67  1  0.33823133  0.44448267  0.27006017  1.0
  Ni  Ni68  1  0.33823133  0.77781600  0.27006017  1.0
  Ni  Ni69  1  0.67156467  0.11114933  0.27006017  1.0
  Ni  Ni70  1  0.67156467  0.44448267  0.27006017  1.0
  Ni  Ni71  1  0.67156467  0.77781600  0.27006017  1.0
  Ni  Ni72  1  0.11114933  0.00489800  0.02056350  1.0
  Ni  Ni73  1  0.11114933  0.33823133  0.02056350  1.0
  Ni  Ni74  1  0.11114933  0.67156467  0.02056350  1.0
  Ni  Ni75  1  0.44448267  0.00489800  0.02056350  1.0
  Ni  Ni76  1  0.44448267  0.33823133  0.02056350  1.0
  Ni  Ni77  1  0.44448267  0.67156467  0.02056350  1.0
  Ni  Ni78  1  0.77781600  0.00489800  0.02056350  1.0
  Ni  Ni79  1  0.77781600  0.33823133  0.02056350  1.0
  Ni  Ni80  1  0.77781600  0.67156467  0.02056350  1.0
  Ni  Ni81  1  0.00052133  0.11317033  0.18629717  1.0
  Ni  Ni82  1  0.00052133  0.44650367  0.18629717  1.0
  Ni  Ni83  1  0.00052133  0.77983700  0.18629717  1.0
  Ni  Ni84  1  0.33385467  0.11317033  0.18629717  1.0
  Ni  Ni85  1  0.33385467  0.44650367  0.18629717  1.0
  Ni  Ni86  1  0.33385467  0.77983700  0.18629717  1.0
  Ni  Ni87  1  0.66718800  0.11317033  0.18629717  1.0
  Ni  Ni88  1  0.66718800  0.44650367  0.18629717  1.0
  Ni  Ni89  1  0.66718800  0.77983700  0.18629717  1.0
  Ni  Ni90  1  0.11317033  0.00052133  0.10432650  1.0
  Ni  Ni91  1  0.11317033  0.33385467  0.10432650  1.0
  Ni  Ni92  1  0.11317033  0.66718800  0.10432650  1.0
  Ni  Ni93  1  0.44650367  0.00052133  0.10432650  1.0
  Ni  Ni94  1  0.44650367  0.33385467  0.10432650  1.0
  Ni  Ni95  1  0.44650367  0.66718800  0.10432650  1.0
  Ni  Ni96  1  0.77983700  0.00052133  0.10432650  1.0
  Ni  Ni97  1  0.77983700  0.33385467  0.10432650  1.0
  Ni  Ni98  1  0.77983700  0.66718800  0.10432650  1.0
  Ni  Ni99  1  0.32701733  0.11168200  0.10403817  1.0
  Ni  Ni100  1  0.32701733  0.44501533  0.10403817  1.0
  Ni  Ni101  1  0.32701733  0.77834867  0.10403817  1.0
  Ni  Ni102  1  0.66035067  0.11168200  0.10403817  1.0
  Ni  Ni103  1  0.66035067  0.44501533  0.10403817  1.0
  Ni  Ni104  1  0.66035067  0.77834867  0.10403817  1.0
  Ni  Ni105  1  0.99368400  0.11168200  0.10403817  1.0
  Ni  Ni106  1  0.99368400  0.44501533  0.10403817  1.0
  Ni  Ni107  1  0.99368400  0.77834867  0.10403817  1.0
  Ni  Ni108  1  0.11168200  0.32701733  0.18658550  1.0
  Ni  Ni109  1  0.11168200  0.66035067  0.18658550  1.0
  Ni  Ni110  1  0.11168200  0.99368400  0.18658550  1.0
  Ni  Ni111  1  0.44501533  0.32701733  0.18658550  1.0
  Ni  Ni112  1  0.44501533  0.66035067  0.18658550  1.0
  Ni  Ni113  1  0.44501533  0.99368400  0.18658550  1.0
  Ni  Ni114  1  0.77834867  0.32701733  0.18658550  1.0
  Ni  Ni115  1  0.77834867  0.66035067  0.18658550  1.0
  Ni  Ni116  1  0.77834867  0.99368400  0.18658550  1.0
  Ni  Ni117  1  0.00079733  0.11022267  0.02056983  1.0
  Ni  Ni118  1  0.00079733  0.44355600  0.02056983  1.0
  Ni  Ni119  1  0.00079733  0.77688933  0.02056983  1.0
  Ni  Ni120  1  0.33413067  0.11022267  0.02056983  1.0
  Ni  Ni121  1  0.33413067  0.44355600  0.02056983  1.0
  Ni  Ni122  1  0.33413067  0.77688933  0.02056983  1.0
  Ni  Ni123  1  0.66746400  0.11022267  0.02056983  1.0
  Ni  Ni124  1  0.66746400  0.44355600  0.02056983  1.0
  Ni  Ni125  1  0.66746400  0.77688933  0.02056983  1.0
  Ni  Ni126  1  0.11022267  0.00079733  0.27005383  1.0
  Ni  Ni127  1  0.11022267  0.33413067  0.27005383  1.0
  Ni  Ni128  1  0.11022267  0.66746400  0.27005383  1.0
  Ni  Ni129  1  0.44355600  0.00079733  0.27005383  1.0
  Ni  Ni130  1  0.44355600  0.33413067  0.27005383  1.0
  Ni  Ni131  1  0.44355600  0.66746400  0.27005383  1.0
  Ni  Ni132  1  0.77688933  0.00079733  0.27005383  1.0
  Ni  Ni133  1  0.77688933  0.33413067  0.27005383  1.0
  Ni  Ni134  1  0.77688933  0.66746400  0.27005383  1.0
  Ni  Ni135  1  0.21622700  0.22004200  0.27002950  1.0
  Ni  Ni136  1  0.21622700  0.55337533  0.27002950  1.0
  Ni  Ni137  1  0.21622700  0.88670867  0.27002950  1.0
  Ni  Ni138  1  0.54956033  0.22004200  0.27002950  1.0
  Ni  Ni139  1  0.54956033  0.55337533  0.27002950  1.0
  Ni  Ni140  1  0.54956033  0.88670867  0.27002950  1.0
  Ni  Ni141  1  0.88289367  0.22004200  0.27002950  1.0
  Ni  Ni142  1  0.88289367  0.55337533  0.27002950  1.0
  Ni  Ni143  1  0.88289367  0.88670867  0.27002950  1.0
  Ni  Ni144  1  0.22004200  0.21622700  0.02059417  1.0
  Ni  Ni145  1  0.22004200  0.54956033  0.02059417  1.0
  Ni  Ni146  1  0.22004200  0.88289367  0.02059417  1.0
  Ni  Ni147  1  0.55337533  0.21622700  0.02059417  1.0
  Ni  Ni148  1  0.55337533  0.54956033  0.02059417  1.0
  Ni  Ni149  1  0.55337533  0.88289367  0.02059417  1.0
  Ni  Ni150  1  0.88670867  0.21622700  0.02059417  1.0
  Ni  Ni151  1  0.88670867  0.54956033  0.02059417  1.0
  Ni  Ni152  1  0.88670867  0.88289367  0.02059417  1.0
  Ni  Ni153  1  0.21783900  0.22557633  0.18622683  1.0
  Ni  Ni154  1  0.21783900  0.55890967  0.18622683  1.0
  Ni  Ni155  1  0.21783900  0.89224300  0.18622683  1.0
  Ni  Ni156  1  0.55117233  0.22557633  0.18622683  1.0
  Ni  Ni157  1  0.55117233  0.55890967  0.18622683  1.0
  Ni  Ni158  1  0.55117233  0.89224300  0.18622683  1.0
  Ni  Ni159  1  0.88450567  0.22557633  0.18622683  1.0
  Ni  Ni160  1  0.88450567  0.55890967  0.18622683  1.0
  Ni  Ni161  1  0.88450567  0.89224300  0.18622683  1.0
  Ni  Ni162  1  0.22557633  0.21783900  0.10439683  1.0
  Ni  Ni163  1  0.22557633  0.55117233  0.10439683  1.0
  Ni  Ni164  1  0.22557633  0.88450567  0.10439683  1.0
  Ni  Ni165  1  0.55890967  0.21783900  0.10439683  1.0
  Ni  Ni166  1  0.55890967  0.55117233  0.10439683  1.0
  Ni  Ni167  1  0.55890967  0.88450567  0.10439683  1.0
  Ni  Ni168  1  0.89224300  0.21783900  0.10439683  1.0
  Ni  Ni169  1  0.89224300  0.55117233  0.10439683  1.0
  Ni  Ni170  1  0.89224300  0.88450567  0.10439683  1.0
  Ge  Ge171  1  0.00857433  0.00857433  0.31197850  1.0
  Ge  Ge172  1  0.00857433  0.34190767  0.31197850  1.0
  Ge  Ge173  1  0.00857433  0.67524100  0.31197850  1.0
  Ge  Ge174  1  0.34190767  0.00857433  0.31197850  1.0
  Ge  Ge175  1  0.34190767  0.34190767  0.31197850  1.0
  Ge  Ge176  1  0.34190767  0.67524100  0.31197850  1.0
  Ge  Ge177  1  0.67524100  0.00857433  0.31197850  1.0
  Ge  Ge178  1  0.67524100  0.34190767  0.31197850  1.0
  Ge  Ge179  1  0.67524100  0.67524100  0.31197850  1.0
  Ge  Ge180  1  0.32574633  0.32574633  0.14531183  1.0
  Ge  Ge181  1  0.32574633  0.65907967  0.14531183  1.0
  Ge  Ge182  1  0.32574633  0.99241300  0.14531183  1.0
  Ge  Ge183  1  0.65907967  0.32574633  0.14531183  1.0
  Ge  Ge184  1  0.65907967  0.65907967  0.14531183  1.0
  Ge  Ge185  1  0.65907967  0.99241300  0.14531183  1.0
  Ge  Ge186  1  0.99241300  0.32574633  0.14531183  1.0
  Ge  Ge187  1  0.99241300  0.65907967  0.14531183  1.0
  Ge  Ge188  1  0.99241300  0.99241300  0.14531183  1.0
  Ge  Ge189  1  0.11060300  0.12086700  0.22781383  1.0
  Ge  Ge190  1  0.11060300  0.45420033  0.22781383  1.0
  Ge  Ge191  1  0.11060300  0.78753367  0.22781383  1.0
  Ge  Ge192  1  0.44393633  0.12086700  0.22781383  1.0
  Ge  Ge193  1  0.44393633  0.45420033  0.22781383  1.0
  Ge  Ge194  1  0.44393633  0.78753367  0.22781383  1.0
  Ge  Ge195  1  0.77726967  0.12086700  0.22781383  1.0
  Ge  Ge196  1  0.77726967  0.45420033  0.22781383  1.0
  Ge  Ge197  1  0.77726967  0.78753367  0.22781383  1.0
  Ge  Ge198  1  0.12086700  0.11060300  0.06280983  1.0
  Ge  Ge199  1  0.12086700  0.44393633  0.06280983  1.0
  Ge  Ge200  1  0.12086700  0.77726967  0.06280983  1.0
  Ge  Ge201  1  0.45420033  0.11060300  0.06280983  1.0
  Ge  Ge202  1  0.45420033  0.44393633  0.06280983  1.0
  Ge  Ge203  1  0.45420033  0.77726967  0.06280983  1.0
  Ge  Ge204  1  0.78753367  0.11060300  0.06280983  1.0
  Ge  Ge205  1  0.78753367  0.44393633  0.06280983  1.0
  Ge  Ge206  1  0.78753367  0.77726967  0.06280983  1.0
  Ge  Ge207  1  0.21046500  0.11047367  0.31121783  1.0
  Ge  Ge208  1  0.21046500  0.44380700  0.31121783  1.0
  Ge  Ge209  1  0.21046500  0.77714033  0.31121783  1.0
  Ge  Ge210  1  0.54379833  0.11047367  0.31121783  1.0
  Ge  Ge211  1  0.54379833  0.44380700  0.31121783  1.0
  Ge  Ge212  1  0.54379833  0.77714033  0.31121783  1.0
  Ge  Ge213  1  0.87713167  0.11047367  0.31121783  1.0
  Ge  Ge214  1  0.87713167  0.44380700  0.31121783  1.0
  Ge  Ge215  1  0.87713167  0.77714033  0.31121783  1.0
  Ge  Ge216  1  0.11047367  0.21046500  0.31273917  1.0
  Ge  Ge217  1  0.11047367  0.54379833  0.31273917  1.0
  Ge  Ge218  1  0.11047367  0.87713167  0.31273917  1.0
  Ge  Ge219  1  0.44380700  0.21046500  0.31273917  1.0
  Ge  Ge220  1  0.44380700  0.54379833  0.31273917  1.0
  Ge  Ge221  1  0.44380700  0.87713167  0.31273917  1.0
  Ge  Ge222  1  0.77714033  0.21046500  0.31273917  1.0
  Ge  Ge223  1  0.77714033  0.54379833  0.31273917  1.0
  Ge  Ge224  1  0.77714033  0.87713167  0.31273917  1.0
  Ge  Ge225  1  0.22675333  0.10957333  0.14598917  1.0
  Ge  Ge226  1  0.22675333  0.44290667  0.14598917  1.0
  Ge  Ge227  1  0.22675333  0.77624000  0.14598917  1.0
  Ge  Ge228  1  0.56008667  0.10957333  0.14598917  1.0
  Ge  Ge229  1  0.56008667  0.44290667  0.14598917  1.0
  Ge  Ge230  1  0.56008667  0.77624000  0.14598917  1.0
  Ge  Ge231  1  0.89342000  0.10957333  0.14598917  1.0
  Ge  Ge232  1  0.89342000  0.44290667  0.14598917  1.0
  Ge  Ge233  1  0.89342000  0.77624000  0.14598917  1.0
  Ge  Ge234  1  0.10957333  0.22675333  0.14463450  1.0
  Ge  Ge235  1  0.10957333  0.56008667  0.14463450  1.0
  Ge  Ge236  1  0.10957333  0.89342000  0.14463450  1.0
  Ge  Ge237  1  0.44290667  0.22675333  0.14463450  1.0
  Ge  Ge238  1  0.44290667  0.56008667  0.14463450  1.0
  Ge  Ge239  1  0.44290667  0.89342000  0.14463450  1.0
  Ge  Ge240  1  0.77624000  0.22675333  0.14463450  1.0
  Ge  Ge241  1  0.77624000  0.56008667  0.14463450  1.0
  Ge  Ge242  1  0.77624000  0.89342000  0.14463450  1.0
  Ge  Ge243  1  0.01196533  0.22143100  0.22789217  1.0
  Ge  Ge244  1  0.01196533  0.55476433  0.22789217  1.0
  Ge  Ge245  1  0.01196533  0.88809767  0.22789217  1.0
  Ge  Ge246  1  0.34529867  0.22143100  0.22789217  1.0
  Ge  Ge247  1  0.34529867  0.55476433  0.22789217  1.0
  Ge  Ge248  1  0.34529867  0.88809767  0.22789217  1.0
  Ge  Ge249  1  0.67863200  0.22143100  0.22789217  1.0
  Ge  Ge250  1  0.67863200  0.55476433  0.22789217  1.0
  Ge  Ge251  1  0.67863200  0.88809767  0.22789217  1.0
  Ge  Ge252  1  0.22143100  0.01196533  0.06273150  1.0
  Ge  Ge253  1  0.22143100  0.34529867  0.06273150  1.0
  Ge  Ge254  1  0.22143100  0.67863200  0.06273150  1.0
  Ge  Ge255  1  0.55476433  0.01196533  0.06273150  1.0
  Ge  Ge256  1  0.55476433  0.34529867  0.06273150  1.0
  Ge  Ge257  1  0.55476433  0.67863200  0.06273150  1.0
  Ge  Ge258  1  0.88809767  0.01196533  0.06273150  1.0
  Ge  Ge259  1  0.88809767  0.34529867  0.06273150  1.0
  Ge  Ge260  1  0.88809767  0.67863200  0.06273150  1.0
  Ge  Ge261  1  0.32383867  0.21212400  0.06130683  1.0
  Ge  Ge262  1  0.32383867  0.54545733  0.06130683  1.0
  Ge  Ge263  1  0.32383867  0.87879067  0.06130683  1.0
  Ge  Ge264  1  0.65717200  0.21212400  0.06130683  1.0
  Ge  Ge265  1  0.65717200  0.54545733  0.06130683  1.0
  Ge  Ge266  1  0.65717200  0.87879067  0.06130683  1.0
  Ge  Ge267  1  0.99050533  0.21212400  0.06130683  1.0
  Ge  Ge268  1  0.99050533  0.54545733  0.06130683  1.0
  Ge  Ge269  1  0.99050533  0.87879067  0.06130683  1.0
  Ge  Ge270  1  0.21212400  0.32383867  0.22931683  1.0
  Ge  Ge271  1  0.21212400  0.65717200  0.22931683  1.0
  Ge  Ge272  1  0.21212400  0.99050533  0.22931683  1.0
  Ge  Ge273  1  0.54545733  0.32383867  0.22931683  1.0
  Ge  Ge274  1  0.54545733  0.65717200  0.22931683  1.0
  Ge  Ge275  1  0.54545733  0.99050533  0.22931683  1.0
  Ge  Ge276  1  0.87879067  0.32383867  0.22931683  1.0
  Ge  Ge277  1  0.87879067  0.65717200  0.22931683  1.0
  Ge  Ge278  1  0.87879067  0.99050533  0.22931683  1.0
