# generated using pymatgen
data_Ni2Ge
_symmetry_space_group_name_H-M   'P 1'
_cell_length_a   27.66977477
_cell_length_b   31.72776547
_cell_length_c   40.88017600
_cell_angle_alpha   90.00000000
_cell_angle_beta   56.35562103
_cell_angle_gamma   52.81410202
_symmetry_Int_Tables_number   1
_chemical_formula_structural   Ni2Ge
_chemical_formula_sum   'Ni432 Ge216'
_cell_volume   20545.79301266
_cell_formula_units_Z   216
loop_
 _symmetry_equiv_pos_site_id
 _symmetry_equiv_pos_as_xyz
  1  'x, y, z'
loop_
 _atom_site_type_symbol
 _atom_site_label
 _atom_site_symmetry_multiplicity
 _atom_site_fract_x
 _atom_site_fract_y
 _atom_site_fract_z
 _atom_site_occupancy
  Ni  Ni0  1  0.06169233  0.31330767  0.05118144  1.0
  Ni  Ni1  1  0.06169233  0.64664100  0.05118144  1.0
  Ni  Ni2  1  0.06169233  0.97997433  0.05118144  1.0
  Ni  Ni3  1  0.39502567  0.31330767  0.05118144  1.0
  Ni  Ni4  1  0.39502567  0.64664100  0.05118144  1.0
  Ni  Ni5  1  0.39502567  0.97997433  0.05118144  1.0
  Ni  Ni6  1  0.72835900  0.31330767  0.05118144  1.0
  Ni  Ni7  1  0.72835900  0.64664100  0.05118144  1.0
  Ni  Ni8  1  0.72835900  0.97997433  0.05118144  1.0
  Ni  Ni9  1  0.22835900  0.31330767  0.11368144  1.0
  Ni  Ni10  1  0.22835900  0.64664100  0.11368144  1.0
  Ni  Ni11  1  0.22835900  0.97997433  0.11368144  1.0
  Ni  Ni12  1  0.56169233  0.31330767  0.11368144  1.0
  Ni  Ni13  1  0.56169233  0.64664100  0.11368144  1.0
  Ni  Ni14  1  0.56169233  0.97997433  0.11368144  1.0
  Ni  Ni15  1  0.89502567  0.31330767  0.11368144  1.0
  Ni  Ni16  1  0.89502567  0.64664100  0.11368144  1.0
  Ni  Ni17  1  0.89502567  0.97997433  0.11368144  1.0
  Ni  Ni18  1  0.10497433  0.02002567  0.11675319  1.0
  Ni  Ni19  1  0.10497433  0.35335900  0.11675319  1.0
  Ni  Ni20  1  0.10497433  0.68669233  0.11675319  1.0
  Ni  Ni21  1  0.43830767  0.02002567  0.11675319  1.0
  Ni  Ni22  1  0.43830767  0.35335900  0.11675319  1.0
  Ni  Ni23  1  0.43830767  0.68669233  0.11675319  1.0
  Ni  Ni24  1  0.77164100  0.02002567  0.11675319  1.0
  Ni  Ni25  1  0.77164100  0.35335900  0.11675319  1.0
  Ni  Ni26  1  0.77164100  0.68669233  0.11675319  1.0
  Ni  Ni27  1  0.27164100  0.02002567  0.05425319  1.0
  Ni  Ni28  1  0.27164100  0.35335900  0.05425319  1.0
  Ni  Ni29  1  0.27164100  0.68669233  0.05425319  1.0
  Ni  Ni30  1  0.60497433  0.02002567  0.05425319  1.0
  Ni  Ni31  1  0.60497433  0.35335900  0.05425319  1.0
  Ni  Ni32  1  0.60497433  0.68669233  0.05425319  1.0
  Ni  Ni33  1  0.93830767  0.02002567  0.05425319  1.0
  Ni  Ni34  1  0.93830767  0.35335900  0.05425319  1.0
  Ni  Ni35  1  0.93830767  0.68669233  0.05425319  1.0
  Ni  Ni36  1  0.18830767  0.18669233  0.06620069  1.0
  Ni  Ni37  1  0.18830767  0.52002567  0.06620069  1.0
  Ni  Ni38  1  0.18830767  0.85335900  0.06620069  1.0
  Ni  Ni39  1  0.52164100  0.18669233  0.06620069  1.0
  Ni  Ni40  1  0.52164100  0.52002567  0.06620069  1.0
  Ni  Ni41  1  0.52164100  0.85335900  0.06620069  1.0
  Ni  Ni42  1  0.85497433  0.18669233  0.06620069  1.0
  Ni  Ni43  1  0.85497433  0.52002567  0.06620069  1.0
  Ni  Ni44  1  0.85497433  0.85335900  0.06620069  1.0
  Ni  Ni45  1  0.02164100  0.18669233  0.00370069  1.0
  Ni  Ni46  1  0.02164100  0.52002567  0.00370069  1.0
  Ni  Ni47  1  0.02164100  0.85335900  0.00370069  1.0
  Ni  Ni48  1  0.35497433  0.18669233  0.00370069  1.0
  Ni  Ni49  1  0.35497433  0.52002567  0.00370069  1.0
  Ni  Ni50  1  0.35497433  0.85335900  0.00370069  1.0
  Ni  Ni51  1  0.68830767  0.18669233  0.00370069  1.0
  Ni  Ni52  1  0.68830767  0.52002567  0.00370069  1.0
  Ni  Ni53  1  0.68830767  0.85335900  0.00370069  1.0
  Ni  Ni54  1  0.31169233  0.14664100  0.10173394  1.0
  Ni  Ni55  1  0.31169233  0.47997433  0.10173394  1.0
  Ni  Ni56  1  0.31169233  0.81330767  0.10173394  1.0
  Ni  Ni57  1  0.64502567  0.14664100  0.10173394  1.0
  Ni  Ni58  1  0.64502567  0.47997433  0.10173394  1.0
  Ni  Ni59  1  0.64502567  0.81330767  0.10173394  1.0
  Ni  Ni60  1  0.97835900  0.14664100  0.10173394  1.0
  Ni  Ni61  1  0.97835900  0.47997433  0.10173394  1.0
  Ni  Ni62  1  0.97835900  0.81330767  0.10173394  1.0
  Ni  Ni63  1  0.14502567  0.14664100  0.03923394  1.0
  Ni  Ni64  1  0.14502567  0.47997433  0.03923394  1.0
  Ni  Ni65  1  0.14502567  0.81330767  0.03923394  1.0
  Ni  Ni66  1  0.47835900  0.14664100  0.03923394  1.0
  Ni  Ni67  1  0.47835900  0.47997433  0.03923394  1.0
  Ni  Ni68  1  0.47835900  0.81330767  0.03923394  1.0
  Ni  Ni69  1  0.81169233  0.14664100  0.03923394  1.0
  Ni  Ni70  1  0.81169233  0.47997433  0.03923394  1.0
  Ni  Ni71  1  0.81169233  0.81330767  0.03923394  1.0
  Ni  Ni72  1  0.30537033  0.06962967  0.00625019  1.0
  Ni  Ni73  1  0.30537033  0.40296300  0.00625019  1.0
  Ni  Ni74  1  0.30537033  0.73629633  0.00625019  1.0
  Ni  Ni75  1  0.63870367  0.06962967  0.00625019  1.0
  Ni  Ni76  1  0.63870367  0.40296300  0.00625019  1.0
  Ni  Ni77  1  0.63870367  0.73629633  0.00625019  1.0
  Ni  Ni78  1  0.97203700  0.06962967  0.00625019  1.0
  Ni  Ni79  1  0.97203700  0.40296300  0.00625019  1.0
  Ni  Ni80  1  0.97203700  0.73629633  0.00625019  1.0
  Ni  Ni81  1  0.13870367  0.06962967  0.06875019  1.0
  Ni  Ni82  1  0.13870367  0.40296300  0.06875019  1.0
  Ni  Ni83  1  0.13870367  0.73629633  0.06875019  1.0
  Ni  Ni84  1  0.47203700  0.06962967  0.06875019  1.0
  Ni  Ni85  1  0.47203700  0.40296300  0.06875019  1.0
  Ni  Ni86  1  0.47203700  0.73629633  0.06875019  1.0
  Ni  Ni87  1  0.80537033  0.06962967  0.06875019  1.0
  Ni  Ni88  1  0.80537033  0.40296300  0.06875019  1.0
  Ni  Ni89  1  0.80537033  0.73629633  0.06875019  1.0
  Ni  Ni90  1  0.19462967  0.26370367  0.03668444  1.0
  Ni  Ni91  1  0.19462967  0.59703700  0.03668444  1.0
  Ni  Ni92  1  0.19462967  0.93037033  0.03668444  1.0
  Ni  Ni93  1  0.52796300  0.26370367  0.03668444  1.0
  Ni  Ni94  1  0.52796300  0.59703700  0.03668444  1.0
  Ni  Ni95  1  0.52796300  0.93037033  0.03668444  1.0
  Ni  Ni96  1  0.86129633  0.26370367  0.03668444  1.0
  Ni  Ni97  1  0.86129633  0.59703700  0.03668444  1.0
  Ni  Ni98  1  0.86129633  0.93037033  0.03668444  1.0
  Ni  Ni99  1  0.02796300  0.26370367  0.09918444  1.0
  Ni  Ni100  1  0.02796300  0.59703700  0.09918444  1.0
  Ni  Ni101  1  0.02796300  0.93037033  0.09918444  1.0
  Ni  Ni102  1  0.36129633  0.26370367  0.09918444  1.0
  Ni  Ni103  1  0.36129633  0.59703700  0.09918444  1.0
  Ni  Ni104  1  0.36129633  0.93037033  0.09918444  1.0
  Ni  Ni105  1  0.69462967  0.26370367  0.09918444  1.0
  Ni  Ni106  1  0.69462967  0.59703700  0.09918444  1.0
  Ni  Ni107  1  0.69462967  0.93037033  0.09918444  1.0
  Ni  Ni108  1  0.27796300  0.09703700  0.07902794  1.0
  Ni  Ni109  1  0.27796300  0.43037033  0.07902794  1.0
  Ni  Ni110  1  0.27796300  0.76370367  0.07902794  1.0
  Ni  Ni111  1  0.61129633  0.09703700  0.07902794  1.0
  Ni  Ni112  1  0.61129633  0.43037033  0.07902794  1.0
  Ni  Ni113  1  0.61129633  0.76370367  0.07902794  1.0
  Ni  Ni114  1  0.94462967  0.09703700  0.07902794  1.0
  Ni  Ni115  1  0.94462967  0.43037033  0.07902794  1.0
  Ni  Ni116  1  0.94462967  0.76370367  0.07902794  1.0
  Ni  Ni117  1  0.11129633  0.09703700  0.01652794  1.0
  Ni  Ni118  1  0.11129633  0.43037033  0.01652794  1.0
  Ni  Ni119  1  0.11129633  0.76370367  0.01652794  1.0
  Ni  Ni120  1  0.44462967  0.09703700  0.01652794  1.0
  Ni  Ni121  1  0.44462967  0.43037033  0.01652794  1.0
  Ni  Ni122  1  0.44462967  0.76370367  0.01652794  1.0
  Ni  Ni123  1  0.77796300  0.09703700  0.01652794  1.0
  Ni  Ni124  1  0.77796300  0.43037033  0.01652794  1.0
  Ni  Ni125  1  0.77796300  0.76370367  0.01652794  1.0
  Ni  Ni126  1  0.22203700  0.23629633  0.08890669  1.0
  Ni  Ni127  1  0.22203700  0.56962967  0.08890669  1.0
  Ni  Ni128  1  0.22203700  0.90296300  0.08890669  1.0
  Ni  Ni129  1  0.55537033  0.23629633  0.08890669  1.0
  Ni  Ni130  1  0.55537033  0.56962967  0.08890669  1.0
  Ni  Ni131  1  0.55537033  0.90296300  0.08890669  1.0
  Ni  Ni132  1  0.88870367  0.23629633  0.08890669  1.0
  Ni  Ni133  1  0.88870367  0.56962967  0.08890669  1.0
  Ni  Ni134  1  0.88870367  0.90296300  0.08890669  1.0
  Ni  Ni135  1  0.05537033  0.23629633  0.02640669  1.0
  Ni  Ni136  1  0.05537033  0.56962967  0.02640669  1.0
  Ni  Ni137  1  0.05537033  0.90296300  0.02640669  1.0
  Ni  Ni138  1  0.38870367  0.23629633  0.02640669  1.0
  Ni  Ni139  1  0.38870367  0.56962967  0.02640669  1.0
  Ni  Ni140  1  0.38870367  0.90296300  0.02640669  1.0
  Ni  Ni141  1  0.72203700  0.23629633  0.02640669  1.0
  Ni  Ni142  1  0.72203700  0.56962967  0.02640669  1.0
  Ni  Ni143  1  0.72203700  0.90296300  0.02640669  1.0
  Ge  Ge144  1  0.17066600  0.20433400  0.01493531  1.0
  Ge  Ge145  1  0.17066600  0.53766733  0.01493531  1.0
  Ge  Ge146  1  0.17066600  0.87100067  0.01493531  1.0
  Ge  Ge147  1  0.50399933  0.20433400  0.01493531  1.0
  Ge  Ge148  1  0.50399933  0.53766733  0.01493531  1.0
  Ge  Ge149  1  0.50399933  0.87100067  0.01493531  1.0
  Ge  Ge150  1  0.83733267  0.20433400  0.01493531  1.0
  Ge  Ge151  1  0.83733267  0.53766733  0.01493531  1.0
  Ge  Ge152  1  0.83733267  0.87100067  0.01493531  1.0
  Ge  Ge153  1  0.00399933  0.20433400  0.07743531  1.0
  Ge  Ge154  1  0.00399933  0.53766733  0.07743531  1.0
  Ge  Ge155  1  0.00399933  0.87100067  0.07743531  1.0
  Ge  Ge156  1  0.33733267  0.20433400  0.07743531  1.0
  Ge  Ge157  1  0.33733267  0.53766733  0.07743531  1.0
  Ge  Ge158  1  0.33733267  0.87100067  0.07743531  1.0
  Ge  Ge159  1  0.67066600  0.20433400  0.07743531  1.0
  Ge  Ge160  1  0.67066600  0.53766733  0.07743531  1.0
  Ge  Ge161  1  0.67066600  0.87100067  0.07743531  1.0
  Ge  Ge162  1  0.32933400  0.12899933  0.02799931  1.0
  Ge  Ge163  1  0.32933400  0.46233267  0.02799931  1.0
  Ge  Ge164  1  0.32933400  0.79566600  0.02799931  1.0
  Ge  Ge165  1  0.66266733  0.12899933  0.02799931  1.0
  Ge  Ge166  1  0.66266733  0.46233267  0.02799931  1.0
  Ge  Ge167  1  0.66266733  0.79566600  0.02799931  1.0
  Ge  Ge168  1  0.99600067  0.12899933  0.02799931  1.0
  Ge  Ge169  1  0.99600067  0.46233267  0.02799931  1.0
  Ge  Ge170  1  0.99600067  0.79566600  0.02799931  1.0
  Ge  Ge171  1  0.16266733  0.12899933  0.09049931  1.0
  Ge  Ge172  1  0.16266733  0.46233267  0.09049931  1.0
  Ge  Ge173  1  0.16266733  0.79566600  0.09049931  1.0
  Ge  Ge174  1  0.49600067  0.12899933  0.09049931  1.0
  Ge  Ge175  1  0.49600067  0.46233267  0.09049931  1.0
  Ge  Ge176  1  0.49600067  0.79566600  0.09049931  1.0
  Ge  Ge177  1  0.82933400  0.12899933  0.09049931  1.0
  Ge  Ge178  1  0.82933400  0.46233267  0.09049931  1.0
  Ge  Ge179  1  0.82933400  0.79566600  0.09049931  1.0
  Ge  Ge180  1  0.07933400  0.29566600  0.11168481  1.0
  Ge  Ge181  1  0.07933400  0.62899933  0.11168481  1.0
  Ge  Ge182  1  0.07933400  0.96233267  0.11168481  1.0
  Ge  Ge183  1  0.41266733  0.29566600  0.11168481  1.0
  Ge  Ge184  1  0.41266733  0.62899933  0.11168481  1.0
  Ge  Ge185  1  0.41266733  0.96233267  0.11168481  1.0
  Ge  Ge186  1  0.74600067  0.29566600  0.11168481  1.0
  Ge  Ge187  1  0.74600067  0.62899933  0.11168481  1.0
  Ge  Ge188  1  0.74600067  0.96233267  0.11168481  1.0
  Ge  Ge189  1  0.24600067  0.29566600  0.04918481  1.0
  Ge  Ge190  1  0.24600067  0.62899933  0.04918481  1.0
  Ge  Ge191  1  0.24600067  0.96233267  0.04918481  1.0
  Ge  Ge192  1  0.57933400  0.29566600  0.04918481  1.0
  Ge  Ge193  1  0.57933400  0.62899933  0.04918481  1.0
  Ge  Ge194  1  0.57933400  0.96233267  0.04918481  1.0
  Ge  Ge195  1  0.91266733  0.29566600  0.04918481  1.0
  Ge  Ge196  1  0.91266733  0.62899933  0.04918481  1.0
  Ge  Ge197  1  0.91266733  0.96233267  0.04918481  1.0
  Ge  Ge198  1  0.08733267  0.03766733  0.05624981  1.0
  Ge  Ge199  1  0.08733267  0.37100067  0.05624981  1.0
  Ge  Ge200  1  0.08733267  0.70433400  0.05624981  1.0
  Ge  Ge201  1  0.42066600  0.03766733  0.05624981  1.0
  Ge  Ge202  1  0.42066600  0.37100067  0.05624981  1.0
  Ge  Ge203  1  0.42066600  0.70433400  0.05624981  1.0
  Ge  Ge204  1  0.75399933  0.03766733  0.05624981  1.0
  Ge  Ge205  1  0.75399933  0.37100067  0.05624981  1.0
  Ge  Ge206  1  0.75399933  0.70433400  0.05624981  1.0
  Ge  Ge207  1  0.25399933  0.03766733  0.11874981  1.0
  Ge  Ge208  1  0.25399933  0.37100067  0.11874981  1.0
  Ge  Ge209  1  0.25399933  0.70433400  0.11874981  1.0
  Ge  Ge210  1  0.58733267  0.03766733  0.11874981  1.0
  Ge  Ge211  1  0.58733267  0.37100067  0.11874981  1.0
  Ge  Ge212  1  0.58733267  0.70433400  0.11874981  1.0
  Ge  Ge213  1  0.92066600  0.03766733  0.11874981  1.0
  Ge  Ge214  1  0.92066600  0.37100067  0.11874981  1.0
  Ge  Ge215  1  0.92066600  0.70433400  0.11874981  1.0
  Ni  Ni216  1  0.06169233  0.31330767  0.17618144  1.0
  Ni  Ni217  1  0.06169233  0.64664100  0.17618144  1.0
  Ni  Ni218  1  0.06169233  0.97997433  0.17618144  1.0
  Ni  Ni219  1  0.39502567  0.31330767  0.17618144  1.0
  Ni  Ni220  1  0.39502567  0.64664100  0.17618144  1.0
  Ni  Ni221  1  0.39502567  0.97997433  0.17618144  1.0
  Ni  Ni222  1  0.72835900  0.31330767  0.17618144  1.0
  Ni  Ni223  1  0.72835900  0.64664100  0.17618144  1.0
  Ni  Ni224  1  0.72835900  0.97997433  0.17618144  1.0
  Ni  Ni225  1  0.22835900  0.31330767  0.23868144  1.0
  Ni  Ni226  1  0.22835900  0.64664100  0.23868144  1.0
  Ni  Ni227  1  0.22835900  0.97997433  0.23868144  1.0
  Ni  Ni228  1  0.56169233  0.31330767  0.23868144  1.0
  Ni  Ni229  1  0.56169233  0.64664100  0.23868144  1.0
  Ni  Ni230  1  0.56169233  0.97997433  0.23868144  1.0
  Ni  Ni231  1  0.89502567  0.31330767  0.23868144  1.0
  Ni  Ni232  1  0.89502567  0.64664100  0.23868144  1.0
  Ni  Ni233  1  0.89502567  0.97997433  0.23868144  1.0
  Ni  Ni234  1  0.10497433  0.02002567  0.24175319  1.0
  Ni  Ni235  1  0.10497433  0.35335900  0.24175319  1.0
  Ni  Ni236  1  0.10497433  0.68669233  0.24175319  1.0
  Ni  Ni237  1  0.43830767  0.02002567  0.24175319  1.0
  Ni  Ni238  1  0.43830767  0.35335900  0.24175319  1.0
  Ni  Ni239  1  0.43830767  0.68669233  0.24175319  1.0
  Ni  Ni240  1  0.77164100  0.02002567  0.24175319  1.0
  Ni  Ni241  1  0.77164100  0.35335900  0.24175319  1.0
  Ni  Ni242  1  0.77164100  0.68669233  0.24175319  1.0
  Ni  Ni243  1  0.27164100  0.02002567  0.17925319  1.0
  Ni  Ni244  1  0.27164100  0.35335900  0.17925319  1.0
  Ni  Ni245  1  0.27164100  0.68669233  0.17925319  1.0
  Ni  Ni246  1  0.60497433  0.02002567  0.17925319  1.0
  Ni  Ni247  1  0.60497433  0.35335900  0.17925319  1.0
  Ni  Ni248  1  0.60497433  0.68669233  0.17925319  1.0
  Ni  Ni249  1  0.93830767  0.02002567  0.17925319  1.0
  Ni  Ni250  1  0.93830767  0.35335900  0.17925319  1.0
  Ni  Ni251  1  0.93830767  0.68669233  0.17925319  1.0
  Ni  Ni252  1  0.18830767  0.18669233  0.19120069  1.0
  Ni  Ni253  1  0.18830767  0.52002567  0.19120069  1.0
  Ni  Ni254  1  0.18830767  0.85335900  0.19120069  1.0
  Ni  Ni255  1  0.52164100  0.18669233  0.19120069  1.0
  Ni  Ni256  1  0.52164100  0.52002567  0.19120069  1.0
  Ni  Ni257  1  0.52164100  0.85335900  0.19120069  1.0
  Ni  Ni258  1  0.85497433  0.18669233  0.19120069  1.0
  Ni  Ni259  1  0.85497433  0.52002567  0.19120069  1.0
  Ni  Ni260  1  0.85497433  0.85335900  0.19120069  1.0
  Ni  Ni261  1  0.02164100  0.18669233  0.12870069  1.0
  Ni  Ni262  1  0.02164100  0.52002567  0.12870069  1.0
  Ni  Ni263  1  0.02164100  0.85335900  0.12870069  1.0
  Ni  Ni264  1  0.35497433  0.18669233  0.12870069  1.0
  Ni  Ni265  1  0.35497433  0.52002567  0.12870069  1.0
  Ni  Ni266  1  0.35497433  0.85335900  0.12870069  1.0
  Ni  Ni267  1  0.68830767  0.18669233  0.12870069  1.0
  Ni  Ni268  1  0.68830767  0.52002567  0.12870069  1.0
  Ni  Ni269  1  0.68830767  0.85335900  0.12870069  1.0
  Ni  Ni270  1  0.31169233  0.14664100  0.22673394  1.0
  Ni  Ni271  1  0.31169233  0.47997433  0.22673394  1.0
  Ni  Ni272  1  0.31169233  0.81330767  0.22673394  1.0
  Ni  Ni273  1  0.64502567  0.14664100  0.22673394  1.0
  Ni  Ni274  1  0.64502567  0.47997433  0.22673394  1.0
  Ni  Ni275  1  0.64502567  0.81330767  0.22673394  1.0
  Ni  Ni276  1  0.97835900  0.14664100  0.22673394  1.0
  Ni  Ni277  1  0.97835900  0.47997433  0.22673394  1.0
  Ni  Ni278  1  0.97835900  0.81330767  0.22673394  1.0
  Ni  Ni279  1  0.14502567  0.14664100  0.16423394  1.0
  Ni  Ni280  1  0.14502567  0.47997433  0.16423394  1.0
  Ni  Ni281  1  0.14502567  0.81330767  0.16423394  1.0
  Ni  Ni282  1  0.47835900  0.14664100  0.16423394  1.0
  Ni  Ni283  1  0.47835900  0.47997433  0.16423394  1.0
  Ni  Ni284  1  0.47835900  0.81330767  0.16423394  1.0
  Ni  Ni285  1  0.81169233  0.14664100  0.16423394  1.0
  Ni  Ni286  1  0.81169233  0.47997433  0.16423394  1.0
  Ni  Ni287  1  0.81169233  0.81330767  0.16423394  1.0
  Ni  Ni288  1  0.30537033  0.06962967  0.13125019  1.0
  Ni  Ni289  1  0.30537033  0.40296300  0.13125019  1.0
  Ni  Ni290  1  0.30537033  0.73629633  0.13125019  1.0
  Ni  Ni291  1  0.63870367  0.06962967  0.13125019  1.0
  Ni  Ni292  1  0.63870367  0.40296300  0.13125019  1.0
  Ni  Ni293  1  0.63870367  0.73629633  0.13125019  1.0
  Ni  Ni294  1  0.97203700  0.06962967  0.13125019  1.0
  Ni  Ni295  1  0.97203700  0.40296300  0.13125019  1.0
  Ni  Ni296  1  0.97203700  0.73629633  0.13125019  1.0
  Ni  Ni297  1  0.13870367  0.06962967  0.19375019  1.0
  Ni  Ni298  1  0.13870367  0.40296300  0.19375019  1.0
  Ni  Ni299  1  0.13870367  0.73629633  0.19375019  1.0
  Ni  Ni300  1  0.47203700  0.06962967  0.19375019  1.0
  Ni  Ni301  1  0.47203700  0.40296300  0.19375019  1.0
  Ni  Ni302  1  0.47203700  0.73629633  0.19375019  1.0
  Ni  Ni303  1  0.80537033  0.06962967  0.19375019  1.0
  Ni  Ni304  1  0.80537033  0.40296300  0.19375019  1.0
  Ni  Ni305  1  0.80537033  0.73629633  0.19375019  1.0
  Ni  Ni306  1  0.19462967  0.26370367  0.16168444  1.0
  Ni  Ni307  1  0.19462967  0.59703700  0.16168444  1.0
  Ni  Ni308  1  0.19462967  0.93037033  0.16168444  1.0
  Ni  Ni309  1  0.52796300  0.26370367  0.16168444  1.0
  Ni  Ni310  1  0.52796300  0.59703700  0.16168444  1.0
  Ni  Ni311  1  0.52796300  0.93037033  0.16168444  1.0
  Ni  Ni312  1  0.86129633  0.26370367  0.16168444  1.0
  Ni  Ni313  1  0.86129633  0.59703700  0.16168444  1.0
  Ni  Ni314  1  0.86129633  0.93037033  0.16168444  1.0
  Ni  Ni315  1  0.02796300  0.26370367  0.22418444  1.0
  Ni  Ni316  1  0.02796300  0.59703700  0.22418444  1.0
  Ni  Ni317  1  0.02796300  0.93037033  0.22418444  1.0
  Ni  Ni318  1  0.36129633  0.26370367  0.22418444  1.0
  Ni  Ni319  1  0.36129633  0.59703700  0.22418444  1.0
  Ni  Ni320  1  0.36129633  0.93037033  0.22418444  1.0
  Ni  Ni321  1  0.69462967  0.26370367  0.22418444  1.0
  Ni  Ni322  1  0.69462967  0.59703700  0.22418444  1.0
  Ni  Ni323  1  0.69462967  0.93037033  0.22418444  1.0
  Ni  Ni324  1  0.27796300  0.09703700  0.20402794  1.0
  Ni  Ni325  1  0.27796300  0.43037033  0.20402794  1.0
  Ni  Ni326  1  0.27796300  0.76370367  0.20402794  1.0
  Ni  Ni327  1  0.61129633  0.09703700  0.20402794  1.0
  Ni  Ni328  1  0.61129633  0.43037033  0.20402794  1.0
  Ni  Ni329  1  0.61129633  0.76370367  0.20402794  1.0
  Ni  Ni330  1  0.94462967  0.09703700  0.20402794  1.0
  Ni  Ni331  1  0.94462967  0.43037033  0.20402794  1.0
  Ni  Ni332  1  0.94462967  0.76370367  0.20402794  1.0
  Ni  Ni333  1  0.11129633  0.09703700  0.14152794  1.0
  Ni  Ni334  1  0.11129633  0.43037033  0.14152794  1.0
  Ni  Ni335  1  0.11129633  0.76370367  0.14152794  1.0
  Ni  Ni336  1  0.44462967  0.09703700  0.14152794  1.0
  Ni  Ni337  1  0.44462967  0.43037033  0.14152794  1.0
  Ni  Ni338  1  0.44462967  0.76370367  0.14152794  1.0
  Ni  Ni339  1  0.77796300  0.09703700  0.14152794  1.0
  Ni  Ni340  1  0.77796300  0.43037033  0.14152794  1.0
  Ni  Ni341  1  0.77796300  0.76370367  0.14152794  1.0
  Ni  Ni342  1  0.22203700  0.23629633  0.21390669  1.0
  Ni  Ni343  1  0.22203700  0.56962967  0.21390669  1.0
  Ni  Ni344  1  0.22203700  0.90296300  0.21390669  1.0
  Ni  Ni345  1  0.55537033  0.23629633  0.21390669  1.0
  Ni  Ni346  1  0.55537033  0.56962967  0.21390669  1.0
  Ni  Ni347  1  0.55537033  0.90296300  0.21390669  1.0
  Ni  Ni348  1  0.88870367  0.23629633  0.21390669  1.0
  Ni  Ni349  1  0.88870367  0.56962967  0.21390669  1.0
  Ni  Ni350  1  0.88870367  0.90296300  0.21390669  1.0
  Ni  Ni351  1  0.05537033  0.23629633  0.15140669  1.0
  Ni  Ni352  1  0.05537033  0.56962967  0.15140669  1.0
  Ni  Ni353  1  0.05537033  0.90296300  0.15140669  1.0
  Ni  Ni354  1  0.38870367  0.23629633  0.15140669  1.0
  Ni  Ni355  1  0.38870367  0.56962967  0.15140669  1.0
  Ni  Ni356  1  0.38870367  0.90296300  0.15140669  1.0
  Ni  Ni357  1  0.72203700  0.23629633  0.15140669  1.0
  Ni  Ni358  1  0.72203700  0.56962967  0.15140669  1.0
  Ni  Ni359  1  0.72203700  0.90296300  0.15140669  1.0
  Ge  Ge360  1  0.17066600  0.20433400  0.13993531  1.0
  Ge  Ge361  1  0.17066600  0.53766733  0.13993531  1.0
  Ge  Ge362  1  0.17066600  0.87100067  0.13993531  1.0
  Ge  Ge363  1  0.50399933  0.20433400  0.13993531  1.0
  Ge  Ge364  1  0.50399933  0.53766733  0.13993531  1.0
  Ge  Ge365  1  0.50399933  0.87100067  0.13993531  1.0
  Ge  Ge366  1  0.83733267  0.20433400  0.13993531  1.0
  Ge  Ge367  1  0.83733267  0.53766733  0.13993531  1.0
  Ge  Ge368  1  0.83733267  0.87100067  0.13993531  1.0
  Ge  Ge369  1  0.00399933  0.20433400  0.20243531  1.0
  Ge  Ge370  1  0.00399933  0.53766733  0.20243531  1.0
  Ge  Ge371  1  0.00399933  0.87100067  0.20243531  1.0
  Ge  Ge372  1  0.33733267  0.20433400  0.20243531  1.0
  Ge  Ge373  1  0.33733267  0.53766733  0.20243531  1.0
  Ge  Ge374  1  0.33733267  0.87100067  0.20243531  1.0
  Ge  Ge375  1  0.67066600  0.20433400  0.20243531  1.0
  Ge  Ge376  1  0.67066600  0.53766733  0.20243531  1.0
  Ge  Ge377  1  0.67066600  0.87100067  0.20243531  1.0
  Ge  Ge378  1  0.32933400  0.12899933  0.15299931  1.0
  Ge  Ge379  1  0.32933400  0.46233267  0.15299931  1.0
  Ge  Ge380  1  0.32933400  0.79566600  0.15299931  1.0
  Ge  Ge381  1  0.66266733  0.12899933  0.15299931  1.0
  Ge  Ge382  1  0.66266733  0.46233267  0.15299931  1.0
  Ge  Ge383  1  0.66266733  0.79566600  0.15299931  1.0
  Ge  Ge384  1  0.99600067  0.12899933  0.15299931  1.0
  Ge  Ge385  1  0.99600067  0.46233267  0.15299931  1.0
  Ge  Ge386  1  0.99600067  0.79566600  0.15299931  1.0
  Ge  Ge387  1  0.16266733  0.12899933  0.21549931  1.0
  Ge  Ge388  1  0.16266733  0.46233267  0.21549931  1.0
  Ge  Ge389  1  0.16266733  0.79566600  0.21549931  1.0
  Ge  Ge390  1  0.49600067  0.12899933  0.21549931  1.0
  Ge  Ge391  1  0.49600067  0.46233267  0.21549931  1.0
  Ge  Ge392  1  0.49600067  0.79566600  0.21549931  1.0
  Ge  Ge393  1  0.82933400  0.12899933  0.21549931  1.0
  Ge  Ge394  1  0.82933400  0.46233267  0.21549931  1.0
  Ge  Ge395  1  0.82933400  0.79566600  0.21549931  1.0
  Ge  Ge396  1  0.07933400  0.29566600  0.23668481  1.0
  Ge  Ge397  1  0.07933400  0.62899933  0.23668481  1.0
  Ge  Ge398  1  0.07933400  0.96233267  0.23668481  1.0
  Ge  Ge399  1  0.41266733  0.29566600  0.23668481  1.0
  Ge  Ge400  1  0.41266733  0.62899933  0.23668481  1.0
  Ge  Ge401  1  0.41266733  0.96233267  0.23668481  1.0
  Ge  Ge402  1  0.74600067  0.29566600  0.23668481  1.0
  Ge  Ge403  1  0.74600067  0.62899933  0.23668481  1.0
  Ge  Ge404  1  0.74600067  0.96233267  0.23668481  1.0
  Ge  Ge405  1  0.24600067  0.29566600  0.17418481  1.0
  Ge  Ge406  1  0.24600067  0.62899933  0.17418481  1.0
  Ge  Ge407  1  0.24600067  0.96233267  0.17418481  1.0
  Ge  Ge408  1  0.57933400  0.29566600  0.17418481  1.0
  Ge  Ge409  1  0.57933400  0.62899933  0.17418481  1.0
  Ge  Ge410  1  0.57933400  0.96233267  0.17418481  1.0
  Ge  Ge411  1  0.91266733  0.29566600  0.17418481  1.0
  Ge  Ge412  1  0.91266733  0.62899933  0.17418481  1.0
  Ge  Ge413  1  0.91266733  0.96233267  0.17418481  1.0
  Ge  Ge414  1  0.08733267  0.03766733  0.18124981  1.0
  Ge  Ge415  1  0.08733267  0.37100067  0.18124981  1.0
  Ge  Ge416  1  0.08733267  0.70433400  0.18124981  1.0
  Ge  Ge417  1  0.42066600  0.03766733  0.18124981  1.0
  Ge  Ge418  1  0.42066600  0.37100067  0.18124981  1.0
  Ge  Ge419  1  0.42066600  0.70433400  0.18124981  1.0
  Ge  Ge420  1  0.75399933  0.03766733  0.18124981  1.0
  Ge  Ge421  1  0.75399933  0.37100067  0.18124981  1.0
  Ge  Ge422  1  0.75399933  0.70433400  0.18124981  1.0
  Ge  Ge423  1  0.25399933  0.03766733  0.24374981  1.0
  Ge  Ge424  1  0.25399933  0.37100067  0.24374981  1.0
  Ge  Ge425  1  0.25399933  0.70433400  0.24374981  1.0
  Ge  Ge426  1  0.58733267  0.03766733  0.24374981  1.0
  Ge  Ge427  1  0.58733267  0.37100067  0.24374981  1.0
  Ge  Ge428  1  0.58733267  0.70433400  0.24374981  1.0
  Ge  Ge429  1  0.92066600  0.03766733  0.24374981  1.0
  Ge  Ge430  1  0.92066600  0.37100067  0.24374981  1.0
  Ge  Ge431  1  0.92066600  0.70433400  0.24374981  1.0
  Ni  Ni432  1  0.06169233  0.31330767  0.30118144  1.0
  Ni  Ni433  1  0.06169233  0.64664100  0.30118144  1.0
  Ni  Ni434  1  0.06169233  0.97997433  0.30118144  1.0
  Ni  Ni435  1  0.39502567  0.31330767  0.30118144  1.0
  Ni  Ni436  1  0.39502567  0.64664100  0.30118144  1.0
  Ni  Ni437  1  0.39502567  0.97997433  0.30118144  1.0
  Ni  Ni438  1  0.72835900  0.31330767  0.30118144  1.0
  Ni  Ni439  1  0.72835900  0.64664100  0.30118144  1.0
  Ni  Ni440  1  0.72835900  0.97997433  0.30118144  1.0
  Ni  Ni441  1  0.22835900  0.31330767  0.36368144  1.0
  Ni  Ni442  1  0.22835900  0.64664100  0.36368144  1.0
  Ni  Ni443  1  0.22835900  0.97997433  0.36368144  1.0
  Ni  Ni444  1  0.56169233  0.31330767  0.36368144  1.0
  Ni  Ni445  1  0.56169233  0.64664100  0.36368144  1.0
  Ni  Ni446  1  0.56169233  0.97997433  0.36368144  1.0
  Ni  Ni447  1  0.89502567  0.31330767  0.36368144  1.0
  Ni  Ni448  1  0.89502567  0.64664100  0.36368144  1.0
  Ni  Ni449  1  0.89502567  0.97997433  0.36368144  1.0
  Ni  Ni450  1  0.10497433  0.02002567  0.36675319  1.0
  Ni  Ni451  1  0.10497433  0.35335900  0.36675319  1.0
  Ni  Ni452  1  0.10497433  0.68669233  0.36675319  1.0
  Ni  Ni453  1  0.43830767  0.02002567  0.36675319  1.0
  Ni  Ni454  1  0.43830767  0.35335900  0.36675319  1.0
  Ni  Ni455  1  0.43830767  0.68669233  0.36675319  1.0
  Ni  Ni456  1  0.77164100  0.02002567  0.36675319  1.0
  Ni  Ni457  1  0.77164100  0.35335900  0.36675319  1.0
  Ni  Ni458  1  0.77164100  0.68669233  0.36675319  1.0
  Ni  Ni459  1  0.27164100  0.02002567  0.30425319  1.0
  Ni  Ni460  1  0.27164100  0.35335900  0.30425319  1.0
  Ni  Ni461  1  0.27164100  0.68669233  0.30425319  1.0
  Ni  Ni462  1  0.60497433  0.02002567  0.30425319  1.0
  Ni  Ni463  1  0.60497433  0.35335900  0.30425319  1.0
  Ni  Ni464  1  0.60497433  0.68669233  0.30425319  1.0
  Ni  Ni465  1  0.93830767  0.02002567  0.30425319  1.0
  Ni  Ni466  1  0.93830767  0.35335900  0.30425319  1.0
  Ni  Ni467  1  0.93830767  0.68669233  0.30425319  1.0
  Ni  Ni468  1  0.18830767  0.18669233  0.31620069  1.0
  Ni  Ni469  1  0.18830767  0.52002567  0.31620069  1.0
  Ni  Ni470  1  0.18830767  0.85335900  0.31620069  1.0
  Ni  Ni471  1  0.52164100  0.18669233  0.31620069  1.0
  Ni  Ni472  1  0.52164100  0.52002567  0.31620069  1.0
  Ni  Ni473  1  0.52164100  0.85335900  0.31620069  1.0
  Ni  Ni474  1  0.85497433  0.18669233  0.31620069  1.0
  Ni  Ni475  1  0.85497433  0.52002567  0.31620069  1.0
  Ni  Ni476  1  0.85497433  0.85335900  0.31620069  1.0
  Ni  Ni477  1  0.02164100  0.18669233  0.25370069  1.0
  Ni  Ni478  1  0.02164100  0.52002567  0.25370069  1.0
  Ni  Ni479  1  0.02164100  0.85335900  0.25370069  1.0
  Ni  Ni480  1  0.35497433  0.18669233  0.25370069  1.0
  Ni  Ni481  1  0.35497433  0.52002567  0.25370069  1.0
  Ni  Ni482  1  0.35497433  0.85335900  0.25370069  1.0
  Ni  Ni483  1  0.68830767  0.18669233  0.25370069  1.0
  Ni  Ni484  1  0.68830767  0.52002567  0.25370069  1.0
  Ni  Ni485  1  0.68830767  0.85335900  0.25370069  1.0
  Ni  Ni486  1  0.31169233  0.14664100  0.35173394  1.0
  Ni  Ni487  1  0.31169233  0.47997433  0.35173394  1.0
  Ni  Ni488  1  0.31169233  0.81330767  0.35173394  1.0
  Ni  Ni489  1  0.64502567  0.14664100  0.35173394  1.0
  Ni  Ni490  1  0.64502567  0.47997433  0.35173394  1.0
  Ni  Ni491  1  0.64502567  0.81330767  0.35173394  1.0
  Ni  Ni492  1  0.97835900  0.14664100  0.35173394  1.0
  Ni  Ni493  1  0.97835900  0.47997433  0.35173394  1.0
  Ni  Ni494  1  0.97835900  0.81330767  0.35173394  1.0
  Ni  Ni495  1  0.14502567  0.14664100  0.28923394  1.0
  Ni  Ni496  1  0.14502567  0.47997433  0.28923394  1.0
  Ni  Ni497  1  0.14502567  0.81330767  0.28923394  1.0
  Ni  Ni498  1  0.47835900  0.14664100  0.28923394  1.0
  Ni  Ni499  1  0.47835900  0.47997433  0.28923394  1.0
  Ni  Ni500  1  0.47835900  0.81330767  0.28923394  1.0
  Ni  Ni501  1  0.81169233  0.14664100  0.28923394  1.0
  Ni  Ni502  1  0.81169233  0.47997433  0.28923394  1.0
  Ni  Ni503  1  0.81169233  0.81330767  0.28923394  1.0
  Ni  Ni504  1  0.30537033  0.06962967  0.25625019  1.0
  Ni  Ni505  1  0.30537033  0.40296300  0.25625019  1.0
  Ni  Ni506  1  0.30537033  0.73629633  0.25625019  1.0
  Ni  Ni507  1  0.63870367  0.06962967  0.25625019  1.0
  Ni  Ni508  1  0.63870367  0.40296300  0.25625019  1.0
  Ni  Ni509  1  0.63870367  0.73629633  0.25625019  1.0
  Ni  Ni510  1  0.97203700  0.06962967  0.25625019  1.0
  Ni  Ni511  1  0.97203700  0.40296300  0.25625019  1.0
  Ni  Ni512  1  0.97203700  0.73629633  0.25625019  1.0
  Ni  Ni513  1  0.13870367  0.06962967  0.31875019  1.0
  Ni  Ni514  1  0.13870367  0.40296300  0.31875019  1.0
  Ni  Ni515  1  0.13870367  0.73629633  0.31875019  1.0
  Ni  Ni516  1  0.47203700  0.06962967  0.31875019  1.0
  Ni  Ni517  1  0.47203700  0.40296300  0.31875019  1.0
  Ni  Ni518  1  0.47203700  0.73629633  0.31875019  1.0
  Ni  Ni519  1  0.80537033  0.06962967  0.31875019  1.0
  Ni  Ni520  1  0.80537033  0.40296300  0.31875019  1.0
  Ni  Ni521  1  0.80537033  0.73629633  0.31875019  1.0
  Ni  Ni522  1  0.19462967  0.26370367  0.28668444  1.0
  Ni  Ni523  1  0.19462967  0.59703700  0.28668444  1.0
  Ni  Ni524  1  0.19462967  0.93037033  0.28668444  1.0
  Ni  Ni525  1  0.52796300  0.26370367  0.28668444  1.0
  Ni  Ni526  1  0.52796300  0.59703700  0.28668444  1.0
  Ni  Ni527  1  0.52796300  0.93037033  0.28668444  1.0
  Ni  Ni528  1  0.86129633  0.26370367  0.28668444  1.0
  Ni  Ni529  1  0.86129633  0.59703700  0.28668444  1.0
  Ni  Ni530  1  0.86129633  0.93037033  0.28668444  1.0
  Ni  Ni531  1  0.02796300  0.26370367  0.34918444  1.0
  Ni  Ni532  1  0.02796300  0.59703700  0.34918444  1.0
  Ni  Ni533  1  0.02796300  0.93037033  0.34918444  1.0
  Ni  Ni534  1  0.36129633  0.26370367  0.34918444  1.0
  Ni  Ni535  1  0.36129633  0.59703700  0.34918444  1.0
  Ni  Ni536  1  0.36129633  0.93037033  0.34918444  1.0
  Ni  Ni537  1  0.69462967  0.26370367  0.34918444  1.0
  Ni  Ni538  1  0.69462967  0.59703700  0.34918444  1.0
  Ni  Ni539  1  0.69462967  0.93037033  0.34918444  1.0
  Ni  Ni540  1  0.27796300  0.09703700  0.32902794  1.0
  Ni  Ni541  1  0.27796300  0.43037033  0.32902794  1.0
  Ni  Ni542  1  0.27796300  0.76370367  0.32902794  1.0
  Ni  Ni543  1  0.61129633  0.09703700  0.32902794  1.0
  Ni  Ni544  1  0.61129633  0.43037033  0.32902794  1.0
  Ni  Ni545  1  0.61129633  0.76370367  0.32902794  1.0
  Ni  Ni546  1  0.94462967  0.09703700  0.32902794  1.0
  Ni  Ni547  1  0.94462967  0.43037033  0.32902794  1.0
  Ni  Ni548  1  0.94462967  0.76370367  0.32902794  1.0
  Ni  Ni549  1  0.11129633  0.09703700  0.26652794  1.0
  Ni  Ni550  1  0.11129633  0.43037033  0.26652794  1.0
  Ni  Ni551  1  0.11129633  0.76370367  0.26652794  1.0
  Ni  Ni552  1  0.44462967  0.09703700  0.26652794  1.0
  Ni  Ni553  1  0.44462967  0.43037033  0.26652794  1.0
  Ni  Ni554  1  0.44462967  0.76370367  0.26652794  1.0
  Ni  Ni555  1  0.77796300  0.09703700  0.26652794  1.0
  Ni  Ni556  1  0.77796300  0.43037033  0.26652794  1.0
  Ni  Ni557  1  0.77796300  0.76370367  0.26652794  1.0
  Ni  Ni558  1  0.22203700  0.23629633  0.33890669  1.0
  Ni  Ni559  1  0.22203700  0.56962967  0.33890669  1.0
  Ni  Ni560  1  0.22203700  0.90296300  0.33890669  1.0
  Ni  Ni561  1  0.55537033  0.23629633  0.33890669  1.0
  Ni  Ni562  1  0.55537033  0.56962967  0.33890669  1.0
  Ni  Ni563  1  0.55537033  0.90296300  0.33890669  1.0
  Ni  Ni564  1  0.88870367  0.23629633  0.33890669  1.0
  Ni  Ni565  1  0.88870367  0.56962967  0.33890669  1.0
  Ni  Ni566  1  0.88870367  0.90296300  0.33890669  1.0
  Ni  Ni567  1  0.05537033  0.23629633  0.27640669  1.0
  Ni  Ni568  1  0.05537033  0.56962967  0.27640669  1.0
  Ni  Ni569  1  0.05537033  0.90296300  0.27640669  1.0
  Ni  Ni570  1  0.38870367  0.23629633  0.27640669  1.0
  Ni  Ni571  1  0.38870367  0.56962967  0.27640669  1.0
  Ni  Ni572  1  0.38870367  0.90296300  0.27640669  1.0
  Ni  Ni573  1  0.72203700  0.23629633  0.27640669  1.0
  Ni  Ni574  1  0.72203700  0.56962967  0.27640669  1.0
  Ni  Ni575  1  0.72203700  0.90296300  0.27640669  1.0
  Ge  Ge576  1  0.17066600  0.20433400  0.26493531  1.0
  Ge  Ge577  1  0.17066600  0.53766733  0.26493531  1.0
  Ge  Ge578  1  0.17066600  0.87100067  0.26493531  1.0
  Ge  Ge579  1  0.50399933  0.20433400  0.26493531  1.0
  Ge  Ge580  1  0.50399933  0.53766733  0.26493531  1.0
  Ge  Ge581  1  0.50399933  0.87100067  0.26493531  1.0
  Ge  Ge582  1  0.83733267  0.20433400  0.26493531  1.0
  Ge  Ge583  1  0.83733267  0.53766733  0.26493531  1.0
  Ge  Ge584  1  0.83733267  0.87100067  0.26493531  1.0
  Ge  Ge585  1  0.00399933  0.20433400  0.32743531  1.0
  Ge  Ge586  1  0.00399933  0.53766733  0.32743531  1.0
  Ge  Ge587  1  0.00399933  0.87100067  0.32743531  1.0
  Ge  Ge588  1  0.33733267  0.20433400  0.32743531  1.0
  Ge  Ge589  1  0.33733267  0.53766733  0.32743531  1.0
  Ge  Ge590  1  0.33733267  0.87100067  0.32743531  1.0
  Ge  Ge591  1  0.67066600  0.20433400  0.32743531  1.0
  Ge  Ge592  1  0.67066600  0.53766733  0.32743531  1.0
  Ge  Ge593  1  0.67066600  0.87100067  0.32743531  1.0
  Ge  Ge594  1  0.32933400  0.12899933  0.27799931  1.0
  Ge  Ge595  1  0.32933400  0.46233267  0.27799931  1.0
  Ge  Ge596  1  0.32933400  0.79566600  0.27799931  1.0
  Ge  Ge597  1  0.66266733  0.12899933  0.27799931  1.0
  Ge  Ge598  1  0.66266733  0.46233267  0.27799931  1.0
  Ge  Ge599  1  0.66266733  0.79566600  0.27799931  1.0
  Ge  Ge600  1  0.99600067  0.12899933  0.27799931  1.0
  Ge  Ge601  1  0.99600067  0.46233267  0.27799931  1.0
  Ge  Ge602  1  0.99600067  0.79566600  0.27799931  1.0
  Ge  Ge603  1  0.16266733  0.12899933  0.34049931  1.0
  Ge  Ge604  1  0.16266733  0.46233267  0.34049931  1.0
  Ge  Ge605  1  0.16266733  0.79566600  0.34049931  1.0
  Ge  Ge606  1  0.49600067  0.12899933  0.34049931  1.0
  Ge  Ge607  1  0.49600067  0.46233267  0.34049931  1.0
  Ge  Ge608  1  0.49600067  0.79566600  0.34049931  1.0
  Ge  Ge609  1  0.82933400  0.12899933  0.34049931  1.0
  Ge  Ge610  1  0.82933400  0.46233267  0.34049931  1.0
  Ge  Ge611  1  0.82933400  0.79566600  0.34049931  1.0
  Ge  Ge612  1  0.07933400  0.29566600  0.36168481  1.0
  Ge  Ge613  1  0.07933400  0.62899933  0.36168481  1.0
  Ge  Ge614  1  0.07933400  0.96233267  0.36168481  1.0
  Ge  Ge615  1  0.41266733  0.29566600  0.36168481  1.0
  Ge  Ge616  1  0.41266733  0.62899933  0.36168481  1.0
  Ge  Ge617  1  0.41266733  0.96233267  0.36168481  1.0
  Ge  Ge618  1  0.74600067  0.29566600  0.36168481  1.0
  Ge  Ge619  1  0.74600067  0.62899933  0.36168481  1.0
  Ge  Ge620  1  0.74600067  0.96233267  0.36168481  1.0
  Ge  Ge621  1  0.24600067  0.29566600  0.29918481  1.0
  Ge  Ge622  1  0.24600067  0.62899933  0.29918481  1.0
  Ge  Ge623  1  0.24600067  0.96233267  0.29918481  1.0
  Ge  Ge624  1  0.57933400  0.29566600  0.29918481  1.0
  Ge  Ge625  1  0.57933400  0.62899933  0.29918481  1.0
  Ge  Ge626  1  0.57933400  0.96233267  0.29918481  1.0
  Ge  Ge627  1  0.91266733  0.29566600  0.29918481  1.0
  Ge  Ge628  1  0.91266733  0.62899933  0.29918481  1.0
  Ge  Ge629  1  0.91266733  0.96233267  0.29918481  1.0
  Ge  Ge630  1  0.08733267  0.03766733  0.30624981  1.0
  Ge  Ge631  1  0.08733267  0.37100067  0.30624981  1.0
  Ge  Ge632  1  0.08733267  0.70433400  0.30624981  1.0
  Ge  Ge633  1  0.42066600  0.03766733  0.30624981  1.0
  Ge  Ge634  1  0.42066600  0.37100067  0.30624981  1.0
  Ge  Ge635  1  0.42066600  0.70433400  0.30624981  1.0
  Ge  Ge636  1  0.75399933  0.03766733  0.30624981  1.0
  Ge  Ge637  1  0.75399933  0.37100067  0.30624981  1.0
  Ge  Ge638  1  0.75399933  0.70433400  0.30624981  1.0
  Ge  Ge639  1  0.25399933  0.03766733  0.36874981  1.0
  Ge  Ge640  1  0.25399933  0.37100067  0.36874981  1.0
  Ge  Ge641  1  0.25399933  0.70433400  0.36874981  1.0
  Ge  Ge642  1  0.58733267  0.03766733  0.36874981  1.0
  Ge  Ge643  1  0.58733267  0.37100067  0.36874981  1.0
  Ge  Ge644  1  0.58733267  0.70433400  0.36874981  1.0
  Ge  Ge645  1  0.92066600  0.03766733  0.36874981  1.0
  Ge  Ge646  1  0.92066600  0.37100067  0.36874981  1.0
  Ge  Ge647  1  0.92066600  0.70433400  0.36874981  1.0
