# generated using pymatgen
data_Ni2Ge
_symmetry_space_group_name_H-M   'P 1'
_cell_length_a   20.83044209
_cell_length_b   19.44490741
_cell_length_c   36.07938405
_cell_angle_alpha   51.79412294
_cell_angle_beta   90.00000000
_cell_angle_gamma   90.00000000
_symmetry_Int_Tables_number   1
_chemical_formula_structural   Ni2Ge
_chemical_formula_sum   'Ni288 Ge144'
_cell_volume   11483.43692469
_cell_formula_units_Z   144
loop_
 _symmetry_equiv_pos_site_id
 _symmetry_equiv_pos_as_xyz
  1  'x, y, z'
loop_
 _atom_site_type_symbol
 _atom_site_label
 _atom_site_symmetry_multiplicity
 _atom_site_fract_x
 _atom_site_fract_y
 _atom_site_fract_z
 _atom_site_occupancy
  Ni  Ni0  1  0.16666667  0.00000000  0.04166667  1.0
  Ni  Ni1  1  0.16666667  0.33333333  0.04166667  1.0
  Ni  Ni2  1  0.16666667  0.66666667  0.04166667  1.0
  Ni  Ni3  1  0.50000000  0.00000000  0.04166667  1.0
  Ni  Ni4  1  0.50000000  0.33333333  0.04166667  1.0
  Ni  Ni5  1  0.50000000  0.66666667  0.04166667  1.0
  Ni  Ni6  1  0.83333333  0.00000000  0.04166667  1.0
  Ni  Ni7  1  0.83333333  0.33333333  0.04166667  1.0
  Ni  Ni8  1  0.83333333  0.66666667  0.04166667  1.0
  Ni  Ni9  1  0.00000000  0.00000000  0.09722222  1.0
  Ni  Ni10  1  0.00000000  0.33333333  0.09722222  1.0
  Ni  Ni11  1  0.00000000  0.66666667  0.09722222  1.0
  Ni  Ni12  1  0.33333333  0.00000000  0.09722222  1.0
  Ni  Ni13  1  0.33333333  0.33333333  0.09722222  1.0
  Ni  Ni14  1  0.33333333  0.66666667  0.09722222  1.0
  Ni  Ni15  1  0.66666667  0.00000000  0.09722222  1.0
  Ni  Ni16  1  0.66666667  0.33333333  0.09722222  1.0
  Ni  Ni17  1  0.66666667  0.66666667  0.09722222  1.0
  Ni  Ni18  1  0.16666667  0.16666667  0.09722222  1.0
  Ni  Ni19  1  0.16666667  0.50000000  0.09722222  1.0
  Ni  Ni20  1  0.16666667  0.83333333  0.09722222  1.0
  Ni  Ni21  1  0.50000000  0.16666667  0.09722222  1.0
  Ni  Ni22  1  0.50000000  0.50000000  0.09722222  1.0
  Ni  Ni23  1  0.50000000  0.83333333  0.09722222  1.0
  Ni  Ni24  1  0.83333333  0.16666667  0.09722222  1.0
  Ni  Ni25  1  0.83333333  0.50000000  0.09722222  1.0
  Ni  Ni26  1  0.83333333  0.83333333  0.09722222  1.0
  Ni  Ni27  1  0.00000000  0.16666667  0.04166667  1.0
  Ni  Ni28  1  0.00000000  0.50000000  0.04166667  1.0
  Ni  Ni29  1  0.00000000  0.83333333  0.04166667  1.0
  Ni  Ni30  1  0.33333333  0.16666667  0.04166667  1.0
  Ni  Ni31  1  0.33333333  0.50000000  0.04166667  1.0
  Ni  Ni32  1  0.33333333  0.83333333  0.04166667  1.0
  Ni  Ni33  1  0.66666667  0.16666667  0.04166667  1.0
  Ni  Ni34  1  0.66666667  0.50000000  0.04166667  1.0
  Ni  Ni35  1  0.66666667  0.83333333  0.04166667  1.0
  Ni  Ni36  1  0.11111111  0.25000000  0.01388889  1.0
  Ni  Ni37  1  0.11111111  0.58333333  0.01388889  1.0
  Ni  Ni38  1  0.11111111  0.91666667  0.01388889  1.0
  Ni  Ni39  1  0.44444444  0.25000000  0.01388889  1.0
  Ni  Ni40  1  0.44444444  0.58333333  0.01388889  1.0
  Ni  Ni41  1  0.44444444  0.91666667  0.01388889  1.0
  Ni  Ni42  1  0.77777778  0.25000000  0.01388889  1.0
  Ni  Ni43  1  0.77777778  0.58333333  0.01388889  1.0
  Ni  Ni44  1  0.77777778  0.91666667  0.01388889  1.0
  Ni  Ni45  1  0.27777778  0.25000000  0.06944444  1.0
  Ni  Ni46  1  0.27777778  0.58333333  0.06944444  1.0
  Ni  Ni47  1  0.27777778  0.91666667  0.06944444  1.0
  Ni  Ni48  1  0.61111111  0.25000000  0.06944444  1.0
  Ni  Ni49  1  0.61111111  0.58333333  0.06944444  1.0
  Ni  Ni50  1  0.61111111  0.91666667  0.06944444  1.0
  Ni  Ni51  1  0.94444444  0.25000000  0.06944444  1.0
  Ni  Ni52  1  0.94444444  0.58333333  0.06944444  1.0
  Ni  Ni53  1  0.94444444  0.91666667  0.06944444  1.0
  Ni  Ni54  1  0.05555556  0.08333333  0.01388889  1.0
  Ni  Ni55  1  0.05555556  0.41666667  0.01388889  1.0
  Ni  Ni56  1  0.05555556  0.75000000  0.01388889  1.0
  Ni  Ni57  1  0.38888889  0.08333333  0.01388889  1.0
  Ni  Ni58  1  0.38888889  0.41666667  0.01388889  1.0
  Ni  Ni59  1  0.38888889  0.75000000  0.01388889  1.0
  Ni  Ni60  1  0.72222222  0.08333333  0.01388889  1.0
  Ni  Ni61  1  0.72222222  0.41666667  0.01388889  1.0
  Ni  Ni62  1  0.72222222  0.75000000  0.01388889  1.0
  Ni  Ni63  1  0.22222222  0.08333333  0.06944444  1.0
  Ni  Ni64  1  0.22222222  0.41666667  0.06944444  1.0
  Ni  Ni65  1  0.22222222  0.75000000  0.06944444  1.0
  Ni  Ni66  1  0.55555556  0.08333333  0.06944444  1.0
  Ni  Ni67  1  0.55555556  0.41666667  0.06944444  1.0
  Ni  Ni68  1  0.55555556  0.75000000  0.06944444  1.0
  Ni  Ni69  1  0.88888889  0.08333333  0.06944444  1.0
  Ni  Ni70  1  0.88888889  0.41666667  0.06944444  1.0
  Ni  Ni71  1  0.88888889  0.75000000  0.06944444  1.0
  Ge  Ge72  1  0.11111111  0.08333333  0.06944444  1.0
  Ge  Ge73  1  0.11111111  0.41666667  0.06944444  1.0
  Ge  Ge74  1  0.11111111  0.75000000  0.06944444  1.0
  Ge  Ge75  1  0.44444444  0.08333333  0.06944444  1.0
  Ge  Ge76  1  0.44444444  0.41666667  0.06944444  1.0
  Ge  Ge77  1  0.44444444  0.75000000  0.06944444  1.0
  Ge  Ge78  1  0.77777778  0.08333333  0.06944444  1.0
  Ge  Ge79  1  0.77777778  0.41666667  0.06944444  1.0
  Ge  Ge80  1  0.77777778  0.75000000  0.06944444  1.0
  Ge  Ge81  1  0.27777778  0.08333333  0.01388889  1.0
  Ge  Ge82  1  0.27777778  0.41666667  0.01388889  1.0
  Ge  Ge83  1  0.27777778  0.75000000  0.01388889  1.0
  Ge  Ge84  1  0.61111111  0.08333333  0.01388889  1.0
  Ge  Ge85  1  0.61111111  0.41666667  0.01388889  1.0
  Ge  Ge86  1  0.61111111  0.75000000  0.01388889  1.0
  Ge  Ge87  1  0.94444444  0.08333333  0.01388889  1.0
  Ge  Ge88  1  0.94444444  0.41666667  0.01388889  1.0
  Ge  Ge89  1  0.94444444  0.75000000  0.01388889  1.0
  Ge  Ge90  1  0.05555556  0.25000000  0.06944444  1.0
  Ge  Ge91  1  0.05555556  0.58333333  0.06944444  1.0
  Ge  Ge92  1  0.05555556  0.91666667  0.06944444  1.0
  Ge  Ge93  1  0.38888889  0.25000000  0.06944444  1.0
  Ge  Ge94  1  0.38888889  0.58333333  0.06944444  1.0
  Ge  Ge95  1  0.38888889  0.91666667  0.06944444  1.0
  Ge  Ge96  1  0.72222222  0.25000000  0.06944444  1.0
  Ge  Ge97  1  0.72222222  0.58333333  0.06944444  1.0
  Ge  Ge98  1  0.72222222  0.91666667  0.06944444  1.0
  Ge  Ge99  1  0.22222222  0.25000000  0.01388889  1.0
  Ge  Ge100  1  0.22222222  0.58333333  0.01388889  1.0
  Ge  Ge101  1  0.22222222  0.91666667  0.01388889  1.0
  Ge  Ge102  1  0.55555556  0.25000000  0.01388889  1.0
  Ge  Ge103  1  0.55555556  0.58333333  0.01388889  1.0
  Ge  Ge104  1  0.55555556  0.91666667  0.01388889  1.0
  Ge  Ge105  1  0.88888889  0.25000000  0.01388889  1.0
  Ge  Ge106  1  0.88888889  0.58333333  0.01388889  1.0
  Ge  Ge107  1  0.88888889  0.91666667  0.01388889  1.0
  Ni  Ni108  1  0.16666667  0.00000000  0.15277778  1.0
  Ni  Ni109  1  0.16666667  0.33333333  0.15277778  1.0
  Ni  Ni110  1  0.16666667  0.66666667  0.15277778  1.0
  Ni  Ni111  1  0.50000000  0.00000000  0.15277778  1.0
  Ni  Ni112  1  0.50000000  0.33333333  0.15277778  1.0
  Ni  Ni113  1  0.50000000  0.66666667  0.15277778  1.0
  Ni  Ni114  1  0.83333333  0.00000000  0.15277778  1.0
  Ni  Ni115  1  0.83333333  0.33333333  0.15277778  1.0
  Ni  Ni116  1  0.83333333  0.66666667  0.15277778  1.0
  Ni  Ni117  1  0.00000000  0.00000000  0.20833333  1.0
  Ni  Ni118  1  0.00000000  0.33333333  0.20833333  1.0
  Ni  Ni119  1  0.00000000  0.66666667  0.20833333  1.0
  Ni  Ni120  1  0.33333333  0.00000000  0.20833333  1.0
  Ni  Ni121  1  0.33333333  0.33333333  0.20833333  1.0
  Ni  Ni122  1  0.33333333  0.66666667  0.20833333  1.0
  Ni  Ni123  1  0.66666667  0.00000000  0.20833333  1.0
  Ni  Ni124  1  0.66666667  0.33333333  0.20833333  1.0
  Ni  Ni125  1  0.66666667  0.66666667  0.20833333  1.0
  Ni  Ni126  1  0.16666667  0.16666667  0.20833333  1.0
  Ni  Ni127  1  0.16666667  0.50000000  0.20833333  1.0
  Ni  Ni128  1  0.16666667  0.83333333  0.20833333  1.0
  Ni  Ni129  1  0.50000000  0.16666667  0.20833333  1.0
  Ni  Ni130  1  0.50000000  0.50000000  0.20833333  1.0
  Ni  Ni131  1  0.50000000  0.83333333  0.20833333  1.0
  Ni  Ni132  1  0.83333333  0.16666667  0.20833333  1.0
  Ni  Ni133  1  0.83333333  0.50000000  0.20833333  1.0
  Ni  Ni134  1  0.83333333  0.83333333  0.20833333  1.0
  Ni  Ni135  1  0.00000000  0.16666667  0.15277778  1.0
  Ni  Ni136  1  0.00000000  0.50000000  0.15277778  1.0
  Ni  Ni137  1  0.00000000  0.83333333  0.15277778  1.0
  Ni  Ni138  1  0.33333333  0.16666667  0.15277778  1.0
  Ni  Ni139  1  0.33333333  0.50000000  0.15277778  1.0
  Ni  Ni140  1  0.33333333  0.83333333  0.15277778  1.0
  Ni  Ni141  1  0.66666667  0.16666667  0.15277778  1.0
  Ni  Ni142  1  0.66666667  0.50000000  0.15277778  1.0
  Ni  Ni143  1  0.66666667  0.83333333  0.15277778  1.0
  Ni  Ni144  1  0.11111111  0.25000000  0.12500000  1.0
  Ni  Ni145  1  0.11111111  0.58333333  0.12500000  1.0
  Ni  Ni146  1  0.11111111  0.91666667  0.12500000  1.0
  Ni  Ni147  1  0.44444444  0.25000000  0.12500000  1.0
  Ni  Ni148  1  0.44444444  0.58333333  0.12500000  1.0
  Ni  Ni149  1  0.44444444  0.91666667  0.12500000  1.0
  Ni  Ni150  1  0.77777778  0.25000000  0.12500000  1.0
  Ni  Ni151  1  0.77777778  0.58333333  0.12500000  1.0
  Ni  Ni152  1  0.77777778  0.91666667  0.12500000  1.0
  Ni  Ni153  1  0.27777778  0.25000000  0.18055556  1.0
  Ni  Ni154  1  0.27777778  0.58333333  0.18055556  1.0
  Ni  Ni155  1  0.27777778  0.91666667  0.18055556  1.0
  Ni  Ni156  1  0.61111111  0.25000000  0.18055556  1.0
  Ni  Ni157  1  0.61111111  0.58333333  0.18055556  1.0
  Ni  Ni158  1  0.61111111  0.91666667  0.18055556  1.0
  Ni  Ni159  1  0.94444444  0.25000000  0.18055556  1.0
  Ni  Ni160  1  0.94444444  0.58333333  0.18055556  1.0
  Ni  Ni161  1  0.94444444  0.91666667  0.18055556  1.0
  Ni  Ni162  1  0.05555556  0.08333333  0.12500000  1.0
  Ni  Ni163  1  0.05555556  0.41666667  0.12500000  1.0
  Ni  Ni164  1  0.05555556  0.75000000  0.12500000  1.0
  Ni  Ni165  1  0.38888889  0.08333333  0.12500000  1.0
  Ni  Ni166  1  0.38888889  0.41666667  0.12500000  1.0
  Ni  Ni167  1  0.38888889  0.75000000  0.12500000  1.0
  Ni  Ni168  1  0.72222222  0.08333333  0.12500000  1.0
  Ni  Ni169  1  0.72222222  0.41666667  0.12500000  1.0
  Ni  Ni170  1  0.72222222  0.75000000  0.12500000  1.0
  Ni  Ni171  1  0.22222222  0.08333333  0.18055556  1.0
  Ni  Ni172  1  0.22222222  0.41666667  0.18055556  1.0
  Ni  Ni173  1  0.22222222  0.75000000  0.18055556  1.0
  Ni  Ni174  1  0.55555556  0.08333333  0.18055556  1.0
  Ni  Ni175  1  0.55555556  0.41666667  0.18055556  1.0
  Ni  Ni176  1  0.55555556  0.75000000  0.18055556  1.0
  Ni  Ni177  1  0.88888889  0.08333333  0.18055556  1.0
  Ni  Ni178  1  0.88888889  0.41666667  0.18055556  1.0
  Ni  Ni179  1  0.88888889  0.75000000  0.18055556  1.0
  Ge  Ge180  1  0.11111111  0.08333333  0.18055556  1.0
  Ge  Ge181  1  0.11111111  0.41666667  0.18055556  1.0
  Ge  Ge182  1  0.11111111  0.75000000  0.18055556  1.0
  Ge  Ge183  1  0.44444444  0.08333333  0.18055556  1.0
  Ge  Ge184  1  0.44444444  0.41666667  0.18055556  1.0
  Ge  Ge185  1  0.44444444  0.75000000  0.18055556  1.0
  Ge  Ge186  1  0.77777778  0.08333333  0.18055556  1.0
  Ge  Ge187  1  0.77777778  0.41666667  0.18055556  1.0
  Ge  Ge188  1  0.77777778  0.75000000  0.18055556  1.0
  Ge  Ge189  1  0.27777778  0.08333333  0.12500000  1.0
  Ge  Ge190  1  0.27777778  0.41666667  0.12500000  1.0
  Ge  Ge191  1  0.27777778  0.75000000  0.12500000  1.0
  Ge  Ge192  1  0.61111111  0.08333333  0.12500000  1.0
  Ge  Ge193  1  0.61111111  0.41666667  0.12500000  1.0
  Ge  Ge194  1  0.61111111  0.75000000  0.12500000  1.0
  Ge  Ge195  1  0.94444444  0.08333333  0.12500000  1.0
  Ge  Ge196  1  0.94444444  0.41666667  0.12500000  1.0
  Ge  Ge197  1  0.94444444  0.75000000  0.12500000  1.0
  Ge  Ge198  1  0.05555556  0.25000000  0.18055556  1.0
  Ge  Ge199  1  0.05555556  0.58333333  0.18055556  1.0
  Ge  Ge200  1  0.05555556  0.91666667  0.18055556  1.0
  Ge  Ge201  1  0.38888889  0.25000000  0.18055556  1.0
  Ge  Ge202  1  0.38888889  0.58333333  0.18055556  1.0
  Ge  Ge203  1  0.38888889  0.91666667  0.18055556  1.0
  Ge  Ge204  1  0.72222222  0.25000000  0.18055556  1.0
  Ge  Ge205  1  0.72222222  0.58333333  0.18055556  1.0
  Ge  Ge206  1  0.72222222  0.91666667  0.18055556  1.0
  Ge  Ge207  1  0.22222222  0.25000000  0.12500000  1.0
  Ge  Ge208  1  0.22222222  0.58333333  0.12500000  1.0
  Ge  Ge209  1  0.22222222  0.91666667  0.12500000  1.0
  Ge  Ge210  1  0.55555556  0.25000000  0.12500000  1.0
  Ge  Ge211  1  0.55555556  0.58333333  0.12500000  1.0
  Ge  Ge212  1  0.55555556  0.91666667  0.12500000  1.0
  Ge  Ge213  1  0.88888889  0.25000000  0.12500000  1.0
  Ge  Ge214  1  0.88888889  0.58333333  0.12500000  1.0
  Ge  Ge215  1  0.88888889  0.91666667  0.12500000  1.0
  Ni  Ni216  1  0.16666667  0.00000000  0.26388889  1.0
  Ni  Ni217  1  0.16666667  0.33333333  0.26388889  1.0
  Ni  Ni218  1  0.16666667  0.66666667  0.26388889  1.0
  Ni  Ni219  1  0.50000000  0.00000000  0.26388889  1.0
  Ni  Ni220  1  0.50000000  0.33333333  0.26388889  1.0
  Ni  Ni221  1  0.50000000  0.66666667  0.26388889  1.0
  Ni  Ni222  1  0.83333333  0.00000000  0.26388889  1.0
  Ni  Ni223  1  0.83333333  0.33333333  0.26388889  1.0
  Ni  Ni224  1  0.83333333  0.66666667  0.26388889  1.0
  Ni  Ni225  1  0.00000000  0.00000000  0.31944444  1.0
  Ni  Ni226  1  0.00000000  0.33333333  0.31944444  1.0
  Ni  Ni227  1  0.00000000  0.66666667  0.31944444  1.0
  Ni  Ni228  1  0.33333333  0.00000000  0.31944444  1.0
  Ni  Ni229  1  0.33333333  0.33333333  0.31944444  1.0
  Ni  Ni230  1  0.33333333  0.66666667  0.31944444  1.0
  Ni  Ni231  1  0.66666667  0.00000000  0.31944444  1.0
  Ni  Ni232  1  0.66666667  0.33333333  0.31944444  1.0
  Ni  Ni233  1  0.66666667  0.66666667  0.31944444  1.0
  Ni  Ni234  1  0.16666667  0.16666667  0.31944444  1.0
  Ni  Ni235  1  0.16666667  0.50000000  0.31944444  1.0
  Ni  Ni236  1  0.16666667  0.83333333  0.31944444  1.0
  Ni  Ni237  1  0.50000000  0.16666667  0.31944444  1.0
  Ni  Ni238  1  0.50000000  0.50000000  0.31944444  1.0
  Ni  Ni239  1  0.50000000  0.83333333  0.31944444  1.0
  Ni  Ni240  1  0.83333333  0.16666667  0.31944444  1.0
  Ni  Ni241  1  0.83333333  0.50000000  0.31944444  1.0
  Ni  Ni242  1  0.83333333  0.83333333  0.31944444  1.0
  Ni  Ni243  1  0.00000000  0.16666667  0.26388889  1.0
  Ni  Ni244  1  0.00000000  0.50000000  0.26388889  1.0
  Ni  Ni245  1  0.00000000  0.83333333  0.26388889  1.0
  Ni  Ni246  1  0.33333333  0.16666667  0.26388889  1.0
  Ni  Ni247  1  0.33333333  0.50000000  0.26388889  1.0
  Ni  Ni248  1  0.33333333  0.83333333  0.26388889  1.0
  Ni  Ni249  1  0.66666667  0.16666667  0.26388889  1.0
  Ni  Ni250  1  0.66666667  0.50000000  0.26388889  1.0
  Ni  Ni251  1  0.66666667  0.83333333  0.26388889  1.0
  Ni  Ni252  1  0.11111111  0.25000000  0.23611111  1.0
  Ni  Ni253  1  0.11111111  0.58333333  0.23611111  1.0
  Ni  Ni254  1  0.11111111  0.91666667  0.23611111  1.0
  Ni  Ni255  1  0.44444444  0.25000000  0.23611111  1.0
  Ni  Ni256  1  0.44444444  0.58333333  0.23611111  1.0
  Ni  Ni257  1  0.44444444  0.91666667  0.23611111  1.0
  Ni  Ni258  1  0.77777778  0.25000000  0.23611111  1.0
  Ni  Ni259  1  0.77777778  0.58333333  0.23611111  1.0
  Ni  Ni260  1  0.77777778  0.91666667  0.23611111  1.0
  Ni  Ni261  1  0.27777778  0.25000000  0.29166667  1.0
  Ni  Ni262  1  0.27777778  0.58333333  0.29166667  1.0
  Ni  Ni263  1  0.27777778  0.91666667  0.29166667  1.0
  Ni  Ni264  1  0.61111111  0.25000000  0.29166667  1.0
  Ni  Ni265  1  0.61111111  0.58333333  0.29166667  1.0
  Ni  Ni266  1  0.61111111  0.91666667  0.29166667  1.0
  Ni  Ni267  1  0.94444444  0.25000000  0.29166667  1.0
  Ni  Ni268  1  0.94444444  0.58333333  0.29166667  1.0
  Ni  Ni269  1  0.94444444  0.91666667  0.29166667  1.0
  Ni  Ni270  1  0.05555556  0.08333333  0.23611111  1.0
  Ni  Ni271  1  0.05555556  0.41666667  0.23611111  1.0
  Ni  Ni272  1  0.05555556  0.75000000  0.23611111  1.0
  Ni  Ni273  1  0.38888889  0.08333333  0.23611111  1.0
  Ni  Ni274  1  0.38888889  0.41666667  0.23611111  1.0
  Ni  Ni275  1  0.38888889  0.75000000  0.23611111  1.0
  Ni  Ni276  1  0.72222222  0.08333333  0.23611111  1.0
  Ni  Ni277  1  0.72222222  0.41666667  0.23611111  1.0
  Ni  Ni278  1  0.72222222  0.75000000  0.23611111  1.0
  Ni  Ni279  1  0.22222222  0.08333333  0.29166667  1.0
  Ni  Ni280  1  0.22222222  0.41666667  0.29166667  1.0
  Ni  Ni281  1  0.22222222  0.75000000  0.29166667  1.0
  Ni  Ni282  1  0.55555556  0.08333333  0.29166667  1.0
  Ni  Ni283  1  0.55555556  0.41666667  0.29166667  1.0
  Ni  Ni284  1  0.55555556  0.75000000  0.29166667  1.0
  Ni  Ni285  1  0.88888889  0.08333333  0.29166667  1.0
  Ni  Ni286  1  0.88888889  0.41666667  0.29166667  1.0
  Ni  Ni287  1  0.88888889  0.75000000  0.29166667  1.0
  Ge  Ge288  1  0.11111111  0.08333333  0.29166667  1.0
  Ge  Ge289  1  0.11111111  0.41666667  0.29166667  1.0
  Ge  Ge290  1  0.11111111  0.75000000  0.29166667  1.0
  Ge  Ge291  1  0.44444444  0.08333333  0.29166667  1.0
  Ge  Ge292  1  0.44444444  0.41666667  0.29166667  1.0
  Ge  Ge293  1  0.44444444  0.75000000  0.29166667  1.0
  Ge  Ge294  1  0.77777778  0.08333333  0.29166667  1.0
  Ge  Ge295  1  0.77777778  0.41666667  0.29166667  1.0
  Ge  Ge296  1  0.77777778  0.75000000  0.29166667  1.0
  Ge  Ge297  1  0.27777778  0.08333333  0.23611111  1.0
  Ge  Ge298  1  0.27777778  0.41666667  0.23611111  1.0
  Ge  Ge299  1  0.27777778  0.75000000  0.23611111  1.0
  Ge  Ge300  1  0.61111111  0.08333333  0.23611111  1.0
  Ge  Ge301  1  0.61111111  0.41666667  0.23611111  1.0
  Ge  Ge302  1  0.61111111  0.75000000  0.23611111  1.0
  Ge  Ge303  1  0.94444444  0.08333333  0.23611111  1.0
  Ge  Ge304  1  0.94444444  0.41666667  0.23611111  1.0
  Ge  Ge305  1  0.94444444  0.75000000  0.23611111  1.0
  Ge  Ge306  1  0.05555556  0.25000000  0.29166667  1.0
  Ge  Ge307  1  0.05555556  0.58333333  0.29166667  1.0
  Ge  Ge308  1  0.05555556  0.91666667  0.29166667  1.0
  Ge  Ge309  1  0.38888889  0.25000000  0.29166667  1.0
  Ge  Ge310  1  0.38888889  0.58333333  0.29166667  1.0
  Ge  Ge311  1  0.38888889  0.91666667  0.29166667  1.0
  Ge  Ge312  1  0.72222222  0.25000000  0.29166667  1.0
  Ge  Ge313  1  0.72222222  0.58333333  0.29166667  1.0
  Ge  Ge314  1  0.72222222  0.91666667  0.29166667  1.0
  Ge  Ge315  1  0.22222222  0.25000000  0.23611111  1.0
  Ge  Ge316  1  0.22222222  0.58333333  0.23611111  1.0
  Ge  Ge317  1  0.22222222  0.91666667  0.23611111  1.0
  Ge  Ge318  1  0.55555556  0.25000000  0.23611111  1.0
  Ge  Ge319  1  0.55555556  0.58333333  0.23611111  1.0
  Ge  Ge320  1  0.55555556  0.91666667  0.23611111  1.0
  Ge  Ge321  1  0.88888889  0.25000000  0.23611111  1.0
  Ge  Ge322  1  0.88888889  0.58333333  0.23611111  1.0
  Ge  Ge323  1  0.88888889  0.91666667  0.23611111  1.0
  Ni  Ni324  1  0.16666667  0.00000000  0.37500000  1.0
  Ni  Ni325  1  0.16666667  0.33333333  0.37500000  1.0
  Ni  Ni326  1  0.16666667  0.66666667  0.37500000  1.0
  Ni  Ni327  1  0.50000000  0.00000000  0.37500000  1.0
  Ni  Ni328  1  0.50000000  0.33333333  0.37500000  1.0
  Ni  Ni329  1  0.50000000  0.66666667  0.37500000  1.0
  Ni  Ni330  1  0.83333333  0.00000000  0.37500000  1.0
  Ni  Ni331  1  0.83333333  0.33333333  0.37500000  1.0
  Ni  Ni332  1  0.83333333  0.66666667  0.37500000  1.0
  Ni  Ni333  1  0.00000000  0.00000000  0.43055556  1.0
  Ni  Ni334  1  0.00000000  0.33333333  0.43055556  1.0
  Ni  Ni335  1  0.00000000  0.66666667  0.43055556  1.0
  Ni  Ni336  1  0.33333333  0.00000000  0.43055556  1.0
  Ni  Ni337  1  0.33333333  0.33333333  0.43055556  1.0
  Ni  Ni338  1  0.33333333  0.66666667  0.43055556  1.0
  Ni  Ni339  1  0.66666667  0.00000000  0.43055556  1.0
  Ni  Ni340  1  0.66666667  0.33333333  0.43055556  1.0
  Ni  Ni341  1  0.66666667  0.66666667  0.43055556  1.0
  Ni  Ni342  1  0.16666667  0.16666667  0.43055556  1.0
  Ni  Ni343  1  0.16666667  0.50000000  0.43055556  1.0
  Ni  Ni344  1  0.16666667  0.83333333  0.43055556  1.0
  Ni  Ni345  1  0.50000000  0.16666667  0.43055556  1.0
  Ni  Ni346  1  0.50000000  0.50000000  0.43055556  1.0
  Ni  Ni347  1  0.50000000  0.83333333  0.43055556  1.0
  Ni  Ni348  1  0.83333333  0.16666667  0.43055556  1.0
  Ni  Ni349  1  0.83333333  0.50000000  0.43055556  1.0
  Ni  Ni350  1  0.83333333  0.83333333  0.43055556  1.0
  Ni  Ni351  1  0.00000000  0.16666667  0.37500000  1.0
  Ni  Ni352  1  0.00000000  0.50000000  0.37500000  1.0
  Ni  Ni353  1  0.00000000  0.83333333  0.37500000  1.0
  Ni  Ni354  1  0.33333333  0.16666667  0.37500000  1.0
  Ni  Ni355  1  0.33333333  0.50000000  0.37500000  1.0
  Ni  Ni356  1  0.33333333  0.83333333  0.37500000  1.0
  Ni  Ni357  1  0.66666667  0.16666667  0.37500000  1.0
  Ni  Ni358  1  0.66666667  0.50000000  0.37500000  1.0
  Ni  Ni359  1  0.66666667  0.83333333  0.37500000  1.0
  Ni  Ni360  1  0.11111111  0.25000000  0.34722222  1.0
  Ni  Ni361  1  0.11111111  0.58333333  0.34722222  1.0
  Ni  Ni362  1  0.11111111  0.91666667  0.34722222  1.0
  Ni  Ni363  1  0.44444444  0.25000000  0.34722222  1.0
  Ni  Ni364  1  0.44444444  0.58333333  0.34722222  1.0
  Ni  Ni365  1  0.44444444  0.91666667  0.34722222  1.0
  Ni  Ni366  1  0.77777778  0.25000000  0.34722222  1.0
  Ni  Ni367  1  0.77777778  0.58333333  0.34722222  1.0
  Ni  Ni368  1  0.77777778  0.91666667  0.34722222  1.0
  Ni  Ni369  1  0.27777778  0.25000000  0.40277778  1.0
  Ni  Ni370  1  0.27777778  0.58333333  0.40277778  1.0
  Ni  Ni371  1  0.27777778  0.91666667  0.40277778  1.0
  Ni  Ni372  1  0.61111111  0.25000000  0.40277778  1.0
  Ni  Ni373  1  0.61111111  0.58333333  0.40277778  1.0
  Ni  Ni374  1  0.61111111  0.91666667  0.40277778  1.0
  Ni  Ni375  1  0.94444444  0.25000000  0.40277778  1.0
  Ni  Ni376  1  0.94444444  0.58333333  0.40277778  1.0
  Ni  Ni377  1  0.94444444  0.91666667  0.40277778  1.0
  Ni  Ni378  1  0.05555556  0.08333333  0.34722222  1.0
  Ni  Ni379  1  0.05555556  0.41666667  0.34722222  1.0
  Ni  Ni380  1  0.05555556  0.75000000  0.34722222  1.0
  Ni  Ni381  1  0.38888889  0.08333333  0.34722222  1.0
  Ni  Ni382  1  0.38888889  0.41666667  0.34722222  1.0
  Ni  Ni383  1  0.38888889  0.75000000  0.34722222  1.0
  Ni  Ni384  1  0.72222222  0.08333333  0.34722222  1.0
  Ni  Ni385  1  0.72222222  0.41666667  0.34722222  1.0
  Ni  Ni386  1  0.72222222  0.75000000  0.34722222  1.0
  Ni  Ni387  1  0.22222222  0.08333333  0.40277778  1.0
  Ni  Ni388  1  0.22222222  0.41666667  0.40277778  1.0
  Ni  Ni389  1  0.22222222  0.75000000  0.40277778  1.0
  Ni  Ni390  1  0.55555556  0.08333333  0.40277778  1.0
  Ni  Ni391  1  0.55555556  0.41666667  0.40277778  1.0
  Ni  Ni392  1  0.55555556  0.75000000  0.40277778  1.0
  Ni  Ni393  1  0.88888889  0.08333333  0.40277778  1.0
  Ni  Ni394  1  0.88888889  0.41666667  0.40277778  1.0
  Ni  Ni395  1  0.88888889  0.75000000  0.40277778  1.0
  Ge  Ge396  1  0.11111111  0.08333333  0.40277778  1.0
  Ge  Ge397  1  0.11111111  0.41666667  0.40277778  1.0
  Ge  Ge398  1  0.11111111  0.75000000  0.40277778  1.0
  Ge  Ge399  1  0.44444444  0.08333333  0.40277778  1.0
  Ge  Ge400  1  0.44444444  0.41666667  0.40277778  1.0
  Ge  Ge401  1  0.44444444  0.75000000  0.40277778  1.0
  Ge  Ge402  1  0.77777778  0.08333333  0.40277778  1.0
  Ge  Ge403  1  0.77777778  0.41666667  0.40277778  1.0
  Ge  Ge404  1  0.77777778  0.75000000  0.40277778  1.0
  Ge  Ge405  1  0.27777778  0.08333333  0.34722222  1.0
  Ge  Ge406  1  0.27777778  0.41666667  0.34722222  1.0
  Ge  Ge407  1  0.27777778  0.75000000  0.34722222  1.0
  Ge  Ge408  1  0.61111111  0.08333333  0.34722222  1.0
  Ge  Ge409  1  0.61111111  0.41666667  0.34722222  1.0
  Ge  Ge410  1  0.61111111  0.75000000  0.34722222  1.0
  Ge  Ge411  1  0.94444444  0.08333333  0.34722222  1.0
  Ge  Ge412  1  0.94444444  0.41666667  0.34722222  1.0
  Ge  Ge413  1  0.94444444  0.75000000  0.34722222  1.0
  Ge  Ge414  1  0.05555556  0.25000000  0.40277778  1.0
  Ge  Ge415  1  0.05555556  0.58333333  0.40277778  1.0
  Ge  Ge416  1  0.05555556  0.91666667  0.40277778  1.0
  Ge  Ge417  1  0.38888889  0.25000000  0.40277778  1.0
  Ge  Ge418  1  0.38888889  0.58333333  0.40277778  1.0
  Ge  Ge419  1  0.38888889  0.91666667  0.40277778  1.0
  Ge  Ge420  1  0.72222222  0.25000000  0.40277778  1.0
  Ge  Ge421  1  0.72222222  0.58333333  0.40277778  1.0
  Ge  Ge422  1  0.72222222  0.91666667  0.40277778  1.0
  Ge  Ge423  1  0.22222222  0.25000000  0.34722222  1.0
  Ge  Ge424  1  0.22222222  0.58333333  0.34722222  1.0
  Ge  Ge425  1  0.22222222  0.91666667  0.34722222  1.0
  Ge  Ge426  1  0.55555556  0.25000000  0.34722222  1.0
  Ge  Ge427  1  0.55555556  0.58333333  0.34722222  1.0
  Ge  Ge428  1  0.55555556  0.91666667  0.34722222  1.0
  Ge  Ge429  1  0.88888889  0.25000000  0.34722222  1.0
  Ge  Ge430  1  0.88888889  0.58333333  0.34722222  1.0
  Ge  Ge431  1  0.88888889  0.91666667  0.34722222  1.0
