# generated using pymatgen
data_Ni2Ge
_symmetry_space_group_name_H-M   'P 1'
_cell_length_a   19.17452220
_cell_length_b   24.67178485
_cell_length_c   38.39146000
_cell_angle_alpha   117.82848113
_cell_angle_beta   126.91744104
_cell_angle_gamma   73.71558774
_symmetry_Int_Tables_number   1
_chemical_formula_structural   Ni2Ge
_chemical_formula_sum   'Ni288 Ge144'
_cell_volume   12841.12063291
_cell_formula_units_Z   144
loop_
 _symmetry_equiv_pos_site_id
 _symmetry_equiv_pos_as_xyz
  1  'x, y, z'
loop_
 _atom_site_type_symbol
 _atom_site_label
 _atom_site_symmetry_multiplicity
 _atom_site_fract_x
 _atom_site_fract_y
 _atom_site_fract_z
 _atom_site_occupancy
  Ni  Ni0  1  0.22426333  0.31330767  0.03279725  1.0
  Ni  Ni1  1  0.22426333  0.64664100  0.03279725  1.0
  Ni  Ni2  1  0.22426333  0.97997433  0.03279725  1.0
  Ni  Ni3  1  0.55759667  0.31330767  0.03279725  1.0
  Ni  Ni4  1  0.55759667  0.64664100  0.03279725  1.0
  Ni  Ni5  1  0.55759667  0.97997433  0.03279725  1.0
  Ni  Ni6  1  0.89093000  0.31330767  0.03279725  1.0
  Ni  Ni7  1  0.89093000  0.64664100  0.03279725  1.0
  Ni  Ni8  1  0.89093000  0.97997433  0.03279725  1.0
  Ni  Ni9  1  0.10907000  0.02002567  0.06025465  1.0
  Ni  Ni10  1  0.10907000  0.35335900  0.06025465  1.0
  Ni  Ni11  1  0.10907000  0.68669233  0.06025465  1.0
  Ni  Ni12  1  0.44240333  0.02002567  0.06025465  1.0
  Ni  Ni13  1  0.44240333  0.35335900  0.06025465  1.0
  Ni  Ni14  1  0.44240333  0.68669233  0.06025465  1.0
  Ni  Ni15  1  0.77573667  0.02002567  0.06025465  1.0
  Ni  Ni16  1  0.77573667  0.35335900  0.06025465  1.0
  Ni  Ni17  1  0.77573667  0.68669233  0.06025465  1.0
  Ni  Ni18  1  0.05759667  0.18669233  0.04481265  1.0
  Ni  Ni19  1  0.05759667  0.52002567  0.04481265  1.0
  Ni  Ni20  1  0.05759667  0.85335900  0.04481265  1.0
  Ni  Ni21  1  0.39093000  0.18669233  0.04481265  1.0
  Ni  Ni22  1  0.39093000  0.52002567  0.04481265  1.0
  Ni  Ni23  1  0.39093000  0.85335900  0.04481265  1.0
  Ni  Ni24  1  0.72426333  0.18669233  0.04481265  1.0
  Ni  Ni25  1  0.72426333  0.52002567  0.04481265  1.0
  Ni  Ni26  1  0.72426333  0.85335900  0.04481265  1.0
  Ni  Ni27  1  0.27573667  0.14664100  0.04823925  1.0
  Ni  Ni28  1  0.27573667  0.47997433  0.04823925  1.0
  Ni  Ni29  1  0.27573667  0.81330767  0.04823925  1.0
  Ni  Ni30  1  0.60907000  0.14664100  0.04823925  1.0
  Ni  Ni31  1  0.60907000  0.47997433  0.04823925  1.0
  Ni  Ni32  1  0.60907000  0.81330767  0.04823925  1.0
  Ni  Ni33  1  0.94240333  0.14664100  0.04823925  1.0
  Ni  Ni34  1  0.94240333  0.47997433  0.04823925  1.0
  Ni  Ni35  1  0.94240333  0.81330767  0.04823925  1.0
  Ni  Ni36  1  0.01479133  0.06962967  0.09685225  1.0
  Ni  Ni37  1  0.01479133  0.40296300  0.09685225  1.0
  Ni  Ni38  1  0.01479133  0.73629633  0.09685225  1.0
  Ni  Ni39  1  0.34812467  0.06962967  0.09685225  1.0
  Ni  Ni40  1  0.34812467  0.40296300  0.09685225  1.0
  Ni  Ni41  1  0.34812467  0.73629633  0.09685225  1.0
  Ni  Ni42  1  0.68145800  0.06962967  0.09685225  1.0
  Ni  Ni43  1  0.68145800  0.40296300  0.09685225  1.0
  Ni  Ni44  1  0.68145800  0.73629633  0.09685225  1.0
  Ni  Ni45  1  0.31854200  0.26370367  0.09619965  1.0
  Ni  Ni46  1  0.31854200  0.59703700  0.09619965  1.0
  Ni  Ni47  1  0.31854200  0.93037033  0.09619965  1.0
  Ni  Ni48  1  0.65187533  0.26370367  0.09619965  1.0
  Ni  Ni49  1  0.65187533  0.59703700  0.09619965  1.0
  Ni  Ni50  1  0.65187533  0.93037033  0.09619965  1.0
  Ni  Ni51  1  0.98520867  0.26370367  0.09619965  1.0
  Ni  Ni52  1  0.98520867  0.59703700  0.09619965  1.0
  Ni  Ni53  1  0.98520867  0.93037033  0.09619965  1.0
  Ni  Ni54  1  0.18145800  0.09703700  0.05507445  1.0
  Ni  Ni55  1  0.18145800  0.43037033  0.05507445  1.0
  Ni  Ni56  1  0.18145800  0.76370367  0.05507445  1.0
  Ni  Ni57  1  0.51479133  0.09703700  0.05507445  1.0
  Ni  Ni58  1  0.51479133  0.43037033  0.05507445  1.0
  Ni  Ni59  1  0.51479133  0.76370367  0.05507445  1.0
  Ni  Ni60  1  0.84812467  0.09703700  0.05507445  1.0
  Ni  Ni61  1  0.84812467  0.43037033  0.05507445  1.0
  Ni  Ni62  1  0.84812467  0.76370367  0.05507445  1.0
  Ni  Ni63  1  0.15187533  0.23629633  0.03797745  1.0
  Ni  Ni64  1  0.15187533  0.56962967  0.03797745  1.0
  Ni  Ni65  1  0.15187533  0.90296300  0.03797745  1.0
  Ni  Ni66  1  0.48520867  0.23629633  0.03797745  1.0
  Ni  Ni67  1  0.48520867  0.56962967  0.03797745  1.0
  Ni  Ni68  1  0.48520867  0.90296300  0.03797745  1.0
  Ni  Ni69  1  0.81854200  0.23629633  0.03797745  1.0
  Ni  Ni70  1  0.81854200  0.56962967  0.03797745  1.0
  Ni  Ni71  1  0.81854200  0.90296300  0.03797745  1.0
  Ge  Ge72  1  0.23658067  0.20433400  0.00380035  1.0
  Ge  Ge73  1  0.23658067  0.53766733  0.00380035  1.0
  Ge  Ge74  1  0.23658067  0.87100067  0.00380035  1.0
  Ge  Ge75  1  0.56991400  0.20433400  0.00380035  1.0
  Ge  Ge76  1  0.56991400  0.53766733  0.00380035  1.0
  Ge  Ge77  1  0.56991400  0.87100067  0.00380035  1.0
  Ge  Ge78  1  0.90324733  0.20433400  0.00380035  1.0
  Ge  Ge79  1  0.90324733  0.53766733  0.00380035  1.0
  Ge  Ge80  1  0.90324733  0.87100067  0.00380035  1.0
  Ge  Ge81  1  0.09675267  0.12899933  0.08925155  1.0
  Ge  Ge82  1  0.09675267  0.46233267  0.08925155  1.0
  Ge  Ge83  1  0.09675267  0.79566600  0.08925155  1.0
  Ge  Ge84  1  0.43008600  0.12899933  0.08925155  1.0
  Ge  Ge85  1  0.43008600  0.46233267  0.08925155  1.0
  Ge  Ge86  1  0.43008600  0.79566600  0.08925155  1.0
  Ge  Ge87  1  0.76341933  0.12899933  0.08925155  1.0
  Ge  Ge88  1  0.76341933  0.46233267  0.08925155  1.0
  Ge  Ge89  1  0.76341933  0.79566600  0.08925155  1.0
  Ge  Ge90  1  0.06991400  0.29566600  0.08119995  1.0
  Ge  Ge91  1  0.06991400  0.62899933  0.08119995  1.0
  Ge  Ge92  1  0.06991400  0.96233267  0.08119995  1.0
  Ge  Ge93  1  0.40324733  0.29566600  0.08119995  1.0
  Ge  Ge94  1  0.40324733  0.62899933  0.08119995  1.0
  Ge  Ge95  1  0.40324733  0.96233267  0.08119995  1.0
  Ge  Ge96  1  0.73658067  0.29566600  0.08119995  1.0
  Ge  Ge97  1  0.73658067  0.62899933  0.08119995  1.0
  Ge  Ge98  1  0.73658067  0.96233267  0.08119995  1.0
  Ge  Ge99  1  0.26341933  0.03766733  0.01185195  1.0
  Ge  Ge100  1  0.26341933  0.37100067  0.01185195  1.0
  Ge  Ge101  1  0.26341933  0.70433400  0.01185195  1.0
  Ge  Ge102  1  0.59675267  0.03766733  0.01185195  1.0
  Ge  Ge103  1  0.59675267  0.37100067  0.01185195  1.0
  Ge  Ge104  1  0.59675267  0.70433400  0.01185195  1.0
  Ge  Ge105  1  0.93008600  0.03766733  0.01185195  1.0
  Ge  Ge106  1  0.93008600  0.37100067  0.01185195  1.0
  Ge  Ge107  1  0.93008600  0.70433400  0.01185195  1.0
  Ni  Ni108  1  0.22426333  0.31330767  0.13279725  1.0
  Ni  Ni109  1  0.22426333  0.64664100  0.13279725  1.0
  Ni  Ni110  1  0.22426333  0.97997433  0.13279725  1.0
  Ni  Ni111  1  0.55759667  0.31330767  0.13279725  1.0
  Ni  Ni112  1  0.55759667  0.64664100  0.13279725  1.0
  Ni  Ni113  1  0.55759667  0.97997433  0.13279725  1.0
  Ni  Ni114  1  0.89093000  0.31330767  0.13279725  1.0
  Ni  Ni115  1  0.89093000  0.64664100  0.13279725  1.0
  Ni  Ni116  1  0.89093000  0.97997433  0.13279725  1.0
  Ni  Ni117  1  0.10907000  0.02002567  0.16025465  1.0
  Ni  Ni118  1  0.10907000  0.35335900  0.16025465  1.0
  Ni  Ni119  1  0.10907000  0.68669233  0.16025465  1.0
  Ni  Ni120  1  0.44240333  0.02002567  0.16025465  1.0
  Ni  Ni121  1  0.44240333  0.35335900  0.16025465  1.0
  Ni  Ni122  1  0.44240333  0.68669233  0.16025465  1.0
  Ni  Ni123  1  0.77573667  0.02002567  0.16025465  1.0
  Ni  Ni124  1  0.77573667  0.35335900  0.16025465  1.0
  Ni  Ni125  1  0.77573667  0.68669233  0.16025465  1.0
  Ni  Ni126  1  0.05759667  0.18669233  0.14481265  1.0
  Ni  Ni127  1  0.05759667  0.52002567  0.14481265  1.0
  Ni  Ni128  1  0.05759667  0.85335900  0.14481265  1.0
  Ni  Ni129  1  0.39093000  0.18669233  0.14481265  1.0
  Ni  Ni130  1  0.39093000  0.52002567  0.14481265  1.0
  Ni  Ni131  1  0.39093000  0.85335900  0.14481265  1.0
  Ni  Ni132  1  0.72426333  0.18669233  0.14481265  1.0
  Ni  Ni133  1  0.72426333  0.52002567  0.14481265  1.0
  Ni  Ni134  1  0.72426333  0.85335900  0.14481265  1.0
  Ni  Ni135  1  0.27573667  0.14664100  0.14823925  1.0
  Ni  Ni136  1  0.27573667  0.47997433  0.14823925  1.0
  Ni  Ni137  1  0.27573667  0.81330767  0.14823925  1.0
  Ni  Ni138  1  0.60907000  0.14664100  0.14823925  1.0
  Ni  Ni139  1  0.60907000  0.47997433  0.14823925  1.0
  Ni  Ni140  1  0.60907000  0.81330767  0.14823925  1.0
  Ni  Ni141  1  0.94240333  0.14664100  0.14823925  1.0
  Ni  Ni142  1  0.94240333  0.47997433  0.14823925  1.0
  Ni  Ni143  1  0.94240333  0.81330767  0.14823925  1.0
  Ni  Ni144  1  0.01479133  0.06962967  0.19685225  1.0
  Ni  Ni145  1  0.01479133  0.40296300  0.19685225  1.0
  Ni  Ni146  1  0.01479133  0.73629633  0.19685225  1.0
  Ni  Ni147  1  0.34812467  0.06962967  0.19685225  1.0
  Ni  Ni148  1  0.34812467  0.40296300  0.19685225  1.0
  Ni  Ni149  1  0.34812467  0.73629633  0.19685225  1.0
  Ni  Ni150  1  0.68145800  0.06962967  0.19685225  1.0
  Ni  Ni151  1  0.68145800  0.40296300  0.19685225  1.0
  Ni  Ni152  1  0.68145800  0.73629633  0.19685225  1.0
  Ni  Ni153  1  0.31854200  0.26370367  0.19619965  1.0
  Ni  Ni154  1  0.31854200  0.59703700  0.19619965  1.0
  Ni  Ni155  1  0.31854200  0.93037033  0.19619965  1.0
  Ni  Ni156  1  0.65187533  0.26370367  0.19619965  1.0
  Ni  Ni157  1  0.65187533  0.59703700  0.19619965  1.0
  Ni  Ni158  1  0.65187533  0.93037033  0.19619965  1.0
  Ni  Ni159  1  0.98520867  0.26370367  0.19619965  1.0
  Ni  Ni160  1  0.98520867  0.59703700  0.19619965  1.0
  Ni  Ni161  1  0.98520867  0.93037033  0.19619965  1.0
  Ni  Ni162  1  0.18145800  0.09703700  0.15507445  1.0
  Ni  Ni163  1  0.18145800  0.43037033  0.15507445  1.0
  Ni  Ni164  1  0.18145800  0.76370367  0.15507445  1.0
  Ni  Ni165  1  0.51479133  0.09703700  0.15507445  1.0
  Ni  Ni166  1  0.51479133  0.43037033  0.15507445  1.0
  Ni  Ni167  1  0.51479133  0.76370367  0.15507445  1.0
  Ni  Ni168  1  0.84812467  0.09703700  0.15507445  1.0
  Ni  Ni169  1  0.84812467  0.43037033  0.15507445  1.0
  Ni  Ni170  1  0.84812467  0.76370367  0.15507445  1.0
  Ni  Ni171  1  0.15187533  0.23629633  0.13797745  1.0
  Ni  Ni172  1  0.15187533  0.56962967  0.13797745  1.0
  Ni  Ni173  1  0.15187533  0.90296300  0.13797745  1.0
  Ni  Ni174  1  0.48520867  0.23629633  0.13797745  1.0
  Ni  Ni175  1  0.48520867  0.56962967  0.13797745  1.0
  Ni  Ni176  1  0.48520867  0.90296300  0.13797745  1.0
  Ni  Ni177  1  0.81854200  0.23629633  0.13797745  1.0
  Ni  Ni178  1  0.81854200  0.56962967  0.13797745  1.0
  Ni  Ni179  1  0.81854200  0.90296300  0.13797745  1.0
  Ge  Ge180  1  0.23658067  0.20433400  0.10380035  1.0
  Ge  Ge181  1  0.23658067  0.53766733  0.10380035  1.0
  Ge  Ge182  1  0.23658067  0.87100067  0.10380035  1.0
  Ge  Ge183  1  0.56991400  0.20433400  0.10380035  1.0
  Ge  Ge184  1  0.56991400  0.53766733  0.10380035  1.0
  Ge  Ge185  1  0.56991400  0.87100067  0.10380035  1.0
  Ge  Ge186  1  0.90324733  0.20433400  0.10380035  1.0
  Ge  Ge187  1  0.90324733  0.53766733  0.10380035  1.0
  Ge  Ge188  1  0.90324733  0.87100067  0.10380035  1.0
  Ge  Ge189  1  0.09675267  0.12899933  0.18925155  1.0
  Ge  Ge190  1  0.09675267  0.46233267  0.18925155  1.0
  Ge  Ge191  1  0.09675267  0.79566600  0.18925155  1.0
  Ge  Ge192  1  0.43008600  0.12899933  0.18925155  1.0
  Ge  Ge193  1  0.43008600  0.46233267  0.18925155  1.0
  Ge  Ge194  1  0.43008600  0.79566600  0.18925155  1.0
  Ge  Ge195  1  0.76341933  0.12899933  0.18925155  1.0
  Ge  Ge196  1  0.76341933  0.46233267  0.18925155  1.0
  Ge  Ge197  1  0.76341933  0.79566600  0.18925155  1.0
  Ge  Ge198  1  0.06991400  0.29566600  0.18119995  1.0
  Ge  Ge199  1  0.06991400  0.62899933  0.18119995  1.0
  Ge  Ge200  1  0.06991400  0.96233267  0.18119995  1.0
  Ge  Ge201  1  0.40324733  0.29566600  0.18119995  1.0
  Ge  Ge202  1  0.40324733  0.62899933  0.18119995  1.0
  Ge  Ge203  1  0.40324733  0.96233267  0.18119995  1.0
  Ge  Ge204  1  0.73658067  0.29566600  0.18119995  1.0
  Ge  Ge205  1  0.73658067  0.62899933  0.18119995  1.0
  Ge  Ge206  1  0.73658067  0.96233267  0.18119995  1.0
  Ge  Ge207  1  0.26341933  0.03766733  0.11185195  1.0
  Ge  Ge208  1  0.26341933  0.37100067  0.11185195  1.0
  Ge  Ge209  1  0.26341933  0.70433400  0.11185195  1.0
  Ge  Ge210  1  0.59675267  0.03766733  0.11185195  1.0
  Ge  Ge211  1  0.59675267  0.37100067  0.11185195  1.0
  Ge  Ge212  1  0.59675267  0.70433400  0.11185195  1.0
  Ge  Ge213  1  0.93008600  0.03766733  0.11185195  1.0
  Ge  Ge214  1  0.93008600  0.37100067  0.11185195  1.0
  Ge  Ge215  1  0.93008600  0.70433400  0.11185195  1.0
  Ni  Ni216  1  0.22426333  0.31330767  0.23279725  1.0
  Ni  Ni217  1  0.22426333  0.64664100  0.23279725  1.0
  Ni  Ni218  1  0.22426333  0.97997433  0.23279725  1.0
  Ni  Ni219  1  0.55759667  0.31330767  0.23279725  1.0
  Ni  Ni220  1  0.55759667  0.64664100  0.23279725  1.0
  Ni  Ni221  1  0.55759667  0.97997433  0.23279725  1.0
  Ni  Ni222  1  0.89093000  0.31330767  0.23279725  1.0
  Ni  Ni223  1  0.89093000  0.64664100  0.23279725  1.0
  Ni  Ni224  1  0.89093000  0.97997433  0.23279725  1.0
  Ni  Ni225  1  0.10907000  0.02002567  0.26025465  1.0
  Ni  Ni226  1  0.10907000  0.35335900  0.26025465  1.0
  Ni  Ni227  1  0.10907000  0.68669233  0.26025465  1.0
  Ni  Ni228  1  0.44240333  0.02002567  0.26025465  1.0
  Ni  Ni229  1  0.44240333  0.35335900  0.26025465  1.0
  Ni  Ni230  1  0.44240333  0.68669233  0.26025465  1.0
  Ni  Ni231  1  0.77573667  0.02002567  0.26025465  1.0
  Ni  Ni232  1  0.77573667  0.35335900  0.26025465  1.0
  Ni  Ni233  1  0.77573667  0.68669233  0.26025465  1.0
  Ni  Ni234  1  0.05759667  0.18669233  0.24481265  1.0
  Ni  Ni235  1  0.05759667  0.52002567  0.24481265  1.0
  Ni  Ni236  1  0.05759667  0.85335900  0.24481265  1.0
  Ni  Ni237  1  0.39093000  0.18669233  0.24481265  1.0
  Ni  Ni238  1  0.39093000  0.52002567  0.24481265  1.0
  Ni  Ni239  1  0.39093000  0.85335900  0.24481265  1.0
  Ni  Ni240  1  0.72426333  0.18669233  0.24481265  1.0
  Ni  Ni241  1  0.72426333  0.52002567  0.24481265  1.0
  Ni  Ni242  1  0.72426333  0.85335900  0.24481265  1.0
  Ni  Ni243  1  0.27573667  0.14664100  0.24823925  1.0
  Ni  Ni244  1  0.27573667  0.47997433  0.24823925  1.0
  Ni  Ni245  1  0.27573667  0.81330767  0.24823925  1.0
  Ni  Ni246  1  0.60907000  0.14664100  0.24823925  1.0
  Ni  Ni247  1  0.60907000  0.47997433  0.24823925  1.0
  Ni  Ni248  1  0.60907000  0.81330767  0.24823925  1.0
  Ni  Ni249  1  0.94240333  0.14664100  0.24823925  1.0
  Ni  Ni250  1  0.94240333  0.47997433  0.24823925  1.0
  Ni  Ni251  1  0.94240333  0.81330767  0.24823925  1.0
  Ni  Ni252  1  0.01479133  0.06962967  0.29685225  1.0
  Ni  Ni253  1  0.01479133  0.40296300  0.29685225  1.0
  Ni  Ni254  1  0.01479133  0.73629633  0.29685225  1.0
  Ni  Ni255  1  0.34812467  0.06962967  0.29685225  1.0
  Ni  Ni256  1  0.34812467  0.40296300  0.29685225  1.0
  Ni  Ni257  1  0.34812467  0.73629633  0.29685225  1.0
  Ni  Ni258  1  0.68145800  0.06962967  0.29685225  1.0
  Ni  Ni259  1  0.68145800  0.40296300  0.29685225  1.0
  Ni  Ni260  1  0.68145800  0.73629633  0.29685225  1.0
  Ni  Ni261  1  0.31854200  0.26370367  0.29619965  1.0
  Ni  Ni262  1  0.31854200  0.59703700  0.29619965  1.0
  Ni  Ni263  1  0.31854200  0.93037033  0.29619965  1.0
  Ni  Ni264  1  0.65187533  0.26370367  0.29619965  1.0
  Ni  Ni265  1  0.65187533  0.59703700  0.29619965  1.0
  Ni  Ni266  1  0.65187533  0.93037033  0.29619965  1.0
  Ni  Ni267  1  0.98520867  0.26370367  0.29619965  1.0
  Ni  Ni268  1  0.98520867  0.59703700  0.29619965  1.0
  Ni  Ni269  1  0.98520867  0.93037033  0.29619965  1.0
  Ni  Ni270  1  0.18145800  0.09703700  0.25507445  1.0
  Ni  Ni271  1  0.18145800  0.43037033  0.25507445  1.0
  Ni  Ni272  1  0.18145800  0.76370367  0.25507445  1.0
  Ni  Ni273  1  0.51479133  0.09703700  0.25507445  1.0
  Ni  Ni274  1  0.51479133  0.43037033  0.25507445  1.0
  Ni  Ni275  1  0.51479133  0.76370367  0.25507445  1.0
  Ni  Ni276  1  0.84812467  0.09703700  0.25507445  1.0
  Ni  Ni277  1  0.84812467  0.43037033  0.25507445  1.0
  Ni  Ni278  1  0.84812467  0.76370367  0.25507445  1.0
  Ni  Ni279  1  0.15187533  0.23629633  0.23797745  1.0
  Ni  Ni280  1  0.15187533  0.56962967  0.23797745  1.0
  Ni  Ni281  1  0.15187533  0.90296300  0.23797745  1.0
  Ni  Ni282  1  0.48520867  0.23629633  0.23797745  1.0
  Ni  Ni283  1  0.48520867  0.56962967  0.23797745  1.0
  Ni  Ni284  1  0.48520867  0.90296300  0.23797745  1.0
  Ni  Ni285  1  0.81854200  0.23629633  0.23797745  1.0
  Ni  Ni286  1  0.81854200  0.56962967  0.23797745  1.0
  Ni  Ni287  1  0.81854200  0.90296300  0.23797745  1.0
  Ge  Ge288  1  0.23658067  0.20433400  0.20380035  1.0
  Ge  Ge289  1  0.23658067  0.53766733  0.20380035  1.0
  Ge  Ge290  1  0.23658067  0.87100067  0.20380035  1.0
  Ge  Ge291  1  0.56991400  0.20433400  0.20380035  1.0
  Ge  Ge292  1  0.56991400  0.53766733  0.20380035  1.0
  Ge  Ge293  1  0.56991400  0.87100067  0.20380035  1.0
  Ge  Ge294  1  0.90324733  0.20433400  0.20380035  1.0
  Ge  Ge295  1  0.90324733  0.53766733  0.20380035  1.0
  Ge  Ge296  1  0.90324733  0.87100067  0.20380035  1.0
  Ge  Ge297  1  0.09675267  0.12899933  0.28925155  1.0
  Ge  Ge298  1  0.09675267  0.46233267  0.28925155  1.0
  Ge  Ge299  1  0.09675267  0.79566600  0.28925155  1.0
  Ge  Ge300  1  0.43008600  0.12899933  0.28925155  1.0
  Ge  Ge301  1  0.43008600  0.46233267  0.28925155  1.0
  Ge  Ge302  1  0.43008600  0.79566600  0.28925155  1.0
  Ge  Ge303  1  0.76341933  0.12899933  0.28925155  1.0
  Ge  Ge304  1  0.76341933  0.46233267  0.28925155  1.0
  Ge  Ge305  1  0.76341933  0.79566600  0.28925155  1.0
  Ge  Ge306  1  0.06991400  0.29566600  0.28119995  1.0
  Ge  Ge307  1  0.06991400  0.62899933  0.28119995  1.0
  Ge  Ge308  1  0.06991400  0.96233267  0.28119995  1.0
  Ge  Ge309  1  0.40324733  0.29566600  0.28119995  1.0
  Ge  Ge310  1  0.40324733  0.62899933  0.28119995  1.0
  Ge  Ge311  1  0.40324733  0.96233267  0.28119995  1.0
  Ge  Ge312  1  0.73658067  0.29566600  0.28119995  1.0
  Ge  Ge313  1  0.73658067  0.62899933  0.28119995  1.0
  Ge  Ge314  1  0.73658067  0.96233267  0.28119995  1.0
  Ge  Ge315  1  0.26341933  0.03766733  0.21185195  1.0
  Ge  Ge316  1  0.26341933  0.37100067  0.21185195  1.0
  Ge  Ge317  1  0.26341933  0.70433400  0.21185195  1.0
  Ge  Ge318  1  0.59675267  0.03766733  0.21185195  1.0
  Ge  Ge319  1  0.59675267  0.37100067  0.21185195  1.0
  Ge  Ge320  1  0.59675267  0.70433400  0.21185195  1.0
  Ge  Ge321  1  0.93008600  0.03766733  0.21185195  1.0
  Ge  Ge322  1  0.93008600  0.37100067  0.21185195  1.0
  Ge  Ge323  1  0.93008600  0.70433400  0.21185195  1.0
  Ni  Ni324  1  0.22426333  0.31330767  0.33279725  1.0
  Ni  Ni325  1  0.22426333  0.64664100  0.33279725  1.0
  Ni  Ni326  1  0.22426333  0.97997433  0.33279725  1.0
  Ni  Ni327  1  0.55759667  0.31330767  0.33279725  1.0
  Ni  Ni328  1  0.55759667  0.64664100  0.33279725  1.0
  Ni  Ni329  1  0.55759667  0.97997433  0.33279725  1.0
  Ni  Ni330  1  0.89093000  0.31330767  0.33279725  1.0
  Ni  Ni331  1  0.89093000  0.64664100  0.33279725  1.0
  Ni  Ni332  1  0.89093000  0.97997433  0.33279725  1.0
  Ni  Ni333  1  0.10907000  0.02002567  0.36025465  1.0
  Ni  Ni334  1  0.10907000  0.35335900  0.36025465  1.0
  Ni  Ni335  1  0.10907000  0.68669233  0.36025465  1.0
  Ni  Ni336  1  0.44240333  0.02002567  0.36025465  1.0
  Ni  Ni337  1  0.44240333  0.35335900  0.36025465  1.0
  Ni  Ni338  1  0.44240333  0.68669233  0.36025465  1.0
  Ni  Ni339  1  0.77573667  0.02002567  0.36025465  1.0
  Ni  Ni340  1  0.77573667  0.35335900  0.36025465  1.0
  Ni  Ni341  1  0.77573667  0.68669233  0.36025465  1.0
  Ni  Ni342  1  0.05759667  0.18669233  0.34481265  1.0
  Ni  Ni343  1  0.05759667  0.52002567  0.34481265  1.0
  Ni  Ni344  1  0.05759667  0.85335900  0.34481265  1.0
  Ni  Ni345  1  0.39093000  0.18669233  0.34481265  1.0
  Ni  Ni346  1  0.39093000  0.52002567  0.34481265  1.0
  Ni  Ni347  1  0.39093000  0.85335900  0.34481265  1.0
  Ni  Ni348  1  0.72426333  0.18669233  0.34481265  1.0
  Ni  Ni349  1  0.72426333  0.52002567  0.34481265  1.0
  Ni  Ni350  1  0.72426333  0.85335900  0.34481265  1.0
  Ni  Ni351  1  0.27573667  0.14664100  0.34823925  1.0
  Ni  Ni352  1  0.27573667  0.47997433  0.34823925  1.0
  Ni  Ni353  1  0.27573667  0.81330767  0.34823925  1.0
  Ni  Ni354  1  0.60907000  0.14664100  0.34823925  1.0
  Ni  Ni355  1  0.60907000  0.47997433  0.34823925  1.0
  Ni  Ni356  1  0.60907000  0.81330767  0.34823925  1.0
  Ni  Ni357  1  0.94240333  0.14664100  0.34823925  1.0
  Ni  Ni358  1  0.94240333  0.47997433  0.34823925  1.0
  Ni  Ni359  1  0.94240333  0.81330767  0.34823925  1.0
  Ni  Ni360  1  0.01479133  0.06962967  0.39685225  1.0
  Ni  Ni361  1  0.01479133  0.40296300  0.39685225  1.0
  Ni  Ni362  1  0.01479133  0.73629633  0.39685225  1.0
  Ni  Ni363  1  0.34812467  0.06962967  0.39685225  1.0
  Ni  Ni364  1  0.34812467  0.40296300  0.39685225  1.0
  Ni  Ni365  1  0.34812467  0.73629633  0.39685225  1.0
  Ni  Ni366  1  0.68145800  0.06962967  0.39685225  1.0
  Ni  Ni367  1  0.68145800  0.40296300  0.39685225  1.0
  Ni  Ni368  1  0.68145800  0.73629633  0.39685225  1.0
  Ni  Ni369  1  0.31854200  0.26370367  0.39619965  1.0
  Ni  Ni370  1  0.31854200  0.59703700  0.39619965  1.0
  Ni  Ni371  1  0.31854200  0.93037033  0.39619965  1.0
  Ni  Ni372  1  0.65187533  0.26370367  0.39619965  1.0
  Ni  Ni373  1  0.65187533  0.59703700  0.39619965  1.0
  Ni  Ni374  1  0.65187533  0.93037033  0.39619965  1.0
  Ni  Ni375  1  0.98520867  0.26370367  0.39619965  1.0
  Ni  Ni376  1  0.98520867  0.59703700  0.39619965  1.0
  Ni  Ni377  1  0.98520867  0.93037033  0.39619965  1.0
  Ni  Ni378  1  0.18145800  0.09703700  0.35507445  1.0
  Ni  Ni379  1  0.18145800  0.43037033  0.35507445  1.0
  Ni  Ni380  1  0.18145800  0.76370367  0.35507445  1.0
  Ni  Ni381  1  0.51479133  0.09703700  0.35507445  1.0
  Ni  Ni382  1  0.51479133  0.43037033  0.35507445  1.0
  Ni  Ni383  1  0.51479133  0.76370367  0.35507445  1.0
  Ni  Ni384  1  0.84812467  0.09703700  0.35507445  1.0
  Ni  Ni385  1  0.84812467  0.43037033  0.35507445  1.0
  Ni  Ni386  1  0.84812467  0.76370367  0.35507445  1.0
  Ni  Ni387  1  0.15187533  0.23629633  0.33797745  1.0
  Ni  Ni388  1  0.15187533  0.56962967  0.33797745  1.0
  Ni  Ni389  1  0.15187533  0.90296300  0.33797745  1.0
  Ni  Ni390  1  0.48520867  0.23629633  0.33797745  1.0
  Ni  Ni391  1  0.48520867  0.56962967  0.33797745  1.0
  Ni  Ni392  1  0.48520867  0.90296300  0.33797745  1.0
  Ni  Ni393  1  0.81854200  0.23629633  0.33797745  1.0
  Ni  Ni394  1  0.81854200  0.56962967  0.33797745  1.0
  Ni  Ni395  1  0.81854200  0.90296300  0.33797745  1.0
  Ge  Ge396  1  0.23658067  0.20433400  0.30380035  1.0
  Ge  Ge397  1  0.23658067  0.53766733  0.30380035  1.0
  Ge  Ge398  1  0.23658067  0.87100067  0.30380035  1.0
  Ge  Ge399  1  0.56991400  0.20433400  0.30380035  1.0
  Ge  Ge400  1  0.56991400  0.53766733  0.30380035  1.0
  Ge  Ge401  1  0.56991400  0.87100067  0.30380035  1.0
  Ge  Ge402  1  0.90324733  0.20433400  0.30380035  1.0
  Ge  Ge403  1  0.90324733  0.53766733  0.30380035  1.0
  Ge  Ge404  1  0.90324733  0.87100067  0.30380035  1.0
  Ge  Ge405  1  0.09675267  0.12899933  0.38925155  1.0
  Ge  Ge406  1  0.09675267  0.46233267  0.38925155  1.0
  Ge  Ge407  1  0.09675267  0.79566600  0.38925155  1.0
  Ge  Ge408  1  0.43008600  0.12899933  0.38925155  1.0
  Ge  Ge409  1  0.43008600  0.46233267  0.38925155  1.0
  Ge  Ge410  1  0.43008600  0.79566600  0.38925155  1.0
  Ge  Ge411  1  0.76341933  0.12899933  0.38925155  1.0
  Ge  Ge412  1  0.76341933  0.46233267  0.38925155  1.0
  Ge  Ge413  1  0.76341933  0.79566600  0.38925155  1.0
  Ge  Ge414  1  0.06991400  0.29566600  0.38119995  1.0
  Ge  Ge415  1  0.06991400  0.62899933  0.38119995  1.0
  Ge  Ge416  1  0.06991400  0.96233267  0.38119995  1.0
  Ge  Ge417  1  0.40324733  0.29566600  0.38119995  1.0
  Ge  Ge418  1  0.40324733  0.62899933  0.38119995  1.0
  Ge  Ge419  1  0.40324733  0.96233267  0.38119995  1.0
  Ge  Ge420  1  0.73658067  0.29566600  0.38119995  1.0
  Ge  Ge421  1  0.73658067  0.62899933  0.38119995  1.0
  Ge  Ge422  1  0.73658067  0.96233267  0.38119995  1.0
  Ge  Ge423  1  0.26341933  0.03766733  0.31185195  1.0
  Ge  Ge424  1  0.26341933  0.37100067  0.31185195  1.0
  Ge  Ge425  1  0.26341933  0.70433400  0.31185195  1.0
  Ge  Ge426  1  0.59675267  0.03766733  0.31185195  1.0
  Ge  Ge427  1  0.59675267  0.37100067  0.31185195  1.0
  Ge  Ge428  1  0.59675267  0.70433400  0.31185195  1.0
  Ge  Ge429  1  0.93008600  0.03766733  0.31185195  1.0
  Ge  Ge430  1  0.93008600  0.37100067  0.31185195  1.0
  Ge  Ge431  1  0.93008600  0.70433400  0.31185195  1.0
