# generated using pymatgen
data_Ni2Ge
_symmetry_space_group_name_H-M   'P 1'
_cell_length_a   15.33006600
_cell_length_b   31.72776547
_cell_length_c   36.36411500
_cell_angle_alpha   46.55346069
_cell_angle_beta   90.00000000
_cell_angle_gamma   90.00000000
_symmetry_Int_Tables_number   1
_chemical_formula_structural   Ni2Ge
_chemical_formula_sum   'Ni288 Ge144'
_cell_volume   12841.12063291
_cell_formula_units_Z   144
loop_
 _symmetry_equiv_pos_site_id
 _symmetry_equiv_pos_as_xyz
  1  'x, y, z'
loop_
 _atom_site_type_symbol
 _atom_site_label
 _atom_site_symmetry_multiplicity
 _atom_site_fract_x
 _atom_site_fract_y
 _atom_site_fract_z
 _atom_site_occupancy
  Ni  Ni0  1  0.22426333  0.04166667  0.16298460  1.0
  Ni  Ni1  1  0.22426333  0.37500000  0.16298460  1.0
  Ni  Ni2  1  0.22426333  0.70833333  0.16298460  1.0
  Ni  Ni3  1  0.55759667  0.04166667  0.16298460  1.0
  Ni  Ni4  1  0.55759667  0.37500000  0.16298460  1.0
  Ni  Ni5  1  0.55759667  0.70833333  0.16298460  1.0
  Ni  Ni6  1  0.89093000  0.04166667  0.16298460  1.0
  Ni  Ni7  1  0.89093000  0.37500000  0.16298460  1.0
  Ni  Ni8  1  0.89093000  0.70833333  0.16298460  1.0
  Ni  Ni9  1  0.22426333  0.20833333  0.06298460  1.0
  Ni  Ni10  1  0.22426333  0.54166667  0.06298460  1.0
  Ni  Ni11  1  0.22426333  0.87500000  0.06298460  1.0
  Ni  Ni12  1  0.55759667  0.20833333  0.06298460  1.0
  Ni  Ni13  1  0.55759667  0.54166667  0.06298460  1.0
  Ni  Ni14  1  0.55759667  0.87500000  0.06298460  1.0
  Ni  Ni15  1  0.89093000  0.20833333  0.06298460  1.0
  Ni  Ni16  1  0.89093000  0.54166667  0.06298460  1.0
  Ni  Ni17  1  0.89093000  0.87500000  0.06298460  1.0
  Ni  Ni18  1  0.10907000  0.12500000  0.13701540  1.0
  Ni  Ni19  1  0.10907000  0.45833333  0.13701540  1.0
  Ni  Ni20  1  0.10907000  0.79166667  0.13701540  1.0
  Ni  Ni21  1  0.44240333  0.12500000  0.13701540  1.0
  Ni  Ni22  1  0.44240333  0.45833333  0.13701540  1.0
  Ni  Ni23  1  0.44240333  0.79166667  0.13701540  1.0
  Ni  Ni24  1  0.77573667  0.12500000  0.13701540  1.0
  Ni  Ni25  1  0.77573667  0.45833333  0.13701540  1.0
  Ni  Ni26  1  0.77573667  0.79166667  0.13701540  1.0
  Ni  Ni27  1  0.10907000  0.29166667  0.03701540  1.0
  Ni  Ni28  1  0.10907000  0.62500000  0.03701540  1.0
  Ni  Ni29  1  0.10907000  0.95833333  0.03701540  1.0
  Ni  Ni30  1  0.44240333  0.29166667  0.03701540  1.0
  Ni  Ni31  1  0.44240333  0.62500000  0.03701540  1.0
  Ni  Ni32  1  0.44240333  0.95833333  0.03701540  1.0
  Ni  Ni33  1  0.77573667  0.29166667  0.03701540  1.0
  Ni  Ni34  1  0.77573667  0.62500000  0.03701540  1.0
  Ni  Ni35  1  0.77573667  0.95833333  0.03701540  1.0
  Ni  Ni36  1  0.05759667  0.04166667  0.08701540  1.0
  Ni  Ni37  1  0.05759667  0.37500000  0.08701540  1.0
  Ni  Ni38  1  0.05759667  0.70833333  0.08701540  1.0
  Ni  Ni39  1  0.39093000  0.04166667  0.08701540  1.0
  Ni  Ni40  1  0.39093000  0.37500000  0.08701540  1.0
  Ni  Ni41  1  0.39093000  0.70833333  0.08701540  1.0
  Ni  Ni42  1  0.72426333  0.04166667  0.08701540  1.0
  Ni  Ni43  1  0.72426333  0.37500000  0.08701540  1.0
  Ni  Ni44  1  0.72426333  0.70833333  0.08701540  1.0
  Ni  Ni45  1  0.05759667  0.20833333  0.18701540  1.0
  Ni  Ni46  1  0.05759667  0.54166667  0.18701540  1.0
  Ni  Ni47  1  0.05759667  0.87500000  0.18701540  1.0
  Ni  Ni48  1  0.39093000  0.20833333  0.18701540  1.0
  Ni  Ni49  1  0.39093000  0.54166667  0.18701540  1.0
  Ni  Ni50  1  0.39093000  0.87500000  0.18701540  1.0
  Ni  Ni51  1  0.72426333  0.20833333  0.18701540  1.0
  Ni  Ni52  1  0.72426333  0.54166667  0.18701540  1.0
  Ni  Ni53  1  0.72426333  0.87500000  0.18701540  1.0
  Ni  Ni54  1  0.27573667  0.12500000  0.01298460  1.0
  Ni  Ni55  1  0.27573667  0.45833333  0.01298460  1.0
  Ni  Ni56  1  0.27573667  0.79166667  0.01298460  1.0
  Ni  Ni57  1  0.60907000  0.12500000  0.01298460  1.0
  Ni  Ni58  1  0.60907000  0.45833333  0.01298460  1.0
  Ni  Ni59  1  0.60907000  0.79166667  0.01298460  1.0
  Ni  Ni60  1  0.94240333  0.12500000  0.01298460  1.0
  Ni  Ni61  1  0.94240333  0.45833333  0.01298460  1.0
  Ni  Ni62  1  0.94240333  0.79166667  0.01298460  1.0
  Ni  Ni63  1  0.27573667  0.29166667  0.11298460  1.0
  Ni  Ni64  1  0.27573667  0.62500000  0.11298460  1.0
  Ni  Ni65  1  0.27573667  0.95833333  0.11298460  1.0
  Ni  Ni66  1  0.60907000  0.29166667  0.11298460  1.0
  Ni  Ni67  1  0.60907000  0.62500000  0.11298460  1.0
  Ni  Ni68  1  0.60907000  0.95833333  0.11298460  1.0
  Ni  Ni69  1  0.94240333  0.29166667  0.11298460  1.0
  Ni  Ni70  1  0.94240333  0.62500000  0.11298460  1.0
  Ni  Ni71  1  0.94240333  0.95833333  0.11298460  1.0
  Ni  Ni72  1  0.01479133  0.04166667  0.01677780  1.0
  Ni  Ni73  1  0.01479133  0.37500000  0.01677780  1.0
  Ni  Ni74  1  0.01479133  0.70833333  0.01677780  1.0
  Ni  Ni75  1  0.34812467  0.04166667  0.01677780  1.0
  Ni  Ni76  1  0.34812467  0.37500000  0.01677780  1.0
  Ni  Ni77  1  0.34812467  0.70833333  0.01677780  1.0
  Ni  Ni78  1  0.68145800  0.04166667  0.01677780  1.0
  Ni  Ni79  1  0.68145800  0.37500000  0.01677780  1.0
  Ni  Ni80  1  0.68145800  0.70833333  0.01677780  1.0
  Ni  Ni81  1  0.01479133  0.20833333  0.11677780  1.0
  Ni  Ni82  1  0.01479133  0.54166667  0.11677780  1.0
  Ni  Ni83  1  0.01479133  0.87500000  0.11677780  1.0
  Ni  Ni84  1  0.34812467  0.20833333  0.11677780  1.0
  Ni  Ni85  1  0.34812467  0.54166667  0.11677780  1.0
  Ni  Ni86  1  0.34812467  0.87500000  0.11677780  1.0
  Ni  Ni87  1  0.68145800  0.20833333  0.11677780  1.0
  Ni  Ni88  1  0.68145800  0.54166667  0.11677780  1.0
  Ni  Ni89  1  0.68145800  0.87500000  0.11677780  1.0
  Ni  Ni90  1  0.31854200  0.12500000  0.08322220  1.0
  Ni  Ni91  1  0.31854200  0.45833333  0.08322220  1.0
  Ni  Ni92  1  0.31854200  0.79166667  0.08322220  1.0
  Ni  Ni93  1  0.65187533  0.12500000  0.08322220  1.0
  Ni  Ni94  1  0.65187533  0.45833333  0.08322220  1.0
  Ni  Ni95  1  0.65187533  0.79166667  0.08322220  1.0
  Ni  Ni96  1  0.98520867  0.12500000  0.08322220  1.0
  Ni  Ni97  1  0.98520867  0.45833333  0.08322220  1.0
  Ni  Ni98  1  0.98520867  0.79166667  0.08322220  1.0
  Ni  Ni99  1  0.31854200  0.29166667  0.18322220  1.0
  Ni  Ni100  1  0.31854200  0.62500000  0.18322220  1.0
  Ni  Ni101  1  0.31854200  0.95833333  0.18322220  1.0
  Ni  Ni102  1  0.65187533  0.29166667  0.18322220  1.0
  Ni  Ni103  1  0.65187533  0.62500000  0.18322220  1.0
  Ni  Ni104  1  0.65187533  0.95833333  0.18322220  1.0
  Ni  Ni105  1  0.98520867  0.29166667  0.18322220  1.0
  Ni  Ni106  1  0.98520867  0.62500000  0.18322220  1.0
  Ni  Ni107  1  0.98520867  0.95833333  0.18322220  1.0
  Ni  Ni108  1  0.18145800  0.04166667  0.03322220  1.0
  Ni  Ni109  1  0.18145800  0.37500000  0.03322220  1.0
  Ni  Ni110  1  0.18145800  0.70833333  0.03322220  1.0
  Ni  Ni111  1  0.51479133  0.04166667  0.03322220  1.0
  Ni  Ni112  1  0.51479133  0.37500000  0.03322220  1.0
  Ni  Ni113  1  0.51479133  0.70833333  0.03322220  1.0
  Ni  Ni114  1  0.84812467  0.04166667  0.03322220  1.0
  Ni  Ni115  1  0.84812467  0.37500000  0.03322220  1.0
  Ni  Ni116  1  0.84812467  0.70833333  0.03322220  1.0
  Ni  Ni117  1  0.18145800  0.20833333  0.13322220  1.0
  Ni  Ni118  1  0.18145800  0.54166667  0.13322220  1.0
  Ni  Ni119  1  0.18145800  0.87500000  0.13322220  1.0
  Ni  Ni120  1  0.51479133  0.20833333  0.13322220  1.0
  Ni  Ni121  1  0.51479133  0.54166667  0.13322220  1.0
  Ni  Ni122  1  0.51479133  0.87500000  0.13322220  1.0
  Ni  Ni123  1  0.84812467  0.20833333  0.13322220  1.0
  Ni  Ni124  1  0.84812467  0.54166667  0.13322220  1.0
  Ni  Ni125  1  0.84812467  0.87500000  0.13322220  1.0
  Ni  Ni126  1  0.15187533  0.12500000  0.06677780  1.0
  Ni  Ni127  1  0.15187533  0.45833333  0.06677780  1.0
  Ni  Ni128  1  0.15187533  0.79166667  0.06677780  1.0
  Ni  Ni129  1  0.48520867  0.12500000  0.06677780  1.0
  Ni  Ni130  1  0.48520867  0.45833333  0.06677780  1.0
  Ni  Ni131  1  0.48520867  0.79166667  0.06677780  1.0
  Ni  Ni132  1  0.81854200  0.12500000  0.06677780  1.0
  Ni  Ni133  1  0.81854200  0.45833333  0.06677780  1.0
  Ni  Ni134  1  0.81854200  0.79166667  0.06677780  1.0
  Ni  Ni135  1  0.15187533  0.29166667  0.16677780  1.0
  Ni  Ni136  1  0.15187533  0.62500000  0.16677780  1.0
  Ni  Ni137  1  0.15187533  0.95833333  0.16677780  1.0
  Ni  Ni138  1  0.48520867  0.29166667  0.16677780  1.0
  Ni  Ni139  1  0.48520867  0.62500000  0.16677780  1.0
  Ni  Ni140  1  0.48520867  0.95833333  0.16677780  1.0
  Ni  Ni141  1  0.81854200  0.29166667  0.16677780  1.0
  Ni  Ni142  1  0.81854200  0.62500000  0.16677780  1.0
  Ni  Ni143  1  0.81854200  0.95833333  0.16677780  1.0
  Ge  Ge144  1  0.23658067  0.04166667  0.09760040  1.0
  Ge  Ge145  1  0.23658067  0.37500000  0.09760040  1.0
  Ge  Ge146  1  0.23658067  0.70833333  0.09760040  1.0
  Ge  Ge147  1  0.56991400  0.04166667  0.09760040  1.0
  Ge  Ge148  1  0.56991400  0.37500000  0.09760040  1.0
  Ge  Ge149  1  0.56991400  0.70833333  0.09760040  1.0
  Ge  Ge150  1  0.90324733  0.04166667  0.09760040  1.0
  Ge  Ge151  1  0.90324733  0.37500000  0.09760040  1.0
  Ge  Ge152  1  0.90324733  0.70833333  0.09760040  1.0
  Ge  Ge153  1  0.23658067  0.20833333  0.19760040  1.0
  Ge  Ge154  1  0.23658067  0.54166667  0.19760040  1.0
  Ge  Ge155  1  0.23658067  0.87500000  0.19760040  1.0
  Ge  Ge156  1  0.56991400  0.20833333  0.19760040  1.0
  Ge  Ge157  1  0.56991400  0.54166667  0.19760040  1.0
  Ge  Ge158  1  0.56991400  0.87500000  0.19760040  1.0
  Ge  Ge159  1  0.90324733  0.20833333  0.19760040  1.0
  Ge  Ge160  1  0.90324733  0.54166667  0.19760040  1.0
  Ge  Ge161  1  0.90324733  0.87500000  0.19760040  1.0
  Ge  Ge162  1  0.09675267  0.12500000  0.00239960  1.0
  Ge  Ge163  1  0.09675267  0.45833333  0.00239960  1.0
  Ge  Ge164  1  0.09675267  0.79166667  0.00239960  1.0
  Ge  Ge165  1  0.43008600  0.12500000  0.00239960  1.0
  Ge  Ge166  1  0.43008600  0.45833333  0.00239960  1.0
  Ge  Ge167  1  0.43008600  0.79166667  0.00239960  1.0
  Ge  Ge168  1  0.76341933  0.12500000  0.00239960  1.0
  Ge  Ge169  1  0.76341933  0.45833333  0.00239960  1.0
  Ge  Ge170  1  0.76341933  0.79166667  0.00239960  1.0
  Ge  Ge171  1  0.09675267  0.29166667  0.10239960  1.0
  Ge  Ge172  1  0.09675267  0.62500000  0.10239960  1.0
  Ge  Ge173  1  0.09675267  0.95833333  0.10239960  1.0
  Ge  Ge174  1  0.43008600  0.29166667  0.10239960  1.0
  Ge  Ge175  1  0.43008600  0.62500000  0.10239960  1.0
  Ge  Ge176  1  0.43008600  0.95833333  0.10239960  1.0
  Ge  Ge177  1  0.76341933  0.29166667  0.10239960  1.0
  Ge  Ge178  1  0.76341933  0.62500000  0.10239960  1.0
  Ge  Ge179  1  0.76341933  0.95833333  0.10239960  1.0
  Ge  Ge180  1  0.06991400  0.04166667  0.15239960  1.0
  Ge  Ge181  1  0.06991400  0.37500000  0.15239960  1.0
  Ge  Ge182  1  0.06991400  0.70833333  0.15239960  1.0
  Ge  Ge183  1  0.40324733  0.04166667  0.15239960  1.0
  Ge  Ge184  1  0.40324733  0.37500000  0.15239960  1.0
  Ge  Ge185  1  0.40324733  0.70833333  0.15239960  1.0
  Ge  Ge186  1  0.73658067  0.04166667  0.15239960  1.0
  Ge  Ge187  1  0.73658067  0.37500000  0.15239960  1.0
  Ge  Ge188  1  0.73658067  0.70833333  0.15239960  1.0
  Ge  Ge189  1  0.06991400  0.20833333  0.05239960  1.0
  Ge  Ge190  1  0.06991400  0.54166667  0.05239960  1.0
  Ge  Ge191  1  0.06991400  0.87500000  0.05239960  1.0
  Ge  Ge192  1  0.40324733  0.20833333  0.05239960  1.0
  Ge  Ge193  1  0.40324733  0.54166667  0.05239960  1.0
  Ge  Ge194  1  0.40324733  0.87500000  0.05239960  1.0
  Ge  Ge195  1  0.73658067  0.20833333  0.05239960  1.0
  Ge  Ge196  1  0.73658067  0.54166667  0.05239960  1.0
  Ge  Ge197  1  0.73658067  0.87500000  0.05239960  1.0
  Ge  Ge198  1  0.26341933  0.12500000  0.14760040  1.0
  Ge  Ge199  1  0.26341933  0.45833333  0.14760040  1.0
  Ge  Ge200  1  0.26341933  0.79166667  0.14760040  1.0
  Ge  Ge201  1  0.59675267  0.12500000  0.14760040  1.0
  Ge  Ge202  1  0.59675267  0.45833333  0.14760040  1.0
  Ge  Ge203  1  0.59675267  0.79166667  0.14760040  1.0
  Ge  Ge204  1  0.93008600  0.12500000  0.14760040  1.0
  Ge  Ge205  1  0.93008600  0.45833333  0.14760040  1.0
  Ge  Ge206  1  0.93008600  0.79166667  0.14760040  1.0
  Ge  Ge207  1  0.26341933  0.29166667  0.04760040  1.0
  Ge  Ge208  1  0.26341933  0.62500000  0.04760040  1.0
  Ge  Ge209  1  0.26341933  0.95833333  0.04760040  1.0
  Ge  Ge210  1  0.59675267  0.29166667  0.04760040  1.0
  Ge  Ge211  1  0.59675267  0.62500000  0.04760040  1.0
  Ge  Ge212  1  0.59675267  0.95833333  0.04760040  1.0
  Ge  Ge213  1  0.93008600  0.29166667  0.04760040  1.0
  Ge  Ge214  1  0.93008600  0.62500000  0.04760040  1.0
  Ge  Ge215  1  0.93008600  0.95833333  0.04760040  1.0
  Ni  Ni216  1  0.22426333  0.04166667  0.36298460  1.0
  Ni  Ni217  1  0.22426333  0.37500000  0.36298460  1.0
  Ni  Ni218  1  0.22426333  0.70833333  0.36298460  1.0
  Ni  Ni219  1  0.55759667  0.04166667  0.36298460  1.0
  Ni  Ni220  1  0.55759667  0.37500000  0.36298460  1.0
  Ni  Ni221  1  0.55759667  0.70833333  0.36298460  1.0
  Ni  Ni222  1  0.89093000  0.04166667  0.36298460  1.0
  Ni  Ni223  1  0.89093000  0.37500000  0.36298460  1.0
  Ni  Ni224  1  0.89093000  0.70833333  0.36298460  1.0
  Ni  Ni225  1  0.22426333  0.20833333  0.26298460  1.0
  Ni  Ni226  1  0.22426333  0.54166667  0.26298460  1.0
  Ni  Ni227  1  0.22426333  0.87500000  0.26298460  1.0
  Ni  Ni228  1  0.55759667  0.20833333  0.26298460  1.0
  Ni  Ni229  1  0.55759667  0.54166667  0.26298460  1.0
  Ni  Ni230  1  0.55759667  0.87500000  0.26298460  1.0
  Ni  Ni231  1  0.89093000  0.20833333  0.26298460  1.0
  Ni  Ni232  1  0.89093000  0.54166667  0.26298460  1.0
  Ni  Ni233  1  0.89093000  0.87500000  0.26298460  1.0
  Ni  Ni234  1  0.10907000  0.12500000  0.33701540  1.0
  Ni  Ni235  1  0.10907000  0.45833333  0.33701540  1.0
  Ni  Ni236  1  0.10907000  0.79166667  0.33701540  1.0
  Ni  Ni237  1  0.44240333  0.12500000  0.33701540  1.0
  Ni  Ni238  1  0.44240333  0.45833333  0.33701540  1.0
  Ni  Ni239  1  0.44240333  0.79166667  0.33701540  1.0
  Ni  Ni240  1  0.77573667  0.12500000  0.33701540  1.0
  Ni  Ni241  1  0.77573667  0.45833333  0.33701540  1.0
  Ni  Ni242  1  0.77573667  0.79166667  0.33701540  1.0
  Ni  Ni243  1  0.10907000  0.29166667  0.23701540  1.0
  Ni  Ni244  1  0.10907000  0.62500000  0.23701540  1.0
  Ni  Ni245  1  0.10907000  0.95833333  0.23701540  1.0
  Ni  Ni246  1  0.44240333  0.29166667  0.23701540  1.0
  Ni  Ni247  1  0.44240333  0.62500000  0.23701540  1.0
  Ni  Ni248  1  0.44240333  0.95833333  0.23701540  1.0
  Ni  Ni249  1  0.77573667  0.29166667  0.23701540  1.0
  Ni  Ni250  1  0.77573667  0.62500000  0.23701540  1.0
  Ni  Ni251  1  0.77573667  0.95833333  0.23701540  1.0
  Ni  Ni252  1  0.05759667  0.04166667  0.28701540  1.0
  Ni  Ni253  1  0.05759667  0.37500000  0.28701540  1.0
  Ni  Ni254  1  0.05759667  0.70833333  0.28701540  1.0
  Ni  Ni255  1  0.39093000  0.04166667  0.28701540  1.0
  Ni  Ni256  1  0.39093000  0.37500000  0.28701540  1.0
  Ni  Ni257  1  0.39093000  0.70833333  0.28701540  1.0
  Ni  Ni258  1  0.72426333  0.04166667  0.28701540  1.0
  Ni  Ni259  1  0.72426333  0.37500000  0.28701540  1.0
  Ni  Ni260  1  0.72426333  0.70833333  0.28701540  1.0
  Ni  Ni261  1  0.05759667  0.20833333  0.38701540  1.0
  Ni  Ni262  1  0.05759667  0.54166667  0.38701540  1.0
  Ni  Ni263  1  0.05759667  0.87500000  0.38701540  1.0
  Ni  Ni264  1  0.39093000  0.20833333  0.38701540  1.0
  Ni  Ni265  1  0.39093000  0.54166667  0.38701540  1.0
  Ni  Ni266  1  0.39093000  0.87500000  0.38701540  1.0
  Ni  Ni267  1  0.72426333  0.20833333  0.38701540  1.0
  Ni  Ni268  1  0.72426333  0.54166667  0.38701540  1.0
  Ni  Ni269  1  0.72426333  0.87500000  0.38701540  1.0
  Ni  Ni270  1  0.27573667  0.12500000  0.21298460  1.0
  Ni  Ni271  1  0.27573667  0.45833333  0.21298460  1.0
  Ni  Ni272  1  0.27573667  0.79166667  0.21298460  1.0
  Ni  Ni273  1  0.60907000  0.12500000  0.21298460  1.0
  Ni  Ni274  1  0.60907000  0.45833333  0.21298460  1.0
  Ni  Ni275  1  0.60907000  0.79166667  0.21298460  1.0
  Ni  Ni276  1  0.94240333  0.12500000  0.21298460  1.0
  Ni  Ni277  1  0.94240333  0.45833333  0.21298460  1.0
  Ni  Ni278  1  0.94240333  0.79166667  0.21298460  1.0
  Ni  Ni279  1  0.27573667  0.29166667  0.31298460  1.0
  Ni  Ni280  1  0.27573667  0.62500000  0.31298460  1.0
  Ni  Ni281  1  0.27573667  0.95833333  0.31298460  1.0
  Ni  Ni282  1  0.60907000  0.29166667  0.31298460  1.0
  Ni  Ni283  1  0.60907000  0.62500000  0.31298460  1.0
  Ni  Ni284  1  0.60907000  0.95833333  0.31298460  1.0
  Ni  Ni285  1  0.94240333  0.29166667  0.31298460  1.0
  Ni  Ni286  1  0.94240333  0.62500000  0.31298460  1.0
  Ni  Ni287  1  0.94240333  0.95833333  0.31298460  1.0
  Ni  Ni288  1  0.01479133  0.04166667  0.21677780  1.0
  Ni  Ni289  1  0.01479133  0.37500000  0.21677780  1.0
  Ni  Ni290  1  0.01479133  0.70833333  0.21677780  1.0
  Ni  Ni291  1  0.34812467  0.04166667  0.21677780  1.0
  Ni  Ni292  1  0.34812467  0.37500000  0.21677780  1.0
  Ni  Ni293  1  0.34812467  0.70833333  0.21677780  1.0
  Ni  Ni294  1  0.68145800  0.04166667  0.21677780  1.0
  Ni  Ni295  1  0.68145800  0.37500000  0.21677780  1.0
  Ni  Ni296  1  0.68145800  0.70833333  0.21677780  1.0
  Ni  Ni297  1  0.01479133  0.20833333  0.31677780  1.0
  Ni  Ni298  1  0.01479133  0.54166667  0.31677780  1.0
  Ni  Ni299  1  0.01479133  0.87500000  0.31677780  1.0
  Ni  Ni300  1  0.34812467  0.20833333  0.31677780  1.0
  Ni  Ni301  1  0.34812467  0.54166667  0.31677780  1.0
  Ni  Ni302  1  0.34812467  0.87500000  0.31677780  1.0
  Ni  Ni303  1  0.68145800  0.20833333  0.31677780  1.0
  Ni  Ni304  1  0.68145800  0.54166667  0.31677780  1.0
  Ni  Ni305  1  0.68145800  0.87500000  0.31677780  1.0
  Ni  Ni306  1  0.31854200  0.12500000  0.28322220  1.0
  Ni  Ni307  1  0.31854200  0.45833333  0.28322220  1.0
  Ni  Ni308  1  0.31854200  0.79166667  0.28322220  1.0
  Ni  Ni309  1  0.65187533  0.12500000  0.28322220  1.0
  Ni  Ni310  1  0.65187533  0.45833333  0.28322220  1.0
  Ni  Ni311  1  0.65187533  0.79166667  0.28322220  1.0
  Ni  Ni312  1  0.98520867  0.12500000  0.28322220  1.0
  Ni  Ni313  1  0.98520867  0.45833333  0.28322220  1.0
  Ni  Ni314  1  0.98520867  0.79166667  0.28322220  1.0
  Ni  Ni315  1  0.31854200  0.29166667  0.38322220  1.0
  Ni  Ni316  1  0.31854200  0.62500000  0.38322220  1.0
  Ni  Ni317  1  0.31854200  0.95833333  0.38322220  1.0
  Ni  Ni318  1  0.65187533  0.29166667  0.38322220  1.0
  Ni  Ni319  1  0.65187533  0.62500000  0.38322220  1.0
  Ni  Ni320  1  0.65187533  0.95833333  0.38322220  1.0
  Ni  Ni321  1  0.98520867  0.29166667  0.38322220  1.0
  Ni  Ni322  1  0.98520867  0.62500000  0.38322220  1.0
  Ni  Ni323  1  0.98520867  0.95833333  0.38322220  1.0
  Ni  Ni324  1  0.18145800  0.04166667  0.23322220  1.0
  Ni  Ni325  1  0.18145800  0.37500000  0.23322220  1.0
  Ni  Ni326  1  0.18145800  0.70833333  0.23322220  1.0
  Ni  Ni327  1  0.51479133  0.04166667  0.23322220  1.0
  Ni  Ni328  1  0.51479133  0.37500000  0.23322220  1.0
  Ni  Ni329  1  0.51479133  0.70833333  0.23322220  1.0
  Ni  Ni330  1  0.84812467  0.04166667  0.23322220  1.0
  Ni  Ni331  1  0.84812467  0.37500000  0.23322220  1.0
  Ni  Ni332  1  0.84812467  0.70833333  0.23322220  1.0
  Ni  Ni333  1  0.18145800  0.20833333  0.33322220  1.0
  Ni  Ni334  1  0.18145800  0.54166667  0.33322220  1.0
  Ni  Ni335  1  0.18145800  0.87500000  0.33322220  1.0
  Ni  Ni336  1  0.51479133  0.20833333  0.33322220  1.0
  Ni  Ni337  1  0.51479133  0.54166667  0.33322220  1.0
  Ni  Ni338  1  0.51479133  0.87500000  0.33322220  1.0
  Ni  Ni339  1  0.84812467  0.20833333  0.33322220  1.0
  Ni  Ni340  1  0.84812467  0.54166667  0.33322220  1.0
  Ni  Ni341  1  0.84812467  0.87500000  0.33322220  1.0
  Ni  Ni342  1  0.15187533  0.12500000  0.26677780  1.0
  Ni  Ni343  1  0.15187533  0.45833333  0.26677780  1.0
  Ni  Ni344  1  0.15187533  0.79166667  0.26677780  1.0
  Ni  Ni345  1  0.48520867  0.12500000  0.26677780  1.0
  Ni  Ni346  1  0.48520867  0.45833333  0.26677780  1.0
  Ni  Ni347  1  0.48520867  0.79166667  0.26677780  1.0
  Ni  Ni348  1  0.81854200  0.12500000  0.26677780  1.0
  Ni  Ni349  1  0.81854200  0.45833333  0.26677780  1.0
  Ni  Ni350  1  0.81854200  0.79166667  0.26677780  1.0
  Ni  Ni351  1  0.15187533  0.29166667  0.36677780  1.0
  Ni  Ni352  1  0.15187533  0.62500000  0.36677780  1.0
  Ni  Ni353  1  0.15187533  0.95833333  0.36677780  1.0
  Ni  Ni354  1  0.48520867  0.29166667  0.36677780  1.0
  Ni  Ni355  1  0.48520867  0.62500000  0.36677780  1.0
  Ni  Ni356  1  0.48520867  0.95833333  0.36677780  1.0
  Ni  Ni357  1  0.81854200  0.29166667  0.36677780  1.0
  Ni  Ni358  1  0.81854200  0.62500000  0.36677780  1.0
  Ni  Ni359  1  0.81854200  0.95833333  0.36677780  1.0
  Ge  Ge360  1  0.23658067  0.04166667  0.29760040  1.0
  Ge  Ge361  1  0.23658067  0.37500000  0.29760040  1.0
  Ge  Ge362  1  0.23658067  0.70833333  0.29760040  1.0
  Ge  Ge363  1  0.56991400  0.04166667  0.29760040  1.0
  Ge  Ge364  1  0.56991400  0.37500000  0.29760040  1.0
  Ge  Ge365  1  0.56991400  0.70833333  0.29760040  1.0
  Ge  Ge366  1  0.90324733  0.04166667  0.29760040  1.0
  Ge  Ge367  1  0.90324733  0.37500000  0.29760040  1.0
  Ge  Ge368  1  0.90324733  0.70833333  0.29760040  1.0
  Ge  Ge369  1  0.23658067  0.20833333  0.39760040  1.0
  Ge  Ge370  1  0.23658067  0.54166667  0.39760040  1.0
  Ge  Ge371  1  0.23658067  0.87500000  0.39760040  1.0
  Ge  Ge372  1  0.56991400  0.20833333  0.39760040  1.0
  Ge  Ge373  1  0.56991400  0.54166667  0.39760040  1.0
  Ge  Ge374  1  0.56991400  0.87500000  0.39760040  1.0
  Ge  Ge375  1  0.90324733  0.20833333  0.39760040  1.0
  Ge  Ge376  1  0.90324733  0.54166667  0.39760040  1.0
  Ge  Ge377  1  0.90324733  0.87500000  0.39760040  1.0
  Ge  Ge378  1  0.09675267  0.12500000  0.20239960  1.0
  Ge  Ge379  1  0.09675267  0.45833333  0.20239960  1.0
  Ge  Ge380  1  0.09675267  0.79166667  0.20239960  1.0
  Ge  Ge381  1  0.43008600  0.12500000  0.20239960  1.0
  Ge  Ge382  1  0.43008600  0.45833333  0.20239960  1.0
  Ge  Ge383  1  0.43008600  0.79166667  0.20239960  1.0
  Ge  Ge384  1  0.76341933  0.12500000  0.20239960  1.0
  Ge  Ge385  1  0.76341933  0.45833333  0.20239960  1.0
  Ge  Ge386  1  0.76341933  0.79166667  0.20239960  1.0
  Ge  Ge387  1  0.09675267  0.29166667  0.30239960  1.0
  Ge  Ge388  1  0.09675267  0.62500000  0.30239960  1.0
  Ge  Ge389  1  0.09675267  0.95833333  0.30239960  1.0
  Ge  Ge390  1  0.43008600  0.29166667  0.30239960  1.0
  Ge  Ge391  1  0.43008600  0.62500000  0.30239960  1.0
  Ge  Ge392  1  0.43008600  0.95833333  0.30239960  1.0
  Ge  Ge393  1  0.76341933  0.29166667  0.30239960  1.0
  Ge  Ge394  1  0.76341933  0.62500000  0.30239960  1.0
  Ge  Ge395  1  0.76341933  0.95833333  0.30239960  1.0
  Ge  Ge396  1  0.06991400  0.04166667  0.35239960  1.0
  Ge  Ge397  1  0.06991400  0.37500000  0.35239960  1.0
  Ge  Ge398  1  0.06991400  0.70833333  0.35239960  1.0
  Ge  Ge399  1  0.40324733  0.04166667  0.35239960  1.0
  Ge  Ge400  1  0.40324733  0.37500000  0.35239960  1.0
  Ge  Ge401  1  0.40324733  0.70833333  0.35239960  1.0
  Ge  Ge402  1  0.73658067  0.04166667  0.35239960  1.0
  Ge  Ge403  1  0.73658067  0.37500000  0.35239960  1.0
  Ge  Ge404  1  0.73658067  0.70833333  0.35239960  1.0
  Ge  Ge405  1  0.06991400  0.20833333  0.25239960  1.0
  Ge  Ge406  1  0.06991400  0.54166667  0.25239960  1.0
  Ge  Ge407  1  0.06991400  0.87500000  0.25239960  1.0
  Ge  Ge408  1  0.40324733  0.20833333  0.25239960  1.0
  Ge  Ge409  1  0.40324733  0.54166667  0.25239960  1.0
  Ge  Ge410  1  0.40324733  0.87500000  0.25239960  1.0
  Ge  Ge411  1  0.73658067  0.20833333  0.25239960  1.0
  Ge  Ge412  1  0.73658067  0.54166667  0.25239960  1.0
  Ge  Ge413  1  0.73658067  0.87500000  0.25239960  1.0
  Ge  Ge414  1  0.26341933  0.12500000  0.34760040  1.0
  Ge  Ge415  1  0.26341933  0.45833333  0.34760040  1.0
  Ge  Ge416  1  0.26341933  0.79166667  0.34760040  1.0
  Ge  Ge417  1  0.59675267  0.12500000  0.34760040  1.0
  Ge  Ge418  1  0.59675267  0.45833333  0.34760040  1.0
  Ge  Ge419  1  0.59675267  0.79166667  0.34760040  1.0
  Ge  Ge420  1  0.93008600  0.12500000  0.34760040  1.0
  Ge  Ge421  1  0.93008600  0.45833333  0.34760040  1.0
  Ge  Ge422  1  0.93008600  0.79166667  0.34760040  1.0
  Ge  Ge423  1  0.26341933  0.29166667  0.24760040  1.0
  Ge  Ge424  1  0.26341933  0.62500000  0.24760040  1.0
  Ge  Ge425  1  0.26341933  0.95833333  0.24760040  1.0
  Ge  Ge426  1  0.59675267  0.29166667  0.24760040  1.0
  Ge  Ge427  1  0.59675267  0.62500000  0.24760040  1.0
  Ge  Ge428  1  0.59675267  0.95833333  0.24760040  1.0
  Ge  Ge429  1  0.93008600  0.29166667  0.24760040  1.0
  Ge  Ge430  1  0.93008600  0.62500000  0.24760040  1.0
  Ge  Ge431  1  0.93008600  0.95833333  0.24760040  1.0
