# generated using pymatgen
data_Ni2Ge
_symmetry_space_group_name_H-M   'P 1'
_cell_length_a   26.66564293
_cell_length_b   29.04665026
_cell_length_c   28.30581809
_cell_angle_alpha   95.05894050
_cell_angle_beta   96.11049925
_cell_angle_gamma   108.13120890
_symmetry_Int_Tables_number   1
_chemical_formula_structural   Ni2Ge
_chemical_formula_sum   'Ni432 Ge216'
_cell_volume   20545.79301266
_cell_formula_units_Z   216
loop_
 _symmetry_equiv_pos_site_id
 _symmetry_equiv_pos_as_xyz
  1  'x, y, z'
loop_
 _atom_site_type_symbol
 _atom_site_label
 _atom_site_symmetry_multiplicity
 _atom_site_fract_x
 _atom_site_fract_y
 _atom_site_fract_z
 _atom_site_occupancy
  Ge  Ge0  1  0.01612333  0.20633734  0.04235997  1.0
  Ge  Ge1  1  0.01612333  0.53967068  0.04235997  1.0
  Ge  Ge2  1  0.01612333  0.87300401  0.04235997  1.0
  Ge  Ge3  1  0.34945667  0.20633734  0.04235997  1.0
  Ge  Ge4  1  0.34945667  0.53967068  0.04235997  1.0
  Ge  Ge5  1  0.34945667  0.87300401  0.04235997  1.0
  Ge  Ge6  1  0.68279000  0.20633734  0.04235997  1.0
  Ge  Ge7  1  0.68279000  0.53967068  0.04235997  1.0
  Ge  Ge8  1  0.68279000  0.87300401  0.04235997  1.0
  Ge  Ge9  1  0.18279000  0.01883734  0.10485997  1.0
  Ge  Ge10  1  0.18279000  0.35217068  0.10485997  1.0
  Ge  Ge11  1  0.18279000  0.68550401  0.10485997  1.0
  Ge  Ge12  1  0.51612333  0.01883734  0.10485997  1.0
  Ge  Ge13  1  0.51612333  0.35217068  0.10485997  1.0
  Ge  Ge14  1  0.51612333  0.68550401  0.10485997  1.0
  Ge  Ge15  1  0.84945667  0.01883734  0.10485997  1.0
  Ge  Ge16  1  0.84945667  0.35217068  0.10485997  1.0
  Ge  Ge17  1  0.84945667  0.68550401  0.10485997  1.0
  Ge  Ge18  1  0.31721000  0.09137034  0.06451697  1.0
  Ge  Ge19  1  0.31721000  0.42470368  0.06451697  1.0
  Ge  Ge20  1  0.31721000  0.75803701  0.06451697  1.0
  Ge  Ge21  1  0.65054333  0.09137034  0.06451697  1.0
  Ge  Ge22  1  0.65054333  0.42470368  0.06451697  1.0
  Ge  Ge23  1  0.65054333  0.75803701  0.06451697  1.0
  Ge  Ge24  1  0.98387667  0.09137034  0.06451697  1.0
  Ge  Ge25  1  0.98387667  0.42470368  0.06451697  1.0
  Ge  Ge26  1  0.98387667  0.75803701  0.06451697  1.0
  Ge  Ge27  1  0.15054333  0.27887034  0.00201697  1.0
  Ge  Ge28  1  0.15054333  0.61220368  0.00201697  1.0
  Ge  Ge29  1  0.15054333  0.94553701  0.00201697  1.0
  Ge  Ge30  1  0.48387667  0.27887034  0.00201697  1.0
  Ge  Ge31  1  0.48387667  0.61220368  0.00201697  1.0
  Ge  Ge32  1  0.48387667  0.94553701  0.00201697  1.0
  Ge  Ge33  1  0.81721000  0.27887034  0.00201697  1.0
  Ge  Ge34  1  0.81721000  0.61220368  0.00201697  1.0
  Ge  Ge35  1  0.81721000  0.94553701  0.00201697  1.0
  Ge  Ge36  1  0.22045733  0.17337843  0.02823472  1.0
  Ge  Ge37  1  0.22045733  0.50671176  0.02823472  1.0
  Ge  Ge38  1  0.22045733  0.84004509  0.02823472  1.0
  Ge  Ge39  1  0.55379067  0.17337843  0.02823472  1.0
  Ge  Ge40  1  0.55379067  0.50671176  0.02823472  1.0
  Ge  Ge41  1  0.55379067  0.84004509  0.02823472  1.0
  Ge  Ge42  1  0.88712400  0.17337843  0.02823472  1.0
  Ge  Ge43  1  0.88712400  0.50671176  0.02823472  1.0
  Ge  Ge44  1  0.88712400  0.84004509  0.02823472  1.0
  Ge  Ge45  1  0.05379067  0.31921176  0.09073472  1.0
  Ge  Ge46  1  0.05379067  0.65254509  0.09073472  1.0
  Ge  Ge47  1  0.05379067  0.98587843  0.09073472  1.0
  Ge  Ge48  1  0.38712400  0.31921176  0.09073472  1.0
  Ge  Ge49  1  0.38712400  0.65254509  0.09073472  1.0
  Ge  Ge50  1  0.38712400  0.98587843  0.09073472  1.0
  Ge  Ge51  1  0.72045733  0.31921176  0.09073472  1.0
  Ge  Ge52  1  0.72045733  0.65254509  0.09073472  1.0
  Ge  Ge53  1  0.72045733  0.98587843  0.09073472  1.0
  Ge  Ge54  1  0.11287600  0.12432926  0.07864222  1.0
  Ge  Ge55  1  0.11287600  0.45766259  0.07864222  1.0
  Ge  Ge56  1  0.11287600  0.79099593  0.07864222  1.0
  Ge  Ge57  1  0.44620933  0.12432926  0.07864222  1.0
  Ge  Ge58  1  0.44620933  0.45766259  0.07864222  1.0
  Ge  Ge59  1  0.44620933  0.79099593  0.07864222  1.0
  Ge  Ge60  1  0.77954267  0.12432926  0.07864222  1.0
  Ge  Ge61  1  0.77954267  0.45766259  0.07864222  1.0
  Ge  Ge62  1  0.77954267  0.79099593  0.07864222  1.0
  Ge  Ge63  1  0.27954267  0.31182926  0.01614222  1.0
  Ge  Ge64  1  0.27954267  0.64516259  0.01614222  1.0
  Ge  Ge65  1  0.27954267  0.97849593  0.01614222  1.0
  Ge  Ge66  1  0.61287600  0.31182926  0.01614222  1.0
  Ge  Ge67  1  0.61287600  0.64516259  0.01614222  1.0
  Ge  Ge68  1  0.61287600  0.97849593  0.01614222  1.0
  Ge  Ge69  1  0.94620933  0.31182926  0.01614222  1.0
  Ge  Ge70  1  0.94620933  0.64516259  0.01614222  1.0
  Ge  Ge71  1  0.94620933  0.97849593  0.01614222  1.0
  Ge  Ge72  1  0.01612333  0.16467068  0.16735997  1.0
  Ge  Ge73  1  0.01612333  0.49800401  0.16735997  1.0
  Ge  Ge74  1  0.01612333  0.83133734  0.16735997  1.0
  Ge  Ge75  1  0.34945667  0.16467068  0.16735997  1.0
  Ge  Ge76  1  0.34945667  0.49800401  0.16735997  1.0
  Ge  Ge77  1  0.34945667  0.83133734  0.16735997  1.0
  Ge  Ge78  1  0.68279000  0.16467068  0.16735997  1.0
  Ge  Ge79  1  0.68279000  0.49800401  0.16735997  1.0
  Ge  Ge80  1  0.68279000  0.83133734  0.16735997  1.0
  Ge  Ge81  1  0.18279000  0.31050401  0.22985997  1.0
  Ge  Ge82  1  0.18279000  0.64383734  0.22985997  1.0
  Ge  Ge83  1  0.18279000  0.97717068  0.22985997  1.0
  Ge  Ge84  1  0.51612333  0.31050401  0.22985997  1.0
  Ge  Ge85  1  0.51612333  0.64383734  0.22985997  1.0
  Ge  Ge86  1  0.51612333  0.97717068  0.22985997  1.0
  Ge  Ge87  1  0.84945667  0.31050401  0.22985997  1.0
  Ge  Ge88  1  0.84945667  0.64383734  0.22985997  1.0
  Ge  Ge89  1  0.84945667  0.97717068  0.22985997  1.0
  Ge  Ge90  1  0.31721000  0.04970368  0.18951697  1.0
  Ge  Ge91  1  0.31721000  0.38303701  0.18951697  1.0
  Ge  Ge92  1  0.31721000  0.71637034  0.18951697  1.0
  Ge  Ge93  1  0.65054333  0.04970368  0.18951697  1.0
  Ge  Ge94  1  0.65054333  0.38303701  0.18951697  1.0
  Ge  Ge95  1  0.65054333  0.71637034  0.18951697  1.0
  Ge  Ge96  1  0.98387667  0.04970368  0.18951697  1.0
  Ge  Ge97  1  0.98387667  0.38303701  0.18951697  1.0
  Ge  Ge98  1  0.98387667  0.71637034  0.18951697  1.0
  Ge  Ge99  1  0.15054333  0.23720368  0.12701697  1.0
  Ge  Ge100  1  0.15054333  0.57053701  0.12701697  1.0
  Ge  Ge101  1  0.15054333  0.90387034  0.12701697  1.0
  Ge  Ge102  1  0.48387667  0.23720368  0.12701697  1.0
  Ge  Ge103  1  0.48387667  0.57053701  0.12701697  1.0
  Ge  Ge104  1  0.48387667  0.90387034  0.12701697  1.0
  Ge  Ge105  1  0.81721000  0.23720368  0.12701697  1.0
  Ge  Ge106  1  0.81721000  0.57053701  0.12701697  1.0
  Ge  Ge107  1  0.81721000  0.90387034  0.12701697  1.0
  Ge  Ge108  1  0.22045733  0.13171176  0.15323472  1.0
  Ge  Ge109  1  0.22045733  0.46504509  0.15323472  1.0
  Ge  Ge110  1  0.22045733  0.79837843  0.15323472  1.0
  Ge  Ge111  1  0.55379067  0.13171176  0.15323472  1.0
  Ge  Ge112  1  0.55379067  0.46504509  0.15323472  1.0
  Ge  Ge113  1  0.55379067  0.79837843  0.15323472  1.0
  Ge  Ge114  1  0.88712400  0.13171176  0.15323472  1.0
  Ge  Ge115  1  0.88712400  0.46504509  0.15323472  1.0
  Ge  Ge116  1  0.88712400  0.79837843  0.15323472  1.0
  Ge  Ge117  1  0.05379067  0.27754509  0.21573472  1.0
  Ge  Ge118  1  0.05379067  0.61087843  0.21573472  1.0
  Ge  Ge119  1  0.05379067  0.94421176  0.21573472  1.0
  Ge  Ge120  1  0.38712400  0.27754509  0.21573472  1.0
  Ge  Ge121  1  0.38712400  0.61087843  0.21573472  1.0
  Ge  Ge122  1  0.38712400  0.94421176  0.21573472  1.0
  Ge  Ge123  1  0.72045733  0.27754509  0.21573472  1.0
  Ge  Ge124  1  0.72045733  0.61087843  0.21573472  1.0
  Ge  Ge125  1  0.72045733  0.94421176  0.21573472  1.0
  Ge  Ge126  1  0.11287600  0.08266259  0.20364222  1.0
  Ge  Ge127  1  0.11287600  0.41599593  0.20364222  1.0
  Ge  Ge128  1  0.11287600  0.74932926  0.20364222  1.0
  Ge  Ge129  1  0.44620933  0.08266259  0.20364222  1.0
  Ge  Ge130  1  0.44620933  0.41599593  0.20364222  1.0
  Ge  Ge131  1  0.44620933  0.74932926  0.20364222  1.0
  Ge  Ge132  1  0.77954267  0.08266259  0.20364222  1.0
  Ge  Ge133  1  0.77954267  0.41599593  0.20364222  1.0
  Ge  Ge134  1  0.77954267  0.74932926  0.20364222  1.0
  Ge  Ge135  1  0.27954267  0.27016259  0.14114222  1.0
  Ge  Ge136  1  0.27954267  0.60349593  0.14114222  1.0
  Ge  Ge137  1  0.27954267  0.93682926  0.14114222  1.0
  Ge  Ge138  1  0.61287600  0.27016259  0.14114222  1.0
  Ge  Ge139  1  0.61287600  0.60349593  0.14114222  1.0
  Ge  Ge140  1  0.61287600  0.93682926  0.14114222  1.0
  Ge  Ge141  1  0.94620933  0.27016259  0.14114222  1.0
  Ge  Ge142  1  0.94620933  0.60349593  0.14114222  1.0
  Ge  Ge143  1  0.94620933  0.93682926  0.14114222  1.0
  Ge  Ge144  1  0.01612333  0.12300401  0.29235997  1.0
  Ge  Ge145  1  0.01612333  0.45633734  0.29235997  1.0
  Ge  Ge146  1  0.01612333  0.78967068  0.29235997  1.0
  Ge  Ge147  1  0.34945667  0.12300401  0.29235997  1.0
  Ge  Ge148  1  0.34945667  0.45633734  0.29235997  1.0
  Ge  Ge149  1  0.34945667  0.78967068  0.29235997  1.0
  Ge  Ge150  1  0.68279000  0.12300401  0.29235997  1.0
  Ge  Ge151  1  0.68279000  0.45633734  0.29235997  1.0
  Ge  Ge152  1  0.68279000  0.78967068  0.29235997  1.0
  Ge  Ge153  1  0.18279000  0.26883734  0.35485997  1.0
  Ge  Ge154  1  0.18279000  0.60217068  0.35485997  1.0
  Ge  Ge155  1  0.18279000  0.93550401  0.35485997  1.0
  Ge  Ge156  1  0.51612333  0.26883734  0.35485997  1.0
  Ge  Ge157  1  0.51612333  0.60217068  0.35485997  1.0
  Ge  Ge158  1  0.51612333  0.93550401  0.35485997  1.0
  Ge  Ge159  1  0.84945667  0.26883734  0.35485997  1.0
  Ge  Ge160  1  0.84945667  0.60217068  0.35485997  1.0
  Ge  Ge161  1  0.84945667  0.93550401  0.35485997  1.0
  Ge  Ge162  1  0.31721000  0.00803701  0.31451697  1.0
  Ge  Ge163  1  0.31721000  0.34137034  0.31451697  1.0
  Ge  Ge164  1  0.31721000  0.67470368  0.31451697  1.0
  Ge  Ge165  1  0.65054333  0.00803701  0.31451697  1.0
  Ge  Ge166  1  0.65054333  0.34137034  0.31451697  1.0
  Ge  Ge167  1  0.65054333  0.67470368  0.31451697  1.0
  Ge  Ge168  1  0.98387667  0.00803701  0.31451697  1.0
  Ge  Ge169  1  0.98387667  0.34137034  0.31451697  1.0
  Ge  Ge170  1  0.98387667  0.67470368  0.31451697  1.0
  Ge  Ge171  1  0.15054333  0.19553701  0.25201697  1.0
  Ge  Ge172  1  0.15054333  0.52887034  0.25201697  1.0
  Ge  Ge173  1  0.15054333  0.86220368  0.25201697  1.0
  Ge  Ge174  1  0.48387667  0.19553701  0.25201697  1.0
  Ge  Ge175  1  0.48387667  0.52887034  0.25201697  1.0
  Ge  Ge176  1  0.48387667  0.86220368  0.25201697  1.0
  Ge  Ge177  1  0.81721000  0.19553701  0.25201697  1.0
  Ge  Ge178  1  0.81721000  0.52887034  0.25201697  1.0
  Ge  Ge179  1  0.81721000  0.86220368  0.25201697  1.0
  Ge  Ge180  1  0.22045733  0.09004509  0.27823472  1.0
  Ge  Ge181  1  0.22045733  0.42337843  0.27823472  1.0
  Ge  Ge182  1  0.22045733  0.75671176  0.27823472  1.0
  Ge  Ge183  1  0.55379067  0.09004509  0.27823472  1.0
  Ge  Ge184  1  0.55379067  0.42337843  0.27823472  1.0
  Ge  Ge185  1  0.55379067  0.75671176  0.27823472  1.0
  Ge  Ge186  1  0.88712400  0.09004509  0.27823472  1.0
  Ge  Ge187  1  0.88712400  0.42337843  0.27823472  1.0
  Ge  Ge188  1  0.88712400  0.75671176  0.27823472  1.0
  Ge  Ge189  1  0.05379067  0.23587843  0.34073472  1.0
  Ge  Ge190  1  0.05379067  0.56921176  0.34073472  1.0
  Ge  Ge191  1  0.05379067  0.90254509  0.34073472  1.0
  Ge  Ge192  1  0.38712400  0.23587843  0.34073472  1.0
  Ge  Ge193  1  0.38712400  0.56921176  0.34073472  1.0
  Ge  Ge194  1  0.38712400  0.90254509  0.34073472  1.0
  Ge  Ge195  1  0.72045733  0.23587843  0.34073472  1.0
  Ge  Ge196  1  0.72045733  0.56921176  0.34073472  1.0
  Ge  Ge197  1  0.72045733  0.90254509  0.34073472  1.0
  Ge  Ge198  1  0.11287600  0.04099593  0.32864222  1.0
  Ge  Ge199  1  0.11287600  0.37432926  0.32864222  1.0
  Ge  Ge200  1  0.11287600  0.70766259  0.32864222  1.0
  Ge  Ge201  1  0.44620933  0.04099593  0.32864222  1.0
  Ge  Ge202  1  0.44620933  0.37432926  0.32864222  1.0
  Ge  Ge203  1  0.44620933  0.70766259  0.32864222  1.0
  Ge  Ge204  1  0.77954267  0.04099593  0.32864222  1.0
  Ge  Ge205  1  0.77954267  0.37432926  0.32864222  1.0
  Ge  Ge206  1  0.77954267  0.70766259  0.32864222  1.0
  Ge  Ge207  1  0.27954267  0.22849593  0.26614222  1.0
  Ge  Ge208  1  0.27954267  0.56182926  0.26614222  1.0
  Ge  Ge209  1  0.27954267  0.89516259  0.26614222  1.0
  Ge  Ge210  1  0.61287600  0.22849593  0.26614222  1.0
  Ge  Ge211  1  0.61287600  0.56182926  0.26614222  1.0
  Ge  Ge212  1  0.61287600  0.89516259  0.26614222  1.0
  Ge  Ge213  1  0.94620933  0.22849593  0.26614222  1.0
  Ge  Ge214  1  0.94620933  0.56182926  0.26614222  1.0
  Ge  Ge215  1  0.94620933  0.89516259  0.26614222  1.0
  Ni  Ni216  1  0.28881117  0.24862449  0.06048303  1.0
  Ni  Ni217  1  0.28881117  0.58195782  0.06048303  1.0
  Ni  Ni218  1  0.28881117  0.91529116  0.06048303  1.0
  Ni  Ni219  1  0.62214450  0.24862449  0.06048303  1.0
  Ni  Ni220  1  0.62214450  0.58195782  0.06048303  1.0
  Ni  Ni221  1  0.62214450  0.91529116  0.06048303  1.0
  Ni  Ni222  1  0.95547783  0.24862449  0.06048303  1.0
  Ni  Ni223  1  0.95547783  0.58195782  0.06048303  1.0
  Ni  Ni224  1  0.95547783  0.91529116  0.06048303  1.0
  Ni  Ni225  1  0.12214450  0.06112449  0.12298303  1.0
  Ni  Ni226  1  0.12214450  0.39445782  0.12298303  1.0
  Ni  Ni227  1  0.12214450  0.72779116  0.12298303  1.0
  Ni  Ni228  1  0.45547783  0.06112449  0.12298303  1.0
  Ni  Ni229  1  0.45547783  0.39445782  0.12298303  1.0
  Ni  Ni230  1  0.45547783  0.72779116  0.12298303  1.0
  Ni  Ni231  1  0.78881117  0.06112449  0.12298303  1.0
  Ni  Ni232  1  0.78881117  0.39445782  0.12298303  1.0
  Ni  Ni233  1  0.78881117  0.72779116  0.12298303  1.0
  Ni  Ni234  1  0.04452217  0.04908320  0.04639391  1.0
  Ni  Ni235  1  0.04452217  0.38241653  0.04639391  1.0
  Ni  Ni236  1  0.04452217  0.71574986  0.04639391  1.0
  Ni  Ni237  1  0.37785550  0.04908320  0.04639391  1.0
  Ni  Ni238  1  0.37785550  0.38241653  0.04639391  1.0
  Ni  Ni239  1  0.37785550  0.71574986  0.04639391  1.0
  Ni  Ni240  1  0.71118883  0.04908320  0.04639391  1.0
  Ni  Ni241  1  0.71118883  0.38241653  0.04639391  1.0
  Ni  Ni242  1  0.71118883  0.71574986  0.04639391  1.0
  Ni  Ni243  1  0.21118883  0.19491653  0.10889391  1.0
  Ni  Ni244  1  0.21118883  0.52824986  0.10889391  1.0
  Ni  Ni245  1  0.21118883  0.86158320  0.10889391  1.0
  Ni  Ni246  1  0.54452217  0.19491653  0.10889391  1.0
  Ni  Ni247  1  0.54452217  0.52824986  0.10889391  1.0
  Ni  Ni248  1  0.54452217  0.86158320  0.10889391  1.0
  Ni  Ni249  1  0.87785550  0.19491653  0.10889391  1.0
  Ni  Ni250  1  0.87785550  0.52824986  0.10889391  1.0
  Ni  Ni251  1  0.87785550  0.86158320  0.10889391  1.0
  Ni  Ni252  1  0.26878550  0.12031361  0.00549266  1.0
  Ni  Ni253  1  0.26878550  0.45364695  0.00549266  1.0
  Ni  Ni254  1  0.26878550  0.78698028  0.00549266  1.0
  Ni  Ni255  1  0.60211883  0.12031361  0.00549266  1.0
  Ni  Ni256  1  0.60211883  0.45364695  0.00549266  1.0
  Ni  Ni257  1  0.60211883  0.78698028  0.00549266  1.0
  Ni  Ni258  1  0.93545217  0.12031361  0.00549266  1.0
  Ni  Ni259  1  0.93545217  0.45364695  0.00549266  1.0
  Ni  Ni260  1  0.93545217  0.78698028  0.00549266  1.0
  Ni  Ni261  1  0.10211883  0.26614695  0.06799266  1.0
  Ni  Ni262  1  0.10211883  0.59948028  0.06799266  1.0
  Ni  Ni263  1  0.10211883  0.93281361  0.06799266  1.0
  Ni  Ni264  1  0.43545217  0.26614695  0.06799266  1.0
  Ni  Ni265  1  0.43545217  0.59948028  0.06799266  1.0
  Ni  Ni266  1  0.43545217  0.93281361  0.06799266  1.0
  Ni  Ni267  1  0.76878550  0.26614695  0.06799266  1.0
  Ni  Ni268  1  0.76878550  0.59948028  0.06799266  1.0
  Ni  Ni269  1  0.76878550  0.93281361  0.06799266  1.0
  Ni  Ni270  1  0.06454783  0.17739407  0.10138428  1.0
  Ni  Ni271  1  0.06454783  0.51072741  0.10138428  1.0
  Ni  Ni272  1  0.06454783  0.84406074  0.10138428  1.0
  Ni  Ni273  1  0.39788117  0.17739407  0.10138428  1.0
  Ni  Ni274  1  0.39788117  0.51072741  0.10138428  1.0
  Ni  Ni275  1  0.39788117  0.84406074  0.10138428  1.0
  Ni  Ni276  1  0.73121450  0.17739407  0.10138428  1.0
  Ni  Ni277  1  0.73121450  0.51072741  0.10138428  1.0
  Ni  Ni278  1  0.73121450  0.84406074  0.10138428  1.0
  Ni  Ni279  1  0.23121450  0.03156074  0.03888428  1.0
  Ni  Ni280  1  0.23121450  0.36489407  0.03888428  1.0
  Ni  Ni281  1  0.23121450  0.69822741  0.03888428  1.0
  Ni  Ni282  1  0.56454783  0.03156074  0.03888428  1.0
  Ni  Ni283  1  0.56454783  0.36489407  0.03888428  1.0
  Ni  Ni284  1  0.56454783  0.69822741  0.03888428  1.0
  Ni  Ni285  1  0.89788117  0.03156074  0.03888428  1.0
  Ni  Ni286  1  0.89788117  0.36489407  0.03888428  1.0
  Ni  Ni287  1  0.89788117  0.69822741  0.03888428  1.0
  Ni  Ni288  1  0.30591417  0.00870470  0.10051741  1.0
  Ni  Ni289  1  0.30591417  0.34203803  0.10051741  1.0
  Ni  Ni290  1  0.30591417  0.67537136  0.10051741  1.0
  Ni  Ni291  1  0.63924750  0.00870470  0.10051741  1.0
  Ni  Ni292  1  0.63924750  0.34203803  0.10051741  1.0
  Ni  Ni293  1  0.63924750  0.67537136  0.10051741  1.0
  Ni  Ni294  1  0.97258083  0.00870470  0.10051741  1.0
  Ni  Ni295  1  0.97258083  0.34203803  0.10051741  1.0
  Ni  Ni296  1  0.97258083  0.67537136  0.10051741  1.0
  Ni  Ni297  1  0.13924750  0.19620470  0.03801741  1.0
  Ni  Ni298  1  0.13924750  0.52953803  0.03801741  1.0
  Ni  Ni299  1  0.13924750  0.86287136  0.03801741  1.0
  Ni  Ni300  1  0.47258083  0.19620470  0.03801741  1.0
  Ni  Ni301  1  0.47258083  0.52953803  0.03801741  1.0
  Ni  Ni302  1  0.47258083  0.86287136  0.03801741  1.0
  Ni  Ni303  1  0.80591417  0.19620470  0.03801741  1.0
  Ni  Ni304  1  0.80591417  0.52953803  0.03801741  1.0
  Ni  Ni305  1  0.80591417  0.86287136  0.03801741  1.0
  Ni  Ni306  1  0.02741917  0.28900299  0.00635953  1.0
  Ni  Ni307  1  0.02741917  0.62233632  0.00635953  1.0
  Ni  Ni308  1  0.02741917  0.95566966  0.00635953  1.0
  Ni  Ni309  1  0.36075250  0.28900299  0.00635953  1.0
  Ni  Ni310  1  0.36075250  0.62233632  0.00635953  1.0
  Ni  Ni311  1  0.36075250  0.95566966  0.00635953  1.0
  Ni  Ni312  1  0.69408583  0.28900299  0.00635953  1.0
  Ni  Ni313  1  0.69408583  0.62233632  0.00635953  1.0
  Ni  Ni314  1  0.69408583  0.95566966  0.00635953  1.0
  Ni  Ni315  1  0.19408583  0.10150299  0.06885953  1.0
  Ni  Ni316  1  0.19408583  0.43483632  0.06885953  1.0
  Ni  Ni317  1  0.19408583  0.76816966  0.06885953  1.0
  Ni  Ni318  1  0.52741917  0.10150299  0.06885953  1.0
  Ni  Ni319  1  0.52741917  0.43483632  0.06885953  1.0
  Ni  Ni320  1  0.52741917  0.76816966  0.06885953  1.0
  Ni  Ni321  1  0.86075250  0.10150299  0.06885953  1.0
  Ni  Ni322  1  0.86075250  0.43483632  0.06885953  1.0
  Ni  Ni323  1  0.86075250  0.76816966  0.06885953  1.0
  Ni  Ni324  1  0.04221050  0.13527874  0.01190628  1.0
  Ni  Ni325  1  0.04221050  0.46861207  0.01190628  1.0
  Ni  Ni326  1  0.04221050  0.80194541  0.01190628  1.0
  Ni  Ni327  1  0.37554383  0.13527874  0.01190628  1.0
  Ni  Ni328  1  0.37554383  0.46861207  0.01190628  1.0
  Ni  Ni329  1  0.37554383  0.80194541  0.01190628  1.0
  Ni  Ni330  1  0.70887717  0.13527874  0.01190628  1.0
  Ni  Ni331  1  0.70887717  0.46861207  0.01190628  1.0
  Ni  Ni332  1  0.70887717  0.80194541  0.01190628  1.0
  Ni  Ni333  1  0.20887717  0.28111207  0.07440628  1.0
  Ni  Ni334  1  0.20887717  0.61444541  0.07440628  1.0
  Ni  Ni335  1  0.20887717  0.94777874  0.07440628  1.0
  Ni  Ni336  1  0.54221050  0.28111207  0.07440628  1.0
  Ni  Ni337  1  0.54221050  0.61444541  0.07440628  1.0
  Ni  Ni338  1  0.54221050  0.94777874  0.07440628  1.0
  Ni  Ni339  1  0.87554383  0.28111207  0.07440628  1.0
  Ni  Ni340  1  0.87554383  0.61444541  0.07440628  1.0
  Ni  Ni341  1  0.87554383  0.94777874  0.07440628  1.0
  Ni  Ni342  1  0.29112283  0.16242895  0.09497066  1.0
  Ni  Ni343  1  0.29112283  0.49576228  0.09497066  1.0
  Ni  Ni344  1  0.29112283  0.82909561  0.09497066  1.0
  Ni  Ni345  1  0.62445617  0.16242895  0.09497066  1.0
  Ni  Ni346  1  0.62445617  0.49576228  0.09497066  1.0
  Ni  Ni347  1  0.62445617  0.82909561  0.09497066  1.0
  Ni  Ni348  1  0.95778950  0.16242895  0.09497066  1.0
  Ni  Ni349  1  0.95778950  0.49576228  0.09497066  1.0
  Ni  Ni350  1  0.95778950  0.82909561  0.09497066  1.0
  Ni  Ni351  1  0.12445617  0.01659561  0.03247066  1.0
  Ni  Ni352  1  0.12445617  0.34992895  0.03247066  1.0
  Ni  Ni353  1  0.12445617  0.68326228  0.03247066  1.0
  Ni  Ni354  1  0.45778950  0.01659561  0.03247066  1.0
  Ni  Ni355  1  0.45778950  0.34992895  0.03247066  1.0
  Ni  Ni356  1  0.45778950  0.68326228  0.03247066  1.0
  Ni  Ni357  1  0.79112283  0.01659561  0.03247066  1.0
  Ni  Ni358  1  0.79112283  0.34992895  0.03247066  1.0
  Ni  Ni359  1  0.79112283  0.68326228  0.03247066  1.0
  Ni  Ni360  1  0.28881117  0.20695782  0.18548303  1.0
  Ni  Ni361  1  0.28881117  0.54029116  0.18548303  1.0
  Ni  Ni362  1  0.28881117  0.87362449  0.18548303  1.0
  Ni  Ni363  1  0.62214450  0.20695782  0.18548303  1.0
  Ni  Ni364  1  0.62214450  0.54029116  0.18548303  1.0
  Ni  Ni365  1  0.62214450  0.87362449  0.18548303  1.0
  Ni  Ni366  1  0.95547783  0.20695782  0.18548303  1.0
  Ni  Ni367  1  0.95547783  0.54029116  0.18548303  1.0
  Ni  Ni368  1  0.95547783  0.87362449  0.18548303  1.0
  Ni  Ni369  1  0.12214450  0.01945782  0.24798303  1.0
  Ni  Ni370  1  0.12214450  0.35279116  0.24798303  1.0
  Ni  Ni371  1  0.12214450  0.68612449  0.24798303  1.0
  Ni  Ni372  1  0.45547783  0.01945782  0.24798303  1.0
  Ni  Ni373  1  0.45547783  0.35279116  0.24798303  1.0
  Ni  Ni374  1  0.45547783  0.68612449  0.24798303  1.0
  Ni  Ni375  1  0.78881117  0.01945782  0.24798303  1.0
  Ni  Ni376  1  0.78881117  0.35279116  0.24798303  1.0
  Ni  Ni377  1  0.78881117  0.68612449  0.24798303  1.0
  Ni  Ni378  1  0.04452217  0.00741653  0.17139391  1.0
  Ni  Ni379  1  0.04452217  0.34074986  0.17139391  1.0
  Ni  Ni380  1  0.04452217  0.67408320  0.17139391  1.0
  Ni  Ni381  1  0.37785550  0.00741653  0.17139391  1.0
  Ni  Ni382  1  0.37785550  0.34074986  0.17139391  1.0
  Ni  Ni383  1  0.37785550  0.67408320  0.17139391  1.0
  Ni  Ni384  1  0.71118883  0.00741653  0.17139391  1.0
  Ni  Ni385  1  0.71118883  0.34074986  0.17139391  1.0
  Ni  Ni386  1  0.71118883  0.67408320  0.17139391  1.0
  Ni  Ni387  1  0.21118883  0.15324986  0.23389391  1.0
  Ni  Ni388  1  0.21118883  0.48658320  0.23389391  1.0
  Ni  Ni389  1  0.21118883  0.81991653  0.23389391  1.0
  Ni  Ni390  1  0.54452217  0.15324986  0.23389391  1.0
  Ni  Ni391  1  0.54452217  0.48658320  0.23389391  1.0
  Ni  Ni392  1  0.54452217  0.81991653  0.23389391  1.0
  Ni  Ni393  1  0.87785550  0.15324986  0.23389391  1.0
  Ni  Ni394  1  0.87785550  0.48658320  0.23389391  1.0
  Ni  Ni395  1  0.87785550  0.81991653  0.23389391  1.0
  Ni  Ni396  1  0.26878550  0.07864695  0.13049266  1.0
  Ni  Ni397  1  0.26878550  0.41198028  0.13049266  1.0
  Ni  Ni398  1  0.26878550  0.74531361  0.13049266  1.0
  Ni  Ni399  1  0.60211883  0.07864695  0.13049266  1.0
  Ni  Ni400  1  0.60211883  0.41198028  0.13049266  1.0
  Ni  Ni401  1  0.60211883  0.74531361  0.13049266  1.0
  Ni  Ni402  1  0.93545217  0.07864695  0.13049266  1.0
  Ni  Ni403  1  0.93545217  0.41198028  0.13049266  1.0
  Ni  Ni404  1  0.93545217  0.74531361  0.13049266  1.0
  Ni  Ni405  1  0.10211883  0.22448028  0.19299266  1.0
  Ni  Ni406  1  0.10211883  0.55781361  0.19299266  1.0
  Ni  Ni407  1  0.10211883  0.89114695  0.19299266  1.0
  Ni  Ni408  1  0.43545217  0.22448028  0.19299266  1.0
  Ni  Ni409  1  0.43545217  0.55781361  0.19299266  1.0
  Ni  Ni410  1  0.43545217  0.89114695  0.19299266  1.0
  Ni  Ni411  1  0.76878550  0.22448028  0.19299266  1.0
  Ni  Ni412  1  0.76878550  0.55781361  0.19299266  1.0
  Ni  Ni413  1  0.76878550  0.89114695  0.19299266  1.0
  Ni  Ni414  1  0.06454783  0.13572741  0.22638428  1.0
  Ni  Ni415  1  0.06454783  0.46906074  0.22638428  1.0
  Ni  Ni416  1  0.06454783  0.80239407  0.22638428  1.0
  Ni  Ni417  1  0.39788117  0.13572741  0.22638428  1.0
  Ni  Ni418  1  0.39788117  0.46906074  0.22638428  1.0
  Ni  Ni419  1  0.39788117  0.80239407  0.22638428  1.0
  Ni  Ni420  1  0.73121450  0.13572741  0.22638428  1.0
  Ni  Ni421  1  0.73121450  0.46906074  0.22638428  1.0
  Ni  Ni422  1  0.73121450  0.80239407  0.22638428  1.0
  Ni  Ni423  1  0.23121450  0.32322741  0.16388428  1.0
  Ni  Ni424  1  0.23121450  0.65656074  0.16388428  1.0
  Ni  Ni425  1  0.23121450  0.98989407  0.16388428  1.0
  Ni  Ni426  1  0.56454783  0.32322741  0.16388428  1.0
  Ni  Ni427  1  0.56454783  0.65656074  0.16388428  1.0
  Ni  Ni428  1  0.56454783  0.98989407  0.16388428  1.0
  Ni  Ni429  1  0.89788117  0.32322741  0.16388428  1.0
  Ni  Ni430  1  0.89788117  0.65656074  0.16388428  1.0
  Ni  Ni431  1  0.89788117  0.98989407  0.16388428  1.0
  Ni  Ni432  1  0.30591417  0.30037136  0.22551741  1.0
  Ni  Ni433  1  0.30591417  0.63370470  0.22551741  1.0
  Ni  Ni434  1  0.30591417  0.96703803  0.22551741  1.0
  Ni  Ni435  1  0.63924750  0.30037136  0.22551741  1.0
  Ni  Ni436  1  0.63924750  0.63370470  0.22551741  1.0
  Ni  Ni437  1  0.63924750  0.96703803  0.22551741  1.0
  Ni  Ni438  1  0.97258083  0.30037136  0.22551741  1.0
  Ni  Ni439  1  0.97258083  0.63370470  0.22551741  1.0
  Ni  Ni440  1  0.97258083  0.96703803  0.22551741  1.0
  Ni  Ni441  1  0.13924750  0.15453803  0.16301741  1.0
  Ni  Ni442  1  0.13924750  0.48787136  0.16301741  1.0
  Ni  Ni443  1  0.13924750  0.82120470  0.16301741  1.0
  Ni  Ni444  1  0.47258083  0.15453803  0.16301741  1.0
  Ni  Ni445  1  0.47258083  0.48787136  0.16301741  1.0
  Ni  Ni446  1  0.47258083  0.82120470  0.16301741  1.0
  Ni  Ni447  1  0.80591417  0.15453803  0.16301741  1.0
  Ni  Ni448  1  0.80591417  0.48787136  0.16301741  1.0
  Ni  Ni449  1  0.80591417  0.82120470  0.16301741  1.0
  Ni  Ni450  1  0.02741917  0.24733632  0.13135953  1.0
  Ni  Ni451  1  0.02741917  0.58066966  0.13135953  1.0
  Ni  Ni452  1  0.02741917  0.91400299  0.13135953  1.0
  Ni  Ni453  1  0.36075250  0.24733632  0.13135953  1.0
  Ni  Ni454  1  0.36075250  0.58066966  0.13135953  1.0
  Ni  Ni455  1  0.36075250  0.91400299  0.13135953  1.0
  Ni  Ni456  1  0.69408583  0.24733632  0.13135953  1.0
  Ni  Ni457  1  0.69408583  0.58066966  0.13135953  1.0
  Ni  Ni458  1  0.69408583  0.91400299  0.13135953  1.0
  Ni  Ni459  1  0.19408583  0.05983632  0.19385953  1.0
  Ni  Ni460  1  0.19408583  0.39316966  0.19385953  1.0
  Ni  Ni461  1  0.19408583  0.72650299  0.19385953  1.0
  Ni  Ni462  1  0.52741917  0.05983632  0.19385953  1.0
  Ni  Ni463  1  0.52741917  0.39316966  0.19385953  1.0
  Ni  Ni464  1  0.52741917  0.72650299  0.19385953  1.0
  Ni  Ni465  1  0.86075250  0.05983632  0.19385953  1.0
  Ni  Ni466  1  0.86075250  0.39316966  0.19385953  1.0
  Ni  Ni467  1  0.86075250  0.72650299  0.19385953  1.0
  Ni  Ni468  1  0.04221050  0.09361207  0.13690628  1.0
  Ni  Ni469  1  0.04221050  0.42694541  0.13690628  1.0
  Ni  Ni470  1  0.04221050  0.76027874  0.13690628  1.0
  Ni  Ni471  1  0.37554383  0.09361207  0.13690628  1.0
  Ni  Ni472  1  0.37554383  0.42694541  0.13690628  1.0
  Ni  Ni473  1  0.37554383  0.76027874  0.13690628  1.0
  Ni  Ni474  1  0.70887717  0.09361207  0.13690628  1.0
  Ni  Ni475  1  0.70887717  0.42694541  0.13690628  1.0
  Ni  Ni476  1  0.70887717  0.76027874  0.13690628  1.0
  Ni  Ni477  1  0.20887717  0.23944541  0.19940628  1.0
  Ni  Ni478  1  0.20887717  0.57277874  0.19940628  1.0
  Ni  Ni479  1  0.20887717  0.90611207  0.19940628  1.0
  Ni  Ni480  1  0.54221050  0.23944541  0.19940628  1.0
  Ni  Ni481  1  0.54221050  0.57277874  0.19940628  1.0
  Ni  Ni482  1  0.54221050  0.90611207  0.19940628  1.0
  Ni  Ni483  1  0.87554383  0.23944541  0.19940628  1.0
  Ni  Ni484  1  0.87554383  0.57277874  0.19940628  1.0
  Ni  Ni485  1  0.87554383  0.90611207  0.19940628  1.0
  Ni  Ni486  1  0.29112283  0.12076228  0.21997066  1.0
  Ni  Ni487  1  0.29112283  0.45409561  0.21997066  1.0
  Ni  Ni488  1  0.29112283  0.78742895  0.21997066  1.0
  Ni  Ni489  1  0.62445617  0.12076228  0.21997066  1.0
  Ni  Ni490  1  0.62445617  0.45409561  0.21997066  1.0
  Ni  Ni491  1  0.62445617  0.78742895  0.21997066  1.0
  Ni  Ni492  1  0.95778950  0.12076228  0.21997066  1.0
  Ni  Ni493  1  0.95778950  0.45409561  0.21997066  1.0
  Ni  Ni494  1  0.95778950  0.78742895  0.21997066  1.0
  Ni  Ni495  1  0.12445617  0.30826228  0.15747066  1.0
  Ni  Ni496  1  0.12445617  0.64159561  0.15747066  1.0
  Ni  Ni497  1  0.12445617  0.97492895  0.15747066  1.0
  Ni  Ni498  1  0.45778950  0.30826228  0.15747066  1.0
  Ni  Ni499  1  0.45778950  0.64159561  0.15747066  1.0
  Ni  Ni500  1  0.45778950  0.97492895  0.15747066  1.0
  Ni  Ni501  1  0.79112283  0.30826228  0.15747066  1.0
  Ni  Ni502  1  0.79112283  0.64159561  0.15747066  1.0
  Ni  Ni503  1  0.79112283  0.97492895  0.15747066  1.0
  Ni  Ni504  1  0.28881117  0.16529116  0.31048303  1.0
  Ni  Ni505  1  0.28881117  0.49862449  0.31048303  1.0
  Ni  Ni506  1  0.28881117  0.83195782  0.31048303  1.0
  Ni  Ni507  1  0.62214450  0.16529116  0.31048303  1.0
  Ni  Ni508  1  0.62214450  0.49862449  0.31048303  1.0
  Ni  Ni509  1  0.62214450  0.83195782  0.31048303  1.0
  Ni  Ni510  1  0.95547783  0.16529116  0.31048303  1.0
  Ni  Ni511  1  0.95547783  0.49862449  0.31048303  1.0
  Ni  Ni512  1  0.95547783  0.83195782  0.31048303  1.0
  Ni  Ni513  1  0.12214450  0.31112449  0.37298303  1.0
  Ni  Ni514  1  0.12214450  0.64445782  0.37298303  1.0
  Ni  Ni515  1  0.12214450  0.97779116  0.37298303  1.0
  Ni  Ni516  1  0.45547783  0.31112449  0.37298303  1.0
  Ni  Ni517  1  0.45547783  0.64445782  0.37298303  1.0
  Ni  Ni518  1  0.45547783  0.97779116  0.37298303  1.0
  Ni  Ni519  1  0.78881117  0.31112449  0.37298303  1.0
  Ni  Ni520  1  0.78881117  0.64445782  0.37298303  1.0
  Ni  Ni521  1  0.78881117  0.97779116  0.37298303  1.0
  Ni  Ni522  1  0.04452217  0.29908320  0.29639391  1.0
  Ni  Ni523  1  0.04452217  0.63241653  0.29639391  1.0
  Ni  Ni524  1  0.04452217  0.96574986  0.29639391  1.0
  Ni  Ni525  1  0.37785550  0.29908320  0.29639391  1.0
  Ni  Ni526  1  0.37785550  0.63241653  0.29639391  1.0
  Ni  Ni527  1  0.37785550  0.96574986  0.29639391  1.0
  Ni  Ni528  1  0.71118883  0.29908320  0.29639391  1.0
  Ni  Ni529  1  0.71118883  0.63241653  0.29639391  1.0
  Ni  Ni530  1  0.71118883  0.96574986  0.29639391  1.0
  Ni  Ni531  1  0.21118883  0.11158320  0.35889391  1.0
  Ni  Ni532  1  0.21118883  0.44491653  0.35889391  1.0
  Ni  Ni533  1  0.21118883  0.77824986  0.35889391  1.0
  Ni  Ni534  1  0.54452217  0.11158320  0.35889391  1.0
  Ni  Ni535  1  0.54452217  0.44491653  0.35889391  1.0
  Ni  Ni536  1  0.54452217  0.77824986  0.35889391  1.0
  Ni  Ni537  1  0.87785550  0.11158320  0.35889391  1.0
  Ni  Ni538  1  0.87785550  0.44491653  0.35889391  1.0
  Ni  Ni539  1  0.87785550  0.77824986  0.35889391  1.0
  Ni  Ni540  1  0.26878550  0.03698028  0.25549266  1.0
  Ni  Ni541  1  0.26878550  0.37031361  0.25549266  1.0
  Ni  Ni542  1  0.26878550  0.70364695  0.25549266  1.0
  Ni  Ni543  1  0.60211883  0.03698028  0.25549266  1.0
  Ni  Ni544  1  0.60211883  0.37031361  0.25549266  1.0
  Ni  Ni545  1  0.60211883  0.70364695  0.25549266  1.0
  Ni  Ni546  1  0.93545217  0.03698028  0.25549266  1.0
  Ni  Ni547  1  0.93545217  0.37031361  0.25549266  1.0
  Ni  Ni548  1  0.93545217  0.70364695  0.25549266  1.0
  Ni  Ni549  1  0.10211883  0.18281361  0.31799266  1.0
  Ni  Ni550  1  0.10211883  0.51614695  0.31799266  1.0
  Ni  Ni551  1  0.10211883  0.84948028  0.31799266  1.0
  Ni  Ni552  1  0.43545217  0.18281361  0.31799266  1.0
  Ni  Ni553  1  0.43545217  0.51614695  0.31799266  1.0
  Ni  Ni554  1  0.43545217  0.84948028  0.31799266  1.0
  Ni  Ni555  1  0.76878550  0.18281361  0.31799266  1.0
  Ni  Ni556  1  0.76878550  0.51614695  0.31799266  1.0
  Ni  Ni557  1  0.76878550  0.84948028  0.31799266  1.0
  Ni  Ni558  1  0.06454783  0.09406074  0.35138428  1.0
  Ni  Ni559  1  0.06454783  0.42739407  0.35138428  1.0
  Ni  Ni560  1  0.06454783  0.76072741  0.35138428  1.0
  Ni  Ni561  1  0.39788117  0.09406074  0.35138428  1.0
  Ni  Ni562  1  0.39788117  0.42739407  0.35138428  1.0
  Ni  Ni563  1  0.39788117  0.76072741  0.35138428  1.0
  Ni  Ni564  1  0.73121450  0.09406074  0.35138428  1.0
  Ni  Ni565  1  0.73121450  0.42739407  0.35138428  1.0
  Ni  Ni566  1  0.73121450  0.76072741  0.35138428  1.0
  Ni  Ni567  1  0.23121450  0.28156074  0.28888428  1.0
  Ni  Ni568  1  0.23121450  0.61489407  0.28888428  1.0
  Ni  Ni569  1  0.23121450  0.94822741  0.28888428  1.0
  Ni  Ni570  1  0.56454783  0.28156074  0.28888428  1.0
  Ni  Ni571  1  0.56454783  0.61489407  0.28888428  1.0
  Ni  Ni572  1  0.56454783  0.94822741  0.28888428  1.0
  Ni  Ni573  1  0.89788117  0.28156074  0.28888428  1.0
  Ni  Ni574  1  0.89788117  0.61489407  0.28888428  1.0
  Ni  Ni575  1  0.89788117  0.94822741  0.28888428  1.0
  Ni  Ni576  1  0.30591417  0.25870470  0.35051741  1.0
  Ni  Ni577  1  0.30591417  0.59203803  0.35051741  1.0
  Ni  Ni578  1  0.30591417  0.92537136  0.35051741  1.0
  Ni  Ni579  1  0.63924750  0.25870470  0.35051741  1.0
  Ni  Ni580  1  0.63924750  0.59203803  0.35051741  1.0
  Ni  Ni581  1  0.63924750  0.92537136  0.35051741  1.0
  Ni  Ni582  1  0.97258083  0.25870470  0.35051741  1.0
  Ni  Ni583  1  0.97258083  0.59203803  0.35051741  1.0
  Ni  Ni584  1  0.97258083  0.92537136  0.35051741  1.0
  Ni  Ni585  1  0.13924750  0.11287136  0.28801741  1.0
  Ni  Ni586  1  0.13924750  0.44620470  0.28801741  1.0
  Ni  Ni587  1  0.13924750  0.77953803  0.28801741  1.0
  Ni  Ni588  1  0.47258083  0.11287136  0.28801741  1.0
  Ni  Ni589  1  0.47258083  0.44620470  0.28801741  1.0
  Ni  Ni590  1  0.47258083  0.77953803  0.28801741  1.0
  Ni  Ni591  1  0.80591417  0.11287136  0.28801741  1.0
  Ni  Ni592  1  0.80591417  0.44620470  0.28801741  1.0
  Ni  Ni593  1  0.80591417  0.77953803  0.28801741  1.0
  Ni  Ni594  1  0.02741917  0.20566966  0.25635953  1.0
  Ni  Ni595  1  0.02741917  0.53900299  0.25635953  1.0
  Ni  Ni596  1  0.02741917  0.87233632  0.25635953  1.0
  Ni  Ni597  1  0.36075250  0.20566966  0.25635953  1.0
  Ni  Ni598  1  0.36075250  0.53900299  0.25635953  1.0
  Ni  Ni599  1  0.36075250  0.87233632  0.25635953  1.0
  Ni  Ni600  1  0.69408583  0.20566966  0.25635953  1.0
  Ni  Ni601  1  0.69408583  0.53900299  0.25635953  1.0
  Ni  Ni602  1  0.69408583  0.87233632  0.25635953  1.0
  Ni  Ni603  1  0.19408583  0.01816966  0.31885953  1.0
  Ni  Ni604  1  0.19408583  0.35150299  0.31885953  1.0
  Ni  Ni605  1  0.19408583  0.68483632  0.31885953  1.0
  Ni  Ni606  1  0.52741917  0.01816966  0.31885953  1.0
  Ni  Ni607  1  0.52741917  0.35150299  0.31885953  1.0
  Ni  Ni608  1  0.52741917  0.68483632  0.31885953  1.0
  Ni  Ni609  1  0.86075250  0.01816966  0.31885953  1.0
  Ni  Ni610  1  0.86075250  0.35150299  0.31885953  1.0
  Ni  Ni611  1  0.86075250  0.68483632  0.31885953  1.0
  Ni  Ni612  1  0.04221050  0.05194541  0.26190628  1.0
  Ni  Ni613  1  0.04221050  0.38527874  0.26190628  1.0
  Ni  Ni614  1  0.04221050  0.71861207  0.26190628  1.0
  Ni  Ni615  1  0.37554383  0.05194541  0.26190628  1.0
  Ni  Ni616  1  0.37554383  0.38527874  0.26190628  1.0
  Ni  Ni617  1  0.37554383  0.71861207  0.26190628  1.0
  Ni  Ni618  1  0.70887717  0.05194541  0.26190628  1.0
  Ni  Ni619  1  0.70887717  0.38527874  0.26190628  1.0
  Ni  Ni620  1  0.70887717  0.71861207  0.26190628  1.0
  Ni  Ni621  1  0.20887717  0.19777874  0.32440628  1.0
  Ni  Ni622  1  0.20887717  0.53111207  0.32440628  1.0
  Ni  Ni623  1  0.20887717  0.86444541  0.32440628  1.0
  Ni  Ni624  1  0.54221050  0.19777874  0.32440628  1.0
  Ni  Ni625  1  0.54221050  0.53111207  0.32440628  1.0
  Ni  Ni626  1  0.54221050  0.86444541  0.32440628  1.0
  Ni  Ni627  1  0.87554383  0.19777874  0.32440628  1.0
  Ni  Ni628  1  0.87554383  0.53111207  0.32440628  1.0
  Ni  Ni629  1  0.87554383  0.86444541  0.32440628  1.0
  Ni  Ni630  1  0.29112283  0.07909561  0.34497066  1.0
  Ni  Ni631  1  0.29112283  0.41242895  0.34497066  1.0
  Ni  Ni632  1  0.29112283  0.74576228  0.34497066  1.0
  Ni  Ni633  1  0.62445617  0.07909561  0.34497066  1.0
  Ni  Ni634  1  0.62445617  0.41242895  0.34497066  1.0
  Ni  Ni635  1  0.62445617  0.74576228  0.34497066  1.0
  Ni  Ni636  1  0.95778950  0.07909561  0.34497066  1.0
  Ni  Ni637  1  0.95778950  0.41242895  0.34497066  1.0
  Ni  Ni638  1  0.95778950  0.74576228  0.34497066  1.0
  Ni  Ni639  1  0.12445617  0.26659561  0.28247066  1.0
  Ni  Ni640  1  0.12445617  0.59992895  0.28247066  1.0
  Ni  Ni641  1  0.12445617  0.93326228  0.28247066  1.0
  Ni  Ni642  1  0.45778950  0.26659561  0.28247066  1.0
  Ni  Ni643  1  0.45778950  0.59992895  0.28247066  1.0
  Ni  Ni644  1  0.45778950  0.93326228  0.28247066  1.0
  Ni  Ni645  1  0.79112283  0.26659561  0.28247066  1.0
  Ni  Ni646  1  0.79112283  0.59992895  0.28247066  1.0
  Ni  Ni647  1  0.79112283  0.93326228  0.28247066  1.0
