# generated using pymatgen
data_Ni2Ge
_symmetry_space_group_name_H-M   'P 1'
_cell_length_a   12.02646135
_cell_length_b   28.49581973
_cell_length_c   35.65258900
_cell_angle_alpha   57.57414097
_cell_angle_beta   90.00000000
_cell_angle_gamma   65.03636180
_symmetry_Int_Tables_number   1
_chemical_formula_structural   Ni2Ge
_chemical_formula_sum   'Ni216 Ge108'
_cell_volume   8931.56205253
_cell_formula_units_Z   108
loop_
 _symmetry_equiv_pos_site_id
 _symmetry_equiv_pos_as_xyz
  1  'x, y, z'
loop_
 _atom_site_type_symbol
 _atom_site_label
 _atom_site_symmetry_multiplicity
 _atom_site_fract_x
 _atom_site_fract_y
 _atom_site_fract_z
 _atom_site_occupancy
  Ni  Ni0  1  0.00000000  0.16666667  0.06547619  1.0
  Ni  Ni1  1  0.00000000  0.50000000  0.06547619  1.0
  Ni  Ni2  1  0.00000000  0.83333333  0.06547619  1.0
  Ni  Ni3  1  0.33333333  0.16666667  0.06547619  1.0
  Ni  Ni4  1  0.33333333  0.50000000  0.06547619  1.0
  Ni  Ni5  1  0.33333333  0.83333333  0.06547619  1.0
  Ni  Ni6  1  0.66666667  0.16666667  0.06547619  1.0
  Ni  Ni7  1  0.66666667  0.50000000  0.06547619  1.0
  Ni  Ni8  1  0.66666667  0.83333333  0.06547619  1.0
  Ni  Ni9  1  0.00000000  0.00000000  0.13690476  1.0
  Ni  Ni10  1  0.00000000  0.33333333  0.13690476  1.0
  Ni  Ni11  1  0.00000000  0.66666667  0.13690476  1.0
  Ni  Ni12  1  0.33333333  0.00000000  0.13690476  1.0
  Ni  Ni13  1  0.33333333  0.33333333  0.13690476  1.0
  Ni  Ni14  1  0.33333333  0.66666667  0.13690476  1.0
  Ni  Ni15  1  0.66666667  0.00000000  0.13690476  1.0
  Ni  Ni16  1  0.66666667  0.33333333  0.13690476  1.0
  Ni  Ni17  1  0.66666667  0.66666667  0.13690476  1.0
  Ni  Ni18  1  0.00000000  0.16666667  0.13690476  1.0
  Ni  Ni19  1  0.00000000  0.50000000  0.13690476  1.0
  Ni  Ni20  1  0.00000000  0.83333333  0.13690476  1.0
  Ni  Ni21  1  0.33333333  0.16666667  0.13690476  1.0
  Ni  Ni22  1  0.33333333  0.50000000  0.13690476  1.0
  Ni  Ni23  1  0.33333333  0.83333333  0.13690476  1.0
  Ni  Ni24  1  0.66666667  0.16666667  0.13690476  1.0
  Ni  Ni25  1  0.66666667  0.50000000  0.13690476  1.0
  Ni  Ni26  1  0.66666667  0.83333333  0.13690476  1.0
  Ni  Ni27  1  0.00000000  0.00000000  0.06547619  1.0
  Ni  Ni28  1  0.00000000  0.33333333  0.06547619  1.0
  Ni  Ni29  1  0.00000000  0.66666667  0.06547619  1.0
  Ni  Ni30  1  0.33333333  0.00000000  0.06547619  1.0
  Ni  Ni31  1  0.33333333  0.33333333  0.06547619  1.0
  Ni  Ni32  1  0.33333333  0.66666667  0.06547619  1.0
  Ni  Ni33  1  0.66666667  0.00000000  0.06547619  1.0
  Ni  Ni34  1  0.66666667  0.33333333  0.06547619  1.0
  Ni  Ni35  1  0.66666667  0.66666667  0.06547619  1.0
  Ni  Ni36  1  0.11111111  0.05555556  0.07738095  1.0
  Ni  Ni37  1  0.11111111  0.38888889  0.07738095  1.0
  Ni  Ni38  1  0.11111111  0.72222222  0.07738095  1.0
  Ni  Ni39  1  0.44444444  0.05555556  0.07738095  1.0
  Ni  Ni40  1  0.44444444  0.38888889  0.07738095  1.0
  Ni  Ni41  1  0.44444444  0.72222222  0.07738095  1.0
  Ni  Ni42  1  0.77777778  0.05555556  0.07738095  1.0
  Ni  Ni43  1  0.77777778  0.38888889  0.07738095  1.0
  Ni  Ni44  1  0.77777778  0.72222222  0.07738095  1.0
  Ni  Ni45  1  0.11111111  0.22222222  0.00595238  1.0
  Ni  Ni46  1  0.11111111  0.55555556  0.00595238  1.0
  Ni  Ni47  1  0.11111111  0.88888889  0.00595238  1.0
  Ni  Ni48  1  0.44444444  0.22222222  0.00595238  1.0
  Ni  Ni49  1  0.44444444  0.55555556  0.00595238  1.0
  Ni  Ni50  1  0.44444444  0.88888889  0.00595238  1.0
  Ni  Ni51  1  0.77777778  0.22222222  0.00595238  1.0
  Ni  Ni52  1  0.77777778  0.55555556  0.00595238  1.0
  Ni  Ni53  1  0.77777778  0.88888889  0.00595238  1.0
  Ni  Ni54  1  0.22222222  0.11111111  0.12500000  1.0
  Ni  Ni55  1  0.22222222  0.44444444  0.12500000  1.0
  Ni  Ni56  1  0.22222222  0.77777778  0.12500000  1.0
  Ni  Ni57  1  0.55555556  0.11111111  0.12500000  1.0
  Ni  Ni58  1  0.55555556  0.44444444  0.12500000  1.0
  Ni  Ni59  1  0.55555556  0.77777778  0.12500000  1.0
  Ni  Ni60  1  0.88888889  0.11111111  0.12500000  1.0
  Ni  Ni61  1  0.88888889  0.44444444  0.12500000  1.0
  Ni  Ni62  1  0.88888889  0.77777778  0.12500000  1.0
  Ni  Ni63  1  0.22222222  0.27777778  0.05357143  1.0
  Ni  Ni64  1  0.22222222  0.61111111  0.05357143  1.0
  Ni  Ni65  1  0.22222222  0.94444444  0.05357143  1.0
  Ni  Ni66  1  0.55555556  0.27777778  0.05357143  1.0
  Ni  Ni67  1  0.55555556  0.61111111  0.05357143  1.0
  Ni  Ni68  1  0.55555556  0.94444444  0.05357143  1.0
  Ni  Ni69  1  0.88888889  0.27777778  0.05357143  1.0
  Ni  Ni70  1  0.88888889  0.61111111  0.05357143  1.0
  Ni  Ni71  1  0.88888889  0.94444444  0.05357143  1.0
  Ge  Ge72  1  0.11111111  0.05555556  0.00595238  1.0
  Ge  Ge73  1  0.11111111  0.38888889  0.00595238  1.0
  Ge  Ge74  1  0.11111111  0.72222222  0.00595238  1.0
  Ge  Ge75  1  0.44444444  0.05555556  0.00595238  1.0
  Ge  Ge76  1  0.44444444  0.38888889  0.00595238  1.0
  Ge  Ge77  1  0.44444444  0.72222222  0.00595238  1.0
  Ge  Ge78  1  0.77777778  0.05555556  0.00595238  1.0
  Ge  Ge79  1  0.77777778  0.38888889  0.00595238  1.0
  Ge  Ge80  1  0.77777778  0.72222222  0.00595238  1.0
  Ge  Ge81  1  0.11111111  0.22222222  0.07738095  1.0
  Ge  Ge82  1  0.11111111  0.55555556  0.07738095  1.0
  Ge  Ge83  1  0.11111111  0.88888889  0.07738095  1.0
  Ge  Ge84  1  0.44444444  0.22222222  0.07738095  1.0
  Ge  Ge85  1  0.44444444  0.55555556  0.07738095  1.0
  Ge  Ge86  1  0.44444444  0.88888889  0.07738095  1.0
  Ge  Ge87  1  0.77777778  0.22222222  0.07738095  1.0
  Ge  Ge88  1  0.77777778  0.55555556  0.07738095  1.0
  Ge  Ge89  1  0.77777778  0.88888889  0.07738095  1.0
  Ge  Ge90  1  0.22222222  0.11111111  0.05357143  1.0
  Ge  Ge91  1  0.22222222  0.44444444  0.05357143  1.0
  Ge  Ge92  1  0.22222222  0.77777778  0.05357143  1.0
  Ge  Ge93  1  0.55555556  0.11111111  0.05357143  1.0
  Ge  Ge94  1  0.55555556  0.44444444  0.05357143  1.0
  Ge  Ge95  1  0.55555556  0.77777778  0.05357143  1.0
  Ge  Ge96  1  0.88888889  0.11111111  0.05357143  1.0
  Ge  Ge97  1  0.88888889  0.44444444  0.05357143  1.0
  Ge  Ge98  1  0.88888889  0.77777778  0.05357143  1.0
  Ge  Ge99  1  0.22222222  0.27777778  0.12500000  1.0
  Ge  Ge100  1  0.22222222  0.61111111  0.12500000  1.0
  Ge  Ge101  1  0.22222222  0.94444444  0.12500000  1.0
  Ge  Ge102  1  0.55555556  0.27777778  0.12500000  1.0
  Ge  Ge103  1  0.55555556  0.61111111  0.12500000  1.0
  Ge  Ge104  1  0.55555556  0.94444444  0.12500000  1.0
  Ge  Ge105  1  0.88888889  0.27777778  0.12500000  1.0
  Ge  Ge106  1  0.88888889  0.61111111  0.12500000  1.0
  Ge  Ge107  1  0.88888889  0.94444444  0.12500000  1.0
  Ni  Ni108  1  0.00000000  0.16666667  0.20833333  1.0
  Ni  Ni109  1  0.00000000  0.50000000  0.20833333  1.0
  Ni  Ni110  1  0.00000000  0.83333333  0.20833333  1.0
  Ni  Ni111  1  0.33333333  0.16666667  0.20833333  1.0
  Ni  Ni112  1  0.33333333  0.50000000  0.20833333  1.0
  Ni  Ni113  1  0.33333333  0.83333333  0.20833333  1.0
  Ni  Ni114  1  0.66666667  0.16666667  0.20833333  1.0
  Ni  Ni115  1  0.66666667  0.50000000  0.20833333  1.0
  Ni  Ni116  1  0.66666667  0.83333333  0.20833333  1.0
  Ni  Ni117  1  0.00000000  0.00000000  0.27976190  1.0
  Ni  Ni118  1  0.00000000  0.33333333  0.27976190  1.0
  Ni  Ni119  1  0.00000000  0.66666667  0.27976190  1.0
  Ni  Ni120  1  0.33333333  0.00000000  0.27976190  1.0
  Ni  Ni121  1  0.33333333  0.33333333  0.27976190  1.0
  Ni  Ni122  1  0.33333333  0.66666667  0.27976190  1.0
  Ni  Ni123  1  0.66666667  0.00000000  0.27976190  1.0
  Ni  Ni124  1  0.66666667  0.33333333  0.27976190  1.0
  Ni  Ni125  1  0.66666667  0.66666667  0.27976190  1.0
  Ni  Ni126  1  0.00000000  0.16666667  0.27976190  1.0
  Ni  Ni127  1  0.00000000  0.50000000  0.27976190  1.0
  Ni  Ni128  1  0.00000000  0.83333333  0.27976190  1.0
  Ni  Ni129  1  0.33333333  0.16666667  0.27976190  1.0
  Ni  Ni130  1  0.33333333  0.50000000  0.27976190  1.0
  Ni  Ni131  1  0.33333333  0.83333333  0.27976190  1.0
  Ni  Ni132  1  0.66666667  0.16666667  0.27976190  1.0
  Ni  Ni133  1  0.66666667  0.50000000  0.27976190  1.0
  Ni  Ni134  1  0.66666667  0.83333333  0.27976190  1.0
  Ni  Ni135  1  0.00000000  0.00000000  0.20833333  1.0
  Ni  Ni136  1  0.00000000  0.33333333  0.20833333  1.0
  Ni  Ni137  1  0.00000000  0.66666667  0.20833333  1.0
  Ni  Ni138  1  0.33333333  0.00000000  0.20833333  1.0
  Ni  Ni139  1  0.33333333  0.33333333  0.20833333  1.0
  Ni  Ni140  1  0.33333333  0.66666667  0.20833333  1.0
  Ni  Ni141  1  0.66666667  0.00000000  0.20833333  1.0
  Ni  Ni142  1  0.66666667  0.33333333  0.20833333  1.0
  Ni  Ni143  1  0.66666667  0.66666667  0.20833333  1.0
  Ni  Ni144  1  0.11111111  0.05555556  0.22023810  1.0
  Ni  Ni145  1  0.11111111  0.38888889  0.22023810  1.0
  Ni  Ni146  1  0.11111111  0.72222222  0.22023810  1.0
  Ni  Ni147  1  0.44444444  0.05555556  0.22023810  1.0
  Ni  Ni148  1  0.44444444  0.38888889  0.22023810  1.0
  Ni  Ni149  1  0.44444444  0.72222222  0.22023810  1.0
  Ni  Ni150  1  0.77777778  0.05555556  0.22023810  1.0
  Ni  Ni151  1  0.77777778  0.38888889  0.22023810  1.0
  Ni  Ni152  1  0.77777778  0.72222222  0.22023810  1.0
  Ni  Ni153  1  0.11111111  0.22222222  0.14880952  1.0
  Ni  Ni154  1  0.11111111  0.55555556  0.14880952  1.0
  Ni  Ni155  1  0.11111111  0.88888889  0.14880952  1.0
  Ni  Ni156  1  0.44444444  0.22222222  0.14880952  1.0
  Ni  Ni157  1  0.44444444  0.55555556  0.14880952  1.0
  Ni  Ni158  1  0.44444444  0.88888889  0.14880952  1.0
  Ni  Ni159  1  0.77777778  0.22222222  0.14880952  1.0
  Ni  Ni160  1  0.77777778  0.55555556  0.14880952  1.0
  Ni  Ni161  1  0.77777778  0.88888889  0.14880952  1.0
  Ni  Ni162  1  0.22222222  0.11111111  0.26785714  1.0
  Ni  Ni163  1  0.22222222  0.44444444  0.26785714  1.0
  Ni  Ni164  1  0.22222222  0.77777778  0.26785714  1.0
  Ni  Ni165  1  0.55555556  0.11111111  0.26785714  1.0
  Ni  Ni166  1  0.55555556  0.44444444  0.26785714  1.0
  Ni  Ni167  1  0.55555556  0.77777778  0.26785714  1.0
  Ni  Ni168  1  0.88888889  0.11111111  0.26785714  1.0
  Ni  Ni169  1  0.88888889  0.44444444  0.26785714  1.0
  Ni  Ni170  1  0.88888889  0.77777778  0.26785714  1.0
  Ni  Ni171  1  0.22222222  0.27777778  0.19642857  1.0
  Ni  Ni172  1  0.22222222  0.61111111  0.19642857  1.0
  Ni  Ni173  1  0.22222222  0.94444444  0.19642857  1.0
  Ni  Ni174  1  0.55555556  0.27777778  0.19642857  1.0
  Ni  Ni175  1  0.55555556  0.61111111  0.19642857  1.0
  Ni  Ni176  1  0.55555556  0.94444444  0.19642857  1.0
  Ni  Ni177  1  0.88888889  0.27777778  0.19642857  1.0
  Ni  Ni178  1  0.88888889  0.61111111  0.19642857  1.0
  Ni  Ni179  1  0.88888889  0.94444444  0.19642857  1.0
  Ge  Ge180  1  0.11111111  0.05555556  0.14880952  1.0
  Ge  Ge181  1  0.11111111  0.38888889  0.14880952  1.0
  Ge  Ge182  1  0.11111111  0.72222222  0.14880952  1.0
  Ge  Ge183  1  0.44444444  0.05555556  0.14880952  1.0
  Ge  Ge184  1  0.44444444  0.38888889  0.14880952  1.0
  Ge  Ge185  1  0.44444444  0.72222222  0.14880952  1.0
  Ge  Ge186  1  0.77777778  0.05555556  0.14880952  1.0
  Ge  Ge187  1  0.77777778  0.38888889  0.14880952  1.0
  Ge  Ge188  1  0.77777778  0.72222222  0.14880952  1.0
  Ge  Ge189  1  0.11111111  0.22222222  0.22023810  1.0
  Ge  Ge190  1  0.11111111  0.55555556  0.22023810  1.0
  Ge  Ge191  1  0.11111111  0.88888889  0.22023810  1.0
  Ge  Ge192  1  0.44444444  0.22222222  0.22023810  1.0
  Ge  Ge193  1  0.44444444  0.55555556  0.22023810  1.0
  Ge  Ge194  1  0.44444444  0.88888889  0.22023810  1.0
  Ge  Ge195  1  0.77777778  0.22222222  0.22023810  1.0
  Ge  Ge196  1  0.77777778  0.55555556  0.22023810  1.0
  Ge  Ge197  1  0.77777778  0.88888889  0.22023810  1.0
  Ge  Ge198  1  0.22222222  0.11111111  0.19642857  1.0
  Ge  Ge199  1  0.22222222  0.44444444  0.19642857  1.0
  Ge  Ge200  1  0.22222222  0.77777778  0.19642857  1.0
  Ge  Ge201  1  0.55555556  0.11111111  0.19642857  1.0
  Ge  Ge202  1  0.55555556  0.44444444  0.19642857  1.0
  Ge  Ge203  1  0.55555556  0.77777778  0.19642857  1.0
  Ge  Ge204  1  0.88888889  0.11111111  0.19642857  1.0
  Ge  Ge205  1  0.88888889  0.44444444  0.19642857  1.0
  Ge  Ge206  1  0.88888889  0.77777778  0.19642857  1.0
  Ge  Ge207  1  0.22222222  0.27777778  0.26785714  1.0
  Ge  Ge208  1  0.22222222  0.61111111  0.26785714  1.0
  Ge  Ge209  1  0.22222222  0.94444444  0.26785714  1.0
  Ge  Ge210  1  0.55555556  0.27777778  0.26785714  1.0
  Ge  Ge211  1  0.55555556  0.61111111  0.26785714  1.0
  Ge  Ge212  1  0.55555556  0.94444444  0.26785714  1.0
  Ge  Ge213  1  0.88888889  0.27777778  0.26785714  1.0
  Ge  Ge214  1  0.88888889  0.61111111  0.26785714  1.0
  Ge  Ge215  1  0.88888889  0.94444444  0.26785714  1.0
  Ni  Ni216  1  0.00000000  0.16666667  0.35119048  1.0
  Ni  Ni217  1  0.00000000  0.50000000  0.35119048  1.0
  Ni  Ni218  1  0.00000000  0.83333333  0.35119048  1.0
  Ni  Ni219  1  0.33333333  0.16666667  0.35119048  1.0
  Ni  Ni220  1  0.33333333  0.50000000  0.35119048  1.0
  Ni  Ni221  1  0.33333333  0.83333333  0.35119048  1.0
  Ni  Ni222  1  0.66666667  0.16666667  0.35119048  1.0
  Ni  Ni223  1  0.66666667  0.50000000  0.35119048  1.0
  Ni  Ni224  1  0.66666667  0.83333333  0.35119048  1.0
  Ni  Ni225  1  0.00000000  0.00000000  0.42261905  1.0
  Ni  Ni226  1  0.00000000  0.33333333  0.42261905  1.0
  Ni  Ni227  1  0.00000000  0.66666667  0.42261905  1.0
  Ni  Ni228  1  0.33333333  0.00000000  0.42261905  1.0
  Ni  Ni229  1  0.33333333  0.33333333  0.42261905  1.0
  Ni  Ni230  1  0.33333333  0.66666667  0.42261905  1.0
  Ni  Ni231  1  0.66666667  0.00000000  0.42261905  1.0
  Ni  Ni232  1  0.66666667  0.33333333  0.42261905  1.0
  Ni  Ni233  1  0.66666667  0.66666667  0.42261905  1.0
  Ni  Ni234  1  0.00000000  0.16666667  0.42261905  1.0
  Ni  Ni235  1  0.00000000  0.50000000  0.42261905  1.0
  Ni  Ni236  1  0.00000000  0.83333333  0.42261905  1.0
  Ni  Ni237  1  0.33333333  0.16666667  0.42261905  1.0
  Ni  Ni238  1  0.33333333  0.50000000  0.42261905  1.0
  Ni  Ni239  1  0.33333333  0.83333333  0.42261905  1.0
  Ni  Ni240  1  0.66666667  0.16666667  0.42261905  1.0
  Ni  Ni241  1  0.66666667  0.50000000  0.42261905  1.0
  Ni  Ni242  1  0.66666667  0.83333333  0.42261905  1.0
  Ni  Ni243  1  0.00000000  0.00000000  0.35119048  1.0
  Ni  Ni244  1  0.00000000  0.33333333  0.35119048  1.0
  Ni  Ni245  1  0.00000000  0.66666667  0.35119048  1.0
  Ni  Ni246  1  0.33333333  0.00000000  0.35119048  1.0
  Ni  Ni247  1  0.33333333  0.33333333  0.35119048  1.0
  Ni  Ni248  1  0.33333333  0.66666667  0.35119048  1.0
  Ni  Ni249  1  0.66666667  0.00000000  0.35119048  1.0
  Ni  Ni250  1  0.66666667  0.33333333  0.35119048  1.0
  Ni  Ni251  1  0.66666667  0.66666667  0.35119048  1.0
  Ni  Ni252  1  0.11111111  0.05555556  0.36309524  1.0
  Ni  Ni253  1  0.11111111  0.38888889  0.36309524  1.0
  Ni  Ni254  1  0.11111111  0.72222222  0.36309524  1.0
  Ni  Ni255  1  0.44444444  0.05555556  0.36309524  1.0
  Ni  Ni256  1  0.44444444  0.38888889  0.36309524  1.0
  Ni  Ni257  1  0.44444444  0.72222222  0.36309524  1.0
  Ni  Ni258  1  0.77777778  0.05555556  0.36309524  1.0
  Ni  Ni259  1  0.77777778  0.38888889  0.36309524  1.0
  Ni  Ni260  1  0.77777778  0.72222222  0.36309524  1.0
  Ni  Ni261  1  0.11111111  0.22222222  0.29166667  1.0
  Ni  Ni262  1  0.11111111  0.55555556  0.29166667  1.0
  Ni  Ni263  1  0.11111111  0.88888889  0.29166667  1.0
  Ni  Ni264  1  0.44444444  0.22222222  0.29166667  1.0
  Ni  Ni265  1  0.44444444  0.55555556  0.29166667  1.0
  Ni  Ni266  1  0.44444444  0.88888889  0.29166667  1.0
  Ni  Ni267  1  0.77777778  0.22222222  0.29166667  1.0
  Ni  Ni268  1  0.77777778  0.55555556  0.29166667  1.0
  Ni  Ni269  1  0.77777778  0.88888889  0.29166667  1.0
  Ni  Ni270  1  0.22222222  0.11111111  0.41071429  1.0
  Ni  Ni271  1  0.22222222  0.44444444  0.41071429  1.0
  Ni  Ni272  1  0.22222222  0.77777778  0.41071429  1.0
  Ni  Ni273  1  0.55555556  0.11111111  0.41071429  1.0
  Ni  Ni274  1  0.55555556  0.44444444  0.41071429  1.0
  Ni  Ni275  1  0.55555556  0.77777778  0.41071429  1.0
  Ni  Ni276  1  0.88888889  0.11111111  0.41071429  1.0
  Ni  Ni277  1  0.88888889  0.44444444  0.41071429  1.0
  Ni  Ni278  1  0.88888889  0.77777778  0.41071429  1.0
  Ni  Ni279  1  0.22222222  0.27777778  0.33928571  1.0
  Ni  Ni280  1  0.22222222  0.61111111  0.33928571  1.0
  Ni  Ni281  1  0.22222222  0.94444444  0.33928571  1.0
  Ni  Ni282  1  0.55555556  0.27777778  0.33928571  1.0
  Ni  Ni283  1  0.55555556  0.61111111  0.33928571  1.0
  Ni  Ni284  1  0.55555556  0.94444444  0.33928571  1.0
  Ni  Ni285  1  0.88888889  0.27777778  0.33928571  1.0
  Ni  Ni286  1  0.88888889  0.61111111  0.33928571  1.0
  Ni  Ni287  1  0.88888889  0.94444444  0.33928571  1.0
  Ge  Ge288  1  0.11111111  0.05555556  0.29166667  1.0
  Ge  Ge289  1  0.11111111  0.38888889  0.29166667  1.0
  Ge  Ge290  1  0.11111111  0.72222222  0.29166667  1.0
  Ge  Ge291  1  0.44444444  0.05555556  0.29166667  1.0
  Ge  Ge292  1  0.44444444  0.38888889  0.29166667  1.0
  Ge  Ge293  1  0.44444444  0.72222222  0.29166667  1.0
  Ge  Ge294  1  0.77777778  0.05555556  0.29166667  1.0
  Ge  Ge295  1  0.77777778  0.38888889  0.29166667  1.0
  Ge  Ge296  1  0.77777778  0.72222222  0.29166667  1.0
  Ge  Ge297  1  0.11111111  0.22222222  0.36309524  1.0
  Ge  Ge298  1  0.11111111  0.55555556  0.36309524  1.0
  Ge  Ge299  1  0.11111111  0.88888889  0.36309524  1.0
  Ge  Ge300  1  0.44444444  0.22222222  0.36309524  1.0
  Ge  Ge301  1  0.44444444  0.55555556  0.36309524  1.0
  Ge  Ge302  1  0.44444444  0.88888889  0.36309524  1.0
  Ge  Ge303  1  0.77777778  0.22222222  0.36309524  1.0
  Ge  Ge304  1  0.77777778  0.55555556  0.36309524  1.0
  Ge  Ge305  1  0.77777778  0.88888889  0.36309524  1.0
  Ge  Ge306  1  0.22222222  0.11111111  0.33928571  1.0
  Ge  Ge307  1  0.22222222  0.44444444  0.33928571  1.0
  Ge  Ge308  1  0.22222222  0.77777778  0.33928571  1.0
  Ge  Ge309  1  0.55555556  0.11111111  0.33928571  1.0
  Ge  Ge310  1  0.55555556  0.44444444  0.33928571  1.0
  Ge  Ge311  1  0.55555556  0.77777778  0.33928571  1.0
  Ge  Ge312  1  0.88888889  0.11111111  0.33928571  1.0
  Ge  Ge313  1  0.88888889  0.44444444  0.33928571  1.0
  Ge  Ge314  1  0.88888889  0.77777778  0.33928571  1.0
  Ge  Ge315  1  0.22222222  0.27777778  0.41071429  1.0
  Ge  Ge316  1  0.22222222  0.61111111  0.41071429  1.0
  Ge  Ge317  1  0.22222222  0.94444444  0.41071429  1.0
  Ge  Ge318  1  0.55555556  0.27777778  0.41071429  1.0
  Ge  Ge319  1  0.55555556  0.61111111  0.41071429  1.0
  Ge  Ge320  1  0.55555556  0.94444444  0.41071429  1.0
  Ge  Ge321  1  0.88888889  0.27777778  0.41071429  1.0
  Ge  Ge322  1  0.88888889  0.61111111  0.41071429  1.0
  Ge  Ge323  1  0.88888889  0.94444444  0.41071429  1.0
