# generated using pymatgen
data_Ni2Ge
_symmetry_space_group_name_H-M   'P 1'
_cell_length_a   12.02646135
_cell_length_b   19.44490741
_cell_length_c   40.08820450
_cell_angle_alpha   128.20587706
_cell_angle_beta   120.00000000
_cell_angle_gamma   71.98629352
_symmetry_Int_Tables_number   1
_chemical_formula_structural   Ni2Ge
_chemical_formula_sum   'Ni144 Ge72'
_cell_volume   6379.68718038
_cell_formula_units_Z   72
loop_
 _symmetry_equiv_pos_site_id
 _symmetry_equiv_pos_as_xyz
  1  'x, y, z'
loop_
 _atom_site_type_symbol
 _atom_site_label
 _atom_site_symmetry_multiplicity
 _atom_site_fract_x
 _atom_site_fract_y
 _atom_site_fract_z
 _atom_site_occupancy
  Ni  Ni0  1  0.00000000  0.00000000  0.09583333  1.0
  Ni  Ni1  1  0.00000000  0.33333333  0.09583333  1.0
  Ni  Ni2  1  0.00000000  0.66666667  0.09583333  1.0
  Ni  Ni3  1  0.33333333  0.00000000  0.09583333  1.0
  Ni  Ni4  1  0.33333333  0.33333333  0.09583333  1.0
  Ni  Ni5  1  0.33333333  0.66666667  0.09583333  1.0
  Ni  Ni6  1  0.66666667  0.00000000  0.09583333  1.0
  Ni  Ni7  1  0.66666667  0.33333333  0.09583333  1.0
  Ni  Ni8  1  0.66666667  0.66666667  0.09583333  1.0
  Ni  Ni9  1  0.00000000  0.16666667  0.04583333  1.0
  Ni  Ni10  1  0.00000000  0.50000000  0.04583333  1.0
  Ni  Ni11  1  0.00000000  0.83333333  0.04583333  1.0
  Ni  Ni12  1  0.33333333  0.16666667  0.04583333  1.0
  Ni  Ni13  1  0.33333333  0.50000000  0.04583333  1.0
  Ni  Ni14  1  0.33333333  0.83333333  0.04583333  1.0
  Ni  Ni15  1  0.66666667  0.16666667  0.04583333  1.0
  Ni  Ni16  1  0.66666667  0.50000000  0.04583333  1.0
  Ni  Ni17  1  0.66666667  0.83333333  0.04583333  1.0
  Ni  Ni18  1  0.11111111  0.25000000  0.03750000  1.0
  Ni  Ni19  1  0.11111111  0.58333333  0.03750000  1.0
  Ni  Ni20  1  0.11111111  0.91666667  0.03750000  1.0
  Ni  Ni21  1  0.44444444  0.25000000  0.03750000  1.0
  Ni  Ni22  1  0.44444444  0.58333333  0.03750000  1.0
  Ni  Ni23  1  0.44444444  0.91666667  0.03750000  1.0
  Ni  Ni24  1  0.77777778  0.25000000  0.03750000  1.0
  Ni  Ni25  1  0.77777778  0.58333333  0.03750000  1.0
  Ni  Ni26  1  0.77777778  0.91666667  0.03750000  1.0
  Ni  Ni27  1  0.22222222  0.08333333  0.05416667  1.0
  Ni  Ni28  1  0.22222222  0.41666667  0.05416667  1.0
  Ni  Ni29  1  0.22222222  0.75000000  0.05416667  1.0
  Ni  Ni30  1  0.55555556  0.08333333  0.05416667  1.0
  Ni  Ni31  1  0.55555556  0.41666667  0.05416667  1.0
  Ni  Ni32  1  0.55555556  0.75000000  0.05416667  1.0
  Ni  Ni33  1  0.88888889  0.08333333  0.05416667  1.0
  Ni  Ni34  1  0.88888889  0.41666667  0.05416667  1.0
  Ni  Ni35  1  0.88888889  0.75000000  0.05416667  1.0
  Ge  Ge36  1  0.11111111  0.08333333  0.08750000  1.0
  Ge  Ge37  1  0.11111111  0.41666667  0.08750000  1.0
  Ge  Ge38  1  0.11111111  0.75000000  0.08750000  1.0
  Ge  Ge39  1  0.44444444  0.08333333  0.08750000  1.0
  Ge  Ge40  1  0.44444444  0.41666667  0.08750000  1.0
  Ge  Ge41  1  0.44444444  0.75000000  0.08750000  1.0
  Ge  Ge42  1  0.77777778  0.08333333  0.08750000  1.0
  Ge  Ge43  1  0.77777778  0.41666667  0.08750000  1.0
  Ge  Ge44  1  0.77777778  0.75000000  0.08750000  1.0
  Ge  Ge45  1  0.22222222  0.25000000  0.00416667  1.0
  Ge  Ge46  1  0.22222222  0.58333333  0.00416667  1.0
  Ge  Ge47  1  0.22222222  0.91666667  0.00416667  1.0
  Ge  Ge48  1  0.55555556  0.25000000  0.00416667  1.0
  Ge  Ge49  1  0.55555556  0.58333333  0.00416667  1.0
  Ge  Ge50  1  0.55555556  0.91666667  0.00416667  1.0
  Ge  Ge51  1  0.88888889  0.25000000  0.00416667  1.0
  Ge  Ge52  1  0.88888889  0.58333333  0.00416667  1.0
  Ge  Ge53  1  0.88888889  0.91666667  0.00416667  1.0
  Ni  Ni54  1  0.00000000  0.00000000  0.19583333  1.0
  Ni  Ni55  1  0.00000000  0.33333333  0.19583333  1.0
  Ni  Ni56  1  0.00000000  0.66666667  0.19583333  1.0
  Ni  Ni57  1  0.33333333  0.00000000  0.19583333  1.0
  Ni  Ni58  1  0.33333333  0.33333333  0.19583333  1.0
  Ni  Ni59  1  0.33333333  0.66666667  0.19583333  1.0
  Ni  Ni60  1  0.66666667  0.00000000  0.19583333  1.0
  Ni  Ni61  1  0.66666667  0.33333333  0.19583333  1.0
  Ni  Ni62  1  0.66666667  0.66666667  0.19583333  1.0
  Ni  Ni63  1  0.00000000  0.16666667  0.14583333  1.0
  Ni  Ni64  1  0.00000000  0.50000000  0.14583333  1.0
  Ni  Ni65  1  0.00000000  0.83333333  0.14583333  1.0
  Ni  Ni66  1  0.33333333  0.16666667  0.14583333  1.0
  Ni  Ni67  1  0.33333333  0.50000000  0.14583333  1.0
  Ni  Ni68  1  0.33333333  0.83333333  0.14583333  1.0
  Ni  Ni69  1  0.66666667  0.16666667  0.14583333  1.0
  Ni  Ni70  1  0.66666667  0.50000000  0.14583333  1.0
  Ni  Ni71  1  0.66666667  0.83333333  0.14583333  1.0
  Ni  Ni72  1  0.11111111  0.25000000  0.13750000  1.0
  Ni  Ni73  1  0.11111111  0.58333333  0.13750000  1.0
  Ni  Ni74  1  0.11111111  0.91666667  0.13750000  1.0
  Ni  Ni75  1  0.44444444  0.25000000  0.13750000  1.0
  Ni  Ni76  1  0.44444444  0.58333333  0.13750000  1.0
  Ni  Ni77  1  0.44444444  0.91666667  0.13750000  1.0
  Ni  Ni78  1  0.77777778  0.25000000  0.13750000  1.0
  Ni  Ni79  1  0.77777778  0.58333333  0.13750000  1.0
  Ni  Ni80  1  0.77777778  0.91666667  0.13750000  1.0
  Ni  Ni81  1  0.22222222  0.08333333  0.15416667  1.0
  Ni  Ni82  1  0.22222222  0.41666667  0.15416667  1.0
  Ni  Ni83  1  0.22222222  0.75000000  0.15416667  1.0
  Ni  Ni84  1  0.55555556  0.08333333  0.15416667  1.0
  Ni  Ni85  1  0.55555556  0.41666667  0.15416667  1.0
  Ni  Ni86  1  0.55555556  0.75000000  0.15416667  1.0
  Ni  Ni87  1  0.88888889  0.08333333  0.15416667  1.0
  Ni  Ni88  1  0.88888889  0.41666667  0.15416667  1.0
  Ni  Ni89  1  0.88888889  0.75000000  0.15416667  1.0
  Ge  Ge90  1  0.11111111  0.08333333  0.18750000  1.0
  Ge  Ge91  1  0.11111111  0.41666667  0.18750000  1.0
  Ge  Ge92  1  0.11111111  0.75000000  0.18750000  1.0
  Ge  Ge93  1  0.44444444  0.08333333  0.18750000  1.0
  Ge  Ge94  1  0.44444444  0.41666667  0.18750000  1.0
  Ge  Ge95  1  0.44444444  0.75000000  0.18750000  1.0
  Ge  Ge96  1  0.77777778  0.08333333  0.18750000  1.0
  Ge  Ge97  1  0.77777778  0.41666667  0.18750000  1.0
  Ge  Ge98  1  0.77777778  0.75000000  0.18750000  1.0
  Ge  Ge99  1  0.22222222  0.25000000  0.10416667  1.0
  Ge  Ge100  1  0.22222222  0.58333333  0.10416667  1.0
  Ge  Ge101  1  0.22222222  0.91666667  0.10416667  1.0
  Ge  Ge102  1  0.55555556  0.25000000  0.10416667  1.0
  Ge  Ge103  1  0.55555556  0.58333333  0.10416667  1.0
  Ge  Ge104  1  0.55555556  0.91666667  0.10416667  1.0
  Ge  Ge105  1  0.88888889  0.25000000  0.10416667  1.0
  Ge  Ge106  1  0.88888889  0.58333333  0.10416667  1.0
  Ge  Ge107  1  0.88888889  0.91666667  0.10416667  1.0
  Ni  Ni108  1  0.00000000  0.00000000  0.29583333  1.0
  Ni  Ni109  1  0.00000000  0.33333333  0.29583333  1.0
  Ni  Ni110  1  0.00000000  0.66666667  0.29583333  1.0
  Ni  Ni111  1  0.33333333  0.00000000  0.29583333  1.0
  Ni  Ni112  1  0.33333333  0.33333333  0.29583333  1.0
  Ni  Ni113  1  0.33333333  0.66666667  0.29583333  1.0
  Ni  Ni114  1  0.66666667  0.00000000  0.29583333  1.0
  Ni  Ni115  1  0.66666667  0.33333333  0.29583333  1.0
  Ni  Ni116  1  0.66666667  0.66666667  0.29583333  1.0
  Ni  Ni117  1  0.00000000  0.16666667  0.24583333  1.0
  Ni  Ni118  1  0.00000000  0.50000000  0.24583333  1.0
  Ni  Ni119  1  0.00000000  0.83333333  0.24583333  1.0
  Ni  Ni120  1  0.33333333  0.16666667  0.24583333  1.0
  Ni  Ni121  1  0.33333333  0.50000000  0.24583333  1.0
  Ni  Ni122  1  0.33333333  0.83333333  0.24583333  1.0
  Ni  Ni123  1  0.66666667  0.16666667  0.24583333  1.0
  Ni  Ni124  1  0.66666667  0.50000000  0.24583333  1.0
  Ni  Ni125  1  0.66666667  0.83333333  0.24583333  1.0
  Ni  Ni126  1  0.11111111  0.25000000  0.23750000  1.0
  Ni  Ni127  1  0.11111111  0.58333333  0.23750000  1.0
  Ni  Ni128  1  0.11111111  0.91666667  0.23750000  1.0
  Ni  Ni129  1  0.44444444  0.25000000  0.23750000  1.0
  Ni  Ni130  1  0.44444444  0.58333333  0.23750000  1.0
  Ni  Ni131  1  0.44444444  0.91666667  0.23750000  1.0
  Ni  Ni132  1  0.77777778  0.25000000  0.23750000  1.0
  Ni  Ni133  1  0.77777778  0.58333333  0.23750000  1.0
  Ni  Ni134  1  0.77777778  0.91666667  0.23750000  1.0
  Ni  Ni135  1  0.22222222  0.08333333  0.25416667  1.0
  Ni  Ni136  1  0.22222222  0.41666667  0.25416667  1.0
  Ni  Ni137  1  0.22222222  0.75000000  0.25416667  1.0
  Ni  Ni138  1  0.55555556  0.08333333  0.25416667  1.0
  Ni  Ni139  1  0.55555556  0.41666667  0.25416667  1.0
  Ni  Ni140  1  0.55555556  0.75000000  0.25416667  1.0
  Ni  Ni141  1  0.88888889  0.08333333  0.25416667  1.0
  Ni  Ni142  1  0.88888889  0.41666667  0.25416667  1.0
  Ni  Ni143  1  0.88888889  0.75000000  0.25416667  1.0
  Ge  Ge144  1  0.11111111  0.08333333  0.28750000  1.0
  Ge  Ge145  1  0.11111111  0.41666667  0.28750000  1.0
  Ge  Ge146  1  0.11111111  0.75000000  0.28750000  1.0
  Ge  Ge147  1  0.44444444  0.08333333  0.28750000  1.0
  Ge  Ge148  1  0.44444444  0.41666667  0.28750000  1.0
  Ge  Ge149  1  0.44444444  0.75000000  0.28750000  1.0
  Ge  Ge150  1  0.77777778  0.08333333  0.28750000  1.0
  Ge  Ge151  1  0.77777778  0.41666667  0.28750000  1.0
  Ge  Ge152  1  0.77777778  0.75000000  0.28750000  1.0
  Ge  Ge153  1  0.22222222  0.25000000  0.20416667  1.0
  Ge  Ge154  1  0.22222222  0.58333333  0.20416667  1.0
  Ge  Ge155  1  0.22222222  0.91666667  0.20416667  1.0
  Ge  Ge156  1  0.55555556  0.25000000  0.20416667  1.0
  Ge  Ge157  1  0.55555556  0.58333333  0.20416667  1.0
  Ge  Ge158  1  0.55555556  0.91666667  0.20416667  1.0
  Ge  Ge159  1  0.88888889  0.25000000  0.20416667  1.0
  Ge  Ge160  1  0.88888889  0.58333333  0.20416667  1.0
  Ge  Ge161  1  0.88888889  0.91666667  0.20416667  1.0
  Ni  Ni162  1  0.00000000  0.00000000  0.39583333  1.0
  Ni  Ni163  1  0.00000000  0.33333333  0.39583333  1.0
  Ni  Ni164  1  0.00000000  0.66666667  0.39583333  1.0
  Ni  Ni165  1  0.33333333  0.00000000  0.39583333  1.0
  Ni  Ni166  1  0.33333333  0.33333333  0.39583333  1.0
  Ni  Ni167  1  0.33333333  0.66666667  0.39583333  1.0
  Ni  Ni168  1  0.66666667  0.00000000  0.39583333  1.0
  Ni  Ni169  1  0.66666667  0.33333333  0.39583333  1.0
  Ni  Ni170  1  0.66666667  0.66666667  0.39583333  1.0
  Ni  Ni171  1  0.00000000  0.16666667  0.34583333  1.0
  Ni  Ni172  1  0.00000000  0.50000000  0.34583333  1.0
  Ni  Ni173  1  0.00000000  0.83333333  0.34583333  1.0
  Ni  Ni174  1  0.33333333  0.16666667  0.34583333  1.0
  Ni  Ni175  1  0.33333333  0.50000000  0.34583333  1.0
  Ni  Ni176  1  0.33333333  0.83333333  0.34583333  1.0
  Ni  Ni177  1  0.66666667  0.16666667  0.34583333  1.0
  Ni  Ni178  1  0.66666667  0.50000000  0.34583333  1.0
  Ni  Ni179  1  0.66666667  0.83333333  0.34583333  1.0
  Ni  Ni180  1  0.11111111  0.25000000  0.33750000  1.0
  Ni  Ni181  1  0.11111111  0.58333333  0.33750000  1.0
  Ni  Ni182  1  0.11111111  0.91666667  0.33750000  1.0
  Ni  Ni183  1  0.44444444  0.25000000  0.33750000  1.0
  Ni  Ni184  1  0.44444444  0.58333333  0.33750000  1.0
  Ni  Ni185  1  0.44444444  0.91666667  0.33750000  1.0
  Ni  Ni186  1  0.77777778  0.25000000  0.33750000  1.0
  Ni  Ni187  1  0.77777778  0.58333333  0.33750000  1.0
  Ni  Ni188  1  0.77777778  0.91666667  0.33750000  1.0
  Ni  Ni189  1  0.22222222  0.08333333  0.35416667  1.0
  Ni  Ni190  1  0.22222222  0.41666667  0.35416667  1.0
  Ni  Ni191  1  0.22222222  0.75000000  0.35416667  1.0
  Ni  Ni192  1  0.55555556  0.08333333  0.35416667  1.0
  Ni  Ni193  1  0.55555556  0.41666667  0.35416667  1.0
  Ni  Ni194  1  0.55555556  0.75000000  0.35416667  1.0
  Ni  Ni195  1  0.88888889  0.08333333  0.35416667  1.0
  Ni  Ni196  1  0.88888889  0.41666667  0.35416667  1.0
  Ni  Ni197  1  0.88888889  0.75000000  0.35416667  1.0
  Ge  Ge198  1  0.11111111  0.08333333  0.38750000  1.0
  Ge  Ge199  1  0.11111111  0.41666667  0.38750000  1.0
  Ge  Ge200  1  0.11111111  0.75000000  0.38750000  1.0
  Ge  Ge201  1  0.44444444  0.08333333  0.38750000  1.0
  Ge  Ge202  1  0.44444444  0.41666667  0.38750000  1.0
  Ge  Ge203  1  0.44444444  0.75000000  0.38750000  1.0
  Ge  Ge204  1  0.77777778  0.08333333  0.38750000  1.0
  Ge  Ge205  1  0.77777778  0.41666667  0.38750000  1.0
  Ge  Ge206  1  0.77777778  0.75000000  0.38750000  1.0
  Ge  Ge207  1  0.22222222  0.25000000  0.30416667  1.0
  Ge  Ge208  1  0.22222222  0.58333333  0.30416667  1.0
  Ge  Ge209  1  0.22222222  0.91666667  0.30416667  1.0
  Ge  Ge210  1  0.55555556  0.25000000  0.30416667  1.0
  Ge  Ge211  1  0.55555556  0.58333333  0.30416667  1.0
  Ge  Ge212  1  0.55555556  0.91666667  0.30416667  1.0
  Ge  Ge213  1  0.88888889  0.25000000  0.30416667  1.0
  Ge  Ge214  1  0.88888889  0.58333333  0.30416667  1.0
  Ge  Ge215  1  0.88888889  0.91666667  0.30416667  1.0
