# generated using pymatgen
data_Ni2Ge
_symmetry_space_group_name_H-M   'P 1'
_cell_length_a   12.02646135
_cell_length_b   12.02646135
_cell_length_c   25.46613500
_cell_angle_alpha   90.00000000
_cell_angle_beta   90.00000000
_cell_angle_gamma   120.00000000
_symmetry_Int_Tables_number   1
_chemical_formula_structural   Ni2Ge
_chemical_formula_sum   'Ni72 Ge36'
_cell_volume   3189.84359019
_cell_formula_units_Z   36
loop_
 _symmetry_equiv_pos_site_id
 _symmetry_equiv_pos_as_xyz
  1  'x, y, z'
loop_
 _atom_site_type_symbol
 _atom_site_label
 _atom_site_symmetry_multiplicity
 _atom_site_fract_x
 _atom_site_fract_y
 _atom_site_fract_z
 _atom_site_occupancy
  Ni  Ni0  1  0.00000000  0.00000000  0.17500000  1.0
  Ni  Ni1  1  0.00000000  0.33333333  0.17500000  1.0
  Ni  Ni2  1  0.00000000  0.66666667  0.17500000  1.0
  Ni  Ni3  1  0.33333333  0.00000000  0.17500000  1.0
  Ni  Ni4  1  0.33333333  0.33333333  0.17500000  1.0
  Ni  Ni5  1  0.33333333  0.66666667  0.17500000  1.0
  Ni  Ni6  1  0.66666667  0.00000000  0.17500000  1.0
  Ni  Ni7  1  0.66666667  0.33333333  0.17500000  1.0
  Ni  Ni8  1  0.66666667  0.66666667  0.17500000  1.0
  Ni  Ni9  1  0.00000000  0.00000000  0.07500000  1.0
  Ni  Ni10  1  0.00000000  0.33333333  0.07500000  1.0
  Ni  Ni11  1  0.00000000  0.66666667  0.07500000  1.0
  Ni  Ni12  1  0.33333333  0.00000000  0.07500000  1.0
  Ni  Ni13  1  0.33333333  0.33333333  0.07500000  1.0
  Ni  Ni14  1  0.33333333  0.66666667  0.07500000  1.0
  Ni  Ni15  1  0.66666667  0.00000000  0.07500000  1.0
  Ni  Ni16  1  0.66666667  0.33333333  0.07500000  1.0
  Ni  Ni17  1  0.66666667  0.66666667  0.07500000  1.0
  Ni  Ni18  1  0.22222222  0.11111111  0.12500000  1.0
  Ni  Ni19  1  0.22222222  0.44444444  0.12500000  1.0
  Ni  Ni20  1  0.22222222  0.77777778  0.12500000  1.0
  Ni  Ni21  1  0.55555556  0.11111111  0.12500000  1.0
  Ni  Ni22  1  0.55555556  0.44444444  0.12500000  1.0
  Ni  Ni23  1  0.55555556  0.77777778  0.12500000  1.0
  Ni  Ni24  1  0.88888889  0.11111111  0.12500000  1.0
  Ni  Ni25  1  0.88888889  0.44444444  0.12500000  1.0
  Ni  Ni26  1  0.88888889  0.77777778  0.12500000  1.0
  Ni  Ni27  1  0.11111111  0.22222222  0.02500000  1.0
  Ni  Ni28  1  0.11111111  0.55555556  0.02500000  1.0
  Ni  Ni29  1  0.11111111  0.88888889  0.02500000  1.0
  Ni  Ni30  1  0.44444444  0.22222222  0.02500000  1.0
  Ni  Ni31  1  0.44444444  0.55555556  0.02500000  1.0
  Ni  Ni32  1  0.44444444  0.88888889  0.02500000  1.0
  Ni  Ni33  1  0.77777778  0.22222222  0.02500000  1.0
  Ni  Ni34  1  0.77777778  0.55555556  0.02500000  1.0
  Ni  Ni35  1  0.77777778  0.88888889  0.02500000  1.0
  Ge  Ge36  1  0.22222222  0.11111111  0.02500000  1.0
  Ge  Ge37  1  0.22222222  0.44444444  0.02500000  1.0
  Ge  Ge38  1  0.22222222  0.77777778  0.02500000  1.0
  Ge  Ge39  1  0.55555556  0.11111111  0.02500000  1.0
  Ge  Ge40  1  0.55555556  0.44444444  0.02500000  1.0
  Ge  Ge41  1  0.55555556  0.77777778  0.02500000  1.0
  Ge  Ge42  1  0.88888889  0.11111111  0.02500000  1.0
  Ge  Ge43  1  0.88888889  0.44444444  0.02500000  1.0
  Ge  Ge44  1  0.88888889  0.77777778  0.02500000  1.0
  Ge  Ge45  1  0.11111111  0.22222222  0.12500000  1.0
  Ge  Ge46  1  0.11111111  0.55555556  0.12500000  1.0
  Ge  Ge47  1  0.11111111  0.88888889  0.12500000  1.0
  Ge  Ge48  1  0.44444444  0.22222222  0.12500000  1.0
  Ge  Ge49  1  0.44444444  0.55555556  0.12500000  1.0
  Ge  Ge50  1  0.44444444  0.88888889  0.12500000  1.0
  Ge  Ge51  1  0.77777778  0.22222222  0.12500000  1.0
  Ge  Ge52  1  0.77777778  0.55555556  0.12500000  1.0
  Ge  Ge53  1  0.77777778  0.88888889  0.12500000  1.0
  Ni  Ni54  1  0.00000000  0.00000000  0.37500000  1.0
  Ni  Ni55  1  0.00000000  0.33333333  0.37500000  1.0
  Ni  Ni56  1  0.00000000  0.66666667  0.37500000  1.0
  Ni  Ni57  1  0.33333333  0.00000000  0.37500000  1.0
  Ni  Ni58  1  0.33333333  0.33333333  0.37500000  1.0
  Ni  Ni59  1  0.33333333  0.66666667  0.37500000  1.0
  Ni  Ni60  1  0.66666667  0.00000000  0.37500000  1.0
  Ni  Ni61  1  0.66666667  0.33333333  0.37500000  1.0
  Ni  Ni62  1  0.66666667  0.66666667  0.37500000  1.0
  Ni  Ni63  1  0.00000000  0.00000000  0.27500000  1.0
  Ni  Ni64  1  0.00000000  0.33333333  0.27500000  1.0
  Ni  Ni65  1  0.00000000  0.66666667  0.27500000  1.0
  Ni  Ni66  1  0.33333333  0.00000000  0.27500000  1.0
  Ni  Ni67  1  0.33333333  0.33333333  0.27500000  1.0
  Ni  Ni68  1  0.33333333  0.66666667  0.27500000  1.0
  Ni  Ni69  1  0.66666667  0.00000000  0.27500000  1.0
  Ni  Ni70  1  0.66666667  0.33333333  0.27500000  1.0
  Ni  Ni71  1  0.66666667  0.66666667  0.27500000  1.0
  Ni  Ni72  1  0.22222222  0.11111111  0.32500000  1.0
  Ni  Ni73  1  0.22222222  0.44444444  0.32500000  1.0
  Ni  Ni74  1  0.22222222  0.77777778  0.32500000  1.0
  Ni  Ni75  1  0.55555556  0.11111111  0.32500000  1.0
  Ni  Ni76  1  0.55555556  0.44444444  0.32500000  1.0
  Ni  Ni77  1  0.55555556  0.77777778  0.32500000  1.0
  Ni  Ni78  1  0.88888889  0.11111111  0.32500000  1.0
  Ni  Ni79  1  0.88888889  0.44444444  0.32500000  1.0
  Ni  Ni80  1  0.88888889  0.77777778  0.32500000  1.0
  Ni  Ni81  1  0.11111111  0.22222222  0.22500000  1.0
  Ni  Ni82  1  0.11111111  0.55555556  0.22500000  1.0
  Ni  Ni83  1  0.11111111  0.88888889  0.22500000  1.0
  Ni  Ni84  1  0.44444444  0.22222222  0.22500000  1.0
  Ni  Ni85  1  0.44444444  0.55555556  0.22500000  1.0
  Ni  Ni86  1  0.44444444  0.88888889  0.22500000  1.0
  Ni  Ni87  1  0.77777778  0.22222222  0.22500000  1.0
  Ni  Ni88  1  0.77777778  0.55555556  0.22500000  1.0
  Ni  Ni89  1  0.77777778  0.88888889  0.22500000  1.0
  Ge  Ge90  1  0.22222222  0.11111111  0.22500000  1.0
  Ge  Ge91  1  0.22222222  0.44444444  0.22500000  1.0
  Ge  Ge92  1  0.22222222  0.77777778  0.22500000  1.0
  Ge  Ge93  1  0.55555556  0.11111111  0.22500000  1.0
  Ge  Ge94  1  0.55555556  0.44444444  0.22500000  1.0
  Ge  Ge95  1  0.55555556  0.77777778  0.22500000  1.0
  Ge  Ge96  1  0.88888889  0.11111111  0.22500000  1.0
  Ge  Ge97  1  0.88888889  0.44444444  0.22500000  1.0
  Ge  Ge98  1  0.88888889  0.77777778  0.22500000  1.0
  Ge  Ge99  1  0.11111111  0.22222222  0.32500000  1.0
  Ge  Ge100  1  0.11111111  0.55555556  0.32500000  1.0
  Ge  Ge101  1  0.11111111  0.88888889  0.32500000  1.0
  Ge  Ge102  1  0.44444444  0.22222222  0.32500000  1.0
  Ge  Ge103  1  0.44444444  0.55555556  0.32500000  1.0
  Ge  Ge104  1  0.44444444  0.88888889  0.32500000  1.0
  Ge  Ge105  1  0.77777778  0.22222222  0.32500000  1.0
  Ge  Ge106  1  0.77777778  0.55555556  0.32500000  1.0
  Ge  Ge107  1  0.77777778  0.88888889  0.32500000  1.0
