# generated using pymatgen
data_Ni2Ge
_symmetry_space_group_name_H-M   'P 1'
_cell_length_a   11.51743800
_cell_length_b   46.25141383
_cell_length_c   35.77015400
_cell_angle_alpha   109.35685404
_cell_angle_beta   90.00000000
_cell_angle_gamma   90.00000000
_symmetry_Int_Tables_number   1
_chemical_formula_structural   Ni2Ge
_chemical_formula_sum   'Ni432 Ge216'
_cell_volume   17977.56888607
_cell_formula_units_Z   216
loop_
 _symmetry_equiv_pos_site_id
 _symmetry_equiv_pos_as_xyz
  1  'x, y, z'
loop_
 _atom_site_type_symbol
 _atom_site_label
 _atom_site_symmetry_multiplicity
 _atom_site_fract_x
 _atom_site_fract_y
 _atom_site_fract_z
 _atom_site_occupancy
  Ni  Ni0  1  0.08333333  0.01001283  0.05103550  1.0
  Ni  Ni1  1  0.08333333  0.34334617  0.05103550  1.0
  Ni  Ni2  1  0.08333333  0.67667950  0.05103550  1.0
  Ni  Ni3  1  0.41666667  0.01001283  0.05103550  1.0
  Ni  Ni4  1  0.41666667  0.34334617  0.05103550  1.0
  Ni  Ni5  1  0.41666667  0.67667950  0.05103550  1.0
  Ni  Ni6  1  0.75000000  0.01001283  0.05103550  1.0
  Ni  Ni7  1  0.75000000  0.34334617  0.05103550  1.0
  Ni  Ni8  1  0.75000000  0.67667950  0.05103550  1.0
  Ni  Ni9  1  0.08333333  0.17667950  0.12246407  1.0
  Ni  Ni10  1  0.08333333  0.51001283  0.12246407  1.0
  Ni  Ni11  1  0.08333333  0.84334617  0.12246407  1.0
  Ni  Ni12  1  0.41666667  0.17667950  0.12246407  1.0
  Ni  Ni13  1  0.41666667  0.51001283  0.12246407  1.0
  Ni  Ni14  1  0.41666667  0.84334617  0.12246407  1.0
  Ni  Ni15  1  0.75000000  0.17667950  0.12246407  1.0
  Ni  Ni16  1  0.75000000  0.51001283  0.12246407  1.0
  Ni  Ni17  1  0.75000000  0.84334617  0.12246407  1.0
  Ni  Ni18  1  0.25000000  0.15665383  0.02039307  1.0
  Ni  Ni19  1  0.25000000  0.48998717  0.02039307  1.0
  Ni  Ni20  1  0.25000000  0.82332050  0.02039307  1.0
  Ni  Ni21  1  0.58333333  0.15665383  0.02039307  1.0
  Ni  Ni22  1  0.58333333  0.48998717  0.02039307  1.0
  Ni  Ni23  1  0.58333333  0.82332050  0.02039307  1.0
  Ni  Ni24  1  0.91666667  0.15665383  0.02039307  1.0
  Ni  Ni25  1  0.91666667  0.48998717  0.02039307  1.0
  Ni  Ni26  1  0.91666667  0.82332050  0.02039307  1.0
  Ni  Ni27  1  0.25000000  0.32332050  0.09182164  1.0
  Ni  Ni28  1  0.25000000  0.65665383  0.09182164  1.0
  Ni  Ni29  1  0.25000000  0.98998717  0.09182164  1.0
  Ni  Ni30  1  0.58333333  0.32332050  0.09182164  1.0
  Ni  Ni31  1  0.58333333  0.65665383  0.09182164  1.0
  Ni  Ni32  1  0.58333333  0.98998717  0.09182164  1.0
  Ni  Ni33  1  0.91666667  0.32332050  0.09182164  1.0
  Ni  Ni34  1  0.91666667  0.65665383  0.09182164  1.0
  Ni  Ni35  1  0.91666667  0.98998717  0.09182164  1.0
  Ni  Ni36  1  0.08333333  0.07332050  0.00673879  1.0
  Ni  Ni37  1  0.08333333  0.40665383  0.00673879  1.0
  Ni  Ni38  1  0.08333333  0.73998717  0.00673879  1.0
  Ni  Ni39  1  0.41666667  0.07332050  0.00673879  1.0
  Ni  Ni40  1  0.41666667  0.40665383  0.00673879  1.0
  Ni  Ni41  1  0.41666667  0.73998717  0.00673879  1.0
  Ni  Ni42  1  0.75000000  0.07332050  0.00673879  1.0
  Ni  Ni43  1  0.75000000  0.40665383  0.00673879  1.0
  Ni  Ni44  1  0.75000000  0.73998717  0.00673879  1.0
  Ni  Ni45  1  0.08333333  0.23998717  0.07816736  1.0
  Ni  Ni46  1  0.08333333  0.57332050  0.07816736  1.0
  Ni  Ni47  1  0.08333333  0.90665383  0.07816736  1.0
  Ni  Ni48  1  0.41666667  0.23998717  0.07816736  1.0
  Ni  Ni49  1  0.41666667  0.57332050  0.07816736  1.0
  Ni  Ni50  1  0.41666667  0.90665383  0.07816736  1.0
  Ni  Ni51  1  0.75000000  0.23998717  0.07816736  1.0
  Ni  Ni52  1  0.75000000  0.57332050  0.07816736  1.0
  Ni  Ni53  1  0.75000000  0.90665383  0.07816736  1.0
  Ni  Ni54  1  0.25000000  0.09334617  0.06468979  1.0
  Ni  Ni55  1  0.25000000  0.42667950  0.06468979  1.0
  Ni  Ni56  1  0.25000000  0.76001283  0.06468979  1.0
  Ni  Ni57  1  0.58333333  0.09334617  0.06468979  1.0
  Ni  Ni58  1  0.58333333  0.42667950  0.06468979  1.0
  Ni  Ni59  1  0.58333333  0.76001283  0.06468979  1.0
  Ni  Ni60  1  0.91666667  0.09334617  0.06468979  1.0
  Ni  Ni61  1  0.91666667  0.42667950  0.06468979  1.0
  Ni  Ni62  1  0.91666667  0.76001283  0.06468979  1.0
  Ni  Ni63  1  0.25000000  0.26001283  0.13611836  1.0
  Ni  Ni64  1  0.25000000  0.59334617  0.13611836  1.0
  Ni  Ni65  1  0.25000000  0.92667950  0.13611836  1.0
  Ni  Ni66  1  0.58333333  0.26001283  0.13611836  1.0
  Ni  Ni67  1  0.58333333  0.59334617  0.13611836  1.0
  Ni  Ni68  1  0.58333333  0.92667950  0.13611836  1.0
  Ni  Ni69  1  0.91666667  0.26001283  0.13611836  1.0
  Ni  Ni70  1  0.91666667  0.59334617  0.13611836  1.0
  Ni  Ni71  1  0.91666667  0.92667950  0.13611836  1.0
  Ni  Ni72  1  0.08333333  0.13185183  0.05016879  1.0
  Ni  Ni73  1  0.08333333  0.46518517  0.05016879  1.0
  Ni  Ni74  1  0.08333333  0.79851850  0.05016879  1.0
  Ni  Ni75  1  0.41666667  0.13185183  0.05016879  1.0
  Ni  Ni76  1  0.41666667  0.46518517  0.05016879  1.0
  Ni  Ni77  1  0.41666667  0.79851850  0.05016879  1.0
  Ni  Ni78  1  0.75000000  0.13185183  0.05016879  1.0
  Ni  Ni79  1  0.75000000  0.46518517  0.05016879  1.0
  Ni  Ni80  1  0.75000000  0.79851850  0.05016879  1.0
  Ni  Ni81  1  0.08333333  0.29851850  0.12159736  1.0
  Ni  Ni82  1  0.08333333  0.63185183  0.12159736  1.0
  Ni  Ni83  1  0.08333333  0.96518517  0.12159736  1.0
  Ni  Ni84  1  0.41666667  0.29851850  0.12159736  1.0
  Ni  Ni85  1  0.41666667  0.63185183  0.12159736  1.0
  Ni  Ni86  1  0.41666667  0.96518517  0.12159736  1.0
  Ni  Ni87  1  0.75000000  0.29851850  0.12159736  1.0
  Ni  Ni88  1  0.75000000  0.63185183  0.12159736  1.0
  Ni  Ni89  1  0.75000000  0.96518517  0.12159736  1.0
  Ni  Ni90  1  0.25000000  0.03481483  0.02125979  1.0
  Ni  Ni91  1  0.25000000  0.36814817  0.02125979  1.0
  Ni  Ni92  1  0.25000000  0.70148150  0.02125979  1.0
  Ni  Ni93  1  0.58333333  0.03481483  0.02125979  1.0
  Ni  Ni94  1  0.58333333  0.36814817  0.02125979  1.0
  Ni  Ni95  1  0.58333333  0.70148150  0.02125979  1.0
  Ni  Ni96  1  0.91666667  0.03481483  0.02125979  1.0
  Ni  Ni97  1  0.91666667  0.36814817  0.02125979  1.0
  Ni  Ni98  1  0.91666667  0.70148150  0.02125979  1.0
  Ni  Ni99  1  0.25000000  0.20148150  0.09268836  1.0
  Ni  Ni100  1  0.25000000  0.53481483  0.09268836  1.0
  Ni  Ni101  1  0.25000000  0.86814817  0.09268836  1.0
  Ni  Ni102  1  0.58333333  0.20148150  0.09268836  1.0
  Ni  Ni103  1  0.58333333  0.53481483  0.09268836  1.0
  Ni  Ni104  1  0.58333333  0.86814817  0.09268836  1.0
  Ni  Ni105  1  0.91666667  0.20148150  0.09268836  1.0
  Ni  Ni106  1  0.91666667  0.53481483  0.09268836  1.0
  Ni  Ni107  1  0.91666667  0.86814817  0.09268836  1.0
  Ni  Ni108  1  0.08333333  0.11814817  0.11572436  1.0
  Ni  Ni109  1  0.08333333  0.45148150  0.11572436  1.0
  Ni  Ni110  1  0.08333333  0.78481483  0.11572436  1.0
  Ni  Ni111  1  0.41666667  0.11814817  0.11572436  1.0
  Ni  Ni112  1  0.41666667  0.45148150  0.11572436  1.0
  Ni  Ni113  1  0.41666667  0.78481483  0.11572436  1.0
  Ni  Ni114  1  0.75000000  0.11814817  0.11572436  1.0
  Ni  Ni115  1  0.75000000  0.45148150  0.11572436  1.0
  Ni  Ni116  1  0.75000000  0.78481483  0.11572436  1.0
  Ni  Ni117  1  0.08333333  0.28481483  0.04429579  1.0
  Ni  Ni118  1  0.08333333  0.61814817  0.04429579  1.0
  Ni  Ni119  1  0.08333333  0.95148150  0.04429579  1.0
  Ni  Ni120  1  0.41666667  0.28481483  0.04429579  1.0
  Ni  Ni121  1  0.41666667  0.61814817  0.04429579  1.0
  Ni  Ni122  1  0.41666667  0.95148150  0.04429579  1.0
  Ni  Ni123  1  0.75000000  0.28481483  0.04429579  1.0
  Ni  Ni124  1  0.75000000  0.61814817  0.04429579  1.0
  Ni  Ni125  1  0.75000000  0.95148150  0.04429579  1.0
  Ni  Ni126  1  0.25000000  0.04851850  0.09856136  1.0
  Ni  Ni127  1  0.25000000  0.38185183  0.09856136  1.0
  Ni  Ni128  1  0.25000000  0.71518517  0.09856136  1.0
  Ni  Ni129  1  0.58333333  0.04851850  0.09856136  1.0
  Ni  Ni130  1  0.58333333  0.38185183  0.09856136  1.0
  Ni  Ni131  1  0.58333333  0.71518517  0.09856136  1.0
  Ni  Ni132  1  0.91666667  0.04851850  0.09856136  1.0
  Ni  Ni133  1  0.91666667  0.38185183  0.09856136  1.0
  Ni  Ni134  1  0.91666667  0.71518517  0.09856136  1.0
  Ni  Ni135  1  0.25000000  0.21518517  0.02713279  1.0
  Ni  Ni136  1  0.25000000  0.54851850  0.02713279  1.0
  Ni  Ni137  1  0.25000000  0.88185183  0.02713279  1.0
  Ni  Ni138  1  0.58333333  0.21518517  0.02713279  1.0
  Ni  Ni139  1  0.58333333  0.54851850  0.02713279  1.0
  Ni  Ni140  1  0.58333333  0.88185183  0.02713279  1.0
  Ni  Ni141  1  0.91666667  0.21518517  0.02713279  1.0
  Ni  Ni142  1  0.91666667  0.54851850  0.02713279  1.0
  Ni  Ni143  1  0.91666667  0.88185183  0.02713279  1.0
  Ge  Ge144  1  0.08333333  0.06449967  0.06910814  1.0
  Ge  Ge145  1  0.08333333  0.39783300  0.06910814  1.0
  Ge  Ge146  1  0.08333333  0.73116633  0.06910814  1.0
  Ge  Ge147  1  0.41666667  0.06449967  0.06910814  1.0
  Ge  Ge148  1  0.41666667  0.39783300  0.06910814  1.0
  Ge  Ge149  1  0.41666667  0.73116633  0.06910814  1.0
  Ge  Ge150  1  0.75000000  0.06449967  0.06910814  1.0
  Ge  Ge151  1  0.75000000  0.39783300  0.06910814  1.0
  Ge  Ge152  1  0.75000000  0.73116633  0.06910814  1.0
  Ge  Ge153  1  0.08333333  0.23116633  0.14053671  1.0
  Ge  Ge154  1  0.08333333  0.56449967  0.14053671  1.0
  Ge  Ge155  1  0.08333333  0.89783300  0.14053671  1.0
  Ge  Ge156  1  0.41666667  0.23116633  0.14053671  1.0
  Ge  Ge157  1  0.41666667  0.56449967  0.14053671  1.0
  Ge  Ge158  1  0.41666667  0.89783300  0.14053671  1.0
  Ge  Ge159  1  0.75000000  0.23116633  0.14053671  1.0
  Ge  Ge160  1  0.75000000  0.56449967  0.14053671  1.0
  Ge  Ge161  1  0.75000000  0.89783300  0.14053671  1.0
  Ge  Ge162  1  0.25000000  0.10216700  0.00232043  1.0
  Ge  Ge163  1  0.25000000  0.43550033  0.00232043  1.0
  Ge  Ge164  1  0.25000000  0.76883367  0.00232043  1.0
  Ge  Ge165  1  0.58333333  0.10216700  0.00232043  1.0
  Ge  Ge166  1  0.58333333  0.43550033  0.00232043  1.0
  Ge  Ge167  1  0.58333333  0.76883367  0.00232043  1.0
  Ge  Ge168  1  0.91666667  0.10216700  0.00232043  1.0
  Ge  Ge169  1  0.91666667  0.43550033  0.00232043  1.0
  Ge  Ge170  1  0.91666667  0.76883367  0.00232043  1.0
  Ge  Ge171  1  0.25000000  0.26883367  0.07374900  1.0
  Ge  Ge172  1  0.25000000  0.60216700  0.07374900  1.0
  Ge  Ge173  1  0.25000000  0.93550033  0.07374900  1.0
  Ge  Ge174  1  0.58333333  0.26883367  0.07374900  1.0
  Ge  Ge175  1  0.58333333  0.60216700  0.07374900  1.0
  Ge  Ge176  1  0.58333333  0.93550033  0.07374900  1.0
  Ge  Ge177  1  0.91666667  0.26883367  0.07374900  1.0
  Ge  Ge178  1  0.91666667  0.60216700  0.07374900  1.0
  Ge  Ge179  1  0.91666667  0.93550033  0.07374900  1.0
  Ge  Ge180  1  0.08333333  0.01883367  0.12096557  1.0
  Ge  Ge181  1  0.08333333  0.35216700  0.12096557  1.0
  Ge  Ge182  1  0.08333333  0.68550033  0.12096557  1.0
  Ge  Ge183  1  0.41666667  0.01883367  0.12096557  1.0
  Ge  Ge184  1  0.41666667  0.35216700  0.12096557  1.0
  Ge  Ge185  1  0.41666667  0.68550033  0.12096557  1.0
  Ge  Ge186  1  0.75000000  0.01883367  0.12096557  1.0
  Ge  Ge187  1  0.75000000  0.35216700  0.12096557  1.0
  Ge  Ge188  1  0.75000000  0.68550033  0.12096557  1.0
  Ge  Ge189  1  0.08333333  0.18550033  0.04953700  1.0
  Ge  Ge190  1  0.08333333  0.51883367  0.04953700  1.0
  Ge  Ge191  1  0.08333333  0.85216700  0.04953700  1.0
  Ge  Ge192  1  0.41666667  0.18550033  0.04953700  1.0
  Ge  Ge193  1  0.41666667  0.51883367  0.04953700  1.0
  Ge  Ge194  1  0.41666667  0.85216700  0.04953700  1.0
  Ge  Ge195  1  0.75000000  0.18550033  0.04953700  1.0
  Ge  Ge196  1  0.75000000  0.51883367  0.04953700  1.0
  Ge  Ge197  1  0.75000000  0.85216700  0.04953700  1.0
  Ge  Ge198  1  0.25000000  0.14783300  0.09332014  1.0
  Ge  Ge199  1  0.25000000  0.48116633  0.09332014  1.0
  Ge  Ge200  1  0.25000000  0.81449967  0.09332014  1.0
  Ge  Ge201  1  0.58333333  0.14783300  0.09332014  1.0
  Ge  Ge202  1  0.58333333  0.48116633  0.09332014  1.0
  Ge  Ge203  1  0.58333333  0.81449967  0.09332014  1.0
  Ge  Ge204  1  0.91666667  0.14783300  0.09332014  1.0
  Ge  Ge205  1  0.91666667  0.48116633  0.09332014  1.0
  Ge  Ge206  1  0.91666667  0.81449967  0.09332014  1.0
  Ge  Ge207  1  0.25000000  0.31449967  0.02189157  1.0
  Ge  Ge208  1  0.25000000  0.64783300  0.02189157  1.0
  Ge  Ge209  1  0.25000000  0.98116633  0.02189157  1.0
  Ge  Ge210  1  0.58333333  0.31449967  0.02189157  1.0
  Ge  Ge211  1  0.58333333  0.64783300  0.02189157  1.0
  Ge  Ge212  1  0.58333333  0.98116633  0.02189157  1.0
  Ge  Ge213  1  0.91666667  0.31449967  0.02189157  1.0
  Ge  Ge214  1  0.91666667  0.64783300  0.02189157  1.0
  Ge  Ge215  1  0.91666667  0.98116633  0.02189157  1.0
  Ni  Ni216  1  0.08333333  0.01001283  0.19389264  1.0
  Ni  Ni217  1  0.08333333  0.34334617  0.19389264  1.0
  Ni  Ni218  1  0.08333333  0.67667950  0.19389264  1.0
  Ni  Ni219  1  0.41666667  0.01001283  0.19389264  1.0
  Ni  Ni220  1  0.41666667  0.34334617  0.19389264  1.0
  Ni  Ni221  1  0.41666667  0.67667950  0.19389264  1.0
  Ni  Ni222  1  0.75000000  0.01001283  0.19389264  1.0
  Ni  Ni223  1  0.75000000  0.34334617  0.19389264  1.0
  Ni  Ni224  1  0.75000000  0.67667950  0.19389264  1.0
  Ni  Ni225  1  0.08333333  0.17667950  0.26532121  1.0
  Ni  Ni226  1  0.08333333  0.51001283  0.26532121  1.0
  Ni  Ni227  1  0.08333333  0.84334617  0.26532121  1.0
  Ni  Ni228  1  0.41666667  0.17667950  0.26532121  1.0
  Ni  Ni229  1  0.41666667  0.51001283  0.26532121  1.0
  Ni  Ni230  1  0.41666667  0.84334617  0.26532121  1.0
  Ni  Ni231  1  0.75000000  0.17667950  0.26532121  1.0
  Ni  Ni232  1  0.75000000  0.51001283  0.26532121  1.0
  Ni  Ni233  1  0.75000000  0.84334617  0.26532121  1.0
  Ni  Ni234  1  0.25000000  0.15665383  0.16325021  1.0
  Ni  Ni235  1  0.25000000  0.48998717  0.16325021  1.0
  Ni  Ni236  1  0.25000000  0.82332050  0.16325021  1.0
  Ni  Ni237  1  0.58333333  0.15665383  0.16325021  1.0
  Ni  Ni238  1  0.58333333  0.48998717  0.16325021  1.0
  Ni  Ni239  1  0.58333333  0.82332050  0.16325021  1.0
  Ni  Ni240  1  0.91666667  0.15665383  0.16325021  1.0
  Ni  Ni241  1  0.91666667  0.48998717  0.16325021  1.0
  Ni  Ni242  1  0.91666667  0.82332050  0.16325021  1.0
  Ni  Ni243  1  0.25000000  0.32332050  0.23467879  1.0
  Ni  Ni244  1  0.25000000  0.65665383  0.23467879  1.0
  Ni  Ni245  1  0.25000000  0.98998717  0.23467879  1.0
  Ni  Ni246  1  0.58333333  0.32332050  0.23467879  1.0
  Ni  Ni247  1  0.58333333  0.65665383  0.23467879  1.0
  Ni  Ni248  1  0.58333333  0.98998717  0.23467879  1.0
  Ni  Ni249  1  0.91666667  0.32332050  0.23467879  1.0
  Ni  Ni250  1  0.91666667  0.65665383  0.23467879  1.0
  Ni  Ni251  1  0.91666667  0.98998717  0.23467879  1.0
  Ni  Ni252  1  0.08333333  0.07332050  0.14959593  1.0
  Ni  Ni253  1  0.08333333  0.40665383  0.14959593  1.0
  Ni  Ni254  1  0.08333333  0.73998717  0.14959593  1.0
  Ni  Ni255  1  0.41666667  0.07332050  0.14959593  1.0
  Ni  Ni256  1  0.41666667  0.40665383  0.14959593  1.0
  Ni  Ni257  1  0.41666667  0.73998717  0.14959593  1.0
  Ni  Ni258  1  0.75000000  0.07332050  0.14959593  1.0
  Ni  Ni259  1  0.75000000  0.40665383  0.14959593  1.0
  Ni  Ni260  1  0.75000000  0.73998717  0.14959593  1.0
  Ni  Ni261  1  0.08333333  0.23998717  0.22102450  1.0
  Ni  Ni262  1  0.08333333  0.57332050  0.22102450  1.0
  Ni  Ni263  1  0.08333333  0.90665383  0.22102450  1.0
  Ni  Ni264  1  0.41666667  0.23998717  0.22102450  1.0
  Ni  Ni265  1  0.41666667  0.57332050  0.22102450  1.0
  Ni  Ni266  1  0.41666667  0.90665383  0.22102450  1.0
  Ni  Ni267  1  0.75000000  0.23998717  0.22102450  1.0
  Ni  Ni268  1  0.75000000  0.57332050  0.22102450  1.0
  Ni  Ni269  1  0.75000000  0.90665383  0.22102450  1.0
  Ni  Ni270  1  0.25000000  0.09334617  0.20754693  1.0
  Ni  Ni271  1  0.25000000  0.42667950  0.20754693  1.0
  Ni  Ni272  1  0.25000000  0.76001283  0.20754693  1.0
  Ni  Ni273  1  0.58333333  0.09334617  0.20754693  1.0
  Ni  Ni274  1  0.58333333  0.42667950  0.20754693  1.0
  Ni  Ni275  1  0.58333333  0.76001283  0.20754693  1.0
  Ni  Ni276  1  0.91666667  0.09334617  0.20754693  1.0
  Ni  Ni277  1  0.91666667  0.42667950  0.20754693  1.0
  Ni  Ni278  1  0.91666667  0.76001283  0.20754693  1.0
  Ni  Ni279  1  0.25000000  0.26001283  0.27897550  1.0
  Ni  Ni280  1  0.25000000  0.59334617  0.27897550  1.0
  Ni  Ni281  1  0.25000000  0.92667950  0.27897550  1.0
  Ni  Ni282  1  0.58333333  0.26001283  0.27897550  1.0
  Ni  Ni283  1  0.58333333  0.59334617  0.27897550  1.0
  Ni  Ni284  1  0.58333333  0.92667950  0.27897550  1.0
  Ni  Ni285  1  0.91666667  0.26001283  0.27897550  1.0
  Ni  Ni286  1  0.91666667  0.59334617  0.27897550  1.0
  Ni  Ni287  1  0.91666667  0.92667950  0.27897550  1.0
  Ni  Ni288  1  0.08333333  0.13185183  0.19302593  1.0
  Ni  Ni289  1  0.08333333  0.46518517  0.19302593  1.0
  Ni  Ni290  1  0.08333333  0.79851850  0.19302593  1.0
  Ni  Ni291  1  0.41666667  0.13185183  0.19302593  1.0
  Ni  Ni292  1  0.41666667  0.46518517  0.19302593  1.0
  Ni  Ni293  1  0.41666667  0.79851850  0.19302593  1.0
  Ni  Ni294  1  0.75000000  0.13185183  0.19302593  1.0
  Ni  Ni295  1  0.75000000  0.46518517  0.19302593  1.0
  Ni  Ni296  1  0.75000000  0.79851850  0.19302593  1.0
  Ni  Ni297  1  0.08333333  0.29851850  0.26445450  1.0
  Ni  Ni298  1  0.08333333  0.63185183  0.26445450  1.0
  Ni  Ni299  1  0.08333333  0.96518517  0.26445450  1.0
  Ni  Ni300  1  0.41666667  0.29851850  0.26445450  1.0
  Ni  Ni301  1  0.41666667  0.63185183  0.26445450  1.0
  Ni  Ni302  1  0.41666667  0.96518517  0.26445450  1.0
  Ni  Ni303  1  0.75000000  0.29851850  0.26445450  1.0
  Ni  Ni304  1  0.75000000  0.63185183  0.26445450  1.0
  Ni  Ni305  1  0.75000000  0.96518517  0.26445450  1.0
  Ni  Ni306  1  0.25000000  0.03481483  0.16411693  1.0
  Ni  Ni307  1  0.25000000  0.36814817  0.16411693  1.0
  Ni  Ni308  1  0.25000000  0.70148150  0.16411693  1.0
  Ni  Ni309  1  0.58333333  0.03481483  0.16411693  1.0
  Ni  Ni310  1  0.58333333  0.36814817  0.16411693  1.0
  Ni  Ni311  1  0.58333333  0.70148150  0.16411693  1.0
  Ni  Ni312  1  0.91666667  0.03481483  0.16411693  1.0
  Ni  Ni313  1  0.91666667  0.36814817  0.16411693  1.0
  Ni  Ni314  1  0.91666667  0.70148150  0.16411693  1.0
  Ni  Ni315  1  0.25000000  0.20148150  0.23554550  1.0
  Ni  Ni316  1  0.25000000  0.53481483  0.23554550  1.0
  Ni  Ni317  1  0.25000000  0.86814817  0.23554550  1.0
  Ni  Ni318  1  0.58333333  0.20148150  0.23554550  1.0
  Ni  Ni319  1  0.58333333  0.53481483  0.23554550  1.0
  Ni  Ni320  1  0.58333333  0.86814817  0.23554550  1.0
  Ni  Ni321  1  0.91666667  0.20148150  0.23554550  1.0
  Ni  Ni322  1  0.91666667  0.53481483  0.23554550  1.0
  Ni  Ni323  1  0.91666667  0.86814817  0.23554550  1.0
  Ni  Ni324  1  0.08333333  0.11814817  0.25858150  1.0
  Ni  Ni325  1  0.08333333  0.45148150  0.25858150  1.0
  Ni  Ni326  1  0.08333333  0.78481483  0.25858150  1.0
  Ni  Ni327  1  0.41666667  0.11814817  0.25858150  1.0
  Ni  Ni328  1  0.41666667  0.45148150  0.25858150  1.0
  Ni  Ni329  1  0.41666667  0.78481483  0.25858150  1.0
  Ni  Ni330  1  0.75000000  0.11814817  0.25858150  1.0
  Ni  Ni331  1  0.75000000  0.45148150  0.25858150  1.0
  Ni  Ni332  1  0.75000000  0.78481483  0.25858150  1.0
  Ni  Ni333  1  0.08333333  0.28481483  0.18715293  1.0
  Ni  Ni334  1  0.08333333  0.61814817  0.18715293  1.0
  Ni  Ni335  1  0.08333333  0.95148150  0.18715293  1.0
  Ni  Ni336  1  0.41666667  0.28481483  0.18715293  1.0
  Ni  Ni337  1  0.41666667  0.61814817  0.18715293  1.0
  Ni  Ni338  1  0.41666667  0.95148150  0.18715293  1.0
  Ni  Ni339  1  0.75000000  0.28481483  0.18715293  1.0
  Ni  Ni340  1  0.75000000  0.61814817  0.18715293  1.0
  Ni  Ni341  1  0.75000000  0.95148150  0.18715293  1.0
  Ni  Ni342  1  0.25000000  0.04851850  0.24141850  1.0
  Ni  Ni343  1  0.25000000  0.38185183  0.24141850  1.0
  Ni  Ni344  1  0.25000000  0.71518517  0.24141850  1.0
  Ni  Ni345  1  0.58333333  0.04851850  0.24141850  1.0
  Ni  Ni346  1  0.58333333  0.38185183  0.24141850  1.0
  Ni  Ni347  1  0.58333333  0.71518517  0.24141850  1.0
  Ni  Ni348  1  0.91666667  0.04851850  0.24141850  1.0
  Ni  Ni349  1  0.91666667  0.38185183  0.24141850  1.0
  Ni  Ni350  1  0.91666667  0.71518517  0.24141850  1.0
  Ni  Ni351  1  0.25000000  0.21518517  0.16998993  1.0
  Ni  Ni352  1  0.25000000  0.54851850  0.16998993  1.0
  Ni  Ni353  1  0.25000000  0.88185183  0.16998993  1.0
  Ni  Ni354  1  0.58333333  0.21518517  0.16998993  1.0
  Ni  Ni355  1  0.58333333  0.54851850  0.16998993  1.0
  Ni  Ni356  1  0.58333333  0.88185183  0.16998993  1.0
  Ni  Ni357  1  0.91666667  0.21518517  0.16998993  1.0
  Ni  Ni358  1  0.91666667  0.54851850  0.16998993  1.0
  Ni  Ni359  1  0.91666667  0.88185183  0.16998993  1.0
  Ge  Ge360  1  0.08333333  0.06449967  0.21196529  1.0
  Ge  Ge361  1  0.08333333  0.39783300  0.21196529  1.0
  Ge  Ge362  1  0.08333333  0.73116633  0.21196529  1.0
  Ge  Ge363  1  0.41666667  0.06449967  0.21196529  1.0
  Ge  Ge364  1  0.41666667  0.39783300  0.21196529  1.0
  Ge  Ge365  1  0.41666667  0.73116633  0.21196529  1.0
  Ge  Ge366  1  0.75000000  0.06449967  0.21196529  1.0
  Ge  Ge367  1  0.75000000  0.39783300  0.21196529  1.0
  Ge  Ge368  1  0.75000000  0.73116633  0.21196529  1.0
  Ge  Ge369  1  0.08333333  0.23116633  0.28339386  1.0
  Ge  Ge370  1  0.08333333  0.56449967  0.28339386  1.0
  Ge  Ge371  1  0.08333333  0.89783300  0.28339386  1.0
  Ge  Ge372  1  0.41666667  0.23116633  0.28339386  1.0
  Ge  Ge373  1  0.41666667  0.56449967  0.28339386  1.0
  Ge  Ge374  1  0.41666667  0.89783300  0.28339386  1.0
  Ge  Ge375  1  0.75000000  0.23116633  0.28339386  1.0
  Ge  Ge376  1  0.75000000  0.56449967  0.28339386  1.0
  Ge  Ge377  1  0.75000000  0.89783300  0.28339386  1.0
  Ge  Ge378  1  0.25000000  0.10216700  0.14517757  1.0
  Ge  Ge379  1  0.25000000  0.43550033  0.14517757  1.0
  Ge  Ge380  1  0.25000000  0.76883367  0.14517757  1.0
  Ge  Ge381  1  0.58333333  0.10216700  0.14517757  1.0
  Ge  Ge382  1  0.58333333  0.43550033  0.14517757  1.0
  Ge  Ge383  1  0.58333333  0.76883367  0.14517757  1.0
  Ge  Ge384  1  0.91666667  0.10216700  0.14517757  1.0
  Ge  Ge385  1  0.91666667  0.43550033  0.14517757  1.0
  Ge  Ge386  1  0.91666667  0.76883367  0.14517757  1.0
  Ge  Ge387  1  0.25000000  0.26883367  0.21660614  1.0
  Ge  Ge388  1  0.25000000  0.60216700  0.21660614  1.0
  Ge  Ge389  1  0.25000000  0.93550033  0.21660614  1.0
  Ge  Ge390  1  0.58333333  0.26883367  0.21660614  1.0
  Ge  Ge391  1  0.58333333  0.60216700  0.21660614  1.0
  Ge  Ge392  1  0.58333333  0.93550033  0.21660614  1.0
  Ge  Ge393  1  0.91666667  0.26883367  0.21660614  1.0
  Ge  Ge394  1  0.91666667  0.60216700  0.21660614  1.0
  Ge  Ge395  1  0.91666667  0.93550033  0.21660614  1.0
  Ge  Ge396  1  0.08333333  0.01883367  0.26382271  1.0
  Ge  Ge397  1  0.08333333  0.35216700  0.26382271  1.0
  Ge  Ge398  1  0.08333333  0.68550033  0.26382271  1.0
  Ge  Ge399  1  0.41666667  0.01883367  0.26382271  1.0
  Ge  Ge400  1  0.41666667  0.35216700  0.26382271  1.0
  Ge  Ge401  1  0.41666667  0.68550033  0.26382271  1.0
  Ge  Ge402  1  0.75000000  0.01883367  0.26382271  1.0
  Ge  Ge403  1  0.75000000  0.35216700  0.26382271  1.0
  Ge  Ge404  1  0.75000000  0.68550033  0.26382271  1.0
  Ge  Ge405  1  0.08333333  0.18550033  0.19239414  1.0
  Ge  Ge406  1  0.08333333  0.51883367  0.19239414  1.0
  Ge  Ge407  1  0.08333333  0.85216700  0.19239414  1.0
  Ge  Ge408  1  0.41666667  0.18550033  0.19239414  1.0
  Ge  Ge409  1  0.41666667  0.51883367  0.19239414  1.0
  Ge  Ge410  1  0.41666667  0.85216700  0.19239414  1.0
  Ge  Ge411  1  0.75000000  0.18550033  0.19239414  1.0
  Ge  Ge412  1  0.75000000  0.51883367  0.19239414  1.0
  Ge  Ge413  1  0.75000000  0.85216700  0.19239414  1.0
  Ge  Ge414  1  0.25000000  0.14783300  0.23617729  1.0
  Ge  Ge415  1  0.25000000  0.48116633  0.23617729  1.0
  Ge  Ge416  1  0.25000000  0.81449967  0.23617729  1.0
  Ge  Ge417  1  0.58333333  0.14783300  0.23617729  1.0
  Ge  Ge418  1  0.58333333  0.48116633  0.23617729  1.0
  Ge  Ge419  1  0.58333333  0.81449967  0.23617729  1.0
  Ge  Ge420  1  0.91666667  0.14783300  0.23617729  1.0
  Ge  Ge421  1  0.91666667  0.48116633  0.23617729  1.0
  Ge  Ge422  1  0.91666667  0.81449967  0.23617729  1.0
  Ge  Ge423  1  0.25000000  0.31449967  0.16474871  1.0
  Ge  Ge424  1  0.25000000  0.64783300  0.16474871  1.0
  Ge  Ge425  1  0.25000000  0.98116633  0.16474871  1.0
  Ge  Ge426  1  0.58333333  0.31449967  0.16474871  1.0
  Ge  Ge427  1  0.58333333  0.64783300  0.16474871  1.0
  Ge  Ge428  1  0.58333333  0.98116633  0.16474871  1.0
  Ge  Ge429  1  0.91666667  0.31449967  0.16474871  1.0
  Ge  Ge430  1  0.91666667  0.64783300  0.16474871  1.0
  Ge  Ge431  1  0.91666667  0.98116633  0.16474871  1.0
  Ni  Ni432  1  0.08333333  0.01001283  0.33674979  1.0
  Ni  Ni433  1  0.08333333  0.34334617  0.33674979  1.0
  Ni  Ni434  1  0.08333333  0.67667950  0.33674979  1.0
  Ni  Ni435  1  0.41666667  0.01001283  0.33674979  1.0
  Ni  Ni436  1  0.41666667  0.34334617  0.33674979  1.0
  Ni  Ni437  1  0.41666667  0.67667950  0.33674979  1.0
  Ni  Ni438  1  0.75000000  0.01001283  0.33674979  1.0
  Ni  Ni439  1  0.75000000  0.34334617  0.33674979  1.0
  Ni  Ni440  1  0.75000000  0.67667950  0.33674979  1.0
  Ni  Ni441  1  0.08333333  0.17667950  0.40817836  1.0
  Ni  Ni442  1  0.08333333  0.51001283  0.40817836  1.0
  Ni  Ni443  1  0.08333333  0.84334617  0.40817836  1.0
  Ni  Ni444  1  0.41666667  0.17667950  0.40817836  1.0
  Ni  Ni445  1  0.41666667  0.51001283  0.40817836  1.0
  Ni  Ni446  1  0.41666667  0.84334617  0.40817836  1.0
  Ni  Ni447  1  0.75000000  0.17667950  0.40817836  1.0
  Ni  Ni448  1  0.75000000  0.51001283  0.40817836  1.0
  Ni  Ni449  1  0.75000000  0.84334617  0.40817836  1.0
  Ni  Ni450  1  0.25000000  0.15665383  0.30610736  1.0
  Ni  Ni451  1  0.25000000  0.48998717  0.30610736  1.0
  Ni  Ni452  1  0.25000000  0.82332050  0.30610736  1.0
  Ni  Ni453  1  0.58333333  0.15665383  0.30610736  1.0
  Ni  Ni454  1  0.58333333  0.48998717  0.30610736  1.0
  Ni  Ni455  1  0.58333333  0.82332050  0.30610736  1.0
  Ni  Ni456  1  0.91666667  0.15665383  0.30610736  1.0
  Ni  Ni457  1  0.91666667  0.48998717  0.30610736  1.0
  Ni  Ni458  1  0.91666667  0.82332050  0.30610736  1.0
  Ni  Ni459  1  0.25000000  0.32332050  0.37753593  1.0
  Ni  Ni460  1  0.25000000  0.65665383  0.37753593  1.0
  Ni  Ni461  1  0.25000000  0.98998717  0.37753593  1.0
  Ni  Ni462  1  0.58333333  0.32332050  0.37753593  1.0
  Ni  Ni463  1  0.58333333  0.65665383  0.37753593  1.0
  Ni  Ni464  1  0.58333333  0.98998717  0.37753593  1.0
  Ni  Ni465  1  0.91666667  0.32332050  0.37753593  1.0
  Ni  Ni466  1  0.91666667  0.65665383  0.37753593  1.0
  Ni  Ni467  1  0.91666667  0.98998717  0.37753593  1.0
  Ni  Ni468  1  0.08333333  0.07332050  0.29245307  1.0
  Ni  Ni469  1  0.08333333  0.40665383  0.29245307  1.0
  Ni  Ni470  1  0.08333333  0.73998717  0.29245307  1.0
  Ni  Ni471  1  0.41666667  0.07332050  0.29245307  1.0
  Ni  Ni472  1  0.41666667  0.40665383  0.29245307  1.0
  Ni  Ni473  1  0.41666667  0.73998717  0.29245307  1.0
  Ni  Ni474  1  0.75000000  0.07332050  0.29245307  1.0
  Ni  Ni475  1  0.75000000  0.40665383  0.29245307  1.0
  Ni  Ni476  1  0.75000000  0.73998717  0.29245307  1.0
  Ni  Ni477  1  0.08333333  0.23998717  0.36388164  1.0
  Ni  Ni478  1  0.08333333  0.57332050  0.36388164  1.0
  Ni  Ni479  1  0.08333333  0.90665383  0.36388164  1.0
  Ni  Ni480  1  0.41666667  0.23998717  0.36388164  1.0
  Ni  Ni481  1  0.41666667  0.57332050  0.36388164  1.0
  Ni  Ni482  1  0.41666667  0.90665383  0.36388164  1.0
  Ni  Ni483  1  0.75000000  0.23998717  0.36388164  1.0
  Ni  Ni484  1  0.75000000  0.57332050  0.36388164  1.0
  Ni  Ni485  1  0.75000000  0.90665383  0.36388164  1.0
  Ni  Ni486  1  0.25000000  0.09334617  0.35040407  1.0
  Ni  Ni487  1  0.25000000  0.42667950  0.35040407  1.0
  Ni  Ni488  1  0.25000000  0.76001283  0.35040407  1.0
  Ni  Ni489  1  0.58333333  0.09334617  0.35040407  1.0
  Ni  Ni490  1  0.58333333  0.42667950  0.35040407  1.0
  Ni  Ni491  1  0.58333333  0.76001283  0.35040407  1.0
  Ni  Ni492  1  0.91666667  0.09334617  0.35040407  1.0
  Ni  Ni493  1  0.91666667  0.42667950  0.35040407  1.0
  Ni  Ni494  1  0.91666667  0.76001283  0.35040407  1.0
  Ni  Ni495  1  0.25000000  0.26001283  0.42183264  1.0
  Ni  Ni496  1  0.25000000  0.59334617  0.42183264  1.0
  Ni  Ni497  1  0.25000000  0.92667950  0.42183264  1.0
  Ni  Ni498  1  0.58333333  0.26001283  0.42183264  1.0
  Ni  Ni499  1  0.58333333  0.59334617  0.42183264  1.0
  Ni  Ni500  1  0.58333333  0.92667950  0.42183264  1.0
  Ni  Ni501  1  0.91666667  0.26001283  0.42183264  1.0
  Ni  Ni502  1  0.91666667  0.59334617  0.42183264  1.0
  Ni  Ni503  1  0.91666667  0.92667950  0.42183264  1.0
  Ni  Ni504  1  0.08333333  0.13185183  0.33588307  1.0
  Ni  Ni505  1  0.08333333  0.46518517  0.33588307  1.0
  Ni  Ni506  1  0.08333333  0.79851850  0.33588307  1.0
  Ni  Ni507  1  0.41666667  0.13185183  0.33588307  1.0
  Ni  Ni508  1  0.41666667  0.46518517  0.33588307  1.0
  Ni  Ni509  1  0.41666667  0.79851850  0.33588307  1.0
  Ni  Ni510  1  0.75000000  0.13185183  0.33588307  1.0
  Ni  Ni511  1  0.75000000  0.46518517  0.33588307  1.0
  Ni  Ni512  1  0.75000000  0.79851850  0.33588307  1.0
  Ni  Ni513  1  0.08333333  0.29851850  0.40731164  1.0
  Ni  Ni514  1  0.08333333  0.63185183  0.40731164  1.0
  Ni  Ni515  1  0.08333333  0.96518517  0.40731164  1.0
  Ni  Ni516  1  0.41666667  0.29851850  0.40731164  1.0
  Ni  Ni517  1  0.41666667  0.63185183  0.40731164  1.0
  Ni  Ni518  1  0.41666667  0.96518517  0.40731164  1.0
  Ni  Ni519  1  0.75000000  0.29851850  0.40731164  1.0
  Ni  Ni520  1  0.75000000  0.63185183  0.40731164  1.0
  Ni  Ni521  1  0.75000000  0.96518517  0.40731164  1.0
  Ni  Ni522  1  0.25000000  0.03481483  0.30697407  1.0
  Ni  Ni523  1  0.25000000  0.36814817  0.30697407  1.0
  Ni  Ni524  1  0.25000000  0.70148150  0.30697407  1.0
  Ni  Ni525  1  0.58333333  0.03481483  0.30697407  1.0
  Ni  Ni526  1  0.58333333  0.36814817  0.30697407  1.0
  Ni  Ni527  1  0.58333333  0.70148150  0.30697407  1.0
  Ni  Ni528  1  0.91666667  0.03481483  0.30697407  1.0
  Ni  Ni529  1  0.91666667  0.36814817  0.30697407  1.0
  Ni  Ni530  1  0.91666667  0.70148150  0.30697407  1.0
  Ni  Ni531  1  0.25000000  0.20148150  0.37840264  1.0
  Ni  Ni532  1  0.25000000  0.53481483  0.37840264  1.0
  Ni  Ni533  1  0.25000000  0.86814817  0.37840264  1.0
  Ni  Ni534  1  0.58333333  0.20148150  0.37840264  1.0
  Ni  Ni535  1  0.58333333  0.53481483  0.37840264  1.0
  Ni  Ni536  1  0.58333333  0.86814817  0.37840264  1.0
  Ni  Ni537  1  0.91666667  0.20148150  0.37840264  1.0
  Ni  Ni538  1  0.91666667  0.53481483  0.37840264  1.0
  Ni  Ni539  1  0.91666667  0.86814817  0.37840264  1.0
  Ni  Ni540  1  0.08333333  0.11814817  0.40143864  1.0
  Ni  Ni541  1  0.08333333  0.45148150  0.40143864  1.0
  Ni  Ni542  1  0.08333333  0.78481483  0.40143864  1.0
  Ni  Ni543  1  0.41666667  0.11814817  0.40143864  1.0
  Ni  Ni544  1  0.41666667  0.45148150  0.40143864  1.0
  Ni  Ni545  1  0.41666667  0.78481483  0.40143864  1.0
  Ni  Ni546  1  0.75000000  0.11814817  0.40143864  1.0
  Ni  Ni547  1  0.75000000  0.45148150  0.40143864  1.0
  Ni  Ni548  1  0.75000000  0.78481483  0.40143864  1.0
  Ni  Ni549  1  0.08333333  0.28481483  0.33001007  1.0
  Ni  Ni550  1  0.08333333  0.61814817  0.33001007  1.0
  Ni  Ni551  1  0.08333333  0.95148150  0.33001007  1.0
  Ni  Ni552  1  0.41666667  0.28481483  0.33001007  1.0
  Ni  Ni553  1  0.41666667  0.61814817  0.33001007  1.0
  Ni  Ni554  1  0.41666667  0.95148150  0.33001007  1.0
  Ni  Ni555  1  0.75000000  0.28481483  0.33001007  1.0
  Ni  Ni556  1  0.75000000  0.61814817  0.33001007  1.0
  Ni  Ni557  1  0.75000000  0.95148150  0.33001007  1.0
  Ni  Ni558  1  0.25000000  0.04851850  0.38427564  1.0
  Ni  Ni559  1  0.25000000  0.38185183  0.38427564  1.0
  Ni  Ni560  1  0.25000000  0.71518517  0.38427564  1.0
  Ni  Ni561  1  0.58333333  0.04851850  0.38427564  1.0
  Ni  Ni562  1  0.58333333  0.38185183  0.38427564  1.0
  Ni  Ni563  1  0.58333333  0.71518517  0.38427564  1.0
  Ni  Ni564  1  0.91666667  0.04851850  0.38427564  1.0
  Ni  Ni565  1  0.91666667  0.38185183  0.38427564  1.0
  Ni  Ni566  1  0.91666667  0.71518517  0.38427564  1.0
  Ni  Ni567  1  0.25000000  0.21518517  0.31284707  1.0
  Ni  Ni568  1  0.25000000  0.54851850  0.31284707  1.0
  Ni  Ni569  1  0.25000000  0.88185183  0.31284707  1.0
  Ni  Ni570  1  0.58333333  0.21518517  0.31284707  1.0
  Ni  Ni571  1  0.58333333  0.54851850  0.31284707  1.0
  Ni  Ni572  1  0.58333333  0.88185183  0.31284707  1.0
  Ni  Ni573  1  0.91666667  0.21518517  0.31284707  1.0
  Ni  Ni574  1  0.91666667  0.54851850  0.31284707  1.0
  Ni  Ni575  1  0.91666667  0.88185183  0.31284707  1.0
  Ge  Ge576  1  0.08333333  0.06449967  0.35482243  1.0
  Ge  Ge577  1  0.08333333  0.39783300  0.35482243  1.0
  Ge  Ge578  1  0.08333333  0.73116633  0.35482243  1.0
  Ge  Ge579  1  0.41666667  0.06449967  0.35482243  1.0
  Ge  Ge580  1  0.41666667  0.39783300  0.35482243  1.0
  Ge  Ge581  1  0.41666667  0.73116633  0.35482243  1.0
  Ge  Ge582  1  0.75000000  0.06449967  0.35482243  1.0
  Ge  Ge583  1  0.75000000  0.39783300  0.35482243  1.0
  Ge  Ge584  1  0.75000000  0.73116633  0.35482243  1.0
  Ge  Ge585  1  0.08333333  0.23116633  0.42625100  1.0
  Ge  Ge586  1  0.08333333  0.56449967  0.42625100  1.0
  Ge  Ge587  1  0.08333333  0.89783300  0.42625100  1.0
  Ge  Ge588  1  0.41666667  0.23116633  0.42625100  1.0
  Ge  Ge589  1  0.41666667  0.56449967  0.42625100  1.0
  Ge  Ge590  1  0.41666667  0.89783300  0.42625100  1.0
  Ge  Ge591  1  0.75000000  0.23116633  0.42625100  1.0
  Ge  Ge592  1  0.75000000  0.56449967  0.42625100  1.0
  Ge  Ge593  1  0.75000000  0.89783300  0.42625100  1.0
  Ge  Ge594  1  0.25000000  0.10216700  0.28803471  1.0
  Ge  Ge595  1  0.25000000  0.43550033  0.28803471  1.0
  Ge  Ge596  1  0.25000000  0.76883367  0.28803471  1.0
  Ge  Ge597  1  0.58333333  0.10216700  0.28803471  1.0
  Ge  Ge598  1  0.58333333  0.43550033  0.28803471  1.0
  Ge  Ge599  1  0.58333333  0.76883367  0.28803471  1.0
  Ge  Ge600  1  0.91666667  0.10216700  0.28803471  1.0
  Ge  Ge601  1  0.91666667  0.43550033  0.28803471  1.0
  Ge  Ge602  1  0.91666667  0.76883367  0.28803471  1.0
  Ge  Ge603  1  0.25000000  0.26883367  0.35946329  1.0
  Ge  Ge604  1  0.25000000  0.60216700  0.35946329  1.0
  Ge  Ge605  1  0.25000000  0.93550033  0.35946329  1.0
  Ge  Ge606  1  0.58333333  0.26883367  0.35946329  1.0
  Ge  Ge607  1  0.58333333  0.60216700  0.35946329  1.0
  Ge  Ge608  1  0.58333333  0.93550033  0.35946329  1.0
  Ge  Ge609  1  0.91666667  0.26883367  0.35946329  1.0
  Ge  Ge610  1  0.91666667  0.60216700  0.35946329  1.0
  Ge  Ge611  1  0.91666667  0.93550033  0.35946329  1.0
  Ge  Ge612  1  0.08333333  0.01883367  0.40667986  1.0
  Ge  Ge613  1  0.08333333  0.35216700  0.40667986  1.0
  Ge  Ge614  1  0.08333333  0.68550033  0.40667986  1.0
  Ge  Ge615  1  0.41666667  0.01883367  0.40667986  1.0
  Ge  Ge616  1  0.41666667  0.35216700  0.40667986  1.0
  Ge  Ge617  1  0.41666667  0.68550033  0.40667986  1.0
  Ge  Ge618  1  0.75000000  0.01883367  0.40667986  1.0
  Ge  Ge619  1  0.75000000  0.35216700  0.40667986  1.0
  Ge  Ge620  1  0.75000000  0.68550033  0.40667986  1.0
  Ge  Ge621  1  0.08333333  0.18550033  0.33525129  1.0
  Ge  Ge622  1  0.08333333  0.51883367  0.33525129  1.0
  Ge  Ge623  1  0.08333333  0.85216700  0.33525129  1.0
  Ge  Ge624  1  0.41666667  0.18550033  0.33525129  1.0
  Ge  Ge625  1  0.41666667  0.51883367  0.33525129  1.0
  Ge  Ge626  1  0.41666667  0.85216700  0.33525129  1.0
  Ge  Ge627  1  0.75000000  0.18550033  0.33525129  1.0
  Ge  Ge628  1  0.75000000  0.51883367  0.33525129  1.0
  Ge  Ge629  1  0.75000000  0.85216700  0.33525129  1.0
  Ge  Ge630  1  0.25000000  0.14783300  0.37903443  1.0
  Ge  Ge631  1  0.25000000  0.48116633  0.37903443  1.0
  Ge  Ge632  1  0.25000000  0.81449967  0.37903443  1.0
  Ge  Ge633  1  0.58333333  0.14783300  0.37903443  1.0
  Ge  Ge634  1  0.58333333  0.48116633  0.37903443  1.0
  Ge  Ge635  1  0.58333333  0.81449967  0.37903443  1.0
  Ge  Ge636  1  0.91666667  0.14783300  0.37903443  1.0
  Ge  Ge637  1  0.91666667  0.48116633  0.37903443  1.0
  Ge  Ge638  1  0.91666667  0.81449967  0.37903443  1.0
  Ge  Ge639  1  0.25000000  0.31449967  0.30760586  1.0
  Ge  Ge640  1  0.25000000  0.64783300  0.30760586  1.0
  Ge  Ge641  1  0.25000000  0.98116633  0.30760586  1.0
  Ge  Ge642  1  0.58333333  0.31449967  0.30760586  1.0
  Ge  Ge643  1  0.58333333  0.64783300  0.30760586  1.0
  Ge  Ge644  1  0.58333333  0.98116633  0.30760586  1.0
  Ge  Ge645  1  0.91666667  0.31449967  0.30760586  1.0
  Ge  Ge646  1  0.91666667  0.64783300  0.30760586  1.0
  Ge  Ge647  1  0.91666667  0.98116633  0.30760586  1.0
