# generated using pymatgen
data_Ni2Ge
_symmetry_space_group_name_H-M   'P 1'
_cell_length_a   20.83044209
_cell_length_b   32.84068176
_cell_length_c   56.12348630
_cell_angle_alpha   79.44944089
_cell_angle_beta   30.00000000
_cell_angle_gamma   71.50971385
_symmetry_Int_Tables_number   1
_chemical_formula_structural   Ni2Ge
_chemical_formula_sum   'Ni432 Ge216'
_cell_volume   17863.12410507
_cell_formula_units_Z   216
loop_
 _symmetry_equiv_pos_site_id
 _symmetry_equiv_pos_as_xyz
  1  'x, y, z'
loop_
 _atom_site_type_symbol
 _atom_site_label
 _atom_site_symmetry_multiplicity
 _atom_site_fract_x
 _atom_site_fract_y
 _atom_site_fract_z
 _atom_site_occupancy
  Ni  Ni0  1  0.16666667  0.16666667  0.03125000  1.0
  Ni  Ni1  1  0.16666667  0.50000000  0.03125000  1.0
  Ni  Ni2  1  0.16666667  0.83333333  0.03125000  1.0
  Ni  Ni3  1  0.50000000  0.16666667  0.03125000  1.0
  Ni  Ni4  1  0.50000000  0.50000000  0.03125000  1.0
  Ni  Ni5  1  0.50000000  0.83333333  0.03125000  1.0
  Ni  Ni6  1  0.83333333  0.16666667  0.03125000  1.0
  Ni  Ni7  1  0.83333333  0.50000000  0.03125000  1.0
  Ni  Ni8  1  0.83333333  0.83333333  0.03125000  1.0
  Ni  Ni9  1  0.00000000  0.00000000  0.06696429  1.0
  Ni  Ni10  1  0.00000000  0.33333333  0.06696429  1.0
  Ni  Ni11  1  0.00000000  0.66666667  0.06696429  1.0
  Ni  Ni12  1  0.33333333  0.00000000  0.06696429  1.0
  Ni  Ni13  1  0.33333333  0.33333333  0.06696429  1.0
  Ni  Ni14  1  0.33333333  0.66666667  0.06696429  1.0
  Ni  Ni15  1  0.66666667  0.00000000  0.06696429  1.0
  Ni  Ni16  1  0.66666667  0.33333333  0.06696429  1.0
  Ni  Ni17  1  0.66666667  0.66666667  0.06696429  1.0
  Ni  Ni18  1  0.08333333  0.25000000  0.04910714  1.0
  Ni  Ni19  1  0.08333333  0.58333333  0.04910714  1.0
  Ni  Ni20  1  0.08333333  0.91666667  0.04910714  1.0
  Ni  Ni21  1  0.41666667  0.25000000  0.04910714  1.0
  Ni  Ni22  1  0.41666667  0.58333333  0.04910714  1.0
  Ni  Ni23  1  0.41666667  0.91666667  0.04910714  1.0
  Ni  Ni24  1  0.75000000  0.25000000  0.04910714  1.0
  Ni  Ni25  1  0.75000000  0.58333333  0.04910714  1.0
  Ni  Ni26  1  0.75000000  0.91666667  0.04910714  1.0
  Ni  Ni27  1  0.25000000  0.08333333  0.01339286  1.0
  Ni  Ni28  1  0.25000000  0.41666667  0.01339286  1.0
  Ni  Ni29  1  0.25000000  0.75000000  0.01339286  1.0
  Ni  Ni30  1  0.58333333  0.08333333  0.01339286  1.0
  Ni  Ni31  1  0.58333333  0.41666667  0.01339286  1.0
  Ni  Ni32  1  0.58333333  0.75000000  0.01339286  1.0
  Ni  Ni33  1  0.91666667  0.08333333  0.01339286  1.0
  Ni  Ni34  1  0.91666667  0.41666667  0.01339286  1.0
  Ni  Ni35  1  0.91666667  0.75000000  0.01339286  1.0
  Ni  Ni36  1  0.15277778  0.29166667  0.05803571  1.0
  Ni  Ni37  1  0.15277778  0.62500000  0.05803571  1.0
  Ni  Ni38  1  0.15277778  0.95833333  0.05803571  1.0
  Ni  Ni39  1  0.48611111  0.29166667  0.05803571  1.0
  Ni  Ni40  1  0.48611111  0.62500000  0.05803571  1.0
  Ni  Ni41  1  0.48611111  0.95833333  0.05803571  1.0
  Ni  Ni42  1  0.81944444  0.29166667  0.05803571  1.0
  Ni  Ni43  1  0.81944444  0.62500000  0.05803571  1.0
  Ni  Ni44  1  0.81944444  0.95833333  0.05803571  1.0
  Ni  Ni45  1  0.31944444  0.12500000  0.02232143  1.0
  Ni  Ni46  1  0.31944444  0.45833333  0.02232143  1.0
  Ni  Ni47  1  0.31944444  0.79166667  0.02232143  1.0
  Ni  Ni48  1  0.65277778  0.12500000  0.02232143  1.0
  Ni  Ni49  1  0.65277778  0.45833333  0.02232143  1.0
  Ni  Ni50  1  0.65277778  0.79166667  0.02232143  1.0
  Ni  Ni51  1  0.98611111  0.12500000  0.02232143  1.0
  Ni  Ni52  1  0.98611111  0.45833333  0.02232143  1.0
  Ni  Ni53  1  0.98611111  0.79166667  0.02232143  1.0
  Ni  Ni54  1  0.01388889  0.20833333  0.04017857  1.0
  Ni  Ni55  1  0.01388889  0.54166667  0.04017857  1.0
  Ni  Ni56  1  0.01388889  0.87500000  0.04017857  1.0
  Ni  Ni57  1  0.34722222  0.20833333  0.04017857  1.0
  Ni  Ni58  1  0.34722222  0.54166667  0.04017857  1.0
  Ni  Ni59  1  0.34722222  0.87500000  0.04017857  1.0
  Ni  Ni60  1  0.68055556  0.20833333  0.04017857  1.0
  Ni  Ni61  1  0.68055556  0.54166667  0.04017857  1.0
  Ni  Ni62  1  0.68055556  0.87500000  0.04017857  1.0
  Ni  Ni63  1  0.18055556  0.04166667  0.00446429  1.0
  Ni  Ni64  1  0.18055556  0.37500000  0.00446429  1.0
  Ni  Ni65  1  0.18055556  0.70833333  0.00446429  1.0
  Ni  Ni66  1  0.51388889  0.04166667  0.00446429  1.0
  Ni  Ni67  1  0.51388889  0.37500000  0.00446429  1.0
  Ni  Ni68  1  0.51388889  0.70833333  0.00446429  1.0
  Ni  Ni69  1  0.84722222  0.04166667  0.00446429  1.0
  Ni  Ni70  1  0.84722222  0.37500000  0.00446429  1.0
  Ni  Ni71  1  0.84722222  0.70833333  0.00446429  1.0
  Ge  Ge72  1  0.23611111  0.20833333  0.04017857  1.0
  Ge  Ge73  1  0.23611111  0.54166667  0.04017857  1.0
  Ge  Ge74  1  0.23611111  0.87500000  0.04017857  1.0
  Ge  Ge75  1  0.56944444  0.20833333  0.04017857  1.0
  Ge  Ge76  1  0.56944444  0.54166667  0.04017857  1.0
  Ge  Ge77  1  0.56944444  0.87500000  0.04017857  1.0
  Ge  Ge78  1  0.90277778  0.20833333  0.04017857  1.0
  Ge  Ge79  1  0.90277778  0.54166667  0.04017857  1.0
  Ge  Ge80  1  0.90277778  0.87500000  0.04017857  1.0
  Ge  Ge81  1  0.06944444  0.04166667  0.00446429  1.0
  Ge  Ge82  1  0.06944444  0.37500000  0.00446429  1.0
  Ge  Ge83  1  0.06944444  0.70833333  0.00446429  1.0
  Ge  Ge84  1  0.40277778  0.04166667  0.00446429  1.0
  Ge  Ge85  1  0.40277778  0.37500000  0.00446429  1.0
  Ge  Ge86  1  0.40277778  0.70833333  0.00446429  1.0
  Ge  Ge87  1  0.73611111  0.04166667  0.00446429  1.0
  Ge  Ge88  1  0.73611111  0.37500000  0.00446429  1.0
  Ge  Ge89  1  0.73611111  0.70833333  0.00446429  1.0
  Ge  Ge90  1  0.26388889  0.29166667  0.05803571  1.0
  Ge  Ge91  1  0.26388889  0.62500000  0.05803571  1.0
  Ge  Ge92  1  0.26388889  0.95833333  0.05803571  1.0
  Ge  Ge93  1  0.59722222  0.29166667  0.05803571  1.0
  Ge  Ge94  1  0.59722222  0.62500000  0.05803571  1.0
  Ge  Ge95  1  0.59722222  0.95833333  0.05803571  1.0
  Ge  Ge96  1  0.93055556  0.29166667  0.05803571  1.0
  Ge  Ge97  1  0.93055556  0.62500000  0.05803571  1.0
  Ge  Ge98  1  0.93055556  0.95833333  0.05803571  1.0
  Ge  Ge99  1  0.09722222  0.12500000  0.02232143  1.0
  Ge  Ge100  1  0.09722222  0.45833333  0.02232143  1.0
  Ge  Ge101  1  0.09722222  0.79166667  0.02232143  1.0
  Ge  Ge102  1  0.43055556  0.12500000  0.02232143  1.0
  Ge  Ge103  1  0.43055556  0.45833333  0.02232143  1.0
  Ge  Ge104  1  0.43055556  0.79166667  0.02232143  1.0
  Ge  Ge105  1  0.76388889  0.12500000  0.02232143  1.0
  Ge  Ge106  1  0.76388889  0.45833333  0.02232143  1.0
  Ge  Ge107  1  0.76388889  0.79166667  0.02232143  1.0
  Ni  Ni108  1  0.16666667  0.16666667  0.10267857  1.0
  Ni  Ni109  1  0.16666667  0.50000000  0.10267857  1.0
  Ni  Ni110  1  0.16666667  0.83333333  0.10267857  1.0
  Ni  Ni111  1  0.50000000  0.16666667  0.10267857  1.0
  Ni  Ni112  1  0.50000000  0.50000000  0.10267857  1.0
  Ni  Ni113  1  0.50000000  0.83333333  0.10267857  1.0
  Ni  Ni114  1  0.83333333  0.16666667  0.10267857  1.0
  Ni  Ni115  1  0.83333333  0.50000000  0.10267857  1.0
  Ni  Ni116  1  0.83333333  0.83333333  0.10267857  1.0
  Ni  Ni117  1  0.00000000  0.00000000  0.13839286  1.0
  Ni  Ni118  1  0.00000000  0.33333333  0.13839286  1.0
  Ni  Ni119  1  0.00000000  0.66666667  0.13839286  1.0
  Ni  Ni120  1  0.33333333  0.00000000  0.13839286  1.0
  Ni  Ni121  1  0.33333333  0.33333333  0.13839286  1.0
  Ni  Ni122  1  0.33333333  0.66666667  0.13839286  1.0
  Ni  Ni123  1  0.66666667  0.00000000  0.13839286  1.0
  Ni  Ni124  1  0.66666667  0.33333333  0.13839286  1.0
  Ni  Ni125  1  0.66666667  0.66666667  0.13839286  1.0
  Ni  Ni126  1  0.08333333  0.25000000  0.12053571  1.0
  Ni  Ni127  1  0.08333333  0.58333333  0.12053571  1.0
  Ni  Ni128  1  0.08333333  0.91666667  0.12053571  1.0
  Ni  Ni129  1  0.41666667  0.25000000  0.12053571  1.0
  Ni  Ni130  1  0.41666667  0.58333333  0.12053571  1.0
  Ni  Ni131  1  0.41666667  0.91666667  0.12053571  1.0
  Ni  Ni132  1  0.75000000  0.25000000  0.12053571  1.0
  Ni  Ni133  1  0.75000000  0.58333333  0.12053571  1.0
  Ni  Ni134  1  0.75000000  0.91666667  0.12053571  1.0
  Ni  Ni135  1  0.25000000  0.08333333  0.08482143  1.0
  Ni  Ni136  1  0.25000000  0.41666667  0.08482143  1.0
  Ni  Ni137  1  0.25000000  0.75000000  0.08482143  1.0
  Ni  Ni138  1  0.58333333  0.08333333  0.08482143  1.0
  Ni  Ni139  1  0.58333333  0.41666667  0.08482143  1.0
  Ni  Ni140  1  0.58333333  0.75000000  0.08482143  1.0
  Ni  Ni141  1  0.91666667  0.08333333  0.08482143  1.0
  Ni  Ni142  1  0.91666667  0.41666667  0.08482143  1.0
  Ni  Ni143  1  0.91666667  0.75000000  0.08482143  1.0
  Ni  Ni144  1  0.15277778  0.29166667  0.12946429  1.0
  Ni  Ni145  1  0.15277778  0.62500000  0.12946429  1.0
  Ni  Ni146  1  0.15277778  0.95833333  0.12946429  1.0
  Ni  Ni147  1  0.48611111  0.29166667  0.12946429  1.0
  Ni  Ni148  1  0.48611111  0.62500000  0.12946429  1.0
  Ni  Ni149  1  0.48611111  0.95833333  0.12946429  1.0
  Ni  Ni150  1  0.81944444  0.29166667  0.12946429  1.0
  Ni  Ni151  1  0.81944444  0.62500000  0.12946429  1.0
  Ni  Ni152  1  0.81944444  0.95833333  0.12946429  1.0
  Ni  Ni153  1  0.31944444  0.12500000  0.09375000  1.0
  Ni  Ni154  1  0.31944444  0.45833333  0.09375000  1.0
  Ni  Ni155  1  0.31944444  0.79166667  0.09375000  1.0
  Ni  Ni156  1  0.65277778  0.12500000  0.09375000  1.0
  Ni  Ni157  1  0.65277778  0.45833333  0.09375000  1.0
  Ni  Ni158  1  0.65277778  0.79166667  0.09375000  1.0
  Ni  Ni159  1  0.98611111  0.12500000  0.09375000  1.0
  Ni  Ni160  1  0.98611111  0.45833333  0.09375000  1.0
  Ni  Ni161  1  0.98611111  0.79166667  0.09375000  1.0
  Ni  Ni162  1  0.01388889  0.20833333  0.11160714  1.0
  Ni  Ni163  1  0.01388889  0.54166667  0.11160714  1.0
  Ni  Ni164  1  0.01388889  0.87500000  0.11160714  1.0
  Ni  Ni165  1  0.34722222  0.20833333  0.11160714  1.0
  Ni  Ni166  1  0.34722222  0.54166667  0.11160714  1.0
  Ni  Ni167  1  0.34722222  0.87500000  0.11160714  1.0
  Ni  Ni168  1  0.68055556  0.20833333  0.11160714  1.0
  Ni  Ni169  1  0.68055556  0.54166667  0.11160714  1.0
  Ni  Ni170  1  0.68055556  0.87500000  0.11160714  1.0
  Ni  Ni171  1  0.18055556  0.04166667  0.07589286  1.0
  Ni  Ni172  1  0.18055556  0.37500000  0.07589286  1.0
  Ni  Ni173  1  0.18055556  0.70833333  0.07589286  1.0
  Ni  Ni174  1  0.51388889  0.04166667  0.07589286  1.0
  Ni  Ni175  1  0.51388889  0.37500000  0.07589286  1.0
  Ni  Ni176  1  0.51388889  0.70833333  0.07589286  1.0
  Ni  Ni177  1  0.84722222  0.04166667  0.07589286  1.0
  Ni  Ni178  1  0.84722222  0.37500000  0.07589286  1.0
  Ni  Ni179  1  0.84722222  0.70833333  0.07589286  1.0
  Ge  Ge180  1  0.23611111  0.20833333  0.11160714  1.0
  Ge  Ge181  1  0.23611111  0.54166667  0.11160714  1.0
  Ge  Ge182  1  0.23611111  0.87500000  0.11160714  1.0
  Ge  Ge183  1  0.56944444  0.20833333  0.11160714  1.0
  Ge  Ge184  1  0.56944444  0.54166667  0.11160714  1.0
  Ge  Ge185  1  0.56944444  0.87500000  0.11160714  1.0
  Ge  Ge186  1  0.90277778  0.20833333  0.11160714  1.0
  Ge  Ge187  1  0.90277778  0.54166667  0.11160714  1.0
  Ge  Ge188  1  0.90277778  0.87500000  0.11160714  1.0
  Ge  Ge189  1  0.06944444  0.04166667  0.07589286  1.0
  Ge  Ge190  1  0.06944444  0.37500000  0.07589286  1.0
  Ge  Ge191  1  0.06944444  0.70833333  0.07589286  1.0
  Ge  Ge192  1  0.40277778  0.04166667  0.07589286  1.0
  Ge  Ge193  1  0.40277778  0.37500000  0.07589286  1.0
  Ge  Ge194  1  0.40277778  0.70833333  0.07589286  1.0
  Ge  Ge195  1  0.73611111  0.04166667  0.07589286  1.0
  Ge  Ge196  1  0.73611111  0.37500000  0.07589286  1.0
  Ge  Ge197  1  0.73611111  0.70833333  0.07589286  1.0
  Ge  Ge198  1  0.26388889  0.29166667  0.12946429  1.0
  Ge  Ge199  1  0.26388889  0.62500000  0.12946429  1.0
  Ge  Ge200  1  0.26388889  0.95833333  0.12946429  1.0
  Ge  Ge201  1  0.59722222  0.29166667  0.12946429  1.0
  Ge  Ge202  1  0.59722222  0.62500000  0.12946429  1.0
  Ge  Ge203  1  0.59722222  0.95833333  0.12946429  1.0
  Ge  Ge204  1  0.93055556  0.29166667  0.12946429  1.0
  Ge  Ge205  1  0.93055556  0.62500000  0.12946429  1.0
  Ge  Ge206  1  0.93055556  0.95833333  0.12946429  1.0
  Ge  Ge207  1  0.09722222  0.12500000  0.09375000  1.0
  Ge  Ge208  1  0.09722222  0.45833333  0.09375000  1.0
  Ge  Ge209  1  0.09722222  0.79166667  0.09375000  1.0
  Ge  Ge210  1  0.43055556  0.12500000  0.09375000  1.0
  Ge  Ge211  1  0.43055556  0.45833333  0.09375000  1.0
  Ge  Ge212  1  0.43055556  0.79166667  0.09375000  1.0
  Ge  Ge213  1  0.76388889  0.12500000  0.09375000  1.0
  Ge  Ge214  1  0.76388889  0.45833333  0.09375000  1.0
  Ge  Ge215  1  0.76388889  0.79166667  0.09375000  1.0
  Ni  Ni216  1  0.16666667  0.16666667  0.17410714  1.0
  Ni  Ni217  1  0.16666667  0.50000000  0.17410714  1.0
  Ni  Ni218  1  0.16666667  0.83333333  0.17410714  1.0
  Ni  Ni219  1  0.50000000  0.16666667  0.17410714  1.0
  Ni  Ni220  1  0.50000000  0.50000000  0.17410714  1.0
  Ni  Ni221  1  0.50000000  0.83333333  0.17410714  1.0
  Ni  Ni222  1  0.83333333  0.16666667  0.17410714  1.0
  Ni  Ni223  1  0.83333333  0.50000000  0.17410714  1.0
  Ni  Ni224  1  0.83333333  0.83333333  0.17410714  1.0
  Ni  Ni225  1  0.00000000  0.00000000  0.20982143  1.0
  Ni  Ni226  1  0.00000000  0.33333333  0.20982143  1.0
  Ni  Ni227  1  0.00000000  0.66666667  0.20982143  1.0
  Ni  Ni228  1  0.33333333  0.00000000  0.20982143  1.0
  Ni  Ni229  1  0.33333333  0.33333333  0.20982143  1.0
  Ni  Ni230  1  0.33333333  0.66666667  0.20982143  1.0
  Ni  Ni231  1  0.66666667  0.00000000  0.20982143  1.0
  Ni  Ni232  1  0.66666667  0.33333333  0.20982143  1.0
  Ni  Ni233  1  0.66666667  0.66666667  0.20982143  1.0
  Ni  Ni234  1  0.08333333  0.25000000  0.19196429  1.0
  Ni  Ni235  1  0.08333333  0.58333333  0.19196429  1.0
  Ni  Ni236  1  0.08333333  0.91666667  0.19196429  1.0
  Ni  Ni237  1  0.41666667  0.25000000  0.19196429  1.0
  Ni  Ni238  1  0.41666667  0.58333333  0.19196429  1.0
  Ni  Ni239  1  0.41666667  0.91666667  0.19196429  1.0
  Ni  Ni240  1  0.75000000  0.25000000  0.19196429  1.0
  Ni  Ni241  1  0.75000000  0.58333333  0.19196429  1.0
  Ni  Ni242  1  0.75000000  0.91666667  0.19196429  1.0
  Ni  Ni243  1  0.25000000  0.08333333  0.15625000  1.0
  Ni  Ni244  1  0.25000000  0.41666667  0.15625000  1.0
  Ni  Ni245  1  0.25000000  0.75000000  0.15625000  1.0
  Ni  Ni246  1  0.58333333  0.08333333  0.15625000  1.0
  Ni  Ni247  1  0.58333333  0.41666667  0.15625000  1.0
  Ni  Ni248  1  0.58333333  0.75000000  0.15625000  1.0
  Ni  Ni249  1  0.91666667  0.08333333  0.15625000  1.0
  Ni  Ni250  1  0.91666667  0.41666667  0.15625000  1.0
  Ni  Ni251  1  0.91666667  0.75000000  0.15625000  1.0
  Ni  Ni252  1  0.15277778  0.29166667  0.20089286  1.0
  Ni  Ni253  1  0.15277778  0.62500000  0.20089286  1.0
  Ni  Ni254  1  0.15277778  0.95833333  0.20089286  1.0
  Ni  Ni255  1  0.48611111  0.29166667  0.20089286  1.0
  Ni  Ni256  1  0.48611111  0.62500000  0.20089286  1.0
  Ni  Ni257  1  0.48611111  0.95833333  0.20089286  1.0
  Ni  Ni258  1  0.81944444  0.29166667  0.20089286  1.0
  Ni  Ni259  1  0.81944444  0.62500000  0.20089286  1.0
  Ni  Ni260  1  0.81944444  0.95833333  0.20089286  1.0
  Ni  Ni261  1  0.31944444  0.12500000  0.16517857  1.0
  Ni  Ni262  1  0.31944444  0.45833333  0.16517857  1.0
  Ni  Ni263  1  0.31944444  0.79166667  0.16517857  1.0
  Ni  Ni264  1  0.65277778  0.12500000  0.16517857  1.0
  Ni  Ni265  1  0.65277778  0.45833333  0.16517857  1.0
  Ni  Ni266  1  0.65277778  0.79166667  0.16517857  1.0
  Ni  Ni267  1  0.98611111  0.12500000  0.16517857  1.0
  Ni  Ni268  1  0.98611111  0.45833333  0.16517857  1.0
  Ni  Ni269  1  0.98611111  0.79166667  0.16517857  1.0
  Ni  Ni270  1  0.01388889  0.20833333  0.18303571  1.0
  Ni  Ni271  1  0.01388889  0.54166667  0.18303571  1.0
  Ni  Ni272  1  0.01388889  0.87500000  0.18303571  1.0
  Ni  Ni273  1  0.34722222  0.20833333  0.18303571  1.0
  Ni  Ni274  1  0.34722222  0.54166667  0.18303571  1.0
  Ni  Ni275  1  0.34722222  0.87500000  0.18303571  1.0
  Ni  Ni276  1  0.68055556  0.20833333  0.18303571  1.0
  Ni  Ni277  1  0.68055556  0.54166667  0.18303571  1.0
  Ni  Ni278  1  0.68055556  0.87500000  0.18303571  1.0
  Ni  Ni279  1  0.18055556  0.04166667  0.14732143  1.0
  Ni  Ni280  1  0.18055556  0.37500000  0.14732143  1.0
  Ni  Ni281  1  0.18055556  0.70833333  0.14732143  1.0
  Ni  Ni282  1  0.51388889  0.04166667  0.14732143  1.0
  Ni  Ni283  1  0.51388889  0.37500000  0.14732143  1.0
  Ni  Ni284  1  0.51388889  0.70833333  0.14732143  1.0
  Ni  Ni285  1  0.84722222  0.04166667  0.14732143  1.0
  Ni  Ni286  1  0.84722222  0.37500000  0.14732143  1.0
  Ni  Ni287  1  0.84722222  0.70833333  0.14732143  1.0
  Ge  Ge288  1  0.23611111  0.20833333  0.18303571  1.0
  Ge  Ge289  1  0.23611111  0.54166667  0.18303571  1.0
  Ge  Ge290  1  0.23611111  0.87500000  0.18303571  1.0
  Ge  Ge291  1  0.56944444  0.20833333  0.18303571  1.0
  Ge  Ge292  1  0.56944444  0.54166667  0.18303571  1.0
  Ge  Ge293  1  0.56944444  0.87500000  0.18303571  1.0
  Ge  Ge294  1  0.90277778  0.20833333  0.18303571  1.0
  Ge  Ge295  1  0.90277778  0.54166667  0.18303571  1.0
  Ge  Ge296  1  0.90277778  0.87500000  0.18303571  1.0
  Ge  Ge297  1  0.06944444  0.04166667  0.14732143  1.0
  Ge  Ge298  1  0.06944444  0.37500000  0.14732143  1.0
  Ge  Ge299  1  0.06944444  0.70833333  0.14732143  1.0
  Ge  Ge300  1  0.40277778  0.04166667  0.14732143  1.0
  Ge  Ge301  1  0.40277778  0.37500000  0.14732143  1.0
  Ge  Ge302  1  0.40277778  0.70833333  0.14732143  1.0
  Ge  Ge303  1  0.73611111  0.04166667  0.14732143  1.0
  Ge  Ge304  1  0.73611111  0.37500000  0.14732143  1.0
  Ge  Ge305  1  0.73611111  0.70833333  0.14732143  1.0
  Ge  Ge306  1  0.26388889  0.29166667  0.20089286  1.0
  Ge  Ge307  1  0.26388889  0.62500000  0.20089286  1.0
  Ge  Ge308  1  0.26388889  0.95833333  0.20089286  1.0
  Ge  Ge309  1  0.59722222  0.29166667  0.20089286  1.0
  Ge  Ge310  1  0.59722222  0.62500000  0.20089286  1.0
  Ge  Ge311  1  0.59722222  0.95833333  0.20089286  1.0
  Ge  Ge312  1  0.93055556  0.29166667  0.20089286  1.0
  Ge  Ge313  1  0.93055556  0.62500000  0.20089286  1.0
  Ge  Ge314  1  0.93055556  0.95833333  0.20089286  1.0
  Ge  Ge315  1  0.09722222  0.12500000  0.16517857  1.0
  Ge  Ge316  1  0.09722222  0.45833333  0.16517857  1.0
  Ge  Ge317  1  0.09722222  0.79166667  0.16517857  1.0
  Ge  Ge318  1  0.43055556  0.12500000  0.16517857  1.0
  Ge  Ge319  1  0.43055556  0.45833333  0.16517857  1.0
  Ge  Ge320  1  0.43055556  0.79166667  0.16517857  1.0
  Ge  Ge321  1  0.76388889  0.12500000  0.16517857  1.0
  Ge  Ge322  1  0.76388889  0.45833333  0.16517857  1.0
  Ge  Ge323  1  0.76388889  0.79166667  0.16517857  1.0
  Ni  Ni324  1  0.16666667  0.16666667  0.24553571  1.0
  Ni  Ni325  1  0.16666667  0.50000000  0.24553571  1.0
  Ni  Ni326  1  0.16666667  0.83333333  0.24553571  1.0
  Ni  Ni327  1  0.50000000  0.16666667  0.24553571  1.0
  Ni  Ni328  1  0.50000000  0.50000000  0.24553571  1.0
  Ni  Ni329  1  0.50000000  0.83333333  0.24553571  1.0
  Ni  Ni330  1  0.83333333  0.16666667  0.24553571  1.0
  Ni  Ni331  1  0.83333333  0.50000000  0.24553571  1.0
  Ni  Ni332  1  0.83333333  0.83333333  0.24553571  1.0
  Ni  Ni333  1  0.00000000  0.00000000  0.28125000  1.0
  Ni  Ni334  1  0.00000000  0.33333333  0.28125000  1.0
  Ni  Ni335  1  0.00000000  0.66666667  0.28125000  1.0
  Ni  Ni336  1  0.33333333  0.00000000  0.28125000  1.0
  Ni  Ni337  1  0.33333333  0.33333333  0.28125000  1.0
  Ni  Ni338  1  0.33333333  0.66666667  0.28125000  1.0
  Ni  Ni339  1  0.66666667  0.00000000  0.28125000  1.0
  Ni  Ni340  1  0.66666667  0.33333333  0.28125000  1.0
  Ni  Ni341  1  0.66666667  0.66666667  0.28125000  1.0
  Ni  Ni342  1  0.08333333  0.25000000  0.26339286  1.0
  Ni  Ni343  1  0.08333333  0.58333333  0.26339286  1.0
  Ni  Ni344  1  0.08333333  0.91666667  0.26339286  1.0
  Ni  Ni345  1  0.41666667  0.25000000  0.26339286  1.0
  Ni  Ni346  1  0.41666667  0.58333333  0.26339286  1.0
  Ni  Ni347  1  0.41666667  0.91666667  0.26339286  1.0
  Ni  Ni348  1  0.75000000  0.25000000  0.26339286  1.0
  Ni  Ni349  1  0.75000000  0.58333333  0.26339286  1.0
  Ni  Ni350  1  0.75000000  0.91666667  0.26339286  1.0
  Ni  Ni351  1  0.25000000  0.08333333  0.22767857  1.0
  Ni  Ni352  1  0.25000000  0.41666667  0.22767857  1.0
  Ni  Ni353  1  0.25000000  0.75000000  0.22767857  1.0
  Ni  Ni354  1  0.58333333  0.08333333  0.22767857  1.0
  Ni  Ni355  1  0.58333333  0.41666667  0.22767857  1.0
  Ni  Ni356  1  0.58333333  0.75000000  0.22767857  1.0
  Ni  Ni357  1  0.91666667  0.08333333  0.22767857  1.0
  Ni  Ni358  1  0.91666667  0.41666667  0.22767857  1.0
  Ni  Ni359  1  0.91666667  0.75000000  0.22767857  1.0
  Ni  Ni360  1  0.15277778  0.29166667  0.27232143  1.0
  Ni  Ni361  1  0.15277778  0.62500000  0.27232143  1.0
  Ni  Ni362  1  0.15277778  0.95833333  0.27232143  1.0
  Ni  Ni363  1  0.48611111  0.29166667  0.27232143  1.0
  Ni  Ni364  1  0.48611111  0.62500000  0.27232143  1.0
  Ni  Ni365  1  0.48611111  0.95833333  0.27232143  1.0
  Ni  Ni366  1  0.81944444  0.29166667  0.27232143  1.0
  Ni  Ni367  1  0.81944444  0.62500000  0.27232143  1.0
  Ni  Ni368  1  0.81944444  0.95833333  0.27232143  1.0
  Ni  Ni369  1  0.31944444  0.12500000  0.23660714  1.0
  Ni  Ni370  1  0.31944444  0.45833333  0.23660714  1.0
  Ni  Ni371  1  0.31944444  0.79166667  0.23660714  1.0
  Ni  Ni372  1  0.65277778  0.12500000  0.23660714  1.0
  Ni  Ni373  1  0.65277778  0.45833333  0.23660714  1.0
  Ni  Ni374  1  0.65277778  0.79166667  0.23660714  1.0
  Ni  Ni375  1  0.98611111  0.12500000  0.23660714  1.0
  Ni  Ni376  1  0.98611111  0.45833333  0.23660714  1.0
  Ni  Ni377  1  0.98611111  0.79166667  0.23660714  1.0
  Ni  Ni378  1  0.01388889  0.20833333  0.25446429  1.0
  Ni  Ni379  1  0.01388889  0.54166667  0.25446429  1.0
  Ni  Ni380  1  0.01388889  0.87500000  0.25446429  1.0
  Ni  Ni381  1  0.34722222  0.20833333  0.25446429  1.0
  Ni  Ni382  1  0.34722222  0.54166667  0.25446429  1.0
  Ni  Ni383  1  0.34722222  0.87500000  0.25446429  1.0
  Ni  Ni384  1  0.68055556  0.20833333  0.25446429  1.0
  Ni  Ni385  1  0.68055556  0.54166667  0.25446429  1.0
  Ni  Ni386  1  0.68055556  0.87500000  0.25446429  1.0
  Ni  Ni387  1  0.18055556  0.04166667  0.21875000  1.0
  Ni  Ni388  1  0.18055556  0.37500000  0.21875000  1.0
  Ni  Ni389  1  0.18055556  0.70833333  0.21875000  1.0
  Ni  Ni390  1  0.51388889  0.04166667  0.21875000  1.0
  Ni  Ni391  1  0.51388889  0.37500000  0.21875000  1.0
  Ni  Ni392  1  0.51388889  0.70833333  0.21875000  1.0
  Ni  Ni393  1  0.84722222  0.04166667  0.21875000  1.0
  Ni  Ni394  1  0.84722222  0.37500000  0.21875000  1.0
  Ni  Ni395  1  0.84722222  0.70833333  0.21875000  1.0
  Ge  Ge396  1  0.23611111  0.20833333  0.25446429  1.0
  Ge  Ge397  1  0.23611111  0.54166667  0.25446429  1.0
  Ge  Ge398  1  0.23611111  0.87500000  0.25446429  1.0
  Ge  Ge399  1  0.56944444  0.20833333  0.25446429  1.0
  Ge  Ge400  1  0.56944444  0.54166667  0.25446429  1.0
  Ge  Ge401  1  0.56944444  0.87500000  0.25446429  1.0
  Ge  Ge402  1  0.90277778  0.20833333  0.25446429  1.0
  Ge  Ge403  1  0.90277778  0.54166667  0.25446429  1.0
  Ge  Ge404  1  0.90277778  0.87500000  0.25446429  1.0
  Ge  Ge405  1  0.06944444  0.04166667  0.21875000  1.0
  Ge  Ge406  1  0.06944444  0.37500000  0.21875000  1.0
  Ge  Ge407  1  0.06944444  0.70833333  0.21875000  1.0
  Ge  Ge408  1  0.40277778  0.04166667  0.21875000  1.0
  Ge  Ge409  1  0.40277778  0.37500000  0.21875000  1.0
  Ge  Ge410  1  0.40277778  0.70833333  0.21875000  1.0
  Ge  Ge411  1  0.73611111  0.04166667  0.21875000  1.0
  Ge  Ge412  1  0.73611111  0.37500000  0.21875000  1.0
  Ge  Ge413  1  0.73611111  0.70833333  0.21875000  1.0
  Ge  Ge414  1  0.26388889  0.29166667  0.27232143  1.0
  Ge  Ge415  1  0.26388889  0.62500000  0.27232143  1.0
  Ge  Ge416  1  0.26388889  0.95833333  0.27232143  1.0
  Ge  Ge417  1  0.59722222  0.29166667  0.27232143  1.0
  Ge  Ge418  1  0.59722222  0.62500000  0.27232143  1.0
  Ge  Ge419  1  0.59722222  0.95833333  0.27232143  1.0
  Ge  Ge420  1  0.93055556  0.29166667  0.27232143  1.0
  Ge  Ge421  1  0.93055556  0.62500000  0.27232143  1.0
  Ge  Ge422  1  0.93055556  0.95833333  0.27232143  1.0
  Ge  Ge423  1  0.09722222  0.12500000  0.23660714  1.0
  Ge  Ge424  1  0.09722222  0.45833333  0.23660714  1.0
  Ge  Ge425  1  0.09722222  0.79166667  0.23660714  1.0
  Ge  Ge426  1  0.43055556  0.12500000  0.23660714  1.0
  Ge  Ge427  1  0.43055556  0.45833333  0.23660714  1.0
  Ge  Ge428  1  0.43055556  0.79166667  0.23660714  1.0
  Ge  Ge429  1  0.76388889  0.12500000  0.23660714  1.0
  Ge  Ge430  1  0.76388889  0.45833333  0.23660714  1.0
  Ge  Ge431  1  0.76388889  0.79166667  0.23660714  1.0
  Ni  Ni432  1  0.16666667  0.16666667  0.31696429  1.0
  Ni  Ni433  1  0.16666667  0.50000000  0.31696429  1.0
  Ni  Ni434  1  0.16666667  0.83333333  0.31696429  1.0
  Ni  Ni435  1  0.50000000  0.16666667  0.31696429  1.0
  Ni  Ni436  1  0.50000000  0.50000000  0.31696429  1.0
  Ni  Ni437  1  0.50000000  0.83333333  0.31696429  1.0
  Ni  Ni438  1  0.83333333  0.16666667  0.31696429  1.0
  Ni  Ni439  1  0.83333333  0.50000000  0.31696429  1.0
  Ni  Ni440  1  0.83333333  0.83333333  0.31696429  1.0
  Ni  Ni441  1  0.00000000  0.00000000  0.35267857  1.0
  Ni  Ni442  1  0.00000000  0.33333333  0.35267857  1.0
  Ni  Ni443  1  0.00000000  0.66666667  0.35267857  1.0
  Ni  Ni444  1  0.33333333  0.00000000  0.35267857  1.0
  Ni  Ni445  1  0.33333333  0.33333333  0.35267857  1.0
  Ni  Ni446  1  0.33333333  0.66666667  0.35267857  1.0
  Ni  Ni447  1  0.66666667  0.00000000  0.35267857  1.0
  Ni  Ni448  1  0.66666667  0.33333333  0.35267857  1.0
  Ni  Ni449  1  0.66666667  0.66666667  0.35267857  1.0
  Ni  Ni450  1  0.08333333  0.25000000  0.33482143  1.0
  Ni  Ni451  1  0.08333333  0.58333333  0.33482143  1.0
  Ni  Ni452  1  0.08333333  0.91666667  0.33482143  1.0
  Ni  Ni453  1  0.41666667  0.25000000  0.33482143  1.0
  Ni  Ni454  1  0.41666667  0.58333333  0.33482143  1.0
  Ni  Ni455  1  0.41666667  0.91666667  0.33482143  1.0
  Ni  Ni456  1  0.75000000  0.25000000  0.33482143  1.0
  Ni  Ni457  1  0.75000000  0.58333333  0.33482143  1.0
  Ni  Ni458  1  0.75000000  0.91666667  0.33482143  1.0
  Ni  Ni459  1  0.25000000  0.08333333  0.29910714  1.0
  Ni  Ni460  1  0.25000000  0.41666667  0.29910714  1.0
  Ni  Ni461  1  0.25000000  0.75000000  0.29910714  1.0
  Ni  Ni462  1  0.58333333  0.08333333  0.29910714  1.0
  Ni  Ni463  1  0.58333333  0.41666667  0.29910714  1.0
  Ni  Ni464  1  0.58333333  0.75000000  0.29910714  1.0
  Ni  Ni465  1  0.91666667  0.08333333  0.29910714  1.0
  Ni  Ni466  1  0.91666667  0.41666667  0.29910714  1.0
  Ni  Ni467  1  0.91666667  0.75000000  0.29910714  1.0
  Ni  Ni468  1  0.15277778  0.29166667  0.34375000  1.0
  Ni  Ni469  1  0.15277778  0.62500000  0.34375000  1.0
  Ni  Ni470  1  0.15277778  0.95833333  0.34375000  1.0
  Ni  Ni471  1  0.48611111  0.29166667  0.34375000  1.0
  Ni  Ni472  1  0.48611111  0.62500000  0.34375000  1.0
  Ni  Ni473  1  0.48611111  0.95833333  0.34375000  1.0
  Ni  Ni474  1  0.81944444  0.29166667  0.34375000  1.0
  Ni  Ni475  1  0.81944444  0.62500000  0.34375000  1.0
  Ni  Ni476  1  0.81944444  0.95833333  0.34375000  1.0
  Ni  Ni477  1  0.31944444  0.12500000  0.30803571  1.0
  Ni  Ni478  1  0.31944444  0.45833333  0.30803571  1.0
  Ni  Ni479  1  0.31944444  0.79166667  0.30803571  1.0
  Ni  Ni480  1  0.65277778  0.12500000  0.30803571  1.0
  Ni  Ni481  1  0.65277778  0.45833333  0.30803571  1.0
  Ni  Ni482  1  0.65277778  0.79166667  0.30803571  1.0
  Ni  Ni483  1  0.98611111  0.12500000  0.30803571  1.0
  Ni  Ni484  1  0.98611111  0.45833333  0.30803571  1.0
  Ni  Ni485  1  0.98611111  0.79166667  0.30803571  1.0
  Ni  Ni486  1  0.01388889  0.20833333  0.32589286  1.0
  Ni  Ni487  1  0.01388889  0.54166667  0.32589286  1.0
  Ni  Ni488  1  0.01388889  0.87500000  0.32589286  1.0
  Ni  Ni489  1  0.34722222  0.20833333  0.32589286  1.0
  Ni  Ni490  1  0.34722222  0.54166667  0.32589286  1.0
  Ni  Ni491  1  0.34722222  0.87500000  0.32589286  1.0
  Ni  Ni492  1  0.68055556  0.20833333  0.32589286  1.0
  Ni  Ni493  1  0.68055556  0.54166667  0.32589286  1.0
  Ni  Ni494  1  0.68055556  0.87500000  0.32589286  1.0
  Ni  Ni495  1  0.18055556  0.04166667  0.29017857  1.0
  Ni  Ni496  1  0.18055556  0.37500000  0.29017857  1.0
  Ni  Ni497  1  0.18055556  0.70833333  0.29017857  1.0
  Ni  Ni498  1  0.51388889  0.04166667  0.29017857  1.0
  Ni  Ni499  1  0.51388889  0.37500000  0.29017857  1.0
  Ni  Ni500  1  0.51388889  0.70833333  0.29017857  1.0
  Ni  Ni501  1  0.84722222  0.04166667  0.29017857  1.0
  Ni  Ni502  1  0.84722222  0.37500000  0.29017857  1.0
  Ni  Ni503  1  0.84722222  0.70833333  0.29017857  1.0
  Ge  Ge504  1  0.23611111  0.20833333  0.32589286  1.0
  Ge  Ge505  1  0.23611111  0.54166667  0.32589286  1.0
  Ge  Ge506  1  0.23611111  0.87500000  0.32589286  1.0
  Ge  Ge507  1  0.56944444  0.20833333  0.32589286  1.0
  Ge  Ge508  1  0.56944444  0.54166667  0.32589286  1.0
  Ge  Ge509  1  0.56944444  0.87500000  0.32589286  1.0
  Ge  Ge510  1  0.90277778  0.20833333  0.32589286  1.0
  Ge  Ge511  1  0.90277778  0.54166667  0.32589286  1.0
  Ge  Ge512  1  0.90277778  0.87500000  0.32589286  1.0
  Ge  Ge513  1  0.06944444  0.04166667  0.29017857  1.0
  Ge  Ge514  1  0.06944444  0.37500000  0.29017857  1.0
  Ge  Ge515  1  0.06944444  0.70833333  0.29017857  1.0
  Ge  Ge516  1  0.40277778  0.04166667  0.29017857  1.0
  Ge  Ge517  1  0.40277778  0.37500000  0.29017857  1.0
  Ge  Ge518  1  0.40277778  0.70833333  0.29017857  1.0
  Ge  Ge519  1  0.73611111  0.04166667  0.29017857  1.0
  Ge  Ge520  1  0.73611111  0.37500000  0.29017857  1.0
  Ge  Ge521  1  0.73611111  0.70833333  0.29017857  1.0
  Ge  Ge522  1  0.26388889  0.29166667  0.34375000  1.0
  Ge  Ge523  1  0.26388889  0.62500000  0.34375000  1.0
  Ge  Ge524  1  0.26388889  0.95833333  0.34375000  1.0
  Ge  Ge525  1  0.59722222  0.29166667  0.34375000  1.0
  Ge  Ge526  1  0.59722222  0.62500000  0.34375000  1.0
  Ge  Ge527  1  0.59722222  0.95833333  0.34375000  1.0
  Ge  Ge528  1  0.93055556  0.29166667  0.34375000  1.0
  Ge  Ge529  1  0.93055556  0.62500000  0.34375000  1.0
  Ge  Ge530  1  0.93055556  0.95833333  0.34375000  1.0
  Ge  Ge531  1  0.09722222  0.12500000  0.30803571  1.0
  Ge  Ge532  1  0.09722222  0.45833333  0.30803571  1.0
  Ge  Ge533  1  0.09722222  0.79166667  0.30803571  1.0
  Ge  Ge534  1  0.43055556  0.12500000  0.30803571  1.0
  Ge  Ge535  1  0.43055556  0.45833333  0.30803571  1.0
  Ge  Ge536  1  0.43055556  0.79166667  0.30803571  1.0
  Ge  Ge537  1  0.76388889  0.12500000  0.30803571  1.0
  Ge  Ge538  1  0.76388889  0.45833333  0.30803571  1.0
  Ge  Ge539  1  0.76388889  0.79166667  0.30803571  1.0
  Ni  Ni540  1  0.16666667  0.16666667  0.38839286  1.0
  Ni  Ni541  1  0.16666667  0.50000000  0.38839286  1.0
  Ni  Ni542  1  0.16666667  0.83333333  0.38839286  1.0
  Ni  Ni543  1  0.50000000  0.16666667  0.38839286  1.0
  Ni  Ni544  1  0.50000000  0.50000000  0.38839286  1.0
  Ni  Ni545  1  0.50000000  0.83333333  0.38839286  1.0
  Ni  Ni546  1  0.83333333  0.16666667  0.38839286  1.0
  Ni  Ni547  1  0.83333333  0.50000000  0.38839286  1.0
  Ni  Ni548  1  0.83333333  0.83333333  0.38839286  1.0
  Ni  Ni549  1  0.00000000  0.00000000  0.42410714  1.0
  Ni  Ni550  1  0.00000000  0.33333333  0.42410714  1.0
  Ni  Ni551  1  0.00000000  0.66666667  0.42410714  1.0
  Ni  Ni552  1  0.33333333  0.00000000  0.42410714  1.0
  Ni  Ni553  1  0.33333333  0.33333333  0.42410714  1.0
  Ni  Ni554  1  0.33333333  0.66666667  0.42410714  1.0
  Ni  Ni555  1  0.66666667  0.00000000  0.42410714  1.0
  Ni  Ni556  1  0.66666667  0.33333333  0.42410714  1.0
  Ni  Ni557  1  0.66666667  0.66666667  0.42410714  1.0
  Ni  Ni558  1  0.08333333  0.25000000  0.40625000  1.0
  Ni  Ni559  1  0.08333333  0.58333333  0.40625000  1.0
  Ni  Ni560  1  0.08333333  0.91666667  0.40625000  1.0
  Ni  Ni561  1  0.41666667  0.25000000  0.40625000  1.0
  Ni  Ni562  1  0.41666667  0.58333333  0.40625000  1.0
  Ni  Ni563  1  0.41666667  0.91666667  0.40625000  1.0
  Ni  Ni564  1  0.75000000  0.25000000  0.40625000  1.0
  Ni  Ni565  1  0.75000000  0.58333333  0.40625000  1.0
  Ni  Ni566  1  0.75000000  0.91666667  0.40625000  1.0
  Ni  Ni567  1  0.25000000  0.08333333  0.37053571  1.0
  Ni  Ni568  1  0.25000000  0.41666667  0.37053571  1.0
  Ni  Ni569  1  0.25000000  0.75000000  0.37053571  1.0
  Ni  Ni570  1  0.58333333  0.08333333  0.37053571  1.0
  Ni  Ni571  1  0.58333333  0.41666667  0.37053571  1.0
  Ni  Ni572  1  0.58333333  0.75000000  0.37053571  1.0
  Ni  Ni573  1  0.91666667  0.08333333  0.37053571  1.0
  Ni  Ni574  1  0.91666667  0.41666667  0.37053571  1.0
  Ni  Ni575  1  0.91666667  0.75000000  0.37053571  1.0
  Ni  Ni576  1  0.15277778  0.29166667  0.41517857  1.0
  Ni  Ni577  1  0.15277778  0.62500000  0.41517857  1.0
  Ni  Ni578  1  0.15277778  0.95833333  0.41517857  1.0
  Ni  Ni579  1  0.48611111  0.29166667  0.41517857  1.0
  Ni  Ni580  1  0.48611111  0.62500000  0.41517857  1.0
  Ni  Ni581  1  0.48611111  0.95833333  0.41517857  1.0
  Ni  Ni582  1  0.81944444  0.29166667  0.41517857  1.0
  Ni  Ni583  1  0.81944444  0.62500000  0.41517857  1.0
  Ni  Ni584  1  0.81944444  0.95833333  0.41517857  1.0
  Ni  Ni585  1  0.31944444  0.12500000  0.37946429  1.0
  Ni  Ni586  1  0.31944444  0.45833333  0.37946429  1.0
  Ni  Ni587  1  0.31944444  0.79166667  0.37946429  1.0
  Ni  Ni588  1  0.65277778  0.12500000  0.37946429  1.0
  Ni  Ni589  1  0.65277778  0.45833333  0.37946429  1.0
  Ni  Ni590  1  0.65277778  0.79166667  0.37946429  1.0
  Ni  Ni591  1  0.98611111  0.12500000  0.37946429  1.0
  Ni  Ni592  1  0.98611111  0.45833333  0.37946429  1.0
  Ni  Ni593  1  0.98611111  0.79166667  0.37946429  1.0
  Ni  Ni594  1  0.01388889  0.20833333  0.39732143  1.0
  Ni  Ni595  1  0.01388889  0.54166667  0.39732143  1.0
  Ni  Ni596  1  0.01388889  0.87500000  0.39732143  1.0
  Ni  Ni597  1  0.34722222  0.20833333  0.39732143  1.0
  Ni  Ni598  1  0.34722222  0.54166667  0.39732143  1.0
  Ni  Ni599  1  0.34722222  0.87500000  0.39732143  1.0
  Ni  Ni600  1  0.68055556  0.20833333  0.39732143  1.0
  Ni  Ni601  1  0.68055556  0.54166667  0.39732143  1.0
  Ni  Ni602  1  0.68055556  0.87500000  0.39732143  1.0
  Ni  Ni603  1  0.18055556  0.04166667  0.36160714  1.0
  Ni  Ni604  1  0.18055556  0.37500000  0.36160714  1.0
  Ni  Ni605  1  0.18055556  0.70833333  0.36160714  1.0
  Ni  Ni606  1  0.51388889  0.04166667  0.36160714  1.0
  Ni  Ni607  1  0.51388889  0.37500000  0.36160714  1.0
  Ni  Ni608  1  0.51388889  0.70833333  0.36160714  1.0
  Ni  Ni609  1  0.84722222  0.04166667  0.36160714  1.0
  Ni  Ni610  1  0.84722222  0.37500000  0.36160714  1.0
  Ni  Ni611  1  0.84722222  0.70833333  0.36160714  1.0
  Ge  Ge612  1  0.23611111  0.20833333  0.39732143  1.0
  Ge  Ge613  1  0.23611111  0.54166667  0.39732143  1.0
  Ge  Ge614  1  0.23611111  0.87500000  0.39732143  1.0
  Ge  Ge615  1  0.56944444  0.20833333  0.39732143  1.0
  Ge  Ge616  1  0.56944444  0.54166667  0.39732143  1.0
  Ge  Ge617  1  0.56944444  0.87500000  0.39732143  1.0
  Ge  Ge618  1  0.90277778  0.20833333  0.39732143  1.0
  Ge  Ge619  1  0.90277778  0.54166667  0.39732143  1.0
  Ge  Ge620  1  0.90277778  0.87500000  0.39732143  1.0
  Ge  Ge621  1  0.06944444  0.04166667  0.36160714  1.0
  Ge  Ge622  1  0.06944444  0.37500000  0.36160714  1.0
  Ge  Ge623  1  0.06944444  0.70833333  0.36160714  1.0
  Ge  Ge624  1  0.40277778  0.04166667  0.36160714  1.0
  Ge  Ge625  1  0.40277778  0.37500000  0.36160714  1.0
  Ge  Ge626  1  0.40277778  0.70833333  0.36160714  1.0
  Ge  Ge627  1  0.73611111  0.04166667  0.36160714  1.0
  Ge  Ge628  1  0.73611111  0.37500000  0.36160714  1.0
  Ge  Ge629  1  0.73611111  0.70833333  0.36160714  1.0
  Ge  Ge630  1  0.26388889  0.29166667  0.41517857  1.0
  Ge  Ge631  1  0.26388889  0.62500000  0.41517857  1.0
  Ge  Ge632  1  0.26388889  0.95833333  0.41517857  1.0
  Ge  Ge633  1  0.59722222  0.29166667  0.41517857  1.0
  Ge  Ge634  1  0.59722222  0.62500000  0.41517857  1.0
  Ge  Ge635  1  0.59722222  0.95833333  0.41517857  1.0
  Ge  Ge636  1  0.93055556  0.29166667  0.41517857  1.0
  Ge  Ge637  1  0.93055556  0.62500000  0.41517857  1.0
  Ge  Ge638  1  0.93055556  0.95833333  0.41517857  1.0
  Ge  Ge639  1  0.09722222  0.12500000  0.37946429  1.0
  Ge  Ge640  1  0.09722222  0.45833333  0.37946429  1.0
  Ge  Ge641  1  0.09722222  0.79166667  0.37946429  1.0
  Ge  Ge642  1  0.43055556  0.12500000  0.37946429  1.0
  Ge  Ge643  1  0.43055556  0.45833333  0.37946429  1.0
  Ge  Ge644  1  0.43055556  0.79166667  0.37946429  1.0
  Ge  Ge645  1  0.76388889  0.12500000  0.37946429  1.0
  Ge  Ge646  1  0.76388889  0.45833333  0.37946429  1.0
  Ge  Ge647  1  0.76388889  0.79166667  0.37946429  1.0
