# generated using pymatgen
data_Ni2Mo
_symmetry_space_group_name_H-M   'P 1'
_cell_length_a   13.55178158
_cell_length_b   37.20053979
_cell_length_c   85.08859889
_cell_angle_alpha   32.57028699
_cell_angle_beta   99.00136428
_cell_angle_gamma   72.07421501
_symmetry_Int_Tables_number   1
_chemical_formula_structural   Ni2Mo
_chemical_formula_sum   'Ni288 Mo144'
_cell_volume   12827.88620177
_cell_formula_units_Z   144
loop_
 _symmetry_equiv_pos_site_id
 _symmetry_equiv_pos_as_xyz
  1  'x, y, z'
loop_
 _atom_site_type_symbol
 _atom_site_label
 _atom_site_symmetry_multiplicity
 _atom_site_fract_x
 _atom_site_fract_y
 _atom_site_fract_z
 _atom_site_occupancy
  Ni  Ni0  1  0.22296567  0.27703433  0.00444466  1.0
  Ni  Ni1  1  0.22296567  0.61036767  0.00444466  1.0
  Ni  Ni2  1  0.22296567  0.94370100  0.00444466  1.0
  Ni  Ni3  1  0.55629900  0.27703433  0.00444466  1.0
  Ni  Ni4  1  0.55629900  0.61036767  0.00444466  1.0
  Ni  Ni5  1  0.55629900  0.94370100  0.00444466  1.0
  Ni  Ni6  1  0.88963233  0.27703433  0.00444466  1.0
  Ni  Ni7  1  0.88963233  0.61036767  0.00444466  1.0
  Ni  Ni8  1  0.88963233  0.94370100  0.00444466  1.0
  Ni  Ni9  1  0.22296567  0.11036767  0.03076045  1.0
  Ni  Ni10  1  0.22296567  0.44370100  0.03076045  1.0
  Ni  Ni11  1  0.22296567  0.77703433  0.03076045  1.0
  Ni  Ni12  1  0.55629900  0.11036767  0.03076045  1.0
  Ni  Ni13  1  0.55629900  0.44370100  0.03076045  1.0
  Ni  Ni14  1  0.55629900  0.77703433  0.03076045  1.0
  Ni  Ni15  1  0.88963233  0.11036767  0.03076045  1.0
  Ni  Ni16  1  0.88963233  0.44370100  0.03076045  1.0
  Ni  Ni17  1  0.88963233  0.77703433  0.03076045  1.0
  Ni  Ni18  1  0.11036767  0.05629900  0.03929761  1.0
  Ni  Ni19  1  0.11036767  0.38963233  0.03929761  1.0
  Ni  Ni20  1  0.11036767  0.72296567  0.03929761  1.0
  Ni  Ni21  1  0.44370100  0.05629900  0.03929761  1.0
  Ni  Ni22  1  0.44370100  0.38963233  0.03929761  1.0
  Ni  Ni23  1  0.44370100  0.72296567  0.03929761  1.0
  Ni  Ni24  1  0.77703433  0.05629900  0.03929761  1.0
  Ni  Ni25  1  0.77703433  0.38963233  0.03929761  1.0
  Ni  Ni26  1  0.77703433  0.72296567  0.03929761  1.0
  Ni  Ni27  1  0.11036767  0.22296567  0.01298182  1.0
  Ni  Ni28  1  0.11036767  0.55629900  0.01298182  1.0
  Ni  Ni29  1  0.11036767  0.88963233  0.01298182  1.0
  Ni  Ni30  1  0.44370100  0.22296567  0.01298182  1.0
  Ni  Ni31  1  0.44370100  0.55629900  0.01298182  1.0
  Ni  Ni32  1  0.44370100  0.88963233  0.01298182  1.0
  Ni  Ni33  1  0.77703433  0.22296567  0.01298182  1.0
  Ni  Ni34  1  0.77703433  0.55629900  0.01298182  1.0
  Ni  Ni35  1  0.77703433  0.88963233  0.01298182  1.0
  Mo  Mo36  1  0.00000000  0.16666667  0.02187113  1.0
  Mo  Mo37  1  0.00000000  0.50000000  0.02187113  1.0
  Mo  Mo38  1  0.00000000  0.83333333  0.02187113  1.0
  Mo  Mo39  1  0.33333333  0.16666667  0.02187113  1.0
  Mo  Mo40  1  0.33333333  0.50000000  0.02187113  1.0
  Mo  Mo41  1  0.33333333  0.83333333  0.02187113  1.0
  Mo  Mo42  1  0.66666667  0.16666667  0.02187113  1.0
  Mo  Mo43  1  0.66666667  0.50000000  0.02187113  1.0
  Mo  Mo44  1  0.66666667  0.83333333  0.02187113  1.0
  Mo  Mo45  1  0.00000000  0.00000000  0.04818692  1.0
  Mo  Mo46  1  0.00000000  0.33333333  0.04818692  1.0
  Mo  Mo47  1  0.00000000  0.66666667  0.04818692  1.0
  Mo  Mo48  1  0.33333333  0.00000000  0.04818692  1.0
  Mo  Mo49  1  0.33333333  0.33333333  0.04818692  1.0
  Mo  Mo50  1  0.33333333  0.66666667  0.04818692  1.0
  Mo  Mo51  1  0.66666667  0.00000000  0.04818692  1.0
  Mo  Mo52  1  0.66666667  0.33333333  0.04818692  1.0
  Mo  Mo53  1  0.66666667  0.66666667  0.04818692  1.0
  Ni  Ni54  1  0.22296567  0.27703433  0.05707624  1.0
  Ni  Ni55  1  0.22296567  0.61036767  0.05707624  1.0
  Ni  Ni56  1  0.22296567  0.94370100  0.05707624  1.0
  Ni  Ni57  1  0.55629900  0.27703433  0.05707624  1.0
  Ni  Ni58  1  0.55629900  0.61036767  0.05707624  1.0
  Ni  Ni59  1  0.55629900  0.94370100  0.05707624  1.0
  Ni  Ni60  1  0.88963233  0.27703433  0.05707624  1.0
  Ni  Ni61  1  0.88963233  0.61036767  0.05707624  1.0
  Ni  Ni62  1  0.88963233  0.94370100  0.05707624  1.0
  Ni  Ni63  1  0.22296567  0.11036767  0.08339203  1.0
  Ni  Ni64  1  0.22296567  0.44370100  0.08339203  1.0
  Ni  Ni65  1  0.22296567  0.77703433  0.08339203  1.0
  Ni  Ni66  1  0.55629900  0.11036767  0.08339203  1.0
  Ni  Ni67  1  0.55629900  0.44370100  0.08339203  1.0
  Ni  Ni68  1  0.55629900  0.77703433  0.08339203  1.0
  Ni  Ni69  1  0.88963233  0.11036767  0.08339203  1.0
  Ni  Ni70  1  0.88963233  0.44370100  0.08339203  1.0
  Ni  Ni71  1  0.88963233  0.77703433  0.08339203  1.0
  Ni  Ni72  1  0.11036767  0.05629900  0.09192918  1.0
  Ni  Ni73  1  0.11036767  0.38963233  0.09192918  1.0
  Ni  Ni74  1  0.11036767  0.72296567  0.09192918  1.0
  Ni  Ni75  1  0.44370100  0.05629900  0.09192918  1.0
  Ni  Ni76  1  0.44370100  0.38963233  0.09192918  1.0
  Ni  Ni77  1  0.44370100  0.72296567  0.09192918  1.0
  Ni  Ni78  1  0.77703433  0.05629900  0.09192918  1.0
  Ni  Ni79  1  0.77703433  0.38963233  0.09192918  1.0
  Ni  Ni80  1  0.77703433  0.72296567  0.09192918  1.0
  Ni  Ni81  1  0.11036767  0.22296567  0.06561339  1.0
  Ni  Ni82  1  0.11036767  0.55629900  0.06561339  1.0
  Ni  Ni83  1  0.11036767  0.88963233  0.06561339  1.0
  Ni  Ni84  1  0.44370100  0.22296567  0.06561339  1.0
  Ni  Ni85  1  0.44370100  0.55629900  0.06561339  1.0
  Ni  Ni86  1  0.44370100  0.88963233  0.06561339  1.0
  Ni  Ni87  1  0.77703433  0.22296567  0.06561339  1.0
  Ni  Ni88  1  0.77703433  0.55629900  0.06561339  1.0
  Ni  Ni89  1  0.77703433  0.88963233  0.06561339  1.0
  Mo  Mo90  1  0.00000000  0.16666667  0.07450271  1.0
  Mo  Mo91  1  0.00000000  0.50000000  0.07450271  1.0
  Mo  Mo92  1  0.00000000  0.83333333  0.07450271  1.0
  Mo  Mo93  1  0.33333333  0.16666667  0.07450271  1.0
  Mo  Mo94  1  0.33333333  0.50000000  0.07450271  1.0
  Mo  Mo95  1  0.33333333  0.83333333  0.07450271  1.0
  Mo  Mo96  1  0.66666667  0.16666667  0.07450271  1.0
  Mo  Mo97  1  0.66666667  0.50000000  0.07450271  1.0
  Mo  Mo98  1  0.66666667  0.83333333  0.07450271  1.0
  Mo  Mo99  1  0.00000000  0.00000000  0.10081850  1.0
  Mo  Mo100  1  0.00000000  0.33333333  0.10081850  1.0
  Mo  Mo101  1  0.00000000  0.66666667  0.10081850  1.0
  Mo  Mo102  1  0.33333333  0.00000000  0.10081850  1.0
  Mo  Mo103  1  0.33333333  0.33333333  0.10081850  1.0
  Mo  Mo104  1  0.33333333  0.66666667  0.10081850  1.0
  Mo  Mo105  1  0.66666667  0.00000000  0.10081850  1.0
  Mo  Mo106  1  0.66666667  0.33333333  0.10081850  1.0
  Mo  Mo107  1  0.66666667  0.66666667  0.10081850  1.0
  Ni  Ni108  1  0.22296567  0.27703433  0.10970782  1.0
  Ni  Ni109  1  0.22296567  0.61036767  0.10970782  1.0
  Ni  Ni110  1  0.22296567  0.94370100  0.10970782  1.0
  Ni  Ni111  1  0.55629900  0.27703433  0.10970782  1.0
  Ni  Ni112  1  0.55629900  0.61036767  0.10970782  1.0
  Ni  Ni113  1  0.55629900  0.94370100  0.10970782  1.0
  Ni  Ni114  1  0.88963233  0.27703433  0.10970782  1.0
  Ni  Ni115  1  0.88963233  0.61036767  0.10970782  1.0
  Ni  Ni116  1  0.88963233  0.94370100  0.10970782  1.0
  Ni  Ni117  1  0.22296567  0.11036767  0.13602361  1.0
  Ni  Ni118  1  0.22296567  0.44370100  0.13602361  1.0
  Ni  Ni119  1  0.22296567  0.77703433  0.13602361  1.0
  Ni  Ni120  1  0.55629900  0.11036767  0.13602361  1.0
  Ni  Ni121  1  0.55629900  0.44370100  0.13602361  1.0
  Ni  Ni122  1  0.55629900  0.77703433  0.13602361  1.0
  Ni  Ni123  1  0.88963233  0.11036767  0.13602361  1.0
  Ni  Ni124  1  0.88963233  0.44370100  0.13602361  1.0
  Ni  Ni125  1  0.88963233  0.77703433  0.13602361  1.0
  Ni  Ni126  1  0.11036767  0.05629900  0.14456076  1.0
  Ni  Ni127  1  0.11036767  0.38963233  0.14456076  1.0
  Ni  Ni128  1  0.11036767  0.72296567  0.14456076  1.0
  Ni  Ni129  1  0.44370100  0.05629900  0.14456076  1.0
  Ni  Ni130  1  0.44370100  0.38963233  0.14456076  1.0
  Ni  Ni131  1  0.44370100  0.72296567  0.14456076  1.0
  Ni  Ni132  1  0.77703433  0.05629900  0.14456076  1.0
  Ni  Ni133  1  0.77703433  0.38963233  0.14456076  1.0
  Ni  Ni134  1  0.77703433  0.72296567  0.14456076  1.0
  Ni  Ni135  1  0.11036767  0.22296567  0.11824497  1.0
  Ni  Ni136  1  0.11036767  0.55629900  0.11824497  1.0
  Ni  Ni137  1  0.11036767  0.88963233  0.11824497  1.0
  Ni  Ni138  1  0.44370100  0.22296567  0.11824497  1.0
  Ni  Ni139  1  0.44370100  0.55629900  0.11824497  1.0
  Ni  Ni140  1  0.44370100  0.88963233  0.11824497  1.0
  Ni  Ni141  1  0.77703433  0.22296567  0.11824497  1.0
  Ni  Ni142  1  0.77703433  0.55629900  0.11824497  1.0
  Ni  Ni143  1  0.77703433  0.88963233  0.11824497  1.0
  Mo  Mo144  1  0.00000000  0.16666667  0.12713429  1.0
  Mo  Mo145  1  0.00000000  0.50000000  0.12713429  1.0
  Mo  Mo146  1  0.00000000  0.83333333  0.12713429  1.0
  Mo  Mo147  1  0.33333333  0.16666667  0.12713429  1.0
  Mo  Mo148  1  0.33333333  0.50000000  0.12713429  1.0
  Mo  Mo149  1  0.33333333  0.83333333  0.12713429  1.0
  Mo  Mo150  1  0.66666667  0.16666667  0.12713429  1.0
  Mo  Mo151  1  0.66666667  0.50000000  0.12713429  1.0
  Mo  Mo152  1  0.66666667  0.83333333  0.12713429  1.0
  Mo  Mo153  1  0.00000000  0.00000000  0.15345008  1.0
  Mo  Mo154  1  0.00000000  0.33333333  0.15345008  1.0
  Mo  Mo155  1  0.00000000  0.66666667  0.15345008  1.0
  Mo  Mo156  1  0.33333333  0.00000000  0.15345008  1.0
  Mo  Mo157  1  0.33333333  0.33333333  0.15345008  1.0
  Mo  Mo158  1  0.33333333  0.66666667  0.15345008  1.0
  Mo  Mo159  1  0.66666667  0.00000000  0.15345008  1.0
  Mo  Mo160  1  0.66666667  0.33333333  0.15345008  1.0
  Mo  Mo161  1  0.66666667  0.66666667  0.15345008  1.0
  Ni  Ni162  1  0.22296567  0.27703433  0.16233939  1.0
  Ni  Ni163  1  0.22296567  0.61036767  0.16233939  1.0
  Ni  Ni164  1  0.22296567  0.94370100  0.16233939  1.0
  Ni  Ni165  1  0.55629900  0.27703433  0.16233939  1.0
  Ni  Ni166  1  0.55629900  0.61036767  0.16233939  1.0
  Ni  Ni167  1  0.55629900  0.94370100  0.16233939  1.0
  Ni  Ni168  1  0.88963233  0.27703433  0.16233939  1.0
  Ni  Ni169  1  0.88963233  0.61036767  0.16233939  1.0
  Ni  Ni170  1  0.88963233  0.94370100  0.16233939  1.0
  Ni  Ni171  1  0.22296567  0.11036767  0.18865518  1.0
  Ni  Ni172  1  0.22296567  0.44370100  0.18865518  1.0
  Ni  Ni173  1  0.22296567  0.77703433  0.18865518  1.0
  Ni  Ni174  1  0.55629900  0.11036767  0.18865518  1.0
  Ni  Ni175  1  0.55629900  0.44370100  0.18865518  1.0
  Ni  Ni176  1  0.55629900  0.77703433  0.18865518  1.0
  Ni  Ni177  1  0.88963233  0.11036767  0.18865518  1.0
  Ni  Ni178  1  0.88963233  0.44370100  0.18865518  1.0
  Ni  Ni179  1  0.88963233  0.77703433  0.18865518  1.0
  Ni  Ni180  1  0.11036767  0.05629900  0.19719234  1.0
  Ni  Ni181  1  0.11036767  0.38963233  0.19719234  1.0
  Ni  Ni182  1  0.11036767  0.72296567  0.19719234  1.0
  Ni  Ni183  1  0.44370100  0.05629900  0.19719234  1.0
  Ni  Ni184  1  0.44370100  0.38963233  0.19719234  1.0
  Ni  Ni185  1  0.44370100  0.72296567  0.19719234  1.0
  Ni  Ni186  1  0.77703433  0.05629900  0.19719234  1.0
  Ni  Ni187  1  0.77703433  0.38963233  0.19719234  1.0
  Ni  Ni188  1  0.77703433  0.72296567  0.19719234  1.0
  Ni  Ni189  1  0.11036767  0.22296567  0.17087655  1.0
  Ni  Ni190  1  0.11036767  0.55629900  0.17087655  1.0
  Ni  Ni191  1  0.11036767  0.88963233  0.17087655  1.0
  Ni  Ni192  1  0.44370100  0.22296567  0.17087655  1.0
  Ni  Ni193  1  0.44370100  0.55629900  0.17087655  1.0
  Ni  Ni194  1  0.44370100  0.88963233  0.17087655  1.0
  Ni  Ni195  1  0.77703433  0.22296567  0.17087655  1.0
  Ni  Ni196  1  0.77703433  0.55629900  0.17087655  1.0
  Ni  Ni197  1  0.77703433  0.88963233  0.17087655  1.0
  Mo  Mo198  1  0.00000000  0.16666667  0.17976587  1.0
  Mo  Mo199  1  0.00000000  0.50000000  0.17976587  1.0
  Mo  Mo200  1  0.00000000  0.83333333  0.17976587  1.0
  Mo  Mo201  1  0.33333333  0.16666667  0.17976587  1.0
  Mo  Mo202  1  0.33333333  0.50000000  0.17976587  1.0
  Mo  Mo203  1  0.33333333  0.83333333  0.17976587  1.0
  Mo  Mo204  1  0.66666667  0.16666667  0.17976587  1.0
  Mo  Mo205  1  0.66666667  0.50000000  0.17976587  1.0
  Mo  Mo206  1  0.66666667  0.83333333  0.17976587  1.0
  Mo  Mo207  1  0.00000000  0.00000000  0.20608166  1.0
  Mo  Mo208  1  0.00000000  0.33333333  0.20608166  1.0
  Mo  Mo209  1  0.00000000  0.66666667  0.20608166  1.0
  Mo  Mo210  1  0.33333333  0.00000000  0.20608166  1.0
  Mo  Mo211  1  0.33333333  0.33333333  0.20608166  1.0
  Mo  Mo212  1  0.33333333  0.66666667  0.20608166  1.0
  Mo  Mo213  1  0.66666667  0.00000000  0.20608166  1.0
  Mo  Mo214  1  0.66666667  0.33333333  0.20608166  1.0
  Mo  Mo215  1  0.66666667  0.66666667  0.20608166  1.0
  Ni  Ni216  1  0.22296567  0.27703433  0.21497097  1.0
  Ni  Ni217  1  0.22296567  0.61036767  0.21497097  1.0
  Ni  Ni218  1  0.22296567  0.94370100  0.21497097  1.0
  Ni  Ni219  1  0.55629900  0.27703433  0.21497097  1.0
  Ni  Ni220  1  0.55629900  0.61036767  0.21497097  1.0
  Ni  Ni221  1  0.55629900  0.94370100  0.21497097  1.0
  Ni  Ni222  1  0.88963233  0.27703433  0.21497097  1.0
  Ni  Ni223  1  0.88963233  0.61036767  0.21497097  1.0
  Ni  Ni224  1  0.88963233  0.94370100  0.21497097  1.0
  Ni  Ni225  1  0.22296567  0.11036767  0.24128676  1.0
  Ni  Ni226  1  0.22296567  0.44370100  0.24128676  1.0
  Ni  Ni227  1  0.22296567  0.77703433  0.24128676  1.0
  Ni  Ni228  1  0.55629900  0.11036767  0.24128676  1.0
  Ni  Ni229  1  0.55629900  0.44370100  0.24128676  1.0
  Ni  Ni230  1  0.55629900  0.77703433  0.24128676  1.0
  Ni  Ni231  1  0.88963233  0.11036767  0.24128676  1.0
  Ni  Ni232  1  0.88963233  0.44370100  0.24128676  1.0
  Ni  Ni233  1  0.88963233  0.77703433  0.24128676  1.0
  Ni  Ni234  1  0.11036767  0.05629900  0.24982392  1.0
  Ni  Ni235  1  0.11036767  0.38963233  0.24982392  1.0
  Ni  Ni236  1  0.11036767  0.72296567  0.24982392  1.0
  Ni  Ni237  1  0.44370100  0.05629900  0.24982392  1.0
  Ni  Ni238  1  0.44370100  0.38963233  0.24982392  1.0
  Ni  Ni239  1  0.44370100  0.72296567  0.24982392  1.0
  Ni  Ni240  1  0.77703433  0.05629900  0.24982392  1.0
  Ni  Ni241  1  0.77703433  0.38963233  0.24982392  1.0
  Ni  Ni242  1  0.77703433  0.72296567  0.24982392  1.0
  Ni  Ni243  1  0.11036767  0.22296567  0.22350813  1.0
  Ni  Ni244  1  0.11036767  0.55629900  0.22350813  1.0
  Ni  Ni245  1  0.11036767  0.88963233  0.22350813  1.0
  Ni  Ni246  1  0.44370100  0.22296567  0.22350813  1.0
  Ni  Ni247  1  0.44370100  0.55629900  0.22350813  1.0
  Ni  Ni248  1  0.44370100  0.88963233  0.22350813  1.0
  Ni  Ni249  1  0.77703433  0.22296567  0.22350813  1.0
  Ni  Ni250  1  0.77703433  0.55629900  0.22350813  1.0
  Ni  Ni251  1  0.77703433  0.88963233  0.22350813  1.0
  Mo  Mo252  1  0.00000000  0.16666667  0.23239745  1.0
  Mo  Mo253  1  0.00000000  0.50000000  0.23239745  1.0
  Mo  Mo254  1  0.00000000  0.83333333  0.23239745  1.0
  Mo  Mo255  1  0.33333333  0.16666667  0.23239745  1.0
  Mo  Mo256  1  0.33333333  0.50000000  0.23239745  1.0
  Mo  Mo257  1  0.33333333  0.83333333  0.23239745  1.0
  Mo  Mo258  1  0.66666667  0.16666667  0.23239745  1.0
  Mo  Mo259  1  0.66666667  0.50000000  0.23239745  1.0
  Mo  Mo260  1  0.66666667  0.83333333  0.23239745  1.0
  Mo  Mo261  1  0.00000000  0.00000000  0.25871324  1.0
  Mo  Mo262  1  0.00000000  0.33333333  0.25871324  1.0
  Mo  Mo263  1  0.00000000  0.66666667  0.25871324  1.0
  Mo  Mo264  1  0.33333333  0.00000000  0.25871324  1.0
  Mo  Mo265  1  0.33333333  0.33333333  0.25871324  1.0
  Mo  Mo266  1  0.33333333  0.66666667  0.25871324  1.0
  Mo  Mo267  1  0.66666667  0.00000000  0.25871324  1.0
  Mo  Mo268  1  0.66666667  0.33333333  0.25871324  1.0
  Mo  Mo269  1  0.66666667  0.66666667  0.25871324  1.0
  Ni  Ni270  1  0.22296567  0.27703433  0.26760255  1.0
  Ni  Ni271  1  0.22296567  0.61036767  0.26760255  1.0
  Ni  Ni272  1  0.22296567  0.94370100  0.26760255  1.0
  Ni  Ni273  1  0.55629900  0.27703433  0.26760255  1.0
  Ni  Ni274  1  0.55629900  0.61036767  0.26760255  1.0
  Ni  Ni275  1  0.55629900  0.94370100  0.26760255  1.0
  Ni  Ni276  1  0.88963233  0.27703433  0.26760255  1.0
  Ni  Ni277  1  0.88963233  0.61036767  0.26760255  1.0
  Ni  Ni278  1  0.88963233  0.94370100  0.26760255  1.0
  Ni  Ni279  1  0.22296567  0.11036767  0.29391834  1.0
  Ni  Ni280  1  0.22296567  0.44370100  0.29391834  1.0
  Ni  Ni281  1  0.22296567  0.77703433  0.29391834  1.0
  Ni  Ni282  1  0.55629900  0.11036767  0.29391834  1.0
  Ni  Ni283  1  0.55629900  0.44370100  0.29391834  1.0
  Ni  Ni284  1  0.55629900  0.77703433  0.29391834  1.0
  Ni  Ni285  1  0.88963233  0.11036767  0.29391834  1.0
  Ni  Ni286  1  0.88963233  0.44370100  0.29391834  1.0
  Ni  Ni287  1  0.88963233  0.77703433  0.29391834  1.0
  Ni  Ni288  1  0.11036767  0.05629900  0.30245550  1.0
  Ni  Ni289  1  0.11036767  0.38963233  0.30245550  1.0
  Ni  Ni290  1  0.11036767  0.72296567  0.30245550  1.0
  Ni  Ni291  1  0.44370100  0.05629900  0.30245550  1.0
  Ni  Ni292  1  0.44370100  0.38963233  0.30245550  1.0
  Ni  Ni293  1  0.44370100  0.72296567  0.30245550  1.0
  Ni  Ni294  1  0.77703433  0.05629900  0.30245550  1.0
  Ni  Ni295  1  0.77703433  0.38963233  0.30245550  1.0
  Ni  Ni296  1  0.77703433  0.72296567  0.30245550  1.0
  Ni  Ni297  1  0.11036767  0.22296567  0.27613971  1.0
  Ni  Ni298  1  0.11036767  0.55629900  0.27613971  1.0
  Ni  Ni299  1  0.11036767  0.88963233  0.27613971  1.0
  Ni  Ni300  1  0.44370100  0.22296567  0.27613971  1.0
  Ni  Ni301  1  0.44370100  0.55629900  0.27613971  1.0
  Ni  Ni302  1  0.44370100  0.88963233  0.27613971  1.0
  Ni  Ni303  1  0.77703433  0.22296567  0.27613971  1.0
  Ni  Ni304  1  0.77703433  0.55629900  0.27613971  1.0
  Ni  Ni305  1  0.77703433  0.88963233  0.27613971  1.0
  Mo  Mo306  1  0.00000000  0.16666667  0.28502903  1.0
  Mo  Mo307  1  0.00000000  0.50000000  0.28502903  1.0
  Mo  Mo308  1  0.00000000  0.83333333  0.28502903  1.0
  Mo  Mo309  1  0.33333333  0.16666667  0.28502903  1.0
  Mo  Mo310  1  0.33333333  0.50000000  0.28502903  1.0
  Mo  Mo311  1  0.33333333  0.83333333  0.28502903  1.0
  Mo  Mo312  1  0.66666667  0.16666667  0.28502903  1.0
  Mo  Mo313  1  0.66666667  0.50000000  0.28502903  1.0
  Mo  Mo314  1  0.66666667  0.83333333  0.28502903  1.0
  Mo  Mo315  1  0.00000000  0.00000000  0.31134482  1.0
  Mo  Mo316  1  0.00000000  0.33333333  0.31134482  1.0
  Mo  Mo317  1  0.00000000  0.66666667  0.31134482  1.0
  Mo  Mo318  1  0.33333333  0.00000000  0.31134482  1.0
  Mo  Mo319  1  0.33333333  0.33333333  0.31134482  1.0
  Mo  Mo320  1  0.33333333  0.66666667  0.31134482  1.0
  Mo  Mo321  1  0.66666667  0.00000000  0.31134482  1.0
  Mo  Mo322  1  0.66666667  0.33333333  0.31134482  1.0
  Mo  Mo323  1  0.66666667  0.66666667  0.31134482  1.0
  Ni  Ni324  1  0.22296567  0.27703433  0.32023413  1.0
  Ni  Ni325  1  0.22296567  0.61036767  0.32023413  1.0
  Ni  Ni326  1  0.22296567  0.94370100  0.32023413  1.0
  Ni  Ni327  1  0.55629900  0.27703433  0.32023413  1.0
  Ni  Ni328  1  0.55629900  0.61036767  0.32023413  1.0
  Ni  Ni329  1  0.55629900  0.94370100  0.32023413  1.0
  Ni  Ni330  1  0.88963233  0.27703433  0.32023413  1.0
  Ni  Ni331  1  0.88963233  0.61036767  0.32023413  1.0
  Ni  Ni332  1  0.88963233  0.94370100  0.32023413  1.0
  Ni  Ni333  1  0.22296567  0.11036767  0.34654992  1.0
  Ni  Ni334  1  0.22296567  0.44370100  0.34654992  1.0
  Ni  Ni335  1  0.22296567  0.77703433  0.34654992  1.0
  Ni  Ni336  1  0.55629900  0.11036767  0.34654992  1.0
  Ni  Ni337  1  0.55629900  0.44370100  0.34654992  1.0
  Ni  Ni338  1  0.55629900  0.77703433  0.34654992  1.0
  Ni  Ni339  1  0.88963233  0.11036767  0.34654992  1.0
  Ni  Ni340  1  0.88963233  0.44370100  0.34654992  1.0
  Ni  Ni341  1  0.88963233  0.77703433  0.34654992  1.0
  Ni  Ni342  1  0.11036767  0.05629900  0.35508708  1.0
  Ni  Ni343  1  0.11036767  0.38963233  0.35508708  1.0
  Ni  Ni344  1  0.11036767  0.72296567  0.35508708  1.0
  Ni  Ni345  1  0.44370100  0.05629900  0.35508708  1.0
  Ni  Ni346  1  0.44370100  0.38963233  0.35508708  1.0
  Ni  Ni347  1  0.44370100  0.72296567  0.35508708  1.0
  Ni  Ni348  1  0.77703433  0.05629900  0.35508708  1.0
  Ni  Ni349  1  0.77703433  0.38963233  0.35508708  1.0
  Ni  Ni350  1  0.77703433  0.72296567  0.35508708  1.0
  Ni  Ni351  1  0.11036767  0.22296567  0.32877129  1.0
  Ni  Ni352  1  0.11036767  0.55629900  0.32877129  1.0
  Ni  Ni353  1  0.11036767  0.88963233  0.32877129  1.0
  Ni  Ni354  1  0.44370100  0.22296567  0.32877129  1.0
  Ni  Ni355  1  0.44370100  0.55629900  0.32877129  1.0
  Ni  Ni356  1  0.44370100  0.88963233  0.32877129  1.0
  Ni  Ni357  1  0.77703433  0.22296567  0.32877129  1.0
  Ni  Ni358  1  0.77703433  0.55629900  0.32877129  1.0
  Ni  Ni359  1  0.77703433  0.88963233  0.32877129  1.0
  Mo  Mo360  1  0.00000000  0.16666667  0.33766061  1.0
  Mo  Mo361  1  0.00000000  0.50000000  0.33766061  1.0
  Mo  Mo362  1  0.00000000  0.83333333  0.33766061  1.0
  Mo  Mo363  1  0.33333333  0.16666667  0.33766061  1.0
  Mo  Mo364  1  0.33333333  0.50000000  0.33766061  1.0
  Mo  Mo365  1  0.33333333  0.83333333  0.33766061  1.0
  Mo  Mo366  1  0.66666667  0.16666667  0.33766061  1.0
  Mo  Mo367  1  0.66666667  0.50000000  0.33766061  1.0
  Mo  Mo368  1  0.66666667  0.83333333  0.33766061  1.0
  Mo  Mo369  1  0.00000000  0.00000000  0.36397639  1.0
  Mo  Mo370  1  0.00000000  0.33333333  0.36397639  1.0
  Mo  Mo371  1  0.00000000  0.66666667  0.36397639  1.0
  Mo  Mo372  1  0.33333333  0.00000000  0.36397639  1.0
  Mo  Mo373  1  0.33333333  0.33333333  0.36397639  1.0
  Mo  Mo374  1  0.33333333  0.66666667  0.36397639  1.0
  Mo  Mo375  1  0.66666667  0.00000000  0.36397639  1.0
  Mo  Mo376  1  0.66666667  0.33333333  0.36397639  1.0
  Mo  Mo377  1  0.66666667  0.66666667  0.36397639  1.0
  Ni  Ni378  1  0.22296567  0.27703433  0.37286571  1.0
  Ni  Ni379  1  0.22296567  0.61036767  0.37286571  1.0
  Ni  Ni380  1  0.22296567  0.94370100  0.37286571  1.0
  Ni  Ni381  1  0.55629900  0.27703433  0.37286571  1.0
  Ni  Ni382  1  0.55629900  0.61036767  0.37286571  1.0
  Ni  Ni383  1  0.55629900  0.94370100  0.37286571  1.0
  Ni  Ni384  1  0.88963233  0.27703433  0.37286571  1.0
  Ni  Ni385  1  0.88963233  0.61036767  0.37286571  1.0
  Ni  Ni386  1  0.88963233  0.94370100  0.37286571  1.0
  Ni  Ni387  1  0.22296567  0.11036767  0.39918150  1.0
  Ni  Ni388  1  0.22296567  0.44370100  0.39918150  1.0
  Ni  Ni389  1  0.22296567  0.77703433  0.39918150  1.0
  Ni  Ni390  1  0.55629900  0.11036767  0.39918150  1.0
  Ni  Ni391  1  0.55629900  0.44370100  0.39918150  1.0
  Ni  Ni392  1  0.55629900  0.77703433  0.39918150  1.0
  Ni  Ni393  1  0.88963233  0.11036767  0.39918150  1.0
  Ni  Ni394  1  0.88963233  0.44370100  0.39918150  1.0
  Ni  Ni395  1  0.88963233  0.77703433  0.39918150  1.0
  Ni  Ni396  1  0.11036767  0.05629900  0.40771866  1.0
  Ni  Ni397  1  0.11036767  0.38963233  0.40771866  1.0
  Ni  Ni398  1  0.11036767  0.72296567  0.40771866  1.0
  Ni  Ni399  1  0.44370100  0.05629900  0.40771866  1.0
  Ni  Ni400  1  0.44370100  0.38963233  0.40771866  1.0
  Ni  Ni401  1  0.44370100  0.72296567  0.40771866  1.0
  Ni  Ni402  1  0.77703433  0.05629900  0.40771866  1.0
  Ni  Ni403  1  0.77703433  0.38963233  0.40771866  1.0
  Ni  Ni404  1  0.77703433  0.72296567  0.40771866  1.0
  Ni  Ni405  1  0.11036767  0.22296567  0.38140287  1.0
  Ni  Ni406  1  0.11036767  0.55629900  0.38140287  1.0
  Ni  Ni407  1  0.11036767  0.88963233  0.38140287  1.0
  Ni  Ni408  1  0.44370100  0.22296567  0.38140287  1.0
  Ni  Ni409  1  0.44370100  0.55629900  0.38140287  1.0
  Ni  Ni410  1  0.44370100  0.88963233  0.38140287  1.0
  Ni  Ni411  1  0.77703433  0.22296567  0.38140287  1.0
  Ni  Ni412  1  0.77703433  0.55629900  0.38140287  1.0
  Ni  Ni413  1  0.77703433  0.88963233  0.38140287  1.0
  Mo  Mo414  1  0.00000000  0.16666667  0.39029218  1.0
  Mo  Mo415  1  0.00000000  0.50000000  0.39029218  1.0
  Mo  Mo416  1  0.00000000  0.83333333  0.39029218  1.0
  Mo  Mo417  1  0.33333333  0.16666667  0.39029218  1.0
  Mo  Mo418  1  0.33333333  0.50000000  0.39029218  1.0
  Mo  Mo419  1  0.33333333  0.83333333  0.39029218  1.0
  Mo  Mo420  1  0.66666667  0.16666667  0.39029218  1.0
  Mo  Mo421  1  0.66666667  0.50000000  0.39029218  1.0
  Mo  Mo422  1  0.66666667  0.83333333  0.39029218  1.0
  Mo  Mo423  1  0.00000000  0.00000000  0.41660797  1.0
  Mo  Mo424  1  0.00000000  0.33333333  0.41660797  1.0
  Mo  Mo425  1  0.00000000  0.66666667  0.41660797  1.0
  Mo  Mo426  1  0.33333333  0.00000000  0.41660797  1.0
  Mo  Mo427  1  0.33333333  0.33333333  0.41660797  1.0
  Mo  Mo428  1  0.33333333  0.66666667  0.41660797  1.0
  Mo  Mo429  1  0.66666667  0.00000000  0.41660797  1.0
  Mo  Mo430  1  0.66666667  0.33333333  0.41660797  1.0
  Mo  Mo431  1  0.66666667  0.66666667  0.41660797  1.0
