# generated using pymatgen
data_Ni2Mo
_symmetry_space_group_name_H-M   'P 1'
_cell_length_a   13.43504193
_cell_length_b   13.55178158
_cell_length_c   62.69686234
_cell_angle_alpha   120.28785483
_cell_angle_beta   131.81501368
_cell_angle_gamma   99.00136428
_symmetry_Int_Tables_number   1
_chemical_formula_structural   Ni2Mo
_chemical_formula_sum   'Ni108 Mo54'
_cell_volume   4726.06333749
_cell_formula_units_Z   54
loop_
 _symmetry_equiv_pos_site_id
 _symmetry_equiv_pos_as_xyz
  1  'x, y, z'
loop_
 _atom_site_type_symbol
 _atom_site_label
 _atom_site_symmetry_multiplicity
 _atom_site_fract_x
 _atom_site_fract_y
 _atom_site_fract_z
 _atom_site_occupancy
  Ni  Ni0  1  0.00000000  0.11036767  0.03523636  1.0
  Ni  Ni1  1  0.00000000  0.44370100  0.03523636  1.0
  Ni  Ni2  1  0.00000000  0.77703433  0.03523636  1.0
  Ni  Ni3  1  0.33333333  0.11036767  0.03523636  1.0
  Ni  Ni4  1  0.33333333  0.44370100  0.03523636  1.0
  Ni  Ni5  1  0.33333333  0.77703433  0.03523636  1.0
  Ni  Ni6  1  0.66666667  0.11036767  0.03523636  1.0
  Ni  Ni7  1  0.66666667  0.44370100  0.03523636  1.0
  Ni  Ni8  1  0.66666667  0.77703433  0.03523636  1.0
  Ni  Ni9  1  0.00000000  0.22296567  0.01206407  1.0
  Ni  Ni10  1  0.00000000  0.55629900  0.01206407  1.0
  Ni  Ni11  1  0.00000000  0.88963233  0.01206407  1.0
  Ni  Ni12  1  0.33333333  0.22296567  0.01206407  1.0
  Ni  Ni13  1  0.33333333  0.55629900  0.01206407  1.0
  Ni  Ni14  1  0.33333333  0.88963233  0.01206407  1.0
  Ni  Ni15  1  0.66666667  0.22296567  0.01206407  1.0
  Ni  Ni16  1  0.66666667  0.55629900  0.01206407  1.0
  Ni  Ni17  1  0.66666667  0.88963233  0.01206407  1.0
  Mo  Mo18  1  0.00000000  0.00000000  0.05936450  1.0
  Mo  Mo19  1  0.00000000  0.33333333  0.05936450  1.0
  Mo  Mo20  1  0.00000000  0.66666667  0.05936450  1.0
  Mo  Mo21  1  0.33333333  0.00000000  0.05936450  1.0
  Mo  Mo22  1  0.33333333  0.33333333  0.05936450  1.0
  Mo  Mo23  1  0.33333333  0.66666667  0.05936450  1.0
  Mo  Mo24  1  0.66666667  0.00000000  0.05936450  1.0
  Mo  Mo25  1  0.66666667  0.33333333  0.05936450  1.0
  Mo  Mo26  1  0.66666667  0.66666667  0.05936450  1.0
  Ni  Ni27  1  0.00000000  0.11036767  0.10666493  1.0
  Ni  Ni28  1  0.00000000  0.44370100  0.10666493  1.0
  Ni  Ni29  1  0.00000000  0.77703433  0.10666493  1.0
  Ni  Ni30  1  0.33333333  0.11036767  0.10666493  1.0
  Ni  Ni31  1  0.33333333  0.44370100  0.10666493  1.0
  Ni  Ni32  1  0.33333333  0.77703433  0.10666493  1.0
  Ni  Ni33  1  0.66666667  0.11036767  0.10666493  1.0
  Ni  Ni34  1  0.66666667  0.44370100  0.10666493  1.0
  Ni  Ni35  1  0.66666667  0.77703433  0.10666493  1.0
  Ni  Ni36  1  0.00000000  0.22296567  0.08349264  1.0
  Ni  Ni37  1  0.00000000  0.55629900  0.08349264  1.0
  Ni  Ni38  1  0.00000000  0.88963233  0.08349264  1.0
  Ni  Ni39  1  0.33333333  0.22296567  0.08349264  1.0
  Ni  Ni40  1  0.33333333  0.55629900  0.08349264  1.0
  Ni  Ni41  1  0.33333333  0.88963233  0.08349264  1.0
  Ni  Ni42  1  0.66666667  0.22296567  0.08349264  1.0
  Ni  Ni43  1  0.66666667  0.55629900  0.08349264  1.0
  Ni  Ni44  1  0.66666667  0.88963233  0.08349264  1.0
  Mo  Mo45  1  0.00000000  0.00000000  0.13079307  1.0
  Mo  Mo46  1  0.00000000  0.33333333  0.13079307  1.0
  Mo  Mo47  1  0.00000000  0.66666667  0.13079307  1.0
  Mo  Mo48  1  0.33333333  0.00000000  0.13079307  1.0
  Mo  Mo49  1  0.33333333  0.33333333  0.13079307  1.0
  Mo  Mo50  1  0.33333333  0.66666667  0.13079307  1.0
  Mo  Mo51  1  0.66666667  0.00000000  0.13079307  1.0
  Mo  Mo52  1  0.66666667  0.33333333  0.13079307  1.0
  Mo  Mo53  1  0.66666667  0.66666667  0.13079307  1.0
  Ni  Ni54  1  0.00000000  0.11036767  0.17809350  1.0
  Ni  Ni55  1  0.00000000  0.44370100  0.17809350  1.0
  Ni  Ni56  1  0.00000000  0.77703433  0.17809350  1.0
  Ni  Ni57  1  0.33333333  0.11036767  0.17809350  1.0
  Ni  Ni58  1  0.33333333  0.44370100  0.17809350  1.0
  Ni  Ni59  1  0.33333333  0.77703433  0.17809350  1.0
  Ni  Ni60  1  0.66666667  0.11036767  0.17809350  1.0
  Ni  Ni61  1  0.66666667  0.44370100  0.17809350  1.0
  Ni  Ni62  1  0.66666667  0.77703433  0.17809350  1.0
  Ni  Ni63  1  0.00000000  0.22296567  0.15492121  1.0
  Ni  Ni64  1  0.00000000  0.55629900  0.15492121  1.0
  Ni  Ni65  1  0.00000000  0.88963233  0.15492121  1.0
  Ni  Ni66  1  0.33333333  0.22296567  0.15492121  1.0
  Ni  Ni67  1  0.33333333  0.55629900  0.15492121  1.0
  Ni  Ni68  1  0.33333333  0.88963233  0.15492121  1.0
  Ni  Ni69  1  0.66666667  0.22296567  0.15492121  1.0
  Ni  Ni70  1  0.66666667  0.55629900  0.15492121  1.0
  Ni  Ni71  1  0.66666667  0.88963233  0.15492121  1.0
  Mo  Mo72  1  0.00000000  0.00000000  0.20222164  1.0
  Mo  Mo73  1  0.00000000  0.33333333  0.20222164  1.0
  Mo  Mo74  1  0.00000000  0.66666667  0.20222164  1.0
  Mo  Mo75  1  0.33333333  0.00000000  0.20222164  1.0
  Mo  Mo76  1  0.33333333  0.33333333  0.20222164  1.0
  Mo  Mo77  1  0.33333333  0.66666667  0.20222164  1.0
  Mo  Mo78  1  0.66666667  0.00000000  0.20222164  1.0
  Mo  Mo79  1  0.66666667  0.33333333  0.20222164  1.0
  Mo  Mo80  1  0.66666667  0.66666667  0.20222164  1.0
  Ni  Ni81  1  0.00000000  0.11036767  0.24952207  1.0
  Ni  Ni82  1  0.00000000  0.44370100  0.24952207  1.0
  Ni  Ni83  1  0.00000000  0.77703433  0.24952207  1.0
  Ni  Ni84  1  0.33333333  0.11036767  0.24952207  1.0
  Ni  Ni85  1  0.33333333  0.44370100  0.24952207  1.0
  Ni  Ni86  1  0.33333333  0.77703433  0.24952207  1.0
  Ni  Ni87  1  0.66666667  0.11036767  0.24952207  1.0
  Ni  Ni88  1  0.66666667  0.44370100  0.24952207  1.0
  Ni  Ni89  1  0.66666667  0.77703433  0.24952207  1.0
  Ni  Ni90  1  0.00000000  0.22296567  0.22634979  1.0
  Ni  Ni91  1  0.00000000  0.55629900  0.22634979  1.0
  Ni  Ni92  1  0.00000000  0.88963233  0.22634979  1.0
  Ni  Ni93  1  0.33333333  0.22296567  0.22634979  1.0
  Ni  Ni94  1  0.33333333  0.55629900  0.22634979  1.0
  Ni  Ni95  1  0.33333333  0.88963233  0.22634979  1.0
  Ni  Ni96  1  0.66666667  0.22296567  0.22634979  1.0
  Ni  Ni97  1  0.66666667  0.55629900  0.22634979  1.0
  Ni  Ni98  1  0.66666667  0.88963233  0.22634979  1.0
  Mo  Mo99  1  0.00000000  0.00000000  0.27365021  1.0
  Mo  Mo100  1  0.00000000  0.33333333  0.27365021  1.0
  Mo  Mo101  1  0.00000000  0.66666667  0.27365021  1.0
  Mo  Mo102  1  0.33333333  0.00000000  0.27365021  1.0
  Mo  Mo103  1  0.33333333  0.33333333  0.27365021  1.0
  Mo  Mo104  1  0.33333333  0.66666667  0.27365021  1.0
  Mo  Mo105  1  0.66666667  0.00000000  0.27365021  1.0
  Mo  Mo106  1  0.66666667  0.33333333  0.27365021  1.0
  Mo  Mo107  1  0.66666667  0.66666667  0.27365021  1.0
  Ni  Ni108  1  0.00000000  0.11036767  0.32095064  1.0
  Ni  Ni109  1  0.00000000  0.44370100  0.32095064  1.0
  Ni  Ni110  1  0.00000000  0.77703433  0.32095064  1.0
  Ni  Ni111  1  0.33333333  0.11036767  0.32095064  1.0
  Ni  Ni112  1  0.33333333  0.44370100  0.32095064  1.0
  Ni  Ni113  1  0.33333333  0.77703433  0.32095064  1.0
  Ni  Ni114  1  0.66666667  0.11036767  0.32095064  1.0
  Ni  Ni115  1  0.66666667  0.44370100  0.32095064  1.0
  Ni  Ni116  1  0.66666667  0.77703433  0.32095064  1.0
  Ni  Ni117  1  0.00000000  0.22296567  0.29777836  1.0
  Ni  Ni118  1  0.00000000  0.55629900  0.29777836  1.0
  Ni  Ni119  1  0.00000000  0.88963233  0.29777836  1.0
  Ni  Ni120  1  0.33333333  0.22296567  0.29777836  1.0
  Ni  Ni121  1  0.33333333  0.55629900  0.29777836  1.0
  Ni  Ni122  1  0.33333333  0.88963233  0.29777836  1.0
  Ni  Ni123  1  0.66666667  0.22296567  0.29777836  1.0
  Ni  Ni124  1  0.66666667  0.55629900  0.29777836  1.0
  Ni  Ni125  1  0.66666667  0.88963233  0.29777836  1.0
  Mo  Mo126  1  0.00000000  0.00000000  0.34507879  1.0
  Mo  Mo127  1  0.00000000  0.33333333  0.34507879  1.0
  Mo  Mo128  1  0.00000000  0.66666667  0.34507879  1.0
  Mo  Mo129  1  0.33333333  0.00000000  0.34507879  1.0
  Mo  Mo130  1  0.33333333  0.33333333  0.34507879  1.0
  Mo  Mo131  1  0.33333333  0.66666667  0.34507879  1.0
  Mo  Mo132  1  0.66666667  0.00000000  0.34507879  1.0
  Mo  Mo133  1  0.66666667  0.33333333  0.34507879  1.0
  Mo  Mo134  1  0.66666667  0.66666667  0.34507879  1.0
  Ni  Ni135  1  0.00000000  0.11036767  0.39237921  1.0
  Ni  Ni136  1  0.00000000  0.44370100  0.39237921  1.0
  Ni  Ni137  1  0.00000000  0.77703433  0.39237921  1.0
  Ni  Ni138  1  0.33333333  0.11036767  0.39237921  1.0
  Ni  Ni139  1  0.33333333  0.44370100  0.39237921  1.0
  Ni  Ni140  1  0.33333333  0.77703433  0.39237921  1.0
  Ni  Ni141  1  0.66666667  0.11036767  0.39237921  1.0
  Ni  Ni142  1  0.66666667  0.44370100  0.39237921  1.0
  Ni  Ni143  1  0.66666667  0.77703433  0.39237921  1.0
  Ni  Ni144  1  0.00000000  0.22296567  0.36920693  1.0
  Ni  Ni145  1  0.00000000  0.55629900  0.36920693  1.0
  Ni  Ni146  1  0.00000000  0.88963233  0.36920693  1.0
  Ni  Ni147  1  0.33333333  0.22296567  0.36920693  1.0
  Ni  Ni148  1  0.33333333  0.55629900  0.36920693  1.0
  Ni  Ni149  1  0.33333333  0.88963233  0.36920693  1.0
  Ni  Ni150  1  0.66666667  0.22296567  0.36920693  1.0
  Ni  Ni151  1  0.66666667  0.55629900  0.36920693  1.0
  Ni  Ni152  1  0.66666667  0.88963233  0.36920693  1.0
  Mo  Mo153  1  0.00000000  0.00000000  0.41650736  1.0
  Mo  Mo154  1  0.00000000  0.33333333  0.41650736  1.0
  Mo  Mo155  1  0.00000000  0.66666667  0.41650736  1.0
  Mo  Mo156  1  0.33333333  0.00000000  0.41650736  1.0
  Mo  Mo157  1  0.33333333  0.33333333  0.41650736  1.0
  Mo  Mo158  1  0.33333333  0.66666667  0.41650736  1.0
  Mo  Mo159  1  0.66666667  0.00000000  0.41650736  1.0
  Mo  Mo160  1  0.66666667  0.33333333  0.41650736  1.0
  Mo  Mo161  1  0.66666667  0.66666667  0.41650736  1.0
