# generated using pymatgen
data_Ni2Mo
_symmetry_space_group_name_H-M   'P 1'
_cell_length_a   7.95859799
_cell_length_b   20.52129030
_cell_length_c   29.53894445
_cell_angle_alpha   92.98850748
_cell_angle_beta   90.00000000
_cell_angle_gamma   101.18110025
_symmetry_Int_Tables_number   1
_chemical_formula_structural   Ni2Mo
_chemical_formula_sum   'Ni108 Mo54'
_cell_volume   4726.06333749
_cell_formula_units_Z   54
loop_
 _symmetry_equiv_pos_site_id
 _symmetry_equiv_pos_as_xyz
  1  'x, y, z'
loop_
 _atom_site_type_symbol
 _atom_site_label
 _atom_site_symmetry_multiplicity
 _atom_site_fract_x
 _atom_site_fract_y
 _atom_site_fract_z
 _atom_site_occupancy
  Mo  Mo0  1  0.29761905  0.17857143  0.03571429  1.0
  Mo  Mo1  1  0.29761905  0.51190476  0.03571429  1.0
  Mo  Mo2  1  0.29761905  0.84523810  0.03571429  1.0
  Mo  Mo3  1  0.63095238  0.17857143  0.03571429  1.0
  Mo  Mo4  1  0.63095238  0.51190476  0.03571429  1.0
  Mo  Mo5  1  0.63095238  0.84523810  0.03571429  1.0
  Mo  Mo6  1  0.96428571  0.17857143  0.03571429  1.0
  Mo  Mo7  1  0.96428571  0.51190476  0.03571429  1.0
  Mo  Mo8  1  0.96428571  0.84523810  0.03571429  1.0
  Mo  Mo9  1  0.22619048  0.03571429  0.10714286  1.0
  Mo  Mo10  1  0.22619048  0.36904762  0.10714286  1.0
  Mo  Mo11  1  0.22619048  0.70238095  0.10714286  1.0
  Mo  Mo12  1  0.55952381  0.03571429  0.10714286  1.0
  Mo  Mo13  1  0.55952381  0.36904762  0.10714286  1.0
  Mo  Mo14  1  0.55952381  0.70238095  0.10714286  1.0
  Mo  Mo15  1  0.89285714  0.03571429  0.10714286  1.0
  Mo  Mo16  1  0.89285714  0.36904762  0.10714286  1.0
  Mo  Mo17  1  0.89285714  0.70238095  0.10714286  1.0
  Mo  Mo18  1  0.15476190  0.22619048  0.17857143  1.0
  Mo  Mo19  1  0.15476190  0.55952381  0.17857143  1.0
  Mo  Mo20  1  0.15476190  0.89285714  0.17857143  1.0
  Mo  Mo21  1  0.48809524  0.22619048  0.17857143  1.0
  Mo  Mo22  1  0.48809524  0.55952381  0.17857143  1.0
  Mo  Mo23  1  0.48809524  0.89285714  0.17857143  1.0
  Mo  Mo24  1  0.82142857  0.22619048  0.17857143  1.0
  Mo  Mo25  1  0.82142857  0.55952381  0.17857143  1.0
  Mo  Mo26  1  0.82142857  0.89285714  0.17857143  1.0
  Mo  Mo27  1  0.08333333  0.08333333  0.25000000  1.0
  Mo  Mo28  1  0.08333333  0.41666667  0.25000000  1.0
  Mo  Mo29  1  0.08333333  0.75000000  0.25000000  1.0
  Mo  Mo30  1  0.41666667  0.08333333  0.25000000  1.0
  Mo  Mo31  1  0.41666667  0.41666667  0.25000000  1.0
  Mo  Mo32  1  0.41666667  0.75000000  0.25000000  1.0
  Mo  Mo33  1  0.75000000  0.08333333  0.25000000  1.0
  Mo  Mo34  1  0.75000000  0.41666667  0.25000000  1.0
  Mo  Mo35  1  0.75000000  0.75000000  0.25000000  1.0
  Mo  Mo36  1  0.01190476  0.27380952  0.32142857  1.0
  Mo  Mo37  1  0.01190476  0.60714286  0.32142857  1.0
  Mo  Mo38  1  0.01190476  0.94047619  0.32142857  1.0
  Mo  Mo39  1  0.34523810  0.27380952  0.32142857  1.0
  Mo  Mo40  1  0.34523810  0.60714286  0.32142857  1.0
  Mo  Mo41  1  0.34523810  0.94047619  0.32142857  1.0
  Mo  Mo42  1  0.67857143  0.27380952  0.32142857  1.0
  Mo  Mo43  1  0.67857143  0.60714286  0.32142857  1.0
  Mo  Mo44  1  0.67857143  0.94047619  0.32142857  1.0
  Mo  Mo45  1  0.27380952  0.13095238  0.39285714  1.0
  Mo  Mo46  1  0.27380952  0.46428571  0.39285714  1.0
  Mo  Mo47  1  0.27380952  0.79761905  0.39285714  1.0
  Mo  Mo48  1  0.60714286  0.13095238  0.39285714  1.0
  Mo  Mo49  1  0.60714286  0.46428571  0.39285714  1.0
  Mo  Mo50  1  0.60714286  0.79761905  0.39285714  1.0
  Mo  Mo51  1  0.94047619  0.13095238  0.39285714  1.0
  Mo  Mo52  1  0.94047619  0.46428571  0.39285714  1.0
  Mo  Mo53  1  0.94047619  0.79761905  0.39285714  1.0
  Ni  Ni54  1  0.07513131  0.06692929  0.03523636  1.0
  Ni  Ni55  1  0.07513131  0.40026262  0.03523636  1.0
  Ni  Ni56  1  0.07513131  0.73359595  0.03523636  1.0
  Ni  Ni57  1  0.40846464  0.06692929  0.03523636  1.0
  Ni  Ni58  1  0.40846464  0.40026262  0.03523636  1.0
  Ni  Ni59  1  0.40846464  0.73359595  0.03523636  1.0
  Ni  Ni60  1  0.74179798  0.06692929  0.03523636  1.0
  Ni  Ni61  1  0.74179798  0.40026262  0.03523636  1.0
  Ni  Ni62  1  0.74179798  0.73359595  0.03523636  1.0
  Ni  Ni63  1  0.00370274  0.25740548  0.10666493  1.0
  Ni  Ni64  1  0.00370274  0.59073881  0.10666493  1.0
  Ni  Ni65  1  0.00370274  0.92407214  0.10666493  1.0
  Ni  Ni66  1  0.33703607  0.25740548  0.10666493  1.0
  Ni  Ni67  1  0.33703607  0.59073881  0.10666493  1.0
  Ni  Ni68  1  0.33703607  0.92407214  0.10666493  1.0
  Ni  Ni69  1  0.67036940  0.25740548  0.10666493  1.0
  Ni  Ni70  1  0.67036940  0.59073881  0.10666493  1.0
  Ni  Ni71  1  0.67036940  0.92407214  0.10666493  1.0
  Ni  Ni72  1  0.11534488  0.14735643  0.10762079  1.0
  Ni  Ni73  1  0.11534488  0.48068976  0.10762079  1.0
  Ni  Ni74  1  0.11534488  0.81402310  0.10762079  1.0
  Ni  Ni75  1  0.44867821  0.14735643  0.10762079  1.0
  Ni  Ni76  1  0.44867821  0.48068976  0.10762079  1.0
  Ni  Ni77  1  0.44867821  0.81402310  0.10762079  1.0
  Ni  Ni78  1  0.78201155  0.14735643  0.10762079  1.0
  Ni  Ni79  1  0.78201155  0.48068976  0.10762079  1.0
  Ni  Ni80  1  0.78201155  0.81402310  0.10762079  1.0
  Ni  Ni81  1  0.18677345  0.29021357  0.03619221  1.0
  Ni  Ni82  1  0.18677345  0.62354690  0.03619221  1.0
  Ni  Ni83  1  0.18677345  0.95688024  0.03619221  1.0
  Ni  Ni84  1  0.52010679  0.29021357  0.03619221  1.0
  Ni  Ni85  1  0.52010679  0.62354690  0.03619221  1.0
  Ni  Ni86  1  0.52010679  0.95688024  0.03619221  1.0
  Ni  Ni87  1  0.85344012  0.29021357  0.03619221  1.0
  Ni  Ni88  1  0.85344012  0.62354690  0.03619221  1.0
  Ni  Ni89  1  0.85344012  0.95688024  0.03619221  1.0
  Ni  Ni90  1  0.26560750  0.11454833  0.17809350  1.0
  Ni  Ni91  1  0.26560750  0.44788167  0.17809350  1.0
  Ni  Ni92  1  0.26560750  0.78121500  0.17809350  1.0
  Ni  Ni93  1  0.59894083  0.11454833  0.17809350  1.0
  Ni  Ni94  1  0.59894083  0.44788167  0.17809350  1.0
  Ni  Ni95  1  0.59894083  0.78121500  0.17809350  1.0
  Ni  Ni96  1  0.93227417  0.11454833  0.17809350  1.0
  Ni  Ni97  1  0.93227417  0.44788167  0.17809350  1.0
  Ni  Ni98  1  0.93227417  0.78121500  0.17809350  1.0
  Ni  Ni99  1  0.19417893  0.30502452  0.24952207  1.0
  Ni  Ni100  1  0.19417893  0.63835786  0.24952207  1.0
  Ni  Ni101  1  0.19417893  0.97169119  0.24952207  1.0
  Ni  Ni102  1  0.52751226  0.30502452  0.24952207  1.0
  Ni  Ni103  1  0.52751226  0.63835786  0.24952207  1.0
  Ni  Ni104  1  0.52751226  0.97169119  0.24952207  1.0
  Ni  Ni105  1  0.86084560  0.30502452  0.24952207  1.0
  Ni  Ni106  1  0.86084560  0.63835786  0.24952207  1.0
  Ni  Ni107  1  0.86084560  0.97169119  0.24952207  1.0
  Ni  Ni108  1  0.30582107  0.19497548  0.25047793  1.0
  Ni  Ni109  1  0.30582107  0.52830881  0.25047793  1.0
  Ni  Ni110  1  0.30582107  0.86164214  0.25047793  1.0
  Ni  Ni111  1  0.63915440  0.19497548  0.25047793  1.0
  Ni  Ni112  1  0.63915440  0.52830881  0.25047793  1.0
  Ni  Ni113  1  0.63915440  0.86164214  0.25047793  1.0
  Ni  Ni114  1  0.97248774  0.19497548  0.25047793  1.0
  Ni  Ni115  1  0.97248774  0.52830881  0.25047793  1.0
  Ni  Ni116  1  0.97248774  0.86164214  0.25047793  1.0
  Ni  Ni117  1  0.04391631  0.00449929  0.17904936  1.0
  Ni  Ni118  1  0.04391631  0.33783262  0.17904936  1.0
  Ni  Ni119  1  0.04391631  0.67116595  0.17904936  1.0
  Ni  Ni120  1  0.37724964  0.00449929  0.17904936  1.0
  Ni  Ni121  1  0.37724964  0.33783262  0.17904936  1.0
  Ni  Ni122  1  0.37724964  0.67116595  0.17904936  1.0
  Ni  Ni123  1  0.71058298  0.00449929  0.17904936  1.0
  Ni  Ni124  1  0.71058298  0.33783262  0.17904936  1.0
  Ni  Ni125  1  0.71058298  0.67116595  0.17904936  1.0
  Ni  Ni126  1  0.12275036  0.16216738  0.32095064  1.0
  Ni  Ni127  1  0.12275036  0.49550071  0.32095064  1.0
  Ni  Ni128  1  0.12275036  0.82883405  0.32095064  1.0
  Ni  Ni129  1  0.45608369  0.16216738  0.32095064  1.0
  Ni  Ni130  1  0.45608369  0.49550071  0.32095064  1.0
  Ni  Ni131  1  0.45608369  0.82883405  0.32095064  1.0
  Ni  Ni132  1  0.78941702  0.16216738  0.32095064  1.0
  Ni  Ni133  1  0.78941702  0.49550071  0.32095064  1.0
  Ni  Ni134  1  0.78941702  0.82883405  0.32095064  1.0
  Ni  Ni135  1  0.05132179  0.01931024  0.39237921  1.0
  Ni  Ni136  1  0.05132179  0.35264357  0.39237921  1.0
  Ni  Ni137  1  0.05132179  0.68597690  0.39237921  1.0
  Ni  Ni138  1  0.38465512  0.01931024  0.39237921  1.0
  Ni  Ni139  1  0.38465512  0.35264357  0.39237921  1.0
  Ni  Ni140  1  0.38465512  0.68597690  0.39237921  1.0
  Ni  Ni141  1  0.71798845  0.01931024  0.39237921  1.0
  Ni  Ni142  1  0.71798845  0.35264357  0.39237921  1.0
  Ni  Ni143  1  0.71798845  0.68597690  0.39237921  1.0
  Ni  Ni144  1  0.16296393  0.24259452  0.39333507  1.0
  Ni  Ni145  1  0.16296393  0.57592786  0.39333507  1.0
  Ni  Ni146  1  0.16296393  0.90926119  0.39333507  1.0
  Ni  Ni147  1  0.49629726  0.24259452  0.39333507  1.0
  Ni  Ni148  1  0.49629726  0.57592786  0.39333507  1.0
  Ni  Ni149  1  0.49629726  0.90926119  0.39333507  1.0
  Ni  Ni150  1  0.82963060  0.24259452  0.39333507  1.0
  Ni  Ni151  1  0.82963060  0.57592786  0.39333507  1.0
  Ni  Ni152  1  0.82963060  0.90926119  0.39333507  1.0
  Ni  Ni153  1  0.23439250  0.05211833  0.32190650  1.0
  Ni  Ni154  1  0.23439250  0.38545167  0.32190650  1.0
  Ni  Ni155  1  0.23439250  0.71878500  0.32190650  1.0
  Ni  Ni156  1  0.56772583  0.05211833  0.32190650  1.0
  Ni  Ni157  1  0.56772583  0.38545167  0.32190650  1.0
  Ni  Ni158  1  0.56772583  0.71878500  0.32190650  1.0
  Ni  Ni159  1  0.90105917  0.05211833  0.32190650  1.0
  Ni  Ni160  1  0.90105917  0.38545167  0.32190650  1.0
  Ni  Ni161  1  0.90105917  0.71878500  0.32190650  1.0
