# generated using pymatgen
data_Ni2Mo
_symmetry_space_group_name_H-M   'P 1'
_cell_length_a   13.43504193
_cell_length_b   20.52129030
_cell_length_c   29.57042514
_cell_angle_alpha   90.50202566
_cell_angle_beta   92.28669868
_cell_angle_gamma   95.93736800
_symmetry_Int_Tables_number   1
_chemical_formula_structural   Ni2Mo
_chemical_formula_sum   'Ni180 Mo90'
_cell_volume   8101.82286428
_cell_formula_units_Z   90
loop_
 _symmetry_equiv_pos_site_id
 _symmetry_equiv_pos_as_xyz
  1  'x, y, z'
loop_
 _atom_site_type_symbol
 _atom_site_label
 _atom_site_symmetry_multiplicity
 _atom_site_fract_x
 _atom_site_fract_y
 _atom_site_fract_z
 _atom_site_occupancy
  Mo  Mo0  1  0.25478451  0.30785488  0.07643535  1.0
  Mo  Mo1  1  0.25478451  0.64118822  0.07643535  1.0
  Mo  Mo2  1  0.25478451  0.97452155  0.07643535  1.0
  Mo  Mo3  1  0.58811785  0.30785488  0.07643535  1.0
  Mo  Mo4  1  0.58811785  0.64118822  0.07643535  1.0
  Mo  Mo5  1  0.58811785  0.97452155  0.07643535  1.0
  Mo  Mo6  1  0.92145118  0.30785488  0.07643535  1.0
  Mo  Mo7  1  0.92145118  0.64118822  0.07643535  1.0
  Mo  Mo8  1  0.92145118  0.97452155  0.07643535  1.0
  Mo  Mo9  1  0.11589563  0.15507710  0.03476869  1.0
  Mo  Mo10  1  0.11589563  0.48841044  0.03476869  1.0
  Mo  Mo11  1  0.11589563  0.82174377  0.03476869  1.0
  Mo  Mo12  1  0.44922896  0.15507710  0.03476869  1.0
  Mo  Mo13  1  0.44922896  0.48841044  0.03476869  1.0
  Mo  Mo14  1  0.44922896  0.82174377  0.03476869  1.0
  Mo  Mo15  1  0.78256229  0.15507710  0.03476869  1.0
  Mo  Mo16  1  0.78256229  0.48841044  0.03476869  1.0
  Mo  Mo17  1  0.78256229  0.82174377  0.03476869  1.0
  Mo  Mo18  1  0.19922896  0.28007710  0.15976869  1.0
  Mo  Mo19  1  0.19922896  0.61341044  0.15976869  1.0
  Mo  Mo20  1  0.19922896  0.94674377  0.15976869  1.0
  Mo  Mo21  1  0.53256229  0.28007710  0.15976869  1.0
  Mo  Mo22  1  0.53256229  0.61341044  0.15976869  1.0
  Mo  Mo23  1  0.53256229  0.94674377  0.15976869  1.0
  Mo  Mo24  1  0.86589562  0.28007710  0.15976869  1.0
  Mo  Mo25  1  0.86589562  0.61341044  0.15976869  1.0
  Mo  Mo26  1  0.86589563  0.94674377  0.15976869  1.0
  Mo  Mo27  1  0.06034007  0.12729933  0.11810202  1.0
  Mo  Mo28  1  0.06034007  0.46063266  0.11810202  1.0
  Mo  Mo29  1  0.06034007  0.79396599  0.11810202  1.0
  Mo  Mo30  1  0.39367340  0.12729933  0.11810202  1.0
  Mo  Mo31  1  0.39367340  0.46063266  0.11810202  1.0
  Mo  Mo32  1  0.39367340  0.79396599  0.11810202  1.0
  Mo  Mo33  1  0.72700674  0.12729933  0.11810202  1.0
  Mo  Mo34  1  0.72700674  0.46063266  0.11810202  1.0
  Mo  Mo35  1  0.72700674  0.79396599  0.11810202  1.0
  Mo  Mo36  1  0.14367340  0.25229933  0.24310202  1.0
  Mo  Mo37  1  0.14367340  0.58563266  0.24310202  1.0
  Mo  Mo38  1  0.14367340  0.91896599  0.24310202  1.0
  Mo  Mo39  1  0.47700674  0.25229933  0.24310202  1.0
  Mo  Mo40  1  0.47700674  0.58563266  0.24310202  1.0
  Mo  Mo41  1  0.47700674  0.91896599  0.24310202  1.0
  Mo  Mo42  1  0.81034007  0.25229933  0.24310202  1.0
  Mo  Mo43  1  0.81034007  0.58563266  0.24310202  1.0
  Mo  Mo44  1  0.81034007  0.91896599  0.24310202  1.0
  Mo  Mo45  1  0.00478451  0.09952155  0.20143535  1.0
  Mo  Mo46  1  0.00478451  0.43285488  0.20143535  1.0
  Mo  Mo47  1  0.00478451  0.76618822  0.20143535  1.0
  Mo  Mo48  1  0.33811785  0.09952155  0.20143535  1.0
  Mo  Mo49  1  0.33811785  0.43285488  0.20143535  1.0
  Mo  Mo50  1  0.33811785  0.76618822  0.20143535  1.0
  Mo  Mo51  1  0.67145118  0.09952155  0.20143535  1.0
  Mo  Mo52  1  0.67145118  0.43285488  0.20143535  1.0
  Mo  Mo53  1  0.67145118  0.76618822  0.20143535  1.0
  Mo  Mo54  1  0.08811785  0.22452155  0.32643535  1.0
  Mo  Mo55  1  0.08811785  0.55785488  0.32643535  1.0
  Mo  Mo56  1  0.08811785  0.89118822  0.32643535  1.0
  Mo  Mo57  1  0.42145118  0.22452155  0.32643535  1.0
  Mo  Mo58  1  0.42145118  0.55785488  0.32643535  1.0
  Mo  Mo59  1  0.42145118  0.89118822  0.32643535  1.0
  Mo  Mo60  1  0.75478451  0.22452155  0.32643535  1.0
  Mo  Mo61  1  0.75478451  0.55785488  0.32643535  1.0
  Mo  Mo62  1  0.75478451  0.89118822  0.32643535  1.0
  Mo  Mo63  1  0.28256229  0.07174377  0.28476869  1.0
  Mo  Mo64  1  0.28256229  0.40507710  0.28476869  1.0
  Mo  Mo65  1  0.28256229  0.73841044  0.28476869  1.0
  Mo  Mo66  1  0.61589563  0.07174377  0.28476869  1.0
  Mo  Mo67  1  0.61589563  0.40507710  0.28476869  1.0
  Mo  Mo68  1  0.61589563  0.73841044  0.28476869  1.0
  Mo  Mo69  1  0.94922896  0.07174377  0.28476869  1.0
  Mo  Mo70  1  0.94922896  0.40507710  0.28476869  1.0
  Mo  Mo71  1  0.94922896  0.73841044  0.28476869  1.0
  Mo  Mo72  1  0.03256229  0.19674377  0.40976869  1.0
  Mo  Mo73  1  0.03256229  0.53007710  0.40976869  1.0
  Mo  Mo74  1  0.03256229  0.86341044  0.40976869  1.0
  Mo  Mo75  1  0.36589562  0.19674377  0.40976869  1.0
  Mo  Mo76  1  0.36589562  0.53007710  0.40976869  1.0
  Mo  Mo77  1  0.36589562  0.86341044  0.40976869  1.0
  Mo  Mo78  1  0.69922896  0.19674377  0.40976869  1.0
  Mo  Mo79  1  0.69922896  0.53007710  0.40976869  1.0
  Mo  Mo80  1  0.69922896  0.86341044  0.40976869  1.0
  Mo  Mo81  1  0.22700674  0.04396599  0.36810202  1.0
  Mo  Mo82  1  0.22700674  0.37729933  0.36810202  1.0
  Mo  Mo83  1  0.22700674  0.71063266  0.36810202  1.0
  Mo  Mo84  1  0.56034007  0.04396599  0.36810202  1.0
  Mo  Mo85  1  0.56034007  0.37729933  0.36810202  1.0
  Mo  Mo86  1  0.56034007  0.71063266  0.36810202  1.0
  Mo  Mo87  1  0.89367340  0.04396599  0.36810202  1.0
  Mo  Mo88  1  0.89367340  0.37729933  0.36810202  1.0
  Mo  Mo89  1  0.89367340  0.71063266  0.36810202  1.0
  Ni  Ni90  1  0.29287476  0.21485959  0.02097273  1.0
  Ni  Ni91  1  0.29287476  0.54819292  0.02097273  1.0
  Ni  Ni92  1  0.29287476  0.88152626  0.02097273  1.0
  Ni  Ni93  1  0.62620810  0.21485959  0.02097273  1.0
  Ni  Ni94  1  0.62620810  0.54819292  0.02097273  1.0
  Ni  Ni95  1  0.62620810  0.88152626  0.02097273  1.0
  Ni  Ni96  1  0.95954143  0.21485959  0.02097273  1.0
  Ni  Ni97  1  0.95954143  0.54819292  0.02097273  1.0
  Ni  Ni98  1  0.95954143  0.88152626  0.02097273  1.0
  Ni  Ni99  1  0.09843032  0.03430403  0.06263940  1.0
  Ni  Ni100  1  0.09843032  0.36763737  0.06263940  1.0
  Ni  Ni101  1  0.09843032  0.70097070  0.06263940  1.0
  Ni  Ni102  1  0.43176365  0.03430403  0.06263940  1.0
  Ni  Ni103  1  0.43176365  0.36763737  0.06263940  1.0
  Ni  Ni104  1  0.43176365  0.70097070  0.06263940  1.0
  Ni  Ni105  1  0.76509699  0.03430403  0.06263940  1.0
  Ni  Ni106  1  0.76509699  0.36763737  0.06263940  1.0
  Ni  Ni107  1  0.76509699  0.70097070  0.06263940  1.0
  Ni  Ni108  1  0.13336093  0.27585017  0.00689798  1.0
  Ni  Ni109  1  0.13336093  0.60918351  0.00689798  1.0
  Ni  Ni110  1  0.13336093  0.94251684  0.00689798  1.0
  Ni  Ni111  1  0.46669426  0.27585017  0.00689798  1.0
  Ni  Ni112  1  0.46669426  0.60918351  0.00689798  1.0
  Ni  Ni113  1  0.46669426  0.94251684  0.00689798  1.0
  Ni  Ni114  1  0.80002760  0.27585017  0.00689798  1.0
  Ni  Ni115  1  0.80002760  0.60918351  0.00689798  1.0
  Ni  Ni116  1  0.80002760  0.94251684  0.00689798  1.0
  Ni  Ni117  1  0.27224982  0.09529462  0.04856465  1.0
  Ni  Ni118  1  0.27224982  0.42862795  0.04856465  1.0
  Ni  Ni119  1  0.27224982  0.76196128  0.04856465  1.0
  Ni  Ni120  1  0.60558315  0.09529462  0.04856465  1.0
  Ni  Ni121  1  0.60558315  0.42862795  0.04856465  1.0
  Ni  Ni122  1  0.60558315  0.76196128  0.04856465  1.0
  Ni  Ni123  1  0.93891649  0.09529462  0.04856465  1.0
  Ni  Ni124  1  0.93891649  0.42862795  0.04856465  1.0
  Ni  Ni125  1  0.93891649  0.76196128  0.04856465  1.0
  Ni  Ni126  1  0.23731921  0.18708181  0.10430606  1.0
  Ni  Ni127  1  0.23731921  0.52041515  0.10430606  1.0
  Ni  Ni128  1  0.23731921  0.85374848  0.10430606  1.0
  Ni  Ni129  1  0.57065254  0.18708181  0.10430606  1.0
  Ni  Ni130  1  0.57065254  0.52041515  0.10430606  1.0
  Ni  Ni131  1  0.57065254  0.85374848  0.10430606  1.0
  Ni  Ni132  1  0.90398587  0.18708181  0.10430606  1.0
  Ni  Ni133  1  0.90398588  0.52041515  0.10430606  1.0
  Ni  Ni134  1  0.90398587  0.85374848  0.10430606  1.0
  Ni  Ni135  1  0.04287476  0.00652626  0.14597273  1.0
  Ni  Ni136  1  0.04287476  0.33985959  0.14597273  1.0
  Ni  Ni137  1  0.04287476  0.67319292  0.14597273  1.0
  Ni  Ni138  1  0.37620810  0.00652626  0.14597273  1.0
  Ni  Ni139  1  0.37620810  0.33985959  0.14597273  1.0
  Ni  Ni140  1  0.37620810  0.67319292  0.14597273  1.0
  Ni  Ni141  1  0.70954143  0.00652626  0.14597273  1.0
  Ni  Ni142  1  0.70954143  0.33985959  0.14597273  1.0
  Ni  Ni143  1  0.70954143  0.67319292  0.14597273  1.0
  Ni  Ni144  1  0.07780537  0.24807240  0.09023131  1.0
  Ni  Ni145  1  0.07780538  0.58140573  0.09023131  1.0
  Ni  Ni146  1  0.07780537  0.91473906  0.09023131  1.0
  Ni  Ni147  1  0.41113871  0.24807240  0.09023131  1.0
  Ni  Ni148  1  0.41113871  0.58140573  0.09023131  1.0
  Ni  Ni149  1  0.41113871  0.91473906  0.09023131  1.0
  Ni  Ni150  1  0.74447204  0.24807240  0.09023131  1.0
  Ni  Ni151  1  0.74447204  0.58140573  0.09023131  1.0
  Ni  Ni152  1  0.74447204  0.91473906  0.09023131  1.0
  Ni  Ni153  1  0.21669426  0.06751684  0.13189798  1.0
  Ni  Ni154  1  0.21669426  0.40085017  0.13189798  1.0
  Ni  Ni155  1  0.21669426  0.73418351  0.13189798  1.0
  Ni  Ni156  1  0.55002760  0.06751684  0.13189798  1.0
  Ni  Ni157  1  0.55002760  0.40085017  0.13189798  1.0
  Ni  Ni158  1  0.55002760  0.73418351  0.13189798  1.0
  Ni  Ni159  1  0.88336093  0.06751684  0.13189798  1.0
  Ni  Ni160  1  0.88336093  0.40085017  0.13189798  1.0
  Ni  Ni161  1  0.88336093  0.73418351  0.13189798  1.0
  Ni  Ni162  1  0.18176365  0.15930403  0.18763940  1.0
  Ni  Ni163  1  0.18176365  0.49263737  0.18763940  1.0
  Ni  Ni164  1  0.18176365  0.82597070  0.18763940  1.0
  Ni  Ni165  1  0.51509699  0.15930403  0.18763940  1.0
  Ni  Ni166  1  0.51509699  0.49263737  0.18763940  1.0
  Ni  Ni167  1  0.51509699  0.82597070  0.18763940  1.0
  Ni  Ni168  1  0.84843032  0.15930403  0.18763940  1.0
  Ni  Ni169  1  0.84843032  0.49263737  0.18763940  1.0
  Ni  Ni170  1  0.84843032  0.82597070  0.18763940  1.0
  Ni  Ni171  1  0.32065254  0.31208181  0.22930606  1.0
  Ni  Ni172  1  0.32065254  0.64541515  0.22930606  1.0
  Ni  Ni173  1  0.32065254  0.97874848  0.22930606  1.0
  Ni  Ni174  1  0.65398588  0.31208181  0.22930606  1.0
  Ni  Ni175  1  0.65398588  0.64541515  0.22930606  1.0
  Ni  Ni176  1  0.65398588  0.97874848  0.22930606  1.0
  Ni  Ni177  1  0.98731921  0.31208181  0.22930606  1.0
  Ni  Ni178  1  0.98731921  0.64541515  0.22930606  1.0
  Ni  Ni179  1  0.98731921  0.97874848  0.22930606  1.0
  Ni  Ni180  1  0.02224982  0.22029462  0.17356465  1.0
  Ni  Ni181  1  0.02224982  0.55362795  0.17356465  1.0
  Ni  Ni182  1  0.02224982  0.88696128  0.17356465  1.0
  Ni  Ni183  1  0.35558315  0.22029462  0.17356465  1.0
  Ni  Ni184  1  0.35558315  0.55362795  0.17356465  1.0
  Ni  Ni185  1  0.35558315  0.88696128  0.17356465  1.0
  Ni  Ni186  1  0.68891649  0.22029462  0.17356465  1.0
  Ni  Ni187  1  0.68891649  0.55362795  0.17356465  1.0
  Ni  Ni188  1  0.68891649  0.88696128  0.17356465  1.0
  Ni  Ni189  1  0.16113871  0.03973906  0.21523131  1.0
  Ni  Ni190  1  0.16113871  0.37307240  0.21523131  1.0
  Ni  Ni191  1  0.16113871  0.70640573  0.21523131  1.0
  Ni  Ni192  1  0.49447204  0.03973906  0.21523131  1.0
  Ni  Ni193  1  0.49447204  0.37307240  0.21523131  1.0
  Ni  Ni194  1  0.49447204  0.70640573  0.21523131  1.0
  Ni  Ni195  1  0.82780537  0.03973906  0.21523131  1.0
  Ni  Ni196  1  0.82780538  0.37307240  0.21523131  1.0
  Ni  Ni197  1  0.82780537  0.70640573  0.21523131  1.0
  Ni  Ni198  1  0.12620810  0.13152626  0.27097273  1.0
  Ni  Ni199  1  0.12620810  0.46485959  0.27097273  1.0
  Ni  Ni200  1  0.12620810  0.79819292  0.27097273  1.0
  Ni  Ni201  1  0.45954143  0.13152626  0.27097273  1.0
  Ni  Ni202  1  0.45954143  0.46485959  0.27097273  1.0
  Ni  Ni203  1  0.45954143  0.79819292  0.27097273  1.0
  Ni  Ni204  1  0.79287476  0.13152626  0.27097273  1.0
  Ni  Ni205  1  0.79287476  0.46485959  0.27097273  1.0
  Ni  Ni206  1  0.79287476  0.79819292  0.27097273  1.0
  Ni  Ni207  1  0.26509699  0.28430403  0.31263940  1.0
  Ni  Ni208  1  0.26509699  0.61763737  0.31263940  1.0
  Ni  Ni209  1  0.26509699  0.95097070  0.31263940  1.0
  Ni  Ni210  1  0.59843032  0.28430403  0.31263940  1.0
  Ni  Ni211  1  0.59843032  0.61763737  0.31263940  1.0
  Ni  Ni212  1  0.59843032  0.95097070  0.31263940  1.0
  Ni  Ni213  1  0.93176365  0.28430403  0.31263940  1.0
  Ni  Ni214  1  0.93176365  0.61763737  0.31263940  1.0
  Ni  Ni215  1  0.93176365  0.95097070  0.31263940  1.0
  Ni  Ni216  1  0.30002760  0.19251684  0.25689798  1.0
  Ni  Ni217  1  0.30002760  0.52585017  0.25689798  1.0
  Ni  Ni218  1  0.30002760  0.85918351  0.25689798  1.0
  Ni  Ni219  1  0.63336093  0.19251684  0.25689798  1.0
  Ni  Ni220  1  0.63336093  0.52585017  0.25689798  1.0
  Ni  Ni221  1  0.63336093  0.85918351  0.25689798  1.0
  Ni  Ni222  1  0.96669426  0.19251684  0.25689798  1.0
  Ni  Ni223  1  0.96669426  0.52585017  0.25689798  1.0
  Ni  Ni224  1  0.96669426  0.85918351  0.25689798  1.0
  Ni  Ni225  1  0.10558315  0.01196128  0.29856465  1.0
  Ni  Ni226  1  0.10558315  0.34529462  0.29856465  1.0
  Ni  Ni227  1  0.10558315  0.67862795  0.29856465  1.0
  Ni  Ni228  1  0.43891649  0.01196128  0.29856465  1.0
  Ni  Ni229  1  0.43891649  0.34529462  0.29856465  1.0
  Ni  Ni230  1  0.43891649  0.67862795  0.29856465  1.0
  Ni  Ni231  1  0.77224982  0.01196128  0.29856465  1.0
  Ni  Ni232  1  0.77224982  0.34529462  0.29856465  1.0
  Ni  Ni233  1  0.77224982  0.67862795  0.29856465  1.0
  Ni  Ni234  1  0.07065254  0.10374848  0.35430606  1.0
  Ni  Ni235  1  0.07065254  0.43708181  0.35430606  1.0
  Ni  Ni236  1  0.07065254  0.77041515  0.35430606  1.0
  Ni  Ni237  1  0.40398587  0.10374848  0.35430606  1.0
  Ni  Ni238  1  0.40398587  0.43708181  0.35430606  1.0
  Ni  Ni239  1  0.40398587  0.77041515  0.35430606  1.0
  Ni  Ni240  1  0.73731921  0.10374848  0.35430606  1.0
  Ni  Ni241  1  0.73731921  0.43708181  0.35430606  1.0
  Ni  Ni242  1  0.73731921  0.77041515  0.35430606  1.0
  Ni  Ni243  1  0.20954143  0.25652626  0.39597273  1.0
  Ni  Ni244  1  0.20954143  0.58985959  0.39597273  1.0
  Ni  Ni245  1  0.20954143  0.92319292  0.39597273  1.0
  Ni  Ni246  1  0.54287476  0.25652626  0.39597273  1.0
  Ni  Ni247  1  0.54287476  0.58985959  0.39597273  1.0
  Ni  Ni248  1  0.54287476  0.92319292  0.39597273  1.0
  Ni  Ni249  1  0.87620810  0.25652626  0.39597273  1.0
  Ni  Ni250  1  0.87620810  0.58985959  0.39597273  1.0
  Ni  Ni251  1  0.87620810  0.92319292  0.39597273  1.0
  Ni  Ni252  1  0.24447204  0.16473906  0.34023131  1.0
  Ni  Ni253  1  0.24447204  0.49807240  0.34023131  1.0
  Ni  Ni254  1  0.24447204  0.83140573  0.34023131  1.0
  Ni  Ni255  1  0.57780537  0.16473906  0.34023131  1.0
  Ni  Ni256  1  0.57780537  0.49807240  0.34023131  1.0
  Ni  Ni257  1  0.57780537  0.83140573  0.34023131  1.0
  Ni  Ni258  1  0.91113871  0.16473906  0.34023131  1.0
  Ni  Ni259  1  0.91113871  0.49807240  0.34023131  1.0
  Ni  Ni260  1  0.91113871  0.83140573  0.34023131  1.0
  Ni  Ni261  1  0.05002760  0.31751684  0.38189798  1.0
  Ni  Ni262  1  0.05002760  0.65085017  0.38189798  1.0
  Ni  Ni263  1  0.05002760  0.98418351  0.38189798  1.0
  Ni  Ni264  1  0.38336093  0.31751684  0.38189798  1.0
  Ni  Ni265  1  0.38336093  0.65085017  0.38189798  1.0
  Ni  Ni266  1  0.38336093  0.98418351  0.38189798  1.0
  Ni  Ni267  1  0.71669426  0.31751684  0.38189798  1.0
  Ni  Ni268  1  0.71669426  0.65085017  0.38189798  1.0
  Ni  Ni269  1  0.71669426  0.98418351  0.38189798  1.0
