# generated using pymatgen
data_Ni2Mo
_symmetry_space_group_name_H-M   'P 1'
_cell_length_a   7.95859799
_cell_length_b   35.45703875
_cell_length_c   29.24975998
_cell_angle_alpha   98.89796830
_cell_angle_beta   90.00000000
_cell_angle_gamma   96.44380902
_symmetry_Int_Tables_number   1
_chemical_formula_structural   Ni2Mo
_chemical_formula_sum   'Ni180 Mo90'
_cell_volume   8101.82286428
_cell_formula_units_Z   90
loop_
 _symmetry_equiv_pos_site_id
 _symmetry_equiv_pos_as_xyz
  1  'x, y, z'
loop_
 _atom_site_type_symbol
 _atom_site_label
 _atom_site_symmetry_multiplicity
 _atom_site_fract_x
 _atom_site_fract_y
 _atom_site_fract_z
 _atom_site_occupancy
  Mo  Mo0  1  0.24061683  0.12030842  0.96523131  1.0
  Mo  Mo1  1  0.24061683  0.45364175  0.96523131  1.0
  Mo  Mo2  1  0.24061683  0.78697508  0.96523131  1.0
  Mo  Mo3  1  0.57395017  0.12030842  0.96523131  1.0
  Mo  Mo4  1  0.57395017  0.45364175  0.96523131  1.0
  Mo  Mo5  1  0.57395017  0.78697508  0.96523131  1.0
  Mo  Mo6  1  0.90728350  0.12030842  0.96523131  1.0
  Mo  Mo7  1  0.90728350  0.45364175  0.96523131  1.0
  Mo  Mo8  1  0.90728350  0.78697508  0.96523131  1.0
  Mo  Mo9  1  0.12950572  0.23141953  0.92356465  1.0
  Mo  Mo10  1  0.12950572  0.56475286  0.92356465  1.0
  Mo  Mo11  1  0.12950572  0.89808619  0.92356465  1.0
  Mo  Mo12  1  0.46283906  0.23141953  0.92356465  1.0
  Mo  Mo13  1  0.46283906  0.56475286  0.92356465  1.0
  Mo  Mo14  1  0.46283906  0.89808619  0.92356465  1.0
  Mo  Mo15  1  0.79617239  0.23141953  0.92356465  1.0
  Mo  Mo16  1  0.79617239  0.56475286  0.92356465  1.0
  Mo  Mo17  1  0.79617239  0.89808619  0.92356465  1.0
  Mo  Mo18  1  0.01839461  0.00919731  0.88189798  1.0
  Mo  Mo19  1  0.01839461  0.34253064  0.88189798  1.0
  Mo  Mo20  1  0.01839461  0.67586397  0.88189798  1.0
  Mo  Mo21  1  0.35172794  0.00919731  0.88189798  1.0
  Mo  Mo22  1  0.35172794  0.34253064  0.88189798  1.0
  Mo  Mo23  1  0.35172794  0.67586397  0.88189798  1.0
  Mo  Mo24  1  0.68506128  0.00919731  0.88189798  1.0
  Mo  Mo25  1  0.68506128  0.34253064  0.88189798  1.0
  Mo  Mo26  1  0.68506128  0.67586397  0.88189798  1.0
  Mo  Mo27  1  0.24061683  0.12030842  0.84023131  1.0
  Mo  Mo28  1  0.24061683  0.45364175  0.84023131  1.0
  Mo  Mo29  1  0.24061683  0.78697508  0.84023131  1.0
  Mo  Mo30  1  0.57395017  0.12030842  0.84023131  1.0
  Mo  Mo31  1  0.57395017  0.45364175  0.84023131  1.0
  Mo  Mo32  1  0.57395017  0.78697508  0.84023131  1.0
  Mo  Mo33  1  0.90728350  0.12030842  0.84023131  1.0
  Mo  Mo34  1  0.90728350  0.45364175  0.84023131  1.0
  Mo  Mo35  1  0.90728350  0.78697508  0.84023131  1.0
  Mo  Mo36  1  0.12950572  0.23141953  0.79856465  1.0
  Mo  Mo37  1  0.12950572  0.56475286  0.79856465  1.0
  Mo  Mo38  1  0.12950572  0.89808619  0.79856465  1.0
  Mo  Mo39  1  0.46283906  0.23141953  0.79856465  1.0
  Mo  Mo40  1  0.46283906  0.56475286  0.79856465  1.0
  Mo  Mo41  1  0.46283906  0.89808619  0.79856465  1.0
  Mo  Mo42  1  0.79617239  0.23141953  0.79856465  1.0
  Mo  Mo43  1  0.79617239  0.56475286  0.79856465  1.0
  Mo  Mo44  1  0.79617239  0.89808619  0.79856465  1.0
  Mo  Mo45  1  0.01839461  0.00919731  0.75689798  1.0
  Mo  Mo46  1  0.01839461  0.34253064  0.75689798  1.0
  Mo  Mo47  1  0.01839461  0.67586397  0.75689798  1.0
  Mo  Mo48  1  0.35172794  0.00919731  0.75689798  1.0
  Mo  Mo49  1  0.35172794  0.34253064  0.75689798  1.0
  Mo  Mo50  1  0.35172794  0.67586397  0.75689798  1.0
  Mo  Mo51  1  0.68506128  0.00919731  0.75689798  1.0
  Mo  Mo52  1  0.68506128  0.34253064  0.75689798  1.0
  Mo  Mo53  1  0.68506128  0.67586397  0.75689798  1.0
  Mo  Mo54  1  0.24061683  0.12030842  0.71523131  1.0
  Mo  Mo55  1  0.24061683  0.45364175  0.71523131  1.0
  Mo  Mo56  1  0.24061683  0.78697508  0.71523131  1.0
  Mo  Mo57  1  0.57395017  0.12030842  0.71523131  1.0
  Mo  Mo58  1  0.57395017  0.45364175  0.71523131  1.0
  Mo  Mo59  1  0.57395017  0.78697508  0.71523131  1.0
  Mo  Mo60  1  0.90728350  0.12030842  0.71523131  1.0
  Mo  Mo61  1  0.90728350  0.45364175  0.71523131  1.0
  Mo  Mo62  1  0.90728350  0.78697508  0.71523131  1.0
  Mo  Mo63  1  0.12950572  0.23141953  0.67356465  1.0
  Mo  Mo64  1  0.12950572  0.56475286  0.67356465  1.0
  Mo  Mo65  1  0.12950572  0.89808619  0.67356465  1.0
  Mo  Mo66  1  0.46283906  0.23141953  0.67356465  1.0
  Mo  Mo67  1  0.46283906  0.56475286  0.67356465  1.0
  Mo  Mo68  1  0.46283906  0.89808619  0.67356465  1.0
  Mo  Mo69  1  0.79617239  0.23141953  0.67356465  1.0
  Mo  Mo70  1  0.79617239  0.56475286  0.67356465  1.0
  Mo  Mo71  1  0.79617239  0.89808619  0.67356465  1.0
  Mo  Mo72  1  0.01839461  0.00919731  0.63189798  1.0
  Mo  Mo73  1  0.01839461  0.34253064  0.63189798  1.0
  Mo  Mo74  1  0.01839461  0.67586397  0.63189798  1.0
  Mo  Mo75  1  0.35172794  0.00919731  0.63189798  1.0
  Mo  Mo76  1  0.35172794  0.34253064  0.63189798  1.0
  Mo  Mo77  1  0.35172794  0.67586397  0.63189798  1.0
  Mo  Mo78  1  0.68506128  0.00919731  0.63189798  1.0
  Mo  Mo79  1  0.68506128  0.34253064  0.63189798  1.0
  Mo  Mo80  1  0.68506128  0.67586397  0.63189798  1.0
  Mo  Mo81  1  0.24061683  0.12030842  0.59023131  1.0
  Mo  Mo82  1  0.24061683  0.45364175  0.59023131  1.0
  Mo  Mo83  1  0.24061683  0.78697508  0.59023131  1.0
  Mo  Mo84  1  0.57395017  0.12030842  0.59023131  1.0
  Mo  Mo85  1  0.57395017  0.45364175  0.59023131  1.0
  Mo  Mo86  1  0.57395017  0.78697508  0.59023131  1.0
  Mo  Mo87  1  0.90728350  0.12030842  0.59023131  1.0
  Mo  Mo88  1  0.90728350  0.45364175  0.59023131  1.0
  Mo  Mo89  1  0.90728350  0.78697508  0.59023131  1.0
  Ni  Ni90  1  0.31493872  0.26895219  0.99310202  1.0
  Ni  Ni91  1  0.31493872  0.60228553  0.99310202  1.0
  Ni  Ni92  1  0.31493872  0.93561886  0.99310202  1.0
  Ni  Ni93  1  0.64827206  0.26895219  0.99310202  1.0
  Ni  Ni94  1  0.64827206  0.60228553  0.99310202  1.0
  Ni  Ni95  1  0.64827206  0.93561886  0.99310202  1.0
  Ni  Ni96  1  0.98160539  0.26895219  0.99310202  1.0
  Ni  Ni97  1  0.98160539  0.60228553  0.99310202  1.0
  Ni  Ni98  1  0.98160539  0.93561886  0.99310202  1.0
  Ni  Ni99  1  0.20382761  0.04672997  0.95143535  1.0
  Ni  Ni100  1  0.20382761  0.38006331  0.95143535  1.0
  Ni  Ni101  1  0.20382761  0.71339664  0.95143535  1.0
  Ni  Ni102  1  0.53716094  0.04672997  0.95143535  1.0
  Ni  Ni103  1  0.53716094  0.38006331  0.95143535  1.0
  Ni  Ni104  1  0.53716094  0.71339664  0.95143535  1.0
  Ni  Ni105  1  0.87049428  0.04672997  0.95143535  1.0
  Ni  Ni106  1  0.87049428  0.38006331  0.95143535  1.0
  Ni  Ni107  1  0.87049428  0.71339664  0.95143535  1.0
  Ni  Ni108  1  0.27740606  0.19388686  0.97902727  1.0
  Ni  Ni109  1  0.27740606  0.52722019  0.97902727  1.0
  Ni  Ni110  1  0.27740606  0.86055353  0.97902727  1.0
  Ni  Ni111  1  0.61073939  0.19388686  0.97902727  1.0
  Ni  Ni112  1  0.61073939  0.52722019  0.97902727  1.0
  Ni  Ni113  1  0.61073939  0.86055353  0.97902727  1.0
  Ni  Ni114  1  0.94407272  0.19388686  0.97902727  1.0
  Ni  Ni115  1  0.94407272  0.52722019  0.97902727  1.0
  Ni  Ni116  1  0.94407272  0.86055353  0.97902727  1.0
  Ni  Ni117  1  0.16629494  0.30499797  0.93736060  1.0
  Ni  Ni118  1  0.16629494  0.63833131  0.93736060  1.0
  Ni  Ni119  1  0.16629494  0.97166464  0.93736060  1.0
  Ni  Ni120  1  0.49962828  0.30499797  0.93736060  1.0
  Ni  Ni121  1  0.49962828  0.63833131  0.93736060  1.0
  Ni  Ni122  1  0.49962828  0.97166464  0.93736060  1.0
  Ni  Ni123  1  0.83296161  0.30499797  0.93736060  1.0
  Ni  Ni124  1  0.83296161  0.63833131  0.93736060  1.0
  Ni  Ni125  1  0.83296161  0.97166464  0.93736060  1.0
  Ni  Ni126  1  0.09271650  0.15784108  0.90976869  1.0
  Ni  Ni127  1  0.09271650  0.49117442  0.90976869  1.0
  Ni  Ni128  1  0.09271650  0.82450775  0.90976869  1.0
  Ni  Ni129  1  0.42604983  0.15784108  0.90976869  1.0
  Ni  Ni130  1  0.42604983  0.49117442  0.90976869  1.0
  Ni  Ni131  1  0.42604983  0.82450775  0.90976869  1.0
  Ni  Ni132  1  0.75938317  0.15784108  0.90976869  1.0
  Ni  Ni133  1  0.75938317  0.49117442  0.90976869  1.0
  Ni  Ni134  1  0.75938317  0.82450775  0.90976869  1.0
  Ni  Ni135  1  0.31493872  0.26895219  0.86810202  1.0
  Ni  Ni136  1  0.31493872  0.60228553  0.86810202  1.0
  Ni  Ni137  1  0.31493872  0.93561886  0.86810202  1.0
  Ni  Ni138  1  0.64827206  0.26895219  0.86810202  1.0
  Ni  Ni139  1  0.64827206  0.60228553  0.86810202  1.0
  Ni  Ni140  1  0.64827206  0.93561886  0.86810202  1.0
  Ni  Ni141  1  0.98160539  0.26895219  0.86810202  1.0
  Ni  Ni142  1  0.98160539  0.60228553  0.86810202  1.0
  Ni  Ni143  1  0.98160539  0.93561886  0.86810202  1.0
  Ni  Ni144  1  0.05518383  0.08277575  0.89569394  1.0
  Ni  Ni145  1  0.05518383  0.41610908  0.89569394  1.0
  Ni  Ni146  1  0.05518383  0.74944242  0.89569394  1.0
  Ni  Ni147  1  0.38851717  0.08277575  0.89569394  1.0
  Ni  Ni148  1  0.38851717  0.41610908  0.89569394  1.0
  Ni  Ni149  1  0.38851717  0.74944242  0.89569394  1.0
  Ni  Ni150  1  0.72185050  0.08277575  0.89569394  1.0
  Ni  Ni151  1  0.72185050  0.41610908  0.89569394  1.0
  Ni  Ni152  1  0.72185050  0.74944242  0.89569394  1.0
  Ni  Ni153  1  0.27740606  0.19388686  0.85402727  1.0
  Ni  Ni154  1  0.27740606  0.52722019  0.85402727  1.0
  Ni  Ni155  1  0.27740606  0.86055353  0.85402727  1.0
  Ni  Ni156  1  0.61073939  0.19388686  0.85402727  1.0
  Ni  Ni157  1  0.61073939  0.52722019  0.85402727  1.0
  Ni  Ni158  1  0.61073939  0.86055353  0.85402727  1.0
  Ni  Ni159  1  0.94407272  0.19388686  0.85402727  1.0
  Ni  Ni160  1  0.94407272  0.52722019  0.85402727  1.0
  Ni  Ni161  1  0.94407272  0.86055353  0.85402727  1.0
  Ni  Ni162  1  0.20382761  0.04672997  0.82643535  1.0
  Ni  Ni163  1  0.20382761  0.38006331  0.82643535  1.0
  Ni  Ni164  1  0.20382761  0.71339664  0.82643535  1.0
  Ni  Ni165  1  0.53716094  0.04672997  0.82643535  1.0
  Ni  Ni166  1  0.53716094  0.38006331  0.82643535  1.0
  Ni  Ni167  1  0.53716094  0.71339664  0.82643535  1.0
  Ni  Ni168  1  0.87049428  0.04672997  0.82643535  1.0
  Ni  Ni169  1  0.87049428  0.38006331  0.82643535  1.0
  Ni  Ni170  1  0.87049428  0.71339664  0.82643535  1.0
  Ni  Ni171  1  0.09271650  0.15784108  0.78476869  1.0
  Ni  Ni172  1  0.09271650  0.49117442  0.78476869  1.0
  Ni  Ni173  1  0.09271650  0.82450775  0.78476869  1.0
  Ni  Ni174  1  0.42604983  0.15784108  0.78476869  1.0
  Ni  Ni175  1  0.42604983  0.49117442  0.78476869  1.0
  Ni  Ni176  1  0.42604983  0.82450775  0.78476869  1.0
  Ni  Ni177  1  0.75938317  0.15784108  0.78476869  1.0
  Ni  Ni178  1  0.75938317  0.49117442  0.78476869  1.0
  Ni  Ni179  1  0.75938317  0.82450775  0.78476869  1.0
  Ni  Ni180  1  0.16629494  0.30499797  0.81236060  1.0
  Ni  Ni181  1  0.16629494  0.63833131  0.81236060  1.0
  Ni  Ni182  1  0.16629494  0.97166464  0.81236060  1.0
  Ni  Ni183  1  0.49962828  0.30499797  0.81236060  1.0
  Ni  Ni184  1  0.49962828  0.63833131  0.81236060  1.0
  Ni  Ni185  1  0.49962828  0.97166464  0.81236060  1.0
  Ni  Ni186  1  0.83296161  0.30499797  0.81236060  1.0
  Ni  Ni187  1  0.83296161  0.63833131  0.81236060  1.0
  Ni  Ni188  1  0.83296161  0.97166464  0.81236060  1.0
  Ni  Ni189  1  0.05518383  0.08277575  0.77069394  1.0
  Ni  Ni190  1  0.05518383  0.41610908  0.77069394  1.0
  Ni  Ni191  1  0.05518383  0.74944242  0.77069394  1.0
  Ni  Ni192  1  0.38851717  0.08277575  0.77069394  1.0
  Ni  Ni193  1  0.38851717  0.41610908  0.77069394  1.0
  Ni  Ni194  1  0.38851717  0.74944242  0.77069394  1.0
  Ni  Ni195  1  0.72185050  0.08277575  0.77069394  1.0
  Ni  Ni196  1  0.72185050  0.41610908  0.77069394  1.0
  Ni  Ni197  1  0.72185050  0.74944242  0.77069394  1.0
  Ni  Ni198  1  0.31493872  0.26895219  0.74310202  1.0
  Ni  Ni199  1  0.31493872  0.60228553  0.74310202  1.0
  Ni  Ni200  1  0.31493872  0.93561886  0.74310202  1.0
  Ni  Ni201  1  0.64827206  0.26895219  0.74310202  1.0
  Ni  Ni202  1  0.64827206  0.60228553  0.74310202  1.0
  Ni  Ni203  1  0.64827206  0.93561886  0.74310202  1.0
  Ni  Ni204  1  0.98160539  0.26895219  0.74310202  1.0
  Ni  Ni205  1  0.98160539  0.60228553  0.74310202  1.0
  Ni  Ni206  1  0.98160539  0.93561886  0.74310202  1.0
  Ni  Ni207  1  0.20382761  0.04672997  0.70143535  1.0
  Ni  Ni208  1  0.20382761  0.38006331  0.70143535  1.0
  Ni  Ni209  1  0.20382761  0.71339664  0.70143535  1.0
  Ni  Ni210  1  0.53716094  0.04672997  0.70143535  1.0
  Ni  Ni211  1  0.53716094  0.38006331  0.70143535  1.0
  Ni  Ni212  1  0.53716094  0.71339664  0.70143535  1.0
  Ni  Ni213  1  0.87049428  0.04672997  0.70143535  1.0
  Ni  Ni214  1  0.87049428  0.38006331  0.70143535  1.0
  Ni  Ni215  1  0.87049428  0.71339664  0.70143535  1.0
  Ni  Ni216  1  0.27740606  0.19388686  0.72902727  1.0
  Ni  Ni217  1  0.27740606  0.52722019  0.72902727  1.0
  Ni  Ni218  1  0.27740606  0.86055353  0.72902727  1.0
  Ni  Ni219  1  0.61073939  0.19388686  0.72902727  1.0
  Ni  Ni220  1  0.61073939  0.52722019  0.72902727  1.0
  Ni  Ni221  1  0.61073939  0.86055353  0.72902727  1.0
  Ni  Ni222  1  0.94407272  0.19388686  0.72902727  1.0
  Ni  Ni223  1  0.94407272  0.52722019  0.72902727  1.0
  Ni  Ni224  1  0.94407272  0.86055353  0.72902727  1.0
  Ni  Ni225  1  0.16629494  0.30499797  0.68736060  1.0
  Ni  Ni226  1  0.16629494  0.63833131  0.68736060  1.0
  Ni  Ni227  1  0.16629494  0.97166464  0.68736060  1.0
  Ni  Ni228  1  0.49962828  0.30499797  0.68736060  1.0
  Ni  Ni229  1  0.49962828  0.63833131  0.68736060  1.0
  Ni  Ni230  1  0.49962828  0.97166464  0.68736060  1.0
  Ni  Ni231  1  0.83296161  0.30499797  0.68736060  1.0
  Ni  Ni232  1  0.83296161  0.63833131  0.68736060  1.0
  Ni  Ni233  1  0.83296161  0.97166464  0.68736060  1.0
  Ni  Ni234  1  0.09271650  0.15784108  0.65976869  1.0
  Ni  Ni235  1  0.09271650  0.49117442  0.65976869  1.0
  Ni  Ni236  1  0.09271650  0.82450775  0.65976869  1.0
  Ni  Ni237  1  0.42604983  0.15784108  0.65976869  1.0
  Ni  Ni238  1  0.42604983  0.49117442  0.65976869  1.0
  Ni  Ni239  1  0.42604983  0.82450775  0.65976869  1.0
  Ni  Ni240  1  0.75938317  0.15784108  0.65976869  1.0
  Ni  Ni241  1  0.75938317  0.49117442  0.65976869  1.0
  Ni  Ni242  1  0.75938317  0.82450775  0.65976869  1.0
  Ni  Ni243  1  0.31493872  0.26895219  0.61810202  1.0
  Ni  Ni244  1  0.31493872  0.60228553  0.61810202  1.0
  Ni  Ni245  1  0.31493872  0.93561886  0.61810202  1.0
  Ni  Ni246  1  0.64827206  0.26895219  0.61810202  1.0
  Ni  Ni247  1  0.64827206  0.60228553  0.61810202  1.0
  Ni  Ni248  1  0.64827206  0.93561886  0.61810202  1.0
  Ni  Ni249  1  0.98160539  0.26895219  0.61810202  1.0
  Ni  Ni250  1  0.98160539  0.60228553  0.61810202  1.0
  Ni  Ni251  1  0.98160539  0.93561886  0.61810202  1.0
  Ni  Ni252  1  0.05518383  0.08277575  0.64569394  1.0
  Ni  Ni253  1  0.05518383  0.41610908  0.64569394  1.0
  Ni  Ni254  1  0.05518383  0.74944242  0.64569394  1.0
  Ni  Ni255  1  0.38851717  0.08277575  0.64569394  1.0
  Ni  Ni256  1  0.38851717  0.41610908  0.64569394  1.0
  Ni  Ni257  1  0.38851717  0.74944242  0.64569394  1.0
  Ni  Ni258  1  0.72185050  0.08277575  0.64569394  1.0
  Ni  Ni259  1  0.72185050  0.41610908  0.64569394  1.0
  Ni  Ni260  1  0.72185050  0.74944242  0.64569394  1.0
  Ni  Ni261  1  0.27740606  0.19388686  0.60402727  1.0
  Ni  Ni262  1  0.27740606  0.52722019  0.60402727  1.0
  Ni  Ni263  1  0.27740606  0.86055353  0.60402727  1.0
  Ni  Ni264  1  0.61073939  0.19388686  0.60402727  1.0
  Ni  Ni265  1  0.61073939  0.52722019  0.60402727  1.0
  Ni  Ni266  1  0.61073939  0.86055353  0.60402727  1.0
  Ni  Ni267  1  0.94407272  0.19388686  0.60402727  1.0
  Ni  Ni268  1  0.94407272  0.52722019  0.60402727  1.0
  Ni  Ni269  1  0.94407272  0.86055353  0.60402727  1.0
