# generated using pymatgen
data_Ni2Mo
_symmetry_space_group_name_H-M   'P 1'
_cell_length_a   17.52652035
_cell_length_b   23.40516866
_cell_length_c   25.44351550
_cell_angle_alpha   92.02433899
_cell_angle_beta   90.00426020
_cell_angle_gamma   103.84462872
_symmetry_Int_Tables_number   1
_chemical_formula_structural   Ni2Mo
_chemical_formula_sum   'Ni216 Mo108'
_cell_volume   10127.27858035
_cell_formula_units_Z   108
loop_
 _symmetry_equiv_pos_site_id
 _symmetry_equiv_pos_as_xyz
  1  'x, y, z'
loop_
 _atom_site_type_symbol
 _atom_site_label
 _atom_site_symmetry_multiplicity
 _atom_site_fract_x
 _atom_site_fract_y
 _atom_site_fract_z
 _atom_site_occupancy
  Mo  Mo0  1  0.18333333  0.03333333  0.05000000  1.0
  Mo  Mo1  1  0.18333333  0.36666667  0.05000000  1.0
  Mo  Mo2  1  0.18333333  0.70000000  0.05000000  1.0
  Mo  Mo3  1  0.51666667  0.03333333  0.05000000  1.0
  Mo  Mo4  1  0.51666667  0.36666667  0.05000000  1.0
  Mo  Mo5  1  0.51666667  0.70000000  0.05000000  1.0
  Mo  Mo6  1  0.85000000  0.03333333  0.05000000  1.0
  Mo  Mo7  1  0.85000000  0.36666667  0.05000000  1.0
  Mo  Mo8  1  0.85000000  0.70000000  0.05000000  1.0
  Mo  Mo9  1  0.06111111  0.17777778  0.01666667  1.0
  Mo  Mo10  1  0.06111111  0.51111111  0.01666667  1.0
  Mo  Mo11  1  0.06111111  0.84444444  0.01666667  1.0
  Mo  Mo12  1  0.39444444  0.17777778  0.01666667  1.0
  Mo  Mo13  1  0.39444444  0.51111111  0.01666667  1.0
  Mo  Mo14  1  0.39444444  0.84444444  0.01666667  1.0
  Mo  Mo15  1  0.72777778  0.17777778  0.01666667  1.0
  Mo  Mo16  1  0.72777778  0.51111111  0.01666667  1.0
  Mo  Mo17  1  0.72777778  0.84444444  0.01666667  1.0
  Mo  Mo18  1  0.09444444  0.07777778  0.11666667  1.0
  Mo  Mo19  1  0.09444444  0.41111111  0.11666667  1.0
  Mo  Mo20  1  0.09444444  0.74444444  0.11666667  1.0
  Mo  Mo21  1  0.42777778  0.07777778  0.11666667  1.0
  Mo  Mo22  1  0.42777778  0.41111111  0.11666667  1.0
  Mo  Mo23  1  0.42777778  0.74444444  0.11666667  1.0
  Mo  Mo24  1  0.76111111  0.07777778  0.11666667  1.0
  Mo  Mo25  1  0.76111111  0.41111111  0.11666667  1.0
  Mo  Mo26  1  0.76111111  0.74444444  0.11666667  1.0
  Mo  Mo27  1  0.30555556  0.22222222  0.08333333  1.0
  Mo  Mo28  1  0.30555556  0.55555556  0.08333333  1.0
  Mo  Mo29  1  0.30555556  0.88888889  0.08333333  1.0
  Mo  Mo30  1  0.63888889  0.22222222  0.08333333  1.0
  Mo  Mo31  1  0.63888889  0.55555556  0.08333333  1.0
  Mo  Mo32  1  0.63888889  0.88888889  0.08333333  1.0
  Mo  Mo33  1  0.97222222  0.22222222  0.08333333  1.0
  Mo  Mo34  1  0.97222222  0.55555556  0.08333333  1.0
  Mo  Mo35  1  0.97222222  0.88888889  0.08333333  1.0
  Mo  Mo36  1  0.00555556  0.12222222  0.18333333  1.0
  Mo  Mo37  1  0.00555556  0.45555556  0.18333333  1.0
  Mo  Mo38  1  0.00555556  0.78888889  0.18333333  1.0
  Mo  Mo39  1  0.33888889  0.12222222  0.18333333  1.0
  Mo  Mo40  1  0.33888889  0.45555556  0.18333333  1.0
  Mo  Mo41  1  0.33888889  0.78888889  0.18333333  1.0
  Mo  Mo42  1  0.67222222  0.12222222  0.18333333  1.0
  Mo  Mo43  1  0.67222222  0.45555556  0.18333333  1.0
  Mo  Mo44  1  0.67222222  0.78888889  0.18333333  1.0
  Mo  Mo45  1  0.21666667  0.26666667  0.15000000  1.0
  Mo  Mo46  1  0.21666667  0.60000000  0.15000000  1.0
  Mo  Mo47  1  0.21666667  0.93333333  0.15000000  1.0
  Mo  Mo48  1  0.55000000  0.26666667  0.15000000  1.0
  Mo  Mo49  1  0.55000000  0.60000000  0.15000000  1.0
  Mo  Mo50  1  0.55000000  0.93333333  0.15000000  1.0
  Mo  Mo51  1  0.88333333  0.26666667  0.15000000  1.0
  Mo  Mo52  1  0.88333333  0.60000000  0.15000000  1.0
  Mo  Mo53  1  0.88333333  0.93333333  0.15000000  1.0
  Mo  Mo54  1  0.25000000  0.16666667  0.25000000  1.0
  Mo  Mo55  1  0.25000000  0.50000000  0.25000000  1.0
  Mo  Mo56  1  0.25000000  0.83333333  0.25000000  1.0
  Mo  Mo57  1  0.58333333  0.16666667  0.25000000  1.0
  Mo  Mo58  1  0.58333333  0.50000000  0.25000000  1.0
  Mo  Mo59  1  0.58333333  0.83333333  0.25000000  1.0
  Mo  Mo60  1  0.91666667  0.16666667  0.25000000  1.0
  Mo  Mo61  1  0.91666667  0.50000000  0.25000000  1.0
  Mo  Mo62  1  0.91666667  0.83333333  0.25000000  1.0
  Mo  Mo63  1  0.12777778  0.31111111  0.21666667  1.0
  Mo  Mo64  1  0.12777778  0.64444444  0.21666667  1.0
  Mo  Mo65  1  0.12777778  0.97777778  0.21666667  1.0
  Mo  Mo66  1  0.46111111  0.31111111  0.21666667  1.0
  Mo  Mo67  1  0.46111111  0.64444444  0.21666667  1.0
  Mo  Mo68  1  0.46111111  0.97777778  0.21666667  1.0
  Mo  Mo69  1  0.79444444  0.31111111  0.21666667  1.0
  Mo  Mo70  1  0.79444444  0.64444444  0.21666667  1.0
  Mo  Mo71  1  0.79444444  0.97777778  0.21666667  1.0
  Mo  Mo72  1  0.16111111  0.21111111  0.31666667  1.0
  Mo  Mo73  1  0.16111111  0.54444444  0.31666667  1.0
  Mo  Mo74  1  0.16111111  0.87777778  0.31666667  1.0
  Mo  Mo75  1  0.49444444  0.21111111  0.31666667  1.0
  Mo  Mo76  1  0.49444444  0.54444444  0.31666667  1.0
  Mo  Mo77  1  0.49444444  0.87777778  0.31666667  1.0
  Mo  Mo78  1  0.82777778  0.21111111  0.31666667  1.0
  Mo  Mo79  1  0.82777778  0.54444444  0.31666667  1.0
  Mo  Mo80  1  0.82777778  0.87777778  0.31666667  1.0
  Mo  Mo81  1  0.03888889  0.02222222  0.28333333  1.0
  Mo  Mo82  1  0.03888889  0.35555556  0.28333333  1.0
  Mo  Mo83  1  0.03888889  0.68888889  0.28333333  1.0
  Mo  Mo84  1  0.37222222  0.02222222  0.28333333  1.0
  Mo  Mo85  1  0.37222222  0.35555556  0.28333333  1.0
  Mo  Mo86  1  0.37222222  0.68888889  0.28333333  1.0
  Mo  Mo87  1  0.70555556  0.02222222  0.28333333  1.0
  Mo  Mo88  1  0.70555556  0.35555556  0.28333333  1.0
  Mo  Mo89  1  0.70555556  0.68888889  0.28333333  1.0
  Mo  Mo90  1  0.07222222  0.25555556  0.38333333  1.0
  Mo  Mo91  1  0.07222222  0.58888889  0.38333333  1.0
  Mo  Mo92  1  0.07222222  0.92222222  0.38333333  1.0
  Mo  Mo93  1  0.40555556  0.25555556  0.38333333  1.0
  Mo  Mo94  1  0.40555556  0.58888889  0.38333333  1.0
  Mo  Mo95  1  0.40555556  0.92222222  0.38333333  1.0
  Mo  Mo96  1  0.73888889  0.25555556  0.38333333  1.0
  Mo  Mo97  1  0.73888889  0.58888889  0.38333333  1.0
  Mo  Mo98  1  0.73888889  0.92222222  0.38333333  1.0
  Mo  Mo99  1  0.28333333  0.06666667  0.35000000  1.0
  Mo  Mo100  1  0.28333333  0.40000000  0.35000000  1.0
  Mo  Mo101  1  0.28333333  0.73333333  0.35000000  1.0
  Mo  Mo102  1  0.61666667  0.06666667  0.35000000  1.0
  Mo  Mo103  1  0.61666667  0.40000000  0.35000000  1.0
  Mo  Mo104  1  0.61666667  0.73333333  0.35000000  1.0
  Mo  Mo105  1  0.95000000  0.06666667  0.35000000  1.0
  Mo  Mo106  1  0.95000000  0.40000000  0.35000000  1.0
  Mo  Mo107  1  0.95000000  0.73333333  0.35000000  1.0
  Ni  Ni108  1  0.18415112  0.14496486  0.05022303  1.0
  Ni  Ni109  1  0.18415112  0.47829819  0.05022303  1.0
  Ni  Ni110  1  0.18415112  0.81163152  0.05022303  1.0
  Ni  Ni111  1  0.51748446  0.14496486  0.05022303  1.0
  Ni  Ni112  1  0.51748446  0.47829819  0.05022303  1.0
  Ni  Ni113  1  0.51748446  0.81163152  0.05022303  1.0
  Ni  Ni114  1  0.85081779  0.14496486  0.05022303  1.0
  Ni  Ni115  1  0.85081779  0.47829819  0.05022303  1.0
  Ni  Ni116  1  0.85081779  0.81163152  0.05022303  1.0
  Ni  Ni117  1  0.06192890  0.28940930  0.01688970  1.0
  Ni  Ni118  1  0.06192890  0.62274263  0.01688970  1.0
  Ni  Ni119  1  0.06192890  0.95607597  0.01688970  1.0
  Ni  Ni120  1  0.39526223  0.28940930  0.01688970  1.0
  Ni  Ni121  1  0.39526223  0.62274263  0.01688970  1.0
  Ni  Ni122  1  0.39526223  0.95607597  0.01688970  1.0
  Ni  Ni123  1  0.72859557  0.28940930  0.01688970  1.0
  Ni  Ni124  1  0.72859557  0.62274263  0.01688970  1.0
  Ni  Ni125  1  0.72859557  0.95607597  0.01688970  1.0
  Ni  Ni126  1  0.06029332  0.06614626  0.01644363  1.0
  Ni  Ni127  1  0.06029332  0.39947959  0.01644363  1.0
  Ni  Ni128  1  0.06029332  0.73281292  0.01644363  1.0
  Ni  Ni129  1  0.39362666  0.06614626  0.01644363  1.0
  Ni  Ni130  1  0.39362666  0.39947959  0.01644363  1.0
  Ni  Ni131  1  0.39362666  0.73281292  0.01644363  1.0
  Ni  Ni132  1  0.72695999  0.06614626  0.01644363  1.0
  Ni  Ni133  1  0.72695999  0.39947959  0.01644363  1.0
  Ni  Ni134  1  0.72695999  0.73281292  0.01644363  1.0
  Ni  Ni135  1  0.18251554  0.25503514  0.04977697  1.0
  Ni  Ni136  1  0.18251554  0.58836848  0.04977697  1.0
  Ni  Ni137  1  0.18251554  0.92170181  0.04977697  1.0
  Ni  Ni138  1  0.51584888  0.25503514  0.04977697  1.0
  Ni  Ni139  1  0.51584888  0.58836848  0.04977697  1.0
  Ni  Ni140  1  0.51584888  0.92170181  0.04977697  1.0
  Ni  Ni141  1  0.84918221  0.25503514  0.04977697  1.0
  Ni  Ni142  1  0.84918221  0.58836848  0.04977697  1.0
  Ni  Ni143  1  0.84918221  0.92170181  0.04977697  1.0
  Ni  Ni144  1  0.09526223  0.18940930  0.11688970  1.0
  Ni  Ni145  1  0.09526223  0.52274263  0.11688970  1.0
  Ni  Ni146  1  0.09526223  0.85607597  0.11688970  1.0
  Ni  Ni147  1  0.42859557  0.18940930  0.11688970  1.0
  Ni  Ni148  1  0.42859557  0.52274263  0.11688970  1.0
  Ni  Ni149  1  0.42859557  0.85607597  0.11688970  1.0
  Ni  Ni150  1  0.76192890  0.18940930  0.11688970  1.0
  Ni  Ni151  1  0.76192890  0.52274263  0.11688970  1.0
  Ni  Ni152  1  0.76192890  0.85607597  0.11688970  1.0
  Ni  Ni153  1  0.30637334  0.00052041  0.08355637  1.0
  Ni  Ni154  1  0.30637334  0.33385374  0.08355637  1.0
  Ni  Ni155  1  0.30637334  0.66718708  0.08355637  1.0
  Ni  Ni156  1  0.63970668  0.00052041  0.08355637  1.0
  Ni  Ni157  1  0.63970668  0.33385374  0.08355637  1.0
  Ni  Ni158  1  0.63970668  0.66718708  0.08355637  1.0
  Ni  Ni159  1  0.97304001  0.00052041  0.08355637  1.0
  Ni  Ni160  1  0.97304001  0.33385374  0.08355637  1.0
  Ni  Ni161  1  0.97304001  0.66718708  0.08355637  1.0
  Ni  Ni162  1  0.30473777  0.11059070  0.08311030  1.0
  Ni  Ni163  1  0.30473777  0.44392403  0.08311030  1.0
  Ni  Ni164  1  0.30473777  0.77725737  0.08311030  1.0
  Ni  Ni165  1  0.63807110  0.11059070  0.08311030  1.0
  Ni  Ni166  1  0.63807110  0.44392403  0.08311030  1.0
  Ni  Ni167  1  0.63807110  0.77725737  0.08311030  1.0
  Ni  Ni168  1  0.97140443  0.11059070  0.08311030  1.0
  Ni  Ni169  1  0.97140443  0.44392403  0.08311030  1.0
  Ni  Ni170  1  0.97140443  0.77725737  0.08311030  1.0
  Ni  Ni171  1  0.09362666  0.29947959  0.11644363  1.0
  Ni  Ni172  1  0.09362666  0.63281292  0.11644363  1.0
  Ni  Ni173  1  0.09362666  0.96614626  0.11644363  1.0
  Ni  Ni174  1  0.42695999  0.29947959  0.11644363  1.0
  Ni  Ni175  1  0.42695999  0.63281292  0.11644363  1.0
  Ni  Ni176  1  0.42695999  0.96614626  0.11644363  1.0
  Ni  Ni177  1  0.76029332  0.29947959  0.11644363  1.0
  Ni  Ni178  1  0.76029332  0.63281292  0.11644363  1.0
  Ni  Ni179  1  0.76029332  0.96614626  0.11644363  1.0
  Ni  Ni180  1  0.00637334  0.23385374  0.18355637  1.0
  Ni  Ni181  1  0.00637334  0.56718708  0.18355637  1.0
  Ni  Ni182  1  0.00637334  0.90052041  0.18355637  1.0
  Ni  Ni183  1  0.33970668  0.23385374  0.18355637  1.0
  Ni  Ni184  1  0.33970668  0.56718708  0.18355637  1.0
  Ni  Ni185  1  0.33970668  0.90052041  0.18355637  1.0
  Ni  Ni186  1  0.67304001  0.23385374  0.18355637  1.0
  Ni  Ni187  1  0.67304001  0.56718708  0.18355637  1.0
  Ni  Ni188  1  0.67304001  0.90052041  0.18355637  1.0
  Ni  Ni189  1  0.21748446  0.04496486  0.15022303  1.0
  Ni  Ni190  1  0.21748446  0.37829819  0.15022303  1.0
  Ni  Ni191  1  0.21748446  0.71163152  0.15022303  1.0
  Ni  Ni192  1  0.55081779  0.04496486  0.15022303  1.0
  Ni  Ni193  1  0.55081779  0.37829819  0.15022303  1.0
  Ni  Ni194  1  0.55081779  0.71163152  0.15022303  1.0
  Ni  Ni195  1  0.88415112  0.04496486  0.15022303  1.0
  Ni  Ni196  1  0.88415112  0.37829819  0.15022303  1.0
  Ni  Ni197  1  0.88415112  0.71163152  0.15022303  1.0
  Ni  Ni198  1  0.21584888  0.15503514  0.14977697  1.0
  Ni  Ni199  1  0.21584888  0.48836848  0.14977697  1.0
  Ni  Ni200  1  0.21584888  0.82170181  0.14977697  1.0
  Ni  Ni201  1  0.54918221  0.15503514  0.14977697  1.0
  Ni  Ni202  1  0.54918221  0.48836848  0.14977697  1.0
  Ni  Ni203  1  0.54918221  0.82170181  0.14977697  1.0
  Ni  Ni204  1  0.88251554  0.15503514  0.14977697  1.0
  Ni  Ni205  1  0.88251554  0.48836848  0.14977697  1.0
  Ni  Ni206  1  0.88251554  0.82170181  0.14977697  1.0
  Ni  Ni207  1  0.00473777  0.01059070  0.18311030  1.0
  Ni  Ni208  1  0.00473777  0.34392403  0.18311030  1.0
  Ni  Ni209  1  0.00473777  0.67725737  0.18311030  1.0
  Ni  Ni210  1  0.33807110  0.01059070  0.18311030  1.0
  Ni  Ni211  1  0.33807110  0.34392403  0.18311030  1.0
  Ni  Ni212  1  0.33807110  0.67725737  0.18311030  1.0
  Ni  Ni213  1  0.67140443  0.01059070  0.18311030  1.0
  Ni  Ni214  1  0.67140443  0.34392403  0.18311030  1.0
  Ni  Ni215  1  0.67140443  0.67725737  0.18311030  1.0
  Ni  Ni216  1  0.25081779  0.27829819  0.25022303  1.0
  Ni  Ni217  1  0.25081779  0.61163152  0.25022303  1.0
  Ni  Ni218  1  0.25081779  0.94496486  0.25022303  1.0
  Ni  Ni219  1  0.58415112  0.27829819  0.25022303  1.0
  Ni  Ni220  1  0.58415112  0.61163152  0.25022303  1.0
  Ni  Ni221  1  0.58415112  0.94496486  0.25022303  1.0
  Ni  Ni222  1  0.91748446  0.27829819  0.25022303  1.0
  Ni  Ni223  1  0.91748446  0.61163152  0.25022303  1.0
  Ni  Ni224  1  0.91748446  0.94496486  0.25022303  1.0
  Ni  Ni225  1  0.12859557  0.08940930  0.21688970  1.0
  Ni  Ni226  1  0.12859557  0.42274263  0.21688970  1.0
  Ni  Ni227  1  0.12859557  0.75607597  0.21688970  1.0
  Ni  Ni228  1  0.46192890  0.08940930  0.21688970  1.0
  Ni  Ni229  1  0.46192890  0.42274263  0.21688970  1.0
  Ni  Ni230  1  0.46192890  0.75607597  0.21688970  1.0
  Ni  Ni231  1  0.79526223  0.08940930  0.21688970  1.0
  Ni  Ni232  1  0.79526223  0.42274263  0.21688970  1.0
  Ni  Ni233  1  0.79526223  0.75607597  0.21688970  1.0
  Ni  Ni234  1  0.12695999  0.19947959  0.21644363  1.0
  Ni  Ni235  1  0.12695999  0.53281292  0.21644363  1.0
  Ni  Ni236  1  0.12695999  0.86614626  0.21644363  1.0
  Ni  Ni237  1  0.46029332  0.19947959  0.21644363  1.0
  Ni  Ni238  1  0.46029332  0.53281292  0.21644363  1.0
  Ni  Ni239  1  0.46029332  0.86614626  0.21644363  1.0
  Ni  Ni240  1  0.79362666  0.19947959  0.21644363  1.0
  Ni  Ni241  1  0.79362666  0.53281292  0.21644363  1.0
  Ni  Ni242  1  0.79362666  0.86614626  0.21644363  1.0
  Ni  Ni243  1  0.24918221  0.05503514  0.24977697  1.0
  Ni  Ni244  1  0.24918221  0.38836848  0.24977697  1.0
  Ni  Ni245  1  0.24918221  0.72170181  0.24977697  1.0
  Ni  Ni246  1  0.58251554  0.05503514  0.24977697  1.0
  Ni  Ni247  1  0.58251554  0.38836848  0.24977697  1.0
  Ni  Ni248  1  0.58251554  0.72170181  0.24977697  1.0
  Ni  Ni249  1  0.91584888  0.05503514  0.24977697  1.0
  Ni  Ni250  1  0.91584888  0.38836848  0.24977697  1.0
  Ni  Ni251  1  0.91584888  0.72170181  0.24977697  1.0
  Ni  Ni252  1  0.16192890  0.32274263  0.31688970  1.0
  Ni  Ni253  1  0.16192890  0.65607597  0.31688970  1.0
  Ni  Ni254  1  0.16192890  0.98940930  0.31688970  1.0
  Ni  Ni255  1  0.49526223  0.32274263  0.31688970  1.0
  Ni  Ni256  1  0.49526223  0.65607597  0.31688970  1.0
  Ni  Ni257  1  0.49526223  0.98940930  0.31688970  1.0
  Ni  Ni258  1  0.82859557  0.32274263  0.31688970  1.0
  Ni  Ni259  1  0.82859557  0.65607597  0.31688970  1.0
  Ni  Ni260  1  0.82859557  0.98940930  0.31688970  1.0
  Ni  Ni261  1  0.03970668  0.13385374  0.28355637  1.0
  Ni  Ni262  1  0.03970668  0.46718708  0.28355637  1.0
  Ni  Ni263  1  0.03970668  0.80052041  0.28355637  1.0
  Ni  Ni264  1  0.37304001  0.13385374  0.28355637  1.0
  Ni  Ni265  1  0.37304001  0.46718708  0.28355637  1.0
  Ni  Ni266  1  0.37304001  0.80052041  0.28355637  1.0
  Ni  Ni267  1  0.70637334  0.13385374  0.28355637  1.0
  Ni  Ni268  1  0.70637334  0.46718708  0.28355637  1.0
  Ni  Ni269  1  0.70637334  0.80052041  0.28355637  1.0
  Ni  Ni270  1  0.03807110  0.24392403  0.28311030  1.0
  Ni  Ni271  1  0.03807110  0.57725737  0.28311030  1.0
  Ni  Ni272  1  0.03807110  0.91059070  0.28311030  1.0
  Ni  Ni273  1  0.37140443  0.24392403  0.28311030  1.0
  Ni  Ni274  1  0.37140443  0.57725737  0.28311030  1.0
  Ni  Ni275  1  0.37140443  0.91059070  0.28311030  1.0
  Ni  Ni276  1  0.70473777  0.24392403  0.28311030  1.0
  Ni  Ni277  1  0.70473777  0.57725737  0.28311030  1.0
  Ni  Ni278  1  0.70473777  0.91059070  0.28311030  1.0
  Ni  Ni279  1  0.16029332  0.09947959  0.31644363  1.0
  Ni  Ni280  1  0.16029332  0.43281292  0.31644363  1.0
  Ni  Ni281  1  0.16029332  0.76614626  0.31644363  1.0
  Ni  Ni282  1  0.49362666  0.09947959  0.31644363  1.0
  Ni  Ni283  1  0.49362666  0.43281292  0.31644363  1.0
  Ni  Ni284  1  0.49362666  0.76614626  0.31644363  1.0
  Ni  Ni285  1  0.82695999  0.09947959  0.31644363  1.0
  Ni  Ni286  1  0.82695999  0.43281292  0.31644363  1.0
  Ni  Ni287  1  0.82695999  0.76614626  0.31644363  1.0
  Ni  Ni288  1  0.07304001  0.03385374  0.38355637  1.0
  Ni  Ni289  1  0.07304001  0.36718708  0.38355637  1.0
  Ni  Ni290  1  0.07304001  0.70052041  0.38355637  1.0
  Ni  Ni291  1  0.40637334  0.03385374  0.38355637  1.0
  Ni  Ni292  1  0.40637334  0.36718708  0.38355637  1.0
  Ni  Ni293  1  0.40637334  0.70052041  0.38355637  1.0
  Ni  Ni294  1  0.73970668  0.03385374  0.38355637  1.0
  Ni  Ni295  1  0.73970668  0.36718708  0.38355637  1.0
  Ni  Ni296  1  0.73970668  0.70052041  0.38355637  1.0
  Ni  Ni297  1  0.28415112  0.17829819  0.35022303  1.0
  Ni  Ni298  1  0.28415112  0.51163152  0.35022303  1.0
  Ni  Ni299  1  0.28415112  0.84496486  0.35022303  1.0
  Ni  Ni300  1  0.61748446  0.17829819  0.35022303  1.0
  Ni  Ni301  1  0.61748446  0.51163152  0.35022303  1.0
  Ni  Ni302  1  0.61748446  0.84496486  0.35022303  1.0
  Ni  Ni303  1  0.95081779  0.17829819  0.35022303  1.0
  Ni  Ni304  1  0.95081779  0.51163152  0.35022303  1.0
  Ni  Ni305  1  0.95081779  0.84496486  0.35022303  1.0
  Ni  Ni306  1  0.28251554  0.28836848  0.34977697  1.0
  Ni  Ni307  1  0.28251554  0.62170181  0.34977697  1.0
  Ni  Ni308  1  0.28251554  0.95503514  0.34977697  1.0
  Ni  Ni309  1  0.61584888  0.28836848  0.34977697  1.0
  Ni  Ni310  1  0.61584888  0.62170181  0.34977697  1.0
  Ni  Ni311  1  0.61584888  0.95503514  0.34977697  1.0
  Ni  Ni312  1  0.94918221  0.28836848  0.34977697  1.0
  Ni  Ni313  1  0.94918221  0.62170181  0.34977697  1.0
  Ni  Ni314  1  0.94918221  0.95503514  0.34977697  1.0
  Ni  Ni315  1  0.07140443  0.14392403  0.38311030  1.0
  Ni  Ni316  1  0.07140443  0.47725737  0.38311030  1.0
  Ni  Ni317  1  0.07140443  0.81059070  0.38311030  1.0
  Ni  Ni318  1  0.40473777  0.14392403  0.38311030  1.0
  Ni  Ni319  1  0.40473777  0.47725737  0.38311030  1.0
  Ni  Ni320  1  0.40473777  0.81059070  0.38311030  1.0
  Ni  Ni321  1  0.73807110  0.14392403  0.38311030  1.0
  Ni  Ni322  1  0.73807110  0.47725737  0.38311030  1.0
  Ni  Ni323  1  0.73807110  0.81059070  0.38311030  1.0
