# generated using pymatgen
data_Ni2Mo
_symmetry_space_group_name_H-M   'P 1'
_cell_length_a   13.43504193
_cell_length_b   13.43504193
_cell_length_c   40.30512579
_cell_angle_alpha   131.81501368
_cell_angle_beta   60.57570966
_cell_angle_gamma   145.54241542
_symmetry_Int_Tables_number   1
_chemical_formula_structural   Ni2Mo
_chemical_formula_sum   'Ni72 Mo36'
_cell_volume   3038.18357410
_cell_formula_units_Z   36
loop_
 _symmetry_equiv_pos_site_id
 _symmetry_equiv_pos_as_xyz
  1  'x, y, z'
loop_
 _atom_site_type_symbol
 _atom_site_label
 _atom_site_symmetry_multiplicity
 _atom_site_fract_x
 _atom_site_fract_y
 _atom_site_fract_z
 _atom_site_occupancy
  Ni  Ni0  1  0.22296567  0.00000000  0.05592728  1.0
  Ni  Ni1  1  0.22296567  0.33333333  0.05592728  1.0
  Ni  Ni2  1  0.22296567  0.66666667  0.05592728  1.0
  Ni  Ni3  1  0.55629900  0.00000000  0.05592728  1.0
  Ni  Ni4  1  0.55629900  0.33333333  0.05592728  1.0
  Ni  Ni5  1  0.55629900  0.66666667  0.05592728  1.0
  Ni  Ni6  1  0.88963233  0.00000000  0.05592728  1.0
  Ni  Ni7  1  0.88963233  0.33333333  0.05592728  1.0
  Ni  Ni8  1  0.88963233  0.66666667  0.05592728  1.0
  Ni  Ni9  1  0.11036767  0.00000000  0.01839461  1.0
  Ni  Ni10  1  0.11036767  0.33333333  0.01839461  1.0
  Ni  Ni11  1  0.11036767  0.66666667  0.01839461  1.0
  Ni  Ni12  1  0.44370100  0.00000000  0.01839461  1.0
  Ni  Ni13  1  0.44370100  0.33333333  0.01839461  1.0
  Ni  Ni14  1  0.44370100  0.66666667  0.01839461  1.0
  Ni  Ni15  1  0.77703433  0.00000000  0.01839461  1.0
  Ni  Ni16  1  0.77703433  0.33333333  0.01839461  1.0
  Ni  Ni17  1  0.77703433  0.66666667  0.01839461  1.0
  Mo  Mo18  1  0.00000000  0.00000000  0.09271650  1.0
  Mo  Mo19  1  0.00000000  0.33333333  0.09271650  1.0
  Mo  Mo20  1  0.00000000  0.66666667  0.09271650  1.0
  Mo  Mo21  1  0.33333333  0.00000000  0.09271650  1.0
  Mo  Mo22  1  0.33333333  0.33333333  0.09271650  1.0
  Mo  Mo23  1  0.33333333  0.66666667  0.09271650  1.0
  Mo  Mo24  1  0.66666667  0.00000000  0.09271650  1.0
  Mo  Mo25  1  0.66666667  0.33333333  0.09271650  1.0
  Mo  Mo26  1  0.66666667  0.66666667  0.09271650  1.0
  Ni  Ni27  1  0.22296567  0.00000000  0.16703839  1.0
  Ni  Ni28  1  0.22296567  0.33333333  0.16703839  1.0
  Ni  Ni29  1  0.22296567  0.66666667  0.16703839  1.0
  Ni  Ni30  1  0.55629900  0.00000000  0.16703839  1.0
  Ni  Ni31  1  0.55629900  0.33333333  0.16703839  1.0
  Ni  Ni32  1  0.55629900  0.66666667  0.16703839  1.0
  Ni  Ni33  1  0.88963233  0.00000000  0.16703839  1.0
  Ni  Ni34  1  0.88963233  0.33333333  0.16703839  1.0
  Ni  Ni35  1  0.88963233  0.66666667  0.16703839  1.0
  Ni  Ni36  1  0.11036767  0.00000000  0.12950572  1.0
  Ni  Ni37  1  0.11036767  0.33333333  0.12950572  1.0
  Ni  Ni38  1  0.11036767  0.66666667  0.12950572  1.0
  Ni  Ni39  1  0.44370100  0.00000000  0.12950572  1.0
  Ni  Ni40  1  0.44370100  0.33333333  0.12950572  1.0
  Ni  Ni41  1  0.44370100  0.66666667  0.12950572  1.0
  Ni  Ni42  1  0.77703433  0.00000000  0.12950572  1.0
  Ni  Ni43  1  0.77703433  0.33333333  0.12950572  1.0
  Ni  Ni44  1  0.77703433  0.66666667  0.12950572  1.0
  Mo  Mo45  1  0.00000000  0.00000000  0.20382761  1.0
  Mo  Mo46  1  0.00000000  0.33333333  0.20382761  1.0
  Mo  Mo47  1  0.00000000  0.66666667  0.20382761  1.0
  Mo  Mo48  1  0.33333333  0.00000000  0.20382761  1.0
  Mo  Mo49  1  0.33333333  0.33333333  0.20382761  1.0
  Mo  Mo50  1  0.33333333  0.66666667  0.20382761  1.0
  Mo  Mo51  1  0.66666667  0.00000000  0.20382761  1.0
  Mo  Mo52  1  0.66666667  0.33333333  0.20382761  1.0
  Mo  Mo53  1  0.66666667  0.66666667  0.20382761  1.0
  Ni  Ni54  1  0.22296567  0.00000000  0.27814950  1.0
  Ni  Ni55  1  0.22296567  0.33333333  0.27814950  1.0
  Ni  Ni56  1  0.22296567  0.66666667  0.27814950  1.0
  Ni  Ni57  1  0.55629900  0.00000000  0.27814950  1.0
  Ni  Ni58  1  0.55629900  0.33333333  0.27814950  1.0
  Ni  Ni59  1  0.55629900  0.66666667  0.27814950  1.0
  Ni  Ni60  1  0.88963233  0.00000000  0.27814950  1.0
  Ni  Ni61  1  0.88963233  0.33333333  0.27814950  1.0
  Ni  Ni62  1  0.88963233  0.66666667  0.27814950  1.0
  Ni  Ni63  1  0.11036767  0.00000000  0.24061683  1.0
  Ni  Ni64  1  0.11036767  0.33333333  0.24061683  1.0
  Ni  Ni65  1  0.11036767  0.66666667  0.24061683  1.0
  Ni  Ni66  1  0.44370100  0.00000000  0.24061683  1.0
  Ni  Ni67  1  0.44370100  0.33333333  0.24061683  1.0
  Ni  Ni68  1  0.44370100  0.66666667  0.24061683  1.0
  Ni  Ni69  1  0.77703433  0.00000000  0.24061683  1.0
  Ni  Ni70  1  0.77703433  0.33333333  0.24061683  1.0
  Ni  Ni71  1  0.77703433  0.66666667  0.24061683  1.0
  Mo  Mo72  1  0.00000000  0.00000000  0.31493872  1.0
  Mo  Mo73  1  0.00000000  0.33333333  0.31493872  1.0
  Mo  Mo74  1  0.00000000  0.66666667  0.31493872  1.0
  Mo  Mo75  1  0.33333333  0.00000000  0.31493872  1.0
  Mo  Mo76  1  0.33333333  0.33333333  0.31493872  1.0
  Mo  Mo77  1  0.33333333  0.66666667  0.31493872  1.0
  Mo  Mo78  1  0.66666667  0.00000000  0.31493872  1.0
  Mo  Mo79  1  0.66666667  0.33333333  0.31493872  1.0
  Mo  Mo80  1  0.66666667  0.66666667  0.31493872  1.0
  Ni  Ni81  1  0.22296567  0.00000000  0.38926061  1.0
  Ni  Ni82  1  0.22296567  0.33333333  0.38926061  1.0
  Ni  Ni83  1  0.22296567  0.66666667  0.38926061  1.0
  Ni  Ni84  1  0.55629900  0.00000000  0.38926061  1.0
  Ni  Ni85  1  0.55629900  0.33333333  0.38926061  1.0
  Ni  Ni86  1  0.55629900  0.66666667  0.38926061  1.0
  Ni  Ni87  1  0.88963233  0.00000000  0.38926061  1.0
  Ni  Ni88  1  0.88963233  0.33333333  0.38926061  1.0
  Ni  Ni89  1  0.88963233  0.66666667  0.38926061  1.0
  Ni  Ni90  1  0.11036767  0.00000000  0.35172794  1.0
  Ni  Ni91  1  0.11036767  0.33333333  0.35172794  1.0
  Ni  Ni92  1  0.11036767  0.66666667  0.35172794  1.0
  Ni  Ni93  1  0.44370100  0.00000000  0.35172794  1.0
  Ni  Ni94  1  0.44370100  0.33333333  0.35172794  1.0
  Ni  Ni95  1  0.44370100  0.66666667  0.35172794  1.0
  Ni  Ni96  1  0.77703433  0.00000000  0.35172794  1.0
  Ni  Ni97  1  0.77703433  0.33333333  0.35172794  1.0
  Ni  Ni98  1  0.77703433  0.66666667  0.35172794  1.0
  Mo  Mo99  1  0.00000000  0.00000000  0.42604983  1.0
  Mo  Mo100  1  0.00000000  0.33333333  0.42604983  1.0
  Mo  Mo101  1  0.00000000  0.66666667  0.42604983  1.0
  Mo  Mo102  1  0.33333333  0.00000000  0.42604983  1.0
  Mo  Mo103  1  0.33333333  0.33333333  0.42604983  1.0
  Mo  Mo104  1  0.33333333  0.66666667  0.42604983  1.0
  Mo  Mo105  1  0.66666667  0.00000000  0.42604983  1.0
  Mo  Mo106  1  0.66666667  0.33333333  0.42604983  1.0
  Mo  Mo107  1  0.66666667  0.66666667  0.42604983  1.0
