# generated using pymatgen
data_Ni2Mo
_symmetry_space_group_name_H-M   'P 1'
_cell_length_a   23.40516866
_cell_length_b   10.96865999
_cell_length_c   35.82677848
_cell_angle_alpha   65.90750684
_cell_angle_beta   55.67432649
_cell_angle_gamma   45.33471089
_symmetry_Int_Tables_number   1
_chemical_formula_structural   Ni2Mo
_chemical_formula_sum   'Ni108 Mo54'
_cell_volume   5401.21524285
_cell_formula_units_Z   54
loop_
 _symmetry_equiv_pos_site_id
 _symmetry_equiv_pos_as_xyz
  1  'x, y, z'
loop_
 _atom_site_type_symbol
 _atom_site_label
 _atom_site_symmetry_multiplicity
 _atom_site_fract_x
 _atom_site_fract_y
 _atom_site_fract_z
 _atom_site_occupancy
  Ni  Ni0  1  0.22185050  0.00111517  0.09333181  1.0
  Ni  Ni1  1  0.22185050  0.33444850  0.09333181  1.0
  Ni  Ni2  1  0.22185050  0.66778183  0.09333181  1.0
  Ni  Ni3  1  0.55518383  0.00111517  0.09333181  1.0
  Ni  Ni4  1  0.55518383  0.33444850  0.09333181  1.0
  Ni  Ni5  1  0.55518383  0.66778183  0.09333181  1.0
  Ni  Ni6  1  0.88851717  0.00111517  0.09333181  1.0
  Ni  Ni7  1  0.88851717  0.33444850  0.09333181  1.0
  Ni  Ni8  1  0.88851717  0.66778183  0.09333181  1.0
  Ni  Ni9  1  0.05518383  0.16778183  0.03083181  1.0
  Ni  Ni10  1  0.05518383  0.50111517  0.03083181  1.0
  Ni  Ni11  1  0.05518383  0.83444850  0.03083181  1.0
  Ni  Ni12  1  0.38851717  0.16778183  0.03083181  1.0
  Ni  Ni13  1  0.38851717  0.50111517  0.03083181  1.0
  Ni  Ni14  1  0.38851717  0.83444850  0.03083181  1.0
  Ni  Ni15  1  0.72185050  0.16778183  0.03083181  1.0
  Ni  Ni16  1  0.72185050  0.50111517  0.03083181  1.0
  Ni  Ni17  1  0.72185050  0.83444850  0.03083181  1.0
  Ni  Ni18  1  0.27814950  0.16555150  0.03166819  1.0
  Ni  Ni19  1  0.27814950  0.49888483  0.03166819  1.0
  Ni  Ni20  1  0.27814950  0.83221817  0.03166819  1.0
  Ni  Ni21  1  0.61148283  0.16555150  0.03166819  1.0
  Ni  Ni22  1  0.61148283  0.49888483  0.03166819  1.0
  Ni  Ni23  1  0.61148283  0.83221817  0.03166819  1.0
  Ni  Ni24  1  0.94481617  0.16555150  0.03166819  1.0
  Ni  Ni25  1  0.94481617  0.49888483  0.03166819  1.0
  Ni  Ni26  1  0.94481617  0.83221817  0.03166819  1.0
  Ni  Ni27  1  0.11148283  0.33221817  0.09416819  1.0
  Ni  Ni28  1  0.11148283  0.66555150  0.09416819  1.0
  Ni  Ni29  1  0.11148283  0.99888483  0.09416819  1.0
  Ni  Ni30  1  0.44481617  0.33221817  0.09416819  1.0
  Ni  Ni31  1  0.44481617  0.66555150  0.09416819  1.0
  Ni  Ni32  1  0.44481617  0.99888483  0.09416819  1.0
  Ni  Ni33  1  0.77814950  0.33221817  0.09416819  1.0
  Ni  Ni34  1  0.77814950  0.66555150  0.09416819  1.0
  Ni  Ni35  1  0.77814950  0.99888483  0.09416819  1.0
  Mo  Mo36  1  0.00000000  0.00000000  0.09375000  1.0
  Mo  Mo37  1  0.00000000  0.33333333  0.09375000  1.0
  Mo  Mo38  1  0.00000000  0.66666667  0.09375000  1.0
  Mo  Mo39  1  0.33333333  0.00000000  0.09375000  1.0
  Mo  Mo40  1  0.33333333  0.33333333  0.09375000  1.0
  Mo  Mo41  1  0.33333333  0.66666667  0.09375000  1.0
  Mo  Mo42  1  0.66666667  0.00000000  0.09375000  1.0
  Mo  Mo43  1  0.66666667  0.33333333  0.09375000  1.0
  Mo  Mo44  1  0.66666667  0.66666667  0.09375000  1.0
  Mo  Mo45  1  0.16666667  0.16666667  0.03125000  1.0
  Mo  Mo46  1  0.16666667  0.50000000  0.03125000  1.0
  Mo  Mo47  1  0.16666667  0.83333333  0.03125000  1.0
  Mo  Mo48  1  0.50000000  0.16666667  0.03125000  1.0
  Mo  Mo49  1  0.50000000  0.50000000  0.03125000  1.0
  Mo  Mo50  1  0.50000000  0.83333333  0.03125000  1.0
  Mo  Mo51  1  0.83333333  0.16666667  0.03125000  1.0
  Mo  Mo52  1  0.83333333  0.50000000  0.03125000  1.0
  Mo  Mo53  1  0.83333333  0.83333333  0.03125000  1.0
  Ni  Ni54  1  0.22185050  0.00111517  0.21833181  1.0
  Ni  Ni55  1  0.22185050  0.33444850  0.21833181  1.0
  Ni  Ni56  1  0.22185050  0.66778183  0.21833181  1.0
  Ni  Ni57  1  0.55518383  0.00111517  0.21833181  1.0
  Ni  Ni58  1  0.55518383  0.33444850  0.21833181  1.0
  Ni  Ni59  1  0.55518383  0.66778183  0.21833181  1.0
  Ni  Ni60  1  0.88851717  0.00111517  0.21833181  1.0
  Ni  Ni61  1  0.88851717  0.33444850  0.21833181  1.0
  Ni  Ni62  1  0.88851717  0.66778183  0.21833181  1.0
  Ni  Ni63  1  0.05518383  0.16778183  0.15583181  1.0
  Ni  Ni64  1  0.05518383  0.50111517  0.15583181  1.0
  Ni  Ni65  1  0.05518383  0.83444850  0.15583181  1.0
  Ni  Ni66  1  0.38851717  0.16778183  0.15583181  1.0
  Ni  Ni67  1  0.38851717  0.50111517  0.15583181  1.0
  Ni  Ni68  1  0.38851717  0.83444850  0.15583181  1.0
  Ni  Ni69  1  0.72185050  0.16778183  0.15583181  1.0
  Ni  Ni70  1  0.72185050  0.50111517  0.15583181  1.0
  Ni  Ni71  1  0.72185050  0.83444850  0.15583181  1.0
  Ni  Ni72  1  0.27814950  0.16555150  0.15666819  1.0
  Ni  Ni73  1  0.27814950  0.49888483  0.15666819  1.0
  Ni  Ni74  1  0.27814950  0.83221817  0.15666819  1.0
  Ni  Ni75  1  0.61148283  0.16555150  0.15666819  1.0
  Ni  Ni76  1  0.61148283  0.49888483  0.15666819  1.0
  Ni  Ni77  1  0.61148283  0.83221817  0.15666819  1.0
  Ni  Ni78  1  0.94481617  0.16555150  0.15666819  1.0
  Ni  Ni79  1  0.94481617  0.49888483  0.15666819  1.0
  Ni  Ni80  1  0.94481617  0.83221817  0.15666819  1.0
  Ni  Ni81  1  0.11148283  0.33221817  0.21916819  1.0
  Ni  Ni82  1  0.11148283  0.66555150  0.21916819  1.0
  Ni  Ni83  1  0.11148283  0.99888483  0.21916819  1.0
  Ni  Ni84  1  0.44481617  0.33221817  0.21916819  1.0
  Ni  Ni85  1  0.44481617  0.66555150  0.21916819  1.0
  Ni  Ni86  1  0.44481617  0.99888483  0.21916819  1.0
  Ni  Ni87  1  0.77814950  0.33221817  0.21916819  1.0
  Ni  Ni88  1  0.77814950  0.66555150  0.21916819  1.0
  Ni  Ni89  1  0.77814950  0.99888483  0.21916819  1.0
  Mo  Mo90  1  0.00000000  0.00000000  0.21875000  1.0
  Mo  Mo91  1  0.00000000  0.33333333  0.21875000  1.0
  Mo  Mo92  1  0.00000000  0.66666667  0.21875000  1.0
  Mo  Mo93  1  0.33333333  0.00000000  0.21875000  1.0
  Mo  Mo94  1  0.33333333  0.33333333  0.21875000  1.0
  Mo  Mo95  1  0.33333333  0.66666667  0.21875000  1.0
  Mo  Mo96  1  0.66666667  0.00000000  0.21875000  1.0
  Mo  Mo97  1  0.66666667  0.33333333  0.21875000  1.0
  Mo  Mo98  1  0.66666667  0.66666667  0.21875000  1.0
  Mo  Mo99  1  0.16666667  0.16666667  0.15625000  1.0
  Mo  Mo100  1  0.16666667  0.50000000  0.15625000  1.0
  Mo  Mo101  1  0.16666667  0.83333333  0.15625000  1.0
  Mo  Mo102  1  0.50000000  0.16666667  0.15625000  1.0
  Mo  Mo103  1  0.50000000  0.50000000  0.15625000  1.0
  Mo  Mo104  1  0.50000000  0.83333333  0.15625000  1.0
  Mo  Mo105  1  0.83333333  0.16666667  0.15625000  1.0
  Mo  Mo106  1  0.83333333  0.50000000  0.15625000  1.0
  Mo  Mo107  1  0.83333333  0.83333333  0.15625000  1.0
  Ni  Ni108  1  0.22185050  0.00111517  0.34333181  1.0
  Ni  Ni109  1  0.22185050  0.33444850  0.34333181  1.0
  Ni  Ni110  1  0.22185050  0.66778183  0.34333181  1.0
  Ni  Ni111  1  0.55518383  0.00111517  0.34333181  1.0
  Ni  Ni112  1  0.55518383  0.33444850  0.34333181  1.0
  Ni  Ni113  1  0.55518383  0.66778183  0.34333181  1.0
  Ni  Ni114  1  0.88851717  0.00111517  0.34333181  1.0
  Ni  Ni115  1  0.88851717  0.33444850  0.34333181  1.0
  Ni  Ni116  1  0.88851717  0.66778183  0.34333181  1.0
  Ni  Ni117  1  0.05518383  0.16778183  0.28083181  1.0
  Ni  Ni118  1  0.05518383  0.50111517  0.28083181  1.0
  Ni  Ni119  1  0.05518383  0.83444850  0.28083181  1.0
  Ni  Ni120  1  0.38851717  0.16778183  0.28083181  1.0
  Ni  Ni121  1  0.38851717  0.50111517  0.28083181  1.0
  Ni  Ni122  1  0.38851717  0.83444850  0.28083181  1.0
  Ni  Ni123  1  0.72185050  0.16778183  0.28083181  1.0
  Ni  Ni124  1  0.72185050  0.50111517  0.28083181  1.0
  Ni  Ni125  1  0.72185050  0.83444850  0.28083181  1.0
  Ni  Ni126  1  0.27814950  0.16555150  0.28166819  1.0
  Ni  Ni127  1  0.27814950  0.49888483  0.28166819  1.0
  Ni  Ni128  1  0.27814950  0.83221817  0.28166819  1.0
  Ni  Ni129  1  0.61148283  0.16555150  0.28166819  1.0
  Ni  Ni130  1  0.61148283  0.49888483  0.28166819  1.0
  Ni  Ni131  1  0.61148283  0.83221817  0.28166819  1.0
  Ni  Ni132  1  0.94481617  0.16555150  0.28166819  1.0
  Ni  Ni133  1  0.94481617  0.49888483  0.28166819  1.0
  Ni  Ni134  1  0.94481617  0.83221817  0.28166819  1.0
  Ni  Ni135  1  0.11148283  0.33221817  0.34416819  1.0
  Ni  Ni136  1  0.11148283  0.66555150  0.34416819  1.0
  Ni  Ni137  1  0.11148283  0.99888483  0.34416819  1.0
  Ni  Ni138  1  0.44481617  0.33221817  0.34416819  1.0
  Ni  Ni139  1  0.44481617  0.66555150  0.34416819  1.0
  Ni  Ni140  1  0.44481617  0.99888483  0.34416819  1.0
  Ni  Ni141  1  0.77814950  0.33221817  0.34416819  1.0
  Ni  Ni142  1  0.77814950  0.66555150  0.34416819  1.0
  Ni  Ni143  1  0.77814950  0.99888483  0.34416819  1.0
  Mo  Mo144  1  0.00000000  0.00000000  0.34375000  1.0
  Mo  Mo145  1  0.00000000  0.33333333  0.34375000  1.0
  Mo  Mo146  1  0.00000000  0.66666667  0.34375000  1.0
  Mo  Mo147  1  0.33333333  0.00000000  0.34375000  1.0
  Mo  Mo148  1  0.33333333  0.33333333  0.34375000  1.0
  Mo  Mo149  1  0.33333333  0.66666667  0.34375000  1.0
  Mo  Mo150  1  0.66666667  0.00000000  0.34375000  1.0
  Mo  Mo151  1  0.66666667  0.33333333  0.34375000  1.0
  Mo  Mo152  1  0.66666667  0.66666667  0.34375000  1.0
  Mo  Mo153  1  0.16666667  0.16666667  0.28125000  1.0
  Mo  Mo154  1  0.16666667  0.50000000  0.28125000  1.0
  Mo  Mo155  1  0.16666667  0.83333333  0.28125000  1.0
  Mo  Mo156  1  0.50000000  0.16666667  0.28125000  1.0
  Mo  Mo157  1  0.50000000  0.50000000  0.28125000  1.0
  Mo  Mo158  1  0.50000000  0.83333333  0.28125000  1.0
  Mo  Mo159  1  0.83333333  0.16666667  0.28125000  1.0
  Mo  Mo160  1  0.83333333  0.50000000  0.28125000  1.0
  Mo  Mo161  1  0.83333333  0.83333333  0.28125000  1.0
