# generated using pymatgen
data_Ni2Mo
_symmetry_space_group_name_H-M   'P 1'
_cell_length_a   13.55178158
_cell_length_b   24.52936821
_cell_length_c   111.95868275
_cell_angle_alpha   155.90750684
_cell_angle_beta   120.28785483
_cell_angle_gamma   79.01559230
_symmetry_Int_Tables_number   1
_chemical_formula_structural   Ni2Mo
_chemical_formula_sum   'Ni180 Mo90'
_cell_volume   8439.39881695
_cell_formula_units_Z   90
loop_
 _symmetry_equiv_pos_site_id
 _symmetry_equiv_pos_as_xyz
  1  'x, y, z'
loop_
 _atom_site_type_symbol
 _atom_site_label
 _atom_site_symmetry_multiplicity
 _atom_site_fract_x
 _atom_site_fract_y
 _atom_site_fract_z
 _atom_site_occupancy
  Ni  Ni0  1  0.22296567  0.33333333  0.00675588  1.0
  Ni  Ni1  1  0.22296567  0.66666667  0.00675588  1.0
  Ni  Ni2  1  0.22296567  1.00000000  0.00675588  1.0
  Ni  Ni3  1  0.55629900  0.33333333  0.00675588  1.0
  Ni  Ni4  1  0.55629900  0.66666667  0.00675588  1.0
  Ni  Ni5  1  0.55629900  1.00000000  0.00675588  1.0
  Ni  Ni6  1  0.88963233  0.33333333  0.00675588  1.0
  Ni  Ni7  1  0.88963233  0.66666667  0.00675588  1.0
  Ni  Ni8  1  0.88963233  1.00000000  0.00675588  1.0
  Ni  Ni9  1  0.11036767  0.00000000  0.01973236  1.0
  Ni  Ni10  1  0.11036767  0.33333333  0.01973236  1.0
  Ni  Ni11  1  0.11036767  0.66666667  0.01973236  1.0
  Ni  Ni12  1  0.44370100  0.00000000  0.01973236  1.0
  Ni  Ni13  1  0.44370100  0.33333333  0.01973236  1.0
  Ni  Ni14  1  0.44370100  0.66666667  0.01973236  1.0
  Ni  Ni15  1  0.77703433  0.00000000  0.01973236  1.0
  Ni  Ni16  1  0.77703433  0.33333333  0.01973236  1.0
  Ni  Ni17  1  0.77703433  0.66666667  0.01973236  1.0
  Mo  Mo18  1  0.00000000  0.00000000  0.03324412  1.0
  Mo  Mo19  1  0.00000000  0.33333333  0.03324412  1.0
  Mo  Mo20  1  0.00000000  0.66666667  0.03324412  1.0
  Mo  Mo21  1  0.33333333  0.00000000  0.03324412  1.0
  Mo  Mo22  1  0.33333333  0.33333333  0.03324412  1.0
  Mo  Mo23  1  0.33333333  0.66666667  0.03324412  1.0
  Mo  Mo24  1  0.66666667  0.00000000  0.03324412  1.0
  Mo  Mo25  1  0.66666667  0.33333333  0.03324412  1.0
  Mo  Mo26  1  0.66666667  0.66666667  0.03324412  1.0
  Ni  Ni27  1  0.22296567  0.33333333  0.04675588  1.0
  Ni  Ni28  1  0.22296567  0.66666667  0.04675588  1.0
  Ni  Ni29  1  0.22296567  1.00000000  0.04675588  1.0
  Ni  Ni30  1  0.55629900  0.33333333  0.04675588  1.0
  Ni  Ni31  1  0.55629900  0.66666667  0.04675588  1.0
  Ni  Ni32  1  0.55629900  1.00000000  0.04675588  1.0
  Ni  Ni33  1  0.88963233  0.33333333  0.04675588  1.0
  Ni  Ni34  1  0.88963233  0.66666667  0.04675588  1.0
  Ni  Ni35  1  0.88963233  1.00000000  0.04675588  1.0
  Ni  Ni36  1  0.11036767  0.00000000  0.05973236  1.0
  Ni  Ni37  1  0.11036767  0.33333333  0.05973236  1.0
  Ni  Ni38  1  0.11036767  0.66666667  0.05973236  1.0
  Ni  Ni39  1  0.44370100  0.00000000  0.05973236  1.0
  Ni  Ni40  1  0.44370100  0.33333333  0.05973236  1.0
  Ni  Ni41  1  0.44370100  0.66666667  0.05973236  1.0
  Ni  Ni42  1  0.77703433  0.00000000  0.05973236  1.0
  Ni  Ni43  1  0.77703433  0.33333333  0.05973236  1.0
  Ni  Ni44  1  0.77703433  0.66666667  0.05973236  1.0
  Mo  Mo45  1  0.00000000  0.00000000  0.07324412  1.0
  Mo  Mo46  1  0.00000000  0.33333333  0.07324412  1.0
  Mo  Mo47  1  0.00000000  0.66666667  0.07324412  1.0
  Mo  Mo48  1  0.33333333  0.00000000  0.07324412  1.0
  Mo  Mo49  1  0.33333333  0.33333333  0.07324412  1.0
  Mo  Mo50  1  0.33333333  0.66666667  0.07324412  1.0
  Mo  Mo51  1  0.66666667  0.00000000  0.07324412  1.0
  Mo  Mo52  1  0.66666667  0.33333333  0.07324412  1.0
  Mo  Mo53  1  0.66666667  0.66666667  0.07324412  1.0
  Ni  Ni54  1  0.22296567  0.33333333  0.08675588  1.0
  Ni  Ni55  1  0.22296567  0.66666667  0.08675588  1.0
  Ni  Ni56  1  0.22296567  1.00000000  0.08675588  1.0
  Ni  Ni57  1  0.55629900  0.33333333  0.08675588  1.0
  Ni  Ni58  1  0.55629900  0.66666667  0.08675588  1.0
  Ni  Ni59  1  0.55629900  1.00000000  0.08675588  1.0
  Ni  Ni60  1  0.88963233  0.33333333  0.08675588  1.0
  Ni  Ni61  1  0.88963233  0.66666667  0.08675588  1.0
  Ni  Ni62  1  0.88963233  1.00000000  0.08675588  1.0
  Ni  Ni63  1  0.11036767  0.00000000  0.09973236  1.0
  Ni  Ni64  1  0.11036767  0.33333333  0.09973236  1.0
  Ni  Ni65  1  0.11036767  0.66666667  0.09973236  1.0
  Ni  Ni66  1  0.44370100  0.00000000  0.09973236  1.0
  Ni  Ni67  1  0.44370100  0.33333333  0.09973236  1.0
  Ni  Ni68  1  0.44370100  0.66666667  0.09973236  1.0
  Ni  Ni69  1  0.77703433  0.00000000  0.09973236  1.0
  Ni  Ni70  1  0.77703433  0.33333333  0.09973236  1.0
  Ni  Ni71  1  0.77703433  0.66666667  0.09973236  1.0
  Mo  Mo72  1  0.00000000  0.00000000  0.11324412  1.0
  Mo  Mo73  1  0.00000000  0.33333333  0.11324412  1.0
  Mo  Mo74  1  0.00000000  0.66666667  0.11324412  1.0
  Mo  Mo75  1  0.33333333  0.00000000  0.11324412  1.0
  Mo  Mo76  1  0.33333333  0.33333333  0.11324412  1.0
  Mo  Mo77  1  0.33333333  0.66666667  0.11324412  1.0
  Mo  Mo78  1  0.66666667  0.00000000  0.11324412  1.0
  Mo  Mo79  1  0.66666667  0.33333333  0.11324412  1.0
  Mo  Mo80  1  0.66666667  0.66666667  0.11324412  1.0
  Ni  Ni81  1  0.22296567  0.33333333  0.12675588  1.0
  Ni  Ni82  1  0.22296567  0.66666667  0.12675588  1.0
  Ni  Ni83  1  0.22296567  1.00000000  0.12675588  1.0
  Ni  Ni84  1  0.55629900  0.33333333  0.12675588  1.0
  Ni  Ni85  1  0.55629900  0.66666667  0.12675588  1.0
  Ni  Ni86  1  0.55629900  1.00000000  0.12675588  1.0
  Ni  Ni87  1  0.88963233  0.33333333  0.12675588  1.0
  Ni  Ni88  1  0.88963233  0.66666667  0.12675588  1.0
  Ni  Ni89  1  0.88963233  1.00000000  0.12675588  1.0
  Ni  Ni90  1  0.11036767  0.00000000  0.13973236  1.0
  Ni  Ni91  1  0.11036767  0.33333333  0.13973236  1.0
  Ni  Ni92  1  0.11036767  0.66666667  0.13973236  1.0
  Ni  Ni93  1  0.44370100  0.00000000  0.13973236  1.0
  Ni  Ni94  1  0.44370100  0.33333333  0.13973236  1.0
  Ni  Ni95  1  0.44370100  0.66666667  0.13973236  1.0
  Ni  Ni96  1  0.77703433  0.00000000  0.13973236  1.0
  Ni  Ni97  1  0.77703433  0.33333333  0.13973236  1.0
  Ni  Ni98  1  0.77703433  0.66666667  0.13973236  1.0
  Mo  Mo99  1  0.00000000  0.00000000  0.15324412  1.0
  Mo  Mo100  1  0.00000000  0.33333333  0.15324412  1.0
  Mo  Mo101  1  0.00000000  0.66666667  0.15324412  1.0
  Mo  Mo102  1  0.33333333  0.00000000  0.15324412  1.0
  Mo  Mo103  1  0.33333333  0.33333333  0.15324412  1.0
  Mo  Mo104  1  0.33333333  0.66666667  0.15324412  1.0
  Mo  Mo105  1  0.66666667  0.00000000  0.15324412  1.0
  Mo  Mo106  1  0.66666667  0.33333333  0.15324412  1.0
  Mo  Mo107  1  0.66666667  0.66666667  0.15324412  1.0
  Ni  Ni108  1  0.22296567  0.33333333  0.16675588  1.0
  Ni  Ni109  1  0.22296567  0.66666667  0.16675588  1.0
  Ni  Ni110  1  0.22296567  1.00000000  0.16675588  1.0
  Ni  Ni111  1  0.55629900  0.33333333  0.16675588  1.0
  Ni  Ni112  1  0.55629900  0.66666667  0.16675588  1.0
  Ni  Ni113  1  0.55629900  1.00000000  0.16675588  1.0
  Ni  Ni114  1  0.88963233  0.33333333  0.16675588  1.0
  Ni  Ni115  1  0.88963233  0.66666667  0.16675588  1.0
  Ni  Ni116  1  0.88963233  1.00000000  0.16675588  1.0
  Ni  Ni117  1  0.11036767  0.00000000  0.17973236  1.0
  Ni  Ni118  1  0.11036767  0.33333333  0.17973236  1.0
  Ni  Ni119  1  0.11036767  0.66666667  0.17973236  1.0
  Ni  Ni120  1  0.44370100  0.00000000  0.17973236  1.0
  Ni  Ni121  1  0.44370100  0.33333333  0.17973236  1.0
  Ni  Ni122  1  0.44370100  0.66666667  0.17973236  1.0
  Ni  Ni123  1  0.77703433  0.00000000  0.17973236  1.0
  Ni  Ni124  1  0.77703433  0.33333333  0.17973236  1.0
  Ni  Ni125  1  0.77703433  0.66666667  0.17973236  1.0
  Mo  Mo126  1  0.00000000  0.00000000  0.19324412  1.0
  Mo  Mo127  1  0.00000000  0.33333333  0.19324412  1.0
  Mo  Mo128  1  0.00000000  0.66666667  0.19324412  1.0
  Mo  Mo129  1  0.33333333  0.00000000  0.19324412  1.0
  Mo  Mo130  1  0.33333333  0.33333333  0.19324412  1.0
  Mo  Mo131  1  0.33333333  0.66666667  0.19324412  1.0
  Mo  Mo132  1  0.66666667  0.00000000  0.19324412  1.0
  Mo  Mo133  1  0.66666667  0.33333333  0.19324412  1.0
  Mo  Mo134  1  0.66666667  0.66666667  0.19324412  1.0
  Ni  Ni135  1  0.22296567  0.33333333  0.20675588  1.0
  Ni  Ni136  1  0.22296567  0.66666667  0.20675588  1.0
  Ni  Ni137  1  0.22296567  1.00000000  0.20675588  1.0
  Ni  Ni138  1  0.55629900  0.33333333  0.20675588  1.0
  Ni  Ni139  1  0.55629900  0.66666667  0.20675588  1.0
  Ni  Ni140  1  0.55629900  1.00000000  0.20675588  1.0
  Ni  Ni141  1  0.88963233  0.33333333  0.20675588  1.0
  Ni  Ni142  1  0.88963233  0.66666667  0.20675588  1.0
  Ni  Ni143  1  0.88963233  1.00000000  0.20675588  1.0
  Ni  Ni144  1  0.11036767  0.00000000  0.21973236  1.0
  Ni  Ni145  1  0.11036767  0.33333333  0.21973236  1.0
  Ni  Ni146  1  0.11036767  0.66666667  0.21973236  1.0
  Ni  Ni147  1  0.44370100  0.00000000  0.21973236  1.0
  Ni  Ni148  1  0.44370100  0.33333333  0.21973236  1.0
  Ni  Ni149  1  0.44370100  0.66666667  0.21973236  1.0
  Ni  Ni150  1  0.77703433  0.00000000  0.21973236  1.0
  Ni  Ni151  1  0.77703433  0.33333333  0.21973236  1.0
  Ni  Ni152  1  0.77703433  0.66666667  0.21973236  1.0
  Mo  Mo153  1  0.00000000  0.00000000  0.23324412  1.0
  Mo  Mo154  1  0.00000000  0.33333333  0.23324412  1.0
  Mo  Mo155  1  0.00000000  0.66666667  0.23324412  1.0
  Mo  Mo156  1  0.33333333  0.00000000  0.23324412  1.0
  Mo  Mo157  1  0.33333333  0.33333333  0.23324412  1.0
  Mo  Mo158  1  0.33333333  0.66666667  0.23324412  1.0
  Mo  Mo159  1  0.66666667  0.00000000  0.23324412  1.0
  Mo  Mo160  1  0.66666667  0.33333333  0.23324412  1.0
  Mo  Mo161  1  0.66666667  0.66666667  0.23324412  1.0
  Ni  Ni162  1  0.22296567  0.33333333  0.24675588  1.0
  Ni  Ni163  1  0.22296567  0.66666667  0.24675588  1.0
  Ni  Ni164  1  0.22296567  1.00000000  0.24675588  1.0
  Ni  Ni165  1  0.55629900  0.33333333  0.24675588  1.0
  Ni  Ni166  1  0.55629900  0.66666667  0.24675588  1.0
  Ni  Ni167  1  0.55629900  1.00000000  0.24675588  1.0
  Ni  Ni168  1  0.88963233  0.33333333  0.24675588  1.0
  Ni  Ni169  1  0.88963233  0.66666667  0.24675588  1.0
  Ni  Ni170  1  0.88963233  1.00000000  0.24675588  1.0
  Ni  Ni171  1  0.11036767  0.00000000  0.25973236  1.0
  Ni  Ni172  1  0.11036767  0.33333333  0.25973236  1.0
  Ni  Ni173  1  0.11036767  0.66666667  0.25973236  1.0
  Ni  Ni174  1  0.44370100  0.00000000  0.25973236  1.0
  Ni  Ni175  1  0.44370100  0.33333333  0.25973236  1.0
  Ni  Ni176  1  0.44370100  0.66666667  0.25973236  1.0
  Ni  Ni177  1  0.77703433  0.00000000  0.25973236  1.0
  Ni  Ni178  1  0.77703433  0.33333333  0.25973236  1.0
  Ni  Ni179  1  0.77703433  0.66666667  0.25973236  1.0
  Mo  Mo180  1  0.00000000  0.00000000  0.27324412  1.0
  Mo  Mo181  1  0.00000000  0.33333333  0.27324412  1.0
  Mo  Mo182  1  0.00000000  0.66666667  0.27324412  1.0
  Mo  Mo183  1  0.33333333  0.00000000  0.27324412  1.0
  Mo  Mo184  1  0.33333333  0.33333333  0.27324412  1.0
  Mo  Mo185  1  0.33333333  0.66666667  0.27324412  1.0
  Mo  Mo186  1  0.66666667  0.00000000  0.27324412  1.0
  Mo  Mo187  1  0.66666667  0.33333333  0.27324412  1.0
  Mo  Mo188  1  0.66666667  0.66666667  0.27324412  1.0
  Ni  Ni189  1  0.22296567  0.33333333  0.28675588  1.0
  Ni  Ni190  1  0.22296567  0.66666667  0.28675588  1.0
  Ni  Ni191  1  0.22296567  1.00000000  0.28675588  1.0
  Ni  Ni192  1  0.55629900  0.33333333  0.28675588  1.0
  Ni  Ni193  1  0.55629900  0.66666667  0.28675588  1.0
  Ni  Ni194  1  0.55629900  1.00000000  0.28675588  1.0
  Ni  Ni195  1  0.88963233  0.33333333  0.28675588  1.0
  Ni  Ni196  1  0.88963233  0.66666667  0.28675588  1.0
  Ni  Ni197  1  0.88963233  1.00000000  0.28675588  1.0
  Ni  Ni198  1  0.11036767  0.00000000  0.29973236  1.0
  Ni  Ni199  1  0.11036767  0.33333333  0.29973236  1.0
  Ni  Ni200  1  0.11036767  0.66666667  0.29973236  1.0
  Ni  Ni201  1  0.44370100  0.00000000  0.29973236  1.0
  Ni  Ni202  1  0.44370100  0.33333333  0.29973236  1.0
  Ni  Ni203  1  0.44370100  0.66666667  0.29973236  1.0
  Ni  Ni204  1  0.77703433  0.00000000  0.29973236  1.0
  Ni  Ni205  1  0.77703433  0.33333333  0.29973236  1.0
  Ni  Ni206  1  0.77703433  0.66666667  0.29973236  1.0
  Mo  Mo207  1  0.00000000  0.00000000  0.31324412  1.0
  Mo  Mo208  1  0.00000000  0.33333333  0.31324412  1.0
  Mo  Mo209  1  0.00000000  0.66666667  0.31324412  1.0
  Mo  Mo210  1  0.33333333  0.00000000  0.31324412  1.0
  Mo  Mo211  1  0.33333333  0.33333333  0.31324412  1.0
  Mo  Mo212  1  0.33333333  0.66666667  0.31324412  1.0
  Mo  Mo213  1  0.66666667  0.00000000  0.31324412  1.0
  Mo  Mo214  1  0.66666667  0.33333333  0.31324412  1.0
  Mo  Mo215  1  0.66666667  0.66666667  0.31324412  1.0
  Ni  Ni216  1  0.22296567  0.33333333  0.32675588  1.0
  Ni  Ni217  1  0.22296567  0.66666667  0.32675588  1.0
  Ni  Ni218  1  0.22296567  1.00000000  0.32675588  1.0
  Ni  Ni219  1  0.55629900  0.33333333  0.32675588  1.0
  Ni  Ni220  1  0.55629900  0.66666667  0.32675588  1.0
  Ni  Ni221  1  0.55629900  1.00000000  0.32675588  1.0
  Ni  Ni222  1  0.88963233  0.33333333  0.32675588  1.0
  Ni  Ni223  1  0.88963233  0.66666667  0.32675588  1.0
  Ni  Ni224  1  0.88963233  1.00000000  0.32675588  1.0
  Ni  Ni225  1  0.11036767  0.00000000  0.33973236  1.0
  Ni  Ni226  1  0.11036767  0.33333333  0.33973236  1.0
  Ni  Ni227  1  0.11036767  0.66666667  0.33973236  1.0
  Ni  Ni228  1  0.44370100  0.00000000  0.33973236  1.0
  Ni  Ni229  1  0.44370100  0.33333333  0.33973236  1.0
  Ni  Ni230  1  0.44370100  0.66666667  0.33973236  1.0
  Ni  Ni231  1  0.77703433  0.00000000  0.33973236  1.0
  Ni  Ni232  1  0.77703433  0.33333333  0.33973236  1.0
  Ni  Ni233  1  0.77703433  0.66666667  0.33973236  1.0
  Mo  Mo234  1  0.00000000  0.00000000  0.35324412  1.0
  Mo  Mo235  1  0.00000000  0.33333333  0.35324412  1.0
  Mo  Mo236  1  0.00000000  0.66666667  0.35324412  1.0
  Mo  Mo237  1  0.33333333  0.00000000  0.35324412  1.0
  Mo  Mo238  1  0.33333333  0.33333333  0.35324412  1.0
  Mo  Mo239  1  0.33333333  0.66666667  0.35324412  1.0
  Mo  Mo240  1  0.66666667  0.00000000  0.35324412  1.0
  Mo  Mo241  1  0.66666667  0.33333333  0.35324412  1.0
  Mo  Mo242  1  0.66666667  0.66666667  0.35324412  1.0
  Ni  Ni243  1  0.22296567  0.33333333  0.36675588  1.0
  Ni  Ni244  1  0.22296567  0.66666667  0.36675588  1.0
  Ni  Ni245  1  0.22296567  1.00000000  0.36675588  1.0
  Ni  Ni246  1  0.55629900  0.33333333  0.36675588  1.0
  Ni  Ni247  1  0.55629900  0.66666667  0.36675588  1.0
  Ni  Ni248  1  0.55629900  1.00000000  0.36675588  1.0
  Ni  Ni249  1  0.88963233  0.33333333  0.36675588  1.0
  Ni  Ni250  1  0.88963233  0.66666667  0.36675588  1.0
  Ni  Ni251  1  0.88963233  1.00000000  0.36675588  1.0
  Ni  Ni252  1  0.11036767  0.00000000  0.37973236  1.0
  Ni  Ni253  1  0.11036767  0.33333333  0.37973236  1.0
  Ni  Ni254  1  0.11036767  0.66666667  0.37973236  1.0
  Ni  Ni255  1  0.44370100  0.00000000  0.37973236  1.0
  Ni  Ni256  1  0.44370100  0.33333333  0.37973236  1.0
  Ni  Ni257  1  0.44370100  0.66666667  0.37973236  1.0
  Ni  Ni258  1  0.77703433  0.00000000  0.37973236  1.0
  Ni  Ni259  1  0.77703433  0.33333333  0.37973236  1.0
  Ni  Ni260  1  0.77703433  0.66666667  0.37973236  1.0
  Mo  Mo261  1  0.00000000  0.00000000  0.39324412  1.0
  Mo  Mo262  1  0.00000000  0.33333333  0.39324412  1.0
  Mo  Mo263  1  0.00000000  0.66666667  0.39324412  1.0
  Mo  Mo264  1  0.33333333  0.00000000  0.39324412  1.0
  Mo  Mo265  1  0.33333333  0.33333333  0.39324412  1.0
  Mo  Mo266  1  0.33333333  0.66666667  0.39324412  1.0
  Mo  Mo267  1  0.66666667  0.00000000  0.39324412  1.0
  Mo  Mo268  1  0.66666667  0.33333333  0.39324412  1.0
  Mo  Mo269  1  0.66666667  0.66666667  0.39324412  1.0
