# generated using pymatgen
data_Ni2Mo
_symmetry_space_group_name_H-M   'P 1'
_cell_length_a   23.20238398
_cell_length_b   37.20053979
_cell_length_c   53.74016772
_cell_angle_alpha   32.57028699
_cell_angle_beta   30.28785483
_cell_angle_gamma   20.68015187
_symmetry_Int_Tables_number   1
_chemical_formula_structural   Ni2Mo
_chemical_formula_sum   'Ni180 Mo90'
_cell_volume   8101.82286428
_cell_formula_units_Z   90
loop_
 _symmetry_equiv_pos_site_id
 _symmetry_equiv_pos_as_xyz
  1  'x, y, z'
loop_
 _atom_site_type_symbol
 _atom_site_label
 _atom_site_symmetry_multiplicity
 _atom_site_fract_x
 _atom_site_fract_y
 _atom_site_fract_z
 _atom_site_occupancy
  Ni  Ni0  1  0.11036767  0.16666667  0.02083333  1.0
  Ni  Ni1  1  0.11036767  0.50000000  0.02083333  1.0
  Ni  Ni2  1  0.11036767  0.83333333  0.02083333  1.0
  Ni  Ni3  1  0.44370100  0.16666667  0.02083333  1.0
  Ni  Ni4  1  0.44370100  0.50000000  0.02083333  1.0
  Ni  Ni5  1  0.44370100  0.83333333  0.02083333  1.0
  Ni  Ni6  1  0.77703433  0.16666667  0.02083333  1.0
  Ni  Ni7  1  0.77703433  0.50000000  0.02083333  1.0
  Ni  Ni8  1  0.77703433  0.83333333  0.02083333  1.0
  Ni  Ni9  1  0.11036767  0.00000000  0.06250000  1.0
  Ni  Ni10  1  0.11036767  0.33333333  0.06250000  1.0
  Ni  Ni11  1  0.11036767  0.66666667  0.06250000  1.0
  Ni  Ni12  1  0.44370100  0.00000000  0.06250000  1.0
  Ni  Ni13  1  0.44370100  0.33333333  0.06250000  1.0
  Ni  Ni14  1  0.44370100  0.66666667  0.06250000  1.0
  Ni  Ni15  1  0.77703433  0.00000000  0.06250000  1.0
  Ni  Ni16  1  0.77703433  0.33333333  0.06250000  1.0
  Ni  Ni17  1  0.77703433  0.66666667  0.06250000  1.0
  Ni  Ni18  1  0.22296567  0.16666667  0.02083333  1.0
  Ni  Ni19  1  0.22296567  0.50000000  0.02083333  1.0
  Ni  Ni20  1  0.22296567  0.83333333  0.02083333  1.0
  Ni  Ni21  1  0.55629900  0.16666667  0.02083333  1.0
  Ni  Ni22  1  0.55629900  0.50000000  0.02083333  1.0
  Ni  Ni23  1  0.55629900  0.83333333  0.02083333  1.0
  Ni  Ni24  1  0.88963233  0.16666667  0.02083333  1.0
  Ni  Ni25  1  0.88963233  0.50000000  0.02083333  1.0
  Ni  Ni26  1  0.88963233  0.83333333  0.02083333  1.0
  Ni  Ni27  1  0.22296567  0.00000000  0.06250000  1.0
  Ni  Ni28  1  0.22296567  0.33333333  0.06250000  1.0
  Ni  Ni29  1  0.22296567  0.66666667  0.06250000  1.0
  Ni  Ni30  1  0.55629900  0.00000000  0.06250000  1.0
  Ni  Ni31  1  0.55629900  0.33333333  0.06250000  1.0
  Ni  Ni32  1  0.55629900  0.66666667  0.06250000  1.0
  Ni  Ni33  1  0.88963233  0.00000000  0.06250000  1.0
  Ni  Ni34  1  0.88963233  0.33333333  0.06250000  1.0
  Ni  Ni35  1  0.88963233  0.66666667  0.06250000  1.0
  Mo  Mo36  1  0.00000000  0.16666667  0.02083333  1.0
  Mo  Mo37  1  0.00000000  0.50000000  0.02083333  1.0
  Mo  Mo38  1  0.00000000  0.83333333  0.02083333  1.0
  Mo  Mo39  1  0.33333333  0.16666667  0.02083333  1.0
  Mo  Mo40  1  0.33333333  0.50000000  0.02083333  1.0
  Mo  Mo41  1  0.33333333  0.83333333  0.02083333  1.0
  Mo  Mo42  1  0.66666667  0.16666667  0.02083333  1.0
  Mo  Mo43  1  0.66666667  0.50000000  0.02083333  1.0
  Mo  Mo44  1  0.66666667  0.83333333  0.02083333  1.0
  Mo  Mo45  1  0.00000000  0.00000000  0.06250000  1.0
  Mo  Mo46  1  0.00000000  0.33333333  0.06250000  1.0
  Mo  Mo47  1  0.00000000  0.66666667  0.06250000  1.0
  Mo  Mo48  1  0.33333333  0.00000000  0.06250000  1.0
  Mo  Mo49  1  0.33333333  0.33333333  0.06250000  1.0
  Mo  Mo50  1  0.33333333  0.66666667  0.06250000  1.0
  Mo  Mo51  1  0.66666667  0.00000000  0.06250000  1.0
  Mo  Mo52  1  0.66666667  0.33333333  0.06250000  1.0
  Mo  Mo53  1  0.66666667  0.66666667  0.06250000  1.0
  Ni  Ni54  1  0.11036767  0.16666667  0.10416667  1.0
  Ni  Ni55  1  0.11036767  0.50000000  0.10416667  1.0
  Ni  Ni56  1  0.11036767  0.83333333  0.10416667  1.0
  Ni  Ni57  1  0.44370100  0.16666667  0.10416667  1.0
  Ni  Ni58  1  0.44370100  0.50000000  0.10416667  1.0
  Ni  Ni59  1  0.44370100  0.83333333  0.10416667  1.0
  Ni  Ni60  1  0.77703433  0.16666667  0.10416667  1.0
  Ni  Ni61  1  0.77703433  0.50000000  0.10416667  1.0
  Ni  Ni62  1  0.77703433  0.83333333  0.10416667  1.0
  Ni  Ni63  1  0.11036767  0.00000000  0.14583333  1.0
  Ni  Ni64  1  0.11036767  0.33333333  0.14583333  1.0
  Ni  Ni65  1  0.11036767  0.66666667  0.14583333  1.0
  Ni  Ni66  1  0.44370100  0.00000000  0.14583333  1.0
  Ni  Ni67  1  0.44370100  0.33333333  0.14583333  1.0
  Ni  Ni68  1  0.44370100  0.66666667  0.14583333  1.0
  Ni  Ni69  1  0.77703433  0.00000000  0.14583333  1.0
  Ni  Ni70  1  0.77703433  0.33333333  0.14583333  1.0
  Ni  Ni71  1  0.77703433  0.66666667  0.14583333  1.0
  Ni  Ni72  1  0.22296567  0.16666667  0.10416667  1.0
  Ni  Ni73  1  0.22296567  0.50000000  0.10416667  1.0
  Ni  Ni74  1  0.22296567  0.83333333  0.10416667  1.0
  Ni  Ni75  1  0.55629900  0.16666667  0.10416667  1.0
  Ni  Ni76  1  0.55629900  0.50000000  0.10416667  1.0
  Ni  Ni77  1  0.55629900  0.83333333  0.10416667  1.0
  Ni  Ni78  1  0.88963233  0.16666667  0.10416667  1.0
  Ni  Ni79  1  0.88963233  0.50000000  0.10416667  1.0
  Ni  Ni80  1  0.88963233  0.83333333  0.10416667  1.0
  Ni  Ni81  1  0.22296567  0.00000000  0.14583333  1.0
  Ni  Ni82  1  0.22296567  0.33333333  0.14583333  1.0
  Ni  Ni83  1  0.22296567  0.66666667  0.14583333  1.0
  Ni  Ni84  1  0.55629900  0.00000000  0.14583333  1.0
  Ni  Ni85  1  0.55629900  0.33333333  0.14583333  1.0
  Ni  Ni86  1  0.55629900  0.66666667  0.14583333  1.0
  Ni  Ni87  1  0.88963233  0.00000000  0.14583333  1.0
  Ni  Ni88  1  0.88963233  0.33333333  0.14583333  1.0
  Ni  Ni89  1  0.88963233  0.66666667  0.14583333  1.0
  Mo  Mo90  1  0.00000000  0.16666667  0.10416667  1.0
  Mo  Mo91  1  0.00000000  0.50000000  0.10416667  1.0
  Mo  Mo92  1  0.00000000  0.83333333  0.10416667  1.0
  Mo  Mo93  1  0.33333333  0.16666667  0.10416667  1.0
  Mo  Mo94  1  0.33333333  0.50000000  0.10416667  1.0
  Mo  Mo95  1  0.33333333  0.83333333  0.10416667  1.0
  Mo  Mo96  1  0.66666667  0.16666667  0.10416667  1.0
  Mo  Mo97  1  0.66666667  0.50000000  0.10416667  1.0
  Mo  Mo98  1  0.66666667  0.83333333  0.10416667  1.0
  Mo  Mo99  1  0.00000000  0.00000000  0.14583333  1.0
  Mo  Mo100  1  0.00000000  0.33333333  0.14583333  1.0
  Mo  Mo101  1  0.00000000  0.66666667  0.14583333  1.0
  Mo  Mo102  1  0.33333333  0.00000000  0.14583333  1.0
  Mo  Mo103  1  0.33333333  0.33333333  0.14583333  1.0
  Mo  Mo104  1  0.33333333  0.66666667  0.14583333  1.0
  Mo  Mo105  1  0.66666667  0.00000000  0.14583333  1.0
  Mo  Mo106  1  0.66666667  0.33333333  0.14583333  1.0
  Mo  Mo107  1  0.66666667  0.66666667  0.14583333  1.0
  Ni  Ni108  1  0.11036767  0.16666667  0.18750000  1.0
  Ni  Ni109  1  0.11036767  0.50000000  0.18750000  1.0
  Ni  Ni110  1  0.11036767  0.83333333  0.18750000  1.0
  Ni  Ni111  1  0.44370100  0.16666667  0.18750000  1.0
  Ni  Ni112  1  0.44370100  0.50000000  0.18750000  1.0
  Ni  Ni113  1  0.44370100  0.83333333  0.18750000  1.0
  Ni  Ni114  1  0.77703433  0.16666667  0.18750000  1.0
  Ni  Ni115  1  0.77703433  0.50000000  0.18750000  1.0
  Ni  Ni116  1  0.77703433  0.83333333  0.18750000  1.0
  Ni  Ni117  1  0.11036767  0.00000000  0.22916667  1.0
  Ni  Ni118  1  0.11036767  0.33333333  0.22916667  1.0
  Ni  Ni119  1  0.11036767  0.66666667  0.22916667  1.0
  Ni  Ni120  1  0.44370100  0.00000000  0.22916667  1.0
  Ni  Ni121  1  0.44370100  0.33333333  0.22916667  1.0
  Ni  Ni122  1  0.44370100  0.66666667  0.22916667  1.0
  Ni  Ni123  1  0.77703433  0.00000000  0.22916667  1.0
  Ni  Ni124  1  0.77703433  0.33333333  0.22916667  1.0
  Ni  Ni125  1  0.77703433  0.66666667  0.22916667  1.0
  Ni  Ni126  1  0.22296567  0.16666667  0.18750000  1.0
  Ni  Ni127  1  0.22296567  0.50000000  0.18750000  1.0
  Ni  Ni128  1  0.22296567  0.83333333  0.18750000  1.0
  Ni  Ni129  1  0.55629900  0.16666667  0.18750000  1.0
  Ni  Ni130  1  0.55629900  0.50000000  0.18750000  1.0
  Ni  Ni131  1  0.55629900  0.83333333  0.18750000  1.0
  Ni  Ni132  1  0.88963233  0.16666667  0.18750000  1.0
  Ni  Ni133  1  0.88963233  0.50000000  0.18750000  1.0
  Ni  Ni134  1  0.88963233  0.83333333  0.18750000  1.0
  Ni  Ni135  1  0.22296567  0.00000000  0.22916667  1.0
  Ni  Ni136  1  0.22296567  0.33333333  0.22916667  1.0
  Ni  Ni137  1  0.22296567  0.66666667  0.22916667  1.0
  Ni  Ni138  1  0.55629900  0.00000000  0.22916667  1.0
  Ni  Ni139  1  0.55629900  0.33333333  0.22916667  1.0
  Ni  Ni140  1  0.55629900  0.66666667  0.22916667  1.0
  Ni  Ni141  1  0.88963233  0.00000000  0.22916667  1.0
  Ni  Ni142  1  0.88963233  0.33333333  0.22916667  1.0
  Ni  Ni143  1  0.88963233  0.66666667  0.22916667  1.0
  Mo  Mo144  1  0.00000000  0.16666667  0.18750000  1.0
  Mo  Mo145  1  0.00000000  0.50000000  0.18750000  1.0
  Mo  Mo146  1  0.00000000  0.83333333  0.18750000  1.0
  Mo  Mo147  1  0.33333333  0.16666667  0.18750000  1.0
  Mo  Mo148  1  0.33333333  0.50000000  0.18750000  1.0
  Mo  Mo149  1  0.33333333  0.83333333  0.18750000  1.0
  Mo  Mo150  1  0.66666667  0.16666667  0.18750000  1.0
  Mo  Mo151  1  0.66666667  0.50000000  0.18750000  1.0
  Mo  Mo152  1  0.66666667  0.83333333  0.18750000  1.0
  Mo  Mo153  1  0.00000000  0.00000000  0.22916667  1.0
  Mo  Mo154  1  0.00000000  0.33333333  0.22916667  1.0
  Mo  Mo155  1  0.00000000  0.66666667  0.22916667  1.0
  Mo  Mo156  1  0.33333333  0.00000000  0.22916667  1.0
  Mo  Mo157  1  0.33333333  0.33333333  0.22916667  1.0
  Mo  Mo158  1  0.33333333  0.66666667  0.22916667  1.0
  Mo  Mo159  1  0.66666667  0.00000000  0.22916667  1.0
  Mo  Mo160  1  0.66666667  0.33333333  0.22916667  1.0
  Mo  Mo161  1  0.66666667  0.66666667  0.22916667  1.0
  Ni  Ni162  1  0.11036767  0.16666667  0.27083333  1.0
  Ni  Ni163  1  0.11036767  0.50000000  0.27083333  1.0
  Ni  Ni164  1  0.11036767  0.83333333  0.27083333  1.0
  Ni  Ni165  1  0.44370100  0.16666667  0.27083333  1.0
  Ni  Ni166  1  0.44370100  0.50000000  0.27083333  1.0
  Ni  Ni167  1  0.44370100  0.83333333  0.27083333  1.0
  Ni  Ni168  1  0.77703433  0.16666667  0.27083333  1.0
  Ni  Ni169  1  0.77703433  0.50000000  0.27083333  1.0
  Ni  Ni170  1  0.77703433  0.83333333  0.27083333  1.0
  Ni  Ni171  1  0.11036767  0.00000000  0.31250000  1.0
  Ni  Ni172  1  0.11036767  0.33333333  0.31250000  1.0
  Ni  Ni173  1  0.11036767  0.66666667  0.31250000  1.0
  Ni  Ni174  1  0.44370100  0.00000000  0.31250000  1.0
  Ni  Ni175  1  0.44370100  0.33333333  0.31250000  1.0
  Ni  Ni176  1  0.44370100  0.66666667  0.31250000  1.0
  Ni  Ni177  1  0.77703433  0.00000000  0.31250000  1.0
  Ni  Ni178  1  0.77703433  0.33333333  0.31250000  1.0
  Ni  Ni179  1  0.77703433  0.66666667  0.31250000  1.0
  Ni  Ni180  1  0.22296567  0.16666667  0.27083333  1.0
  Ni  Ni181  1  0.22296567  0.50000000  0.27083333  1.0
  Ni  Ni182  1  0.22296567  0.83333333  0.27083333  1.0
  Ni  Ni183  1  0.55629900  0.16666667  0.27083333  1.0
  Ni  Ni184  1  0.55629900  0.50000000  0.27083333  1.0
  Ni  Ni185  1  0.55629900  0.83333333  0.27083333  1.0
  Ni  Ni186  1  0.88963233  0.16666667  0.27083333  1.0
  Ni  Ni187  1  0.88963233  0.50000000  0.27083333  1.0
  Ni  Ni188  1  0.88963233  0.83333333  0.27083333  1.0
  Ni  Ni189  1  0.22296567  0.00000000  0.31250000  1.0
  Ni  Ni190  1  0.22296567  0.33333333  0.31250000  1.0
  Ni  Ni191  1  0.22296567  0.66666667  0.31250000  1.0
  Ni  Ni192  1  0.55629900  0.00000000  0.31250000  1.0
  Ni  Ni193  1  0.55629900  0.33333333  0.31250000  1.0
  Ni  Ni194  1  0.55629900  0.66666667  0.31250000  1.0
  Ni  Ni195  1  0.88963233  0.00000000  0.31250000  1.0
  Ni  Ni196  1  0.88963233  0.33333333  0.31250000  1.0
  Ni  Ni197  1  0.88963233  0.66666667  0.31250000  1.0
  Mo  Mo198  1  0.00000000  0.16666667  0.27083333  1.0
  Mo  Mo199  1  0.00000000  0.50000000  0.27083333  1.0
  Mo  Mo200  1  0.00000000  0.83333333  0.27083333  1.0
  Mo  Mo201  1  0.33333333  0.16666667  0.27083333  1.0
  Mo  Mo202  1  0.33333333  0.50000000  0.27083333  1.0
  Mo  Mo203  1  0.33333333  0.83333333  0.27083333  1.0
  Mo  Mo204  1  0.66666667  0.16666667  0.27083333  1.0
  Mo  Mo205  1  0.66666667  0.50000000  0.27083333  1.0
  Mo  Mo206  1  0.66666667  0.83333333  0.27083333  1.0
  Mo  Mo207  1  0.00000000  0.00000000  0.31250000  1.0
  Mo  Mo208  1  0.00000000  0.33333333  0.31250000  1.0
  Mo  Mo209  1  0.00000000  0.66666667  0.31250000  1.0
  Mo  Mo210  1  0.33333333  0.00000000  0.31250000  1.0
  Mo  Mo211  1  0.33333333  0.33333333  0.31250000  1.0
  Mo  Mo212  1  0.33333333  0.66666667  0.31250000  1.0
  Mo  Mo213  1  0.66666667  0.00000000  0.31250000  1.0
  Mo  Mo214  1  0.66666667  0.33333333  0.31250000  1.0
  Mo  Mo215  1  0.66666667  0.66666667  0.31250000  1.0
  Ni  Ni216  1  0.11036767  0.16666667  0.35416667  1.0
  Ni  Ni217  1  0.11036767  0.50000000  0.35416667  1.0
  Ni  Ni218  1  0.11036767  0.83333333  0.35416667  1.0
  Ni  Ni219  1  0.44370100  0.16666667  0.35416667  1.0
  Ni  Ni220  1  0.44370100  0.50000000  0.35416667  1.0
  Ni  Ni221  1  0.44370100  0.83333333  0.35416667  1.0
  Ni  Ni222  1  0.77703433  0.16666667  0.35416667  1.0
  Ni  Ni223  1  0.77703433  0.50000000  0.35416667  1.0
  Ni  Ni224  1  0.77703433  0.83333333  0.35416667  1.0
  Ni  Ni225  1  0.11036767  0.00000000  0.39583333  1.0
  Ni  Ni226  1  0.11036767  0.33333333  0.39583333  1.0
  Ni  Ni227  1  0.11036767  0.66666667  0.39583333  1.0
  Ni  Ni228  1  0.44370100  0.00000000  0.39583333  1.0
  Ni  Ni229  1  0.44370100  0.33333333  0.39583333  1.0
  Ni  Ni230  1  0.44370100  0.66666667  0.39583333  1.0
  Ni  Ni231  1  0.77703433  0.00000000  0.39583333  1.0
  Ni  Ni232  1  0.77703433  0.33333333  0.39583333  1.0
  Ni  Ni233  1  0.77703433  0.66666667  0.39583333  1.0
  Ni  Ni234  1  0.22296567  0.16666667  0.35416667  1.0
  Ni  Ni235  1  0.22296567  0.50000000  0.35416667  1.0
  Ni  Ni236  1  0.22296567  0.83333333  0.35416667  1.0
  Ni  Ni237  1  0.55629900  0.16666667  0.35416667  1.0
  Ni  Ni238  1  0.55629900  0.50000000  0.35416667  1.0
  Ni  Ni239  1  0.55629900  0.83333333  0.35416667  1.0
  Ni  Ni240  1  0.88963233  0.16666667  0.35416667  1.0
  Ni  Ni241  1  0.88963233  0.50000000  0.35416667  1.0
  Ni  Ni242  1  0.88963233  0.83333333  0.35416667  1.0
  Ni  Ni243  1  0.22296567  0.00000000  0.39583333  1.0
  Ni  Ni244  1  0.22296567  0.33333333  0.39583333  1.0
  Ni  Ni245  1  0.22296567  0.66666667  0.39583333  1.0
  Ni  Ni246  1  0.55629900  0.00000000  0.39583333  1.0
  Ni  Ni247  1  0.55629900  0.33333333  0.39583333  1.0
  Ni  Ni248  1  0.55629900  0.66666667  0.39583333  1.0
  Ni  Ni249  1  0.88963233  0.00000000  0.39583333  1.0
  Ni  Ni250  1  0.88963233  0.33333333  0.39583333  1.0
  Ni  Ni251  1  0.88963233  0.66666667  0.39583333  1.0
  Mo  Mo252  1  0.00000000  0.16666667  0.35416667  1.0
  Mo  Mo253  1  0.00000000  0.50000000  0.35416667  1.0
  Mo  Mo254  1  0.00000000  0.83333333  0.35416667  1.0
  Mo  Mo255  1  0.33333333  0.16666667  0.35416667  1.0
  Mo  Mo256  1  0.33333333  0.50000000  0.35416667  1.0
  Mo  Mo257  1  0.33333333  0.83333333  0.35416667  1.0
  Mo  Mo258  1  0.66666667  0.16666667  0.35416667  1.0
  Mo  Mo259  1  0.66666667  0.50000000  0.35416667  1.0
  Mo  Mo260  1  0.66666667  0.83333333  0.35416667  1.0
  Mo  Mo261  1  0.00000000  0.00000000  0.39583333  1.0
  Mo  Mo262  1  0.00000000  0.33333333  0.39583333  1.0
  Mo  Mo263  1  0.00000000  0.66666667  0.39583333  1.0
  Mo  Mo264  1  0.33333333  0.00000000  0.39583333  1.0
  Mo  Mo265  1  0.33333333  0.33333333  0.39583333  1.0
  Mo  Mo266  1  0.33333333  0.66666667  0.39583333  1.0
  Mo  Mo267  1  0.66666667  0.00000000  0.39583333  1.0
  Mo  Mo268  1  0.66666667  0.33333333  0.39583333  1.0
  Mo  Mo269  1  0.66666667  0.66666667  0.39583333  1.0
