# generated using pymatgen
data_Ni3Au
_symmetry_space_group_name_H-M   'P 1'
_cell_length_a   13.66305507
_cell_length_b   13.66305507
_cell_length_c   40.98916521
_cell_angle_alpha   132.42802603
_cell_angle_beta   69.55384062
_cell_angle_gamma   132.42802603
_symmetry_Int_Tables_number   1
_chemical_formula_structural   Ni3Au
_chemical_formula_sum   'Ni108 Au36'
_cell_volume   4089.50821052
_cell_formula_units_Z   36
loop_
 _symmetry_equiv_pos_site_id
 _symmetry_equiv_pos_as_xyz
  1  'x, y, z'
loop_
 _atom_site_type_symbol
 _atom_site_label
 _atom_site_symmetry_multiplicity
 _atom_site_fract_x
 _atom_site_fract_y
 _atom_site_fract_z
 _atom_site_occupancy
  Ni  Ni0  1  0.08333333  0.16666667  0.06944444  1.0
  Ni  Ni1  1  0.08333333  0.50000000  0.06944444  1.0
  Ni  Ni2  1  0.08333333  0.83333333  0.06944444  1.0
  Ni  Ni3  1  0.41666667  0.16666667  0.06944444  1.0
  Ni  Ni4  1  0.41666667  0.50000000  0.06944444  1.0
  Ni  Ni5  1  0.41666667  0.83333333  0.06944444  1.0
  Ni  Ni6  1  0.75000000  0.16666667  0.06944444  1.0
  Ni  Ni7  1  0.75000000  0.50000000  0.06944444  1.0
  Ni  Ni8  1  0.75000000  0.83333333  0.06944444  1.0
  Ni  Ni9  1  0.25000000  0.16666667  0.01388889  1.0
  Ni  Ni10  1  0.25000000  0.50000000  0.01388889  1.0
  Ni  Ni11  1  0.25000000  0.83333333  0.01388889  1.0
  Ni  Ni12  1  0.58333333  0.16666667  0.01388889  1.0
  Ni  Ni13  1  0.58333333  0.50000000  0.01388889  1.0
  Ni  Ni14  1  0.58333333  0.83333333  0.01388889  1.0
  Ni  Ni15  1  0.91666667  0.16666667  0.01388889  1.0
  Ni  Ni16  1  0.91666667  0.50000000  0.01388889  1.0
  Ni  Ni17  1  0.91666667  0.83333333  0.01388889  1.0
  Ni  Ni18  1  0.16666667  0.00000000  0.04166667  1.0
  Ni  Ni19  1  0.16666667  0.33333333  0.04166667  1.0
  Ni  Ni20  1  0.16666667  0.66666667  0.04166667  1.0
  Ni  Ni21  1  0.50000000  0.00000000  0.04166667  1.0
  Ni  Ni22  1  0.50000000  0.33333333  0.04166667  1.0
  Ni  Ni23  1  0.50000000  0.66666667  0.04166667  1.0
  Ni  Ni24  1  0.83333333  0.00000000  0.04166667  1.0
  Ni  Ni25  1  0.83333333  0.33333333  0.04166667  1.0
  Ni  Ni26  1  0.83333333  0.66666667  0.04166667  1.0
  Au  Au27  1  0.00000000  0.00000000  0.09722222  1.0
  Au  Au28  1  0.00000000  0.33333333  0.09722222  1.0
  Au  Au29  1  0.00000000  0.66666667  0.09722222  1.0
  Au  Au30  1  0.33333333  0.00000000  0.09722222  1.0
  Au  Au31  1  0.33333333  0.33333333  0.09722222  1.0
  Au  Au32  1  0.33333333  0.66666667  0.09722222  1.0
  Au  Au33  1  0.66666667  0.00000000  0.09722222  1.0
  Au  Au34  1  0.66666667  0.33333333  0.09722222  1.0
  Au  Au35  1  0.66666667  0.66666667  0.09722222  1.0
  Ni  Ni36  1  0.08333333  0.16666667  0.18055556  1.0
  Ni  Ni37  1  0.08333333  0.50000000  0.18055556  1.0
  Ni  Ni38  1  0.08333333  0.83333333  0.18055556  1.0
  Ni  Ni39  1  0.41666667  0.16666667  0.18055556  1.0
  Ni  Ni40  1  0.41666667  0.50000000  0.18055556  1.0
  Ni  Ni41  1  0.41666667  0.83333333  0.18055556  1.0
  Ni  Ni42  1  0.75000000  0.16666667  0.18055556  1.0
  Ni  Ni43  1  0.75000000  0.50000000  0.18055556  1.0
  Ni  Ni44  1  0.75000000  0.83333333  0.18055556  1.0
  Ni  Ni45  1  0.25000000  0.16666667  0.12500000  1.0
  Ni  Ni46  1  0.25000000  0.50000000  0.12500000  1.0
  Ni  Ni47  1  0.25000000  0.83333333  0.12500000  1.0
  Ni  Ni48  1  0.58333333  0.16666667  0.12500000  1.0
  Ni  Ni49  1  0.58333333  0.50000000  0.12500000  1.0
  Ni  Ni50  1  0.58333333  0.83333333  0.12500000  1.0
  Ni  Ni51  1  0.91666667  0.16666667  0.12500000  1.0
  Ni  Ni52  1  0.91666667  0.50000000  0.12500000  1.0
  Ni  Ni53  1  0.91666667  0.83333333  0.12500000  1.0
  Ni  Ni54  1  0.16666667  0.00000000  0.15277778  1.0
  Ni  Ni55  1  0.16666667  0.33333333  0.15277778  1.0
  Ni  Ni56  1  0.16666667  0.66666667  0.15277778  1.0
  Ni  Ni57  1  0.50000000  0.00000000  0.15277778  1.0
  Ni  Ni58  1  0.50000000  0.33333333  0.15277778  1.0
  Ni  Ni59  1  0.50000000  0.66666667  0.15277778  1.0
  Ni  Ni60  1  0.83333333  0.00000000  0.15277778  1.0
  Ni  Ni61  1  0.83333333  0.33333333  0.15277778  1.0
  Ni  Ni62  1  0.83333333  0.66666667  0.15277778  1.0
  Au  Au63  1  0.00000000  0.00000000  0.20833333  1.0
  Au  Au64  1  0.00000000  0.33333333  0.20833333  1.0
  Au  Au65  1  0.00000000  0.66666667  0.20833333  1.0
  Au  Au66  1  0.33333333  0.00000000  0.20833333  1.0
  Au  Au67  1  0.33333333  0.33333333  0.20833333  1.0
  Au  Au68  1  0.33333333  0.66666667  0.20833333  1.0
  Au  Au69  1  0.66666667  0.00000000  0.20833333  1.0
  Au  Au70  1  0.66666667  0.33333333  0.20833333  1.0
  Au  Au71  1  0.66666667  0.66666667  0.20833333  1.0
  Ni  Ni72  1  0.08333333  0.16666667  0.29166667  1.0
  Ni  Ni73  1  0.08333333  0.50000000  0.29166667  1.0
  Ni  Ni74  1  0.08333333  0.83333333  0.29166667  1.0
  Ni  Ni75  1  0.41666667  0.16666667  0.29166667  1.0
  Ni  Ni76  1  0.41666667  0.50000000  0.29166667  1.0
  Ni  Ni77  1  0.41666667  0.83333333  0.29166667  1.0
  Ni  Ni78  1  0.75000000  0.16666667  0.29166667  1.0
  Ni  Ni79  1  0.75000000  0.50000000  0.29166667  1.0
  Ni  Ni80  1  0.75000000  0.83333333  0.29166667  1.0
  Ni  Ni81  1  0.25000000  0.16666667  0.23611111  1.0
  Ni  Ni82  1  0.25000000  0.50000000  0.23611111  1.0
  Ni  Ni83  1  0.25000000  0.83333333  0.23611111  1.0
  Ni  Ni84  1  0.58333333  0.16666667  0.23611111  1.0
  Ni  Ni85  1  0.58333333  0.50000000  0.23611111  1.0
  Ni  Ni86  1  0.58333333  0.83333333  0.23611111  1.0
  Ni  Ni87  1  0.91666667  0.16666667  0.23611111  1.0
  Ni  Ni88  1  0.91666667  0.50000000  0.23611111  1.0
  Ni  Ni89  1  0.91666667  0.83333333  0.23611111  1.0
  Ni  Ni90  1  0.16666667  0.00000000  0.26388889  1.0
  Ni  Ni91  1  0.16666667  0.33333333  0.26388889  1.0
  Ni  Ni92  1  0.16666667  0.66666667  0.26388889  1.0
  Ni  Ni93  1  0.50000000  0.00000000  0.26388889  1.0
  Ni  Ni94  1  0.50000000  0.33333333  0.26388889  1.0
  Ni  Ni95  1  0.50000000  0.66666667  0.26388889  1.0
  Ni  Ni96  1  0.83333333  0.00000000  0.26388889  1.0
  Ni  Ni97  1  0.83333333  0.33333333  0.26388889  1.0
  Ni  Ni98  1  0.83333333  0.66666667  0.26388889  1.0
  Au  Au99  1  0.00000000  0.00000000  0.31944444  1.0
  Au  Au100  1  0.00000000  0.33333333  0.31944444  1.0
  Au  Au101  1  0.00000000  0.66666667  0.31944444  1.0
  Au  Au102  1  0.33333333  0.00000000  0.31944444  1.0
  Au  Au103  1  0.33333333  0.33333333  0.31944444  1.0
  Au  Au104  1  0.33333333  0.66666667  0.31944444  1.0
  Au  Au105  1  0.66666667  0.00000000  0.31944444  1.0
  Au  Au106  1  0.66666667  0.33333333  0.31944444  1.0
  Au  Au107  1  0.66666667  0.66666667  0.31944444  1.0
  Ni  Ni108  1  0.08333333  0.16666667  0.40277778  1.0
  Ni  Ni109  1  0.08333333  0.50000000  0.40277778  1.0
  Ni  Ni110  1  0.08333333  0.83333333  0.40277778  1.0
  Ni  Ni111  1  0.41666667  0.16666667  0.40277778  1.0
  Ni  Ni112  1  0.41666667  0.50000000  0.40277778  1.0
  Ni  Ni113  1  0.41666667  0.83333333  0.40277778  1.0
  Ni  Ni114  1  0.75000000  0.16666667  0.40277778  1.0
  Ni  Ni115  1  0.75000000  0.50000000  0.40277778  1.0
  Ni  Ni116  1  0.75000000  0.83333333  0.40277778  1.0
  Ni  Ni117  1  0.25000000  0.16666667  0.34722222  1.0
  Ni  Ni118  1  0.25000000  0.50000000  0.34722222  1.0
  Ni  Ni119  1  0.25000000  0.83333333  0.34722222  1.0
  Ni  Ni120  1  0.58333333  0.16666667  0.34722222  1.0
  Ni  Ni121  1  0.58333333  0.50000000  0.34722222  1.0
  Ni  Ni122  1  0.58333333  0.83333333  0.34722222  1.0
  Ni  Ni123  1  0.91666667  0.16666667  0.34722222  1.0
  Ni  Ni124  1  0.91666667  0.50000000  0.34722222  1.0
  Ni  Ni125  1  0.91666667  0.83333333  0.34722222  1.0
  Ni  Ni126  1  0.16666667  0.00000000  0.37500000  1.0
  Ni  Ni127  1  0.16666667  0.33333333  0.37500000  1.0
  Ni  Ni128  1  0.16666667  0.66666667  0.37500000  1.0
  Ni  Ni129  1  0.50000000  0.00000000  0.37500000  1.0
  Ni  Ni130  1  0.50000000  0.33333333  0.37500000  1.0
  Ni  Ni131  1  0.50000000  0.66666667  0.37500000  1.0
  Ni  Ni132  1  0.83333333  0.00000000  0.37500000  1.0
  Ni  Ni133  1  0.83333333  0.33333333  0.37500000  1.0
  Ni  Ni134  1  0.83333333  0.66666667  0.37500000  1.0
  Au  Au135  1  0.00000000  0.00000000  0.43055556  1.0
  Au  Au136  1  0.00000000  0.33333333  0.43055556  1.0
  Au  Au137  1  0.00000000  0.66666667  0.43055556  1.0
  Au  Au138  1  0.33333333  0.00000000  0.43055556  1.0
  Au  Au139  1  0.33333333  0.33333333  0.43055556  1.0
  Au  Au140  1  0.33333333  0.66666667  0.43055556  1.0
  Au  Au141  1  0.66666667  0.00000000  0.43055556  1.0
  Au  Au142  1  0.66666667  0.33333333  0.43055556  1.0
  Au  Au143  1  0.66666667  0.66666667  0.43055556  1.0
