# generated using pymatgen
data_Ni3Au
_symmetry_space_group_name_H-M   'P 1'
_cell_length_a   20.72711087
_cell_length_b   25.00498490
_cell_length_c   26.44881564
_cell_angle_alpha   87.46931960
_cell_angle_beta   87.41520074
_cell_angle_gamma   68.35652237
_symmetry_Int_Tables_number   1
_chemical_formula_structural   Ni3Au
_chemical_formula_sum   'Ni324 Au108'
_cell_volume   12722.91443272
_cell_formula_units_Z   108
loop_
 _symmetry_equiv_pos_site_id
 _symmetry_equiv_pos_as_xyz
  1  'x, y, z'
loop_
 _atom_site_type_symbol
 _atom_site_label
 _atom_site_symmetry_multiplicity
 _atom_site_fract_x
 _atom_site_fract_y
 _atom_site_fract_z
 _atom_site_occupancy
  Au  Au0  1  0.15625000  0.04464286  0.06696429  1.0
  Au  Au1  1  0.15625000  0.37797619  0.06696429  1.0
  Au  Au2  1  0.15625000  0.71130952  0.06696429  1.0
  Au  Au3  1  0.48958333  0.04464286  0.06696429  1.0
  Au  Au4  1  0.48958333  0.37797619  0.06696429  1.0
  Au  Au5  1  0.48958333  0.71130952  0.06696429  1.0
  Au  Au6  1  0.82291667  0.04464286  0.06696429  1.0
  Au  Au7  1  0.82291667  0.37797619  0.06696429  1.0
  Au  Au8  1  0.82291667  0.71130952  0.06696429  1.0
  Au  Au9  1  0.23958333  0.18750000  0.03125000  1.0
  Au  Au10  1  0.23958333  0.52083333  0.03125000  1.0
  Au  Au11  1  0.23958333  0.85416667  0.03125000  1.0
  Au  Au12  1  0.57291667  0.18750000  0.03125000  1.0
  Au  Au13  1  0.57291667  0.52083333  0.03125000  1.0
  Au  Au14  1  0.57291667  0.85416667  0.03125000  1.0
  Au  Au15  1  0.90625000  0.18750000  0.03125000  1.0
  Au  Au16  1  0.90625000  0.52083333  0.03125000  1.0
  Au  Au17  1  0.90625000  0.85416667  0.03125000  1.0
  Au  Au18  1  0.32291667  0.09226190  0.13839286  1.0
  Au  Au19  1  0.32291667  0.42559524  0.13839286  1.0
  Au  Au20  1  0.32291667  0.75892857  0.13839286  1.0
  Au  Au21  1  0.65625000  0.09226190  0.13839286  1.0
  Au  Au22  1  0.65625000  0.42559524  0.13839286  1.0
  Au  Au23  1  0.65625000  0.75892857  0.13839286  1.0
  Au  Au24  1  0.98958333  0.09226190  0.13839286  1.0
  Au  Au25  1  0.98958333  0.42559524  0.13839286  1.0
  Au  Au26  1  0.98958333  0.75892857  0.13839286  1.0
  Au  Au27  1  0.07291667  0.23511905  0.10267857  1.0
  Au  Au28  1  0.07291667  0.56845238  0.10267857  1.0
  Au  Au29  1  0.07291667  0.90178571  0.10267857  1.0
  Au  Au30  1  0.40625000  0.23511905  0.10267857  1.0
  Au  Au31  1  0.40625000  0.56845238  0.10267857  1.0
  Au  Au32  1  0.40625000  0.90178571  0.10267857  1.0
  Au  Au33  1  0.73958333  0.23511905  0.10267857  1.0
  Au  Au34  1  0.73958333  0.56845238  0.10267857  1.0
  Au  Au35  1  0.73958333  0.90178571  0.10267857  1.0
  Au  Au36  1  0.15625000  0.13988095  0.20982143  1.0
  Au  Au37  1  0.15625000  0.47321429  0.20982143  1.0
  Au  Au38  1  0.15625000  0.80654762  0.20982143  1.0
  Au  Au39  1  0.48958333  0.13988095  0.20982143  1.0
  Au  Au40  1  0.48958333  0.47321429  0.20982143  1.0
  Au  Au41  1  0.48958333  0.80654762  0.20982143  1.0
  Au  Au42  1  0.82291667  0.13988095  0.20982143  1.0
  Au  Au43  1  0.82291667  0.47321429  0.20982143  1.0
  Au  Au44  1  0.82291667  0.80654762  0.20982143  1.0
  Au  Au45  1  0.23958333  0.28273810  0.17410714  1.0
  Au  Au46  1  0.23958333  0.61607143  0.17410714  1.0
  Au  Au47  1  0.23958333  0.94940476  0.17410714  1.0
  Au  Au48  1  0.57291667  0.28273810  0.17410714  1.0
  Au  Au49  1  0.57291667  0.61607143  0.17410714  1.0
  Au  Au50  1  0.57291667  0.94940476  0.17410714  1.0
  Au  Au51  1  0.90625000  0.28273810  0.17410714  1.0
  Au  Au52  1  0.90625000  0.61607143  0.17410714  1.0
  Au  Au53  1  0.90625000  0.94940476  0.17410714  1.0
  Au  Au54  1  0.32291667  0.18750000  0.28125000  1.0
  Au  Au55  1  0.32291667  0.52083333  0.28125000  1.0
  Au  Au56  1  0.32291667  0.85416667  0.28125000  1.0
  Au  Au57  1  0.65625000  0.18750000  0.28125000  1.0
  Au  Au58  1  0.65625000  0.52083333  0.28125000  1.0
  Au  Au59  1  0.65625000  0.85416667  0.28125000  1.0
  Au  Au60  1  0.98958333  0.18750000  0.28125000  1.0
  Au  Au61  1  0.98958333  0.52083333  0.28125000  1.0
  Au  Au62  1  0.98958333  0.85416667  0.28125000  1.0
  Au  Au63  1  0.07291667  0.33035714  0.24553571  1.0
  Au  Au64  1  0.07291667  0.66369048  0.24553571  1.0
  Au  Au65  1  0.07291667  0.99702381  0.24553571  1.0
  Au  Au66  1  0.40625000  0.33035714  0.24553571  1.0
  Au  Au67  1  0.40625000  0.66369048  0.24553571  1.0
  Au  Au68  1  0.40625000  0.99702381  0.24553571  1.0
  Au  Au69  1  0.73958333  0.33035714  0.24553571  1.0
  Au  Au70  1  0.73958333  0.66369048  0.24553571  1.0
  Au  Au71  1  0.73958333  0.99702381  0.24553571  1.0
  Au  Au72  1  0.15625000  0.23511905  0.35267857  1.0
  Au  Au73  1  0.15625000  0.56845238  0.35267857  1.0
  Au  Au74  1  0.15625000  0.90178571  0.35267857  1.0
  Au  Au75  1  0.48958333  0.23511905  0.35267857  1.0
  Au  Au76  1  0.48958333  0.56845238  0.35267857  1.0
  Au  Au77  1  0.48958333  0.90178571  0.35267857  1.0
  Au  Au78  1  0.82291667  0.23511905  0.35267857  1.0
  Au  Au79  1  0.82291667  0.56845238  0.35267857  1.0
  Au  Au80  1  0.82291667  0.90178571  0.35267857  1.0
  Au  Au81  1  0.23958333  0.04464286  0.31696429  1.0
  Au  Au82  1  0.23958333  0.37797619  0.31696429  1.0
  Au  Au83  1  0.23958333  0.71130952  0.31696429  1.0
  Au  Au84  1  0.57291667  0.04464286  0.31696429  1.0
  Au  Au85  1  0.57291667  0.37797619  0.31696429  1.0
  Au  Au86  1  0.57291667  0.71130952  0.31696429  1.0
  Au  Au87  1  0.90625000  0.04464286  0.31696429  1.0
  Au  Au88  1  0.90625000  0.37797619  0.31696429  1.0
  Au  Au89  1  0.90625000  0.71130952  0.31696429  1.0
  Au  Au90  1  0.32291667  0.28273810  0.42410714  1.0
  Au  Au91  1  0.32291667  0.61607143  0.42410714  1.0
  Au  Au92  1  0.32291667  0.94940476  0.42410714  1.0
  Au  Au93  1  0.65625000  0.28273810  0.42410714  1.0
  Au  Au94  1  0.65625000  0.61607143  0.42410714  1.0
  Au  Au95  1  0.65625000  0.94940476  0.42410714  1.0
  Au  Au96  1  0.98958333  0.28273810  0.42410714  1.0
  Au  Au97  1  0.98958333  0.61607143  0.42410714  1.0
  Au  Au98  1  0.98958333  0.94940476  0.42410714  1.0
  Au  Au99  1  0.07291667  0.09226190  0.38839286  1.0
  Au  Au100  1  0.07291667  0.42559524  0.38839286  1.0
  Au  Au101  1  0.07291667  0.75892857  0.38839286  1.0
  Au  Au102  1  0.40625000  0.09226190  0.38839286  1.0
  Au  Au103  1  0.40625000  0.42559524  0.38839286  1.0
  Au  Au104  1  0.40625000  0.75892857  0.38839286  1.0
  Au  Au105  1  0.73958333  0.09226190  0.38839286  1.0
  Au  Au106  1  0.73958333  0.42559524  0.38839286  1.0
  Au  Au107  1  0.73958333  0.75892857  0.38839286  1.0
  Ni  Ni108  1  0.21875000  0.29464286  0.00446429  1.0
  Ni  Ni109  1  0.21875000  0.62797619  0.00446429  1.0
  Ni  Ni110  1  0.21875000  0.96130952  0.00446429  1.0
  Ni  Ni111  1  0.55208333  0.29464286  0.00446429  1.0
  Ni  Ni112  1  0.55208333  0.62797619  0.00446429  1.0
  Ni  Ni113  1  0.55208333  0.96130952  0.00446429  1.0
  Ni  Ni114  1  0.88541667  0.29464286  0.00446429  1.0
  Ni  Ni115  1  0.88541667  0.62797619  0.00446429  1.0
  Ni  Ni116  1  0.88541667  0.96130952  0.00446429  1.0
  Ni  Ni117  1  0.13541667  0.15178571  0.04017857  1.0
  Ni  Ni118  1  0.13541667  0.48511905  0.04017857  1.0
  Ni  Ni119  1  0.13541667  0.81845238  0.04017857  1.0
  Ni  Ni120  1  0.46875000  0.15178571  0.04017857  1.0
  Ni  Ni121  1  0.46875000  0.48511905  0.04017857  1.0
  Ni  Ni122  1  0.46875000  0.81845238  0.04017857  1.0
  Ni  Ni123  1  0.80208333  0.15178571  0.04017857  1.0
  Ni  Ni124  1  0.80208333  0.48511905  0.04017857  1.0
  Ni  Ni125  1  0.80208333  0.81845238  0.04017857  1.0
  Ni  Ni126  1  0.26041667  0.08035714  0.05803571  1.0
  Ni  Ni127  1  0.26041667  0.41369048  0.05803571  1.0
  Ni  Ni128  1  0.26041667  0.74702381  0.05803571  1.0
  Ni  Ni129  1  0.59375000  0.08035714  0.05803571  1.0
  Ni  Ni130  1  0.59375000  0.41369048  0.05803571  1.0
  Ni  Ni131  1  0.59375000  0.74702381  0.05803571  1.0
  Ni  Ni132  1  0.92708333  0.08035714  0.05803571  1.0
  Ni  Ni133  1  0.92708333  0.41369048  0.05803571  1.0
  Ni  Ni134  1  0.92708333  0.74702381  0.05803571  1.0
  Ni  Ni135  1  0.01041667  0.22321429  0.02232143  1.0
  Ni  Ni136  1  0.01041667  0.55654762  0.02232143  1.0
  Ni  Ni137  1  0.01041667  0.88988095  0.02232143  1.0
  Ni  Ni138  1  0.34375000  0.22321429  0.02232143  1.0
  Ni  Ni139  1  0.34375000  0.55654762  0.02232143  1.0
  Ni  Ni140  1  0.34375000  0.88988095  0.02232143  1.0
  Ni  Ni141  1  0.67708333  0.22321429  0.02232143  1.0
  Ni  Ni142  1  0.67708333  0.55654762  0.02232143  1.0
  Ni  Ni143  1  0.67708333  0.88988095  0.02232143  1.0
  Ni  Ni144  1  0.03125000  0.11607143  0.04910714  1.0
  Ni  Ni145  1  0.03125000  0.44940476  0.04910714  1.0
  Ni  Ni146  1  0.03125000  0.78273810  0.04910714  1.0
  Ni  Ni147  1  0.36458333  0.11607143  0.04910714  1.0
  Ni  Ni148  1  0.36458333  0.44940476  0.04910714  1.0
  Ni  Ni149  1  0.36458333  0.78273810  0.04910714  1.0
  Ni  Ni150  1  0.69791667  0.11607143  0.04910714  1.0
  Ni  Ni151  1  0.69791667  0.44940476  0.04910714  1.0
  Ni  Ni152  1  0.69791667  0.78273810  0.04910714  1.0
  Ni  Ni153  1  0.11458333  0.25892857  0.01339286  1.0
  Ni  Ni154  1  0.11458333  0.59226190  0.01339286  1.0
  Ni  Ni155  1  0.11458333  0.92559524  0.01339286  1.0
  Ni  Ni156  1  0.44791667  0.25892857  0.01339286  1.0
  Ni  Ni157  1  0.44791667  0.59226190  0.01339286  1.0
  Ni  Ni158  1  0.44791667  0.92559524  0.01339286  1.0
  Ni  Ni159  1  0.78125000  0.25892857  0.01339286  1.0
  Ni  Ni160  1  0.78125000  0.59226190  0.01339286  1.0
  Ni  Ni161  1  0.78125000  0.92559524  0.01339286  1.0
  Ni  Ni162  1  0.05208333  0.00892857  0.07589286  1.0
  Ni  Ni163  1  0.05208333  0.34226190  0.07589286  1.0
  Ni  Ni164  1  0.05208333  0.67559524  0.07589286  1.0
  Ni  Ni165  1  0.38541667  0.00892857  0.07589286  1.0
  Ni  Ni166  1  0.38541667  0.34226190  0.07589286  1.0
  Ni  Ni167  1  0.38541667  0.67559524  0.07589286  1.0
  Ni  Ni168  1  0.71875000  0.00892857  0.07589286  1.0
  Ni  Ni169  1  0.71875000  0.34226190  0.07589286  1.0
  Ni  Ni170  1  0.71875000  0.67559524  0.07589286  1.0
  Ni  Ni171  1  0.30208333  0.19940476  0.11160714  1.0
  Ni  Ni172  1  0.30208333  0.53273810  0.11160714  1.0
  Ni  Ni173  1  0.30208333  0.86607143  0.11160714  1.0
  Ni  Ni174  1  0.63541667  0.19940476  0.11160714  1.0
  Ni  Ni175  1  0.63541667  0.53273810  0.11160714  1.0
  Ni  Ni176  1  0.63541667  0.86607143  0.11160714  1.0
  Ni  Ni177  1  0.96875000  0.19940476  0.11160714  1.0
  Ni  Ni178  1  0.96875000  0.53273810  0.11160714  1.0
  Ni  Ni179  1  0.96875000  0.86607143  0.11160714  1.0
  Ni  Ni180  1  0.09375000  0.12797619  0.12946429  1.0
  Ni  Ni181  1  0.09375000  0.46130952  0.12946429  1.0
  Ni  Ni182  1  0.09375000  0.79464286  0.12946429  1.0
  Ni  Ni183  1  0.42708333  0.12797619  0.12946429  1.0
  Ni  Ni184  1  0.42708333  0.46130952  0.12946429  1.0
  Ni  Ni185  1  0.42708333  0.79464286  0.12946429  1.0
  Ni  Ni186  1  0.76041667  0.12797619  0.12946429  1.0
  Ni  Ni187  1  0.76041667  0.46130952  0.12946429  1.0
  Ni  Ni188  1  0.76041667  0.79464286  0.12946429  1.0
  Ni  Ni189  1  0.17708333  0.27083333  0.09375000  1.0
  Ni  Ni190  1  0.17708333  0.60416667  0.09375000  1.0
  Ni  Ni191  1  0.17708333  0.93750000  0.09375000  1.0
  Ni  Ni192  1  0.51041667  0.27083333  0.09375000  1.0
  Ni  Ni193  1  0.51041667  0.60416667  0.09375000  1.0
  Ni  Ni194  1  0.51041667  0.93750000  0.09375000  1.0
  Ni  Ni195  1  0.84375000  0.27083333  0.09375000  1.0
  Ni  Ni196  1  0.84375000  0.60416667  0.09375000  1.0
  Ni  Ni197  1  0.84375000  0.93750000  0.09375000  1.0
  Ni  Ni198  1  0.19791667  0.16369048  0.12053571  1.0
  Ni  Ni199  1  0.19791667  0.49702381  0.12053571  1.0
  Ni  Ni200  1  0.19791667  0.83035714  0.12053571  1.0
  Ni  Ni201  1  0.53125000  0.16369048  0.12053571  1.0
  Ni  Ni202  1  0.53125000  0.49702381  0.12053571  1.0
  Ni  Ni203  1  0.53125000  0.83035714  0.12053571  1.0
  Ni  Ni204  1  0.86458333  0.16369048  0.12053571  1.0
  Ni  Ni205  1  0.86458333  0.49702381  0.12053571  1.0
  Ni  Ni206  1  0.86458333  0.83035714  0.12053571  1.0
  Ni  Ni207  1  0.28125000  0.30654762  0.08482143  1.0
  Ni  Ni208  1  0.28125000  0.63988095  0.08482143  1.0
  Ni  Ni209  1  0.28125000  0.97321429  0.08482143  1.0
  Ni  Ni210  1  0.61458333  0.30654762  0.08482143  1.0
  Ni  Ni211  1  0.61458333  0.63988095  0.08482143  1.0
  Ni  Ni212  1  0.61458333  0.97321429  0.08482143  1.0
  Ni  Ni213  1  0.94791667  0.30654762  0.08482143  1.0
  Ni  Ni214  1  0.94791667  0.63988095  0.08482143  1.0
  Ni  Ni215  1  0.94791667  0.97321429  0.08482143  1.0
  Ni  Ni216  1  0.21875000  0.05654762  0.14732143  1.0
  Ni  Ni217  1  0.21875000  0.38988095  0.14732143  1.0
  Ni  Ni218  1  0.21875000  0.72321429  0.14732143  1.0
  Ni  Ni219  1  0.55208333  0.05654762  0.14732143  1.0
  Ni  Ni220  1  0.55208333  0.38988095  0.14732143  1.0
  Ni  Ni221  1  0.55208333  0.72321429  0.14732143  1.0
  Ni  Ni222  1  0.88541667  0.05654762  0.14732143  1.0
  Ni  Ni223  1  0.88541667  0.38988095  0.14732143  1.0
  Ni  Ni224  1  0.88541667  0.72321429  0.14732143  1.0
  Ni  Ni225  1  0.13541667  0.24702381  0.18303571  1.0
  Ni  Ni226  1  0.13541667  0.58035714  0.18303571  1.0
  Ni  Ni227  1  0.13541667  0.91369048  0.18303571  1.0
  Ni  Ni228  1  0.46875000  0.24702381  0.18303571  1.0
  Ni  Ni229  1  0.46875000  0.58035714  0.18303571  1.0
  Ni  Ni230  1  0.46875000  0.91369048  0.18303571  1.0
  Ni  Ni231  1  0.80208333  0.24702381  0.18303571  1.0
  Ni  Ni232  1  0.80208333  0.58035714  0.18303571  1.0
  Ni  Ni233  1  0.80208333  0.91369048  0.18303571  1.0
  Ni  Ni234  1  0.26041667  0.17559524  0.20089286  1.0
  Ni  Ni235  1  0.26041667  0.50892857  0.20089286  1.0
  Ni  Ni236  1  0.26041667  0.84226190  0.20089286  1.0
  Ni  Ni237  1  0.59375000  0.17559524  0.20089286  1.0
  Ni  Ni238  1  0.59375000  0.50892857  0.20089286  1.0
  Ni  Ni239  1  0.59375000  0.84226190  0.20089286  1.0
  Ni  Ni240  1  0.92708333  0.17559524  0.20089286  1.0
  Ni  Ni241  1  0.92708333  0.50892857  0.20089286  1.0
  Ni  Ni242  1  0.92708333  0.84226190  0.20089286  1.0
  Ni  Ni243  1  0.01041667  0.31845238  0.16517857  1.0
  Ni  Ni244  1  0.01041667  0.65178571  0.16517857  1.0
  Ni  Ni245  1  0.01041667  0.98511905  0.16517857  1.0
  Ni  Ni246  1  0.34375000  0.31845238  0.16517857  1.0
  Ni  Ni247  1  0.34375000  0.65178571  0.16517857  1.0
  Ni  Ni248  1  0.34375000  0.98511905  0.16517857  1.0
  Ni  Ni249  1  0.67708333  0.31845238  0.16517857  1.0
  Ni  Ni250  1  0.67708333  0.65178571  0.16517857  1.0
  Ni  Ni251  1  0.67708333  0.98511905  0.16517857  1.0
  Ni  Ni252  1  0.03125000  0.21130952  0.19196429  1.0
  Ni  Ni253  1  0.03125000  0.54464286  0.19196429  1.0
  Ni  Ni254  1  0.03125000  0.87797619  0.19196429  1.0
  Ni  Ni255  1  0.36458333  0.21130952  0.19196429  1.0
  Ni  Ni256  1  0.36458333  0.54464286  0.19196429  1.0
  Ni  Ni257  1  0.36458333  0.87797619  0.19196429  1.0
  Ni  Ni258  1  0.69791667  0.21130952  0.19196429  1.0
  Ni  Ni259  1  0.69791667  0.54464286  0.19196429  1.0
  Ni  Ni260  1  0.69791667  0.87797619  0.19196429  1.0
  Ni  Ni261  1  0.11458333  0.02083333  0.15625000  1.0
  Ni  Ni262  1  0.11458333  0.35416667  0.15625000  1.0
  Ni  Ni263  1  0.11458333  0.68750000  0.15625000  1.0
  Ni  Ni264  1  0.44791667  0.02083333  0.15625000  1.0
  Ni  Ni265  1  0.44791667  0.35416667  0.15625000  1.0
  Ni  Ni266  1  0.44791667  0.68750000  0.15625000  1.0
  Ni  Ni267  1  0.78125000  0.02083333  0.15625000  1.0
  Ni  Ni268  1  0.78125000  0.35416667  0.15625000  1.0
  Ni  Ni269  1  0.78125000  0.68750000  0.15625000  1.0
  Ni  Ni270  1  0.05208333  0.10416667  0.21875000  1.0
  Ni  Ni271  1  0.05208333  0.43750000  0.21875000  1.0
  Ni  Ni272  1  0.05208333  0.77083333  0.21875000  1.0
  Ni  Ni273  1  0.38541667  0.10416667  0.21875000  1.0
  Ni  Ni274  1  0.38541667  0.43750000  0.21875000  1.0
  Ni  Ni275  1  0.38541667  0.77083333  0.21875000  1.0
  Ni  Ni276  1  0.71875000  0.10416667  0.21875000  1.0
  Ni  Ni277  1  0.71875000  0.43750000  0.21875000  1.0
  Ni  Ni278  1  0.71875000  0.77083333  0.21875000  1.0
  Ni  Ni279  1  0.30208333  0.29464286  0.25446429  1.0
  Ni  Ni280  1  0.30208333  0.62797619  0.25446429  1.0
  Ni  Ni281  1  0.30208333  0.96130952  0.25446429  1.0
  Ni  Ni282  1  0.63541667  0.29464286  0.25446429  1.0
  Ni  Ni283  1  0.63541667  0.62797619  0.25446429  1.0
  Ni  Ni284  1  0.63541667  0.96130952  0.25446429  1.0
  Ni  Ni285  1  0.96875000  0.29464286  0.25446429  1.0
  Ni  Ni286  1  0.96875000  0.62797619  0.25446429  1.0
  Ni  Ni287  1  0.96875000  0.96130952  0.25446429  1.0
  Ni  Ni288  1  0.09375000  0.22321429  0.27232143  1.0
  Ni  Ni289  1  0.09375000  0.55654762  0.27232143  1.0
  Ni  Ni290  1  0.09375000  0.88988095  0.27232143  1.0
  Ni  Ni291  1  0.42708333  0.22321429  0.27232143  1.0
  Ni  Ni292  1  0.42708333  0.55654762  0.27232143  1.0
  Ni  Ni293  1  0.42708333  0.88988095  0.27232143  1.0
  Ni  Ni294  1  0.76041667  0.22321429  0.27232143  1.0
  Ni  Ni295  1  0.76041667  0.55654762  0.27232143  1.0
  Ni  Ni296  1  0.76041667  0.88988095  0.27232143  1.0
  Ni  Ni297  1  0.17708333  0.03273810  0.23660714  1.0
  Ni  Ni298  1  0.17708333  0.36607143  0.23660714  1.0
  Ni  Ni299  1  0.17708333  0.69940476  0.23660714  1.0
  Ni  Ni300  1  0.51041667  0.03273810  0.23660714  1.0
  Ni  Ni301  1  0.51041667  0.36607143  0.23660714  1.0
  Ni  Ni302  1  0.51041667  0.69940476  0.23660714  1.0
  Ni  Ni303  1  0.84375000  0.03273810  0.23660714  1.0
  Ni  Ni304  1  0.84375000  0.36607143  0.23660714  1.0
  Ni  Ni305  1  0.84375000  0.69940476  0.23660714  1.0
  Ni  Ni306  1  0.19791667  0.25892857  0.26339286  1.0
  Ni  Ni307  1  0.19791667  0.59226190  0.26339286  1.0
  Ni  Ni308  1  0.19791667  0.92559524  0.26339286  1.0
  Ni  Ni309  1  0.53125000  0.25892857  0.26339286  1.0
  Ni  Ni310  1  0.53125000  0.59226190  0.26339286  1.0
  Ni  Ni311  1  0.53125000  0.92559524  0.26339286  1.0
  Ni  Ni312  1  0.86458333  0.25892857  0.26339286  1.0
  Ni  Ni313  1  0.86458333  0.59226190  0.26339286  1.0
  Ni  Ni314  1  0.86458333  0.92559524  0.26339286  1.0
  Ni  Ni315  1  0.28125000  0.06845238  0.22767857  1.0
  Ni  Ni316  1  0.28125000  0.40178571  0.22767857  1.0
  Ni  Ni317  1  0.28125000  0.73511905  0.22767857  1.0
  Ni  Ni318  1  0.61458333  0.06845238  0.22767857  1.0
  Ni  Ni319  1  0.61458333  0.40178571  0.22767857  1.0
  Ni  Ni320  1  0.61458333  0.73511905  0.22767857  1.0
  Ni  Ni321  1  0.94791667  0.06845238  0.22767857  1.0
  Ni  Ni322  1  0.94791667  0.40178571  0.22767857  1.0
  Ni  Ni323  1  0.94791667  0.73511905  0.22767857  1.0
  Ni  Ni324  1  0.21875000  0.15178571  0.29017857  1.0
  Ni  Ni325  1  0.21875000  0.48511905  0.29017857  1.0
  Ni  Ni326  1  0.21875000  0.81845238  0.29017857  1.0
  Ni  Ni327  1  0.55208333  0.15178571  0.29017857  1.0
  Ni  Ni328  1  0.55208333  0.48511905  0.29017857  1.0
  Ni  Ni329  1  0.55208333  0.81845238  0.29017857  1.0
  Ni  Ni330  1  0.88541667  0.15178571  0.29017857  1.0
  Ni  Ni331  1  0.88541667  0.48511905  0.29017857  1.0
  Ni  Ni332  1  0.88541667  0.81845238  0.29017857  1.0
  Ni  Ni333  1  0.13541667  0.00892857  0.32589286  1.0
  Ni  Ni334  1  0.13541667  0.34226190  0.32589286  1.0
  Ni  Ni335  1  0.13541667  0.67559524  0.32589286  1.0
  Ni  Ni336  1  0.46875000  0.00892857  0.32589286  1.0
  Ni  Ni337  1  0.46875000  0.34226190  0.32589286  1.0
  Ni  Ni338  1  0.46875000  0.67559524  0.32589286  1.0
  Ni  Ni339  1  0.80208333  0.00892857  0.32589286  1.0
  Ni  Ni340  1  0.80208333  0.34226190  0.32589286  1.0
  Ni  Ni341  1  0.80208333  0.67559524  0.32589286  1.0
  Ni  Ni342  1  0.26041667  0.27083333  0.34375000  1.0
  Ni  Ni343  1  0.26041667  0.60416667  0.34375000  1.0
  Ni  Ni344  1  0.26041667  0.93750000  0.34375000  1.0
  Ni  Ni345  1  0.59375000  0.27083333  0.34375000  1.0
  Ni  Ni346  1  0.59375000  0.60416667  0.34375000  1.0
  Ni  Ni347  1  0.59375000  0.93750000  0.34375000  1.0
  Ni  Ni348  1  0.92708333  0.27083333  0.34375000  1.0
  Ni  Ni349  1  0.92708333  0.60416667  0.34375000  1.0
  Ni  Ni350  1  0.92708333  0.93750000  0.34375000  1.0
  Ni  Ni351  1  0.01041667  0.08035714  0.30803571  1.0
  Ni  Ni352  1  0.01041667  0.41369048  0.30803571  1.0
  Ni  Ni353  1  0.01041667  0.74702381  0.30803571  1.0
  Ni  Ni354  1  0.34375000  0.08035714  0.30803571  1.0
  Ni  Ni355  1  0.34375000  0.41369048  0.30803571  1.0
  Ni  Ni356  1  0.34375000  0.74702381  0.30803571  1.0
  Ni  Ni357  1  0.67708333  0.08035714  0.30803571  1.0
  Ni  Ni358  1  0.67708333  0.41369048  0.30803571  1.0
  Ni  Ni359  1  0.67708333  0.74702381  0.30803571  1.0
  Ni  Ni360  1  0.03125000  0.30654762  0.33482143  1.0
  Ni  Ni361  1  0.03125000  0.63988095  0.33482143  1.0
  Ni  Ni362  1  0.03125000  0.97321429  0.33482143  1.0
  Ni  Ni363  1  0.36458333  0.30654762  0.33482143  1.0
  Ni  Ni364  1  0.36458333  0.63988095  0.33482143  1.0
  Ni  Ni365  1  0.36458333  0.97321429  0.33482143  1.0
  Ni  Ni366  1  0.69791667  0.30654762  0.33482143  1.0
  Ni  Ni367  1  0.69791667  0.63988095  0.33482143  1.0
  Ni  Ni368  1  0.69791667  0.97321429  0.33482143  1.0
  Ni  Ni369  1  0.11458333  0.11607143  0.29910714  1.0
  Ni  Ni370  1  0.11458333  0.44940476  0.29910714  1.0
  Ni  Ni371  1  0.11458333  0.78273810  0.29910714  1.0
  Ni  Ni372  1  0.44791667  0.11607143  0.29910714  1.0
  Ni  Ni373  1  0.44791667  0.44940476  0.29910714  1.0
  Ni  Ni374  1  0.44791667  0.78273810  0.29910714  1.0
  Ni  Ni375  1  0.78125000  0.11607143  0.29910714  1.0
  Ni  Ni376  1  0.78125000  0.44940476  0.29910714  1.0
  Ni  Ni377  1  0.78125000  0.78273810  0.29910714  1.0
  Ni  Ni378  1  0.05208333  0.19940476  0.36160714  1.0
  Ni  Ni379  1  0.05208333  0.53273810  0.36160714  1.0
  Ni  Ni380  1  0.05208333  0.86607143  0.36160714  1.0
  Ni  Ni381  1  0.38541667  0.19940476  0.36160714  1.0
  Ni  Ni382  1  0.38541667  0.53273810  0.36160714  1.0
  Ni  Ni383  1  0.38541667  0.86607143  0.36160714  1.0
  Ni  Ni384  1  0.71875000  0.19940476  0.36160714  1.0
  Ni  Ni385  1  0.71875000  0.53273810  0.36160714  1.0
  Ni  Ni386  1  0.71875000  0.86607143  0.36160714  1.0
  Ni  Ni387  1  0.30208333  0.05654762  0.39732143  1.0
  Ni  Ni388  1  0.30208333  0.38988095  0.39732143  1.0
  Ni  Ni389  1  0.30208333  0.72321429  0.39732143  1.0
  Ni  Ni390  1  0.63541667  0.05654762  0.39732143  1.0
  Ni  Ni391  1  0.63541667  0.38988095  0.39732143  1.0
  Ni  Ni392  1  0.63541667  0.72321429  0.39732143  1.0
  Ni  Ni393  1  0.96875000  0.05654762  0.39732143  1.0
  Ni  Ni394  1  0.96875000  0.38988095  0.39732143  1.0
  Ni  Ni395  1  0.96875000  0.72321429  0.39732143  1.0
  Ni  Ni396  1  0.09375000  0.31845238  0.41517857  1.0
  Ni  Ni397  1  0.09375000  0.65178571  0.41517857  1.0
  Ni  Ni398  1  0.09375000  0.98511905  0.41517857  1.0
  Ni  Ni399  1  0.42708333  0.31845238  0.41517857  1.0
  Ni  Ni400  1  0.42708333  0.65178571  0.41517857  1.0
  Ni  Ni401  1  0.42708333  0.98511905  0.41517857  1.0
  Ni  Ni402  1  0.76041667  0.31845238  0.41517857  1.0
  Ni  Ni403  1  0.76041667  0.65178571  0.41517857  1.0
  Ni  Ni404  1  0.76041667  0.98511905  0.41517857  1.0
  Ni  Ni405  1  0.17708333  0.12797619  0.37946429  1.0
  Ni  Ni406  1  0.17708333  0.46130952  0.37946429  1.0
  Ni  Ni407  1  0.17708333  0.79464286  0.37946429  1.0
  Ni  Ni408  1  0.51041667  0.12797619  0.37946429  1.0
  Ni  Ni409  1  0.51041667  0.46130952  0.37946429  1.0
  Ni  Ni410  1  0.51041667  0.79464286  0.37946429  1.0
  Ni  Ni411  1  0.84375000  0.12797619  0.37946429  1.0
  Ni  Ni412  1  0.84375000  0.46130952  0.37946429  1.0
  Ni  Ni413  1  0.84375000  0.79464286  0.37946429  1.0
  Ni  Ni414  1  0.19791667  0.02083333  0.40625000  1.0
  Ni  Ni415  1  0.19791667  0.35416667  0.40625000  1.0
  Ni  Ni416  1  0.19791667  0.68750000  0.40625000  1.0
  Ni  Ni417  1  0.53125000  0.02083333  0.40625000  1.0
  Ni  Ni418  1  0.53125000  0.35416667  0.40625000  1.0
  Ni  Ni419  1  0.53125000  0.68750000  0.40625000  1.0
  Ni  Ni420  1  0.86458333  0.02083333  0.40625000  1.0
  Ni  Ni421  1  0.86458333  0.35416667  0.40625000  1.0
  Ni  Ni422  1  0.86458333  0.68750000  0.40625000  1.0
  Ni  Ni423  1  0.28125000  0.16369048  0.37053571  1.0
  Ni  Ni424  1  0.28125000  0.49702381  0.37053571  1.0
  Ni  Ni425  1  0.28125000  0.83035714  0.37053571  1.0
  Ni  Ni426  1  0.61458333  0.16369048  0.37053571  1.0
  Ni  Ni427  1  0.61458333  0.49702381  0.37053571  1.0
  Ni  Ni428  1  0.61458333  0.83035714  0.37053571  1.0
  Ni  Ni429  1  0.94791667  0.16369048  0.37053571  1.0
  Ni  Ni430  1  0.94791667  0.49702381  0.37053571  1.0
  Ni  Ni431  1  0.94791667  0.83035714  0.37053571  1.0
