# generated using pymatgen
data_Ni3Au
_symmetry_space_group_name_H-M   'P 1'
_cell_length_a   20.24498214
_cell_length_b   29.97512622
_cell_length_c   28.99591798
_cell_angle_alpha   97.41203185
_cell_angle_beta   92.56425338
_cell_angle_gamma   109.47079926
_symmetry_Int_Tables_number   1
_chemical_formula_structural   Ni3Au
_chemical_formula_sum   'Ni432 Au144'
_cell_volume   16378.53529786
_cell_formula_units_Z   144
loop_
 _symmetry_equiv_pos_site_id
 _symmetry_equiv_pos_as_xyz
  1  'x, y, z'
loop_
 _atom_site_type_symbol
 _atom_site_label
 _atom_site_symmetry_multiplicity
 _atom_site_fract_x
 _atom_site_fract_y
 _atom_site_fract_z
 _atom_site_occupancy
  Au  Au0  1  0.32069457  0.00440982  0.09281240  1.0
  Au  Au1  1  0.32069457  0.33774315  0.09281240  1.0
  Au  Au2  1  0.32069457  0.67107649  0.09281240  1.0
  Au  Au3  1  0.65402791  0.00440982  0.09281240  1.0
  Au  Au4  1  0.65402791  0.33774315  0.09281240  1.0
  Au  Au5  1  0.65402791  0.67107649  0.09281240  1.0
  Au  Au6  1  0.98736124  0.00440982  0.09281240  1.0
  Au  Au7  1  0.98736124  0.33774315  0.09281240  1.0
  Au  Au8  1  0.98736124  0.67107649  0.09281240  1.0
  Au  Au9  1  0.06143531  0.22663204  0.03725685  1.0
  Au  Au10  1  0.06143531  0.55996537  0.03725685  1.0
  Au  Au11  1  0.06143531  0.89329871  0.03725685  1.0
  Au  Au12  1  0.39476865  0.22663204  0.03725685  1.0
  Au  Au13  1  0.39476865  0.55996537  0.03725685  1.0
  Au  Au14  1  0.39476865  0.89329871  0.03725685  1.0
  Au  Au15  1  0.72810198  0.22663204  0.03725685  1.0
  Au  Au16  1  0.72810198  0.55996537  0.03725685  1.0
  Au  Au17  1  0.72810198  0.89329871  0.03725685  1.0
  Au  Au18  1  0.08612667  0.13403945  0.10207166  1.0
  Au  Au19  1  0.08612667  0.46737278  0.10207166  1.0
  Au  Au20  1  0.08612667  0.80070612  0.10207166  1.0
  Au  Au21  1  0.41946001  0.13403945  0.10207166  1.0
  Au  Au22  1  0.41946001  0.46737278  0.10207166  1.0
  Au  Au23  1  0.41946001  0.80070612  0.10207166  1.0
  Au  Au24  1  0.75279334  0.13403945  0.10207166  1.0
  Au  Au25  1  0.75279334  0.46737278  0.10207166  1.0
  Au  Au26  1  0.75279334  0.80070612  0.10207166  1.0
  Au  Au27  1  0.16020075  0.02292834  0.04651611  1.0
  Au  Au28  1  0.16020075  0.35626167  0.04651611  1.0
  Au  Au29  1  0.16020075  0.68959500  0.04651611  1.0
  Au  Au30  1  0.49353408  0.02292834  0.04651611  1.0
  Au  Au31  1  0.49353408  0.35626167  0.04651611  1.0
  Au  Au32  1  0.49353408  0.68959500  0.04651611  1.0
  Au  Au33  1  0.82686741  0.02292834  0.04651611  1.0
  Au  Au34  1  0.82686741  0.35626167  0.04651611  1.0
  Au  Au35  1  0.82686741  0.68959500  0.04651611  1.0
  Au  Au36  1  0.17254643  0.22663204  0.20392351  1.0
  Au  Au37  1  0.17254643  0.55996537  0.20392351  1.0
  Au  Au38  1  0.17254643  0.89329871  0.20392351  1.0
  Au  Au39  1  0.50587976  0.22663204  0.20392351  1.0
  Au  Au40  1  0.50587976  0.55996537  0.20392351  1.0
  Au  Au41  1  0.50587976  0.89329871  0.20392351  1.0
  Au  Au42  1  0.83921309  0.22663204  0.20392351  1.0
  Au  Au43  1  0.83921309  0.55996537  0.20392351  1.0
  Au  Au44  1  0.83921309  0.89329871  0.20392351  1.0
  Au  Au45  1  0.24662050  0.11552093  0.14836796  1.0
  Au  Au46  1  0.24662050  0.44885426  0.14836796  1.0
  Au  Au47  1  0.24662050  0.78218760  0.14836796  1.0
  Au  Au48  1  0.57995383  0.11552093  0.14836796  1.0
  Au  Au49  1  0.57995383  0.44885426  0.14836796  1.0
  Au  Au50  1  0.57995383  0.78218760  0.14836796  1.0
  Au  Au51  1  0.91328717  0.11552093  0.14836796  1.0
  Au  Au52  1  0.91328717  0.44885426  0.14836796  1.0
  Au  Au53  1  0.91328717  0.78218760  0.14836796  1.0
  Au  Au54  1  0.27131186  0.02292834  0.21318277  1.0
  Au  Au55  1  0.27131186  0.35626167  0.21318277  1.0
  Au  Au56  1  0.27131186  0.68959500  0.21318277  1.0
  Au  Au57  1  0.60464519  0.02292834  0.21318277  1.0
  Au  Au58  1  0.60464519  0.35626167  0.21318277  1.0
  Au  Au59  1  0.60464519  0.68959500  0.21318277  1.0
  Au  Au60  1  0.93797852  0.02292834  0.21318277  1.0
  Au  Au61  1  0.93797852  0.35626167  0.21318277  1.0
  Au  Au62  1  0.93797852  0.68959500  0.21318277  1.0
  Au  Au63  1  0.01205260  0.24515056  0.15762722  1.0
  Au  Au64  1  0.01205260  0.57848389  0.15762722  1.0
  Au  Au65  1  0.01205260  0.91181723  0.15762722  1.0
  Au  Au66  1  0.34538593  0.24515056  0.15762722  1.0
  Au  Au67  1  0.34538593  0.57848389  0.15762722  1.0
  Au  Au68  1  0.34538593  0.91181723  0.15762722  1.0
  Au  Au69  1  0.67871927  0.24515056  0.15762722  1.0
  Au  Au70  1  0.67871927  0.57848389  0.15762722  1.0
  Au  Au71  1  0.67871927  0.91181723  0.15762722  1.0
  Au  Au72  1  0.02439828  0.11552093  0.31503462  1.0
  Au  Au73  1  0.02439828  0.44885426  0.31503462  1.0
  Au  Au74  1  0.02439828  0.78218760  0.31503463  1.0
  Au  Au75  1  0.35773161  0.11552093  0.31503462  1.0
  Au  Au76  1  0.35773161  0.44885426  0.31503462  1.0
  Au  Au77  1  0.35773161  0.78218760  0.31503462  1.0
  Au  Au78  1  0.69106494  0.11552093  0.31503462  1.0
  Au  Au79  1  0.69106494  0.44885426  0.31503462  1.0
  Au  Au80  1  0.69106494  0.78218760  0.31503462  1.0
  Au  Au81  1  0.09847235  0.00440982  0.25947907  1.0
  Au  Au82  1  0.09847235  0.33774315  0.25947907  1.0
  Au  Au83  1  0.09847235  0.67107649  0.25947907  1.0
  Au  Au84  1  0.43180569  0.00440982  0.25947907  1.0
  Au  Au85  1  0.43180569  0.33774315  0.25947907  1.0
  Au  Au86  1  0.43180569  0.67107649  0.25947907  1.0
  Au  Au87  1  0.76513902  0.00440982  0.25947907  1.0
  Au  Au88  1  0.76513902  0.33774315  0.25947907  1.0
  Au  Au89  1  0.76513902  0.67107649  0.25947907  1.0
  Au  Au90  1  0.12316371  0.24515056  0.32429388  1.0
  Au  Au91  1  0.12316371  0.57848389  0.32429388  1.0
  Au  Au92  1  0.12316371  0.91181723  0.32429388  1.0
  Au  Au93  1  0.45649704  0.24515056  0.32429388  1.0
  Au  Au94  1  0.45649704  0.57848389  0.32429388  1.0
  Au  Au95  1  0.45649704  0.91181723  0.32429388  1.0
  Au  Au96  1  0.78983038  0.24515056  0.32429388  1.0
  Au  Au97  1  0.78983038  0.57848389  0.32429388  1.0
  Au  Au98  1  0.78983038  0.91181723  0.32429388  1.0
  Au  Au99  1  0.19723778  0.13403945  0.26873833  1.0
  Au  Au100  1  0.19723778  0.46737278  0.26873833  1.0
  Au  Au101  1  0.19723778  0.80070612  0.26873833  1.0
  Au  Au102  1  0.53057112  0.13403945  0.26873833  1.0
  Au  Au103  1  0.53057112  0.46737278  0.26873833  1.0
  Au  Au104  1  0.53057112  0.80070612  0.26873833  1.0
  Au  Au105  1  0.86390445  0.13403945  0.26873833  1.0
  Au  Au106  1  0.86390445  0.46737278  0.26873833  1.0
  Au  Au107  1  0.86390445  0.80070612  0.26873833  1.0
  Au  Au108  1  0.20958346  0.00440982  0.42614574  1.0
  Au  Au109  1  0.20958346  0.33774315  0.42614574  1.0
  Au  Au110  1  0.20958346  0.67107649  0.42614574  1.0
  Au  Au111  1  0.54291680  0.00440982  0.42614574  1.0
  Au  Au112  1  0.54291680  0.33774315  0.42614574  1.0
  Au  Au113  1  0.54291680  0.67107649  0.42614574  1.0
  Au  Au114  1  0.87625013  0.00440982  0.42614574  1.0
  Au  Au115  1  0.87625013  0.33774315  0.42614574  1.0
  Au  Au116  1  0.87625013  0.67107649  0.42614574  1.0
  Au  Au117  1  0.28365754  0.22663204  0.37059018  1.0
  Au  Au118  1  0.28365754  0.55996537  0.37059018  1.0
  Au  Au119  1  0.28365754  0.89329871  0.37059018  1.0
  Au  Au120  1  0.61699087  0.22663204  0.37059018  1.0
  Au  Au121  1  0.61699087  0.55996537  0.37059018  1.0
  Au  Au122  1  0.61699087  0.89329871  0.37059018  1.0
  Au  Au123  1  0.95032420  0.22663204  0.37059018  1.0
  Au  Au124  1  0.95032420  0.55996537  0.37059018  1.0
  Au  Au125  1  0.95032420  0.89329871  0.37059018  1.0
  Au  Au126  1  0.30834890  0.13403945  0.43540500  1.0
  Au  Au127  1  0.30834890  0.46737278  0.43540500  1.0
  Au  Au128  1  0.30834890  0.80070612  0.43540500  1.0
  Au  Au129  1  0.64168223  0.13403945  0.43540500  1.0
  Au  Au130  1  0.64168223  0.46737278  0.43540500  1.0
  Au  Au131  1  0.64168223  0.80070612  0.43540500  1.0
  Au  Au132  1  0.97501556  0.13403945  0.43540500  1.0
  Au  Au133  1  0.97501556  0.46737278  0.43540500  1.0
  Au  Au134  1  0.97501556  0.80070612  0.43540500  1.0
  Au  Au135  1  0.04908964  0.02292834  0.37984944  1.0
  Au  Au136  1  0.04908964  0.35626167  0.37984944  1.0
  Au  Au137  1  0.04908964  0.68959500  0.37984944  1.0
  Au  Au138  1  0.38242297  0.02292834  0.37984944  1.0
  Au  Au139  1  0.38242297  0.35626167  0.37984944  1.0
  Au  Au140  1  0.38242297  0.68959500  0.37984944  1.0
  Au  Au141  1  0.71575630  0.02292834  0.37984944  1.0
  Au  Au142  1  0.71575630  0.35626167  0.37984944  1.0
  Au  Au143  1  0.71575630  0.68959500  0.37984944  1.0
  Ni  Ni144  1  0.29012346  0.07936313  0.07209578  1.0
  Ni  Ni145  1  0.29012346  0.41269647  0.07209578  1.0
  Ni  Ni146  1  0.29012346  0.74602980  0.07209578  1.0
  Ni  Ni147  1  0.62345679  0.07936313  0.07209578  1.0
  Ni  Ni148  1  0.62345679  0.41269647  0.07209578  1.0
  Ni  Ni149  1  0.62345679  0.74602980  0.07209578  1.0
  Ni  Ni150  1  0.95679012  0.07936313  0.07209578  1.0
  Ni  Ni151  1  0.95679012  0.41269647  0.07209578  1.0
  Ni  Ni152  1  0.95679012  0.74602980  0.07209578  1.0
  Ni  Ni153  1  0.03086420  0.30158536  0.01654023  1.0
  Ni  Ni154  1  0.03086420  0.63491869  0.01654023  1.0
  Ni  Ni155  1  0.03086420  0.96825202  0.01654023  1.0
  Ni  Ni156  1  0.36419753  0.30158536  0.01654023  1.0
  Ni  Ni157  1  0.36419753  0.63491869  0.01654023  1.0
  Ni  Ni158  1  0.36419753  0.96825202  0.01654023  1.0
  Ni  Ni159  1  0.69753086  0.30158536  0.01654023  1.0
  Ni  Ni160  1  0.69753086  0.63491869  0.01654023  1.0
  Ni  Ni161  1  0.69753086  0.96825202  0.01654023  1.0
  Ni  Ni162  1  0.02734723  0.13228097  0.01917795  1.0
  Ni  Ni163  1  0.02734723  0.46561430  0.01917795  1.0
  Ni  Ni164  1  0.02734723  0.79894763  0.01917795  1.0
  Ni  Ni165  1  0.36068057  0.13228097  0.01917795  1.0
  Ni  Ni166  1  0.36068057  0.46561430  0.01917795  1.0
  Ni  Ni167  1  0.36068057  0.79894763  0.01917795  1.0
  Ni  Ni168  1  0.69401390  0.13228097  0.01917795  1.0
  Ni  Ni169  1  0.69401390  0.46561430  0.01917795  1.0
  Ni  Ni170  1  0.69401390  0.79894763  0.01917795  1.0
  Ni  Ni171  1  0.28660649  0.24339208  0.07473350  1.0
  Ni  Ni172  1  0.28660649  0.57672541  0.07473350  1.0
  Ni  Ni173  1  0.28660649  0.91005875  0.07473350  1.0
  Ni  Ni174  1  0.61993983  0.24339208  0.07473350  1.0
  Ni  Ni175  1  0.61993983  0.57672541  0.07473350  1.0
  Ni  Ni176  1  0.61993983  0.91005875  0.07473350  1.0
  Ni  Ni177  1  0.95327316  0.24339208  0.07473350  1.0
  Ni  Ni178  1  0.95327316  0.57672541  0.07473350  1.0
  Ni  Ni179  1  0.95327316  0.91005875  0.07473350  1.0
  Ni  Ni180  1  0.16313155  0.19047425  0.04827459  1.0
  Ni  Ni181  1  0.16313155  0.52380758  0.04827459  1.0
  Ni  Ni182  1  0.16313155  0.85714091  0.04827459  1.0
  Ni  Ni183  1  0.49646488  0.19047425  0.04827459  1.0
  Ni  Ni184  1  0.49646488  0.52380758  0.04827459  1.0
  Ni  Ni185  1  0.49646488  0.85714091  0.04827459  1.0
  Ni  Ni186  1  0.82979822  0.19047425  0.04827459  1.0
  Ni  Ni187  1  0.82979822  0.52380758  0.04827459  1.0
  Ni  Ni188  1  0.82979822  0.85714091  0.04827459  1.0
  Ni  Ni189  1  0.08905748  0.30158536  0.10383014  1.0
  Ni  Ni190  1  0.08905748  0.63491869  0.10383014  1.0
  Ni  Ni191  1  0.08905748  0.96825202  0.10383014  1.0
  Ni  Ni192  1  0.42239081  0.30158536  0.10383014  1.0
  Ni  Ni193  1  0.42239081  0.63491869  0.10383014  1.0
  Ni  Ni194  1  0.42239081  0.96825202  0.10383014  1.0
  Ni  Ni195  1  0.75572414  0.30158536  0.10383014  1.0
  Ni  Ni196  1  0.75572414  0.63491869  0.10383014  1.0
  Ni  Ni197  1  0.75572414  0.96825202  0.10383014  1.0
  Ni  Ni198  1  0.26484594  0.17019725  0.01167717  1.0
  Ni  Ni199  1  0.26484594  0.50353058  0.01167717  1.0
  Ni  Ni200  1  0.26484594  0.83686391  0.01167717  1.0
  Ni  Ni201  1  0.59817927  0.17019725  0.01167717  1.0
  Ni  Ni202  1  0.59817927  0.50353058  0.01167717  1.0
  Ni  Ni203  1  0.59817927  0.83686391  0.01167717  1.0
  Ni  Ni204  1  0.93151260  0.17019725  0.01167717  1.0
  Ni  Ni205  1  0.93151260  0.50353058  0.01167717  1.0
  Ni  Ni206  1  0.93151260  0.83686391  0.01167717  1.0
  Ni  Ni207  1  0.19077186  0.28130836  0.06723273  1.0
  Ni  Ni208  1  0.19077186  0.61464169  0.06723273  1.0
  Ni  Ni209  1  0.19077186  0.94797502  0.06723273  1.0
  Ni  Ni210  1  0.52410520  0.28130836  0.06723273  1.0
  Ni  Ni211  1  0.52410520  0.61464169  0.06723273  1.0
  Ni  Ni212  1  0.52410520  0.94797502  0.06723273  1.0
  Ni  Ni213  1  0.85743853  0.28130836  0.06723273  1.0
  Ni  Ni214  1  0.85743853  0.61464169  0.06723273  1.0
  Ni  Ni215  1  0.85743853  0.94797502  0.06723273  1.0
  Ni  Ni216  1  0.19428883  0.11727941  0.06459500  1.0
  Ni  Ni217  1  0.19428883  0.45061275  0.06459500  1.0
  Ni  Ni218  1  0.19428883  0.78394608  0.06459500  1.0
  Ni  Ni219  1  0.52762216  0.11727941  0.06459500  1.0
  Ni  Ni220  1  0.52762216  0.45061275  0.06459500  1.0
  Ni  Ni221  1  0.52762216  0.78394608  0.06459500  1.0
  Ni  Ni222  1  0.86095549  0.11727941  0.06459500  1.0
  Ni  Ni223  1  0.86095549  0.45061275  0.06459500  1.0
  Ni  Ni224  1  0.86095549  0.78394608  0.06459500  1.0
  Ni  Ni225  1  0.26836290  0.00616830  0.00903945  1.0
  Ni  Ni226  1  0.26836290  0.33950163  0.00903945  1.0
  Ni  Ni227  1  0.26836290  0.67283497  0.00903945  1.0
  Ni  Ni228  1  0.60169623  0.00616830  0.00903945  1.0
  Ni  Ni229  1  0.60169623  0.33950163  0.00903945  1.0
  Ni  Ni230  1  0.60169623  0.67283497  0.00903945  1.0
  Ni  Ni231  1  0.93502957  0.00616830  0.00903945  1.0
  Ni  Ni232  1  0.93502957  0.33950163  0.00903945  1.0
  Ni  Ni233  1  0.93502957  0.67283497  0.00903945  1.0
  Ni  Ni234  1  0.05850451  0.05908613  0.03549837  1.0
  Ni  Ni235  1  0.05850451  0.39241947  0.03549837  1.0
  Ni  Ni236  1  0.05850451  0.72575280  0.03549837  1.0
  Ni  Ni237  1  0.39183785  0.05908613  0.03549837  1.0
  Ni  Ni238  1  0.39183785  0.39241947  0.03549837  1.0
  Ni  Ni239  1  0.39183785  0.72575280  0.03549837  1.0
  Ni  Ni240  1  0.72517118  0.05908613  0.03549837  1.0
  Ni  Ni241  1  0.72517118  0.39241947  0.03549837  1.0
  Ni  Ni242  1  0.72517118  0.72575280  0.03549837  1.0
  Ni  Ni243  1  0.31776377  0.17019725  0.09105392  1.0
  Ni  Ni244  1  0.31776377  0.50353058  0.09105392  1.0
  Ni  Ni245  1  0.31776377  0.83686391  0.09105392  1.0
  Ni  Ni246  1  0.65109710  0.17019725  0.09105392  1.0
  Ni  Ni247  1  0.65109710  0.50353058  0.09105392  1.0
  Ni  Ni248  1  0.65109710  0.83686391  0.09105392  1.0
  Ni  Ni249  1  0.98443044  0.17019725  0.09105392  1.0
  Ni  Ni250  1  0.98443044  0.50353058  0.09105392  1.0
  Ni  Ni251  1  0.98443044  0.83686391  0.09105392  1.0
  Ni  Ni252  1  0.14197531  0.30158536  0.18320689  1.0
  Ni  Ni253  1  0.14197531  0.63491869  0.18320689  1.0
  Ni  Ni254  1  0.14197531  0.96825202  0.18320689  1.0
  Ni  Ni255  1  0.47530864  0.30158536  0.18320689  1.0
  Ni  Ni256  1  0.47530864  0.63491869  0.18320689  1.0
  Ni  Ni257  1  0.47530864  0.96825202  0.18320689  1.0
  Ni  Ni258  1  0.80864198  0.30158536  0.18320689  1.0
  Ni  Ni259  1  0.80864198  0.63491869  0.18320689  1.0
  Ni  Ni260  1  0.80864198  0.96825202  0.18320689  1.0
  Ni  Ni261  1  0.21604938  0.19047425  0.12765134  1.0
  Ni  Ni262  1  0.21604938  0.52380758  0.12765134  1.0
  Ni  Ni263  1  0.21604938  0.85714091  0.12765134  1.0
  Ni  Ni264  1  0.54938272  0.19047425  0.12765134  1.0
  Ni  Ni265  1  0.54938272  0.52380758  0.12765134  1.0
  Ni  Ni266  1  0.54938272  0.85714091  0.12765134  1.0
  Ni  Ni267  1  0.88271605  0.19047425  0.12765134  1.0
  Ni  Ni268  1  0.88271605  0.52380758  0.12765134  1.0
  Ni  Ni269  1  0.88271605  0.85714091  0.12765134  1.0
  Ni  Ni270  1  0.21253242  0.02116986  0.13028906  1.0
  Ni  Ni271  1  0.21253242  0.35450319  0.13028906  1.0
  Ni  Ni272  1  0.21253242  0.68783652  0.13028906  1.0
  Ni  Ni273  1  0.54586575  0.02116986  0.13028906  1.0
  Ni  Ni274  1  0.54586575  0.35450319  0.13028906  1.0
  Ni  Ni275  1  0.54586575  0.68783652  0.13028906  1.0
  Ni  Ni276  1  0.87919909  0.02116986  0.13028906  1.0
  Ni  Ni277  1  0.87919909  0.35450319  0.13028906  1.0
  Ni  Ni278  1  0.87919909  0.68783652  0.13028906  1.0
  Ni  Ni279  1  0.13845835  0.13228097  0.18584462  1.0
  Ni  Ni280  1  0.13845835  0.46561430  0.18584462  1.0
  Ni  Ni281  1  0.13845835  0.79894763  0.18584462  1.0
  Ni  Ni282  1  0.47179168  0.13228097  0.18584462  1.0
  Ni  Ni283  1  0.47179168  0.46561430  0.18584462  1.0
  Ni  Ni284  1  0.47179168  0.79894763  0.18584462  1.0
  Ni  Ni285  1  0.80512501  0.13228097  0.18584462  1.0
  Ni  Ni286  1  0.80512501  0.46561430  0.18584462  1.0
  Ni  Ni287  1  0.80512501  0.79894763  0.18584462  1.0
  Ni  Ni288  1  0.01498340  0.07936313  0.15938570  1.0
  Ni  Ni289  1  0.01498340  0.41269647  0.15938570  1.0
  Ni  Ni290  1  0.01498340  0.74602980  0.15938570  1.0
  Ni  Ni291  1  0.34831673  0.07936313  0.15938570  1.0
  Ni  Ni292  1  0.34831673  0.41269647  0.15938570  1.0
  Ni  Ni293  1  0.34831673  0.74602980  0.15938570  1.0
  Ni  Ni294  1  0.68165007  0.07936313  0.15938570  1.0
  Ni  Ni295  1  0.68165007  0.41269647  0.15938570  1.0
  Ni  Ni296  1  0.68165007  0.74602980  0.15938570  1.0
  Ni  Ni297  1  0.27424266  0.19047425  0.21494125  1.0
  Ni  Ni298  1  0.27424266  0.52380758  0.21494125  1.0
  Ni  Ni299  1  0.27424266  0.85714091  0.21494125  1.0
  Ni  Ni300  1  0.60757599  0.19047425  0.21494125  1.0
  Ni  Ni301  1  0.60757599  0.52380758  0.21494125  1.0
  Ni  Ni302  1  0.60757599  0.85714091  0.21494125  1.0
  Ni  Ni303  1  0.94090933  0.19047425  0.21494125  1.0
  Ni  Ni304  1  0.94090933  0.52380758  0.21494125  1.0
  Ni  Ni305  1  0.94090933  0.85714091  0.21494125  1.0
  Ni  Ni306  1  0.11669779  0.05908613  0.12278828  1.0
  Ni  Ni307  1  0.11669779  0.39241947  0.12278828  1.0
  Ni  Ni308  1  0.11669779  0.72575280  0.12278828  1.0
  Ni  Ni309  1  0.45003112  0.05908613  0.12278828  1.0
  Ni  Ni310  1  0.45003112  0.39241947  0.12278828  1.0
  Ni  Ni311  1  0.45003112  0.72575280  0.12278828  1.0
  Ni  Ni312  1  0.78336446  0.05908613  0.12278828  1.0
  Ni  Ni313  1  0.78336446  0.39241947  0.12278828  1.0
  Ni  Ni314  1  0.78336446  0.72575280  0.12278828  1.0
  Ni  Ni315  1  0.04262372  0.17019725  0.17834384  1.0
  Ni  Ni316  1  0.04262372  0.50353058  0.17834384  1.0
  Ni  Ni317  1  0.04262372  0.83686391  0.17834384  1.0
  Ni  Ni318  1  0.37595705  0.17019725  0.17834384  1.0
  Ni  Ni319  1  0.37595705  0.50353058  0.17834384  1.0
  Ni  Ni320  1  0.37595705  0.83686391  0.17834384  1.0
  Ni  Ni321  1  0.70929038  0.17019725  0.17834384  1.0
  Ni  Ni322  1  0.70929038  0.50353058  0.17834384  1.0
  Ni  Ni323  1  0.70929038  0.83686391  0.17834384  1.0
  Ni  Ni324  1  0.04614068  0.00616830  0.17570612  1.0
  Ni  Ni325  1  0.04614068  0.33950163  0.17570612  1.0
  Ni  Ni326  1  0.04614068  0.67283497  0.17570612  1.0
  Ni  Ni327  1  0.37947401  0.00616830  0.17570612  1.0
  Ni  Ni328  1  0.37947401  0.33950163  0.17570612  1.0
  Ni  Ni329  1  0.37947401  0.67283497  0.17570612  1.0
  Ni  Ni330  1  0.71280735  0.00616830  0.17570612  1.0
  Ni  Ni331  1  0.71280735  0.33950163  0.17570612  1.0
  Ni  Ni332  1  0.71280735  0.67283497  0.17570612  1.0
  Ni  Ni333  1  0.12021475  0.22839052  0.12015056  1.0
  Ni  Ni334  1  0.12021475  0.56172386  0.12015056  1.0
  Ni  Ni335  1  0.12021475  0.89505719  0.12015056  1.0
  Ni  Ni336  1  0.45354809  0.22839052  0.12015056  1.0
  Ni  Ni337  1  0.45354809  0.56172386  0.12015056  1.0
  Ni  Ni338  1  0.45354809  0.89505719  0.12015056  1.0
  Ni  Ni339  1  0.78688142  0.22839052  0.12015056  1.0
  Ni  Ni340  1  0.78688142  0.56172386  0.12015056  1.0
  Ni  Ni341  1  0.78688142  0.89505719  0.12015056  1.0
  Ni  Ni342  1  0.24368970  0.28130836  0.14660948  1.0
  Ni  Ni343  1  0.24368970  0.61464169  0.14660948  1.0
  Ni  Ni344  1  0.24368970  0.94797502  0.14660948  1.0
  Ni  Ni345  1  0.57702303  0.28130836  0.14660948  1.0
  Ni  Ni346  1  0.57702303  0.61464169  0.14660948  1.0
  Ni  Ni347  1  0.57702303  0.94797502  0.14660948  1.0
  Ni  Ni348  1  0.91035636  0.28130836  0.14660948  1.0
  Ni  Ni349  1  0.91035636  0.61464169  0.14660948  1.0
  Ni  Ni350  1  0.91035636  0.94797502  0.14660948  1.0
  Ni  Ni351  1  0.16961562  0.05908613  0.20216503  1.0
  Ni  Ni352  1  0.16961562  0.39241947  0.20216503  1.0
  Ni  Ni353  1  0.16961562  0.72575280  0.20216503  1.0
  Ni  Ni354  1  0.50294896  0.05908613  0.20216503  1.0
  Ni  Ni355  1  0.50294896  0.39241947  0.20216503  1.0
  Ni  Ni356  1  0.50294896  0.72575280  0.20216503  1.0
  Ni  Ni357  1  0.83628229  0.05908613  0.20216503  1.0
  Ni  Ni358  1  0.83628229  0.39241947  0.20216503  1.0
  Ni  Ni359  1  0.83628229  0.72575280  0.20216503  1.0
  Ni  Ni360  1  0.32716049  0.19047425  0.29431800  1.0
  Ni  Ni361  1  0.32716049  0.52380758  0.29431800  1.0
  Ni  Ni362  1  0.32716049  0.85714091  0.29431800  1.0
  Ni  Ni363  1  0.66049383  0.19047425  0.29431800  1.0
  Ni  Ni364  1  0.66049383  0.52380758  0.29431800  1.0
  Ni  Ni365  1  0.66049383  0.85714091  0.29431800  1.0
  Ni  Ni366  1  0.99382716  0.19047425  0.29431800  1.0
  Ni  Ni367  1  0.99382716  0.52380758  0.29431800  1.0
  Ni  Ni368  1  0.99382716  0.85714091  0.29431800  1.0
  Ni  Ni369  1  0.06790123  0.07936313  0.23876245  1.0
  Ni  Ni370  1  0.06790123  0.41269647  0.23876245  1.0
  Ni  Ni371  1  0.06790123  0.74602980  0.23876245  1.0
  Ni  Ni372  1  0.40123457  0.07936313  0.23876245  1.0
  Ni  Ni373  1  0.40123457  0.41269647  0.23876245  1.0
  Ni  Ni374  1  0.40123457  0.74602980  0.23876245  1.0
  Ni  Ni375  1  0.73456790  0.07936313  0.23876245  1.0
  Ni  Ni376  1  0.73456790  0.41269647  0.23876245  1.0
  Ni  Ni377  1  0.73456790  0.74602980  0.23876245  1.0
  Ni  Ni378  1  0.06438427  0.24339208  0.24140017  1.0
  Ni  Ni379  1  0.06438427  0.57672541  0.24140017  1.0
  Ni  Ni380  1  0.06438427  0.91005875  0.24140017  1.0
  Ni  Ni381  1  0.39771760  0.24339208  0.24140017  1.0
  Ni  Ni382  1  0.39771760  0.57672541  0.24140017  1.0
  Ni  Ni383  1  0.39771760  0.91005875  0.24140017  1.0
  Ni  Ni384  1  0.73105094  0.24339208  0.24140017  1.0
  Ni  Ni385  1  0.73105094  0.57672541  0.24140017  1.0
  Ni  Ni386  1  0.73105094  0.91005875  0.24140017  1.0
  Ni  Ni387  1  0.32364353  0.02116986  0.29695573  1.0
  Ni  Ni388  1  0.32364353  0.35450319  0.29695573  1.0
  Ni  Ni389  1  0.32364353  0.68783652  0.29695573  1.0
  Ni  Ni390  1  0.65697686  0.02116986  0.29695573  1.0
  Ni  Ni391  1  0.65697686  0.35450319  0.29695573  1.0
  Ni  Ni392  1  0.65697686  0.68783652  0.29695573  1.0
  Ni  Ni393  1  0.99031020  0.02116986  0.29695573  1.0
  Ni  Ni394  1  0.99031020  0.35450319  0.29695573  1.0
  Ni  Ni395  1  0.99031020  0.68783652  0.29695573  1.0
  Ni  Ni396  1  0.20016859  0.30158536  0.27049681  1.0
  Ni  Ni397  1  0.20016859  0.63491869  0.27049681  1.0
  Ni  Ni398  1  0.20016859  0.96825202  0.27049681  1.0
  Ni  Ni399  1  0.53350192  0.30158536  0.27049681  1.0
  Ni  Ni400  1  0.53350192  0.63491869  0.27049681  1.0
  Ni  Ni401  1  0.53350192  0.96825202  0.27049681  1.0
  Ni  Ni402  1  0.86683525  0.30158536  0.27049681  1.0
  Ni  Ni403  1  0.86683525  0.63491869  0.27049681  1.0
  Ni  Ni404  1  0.86683525  0.96825202  0.27049681  1.0
  Ni  Ni405  1  0.12609451  0.07936313  0.32605237  1.0
  Ni  Ni406  1  0.12609451  0.41269647  0.32605237  1.0
  Ni  Ni407  1  0.12609451  0.74602980  0.32605237  1.0
  Ni  Ni408  1  0.45942785  0.07936313  0.32605237  1.0
  Ni  Ni409  1  0.45942785  0.41269647  0.32605237  1.0
  Ni  Ni410  1  0.45942785  0.74602980  0.32605237  1.0
  Ni  Ni411  1  0.79276118  0.07936313  0.32605237  1.0
  Ni  Ni412  1  0.79276118  0.41269647  0.32605237  1.0
  Ni  Ni413  1  0.79276118  0.74602980  0.32605237  1.0
  Ni  Ni414  1  0.30188298  0.28130836  0.23389939  1.0
  Ni  Ni415  1  0.30188298  0.61464169  0.23389939  1.0
  Ni  Ni416  1  0.30188298  0.94797502  0.23389939  1.0
  Ni  Ni417  1  0.63521631  0.28130836  0.23389939  1.0
  Ni  Ni418  1  0.63521631  0.61464169  0.23389939  1.0
  Ni  Ni419  1  0.63521631  0.94797502  0.23389939  1.0
  Ni  Ni420  1  0.96854964  0.28130836  0.23389939  1.0
  Ni  Ni421  1  0.96854964  0.61464169  0.23389939  1.0
  Ni  Ni422  1  0.96854964  0.94797502  0.23389939  1.0
  Ni  Ni423  1  0.22780890  0.05908613  0.28945495  1.0
  Ni  Ni424  1  0.22780890  0.39241947  0.28945495  1.0
  Ni  Ni425  1  0.22780890  0.72575280  0.28945495  1.0
  Ni  Ni426  1  0.56114223  0.05908613  0.28945495  1.0
  Ni  Ni427  1  0.56114223  0.39241947  0.28945495  1.0
  Ni  Ni428  1  0.56114223  0.72575280  0.28945495  1.0
  Ni  Ni429  1  0.89447557  0.05908613  0.28945495  1.0
  Ni  Ni430  1  0.89447557  0.39241947  0.28945495  1.0
  Ni  Ni431  1  0.89447557  0.72575280  0.28945495  1.0
  Ni  Ni432  1  0.23132586  0.22839052  0.28681723  1.0
  Ni  Ni433  1  0.23132586  0.56172386  0.28681723  1.0
  Ni  Ni434  1  0.23132586  0.89505719  0.28681723  1.0
  Ni  Ni435  1  0.56465920  0.22839052  0.28681723  1.0
  Ni  Ni436  1  0.56465920  0.56172386  0.28681723  1.0
  Ni  Ni437  1  0.56465920  0.89505719  0.28681723  1.0
  Ni  Ni438  1  0.89799253  0.22839052  0.28681723  1.0
  Ni  Ni439  1  0.89799253  0.56172386  0.28681723  1.0
  Ni  Ni440  1  0.89799253  0.89505719  0.28681723  1.0
  Ni  Ni441  1  0.30539994  0.11727941  0.23126167  1.0
  Ni  Ni442  1  0.30539994  0.45061275  0.23126167  1.0
  Ni  Ni443  1  0.30539994  0.78394608  0.23126167  1.0
  Ni  Ni444  1  0.63873327  0.11727941  0.23126167  1.0
  Ni  Ni445  1  0.63873327  0.45061275  0.23126167  1.0
  Ni  Ni446  1  0.63873327  0.78394608  0.23126167  1.0
  Ni  Ni447  1  0.97206660  0.11727941  0.23126167  1.0
  Ni  Ni448  1  0.97206660  0.45061275  0.23126167  1.0
  Ni  Ni449  1  0.97206660  0.78394608  0.23126167  1.0
  Ni  Ni450  1  0.09554155  0.17019725  0.25772059  1.0
  Ni  Ni451  1  0.09554155  0.50353058  0.25772059  1.0
  Ni  Ni452  1  0.09554155  0.83686391  0.25772059  1.0
  Ni  Ni453  1  0.42887488  0.17019725  0.25772059  1.0
  Ni  Ni454  1  0.42887488  0.50353058  0.25772059  1.0
  Ni  Ni455  1  0.42887488  0.83686391  0.25772059  1.0
  Ni  Ni456  1  0.76220822  0.17019725  0.25772059  1.0
  Ni  Ni457  1  0.76220822  0.50353058  0.25772059  1.0
  Ni  Ni458  1  0.76220822  0.83686391  0.25772059  1.0
  Ni  Ni459  1  0.02146748  0.28130836  0.31327614  1.0
  Ni  Ni460  1  0.02146748  0.61464169  0.31327614  1.0
  Ni  Ni461  1  0.02146748  0.94797502  0.31327614  1.0
  Ni  Ni462  1  0.35480081  0.28130836  0.31327614  1.0
  Ni  Ni463  1  0.35480081  0.61464169  0.31327614  1.0
  Ni  Ni464  1  0.35480081  0.94797502  0.31327614  1.0
  Ni  Ni465  1  0.68813414  0.28130836  0.31327614  1.0
  Ni  Ni466  1  0.68813414  0.61464169  0.31327614  1.0
  Ni  Ni467  1  0.68813414  0.94797502  0.31327614  1.0
  Ni  Ni468  1  0.17901235  0.07936313  0.40542912  1.0
  Ni  Ni469  1  0.17901235  0.41269647  0.40542912  1.0
  Ni  Ni470  1  0.17901235  0.74602980  0.40542912  1.0
  Ni  Ni471  1  0.51234568  0.07936313  0.40542912  1.0
  Ni  Ni472  1  0.51234568  0.41269647  0.40542912  1.0
  Ni  Ni473  1  0.51234568  0.74602980  0.40542912  1.0
  Ni  Ni474  1  0.84567901  0.07936313  0.40542912  1.0
  Ni  Ni475  1  0.84567901  0.41269647  0.40542912  1.0
  Ni  Ni476  1  0.84567901  0.74602980  0.40542912  1.0
  Ni  Ni477  1  0.25308642  0.30158536  0.34987356  1.0
  Ni  Ni478  1  0.25308642  0.63491869  0.34987356  1.0
  Ni  Ni479  1  0.25308642  0.96825202  0.34987356  1.0
  Ni  Ni480  1  0.58641975  0.30158536  0.34987356  1.0
  Ni  Ni481  1  0.58641975  0.63491869  0.34987356  1.0
  Ni  Ni482  1  0.58641975  0.96825202  0.34987356  1.0
  Ni  Ni483  1  0.91975309  0.30158536  0.34987356  1.0
  Ni  Ni484  1  0.91975309  0.63491869  0.34987356  1.0
  Ni  Ni485  1  0.91975309  0.96825202  0.34987356  1.0
  Ni  Ni486  1  0.24956946  0.13228097  0.35251128  1.0
  Ni  Ni487  1  0.24956946  0.46561430  0.35251128  1.0
  Ni  Ni488  1  0.24956946  0.79894763  0.35251128  1.0
  Ni  Ni489  1  0.58290279  0.13228097  0.35251128  1.0
  Ni  Ni490  1  0.58290279  0.46561430  0.35251128  1.0
  Ni  Ni491  1  0.58290279  0.79894763  0.35251128  1.0
  Ni  Ni492  1  0.91623612  0.13228097  0.35251128  1.0
  Ni  Ni493  1  0.91623612  0.46561430  0.35251128  1.0
  Ni  Ni494  1  0.91623612  0.79894763  0.35251128  1.0
  Ni  Ni495  1  0.17549538  0.24339208  0.40806684  1.0
  Ni  Ni496  1  0.17549538  0.57672541  0.40806684  1.0
  Ni  Ni497  1  0.17549538  0.91005875  0.40806684  1.0
  Ni  Ni498  1  0.50882872  0.24339208  0.40806684  1.0
  Ni  Ni499  1  0.50882872  0.57672541  0.40806684  1.0
  Ni  Ni500  1  0.50882872  0.91005875  0.40806684  1.0
  Ni  Ni501  1  0.84216205  0.24339208  0.40806684  1.0
  Ni  Ni502  1  0.84216205  0.57672541  0.40806684  1.0
  Ni  Ni503  1  0.84216205  0.91005875  0.40806684  1.0
  Ni  Ni504  1  0.05202044  0.19047425  0.38160792  1.0
  Ni  Ni505  1  0.05202044  0.52380758  0.38160792  1.0
  Ni  Ni506  1  0.05202044  0.85714091  0.38160792  1.0
  Ni  Ni507  1  0.38535377  0.19047425  0.38160792  1.0
  Ni  Ni508  1  0.38535377  0.52380758  0.38160792  1.0
  Ni  Ni509  1  0.38535377  0.85714091  0.38160792  1.0
  Ni  Ni510  1  0.71868710  0.19047425  0.38160792  1.0
  Ni  Ni511  1  0.71868710  0.52380758  0.38160792  1.0
  Ni  Ni512  1  0.71868710  0.85714091  0.38160792  1.0
  Ni  Ni513  1  0.31127970  0.30158536  0.43716348  1.0
  Ni  Ni514  1  0.31127970  0.63491869  0.43716348  1.0
  Ni  Ni515  1  0.31127970  0.96825202  0.43716348  1.0
  Ni  Ni516  1  0.64461303  0.30158536  0.43716348  1.0
  Ni  Ni517  1  0.64461303  0.63491869  0.43716348  1.0
  Ni  Ni518  1  0.64461303  0.96825202  0.43716348  1.0
  Ni  Ni519  1  0.97794636  0.30158536  0.43716348  1.0
  Ni  Ni520  1  0.97794636  0.63491869  0.43716348  1.0
  Ni  Ni521  1  0.97794636  0.96825202  0.43716348  1.0
  Ni  Ni522  1  0.15373483  0.17019725  0.34501050  1.0
  Ni  Ni523  1  0.15373483  0.50353058  0.34501050  1.0
  Ni  Ni524  1  0.15373483  0.83686391  0.34501050  1.0
  Ni  Ni525  1  0.48706816  0.17019725  0.34501050  1.0
  Ni  Ni526  1  0.48706816  0.50353058  0.34501050  1.0
  Ni  Ni527  1  0.48706816  0.83686391  0.34501050  1.0
  Ni  Ni528  1  0.82040149  0.17019725  0.34501050  1.0
  Ni  Ni529  1  0.82040149  0.50353058  0.34501050  1.0
  Ni  Ni530  1  0.82040149  0.83686391  0.34501050  1.0
  Ni  Ni531  1  0.07966075  0.28130836  0.40056606  1.0
  Ni  Ni532  1  0.07966075  0.61464169  0.40056606  1.0
  Ni  Ni533  1  0.07966075  0.94797502  0.40056606  1.0
  Ni  Ni534  1  0.41299409  0.28130836  0.40056606  1.0
  Ni  Ni535  1  0.41299409  0.61464169  0.40056606  1.0
  Ni  Ni536  1  0.41299409  0.94797502  0.40056606  1.0
  Ni  Ni537  1  0.74632742  0.28130836  0.40056606  1.0
  Ni  Ni538  1  0.74632742  0.61464169  0.40056606  1.0
  Ni  Ni539  1  0.74632742  0.94797502  0.40056606  1.0
  Ni  Ni540  1  0.08317772  0.11727941  0.39792834  1.0
  Ni  Ni541  1  0.08317772  0.45061275  0.39792834  1.0
  Ni  Ni542  1  0.08317772  0.78394608  0.39792834  1.0
  Ni  Ni543  1  0.41651105  0.11727941  0.39792834  1.0
  Ni  Ni544  1  0.41651105  0.45061275  0.39792834  1.0
  Ni  Ni545  1  0.41651105  0.78394608  0.39792834  1.0
  Ni  Ni546  1  0.74984438  0.11727941  0.39792834  1.0
  Ni  Ni547  1  0.74984438  0.45061275  0.39792834  1.0
  Ni  Ni548  1  0.74984438  0.78394608  0.39792834  1.0
  Ni  Ni549  1  0.15725179  0.00616830  0.34237278  1.0
  Ni  Ni550  1  0.15725179  0.33950163  0.34237278  1.0
  Ni  Ni551  1  0.15725179  0.67283497  0.34237278  1.0
  Ni  Ni552  1  0.49058512  0.00616830  0.34237278  1.0
  Ni  Ni553  1  0.49058512  0.33950163  0.34237278  1.0
  Ni  Ni554  1  0.49058512  0.67283497  0.34237278  1.0
  Ni  Ni555  1  0.82391846  0.00616830  0.34237278  1.0
  Ni  Ni556  1  0.82391846  0.33950163  0.34237278  1.0
  Ni  Ni557  1  0.82391846  0.67283497  0.34237278  1.0
  Ni  Ni558  1  0.28072673  0.05908613  0.36883170  1.0
  Ni  Ni559  1  0.28072673  0.39241947  0.36883170  1.0
  Ni  Ni560  1  0.28072673  0.72575280  0.36883170  1.0
  Ni  Ni561  1  0.61406007  0.05908613  0.36883170  1.0
  Ni  Ni562  1  0.61406007  0.39241947  0.36883170  1.0
  Ni  Ni563  1  0.61406007  0.72575280  0.36883170  1.0
  Ni  Ni564  1  0.94739340  0.05908613  0.36883170  1.0
  Ni  Ni565  1  0.94739340  0.39241947  0.36883170  1.0
  Ni  Ni566  1  0.94739340  0.72575280  0.36883170  1.0
  Ni  Ni567  1  0.20665266  0.17019725  0.42438725  1.0
  Ni  Ni568  1  0.20665266  0.50353058  0.42438725  1.0
  Ni  Ni569  1  0.20665266  0.83686391  0.42438725  1.0
  Ni  Ni570  1  0.53998599  0.17019725  0.42438725  1.0
  Ni  Ni571  1  0.53998599  0.50353058  0.42438725  1.0
  Ni  Ni572  1  0.53998599  0.83686391  0.42438725  1.0
  Ni  Ni573  1  0.87331933  0.17019725  0.42438725  1.0
  Ni  Ni574  1  0.87331933  0.50353058  0.42438725  1.0
  Ni  Ni575  1  0.87331933  0.83686391  0.42438725  1.0
