# generated using pymatgen
data_Ni3Au
_symmetry_space_group_name_H-M   'P 1'
_cell_length_a   15.71548086
_cell_length_b   29.97512622
_cell_length_c   36.66945534
_cell_angle_alpha   121.62005899
_cell_angle_beta   120.00000000
_cell_angle_gamma   74.80279934
_symmetry_Int_Tables_number   1
_chemical_formula_structural   Ni3Au
_chemical_formula_sum   'Ni324 Au108'
_cell_volume   12738.86078723
_cell_formula_units_Z   108
loop_
 _symmetry_equiv_pos_site_id
 _symmetry_equiv_pos_as_xyz
  1  'x, y, z'
loop_
 _atom_site_type_symbol
 _atom_site_label
 _atom_site_symmetry_multiplicity
 _atom_site_fract_x
 _atom_site_fract_y
 _atom_site_fract_z
 _atom_site_occupancy
  Ni  Ni0  1  0.05291783  0.12500000  0.09892957  1.0
  Ni  Ni1  1  0.05291783  0.45833333  0.09892957  1.0
  Ni  Ni2  1  0.05291783  0.79166667  0.09892957  1.0
  Ni  Ni3  1  0.38625117  0.12500000  0.09892957  1.0
  Ni  Ni4  1  0.38625117  0.45833333  0.09892957  1.0
  Ni  Ni5  1  0.38625117  0.79166667  0.09892957  1.0
  Ni  Ni6  1  0.71958450  0.12500000  0.09892957  1.0
  Ni  Ni7  1  0.71958450  0.45833333  0.09892957  1.0
  Ni  Ni8  1  0.71958450  0.79166667  0.09892957  1.0
  Ni  Ni9  1  0.05291783  0.29166667  0.02750100  1.0
  Ni  Ni10  1  0.05291783  0.62500000  0.02750100  1.0
  Ni  Ni11  1  0.05291783  0.95833333  0.02750100  1.0
  Ni  Ni12  1  0.38625117  0.29166667  0.02750100  1.0
  Ni  Ni13  1  0.38625117  0.62500000  0.02750100  1.0
  Ni  Ni14  1  0.38625117  0.95833333  0.02750100  1.0
  Ni  Ni15  1  0.71958450  0.29166667  0.02750100  1.0
  Ni  Ni16  1  0.71958450  0.62500000  0.02750100  1.0
  Ni  Ni17  1  0.71958450  0.95833333  0.02750100  1.0
  Ni  Ni18  1  0.05291783  0.12500000  0.03089236  1.0
  Ni  Ni19  1  0.05291783  0.45833333  0.03089236  1.0
  Ni  Ni20  1  0.05291783  0.79166667  0.03089236  1.0
  Ni  Ni21  1  0.38625117  0.12500000  0.03089236  1.0
  Ni  Ni22  1  0.38625117  0.45833333  0.03089236  1.0
  Ni  Ni23  1  0.38625117  0.79166667  0.03089236  1.0
  Ni  Ni24  1  0.71958450  0.12500000  0.03089236  1.0
  Ni  Ni25  1  0.71958450  0.45833333  0.03089236  1.0
  Ni  Ni26  1  0.71958450  0.79166667  0.03089236  1.0
  Ni  Ni27  1  0.05291783  0.29166667  0.10232093  1.0
  Ni  Ni28  1  0.05291783  0.62500000  0.10232093  1.0
  Ni  Ni29  1  0.05291783  0.95833333  0.10232093  1.0
  Ni  Ni30  1  0.38625117  0.29166667  0.10232093  1.0
  Ni  Ni31  1  0.38625117  0.62500000  0.10232093  1.0
  Ni  Ni32  1  0.38625117  0.95833333  0.10232093  1.0
  Ni  Ni33  1  0.71958450  0.29166667  0.10232093  1.0
  Ni  Ni34  1  0.71958450  0.62500000  0.10232093  1.0
  Ni  Ni35  1  0.71958450  0.95833333  0.10232093  1.0
  Ni  Ni36  1  0.22749767  0.12500000  0.03089236  1.0
  Ni  Ni37  1  0.22749767  0.45833333  0.03089236  1.0
  Ni  Ni38  1  0.22749767  0.79166667  0.03089236  1.0
  Ni  Ni39  1  0.56083100  0.12500000  0.03089236  1.0
  Ni  Ni40  1  0.56083100  0.45833333  0.03089236  1.0
  Ni  Ni41  1  0.56083100  0.79166667  0.03089236  1.0
  Ni  Ni42  1  0.89416433  0.12500000  0.03089236  1.0
  Ni  Ni43  1  0.89416433  0.45833333  0.03089236  1.0
  Ni  Ni44  1  0.89416433  0.79166667  0.03089236  1.0
  Ni  Ni45  1  0.22749767  0.29166667  0.10232093  1.0
  Ni  Ni46  1  0.22749767  0.62500000  0.10232093  1.0
  Ni  Ni47  1  0.22749767  0.95833333  0.10232093  1.0
  Ni  Ni48  1  0.56083100  0.29166667  0.10232093  1.0
  Ni  Ni49  1  0.56083100  0.62500000  0.10232093  1.0
  Ni  Ni50  1  0.56083100  0.95833333  0.10232093  1.0
  Ni  Ni51  1  0.89416433  0.29166667  0.10232093  1.0
  Ni  Ni52  1  0.89416433  0.62500000  0.10232093  1.0
  Ni  Ni53  1  0.89416433  0.95833333  0.10232093  1.0
  Ni  Ni54  1  0.28041550  0.04166667  0.11535614  1.0
  Ni  Ni55  1  0.28041550  0.37500000  0.11535614  1.0
  Ni  Ni56  1  0.28041550  0.70833333  0.11535614  1.0
  Ni  Ni57  1  0.61374883  0.04166667  0.11535614  1.0
  Ni  Ni58  1  0.61374883  0.37500000  0.11535614  1.0
  Ni  Ni59  1  0.61374883  0.70833333  0.11535614  1.0
  Ni  Ni60  1  0.94708217  0.04166667  0.11535614  1.0
  Ni  Ni61  1  0.94708217  0.37500000  0.11535614  1.0
  Ni  Ni62  1  0.94708217  0.70833333  0.11535614  1.0
  Ni  Ni63  1  0.28041550  0.20833333  0.04392757  1.0
  Ni  Ni64  1  0.28041550  0.54166667  0.04392757  1.0
  Ni  Ni65  1  0.28041550  0.87500000  0.04392757  1.0
  Ni  Ni66  1  0.61374883  0.20833333  0.04392757  1.0
  Ni  Ni67  1  0.61374883  0.54166667  0.04392757  1.0
  Ni  Ni68  1  0.61374883  0.87500000  0.04392757  1.0
  Ni  Ni69  1  0.94708217  0.20833333  0.04392757  1.0
  Ni  Ni70  1  0.94708217  0.54166667  0.04392757  1.0
  Ni  Ni71  1  0.94708217  0.87500000  0.04392757  1.0
  Ni  Ni72  1  0.28041550  0.04166667  0.04053621  1.0
  Ni  Ni73  1  0.28041550  0.37500000  0.04053621  1.0
  Ni  Ni74  1  0.28041550  0.70833333  0.04053621  1.0
  Ni  Ni75  1  0.61374883  0.04166667  0.04053621  1.0
  Ni  Ni76  1  0.61374883  0.37500000  0.04053621  1.0
  Ni  Ni77  1  0.61374883  0.70833333  0.04053621  1.0
  Ni  Ni78  1  0.94708217  0.04166667  0.04053621  1.0
  Ni  Ni79  1  0.94708217  0.37500000  0.04053621  1.0
  Ni  Ni80  1  0.94708217  0.70833333  0.04053621  1.0
  Ni  Ni81  1  0.28041550  0.20833333  0.11196479  1.0
  Ni  Ni82  1  0.28041550  0.54166667  0.11196479  1.0
  Ni  Ni83  1  0.28041550  0.87500000  0.11196479  1.0
  Ni  Ni84  1  0.61374883  0.20833333  0.11196479  1.0
  Ni  Ni85  1  0.61374883  0.54166667  0.11196479  1.0
  Ni  Ni86  1  0.61374883  0.87500000  0.11196479  1.0
  Ni  Ni87  1  0.94708217  0.20833333  0.11196479  1.0
  Ni  Ni88  1  0.94708217  0.54166667  0.11196479  1.0
  Ni  Ni89  1  0.94708217  0.87500000  0.11196479  1.0
  Ni  Ni90  1  0.10583567  0.04166667  0.04053621  1.0
  Ni  Ni91  1  0.10583567  0.37500000  0.04053621  1.0
  Ni  Ni92  1  0.10583567  0.70833333  0.04053621  1.0
  Ni  Ni93  1  0.43916900  0.04166667  0.04053621  1.0
  Ni  Ni94  1  0.43916900  0.37500000  0.04053621  1.0
  Ni  Ni95  1  0.43916900  0.70833333  0.04053621  1.0
  Ni  Ni96  1  0.77250233  0.04166667  0.04053621  1.0
  Ni  Ni97  1  0.77250233  0.37500000  0.04053621  1.0
  Ni  Ni98  1  0.77250233  0.70833333  0.04053621  1.0
  Ni  Ni99  1  0.10583567  0.20833333  0.11196479  1.0
  Ni  Ni100  1  0.10583567  0.54166667  0.11196479  1.0
  Ni  Ni101  1  0.10583567  0.87500000  0.11196479  1.0
  Ni  Ni102  1  0.43916900  0.20833333  0.11196479  1.0
  Ni  Ni103  1  0.43916900  0.54166667  0.11196479  1.0
  Ni  Ni104  1  0.43916900  0.87500000  0.11196479  1.0
  Ni  Ni105  1  0.77250233  0.20833333  0.11196479  1.0
  Ni  Ni106  1  0.77250233  0.54166667  0.11196479  1.0
  Ni  Ni107  1  0.77250233  0.87500000  0.11196479  1.0
  Au  Au108  1  0.11111111  0.04166667  0.11309524  1.0
  Au  Au109  1  0.11111111  0.37500000  0.11309524  1.0
  Au  Au110  1  0.11111111  0.70833333  0.11309524  1.0
  Au  Au111  1  0.44444444  0.04166667  0.11309524  1.0
  Au  Au112  1  0.44444444  0.37500000  0.11309524  1.0
  Au  Au113  1  0.44444444  0.70833333  0.11309524  1.0
  Au  Au114  1  0.77777778  0.04166667  0.11309524  1.0
  Au  Au115  1  0.77777778  0.37500000  0.11309524  1.0
  Au  Au116  1  0.77777778  0.70833333  0.11309524  1.0
  Au  Au117  1  0.11111111  0.20833333  0.04166667  1.0
  Au  Au118  1  0.11111111  0.54166667  0.04166667  1.0
  Au  Au119  1  0.11111111  0.87500000  0.04166667  1.0
  Au  Au120  1  0.44444444  0.20833333  0.04166667  1.0
  Au  Au121  1  0.44444444  0.54166667  0.04166667  1.0
  Au  Au122  1  0.44444444  0.87500000  0.04166667  1.0
  Au  Au123  1  0.77777778  0.20833333  0.04166667  1.0
  Au  Au124  1  0.77777778  0.54166667  0.04166667  1.0
  Au  Au125  1  0.77777778  0.87500000  0.04166667  1.0
  Au  Au126  1  0.22222222  0.12500000  0.10119048  1.0
  Au  Au127  1  0.22222222  0.45833333  0.10119048  1.0
  Au  Au128  1  0.22222222  0.79166667  0.10119048  1.0
  Au  Au129  1  0.55555556  0.12500000  0.10119048  1.0
  Au  Au130  1  0.55555556  0.45833333  0.10119048  1.0
  Au  Au131  1  0.55555556  0.79166667  0.10119048  1.0
  Au  Au132  1  0.88888889  0.12500000  0.10119048  1.0
  Au  Au133  1  0.88888889  0.45833333  0.10119048  1.0
  Au  Au134  1  0.88888889  0.79166667  0.10119048  1.0
  Au  Au135  1  0.22222222  0.29166667  0.02976190  1.0
  Au  Au136  1  0.22222222  0.62500000  0.02976190  1.0
  Au  Au137  1  0.22222222  0.95833333  0.02976190  1.0
  Au  Au138  1  0.55555556  0.29166667  0.02976190  1.0
  Au  Au139  1  0.55555556  0.62500000  0.02976190  1.0
  Au  Au140  1  0.55555556  0.95833333  0.02976190  1.0
  Au  Au141  1  0.88888889  0.29166667  0.02976190  1.0
  Au  Au142  1  0.88888889  0.62500000  0.02976190  1.0
  Au  Au143  1  0.88888889  0.95833333  0.02976190  1.0
  Ni  Ni144  1  0.05291783  0.12500000  0.24178671  1.0
  Ni  Ni145  1  0.05291783  0.45833333  0.24178671  1.0
  Ni  Ni146  1  0.05291783  0.79166667  0.24178671  1.0
  Ni  Ni147  1  0.38625117  0.12500000  0.24178671  1.0
  Ni  Ni148  1  0.38625117  0.45833333  0.24178671  1.0
  Ni  Ni149  1  0.38625117  0.79166667  0.24178671  1.0
  Ni  Ni150  1  0.71958450  0.12500000  0.24178671  1.0
  Ni  Ni151  1  0.71958450  0.45833333  0.24178671  1.0
  Ni  Ni152  1  0.71958450  0.79166667  0.24178671  1.0
  Ni  Ni153  1  0.05291783  0.29166667  0.17035814  1.0
  Ni  Ni154  1  0.05291783  0.62500000  0.17035814  1.0
  Ni  Ni155  1  0.05291783  0.95833333  0.17035814  1.0
  Ni  Ni156  1  0.38625117  0.29166667  0.17035814  1.0
  Ni  Ni157  1  0.38625117  0.62500000  0.17035814  1.0
  Ni  Ni158  1  0.38625117  0.95833333  0.17035814  1.0
  Ni  Ni159  1  0.71958450  0.29166667  0.17035814  1.0
  Ni  Ni160  1  0.71958450  0.62500000  0.17035814  1.0
  Ni  Ni161  1  0.71958450  0.95833333  0.17035814  1.0
  Ni  Ni162  1  0.05291783  0.12500000  0.17374950  1.0
  Ni  Ni163  1  0.05291783  0.45833333  0.17374950  1.0
  Ni  Ni164  1  0.05291783  0.79166667  0.17374950  1.0
  Ni  Ni165  1  0.38625117  0.12500000  0.17374950  1.0
  Ni  Ni166  1  0.38625117  0.45833333  0.17374950  1.0
  Ni  Ni167  1  0.38625117  0.79166667  0.17374950  1.0
  Ni  Ni168  1  0.71958450  0.12500000  0.17374950  1.0
  Ni  Ni169  1  0.71958450  0.45833333  0.17374950  1.0
  Ni  Ni170  1  0.71958450  0.79166667  0.17374950  1.0
  Ni  Ni171  1  0.05291783  0.29166667  0.24517807  1.0
  Ni  Ni172  1  0.05291783  0.62500000  0.24517807  1.0
  Ni  Ni173  1  0.05291783  0.95833333  0.24517807  1.0
  Ni  Ni174  1  0.38625117  0.29166667  0.24517807  1.0
  Ni  Ni175  1  0.38625117  0.62500000  0.24517807  1.0
  Ni  Ni176  1  0.38625117  0.95833333  0.24517807  1.0
  Ni  Ni177  1  0.71958450  0.29166667  0.24517807  1.0
  Ni  Ni178  1  0.71958450  0.62500000  0.24517807  1.0
  Ni  Ni179  1  0.71958450  0.95833333  0.24517807  1.0
  Ni  Ni180  1  0.22749767  0.12500000  0.17374950  1.0
  Ni  Ni181  1  0.22749767  0.45833333  0.17374950  1.0
  Ni  Ni182  1  0.22749767  0.79166667  0.17374950  1.0
  Ni  Ni183  1  0.56083100  0.12500000  0.17374950  1.0
  Ni  Ni184  1  0.56083100  0.45833333  0.17374950  1.0
  Ni  Ni185  1  0.56083100  0.79166667  0.17374950  1.0
  Ni  Ni186  1  0.89416433  0.12500000  0.17374950  1.0
  Ni  Ni187  1  0.89416433  0.45833333  0.17374950  1.0
  Ni  Ni188  1  0.89416433  0.79166667  0.17374950  1.0
  Ni  Ni189  1  0.22749767  0.29166667  0.24517807  1.0
  Ni  Ni190  1  0.22749767  0.62500000  0.24517807  1.0
  Ni  Ni191  1  0.22749767  0.95833333  0.24517807  1.0
  Ni  Ni192  1  0.56083100  0.29166667  0.24517807  1.0
  Ni  Ni193  1  0.56083100  0.62500000  0.24517807  1.0
  Ni  Ni194  1  0.56083100  0.95833333  0.24517807  1.0
  Ni  Ni195  1  0.89416433  0.29166667  0.24517807  1.0
  Ni  Ni196  1  0.89416433  0.62500000  0.24517807  1.0
  Ni  Ni197  1  0.89416433  0.95833333  0.24517807  1.0
  Ni  Ni198  1  0.28041550  0.04166667  0.25821329  1.0
  Ni  Ni199  1  0.28041550  0.37500000  0.25821329  1.0
  Ni  Ni200  1  0.28041550  0.70833333  0.25821329  1.0
  Ni  Ni201  1  0.61374883  0.04166667  0.25821329  1.0
  Ni  Ni202  1  0.61374883  0.37500000  0.25821329  1.0
  Ni  Ni203  1  0.61374883  0.70833333  0.25821329  1.0
  Ni  Ni204  1  0.94708217  0.04166667  0.25821329  1.0
  Ni  Ni205  1  0.94708217  0.37500000  0.25821329  1.0
  Ni  Ni206  1  0.94708217  0.70833333  0.25821329  1.0
  Ni  Ni207  1  0.28041550  0.20833333  0.18678471  1.0
  Ni  Ni208  1  0.28041550  0.54166667  0.18678471  1.0
  Ni  Ni209  1  0.28041550  0.87500000  0.18678471  1.0
  Ni  Ni210  1  0.61374883  0.20833333  0.18678471  1.0
  Ni  Ni211  1  0.61374883  0.54166667  0.18678471  1.0
  Ni  Ni212  1  0.61374883  0.87500000  0.18678471  1.0
  Ni  Ni213  1  0.94708217  0.20833333  0.18678471  1.0
  Ni  Ni214  1  0.94708217  0.54166667  0.18678471  1.0
  Ni  Ni215  1  0.94708217  0.87500000  0.18678471  1.0
  Ni  Ni216  1  0.28041550  0.04166667  0.18339336  1.0
  Ni  Ni217  1  0.28041550  0.37500000  0.18339336  1.0
  Ni  Ni218  1  0.28041550  0.70833333  0.18339336  1.0
  Ni  Ni219  1  0.61374883  0.04166667  0.18339336  1.0
  Ni  Ni220  1  0.61374883  0.37500000  0.18339336  1.0
  Ni  Ni221  1  0.61374883  0.70833333  0.18339336  1.0
  Ni  Ni222  1  0.94708217  0.04166667  0.18339336  1.0
  Ni  Ni223  1  0.94708217  0.37500000  0.18339336  1.0
  Ni  Ni224  1  0.94708217  0.70833333  0.18339336  1.0
  Ni  Ni225  1  0.28041550  0.20833333  0.25482193  1.0
  Ni  Ni226  1  0.28041550  0.54166667  0.25482193  1.0
  Ni  Ni227  1  0.28041550  0.87500000  0.25482193  1.0
  Ni  Ni228  1  0.61374883  0.20833333  0.25482193  1.0
  Ni  Ni229  1  0.61374883  0.54166667  0.25482193  1.0
  Ni  Ni230  1  0.61374883  0.87500000  0.25482193  1.0
  Ni  Ni231  1  0.94708217  0.20833333  0.25482193  1.0
  Ni  Ni232  1  0.94708217  0.54166667  0.25482193  1.0
  Ni  Ni233  1  0.94708217  0.87500000  0.25482193  1.0
  Ni  Ni234  1  0.10583567  0.04166667  0.18339336  1.0
  Ni  Ni235  1  0.10583567  0.37500000  0.18339336  1.0
  Ni  Ni236  1  0.10583567  0.70833333  0.18339336  1.0
  Ni  Ni237  1  0.43916900  0.04166667  0.18339336  1.0
  Ni  Ni238  1  0.43916900  0.37500000  0.18339336  1.0
  Ni  Ni239  1  0.43916900  0.70833333  0.18339336  1.0
  Ni  Ni240  1  0.77250233  0.04166667  0.18339336  1.0
  Ni  Ni241  1  0.77250233  0.37500000  0.18339336  1.0
  Ni  Ni242  1  0.77250233  0.70833333  0.18339336  1.0
  Ni  Ni243  1  0.10583567  0.20833333  0.25482193  1.0
  Ni  Ni244  1  0.10583567  0.54166667  0.25482193  1.0
  Ni  Ni245  1  0.10583567  0.87500000  0.25482193  1.0
  Ni  Ni246  1  0.43916900  0.20833333  0.25482193  1.0
  Ni  Ni247  1  0.43916900  0.54166667  0.25482193  1.0
  Ni  Ni248  1  0.43916900  0.87500000  0.25482193  1.0
  Ni  Ni249  1  0.77250233  0.20833333  0.25482193  1.0
  Ni  Ni250  1  0.77250233  0.54166667  0.25482193  1.0
  Ni  Ni251  1  0.77250233  0.87500000  0.25482193  1.0
  Au  Au252  1  0.11111111  0.04166667  0.25595238  1.0
  Au  Au253  1  0.11111111  0.37500000  0.25595238  1.0
  Au  Au254  1  0.11111111  0.70833333  0.25595238  1.0
  Au  Au255  1  0.44444444  0.04166667  0.25595238  1.0
  Au  Au256  1  0.44444444  0.37500000  0.25595238  1.0
  Au  Au257  1  0.44444444  0.70833333  0.25595238  1.0
  Au  Au258  1  0.77777778  0.04166667  0.25595238  1.0
  Au  Au259  1  0.77777778  0.37500000  0.25595238  1.0
  Au  Au260  1  0.77777778  0.70833333  0.25595238  1.0
  Au  Au261  1  0.11111111  0.20833333  0.18452381  1.0
  Au  Au262  1  0.11111111  0.54166667  0.18452381  1.0
  Au  Au263  1  0.11111111  0.87500000  0.18452381  1.0
  Au  Au264  1  0.44444444  0.20833333  0.18452381  1.0
  Au  Au265  1  0.44444444  0.54166667  0.18452381  1.0
  Au  Au266  1  0.44444444  0.87500000  0.18452381  1.0
  Au  Au267  1  0.77777778  0.20833333  0.18452381  1.0
  Au  Au268  1  0.77777778  0.54166667  0.18452381  1.0
  Au  Au269  1  0.77777778  0.87500000  0.18452381  1.0
  Au  Au270  1  0.22222222  0.12500000  0.24404762  1.0
  Au  Au271  1  0.22222222  0.45833333  0.24404762  1.0
  Au  Au272  1  0.22222222  0.79166667  0.24404762  1.0
  Au  Au273  1  0.55555556  0.12500000  0.24404762  1.0
  Au  Au274  1  0.55555556  0.45833333  0.24404762  1.0
  Au  Au275  1  0.55555556  0.79166667  0.24404762  1.0
  Au  Au276  1  0.88888889  0.12500000  0.24404762  1.0
  Au  Au277  1  0.88888889  0.45833333  0.24404762  1.0
  Au  Au278  1  0.88888889  0.79166667  0.24404762  1.0
  Au  Au279  1  0.22222222  0.29166667  0.17261905  1.0
  Au  Au280  1  0.22222222  0.62500000  0.17261905  1.0
  Au  Au281  1  0.22222222  0.95833333  0.17261905  1.0
  Au  Au282  1  0.55555556  0.29166667  0.17261905  1.0
  Au  Au283  1  0.55555556  0.62500000  0.17261905  1.0
  Au  Au284  1  0.55555556  0.95833333  0.17261905  1.0
  Au  Au285  1  0.88888889  0.29166667  0.17261905  1.0
  Au  Au286  1  0.88888889  0.62500000  0.17261905  1.0
  Au  Au287  1  0.88888889  0.95833333  0.17261905  1.0
  Ni  Ni288  1  0.05291783  0.12500000  0.38464386  1.0
  Ni  Ni289  1  0.05291783  0.45833333  0.38464386  1.0
  Ni  Ni290  1  0.05291783  0.79166667  0.38464386  1.0
  Ni  Ni291  1  0.38625117  0.12500000  0.38464386  1.0
  Ni  Ni292  1  0.38625117  0.45833333  0.38464386  1.0
  Ni  Ni293  1  0.38625117  0.79166667  0.38464386  1.0
  Ni  Ni294  1  0.71958450  0.12500000  0.38464386  1.0
  Ni  Ni295  1  0.71958450  0.45833333  0.38464386  1.0
  Ni  Ni296  1  0.71958450  0.79166667  0.38464386  1.0
  Ni  Ni297  1  0.05291783  0.29166667  0.31321529  1.0
  Ni  Ni298  1  0.05291783  0.62500000  0.31321529  1.0
  Ni  Ni299  1  0.05291783  0.95833333  0.31321529  1.0
  Ni  Ni300  1  0.38625117  0.29166667  0.31321529  1.0
  Ni  Ni301  1  0.38625117  0.62500000  0.31321529  1.0
  Ni  Ni302  1  0.38625117  0.95833333  0.31321529  1.0
  Ni  Ni303  1  0.71958450  0.29166667  0.31321529  1.0
  Ni  Ni304  1  0.71958450  0.62500000  0.31321529  1.0
  Ni  Ni305  1  0.71958450  0.95833333  0.31321529  1.0
  Ni  Ni306  1  0.05291783  0.12500000  0.31660664  1.0
  Ni  Ni307  1  0.05291783  0.45833333  0.31660664  1.0
  Ni  Ni308  1  0.05291783  0.79166667  0.31660664  1.0
  Ni  Ni309  1  0.38625117  0.12500000  0.31660664  1.0
  Ni  Ni310  1  0.38625117  0.45833333  0.31660664  1.0
  Ni  Ni311  1  0.38625117  0.79166667  0.31660664  1.0
  Ni  Ni312  1  0.71958450  0.12500000  0.31660664  1.0
  Ni  Ni313  1  0.71958450  0.45833333  0.31660664  1.0
  Ni  Ni314  1  0.71958450  0.79166667  0.31660664  1.0
  Ni  Ni315  1  0.05291783  0.29166667  0.38803521  1.0
  Ni  Ni316  1  0.05291783  0.62500000  0.38803521  1.0
  Ni  Ni317  1  0.05291783  0.95833333  0.38803521  1.0
  Ni  Ni318  1  0.38625117  0.29166667  0.38803521  1.0
  Ni  Ni319  1  0.38625117  0.62500000  0.38803521  1.0
  Ni  Ni320  1  0.38625117  0.95833333  0.38803521  1.0
  Ni  Ni321  1  0.71958450  0.29166667  0.38803521  1.0
  Ni  Ni322  1  0.71958450  0.62500000  0.38803521  1.0
  Ni  Ni323  1  0.71958450  0.95833333  0.38803521  1.0
  Ni  Ni324  1  0.22749767  0.12500000  0.31660664  1.0
  Ni  Ni325  1  0.22749767  0.45833333  0.31660664  1.0
  Ni  Ni326  1  0.22749767  0.79166667  0.31660664  1.0
  Ni  Ni327  1  0.56083100  0.12500000  0.31660664  1.0
  Ni  Ni328  1  0.56083100  0.45833333  0.31660664  1.0
  Ni  Ni329  1  0.56083100  0.79166667  0.31660664  1.0
  Ni  Ni330  1  0.89416433  0.12500000  0.31660664  1.0
  Ni  Ni331  1  0.89416433  0.45833333  0.31660664  1.0
  Ni  Ni332  1  0.89416433  0.79166667  0.31660664  1.0
  Ni  Ni333  1  0.22749767  0.29166667  0.38803521  1.0
  Ni  Ni334  1  0.22749767  0.62500000  0.38803521  1.0
  Ni  Ni335  1  0.22749767  0.95833333  0.38803521  1.0
  Ni  Ni336  1  0.56083100  0.29166667  0.38803521  1.0
  Ni  Ni337  1  0.56083100  0.62500000  0.38803521  1.0
  Ni  Ni338  1  0.56083100  0.95833333  0.38803521  1.0
  Ni  Ni339  1  0.89416433  0.29166667  0.38803521  1.0
  Ni  Ni340  1  0.89416433  0.62500000  0.38803521  1.0
  Ni  Ni341  1  0.89416433  0.95833333  0.38803521  1.0
  Ni  Ni342  1  0.28041550  0.04166667  0.40107043  1.0
  Ni  Ni343  1  0.28041550  0.37500000  0.40107043  1.0
  Ni  Ni344  1  0.28041550  0.70833333  0.40107043  1.0
  Ni  Ni345  1  0.61374883  0.04166667  0.40107043  1.0
  Ni  Ni346  1  0.61374883  0.37500000  0.40107043  1.0
  Ni  Ni347  1  0.61374883  0.70833333  0.40107043  1.0
  Ni  Ni348  1  0.94708217  0.04166667  0.40107043  1.0
  Ni  Ni349  1  0.94708217  0.37500000  0.40107043  1.0
  Ni  Ni350  1  0.94708217  0.70833333  0.40107043  1.0
  Ni  Ni351  1  0.28041550  0.20833333  0.32964186  1.0
  Ni  Ni352  1  0.28041550  0.54166667  0.32964186  1.0
  Ni  Ni353  1  0.28041550  0.87500000  0.32964186  1.0
  Ni  Ni354  1  0.61374883  0.20833333  0.32964186  1.0
  Ni  Ni355  1  0.61374883  0.54166667  0.32964186  1.0
  Ni  Ni356  1  0.61374883  0.87500000  0.32964186  1.0
  Ni  Ni357  1  0.94708217  0.20833333  0.32964186  1.0
  Ni  Ni358  1  0.94708217  0.54166667  0.32964186  1.0
  Ni  Ni359  1  0.94708217  0.87500000  0.32964186  1.0
  Ni  Ni360  1  0.28041550  0.04166667  0.32625050  1.0
  Ni  Ni361  1  0.28041550  0.37500000  0.32625050  1.0
  Ni  Ni362  1  0.28041550  0.70833333  0.32625050  1.0
  Ni  Ni363  1  0.61374883  0.04166667  0.32625050  1.0
  Ni  Ni364  1  0.61374883  0.37500000  0.32625050  1.0
  Ni  Ni365  1  0.61374883  0.70833333  0.32625050  1.0
  Ni  Ni366  1  0.94708217  0.04166667  0.32625050  1.0
  Ni  Ni367  1  0.94708217  0.37500000  0.32625050  1.0
  Ni  Ni368  1  0.94708217  0.70833333  0.32625050  1.0
  Ni  Ni369  1  0.28041550  0.20833333  0.39767907  1.0
  Ni  Ni370  1  0.28041550  0.54166667  0.39767907  1.0
  Ni  Ni371  1  0.28041550  0.87500000  0.39767907  1.0
  Ni  Ni372  1  0.61374883  0.20833333  0.39767907  1.0
  Ni  Ni373  1  0.61374883  0.54166667  0.39767907  1.0
  Ni  Ni374  1  0.61374883  0.87500000  0.39767907  1.0
  Ni  Ni375  1  0.94708217  0.20833333  0.39767907  1.0
  Ni  Ni376  1  0.94708217  0.54166667  0.39767907  1.0
  Ni  Ni377  1  0.94708217  0.87500000  0.39767907  1.0
  Ni  Ni378  1  0.10583567  0.04166667  0.32625050  1.0
  Ni  Ni379  1  0.10583567  0.37500000  0.32625050  1.0
  Ni  Ni380  1  0.10583567  0.70833333  0.32625050  1.0
  Ni  Ni381  1  0.43916900  0.04166667  0.32625050  1.0
  Ni  Ni382  1  0.43916900  0.37500000  0.32625050  1.0
  Ni  Ni383  1  0.43916900  0.70833333  0.32625050  1.0
  Ni  Ni384  1  0.77250233  0.04166667  0.32625050  1.0
  Ni  Ni385  1  0.77250233  0.37500000  0.32625050  1.0
  Ni  Ni386  1  0.77250233  0.70833333  0.32625050  1.0
  Ni  Ni387  1  0.10583567  0.20833333  0.39767907  1.0
  Ni  Ni388  1  0.10583567  0.54166667  0.39767907  1.0
  Ni  Ni389  1  0.10583567  0.87500000  0.39767907  1.0
  Ni  Ni390  1  0.43916900  0.20833333  0.39767907  1.0
  Ni  Ni391  1  0.43916900  0.54166667  0.39767907  1.0
  Ni  Ni392  1  0.43916900  0.87500000  0.39767907  1.0
  Ni  Ni393  1  0.77250233  0.20833333  0.39767907  1.0
  Ni  Ni394  1  0.77250233  0.54166667  0.39767907  1.0
  Ni  Ni395  1  0.77250233  0.87500000  0.39767907  1.0
  Au  Au396  1  0.11111111  0.04166667  0.39880952  1.0
  Au  Au397  1  0.11111111  0.37500000  0.39880952  1.0
  Au  Au398  1  0.11111111  0.70833333  0.39880952  1.0
  Au  Au399  1  0.44444444  0.04166667  0.39880952  1.0
  Au  Au400  1  0.44444444  0.37500000  0.39880952  1.0
  Au  Au401  1  0.44444444  0.70833333  0.39880952  1.0
  Au  Au402  1  0.77777778  0.04166667  0.39880952  1.0
  Au  Au403  1  0.77777778  0.37500000  0.39880952  1.0
  Au  Au404  1  0.77777778  0.70833333  0.39880952  1.0
  Au  Au405  1  0.11111111  0.20833333  0.32738095  1.0
  Au  Au406  1  0.11111111  0.54166667  0.32738095  1.0
  Au  Au407  1  0.11111111  0.87500000  0.32738095  1.0
  Au  Au408  1  0.44444444  0.20833333  0.32738095  1.0
  Au  Au409  1  0.44444444  0.54166667  0.32738095  1.0
  Au  Au410  1  0.44444444  0.87500000  0.32738095  1.0
  Au  Au411  1  0.77777778  0.20833333  0.32738095  1.0
  Au  Au412  1  0.77777778  0.54166667  0.32738095  1.0
  Au  Au413  1  0.77777778  0.87500000  0.32738095  1.0
  Au  Au414  1  0.22222222  0.12500000  0.38690476  1.0
  Au  Au415  1  0.22222222  0.45833333  0.38690476  1.0
  Au  Au416  1  0.22222222  0.79166667  0.38690476  1.0
  Au  Au417  1  0.55555556  0.12500000  0.38690476  1.0
  Au  Au418  1  0.55555556  0.45833333  0.38690476  1.0
  Au  Au419  1  0.55555556  0.79166667  0.38690476  1.0
  Au  Au420  1  0.88888889  0.12500000  0.38690476  1.0
  Au  Au421  1  0.88888889  0.45833333  0.38690476  1.0
  Au  Au422  1  0.88888889  0.79166667  0.38690476  1.0
  Au  Au423  1  0.22222222  0.29166667  0.31547619  1.0
  Au  Au424  1  0.22222222  0.62500000  0.31547619  1.0
  Au  Au425  1  0.22222222  0.95833333  0.31547619  1.0
  Au  Au426  1  0.55555556  0.29166667  0.31547619  1.0
  Au  Au427  1  0.55555556  0.62500000  0.31547619  1.0
  Au  Au428  1  0.55555556  0.95833333  0.31547619  1.0
  Au  Au429  1  0.88888889  0.29166667  0.31547619  1.0
  Au  Au430  1  0.88888889  0.62500000  0.31547619  1.0
  Au  Au431  1  0.88888889  0.95833333  0.31547619  1.0
