# generated using pymatgen
data_Ni3Au
_symmetry_space_group_name_H-M   'P 1'
_cell_length_a   15.58634182
_cell_length_b   37.91012547
_cell_length_c   68.31527535
_cell_angle_alpha   32.14409544
_cell_angle_beta   90.00000000
_cell_angle_gamma   65.72357709
_symmetry_Int_Tables_number   1
_chemical_formula_structural   Ni3Au
_chemical_formula_sum   'Ni324 Au108'
_cell_volume   13631.69403506
_cell_formula_units_Z   108
loop_
 _symmetry_equiv_pos_site_id
 _symmetry_equiv_pos_as_xyz
  1  'x, y, z'
loop_
 _atom_site_type_symbol
 _atom_site_label
 _atom_site_symmetry_multiplicity
 _atom_site_fract_x
 _atom_site_fract_y
 _atom_site_fract_z
 _atom_site_occupancy
  Ni  Ni0  1  0.08333333  0.00000000  0.01666667  1.0
  Ni  Ni1  1  0.08333333  0.33333333  0.01666667  1.0
  Ni  Ni2  1  0.08333333  0.66666667  0.01666667  1.0
  Ni  Ni3  1  0.41666667  0.00000000  0.01666667  1.0
  Ni  Ni4  1  0.41666667  0.33333333  0.01666667  1.0
  Ni  Ni5  1  0.41666667  0.66666667  0.01666667  1.0
  Ni  Ni6  1  0.75000000  0.00000000  0.01666667  1.0
  Ni  Ni7  1  0.75000000  0.33333333  0.01666667  1.0
  Ni  Ni8  1  0.75000000  0.66666667  0.01666667  1.0
  Ni  Ni9  1  0.08333333  0.16666667  0.05000000  1.0
  Ni  Ni10  1  0.08333333  0.50000000  0.05000000  1.0
  Ni  Ni11  1  0.08333333  0.83333333  0.05000000  1.0
  Ni  Ni12  1  0.41666667  0.16666667  0.05000000  1.0
  Ni  Ni13  1  0.41666667  0.50000000  0.05000000  1.0
  Ni  Ni14  1  0.41666667  0.83333333  0.05000000  1.0
  Ni  Ni15  1  0.75000000  0.16666667  0.05000000  1.0
  Ni  Ni16  1  0.75000000  0.50000000  0.05000000  1.0
  Ni  Ni17  1  0.75000000  0.83333333  0.05000000  1.0
  Ni  Ni18  1  0.25000000  0.00000000  0.01666667  1.0
  Ni  Ni19  1  0.25000000  0.33333333  0.01666667  1.0
  Ni  Ni20  1  0.25000000  0.66666667  0.01666667  1.0
  Ni  Ni21  1  0.58333333  0.00000000  0.01666667  1.0
  Ni  Ni22  1  0.58333333  0.33333333  0.01666667  1.0
  Ni  Ni23  1  0.58333333  0.66666667  0.01666667  1.0
  Ni  Ni24  1  0.91666667  0.00000000  0.01666667  1.0
  Ni  Ni25  1  0.91666667  0.33333333  0.01666667  1.0
  Ni  Ni26  1  0.91666667  0.66666667  0.01666667  1.0
  Ni  Ni27  1  0.25000000  0.16666667  0.05000000  1.0
  Ni  Ni28  1  0.25000000  0.50000000  0.05000000  1.0
  Ni  Ni29  1  0.25000000  0.83333333  0.05000000  1.0
  Ni  Ni30  1  0.58333333  0.16666667  0.05000000  1.0
  Ni  Ni31  1  0.58333333  0.50000000  0.05000000  1.0
  Ni  Ni32  1  0.58333333  0.83333333  0.05000000  1.0
  Ni  Ni33  1  0.91666667  0.16666667  0.05000000  1.0
  Ni  Ni34  1  0.91666667  0.50000000  0.05000000  1.0
  Ni  Ni35  1  0.91666667  0.83333333  0.05000000  1.0
  Ni  Ni36  1  0.16666667  0.00000000  0.05000000  1.0
  Ni  Ni37  1  0.16666667  0.33333333  0.05000000  1.0
  Ni  Ni38  1  0.16666667  0.66666667  0.05000000  1.0
  Ni  Ni39  1  0.50000000  0.00000000  0.05000000  1.0
  Ni  Ni40  1  0.50000000  0.33333333  0.05000000  1.0
  Ni  Ni41  1  0.50000000  0.66666667  0.05000000  1.0
  Ni  Ni42  1  0.83333333  0.00000000  0.05000000  1.0
  Ni  Ni43  1  0.83333333  0.33333333  0.05000000  1.0
  Ni  Ni44  1  0.83333333  0.66666667  0.05000000  1.0
  Ni  Ni45  1  0.16666667  0.16666667  0.01666667  1.0
  Ni  Ni46  1  0.16666667  0.50000000  0.01666667  1.0
  Ni  Ni47  1  0.16666667  0.83333333  0.01666667  1.0
  Ni  Ni48  1  0.50000000  0.16666667  0.01666667  1.0
  Ni  Ni49  1  0.50000000  0.50000000  0.01666667  1.0
  Ni  Ni50  1  0.50000000  0.83333333  0.01666667  1.0
  Ni  Ni51  1  0.83333333  0.16666667  0.01666667  1.0
  Ni  Ni52  1  0.83333333  0.50000000  0.01666667  1.0
  Ni  Ni53  1  0.83333333  0.83333333  0.01666667  1.0
  Au  Au54  1  0.00000000  0.16666667  0.01666667  1.0
  Au  Au55  1  0.00000000  0.50000000  0.01666667  1.0
  Au  Au56  1  0.00000000  0.83333333  0.01666667  1.0
  Au  Au57  1  0.33333333  0.16666667  0.01666667  1.0
  Au  Au58  1  0.33333333  0.50000000  0.01666667  1.0
  Au  Au59  1  0.33333333  0.83333333  0.01666667  1.0
  Au  Au60  1  0.66666667  0.16666667  0.01666667  1.0
  Au  Au61  1  0.66666667  0.50000000  0.01666667  1.0
  Au  Au62  1  0.66666667  0.83333333  0.01666667  1.0
  Au  Au63  1  0.00000000  0.00000000  0.05000000  1.0
  Au  Au64  1  0.00000000  0.33333333  0.05000000  1.0
  Au  Au65  1  0.00000000  0.66666667  0.05000000  1.0
  Au  Au66  1  0.33333333  0.00000000  0.05000000  1.0
  Au  Au67  1  0.33333333  0.33333333  0.05000000  1.0
  Au  Au68  1  0.33333333  0.66666667  0.05000000  1.0
  Au  Au69  1  0.66666667  0.00000000  0.05000000  1.0
  Au  Au70  1  0.66666667  0.33333333  0.05000000  1.0
  Au  Au71  1  0.66666667  0.66666667  0.05000000  1.0
  Ni  Ni72  1  0.08333333  0.00000000  0.08333333  1.0
  Ni  Ni73  1  0.08333333  0.33333333  0.08333333  1.0
  Ni  Ni74  1  0.08333333  0.66666667  0.08333333  1.0
  Ni  Ni75  1  0.41666667  0.00000000  0.08333333  1.0
  Ni  Ni76  1  0.41666667  0.33333333  0.08333333  1.0
  Ni  Ni77  1  0.41666667  0.66666667  0.08333333  1.0
  Ni  Ni78  1  0.75000000  0.00000000  0.08333333  1.0
  Ni  Ni79  1  0.75000000  0.33333333  0.08333333  1.0
  Ni  Ni80  1  0.75000000  0.66666667  0.08333333  1.0
  Ni  Ni81  1  0.08333333  0.16666667  0.11666667  1.0
  Ni  Ni82  1  0.08333333  0.50000000  0.11666667  1.0
  Ni  Ni83  1  0.08333333  0.83333333  0.11666667  1.0
  Ni  Ni84  1  0.41666667  0.16666667  0.11666667  1.0
  Ni  Ni85  1  0.41666667  0.50000000  0.11666667  1.0
  Ni  Ni86  1  0.41666667  0.83333333  0.11666667  1.0
  Ni  Ni87  1  0.75000000  0.16666667  0.11666667  1.0
  Ni  Ni88  1  0.75000000  0.50000000  0.11666667  1.0
  Ni  Ni89  1  0.75000000  0.83333333  0.11666667  1.0
  Ni  Ni90  1  0.25000000  0.00000000  0.08333333  1.0
  Ni  Ni91  1  0.25000000  0.33333333  0.08333333  1.0
  Ni  Ni92  1  0.25000000  0.66666667  0.08333333  1.0
  Ni  Ni93  1  0.58333333  0.00000000  0.08333333  1.0
  Ni  Ni94  1  0.58333333  0.33333333  0.08333333  1.0
  Ni  Ni95  1  0.58333333  0.66666667  0.08333333  1.0
  Ni  Ni96  1  0.91666667  0.00000000  0.08333333  1.0
  Ni  Ni97  1  0.91666667  0.33333333  0.08333333  1.0
  Ni  Ni98  1  0.91666667  0.66666667  0.08333333  1.0
  Ni  Ni99  1  0.25000000  0.16666667  0.11666667  1.0
  Ni  Ni100  1  0.25000000  0.50000000  0.11666667  1.0
  Ni  Ni101  1  0.25000000  0.83333333  0.11666667  1.0
  Ni  Ni102  1  0.58333333  0.16666667  0.11666667  1.0
  Ni  Ni103  1  0.58333333  0.50000000  0.11666667  1.0
  Ni  Ni104  1  0.58333333  0.83333333  0.11666667  1.0
  Ni  Ni105  1  0.91666667  0.16666667  0.11666667  1.0
  Ni  Ni106  1  0.91666667  0.50000000  0.11666667  1.0
  Ni  Ni107  1  0.91666667  0.83333333  0.11666667  1.0
  Ni  Ni108  1  0.16666667  0.00000000  0.11666667  1.0
  Ni  Ni109  1  0.16666667  0.33333333  0.11666667  1.0
  Ni  Ni110  1  0.16666667  0.66666667  0.11666667  1.0
  Ni  Ni111  1  0.50000000  0.00000000  0.11666667  1.0
  Ni  Ni112  1  0.50000000  0.33333333  0.11666667  1.0
  Ni  Ni113  1  0.50000000  0.66666667  0.11666667  1.0
  Ni  Ni114  1  0.83333333  0.00000000  0.11666667  1.0
  Ni  Ni115  1  0.83333333  0.33333333  0.11666667  1.0
  Ni  Ni116  1  0.83333333  0.66666667  0.11666667  1.0
  Ni  Ni117  1  0.16666667  0.16666667  0.08333333  1.0
  Ni  Ni118  1  0.16666667  0.50000000  0.08333333  1.0
  Ni  Ni119  1  0.16666667  0.83333333  0.08333333  1.0
  Ni  Ni120  1  0.50000000  0.16666667  0.08333333  1.0
  Ni  Ni121  1  0.50000000  0.50000000  0.08333333  1.0
  Ni  Ni122  1  0.50000000  0.83333333  0.08333333  1.0
  Ni  Ni123  1  0.83333333  0.16666667  0.08333333  1.0
  Ni  Ni124  1  0.83333333  0.50000000  0.08333333  1.0
  Ni  Ni125  1  0.83333333  0.83333333  0.08333333  1.0
  Au  Au126  1  0.00000000  0.16666667  0.08333333  1.0
  Au  Au127  1  0.00000000  0.50000000  0.08333333  1.0
  Au  Au128  1  0.00000000  0.83333333  0.08333333  1.0
  Au  Au129  1  0.33333333  0.16666667  0.08333333  1.0
  Au  Au130  1  0.33333333  0.50000000  0.08333333  1.0
  Au  Au131  1  0.33333333  0.83333333  0.08333333  1.0
  Au  Au132  1  0.66666667  0.16666667  0.08333333  1.0
  Au  Au133  1  0.66666667  0.50000000  0.08333333  1.0
  Au  Au134  1  0.66666667  0.83333333  0.08333333  1.0
  Au  Au135  1  0.00000000  0.00000000  0.11666667  1.0
  Au  Au136  1  0.00000000  0.33333333  0.11666667  1.0
  Au  Au137  1  0.00000000  0.66666667  0.11666667  1.0
  Au  Au138  1  0.33333333  0.00000000  0.11666667  1.0
  Au  Au139  1  0.33333333  0.33333333  0.11666667  1.0
  Au  Au140  1  0.33333333  0.66666667  0.11666667  1.0
  Au  Au141  1  0.66666667  0.00000000  0.11666667  1.0
  Au  Au142  1  0.66666667  0.33333333  0.11666667  1.0
  Au  Au143  1  0.66666667  0.66666667  0.11666667  1.0
  Ni  Ni144  1  0.08333333  0.00000000  0.15000000  1.0
  Ni  Ni145  1  0.08333333  0.33333333  0.15000000  1.0
  Ni  Ni146  1  0.08333333  0.66666667  0.15000000  1.0
  Ni  Ni147  1  0.41666667  0.00000000  0.15000000  1.0
  Ni  Ni148  1  0.41666667  0.33333333  0.15000000  1.0
  Ni  Ni149  1  0.41666667  0.66666667  0.15000000  1.0
  Ni  Ni150  1  0.75000000  0.00000000  0.15000000  1.0
  Ni  Ni151  1  0.75000000  0.33333333  0.15000000  1.0
  Ni  Ni152  1  0.75000000  0.66666667  0.15000000  1.0
  Ni  Ni153  1  0.08333333  0.16666667  0.18333333  1.0
  Ni  Ni154  1  0.08333333  0.50000000  0.18333333  1.0
  Ni  Ni155  1  0.08333333  0.83333333  0.18333333  1.0
  Ni  Ni156  1  0.41666667  0.16666667  0.18333333  1.0
  Ni  Ni157  1  0.41666667  0.50000000  0.18333333  1.0
  Ni  Ni158  1  0.41666667  0.83333333  0.18333333  1.0
  Ni  Ni159  1  0.75000000  0.16666667  0.18333333  1.0
  Ni  Ni160  1  0.75000000  0.50000000  0.18333333  1.0
  Ni  Ni161  1  0.75000000  0.83333333  0.18333333  1.0
  Ni  Ni162  1  0.25000000  0.00000000  0.15000000  1.0
  Ni  Ni163  1  0.25000000  0.33333333  0.15000000  1.0
  Ni  Ni164  1  0.25000000  0.66666667  0.15000000  1.0
  Ni  Ni165  1  0.58333333  0.00000000  0.15000000  1.0
  Ni  Ni166  1  0.58333333  0.33333333  0.15000000  1.0
  Ni  Ni167  1  0.58333333  0.66666667  0.15000000  1.0
  Ni  Ni168  1  0.91666667  0.00000000  0.15000000  1.0
  Ni  Ni169  1  0.91666667  0.33333333  0.15000000  1.0
  Ni  Ni170  1  0.91666667  0.66666667  0.15000000  1.0
  Ni  Ni171  1  0.25000000  0.16666667  0.18333333  1.0
  Ni  Ni172  1  0.25000000  0.50000000  0.18333333  1.0
  Ni  Ni173  1  0.25000000  0.83333333  0.18333333  1.0
  Ni  Ni174  1  0.58333333  0.16666667  0.18333333  1.0
  Ni  Ni175  1  0.58333333  0.50000000  0.18333333  1.0
  Ni  Ni176  1  0.58333333  0.83333333  0.18333333  1.0
  Ni  Ni177  1  0.91666667  0.16666667  0.18333333  1.0
  Ni  Ni178  1  0.91666667  0.50000000  0.18333333  1.0
  Ni  Ni179  1  0.91666667  0.83333333  0.18333333  1.0
  Ni  Ni180  1  0.16666667  0.00000000  0.18333333  1.0
  Ni  Ni181  1  0.16666667  0.33333333  0.18333333  1.0
  Ni  Ni182  1  0.16666667  0.66666667  0.18333333  1.0
  Ni  Ni183  1  0.50000000  0.00000000  0.18333333  1.0
  Ni  Ni184  1  0.50000000  0.33333333  0.18333333  1.0
  Ni  Ni185  1  0.50000000  0.66666667  0.18333333  1.0
  Ni  Ni186  1  0.83333333  0.00000000  0.18333333  1.0
  Ni  Ni187  1  0.83333333  0.33333333  0.18333333  1.0
  Ni  Ni188  1  0.83333333  0.66666667  0.18333333  1.0
  Ni  Ni189  1  0.16666667  0.16666667  0.15000000  1.0
  Ni  Ni190  1  0.16666667  0.50000000  0.15000000  1.0
  Ni  Ni191  1  0.16666667  0.83333333  0.15000000  1.0
  Ni  Ni192  1  0.50000000  0.16666667  0.15000000  1.0
  Ni  Ni193  1  0.50000000  0.50000000  0.15000000  1.0
  Ni  Ni194  1  0.50000000  0.83333333  0.15000000  1.0
  Ni  Ni195  1  0.83333333  0.16666667  0.15000000  1.0
  Ni  Ni196  1  0.83333333  0.50000000  0.15000000  1.0
  Ni  Ni197  1  0.83333333  0.83333333  0.15000000  1.0
  Au  Au198  1  0.00000000  0.16666667  0.15000000  1.0
  Au  Au199  1  0.00000000  0.50000000  0.15000000  1.0
  Au  Au200  1  0.00000000  0.83333333  0.15000000  1.0
  Au  Au201  1  0.33333333  0.16666667  0.15000000  1.0
  Au  Au202  1  0.33333333  0.50000000  0.15000000  1.0
  Au  Au203  1  0.33333333  0.83333333  0.15000000  1.0
  Au  Au204  1  0.66666667  0.16666667  0.15000000  1.0
  Au  Au205  1  0.66666667  0.50000000  0.15000000  1.0
  Au  Au206  1  0.66666667  0.83333333  0.15000000  1.0
  Au  Au207  1  0.00000000  0.00000000  0.18333333  1.0
  Au  Au208  1  0.00000000  0.33333333  0.18333333  1.0
  Au  Au209  1  0.00000000  0.66666667  0.18333333  1.0
  Au  Au210  1  0.33333333  0.00000000  0.18333333  1.0
  Au  Au211  1  0.33333333  0.33333333  0.18333333  1.0
  Au  Au212  1  0.33333333  0.66666667  0.18333333  1.0
  Au  Au213  1  0.66666667  0.00000000  0.18333333  1.0
  Au  Au214  1  0.66666667  0.33333333  0.18333333  1.0
  Au  Au215  1  0.66666667  0.66666667  0.18333333  1.0
  Ni  Ni216  1  0.08333333  0.00000000  0.21666667  1.0
  Ni  Ni217  1  0.08333333  0.33333333  0.21666667  1.0
  Ni  Ni218  1  0.08333333  0.66666667  0.21666667  1.0
  Ni  Ni219  1  0.41666667  0.00000000  0.21666667  1.0
  Ni  Ni220  1  0.41666667  0.33333333  0.21666667  1.0
  Ni  Ni221  1  0.41666667  0.66666667  0.21666667  1.0
  Ni  Ni222  1  0.75000000  0.00000000  0.21666667  1.0
  Ni  Ni223  1  0.75000000  0.33333333  0.21666667  1.0
  Ni  Ni224  1  0.75000000  0.66666667  0.21666667  1.0
  Ni  Ni225  1  0.08333333  0.16666667  0.25000000  1.0
  Ni  Ni226  1  0.08333333  0.50000000  0.25000000  1.0
  Ni  Ni227  1  0.08333333  0.83333333  0.25000000  1.0
  Ni  Ni228  1  0.41666667  0.16666667  0.25000000  1.0
  Ni  Ni229  1  0.41666667  0.50000000  0.25000000  1.0
  Ni  Ni230  1  0.41666667  0.83333333  0.25000000  1.0
  Ni  Ni231  1  0.75000000  0.16666667  0.25000000  1.0
  Ni  Ni232  1  0.75000000  0.50000000  0.25000000  1.0
  Ni  Ni233  1  0.75000000  0.83333333  0.25000000  1.0
  Ni  Ni234  1  0.25000000  0.00000000  0.21666667  1.0
  Ni  Ni235  1  0.25000000  0.33333333  0.21666667  1.0
  Ni  Ni236  1  0.25000000  0.66666667  0.21666667  1.0
  Ni  Ni237  1  0.58333333  0.00000000  0.21666667  1.0
  Ni  Ni238  1  0.58333333  0.33333333  0.21666667  1.0
  Ni  Ni239  1  0.58333333  0.66666667  0.21666667  1.0
  Ni  Ni240  1  0.91666667  0.00000000  0.21666667  1.0
  Ni  Ni241  1  0.91666667  0.33333333  0.21666667  1.0
  Ni  Ni242  1  0.91666667  0.66666667  0.21666667  1.0
  Ni  Ni243  1  0.25000000  0.16666667  0.25000000  1.0
  Ni  Ni244  1  0.25000000  0.50000000  0.25000000  1.0
  Ni  Ni245  1  0.25000000  0.83333333  0.25000000  1.0
  Ni  Ni246  1  0.58333333  0.16666667  0.25000000  1.0
  Ni  Ni247  1  0.58333333  0.50000000  0.25000000  1.0
  Ni  Ni248  1  0.58333333  0.83333333  0.25000000  1.0
  Ni  Ni249  1  0.91666667  0.16666667  0.25000000  1.0
  Ni  Ni250  1  0.91666667  0.50000000  0.25000000  1.0
  Ni  Ni251  1  0.91666667  0.83333333  0.25000000  1.0
  Ni  Ni252  1  0.16666667  0.00000000  0.25000000  1.0
  Ni  Ni253  1  0.16666667  0.33333333  0.25000000  1.0
  Ni  Ni254  1  0.16666667  0.66666667  0.25000000  1.0
  Ni  Ni255  1  0.50000000  0.00000000  0.25000000  1.0
  Ni  Ni256  1  0.50000000  0.33333333  0.25000000  1.0
  Ni  Ni257  1  0.50000000  0.66666667  0.25000000  1.0
  Ni  Ni258  1  0.83333333  0.00000000  0.25000000  1.0
  Ni  Ni259  1  0.83333333  0.33333333  0.25000000  1.0
  Ni  Ni260  1  0.83333333  0.66666667  0.25000000  1.0
  Ni  Ni261  1  0.16666667  0.16666667  0.21666667  1.0
  Ni  Ni262  1  0.16666667  0.50000000  0.21666667  1.0
  Ni  Ni263  1  0.16666667  0.83333333  0.21666667  1.0
  Ni  Ni264  1  0.50000000  0.16666667  0.21666667  1.0
  Ni  Ni265  1  0.50000000  0.50000000  0.21666667  1.0
  Ni  Ni266  1  0.50000000  0.83333333  0.21666667  1.0
  Ni  Ni267  1  0.83333333  0.16666667  0.21666667  1.0
  Ni  Ni268  1  0.83333333  0.50000000  0.21666667  1.0
  Ni  Ni269  1  0.83333333  0.83333333  0.21666667  1.0
  Au  Au270  1  0.00000000  0.16666667  0.21666667  1.0
  Au  Au271  1  0.00000000  0.50000000  0.21666667  1.0
  Au  Au272  1  0.00000000  0.83333333  0.21666667  1.0
  Au  Au273  1  0.33333333  0.16666667  0.21666667  1.0
  Au  Au274  1  0.33333333  0.50000000  0.21666667  1.0
  Au  Au275  1  0.33333333  0.83333333  0.21666667  1.0
  Au  Au276  1  0.66666667  0.16666667  0.21666667  1.0
  Au  Au277  1  0.66666667  0.50000000  0.21666667  1.0
  Au  Au278  1  0.66666667  0.83333333  0.21666667  1.0
  Au  Au279  1  0.00000000  0.00000000  0.25000000  1.0
  Au  Au280  1  0.00000000  0.33333333  0.25000000  1.0
  Au  Au281  1  0.00000000  0.66666667  0.25000000  1.0
  Au  Au282  1  0.33333333  0.00000000  0.25000000  1.0
  Au  Au283  1  0.33333333  0.33333333  0.25000000  1.0
  Au  Au284  1  0.33333333  0.66666667  0.25000000  1.0
  Au  Au285  1  0.66666667  0.00000000  0.25000000  1.0
  Au  Au286  1  0.66666667  0.33333333  0.25000000  1.0
  Au  Au287  1  0.66666667  0.66666667  0.25000000  1.0
  Ni  Ni288  1  0.08333333  0.00000000  0.28333333  1.0
  Ni  Ni289  1  0.08333333  0.33333333  0.28333333  1.0
  Ni  Ni290  1  0.08333333  0.66666667  0.28333333  1.0
  Ni  Ni291  1  0.41666667  0.00000000  0.28333333  1.0
  Ni  Ni292  1  0.41666667  0.33333333  0.28333333  1.0
  Ni  Ni293  1  0.41666667  0.66666667  0.28333333  1.0
  Ni  Ni294  1  0.75000000  0.00000000  0.28333333  1.0
  Ni  Ni295  1  0.75000000  0.33333333  0.28333333  1.0
  Ni  Ni296  1  0.75000000  0.66666667  0.28333333  1.0
  Ni  Ni297  1  0.08333333  0.16666667  0.31666667  1.0
  Ni  Ni298  1  0.08333333  0.50000000  0.31666667  1.0
  Ni  Ni299  1  0.08333333  0.83333333  0.31666667  1.0
  Ni  Ni300  1  0.41666667  0.16666667  0.31666667  1.0
  Ni  Ni301  1  0.41666667  0.50000000  0.31666667  1.0
  Ni  Ni302  1  0.41666667  0.83333333  0.31666667  1.0
  Ni  Ni303  1  0.75000000  0.16666667  0.31666667  1.0
  Ni  Ni304  1  0.75000000  0.50000000  0.31666667  1.0
  Ni  Ni305  1  0.75000000  0.83333333  0.31666667  1.0
  Ni  Ni306  1  0.25000000  0.00000000  0.28333333  1.0
  Ni  Ni307  1  0.25000000  0.33333333  0.28333333  1.0
  Ni  Ni308  1  0.25000000  0.66666667  0.28333333  1.0
  Ni  Ni309  1  0.58333333  0.00000000  0.28333333  1.0
  Ni  Ni310  1  0.58333333  0.33333333  0.28333333  1.0
  Ni  Ni311  1  0.58333333  0.66666667  0.28333333  1.0
  Ni  Ni312  1  0.91666667  0.00000000  0.28333333  1.0
  Ni  Ni313  1  0.91666667  0.33333333  0.28333333  1.0
  Ni  Ni314  1  0.91666667  0.66666667  0.28333333  1.0
  Ni  Ni315  1  0.25000000  0.16666667  0.31666667  1.0
  Ni  Ni316  1  0.25000000  0.50000000  0.31666667  1.0
  Ni  Ni317  1  0.25000000  0.83333333  0.31666667  1.0
  Ni  Ni318  1  0.58333333  0.16666667  0.31666667  1.0
  Ni  Ni319  1  0.58333333  0.50000000  0.31666667  1.0
  Ni  Ni320  1  0.58333333  0.83333333  0.31666667  1.0
  Ni  Ni321  1  0.91666667  0.16666667  0.31666667  1.0
  Ni  Ni322  1  0.91666667  0.50000000  0.31666667  1.0
  Ni  Ni323  1  0.91666667  0.83333333  0.31666667  1.0
  Ni  Ni324  1  0.16666667  0.00000000  0.31666667  1.0
  Ni  Ni325  1  0.16666667  0.33333333  0.31666667  1.0
  Ni  Ni326  1  0.16666667  0.66666667  0.31666667  1.0
  Ni  Ni327  1  0.50000000  0.00000000  0.31666667  1.0
  Ni  Ni328  1  0.50000000  0.33333333  0.31666667  1.0
  Ni  Ni329  1  0.50000000  0.66666667  0.31666667  1.0
  Ni  Ni330  1  0.83333333  0.00000000  0.31666667  1.0
  Ni  Ni331  1  0.83333333  0.33333333  0.31666667  1.0
  Ni  Ni332  1  0.83333333  0.66666667  0.31666667  1.0
  Ni  Ni333  1  0.16666667  0.16666667  0.28333333  1.0
  Ni  Ni334  1  0.16666667  0.50000000  0.28333333  1.0
  Ni  Ni335  1  0.16666667  0.83333333  0.28333333  1.0
  Ni  Ni336  1  0.50000000  0.16666667  0.28333333  1.0
  Ni  Ni337  1  0.50000000  0.50000000  0.28333333  1.0
  Ni  Ni338  1  0.50000000  0.83333333  0.28333333  1.0
  Ni  Ni339  1  0.83333333  0.16666667  0.28333333  1.0
  Ni  Ni340  1  0.83333333  0.50000000  0.28333333  1.0
  Ni  Ni341  1  0.83333333  0.83333333  0.28333333  1.0
  Au  Au342  1  0.00000000  0.16666667  0.28333333  1.0
  Au  Au343  1  0.00000000  0.50000000  0.28333333  1.0
  Au  Au344  1  0.00000000  0.83333333  0.28333333  1.0
  Au  Au345  1  0.33333333  0.16666667  0.28333333  1.0
  Au  Au346  1  0.33333333  0.50000000  0.28333333  1.0
  Au  Au347  1  0.33333333  0.83333333  0.28333333  1.0
  Au  Au348  1  0.66666667  0.16666667  0.28333333  1.0
  Au  Au349  1  0.66666667  0.50000000  0.28333333  1.0
  Au  Au350  1  0.66666667  0.83333333  0.28333333  1.0
  Au  Au351  1  0.00000000  0.00000000  0.31666667  1.0
  Au  Au352  1  0.00000000  0.33333333  0.31666667  1.0
  Au  Au353  1  0.00000000  0.66666667  0.31666667  1.0
  Au  Au354  1  0.33333333  0.00000000  0.31666667  1.0
  Au  Au355  1  0.33333333  0.33333333  0.31666667  1.0
  Au  Au356  1  0.33333333  0.66666667  0.31666667  1.0
  Au  Au357  1  0.66666667  0.00000000  0.31666667  1.0
  Au  Au358  1  0.66666667  0.33333333  0.31666667  1.0
  Au  Au359  1  0.66666667  0.66666667  0.31666667  1.0
  Ni  Ni360  1  0.08333333  0.00000000  0.35000000  1.0
  Ni  Ni361  1  0.08333333  0.33333333  0.35000000  1.0
  Ni  Ni362  1  0.08333333  0.66666667  0.35000000  1.0
  Ni  Ni363  1  0.41666667  0.00000000  0.35000000  1.0
  Ni  Ni364  1  0.41666667  0.33333333  0.35000000  1.0
  Ni  Ni365  1  0.41666667  0.66666667  0.35000000  1.0
  Ni  Ni366  1  0.75000000  0.00000000  0.35000000  1.0
  Ni  Ni367  1  0.75000000  0.33333333  0.35000000  1.0
  Ni  Ni368  1  0.75000000  0.66666667  0.35000000  1.0
  Ni  Ni369  1  0.08333333  0.16666667  0.38333333  1.0
  Ni  Ni370  1  0.08333333  0.50000000  0.38333333  1.0
  Ni  Ni371  1  0.08333333  0.83333333  0.38333333  1.0
  Ni  Ni372  1  0.41666667  0.16666667  0.38333333  1.0
  Ni  Ni373  1  0.41666667  0.50000000  0.38333333  1.0
  Ni  Ni374  1  0.41666667  0.83333333  0.38333333  1.0
  Ni  Ni375  1  0.75000000  0.16666667  0.38333333  1.0
  Ni  Ni376  1  0.75000000  0.50000000  0.38333333  1.0
  Ni  Ni377  1  0.75000000  0.83333333  0.38333333  1.0
  Ni  Ni378  1  0.25000000  0.00000000  0.35000000  1.0
  Ni  Ni379  1  0.25000000  0.33333333  0.35000000  1.0
  Ni  Ni380  1  0.25000000  0.66666667  0.35000000  1.0
  Ni  Ni381  1  0.58333333  0.00000000  0.35000000  1.0
  Ni  Ni382  1  0.58333333  0.33333333  0.35000000  1.0
  Ni  Ni383  1  0.58333333  0.66666667  0.35000000  1.0
  Ni  Ni384  1  0.91666667  0.00000000  0.35000000  1.0
  Ni  Ni385  1  0.91666667  0.33333333  0.35000000  1.0
  Ni  Ni386  1  0.91666667  0.66666667  0.35000000  1.0
  Ni  Ni387  1  0.25000000  0.16666667  0.38333333  1.0
  Ni  Ni388  1  0.25000000  0.50000000  0.38333333  1.0
  Ni  Ni389  1  0.25000000  0.83333333  0.38333333  1.0
  Ni  Ni390  1  0.58333333  0.16666667  0.38333333  1.0
  Ni  Ni391  1  0.58333333  0.50000000  0.38333333  1.0
  Ni  Ni392  1  0.58333333  0.83333333  0.38333333  1.0
  Ni  Ni393  1  0.91666667  0.16666667  0.38333333  1.0
  Ni  Ni394  1  0.91666667  0.50000000  0.38333333  1.0
  Ni  Ni395  1  0.91666667  0.83333333  0.38333333  1.0
  Ni  Ni396  1  0.16666667  0.00000000  0.38333333  1.0
  Ni  Ni397  1  0.16666667  0.33333333  0.38333333  1.0
  Ni  Ni398  1  0.16666667  0.66666667  0.38333333  1.0
  Ni  Ni399  1  0.50000000  0.00000000  0.38333333  1.0
  Ni  Ni400  1  0.50000000  0.33333333  0.38333333  1.0
  Ni  Ni401  1  0.50000000  0.66666667  0.38333333  1.0
  Ni  Ni402  1  0.83333333  0.00000000  0.38333333  1.0
  Ni  Ni403  1  0.83333333  0.33333333  0.38333333  1.0
  Ni  Ni404  1  0.83333333  0.66666667  0.38333333  1.0
  Ni  Ni405  1  0.16666667  0.16666667  0.35000000  1.0
  Ni  Ni406  1  0.16666667  0.50000000  0.35000000  1.0
  Ni  Ni407  1  0.16666667  0.83333333  0.35000000  1.0
  Ni  Ni408  1  0.50000000  0.16666667  0.35000000  1.0
  Ni  Ni409  1  0.50000000  0.50000000  0.35000000  1.0
  Ni  Ni410  1  0.50000000  0.83333333  0.35000000  1.0
  Ni  Ni411  1  0.83333333  0.16666667  0.35000000  1.0
  Ni  Ni412  1  0.83333333  0.50000000  0.35000000  1.0
  Ni  Ni413  1  0.83333333  0.83333333  0.35000000  1.0
  Au  Au414  1  0.00000000  0.16666667  0.35000000  1.0
  Au  Au415  1  0.00000000  0.50000000  0.35000000  1.0
  Au  Au416  1  0.00000000  0.83333333  0.35000000  1.0
  Au  Au417  1  0.33333333  0.16666667  0.35000000  1.0
  Au  Au418  1  0.33333333  0.50000000  0.35000000  1.0
  Au  Au419  1  0.33333333  0.83333333  0.35000000  1.0
  Au  Au420  1  0.66666667  0.16666667  0.35000000  1.0
  Au  Au421  1  0.66666667  0.50000000  0.35000000  1.0
  Au  Au422  1  0.66666667  0.83333333  0.35000000  1.0
  Au  Au423  1  0.00000000  0.00000000  0.38333333  1.0
  Au  Au424  1  0.00000000  0.33333333  0.38333333  1.0
  Au  Au425  1  0.00000000  0.66666667  0.38333333  1.0
  Au  Au426  1  0.33333333  0.00000000  0.38333333  1.0
  Au  Au427  1  0.33333333  0.33333333  0.38333333  1.0
  Au  Au428  1  0.33333333  0.66666667  0.38333333  1.0
  Au  Au429  1  0.66666667  0.00000000  0.38333333  1.0
  Au  Au430  1  0.66666667  0.33333333  0.38333333  1.0
  Au  Au431  1  0.66666667  0.66666667  0.38333333  1.0
