# generated using pymatgen
data_Ni3Ag
_symmetry_space_group_name_H-M   'P 1'
_cell_length_a   25.91251285
_cell_length_b   24.71979466
_cell_length_c   85.74086984
_cell_angle_alpha   155.91989705
_cell_angle_beta   99.98261017
_cell_angle_gamma   95.50448688
_symmetry_Int_Tables_number   1
_chemical_formula_structural   Ni3Ag
_chemical_formula_sum   'Ni432 Ag144'
_cell_volume   17092.95299118
_cell_formula_units_Z   144
loop_
 _symmetry_equiv_pos_site_id
 _symmetry_equiv_pos_as_xyz
  1  'x, y, z'
loop_
 _atom_site_type_symbol
 _atom_site_label
 _atom_site_symmetry_multiplicity
 _atom_site_fract_x
 _atom_site_fract_y
 _atom_site_fract_z
 _atom_site_occupancy
  Ni  Ni0  1  0.04166667  0.16666667  0.01644737  1.0
  Ni  Ni1  1  0.04166667  0.50000000  0.01644737  1.0
  Ni  Ni2  1  0.04166667  0.83333333  0.01644737  1.0
  Ni  Ni3  1  0.37500000  0.16666667  0.01644737  1.0
  Ni  Ni4  1  0.37500000  0.50000000  0.01644737  1.0
  Ni  Ni5  1  0.37500000  0.83333333  0.01644737  1.0
  Ni  Ni6  1  0.70833333  0.16666667  0.01644737  1.0
  Ni  Ni7  1  0.70833333  0.50000000  0.01644737  1.0
  Ni  Ni8  1  0.70833333  0.83333333  0.01644737  1.0
  Ni  Ni9  1  0.20833333  0.16666667  0.04276316  1.0
  Ni  Ni10  1  0.20833333  0.50000000  0.04276316  1.0
  Ni  Ni11  1  0.20833333  0.83333333  0.04276316  1.0
  Ni  Ni12  1  0.54166667  0.16666667  0.04276316  1.0
  Ni  Ni13  1  0.54166667  0.50000000  0.04276316  1.0
  Ni  Ni14  1  0.54166667  0.83333333  0.04276316  1.0
  Ni  Ni15  1  0.87500000  0.16666667  0.04276316  1.0
  Ni  Ni16  1  0.87500000  0.50000000  0.04276316  1.0
  Ni  Ni17  1  0.87500000  0.83333333  0.04276316  1.0
  Ni  Ni18  1  0.12500000  0.16666667  0.00328947  1.0
  Ni  Ni19  1  0.12500000  0.50000000  0.00328947  1.0
  Ni  Ni20  1  0.12500000  0.83333333  0.00328947  1.0
  Ni  Ni21  1  0.45833333  0.16666667  0.00328947  1.0
  Ni  Ni22  1  0.45833333  0.50000000  0.00328947  1.0
  Ni  Ni23  1  0.45833333  0.83333333  0.00328947  1.0
  Ni  Ni24  1  0.79166667  0.16666667  0.00328947  1.0
  Ni  Ni25  1  0.79166667  0.50000000  0.00328947  1.0
  Ni  Ni26  1  0.79166667  0.83333333  0.00328947  1.0
  Ni  Ni27  1  0.29166667  0.16666667  0.02960526  1.0
  Ni  Ni28  1  0.29166667  0.50000000  0.02960526  1.0
  Ni  Ni29  1  0.29166667  0.83333333  0.02960526  1.0
  Ni  Ni30  1  0.62500000  0.16666667  0.02960526  1.0
  Ni  Ni31  1  0.62500000  0.50000000  0.02960526  1.0
  Ni  Ni32  1  0.62500000  0.83333333  0.02960526  1.0
  Ni  Ni33  1  0.95833333  0.16666667  0.02960526  1.0
  Ni  Ni34  1  0.95833333  0.50000000  0.02960526  1.0
  Ni  Ni35  1  0.95833333  0.83333333  0.02960526  1.0
  Ni  Ni36  1  0.08333333  0.00000000  0.03618421  1.0
  Ni  Ni37  1  0.08333333  0.33333333  0.03618421  1.0
  Ni  Ni38  1  0.08333333  0.66666667  0.03618421  1.0
  Ni  Ni39  1  0.41666667  0.00000000  0.03618421  1.0
  Ni  Ni40  1  0.41666667  0.33333333  0.03618421  1.0
  Ni  Ni41  1  0.41666667  0.66666667  0.03618421  1.0
  Ni  Ni42  1  0.75000000  0.00000000  0.03618421  1.0
  Ni  Ni43  1  0.75000000  0.33333333  0.03618421  1.0
  Ni  Ni44  1  0.75000000  0.66666667  0.03618421  1.0
  Ni  Ni45  1  0.25000000  0.00000000  0.00986842  1.0
  Ni  Ni46  1  0.25000000  0.33333333  0.00986842  1.0
  Ni  Ni47  1  0.25000000  0.66666667  0.00986842  1.0
  Ni  Ni48  1  0.58333333  0.00000000  0.00986842  1.0
  Ni  Ni49  1  0.58333333  0.33333333  0.00986842  1.0
  Ni  Ni50  1  0.58333333  0.66666667  0.00986842  1.0
  Ni  Ni51  1  0.91666667  0.00000000  0.00986842  1.0
  Ni  Ni52  1  0.91666667  0.33333333  0.00986842  1.0
  Ni  Ni53  1  0.91666667  0.66666667  0.00986842  1.0
  Ag  Ag54  1  0.00000000  0.00000000  0.04934211  1.0
  Ag  Ag55  1  0.00000000  0.33333333  0.04934211  1.0
  Ag  Ag56  1  0.00000000  0.66666667  0.04934211  1.0
  Ag  Ag57  1  0.33333333  0.00000000  0.04934211  1.0
  Ag  Ag58  1  0.33333333  0.33333333  0.04934211  1.0
  Ag  Ag59  1  0.33333333  0.66666667  0.04934211  1.0
  Ag  Ag60  1  0.66666667  0.00000000  0.04934211  1.0
  Ag  Ag61  1  0.66666667  0.33333333  0.04934211  1.0
  Ag  Ag62  1  0.66666667  0.66666667  0.04934211  1.0
  Ag  Ag63  1  0.16666667  0.00000000  0.02302632  1.0
  Ag  Ag64  1  0.16666667  0.33333333  0.02302632  1.0
  Ag  Ag65  1  0.16666667  0.66666667  0.02302632  1.0
  Ag  Ag66  1  0.50000000  0.00000000  0.02302632  1.0
  Ag  Ag67  1  0.50000000  0.33333333  0.02302632  1.0
  Ag  Ag68  1  0.50000000  0.66666667  0.02302632  1.0
  Ag  Ag69  1  0.83333333  0.00000000  0.02302632  1.0
  Ag  Ag70  1  0.83333333  0.33333333  0.02302632  1.0
  Ag  Ag71  1  0.83333333  0.66666667  0.02302632  1.0
  Ni  Ni72  1  0.04166667  0.16666667  0.06907895  1.0
  Ni  Ni73  1  0.04166667  0.50000000  0.06907895  1.0
  Ni  Ni74  1  0.04166667  0.83333333  0.06907895  1.0
  Ni  Ni75  1  0.37500000  0.16666667  0.06907895  1.0
  Ni  Ni76  1  0.37500000  0.50000000  0.06907895  1.0
  Ni  Ni77  1  0.37500000  0.83333333  0.06907895  1.0
  Ni  Ni78  1  0.70833333  0.16666667  0.06907895  1.0
  Ni  Ni79  1  0.70833333  0.50000000  0.06907895  1.0
  Ni  Ni80  1  0.70833333  0.83333333  0.06907895  1.0
  Ni  Ni81  1  0.20833333  0.16666667  0.09539474  1.0
  Ni  Ni82  1  0.20833333  0.50000000  0.09539474  1.0
  Ni  Ni83  1  0.20833333  0.83333333  0.09539474  1.0
  Ni  Ni84  1  0.54166667  0.16666667  0.09539474  1.0
  Ni  Ni85  1  0.54166667  0.50000000  0.09539474  1.0
  Ni  Ni86  1  0.54166667  0.83333333  0.09539474  1.0
  Ni  Ni87  1  0.87500000  0.16666667  0.09539474  1.0
  Ni  Ni88  1  0.87500000  0.50000000  0.09539474  1.0
  Ni  Ni89  1  0.87500000  0.83333333  0.09539474  1.0
  Ni  Ni90  1  0.12500000  0.16666667  0.05592105  1.0
  Ni  Ni91  1  0.12500000  0.50000000  0.05592105  1.0
  Ni  Ni92  1  0.12500000  0.83333333  0.05592105  1.0
  Ni  Ni93  1  0.45833333  0.16666667  0.05592105  1.0
  Ni  Ni94  1  0.45833333  0.50000000  0.05592105  1.0
  Ni  Ni95  1  0.45833333  0.83333333  0.05592105  1.0
  Ni  Ni96  1  0.79166667  0.16666667  0.05592105  1.0
  Ni  Ni97  1  0.79166667  0.50000000  0.05592105  1.0
  Ni  Ni98  1  0.79166667  0.83333333  0.05592105  1.0
  Ni  Ni99  1  0.29166667  0.16666667  0.08223684  1.0
  Ni  Ni100  1  0.29166667  0.50000000  0.08223684  1.0
  Ni  Ni101  1  0.29166667  0.83333333  0.08223684  1.0
  Ni  Ni102  1  0.62500000  0.16666667  0.08223684  1.0
  Ni  Ni103  1  0.62500000  0.50000000  0.08223684  1.0
  Ni  Ni104  1  0.62500000  0.83333333  0.08223684  1.0
  Ni  Ni105  1  0.95833333  0.16666667  0.08223684  1.0
  Ni  Ni106  1  0.95833333  0.50000000  0.08223684  1.0
  Ni  Ni107  1  0.95833333  0.83333333  0.08223684  1.0
  Ni  Ni108  1  0.08333333  0.00000000  0.08881579  1.0
  Ni  Ni109  1  0.08333333  0.33333333  0.08881579  1.0
  Ni  Ni110  1  0.08333333  0.66666667  0.08881579  1.0
  Ni  Ni111  1  0.41666667  0.00000000  0.08881579  1.0
  Ni  Ni112  1  0.41666667  0.33333333  0.08881579  1.0
  Ni  Ni113  1  0.41666667  0.66666667  0.08881579  1.0
  Ni  Ni114  1  0.75000000  0.00000000  0.08881579  1.0
  Ni  Ni115  1  0.75000000  0.33333333  0.08881579  1.0
  Ni  Ni116  1  0.75000000  0.66666667  0.08881579  1.0
  Ni  Ni117  1  0.25000000  0.00000000  0.06250000  1.0
  Ni  Ni118  1  0.25000000  0.33333333  0.06250000  1.0
  Ni  Ni119  1  0.25000000  0.66666667  0.06250000  1.0
  Ni  Ni120  1  0.58333333  0.00000000  0.06250000  1.0
  Ni  Ni121  1  0.58333333  0.33333333  0.06250000  1.0
  Ni  Ni122  1  0.58333333  0.66666667  0.06250000  1.0
  Ni  Ni123  1  0.91666667  0.00000000  0.06250000  1.0
  Ni  Ni124  1  0.91666667  0.33333333  0.06250000  1.0
  Ni  Ni125  1  0.91666667  0.66666667  0.06250000  1.0
  Ag  Ag126  1  0.00000000  0.00000000  0.10197368  1.0
  Ag  Ag127  1  0.00000000  0.33333333  0.10197368  1.0
  Ag  Ag128  1  0.00000000  0.66666667  0.10197368  1.0
  Ag  Ag129  1  0.33333333  0.00000000  0.10197368  1.0
  Ag  Ag130  1  0.33333333  0.33333333  0.10197368  1.0
  Ag  Ag131  1  0.33333333  0.66666667  0.10197368  1.0
  Ag  Ag132  1  0.66666667  0.00000000  0.10197368  1.0
  Ag  Ag133  1  0.66666667  0.33333333  0.10197368  1.0
  Ag  Ag134  1  0.66666667  0.66666667  0.10197368  1.0
  Ag  Ag135  1  0.16666667  0.00000000  0.07565789  1.0
  Ag  Ag136  1  0.16666667  0.33333333  0.07565789  1.0
  Ag  Ag137  1  0.16666667  0.66666667  0.07565789  1.0
  Ag  Ag138  1  0.50000000  0.00000000  0.07565789  1.0
  Ag  Ag139  1  0.50000000  0.33333333  0.07565789  1.0
  Ag  Ag140  1  0.50000000  0.66666667  0.07565789  1.0
  Ag  Ag141  1  0.83333333  0.00000000  0.07565789  1.0
  Ag  Ag142  1  0.83333333  0.33333333  0.07565789  1.0
  Ag  Ag143  1  0.83333333  0.66666667  0.07565789  1.0
  Ni  Ni144  1  0.04166667  0.16666667  0.12171053  1.0
  Ni  Ni145  1  0.04166667  0.50000000  0.12171053  1.0
  Ni  Ni146  1  0.04166667  0.83333333  0.12171053  1.0
  Ni  Ni147  1  0.37500000  0.16666667  0.12171053  1.0
  Ni  Ni148  1  0.37500000  0.50000000  0.12171053  1.0
  Ni  Ni149  1  0.37500000  0.83333333  0.12171053  1.0
  Ni  Ni150  1  0.70833333  0.16666667  0.12171053  1.0
  Ni  Ni151  1  0.70833333  0.50000000  0.12171053  1.0
  Ni  Ni152  1  0.70833333  0.83333333  0.12171053  1.0
  Ni  Ni153  1  0.20833333  0.16666667  0.14802632  1.0
  Ni  Ni154  1  0.20833333  0.50000000  0.14802632  1.0
  Ni  Ni155  1  0.20833333  0.83333333  0.14802632  1.0
  Ni  Ni156  1  0.54166667  0.16666667  0.14802632  1.0
  Ni  Ni157  1  0.54166667  0.50000000  0.14802632  1.0
  Ni  Ni158  1  0.54166667  0.83333333  0.14802632  1.0
  Ni  Ni159  1  0.87500000  0.16666667  0.14802632  1.0
  Ni  Ni160  1  0.87500000  0.50000000  0.14802632  1.0
  Ni  Ni161  1  0.87500000  0.83333333  0.14802632  1.0
  Ni  Ni162  1  0.12500000  0.16666667  0.10855263  1.0
  Ni  Ni163  1  0.12500000  0.50000000  0.10855263  1.0
  Ni  Ni164  1  0.12500000  0.83333333  0.10855263  1.0
  Ni  Ni165  1  0.45833333  0.16666667  0.10855263  1.0
  Ni  Ni166  1  0.45833333  0.50000000  0.10855263  1.0
  Ni  Ni167  1  0.45833333  0.83333333  0.10855263  1.0
  Ni  Ni168  1  0.79166667  0.16666667  0.10855263  1.0
  Ni  Ni169  1  0.79166667  0.50000000  0.10855263  1.0
  Ni  Ni170  1  0.79166667  0.83333333  0.10855263  1.0
  Ni  Ni171  1  0.29166667  0.16666667  0.13486842  1.0
  Ni  Ni172  1  0.29166667  0.50000000  0.13486842  1.0
  Ni  Ni173  1  0.29166667  0.83333333  0.13486842  1.0
  Ni  Ni174  1  0.62500000  0.16666667  0.13486842  1.0
  Ni  Ni175  1  0.62500000  0.50000000  0.13486842  1.0
  Ni  Ni176  1  0.62500000  0.83333333  0.13486842  1.0
  Ni  Ni177  1  0.95833333  0.16666667  0.13486842  1.0
  Ni  Ni178  1  0.95833333  0.50000000  0.13486842  1.0
  Ni  Ni179  1  0.95833333  0.83333333  0.13486842  1.0
  Ni  Ni180  1  0.08333333  0.00000000  0.14144737  1.0
  Ni  Ni181  1  0.08333333  0.33333333  0.14144737  1.0
  Ni  Ni182  1  0.08333333  0.66666667  0.14144737  1.0
  Ni  Ni183  1  0.41666667  0.00000000  0.14144737  1.0
  Ni  Ni184  1  0.41666667  0.33333333  0.14144737  1.0
  Ni  Ni185  1  0.41666667  0.66666667  0.14144737  1.0
  Ni  Ni186  1  0.75000000  0.00000000  0.14144737  1.0
  Ni  Ni187  1  0.75000000  0.33333333  0.14144737  1.0
  Ni  Ni188  1  0.75000000  0.66666667  0.14144737  1.0
  Ni  Ni189  1  0.25000000  0.00000000  0.11513158  1.0
  Ni  Ni190  1  0.25000000  0.33333333  0.11513158  1.0
  Ni  Ni191  1  0.25000000  0.66666667  0.11513158  1.0
  Ni  Ni192  1  0.58333333  0.00000000  0.11513158  1.0
  Ni  Ni193  1  0.58333333  0.33333333  0.11513158  1.0
  Ni  Ni194  1  0.58333333  0.66666667  0.11513158  1.0
  Ni  Ni195  1  0.91666667  0.00000000  0.11513158  1.0
  Ni  Ni196  1  0.91666667  0.33333333  0.11513158  1.0
  Ni  Ni197  1  0.91666667  0.66666667  0.11513158  1.0
  Ag  Ag198  1  0.00000000  0.00000000  0.15460526  1.0
  Ag  Ag199  1  0.00000000  0.33333333  0.15460526  1.0
  Ag  Ag200  1  0.00000000  0.66666667  0.15460526  1.0
  Ag  Ag201  1  0.33333333  0.00000000  0.15460526  1.0
  Ag  Ag202  1  0.33333333  0.33333333  0.15460526  1.0
  Ag  Ag203  1  0.33333333  0.66666667  0.15460526  1.0
  Ag  Ag204  1  0.66666667  0.00000000  0.15460526  1.0
  Ag  Ag205  1  0.66666667  0.33333333  0.15460526  1.0
  Ag  Ag206  1  0.66666667  0.66666667  0.15460526  1.0
  Ag  Ag207  1  0.16666667  0.00000000  0.12828947  1.0
  Ag  Ag208  1  0.16666667  0.33333333  0.12828947  1.0
  Ag  Ag209  1  0.16666667  0.66666667  0.12828947  1.0
  Ag  Ag210  1  0.50000000  0.00000000  0.12828947  1.0
  Ag  Ag211  1  0.50000000  0.33333333  0.12828947  1.0
  Ag  Ag212  1  0.50000000  0.66666667  0.12828947  1.0
  Ag  Ag213  1  0.83333333  0.00000000  0.12828947  1.0
  Ag  Ag214  1  0.83333333  0.33333333  0.12828947  1.0
  Ag  Ag215  1  0.83333333  0.66666667  0.12828947  1.0
  Ni  Ni216  1  0.04166667  0.16666667  0.17434211  1.0
  Ni  Ni217  1  0.04166667  0.50000000  0.17434211  1.0
  Ni  Ni218  1  0.04166667  0.83333333  0.17434211  1.0
  Ni  Ni219  1  0.37500000  0.16666667  0.17434211  1.0
  Ni  Ni220  1  0.37500000  0.50000000  0.17434211  1.0
  Ni  Ni221  1  0.37500000  0.83333333  0.17434211  1.0
  Ni  Ni222  1  0.70833333  0.16666667  0.17434211  1.0
  Ni  Ni223  1  0.70833333  0.50000000  0.17434211  1.0
  Ni  Ni224  1  0.70833333  0.83333333  0.17434211  1.0
  Ni  Ni225  1  0.20833333  0.16666667  0.20065789  1.0
  Ni  Ni226  1  0.20833333  0.50000000  0.20065789  1.0
  Ni  Ni227  1  0.20833333  0.83333333  0.20065789  1.0
  Ni  Ni228  1  0.54166667  0.16666667  0.20065789  1.0
  Ni  Ni229  1  0.54166667  0.50000000  0.20065789  1.0
  Ni  Ni230  1  0.54166667  0.83333333  0.20065789  1.0
  Ni  Ni231  1  0.87500000  0.16666667  0.20065789  1.0
  Ni  Ni232  1  0.87500000  0.50000000  0.20065789  1.0
  Ni  Ni233  1  0.87500000  0.83333333  0.20065789  1.0
  Ni  Ni234  1  0.12500000  0.16666667  0.16118421  1.0
  Ni  Ni235  1  0.12500000  0.50000000  0.16118421  1.0
  Ni  Ni236  1  0.12500000  0.83333333  0.16118421  1.0
  Ni  Ni237  1  0.45833333  0.16666667  0.16118421  1.0
  Ni  Ni238  1  0.45833333  0.50000000  0.16118421  1.0
  Ni  Ni239  1  0.45833333  0.83333333  0.16118421  1.0
  Ni  Ni240  1  0.79166667  0.16666667  0.16118421  1.0
  Ni  Ni241  1  0.79166667  0.50000000  0.16118421  1.0
  Ni  Ni242  1  0.79166667  0.83333333  0.16118421  1.0
  Ni  Ni243  1  0.29166667  0.16666667  0.18750000  1.0
  Ni  Ni244  1  0.29166667  0.50000000  0.18750000  1.0
  Ni  Ni245  1  0.29166667  0.83333333  0.18750000  1.0
  Ni  Ni246  1  0.62500000  0.16666667  0.18750000  1.0
  Ni  Ni247  1  0.62500000  0.50000000  0.18750000  1.0
  Ni  Ni248  1  0.62500000  0.83333333  0.18750000  1.0
  Ni  Ni249  1  0.95833333  0.16666667  0.18750000  1.0
  Ni  Ni250  1  0.95833333  0.50000000  0.18750000  1.0
  Ni  Ni251  1  0.95833333  0.83333333  0.18750000  1.0
  Ni  Ni252  1  0.08333333  0.00000000  0.19407895  1.0
  Ni  Ni253  1  0.08333333  0.33333333  0.19407895  1.0
  Ni  Ni254  1  0.08333333  0.66666667  0.19407895  1.0
  Ni  Ni255  1  0.41666667  0.00000000  0.19407895  1.0
  Ni  Ni256  1  0.41666667  0.33333333  0.19407895  1.0
  Ni  Ni257  1  0.41666667  0.66666667  0.19407895  1.0
  Ni  Ni258  1  0.75000000  0.00000000  0.19407895  1.0
  Ni  Ni259  1  0.75000000  0.33333333  0.19407895  1.0
  Ni  Ni260  1  0.75000000  0.66666667  0.19407895  1.0
  Ni  Ni261  1  0.25000000  0.00000000  0.16776316  1.0
  Ni  Ni262  1  0.25000000  0.33333333  0.16776316  1.0
  Ni  Ni263  1  0.25000000  0.66666667  0.16776316  1.0
  Ni  Ni264  1  0.58333333  0.00000000  0.16776316  1.0
  Ni  Ni265  1  0.58333333  0.33333333  0.16776316  1.0
  Ni  Ni266  1  0.58333333  0.66666667  0.16776316  1.0
  Ni  Ni267  1  0.91666667  0.00000000  0.16776316  1.0
  Ni  Ni268  1  0.91666667  0.33333333  0.16776316  1.0
  Ni  Ni269  1  0.91666667  0.66666667  0.16776316  1.0
  Ag  Ag270  1  0.00000000  0.00000000  0.20723684  1.0
  Ag  Ag271  1  0.00000000  0.33333333  0.20723684  1.0
  Ag  Ag272  1  0.00000000  0.66666667  0.20723684  1.0
  Ag  Ag273  1  0.33333333  0.00000000  0.20723684  1.0
  Ag  Ag274  1  0.33333333  0.33333333  0.20723684  1.0
  Ag  Ag275  1  0.33333333  0.66666667  0.20723684  1.0
  Ag  Ag276  1  0.66666667  0.00000000  0.20723684  1.0
  Ag  Ag277  1  0.66666667  0.33333333  0.20723684  1.0
  Ag  Ag278  1  0.66666667  0.66666667  0.20723684  1.0
  Ag  Ag279  1  0.16666667  0.00000000  0.18092105  1.0
  Ag  Ag280  1  0.16666667  0.33333333  0.18092105  1.0
  Ag  Ag281  1  0.16666667  0.66666667  0.18092105  1.0
  Ag  Ag282  1  0.50000000  0.00000000  0.18092105  1.0
  Ag  Ag283  1  0.50000000  0.33333333  0.18092105  1.0
  Ag  Ag284  1  0.50000000  0.66666667  0.18092105  1.0
  Ag  Ag285  1  0.83333333  0.00000000  0.18092105  1.0
  Ag  Ag286  1  0.83333333  0.33333333  0.18092105  1.0
  Ag  Ag287  1  0.83333333  0.66666667  0.18092105  1.0
  Ni  Ni288  1  0.04166667  0.16666667  0.22697368  1.0
  Ni  Ni289  1  0.04166667  0.50000000  0.22697368  1.0
  Ni  Ni290  1  0.04166667  0.83333333  0.22697368  1.0
  Ni  Ni291  1  0.37500000  0.16666667  0.22697368  1.0
  Ni  Ni292  1  0.37500000  0.50000000  0.22697368  1.0
  Ni  Ni293  1  0.37500000  0.83333333  0.22697368  1.0
  Ni  Ni294  1  0.70833333  0.16666667  0.22697368  1.0
  Ni  Ni295  1  0.70833333  0.50000000  0.22697368  1.0
  Ni  Ni296  1  0.70833333  0.83333333  0.22697368  1.0
  Ni  Ni297  1  0.20833333  0.16666667  0.25328947  1.0
  Ni  Ni298  1  0.20833333  0.50000000  0.25328947  1.0
  Ni  Ni299  1  0.20833333  0.83333333  0.25328947  1.0
  Ni  Ni300  1  0.54166667  0.16666667  0.25328947  1.0
  Ni  Ni301  1  0.54166667  0.50000000  0.25328947  1.0
  Ni  Ni302  1  0.54166667  0.83333333  0.25328947  1.0
  Ni  Ni303  1  0.87500000  0.16666667  0.25328947  1.0
  Ni  Ni304  1  0.87500000  0.50000000  0.25328947  1.0
  Ni  Ni305  1  0.87500000  0.83333333  0.25328947  1.0
  Ni  Ni306  1  0.12500000  0.16666667  0.21381579  1.0
  Ni  Ni307  1  0.12500000  0.50000000  0.21381579  1.0
  Ni  Ni308  1  0.12500000  0.83333333  0.21381579  1.0
  Ni  Ni309  1  0.45833333  0.16666667  0.21381579  1.0
  Ni  Ni310  1  0.45833333  0.50000000  0.21381579  1.0
  Ni  Ni311  1  0.45833333  0.83333333  0.21381579  1.0
  Ni  Ni312  1  0.79166667  0.16666667  0.21381579  1.0
  Ni  Ni313  1  0.79166667  0.50000000  0.21381579  1.0
  Ni  Ni314  1  0.79166667  0.83333333  0.21381579  1.0
  Ni  Ni315  1  0.29166667  0.16666667  0.24013158  1.0
  Ni  Ni316  1  0.29166667  0.50000000  0.24013158  1.0
  Ni  Ni317  1  0.29166667  0.83333333  0.24013158  1.0
  Ni  Ni318  1  0.62500000  0.16666667  0.24013158  1.0
  Ni  Ni319  1  0.62500000  0.50000000  0.24013158  1.0
  Ni  Ni320  1  0.62500000  0.83333333  0.24013158  1.0
  Ni  Ni321  1  0.95833333  0.16666667  0.24013158  1.0
  Ni  Ni322  1  0.95833333  0.50000000  0.24013158  1.0
  Ni  Ni323  1  0.95833333  0.83333333  0.24013158  1.0
  Ni  Ni324  1  0.08333333  0.00000000  0.24671053  1.0
  Ni  Ni325  1  0.08333333  0.33333333  0.24671053  1.0
  Ni  Ni326  1  0.08333333  0.66666667  0.24671053  1.0
  Ni  Ni327  1  0.41666667  0.00000000  0.24671053  1.0
  Ni  Ni328  1  0.41666667  0.33333333  0.24671053  1.0
  Ni  Ni329  1  0.41666667  0.66666667  0.24671053  1.0
  Ni  Ni330  1  0.75000000  0.00000000  0.24671053  1.0
  Ni  Ni331  1  0.75000000  0.33333333  0.24671053  1.0
  Ni  Ni332  1  0.75000000  0.66666667  0.24671053  1.0
  Ni  Ni333  1  0.25000000  0.00000000  0.22039474  1.0
  Ni  Ni334  1  0.25000000  0.33333333  0.22039474  1.0
  Ni  Ni335  1  0.25000000  0.66666667  0.22039474  1.0
  Ni  Ni336  1  0.58333333  0.00000000  0.22039474  1.0
  Ni  Ni337  1  0.58333333  0.33333333  0.22039474  1.0
  Ni  Ni338  1  0.58333333  0.66666667  0.22039474  1.0
  Ni  Ni339  1  0.91666667  0.00000000  0.22039474  1.0
  Ni  Ni340  1  0.91666667  0.33333333  0.22039474  1.0
  Ni  Ni341  1  0.91666667  0.66666667  0.22039474  1.0
  Ag  Ag342  1  0.00000000  0.00000000  0.25986842  1.0
  Ag  Ag343  1  0.00000000  0.33333333  0.25986842  1.0
  Ag  Ag344  1  0.00000000  0.66666667  0.25986842  1.0
  Ag  Ag345  1  0.33333333  0.00000000  0.25986842  1.0
  Ag  Ag346  1  0.33333333  0.33333333  0.25986842  1.0
  Ag  Ag347  1  0.33333333  0.66666667  0.25986842  1.0
  Ag  Ag348  1  0.66666667  0.00000000  0.25986842  1.0
  Ag  Ag349  1  0.66666667  0.33333333  0.25986842  1.0
  Ag  Ag350  1  0.66666667  0.66666667  0.25986842  1.0
  Ag  Ag351  1  0.16666667  0.00000000  0.23355263  1.0
  Ag  Ag352  1  0.16666667  0.33333333  0.23355263  1.0
  Ag  Ag353  1  0.16666667  0.66666667  0.23355263  1.0
  Ag  Ag354  1  0.50000000  0.00000000  0.23355263  1.0
  Ag  Ag355  1  0.50000000  0.33333333  0.23355263  1.0
  Ag  Ag356  1  0.50000000  0.66666667  0.23355263  1.0
  Ag  Ag357  1  0.83333333  0.00000000  0.23355263  1.0
  Ag  Ag358  1  0.83333333  0.33333333  0.23355263  1.0
  Ag  Ag359  1  0.83333333  0.66666667  0.23355263  1.0
  Ni  Ni360  1  0.04166667  0.16666667  0.27960526  1.0
  Ni  Ni361  1  0.04166667  0.50000000  0.27960526  1.0
  Ni  Ni362  1  0.04166667  0.83333333  0.27960526  1.0
  Ni  Ni363  1  0.37500000  0.16666667  0.27960526  1.0
  Ni  Ni364  1  0.37500000  0.50000000  0.27960526  1.0
  Ni  Ni365  1  0.37500000  0.83333333  0.27960526  1.0
  Ni  Ni366  1  0.70833333  0.16666667  0.27960526  1.0
  Ni  Ni367  1  0.70833333  0.50000000  0.27960526  1.0
  Ni  Ni368  1  0.70833333  0.83333333  0.27960526  1.0
  Ni  Ni369  1  0.20833333  0.16666667  0.30592105  1.0
  Ni  Ni370  1  0.20833333  0.50000000  0.30592105  1.0
  Ni  Ni371  1  0.20833333  0.83333333  0.30592105  1.0
  Ni  Ni372  1  0.54166667  0.16666667  0.30592105  1.0
  Ni  Ni373  1  0.54166667  0.50000000  0.30592105  1.0
  Ni  Ni374  1  0.54166667  0.83333333  0.30592105  1.0
  Ni  Ni375  1  0.87500000  0.16666667  0.30592105  1.0
  Ni  Ni376  1  0.87500000  0.50000000  0.30592105  1.0
  Ni  Ni377  1  0.87500000  0.83333333  0.30592105  1.0
  Ni  Ni378  1  0.12500000  0.16666667  0.26644737  1.0
  Ni  Ni379  1  0.12500000  0.50000000  0.26644737  1.0
  Ni  Ni380  1  0.12500000  0.83333333  0.26644737  1.0
  Ni  Ni381  1  0.45833333  0.16666667  0.26644737  1.0
  Ni  Ni382  1  0.45833333  0.50000000  0.26644737  1.0
  Ni  Ni383  1  0.45833333  0.83333333  0.26644737  1.0
  Ni  Ni384  1  0.79166667  0.16666667  0.26644737  1.0
  Ni  Ni385  1  0.79166667  0.50000000  0.26644737  1.0
  Ni  Ni386  1  0.79166667  0.83333333  0.26644737  1.0
  Ni  Ni387  1  0.29166667  0.16666667  0.29276316  1.0
  Ni  Ni388  1  0.29166667  0.50000000  0.29276316  1.0
  Ni  Ni389  1  0.29166667  0.83333333  0.29276316  1.0
  Ni  Ni390  1  0.62500000  0.16666667  0.29276316  1.0
  Ni  Ni391  1  0.62500000  0.50000000  0.29276316  1.0
  Ni  Ni392  1  0.62500000  0.83333333  0.29276316  1.0
  Ni  Ni393  1  0.95833333  0.16666667  0.29276316  1.0
  Ni  Ni394  1  0.95833333  0.50000000  0.29276316  1.0
  Ni  Ni395  1  0.95833333  0.83333333  0.29276316  1.0
  Ni  Ni396  1  0.08333333  0.00000000  0.29934211  1.0
  Ni  Ni397  1  0.08333333  0.33333333  0.29934211  1.0
  Ni  Ni398  1  0.08333333  0.66666667  0.29934211  1.0
  Ni  Ni399  1  0.41666667  0.00000000  0.29934211  1.0
  Ni  Ni400  1  0.41666667  0.33333333  0.29934211  1.0
  Ni  Ni401  1  0.41666667  0.66666667  0.29934211  1.0
  Ni  Ni402  1  0.75000000  0.00000000  0.29934211  1.0
  Ni  Ni403  1  0.75000000  0.33333333  0.29934211  1.0
  Ni  Ni404  1  0.75000000  0.66666667  0.29934211  1.0
  Ni  Ni405  1  0.25000000  0.00000000  0.27302632  1.0
  Ni  Ni406  1  0.25000000  0.33333333  0.27302632  1.0
  Ni  Ni407  1  0.25000000  0.66666667  0.27302632  1.0
  Ni  Ni408  1  0.58333333  0.00000000  0.27302632  1.0
  Ni  Ni409  1  0.58333333  0.33333333  0.27302632  1.0
  Ni  Ni410  1  0.58333333  0.66666667  0.27302632  1.0
  Ni  Ni411  1  0.91666667  0.00000000  0.27302632  1.0
  Ni  Ni412  1  0.91666667  0.33333333  0.27302632  1.0
  Ni  Ni413  1  0.91666667  0.66666667  0.27302632  1.0
  Ag  Ag414  1  0.00000000  0.00000000  0.31250000  1.0
  Ag  Ag415  1  0.00000000  0.33333333  0.31250000  1.0
  Ag  Ag416  1  0.00000000  0.66666667  0.31250000  1.0
  Ag  Ag417  1  0.33333333  0.00000000  0.31250000  1.0
  Ag  Ag418  1  0.33333333  0.33333333  0.31250000  1.0
  Ag  Ag419  1  0.33333333  0.66666667  0.31250000  1.0
  Ag  Ag420  1  0.66666667  0.00000000  0.31250000  1.0
  Ag  Ag421  1  0.66666667  0.33333333  0.31250000  1.0
  Ag  Ag422  1  0.66666667  0.66666667  0.31250000  1.0
  Ag  Ag423  1  0.16666667  0.00000000  0.28618421  1.0
  Ag  Ag424  1  0.16666667  0.33333333  0.28618421  1.0
  Ag  Ag425  1  0.16666667  0.66666667  0.28618421  1.0
  Ag  Ag426  1  0.50000000  0.00000000  0.28618421  1.0
  Ag  Ag427  1  0.50000000  0.33333333  0.28618421  1.0
  Ag  Ag428  1  0.50000000  0.66666667  0.28618421  1.0
  Ag  Ag429  1  0.83333333  0.00000000  0.28618421  1.0
  Ag  Ag430  1  0.83333333  0.33333333  0.28618421  1.0
  Ag  Ag431  1  0.83333333  0.66666667  0.28618421  1.0
  Ni  Ni432  1  0.04166667  0.16666667  0.33223684  1.0
  Ni  Ni433  1  0.04166667  0.50000000  0.33223684  1.0
  Ni  Ni434  1  0.04166667  0.83333333  0.33223684  1.0
  Ni  Ni435  1  0.37500000  0.16666667  0.33223684  1.0
  Ni  Ni436  1  0.37500000  0.50000000  0.33223684  1.0
  Ni  Ni437  1  0.37500000  0.83333333  0.33223684  1.0
  Ni  Ni438  1  0.70833333  0.16666667  0.33223684  1.0
  Ni  Ni439  1  0.70833333  0.50000000  0.33223684  1.0
  Ni  Ni440  1  0.70833333  0.83333333  0.33223684  1.0
  Ni  Ni441  1  0.20833333  0.16666667  0.35855263  1.0
  Ni  Ni442  1  0.20833333  0.50000000  0.35855263  1.0
  Ni  Ni443  1  0.20833333  0.83333333  0.35855263  1.0
  Ni  Ni444  1  0.54166667  0.16666667  0.35855263  1.0
  Ni  Ni445  1  0.54166667  0.50000000  0.35855263  1.0
  Ni  Ni446  1  0.54166667  0.83333333  0.35855263  1.0
  Ni  Ni447  1  0.87500000  0.16666667  0.35855263  1.0
  Ni  Ni448  1  0.87500000  0.50000000  0.35855263  1.0
  Ni  Ni449  1  0.87500000  0.83333333  0.35855263  1.0
  Ni  Ni450  1  0.12500000  0.16666667  0.31907895  1.0
  Ni  Ni451  1  0.12500000  0.50000000  0.31907895  1.0
  Ni  Ni452  1  0.12500000  0.83333333  0.31907895  1.0
  Ni  Ni453  1  0.45833333  0.16666667  0.31907895  1.0
  Ni  Ni454  1  0.45833333  0.50000000  0.31907895  1.0
  Ni  Ni455  1  0.45833333  0.83333333  0.31907895  1.0
  Ni  Ni456  1  0.79166667  0.16666667  0.31907895  1.0
  Ni  Ni457  1  0.79166667  0.50000000  0.31907895  1.0
  Ni  Ni458  1  0.79166667  0.83333333  0.31907895  1.0
  Ni  Ni459  1  0.29166667  0.16666667  0.34539474  1.0
  Ni  Ni460  1  0.29166667  0.50000000  0.34539474  1.0
  Ni  Ni461  1  0.29166667  0.83333333  0.34539474  1.0
  Ni  Ni462  1  0.62500000  0.16666667  0.34539474  1.0
  Ni  Ni463  1  0.62500000  0.50000000  0.34539474  1.0
  Ni  Ni464  1  0.62500000  0.83333333  0.34539474  1.0
  Ni  Ni465  1  0.95833333  0.16666667  0.34539474  1.0
  Ni  Ni466  1  0.95833333  0.50000000  0.34539474  1.0
  Ni  Ni467  1  0.95833333  0.83333333  0.34539474  1.0
  Ni  Ni468  1  0.08333333  0.00000000  0.35197368  1.0
  Ni  Ni469  1  0.08333333  0.33333333  0.35197368  1.0
  Ni  Ni470  1  0.08333333  0.66666667  0.35197368  1.0
  Ni  Ni471  1  0.41666667  0.00000000  0.35197368  1.0
  Ni  Ni472  1  0.41666667  0.33333333  0.35197368  1.0
  Ni  Ni473  1  0.41666667  0.66666667  0.35197368  1.0
  Ni  Ni474  1  0.75000000  0.00000000  0.35197368  1.0
  Ni  Ni475  1  0.75000000  0.33333333  0.35197368  1.0
  Ni  Ni476  1  0.75000000  0.66666667  0.35197368  1.0
  Ni  Ni477  1  0.25000000  0.00000000  0.32565789  1.0
  Ni  Ni478  1  0.25000000  0.33333333  0.32565789  1.0
  Ni  Ni479  1  0.25000000  0.66666667  0.32565789  1.0
  Ni  Ni480  1  0.58333333  0.00000000  0.32565789  1.0
  Ni  Ni481  1  0.58333333  0.33333333  0.32565789  1.0
  Ni  Ni482  1  0.58333333  0.66666667  0.32565789  1.0
  Ni  Ni483  1  0.91666667  0.00000000  0.32565789  1.0
  Ni  Ni484  1  0.91666667  0.33333333  0.32565789  1.0
  Ni  Ni485  1  0.91666667  0.66666667  0.32565789  1.0
  Ag  Ag486  1  0.00000000  0.00000000  0.36513158  1.0
  Ag  Ag487  1  0.00000000  0.33333333  0.36513158  1.0
  Ag  Ag488  1  0.00000000  0.66666667  0.36513158  1.0
  Ag  Ag489  1  0.33333333  0.00000000  0.36513158  1.0
  Ag  Ag490  1  0.33333333  0.33333333  0.36513158  1.0
  Ag  Ag491  1  0.33333333  0.66666667  0.36513158  1.0
  Ag  Ag492  1  0.66666667  0.00000000  0.36513158  1.0
  Ag  Ag493  1  0.66666667  0.33333333  0.36513158  1.0
  Ag  Ag494  1  0.66666667  0.66666667  0.36513158  1.0
  Ag  Ag495  1  0.16666667  0.00000000  0.33881579  1.0
  Ag  Ag496  1  0.16666667  0.33333333  0.33881579  1.0
  Ag  Ag497  1  0.16666667  0.66666667  0.33881579  1.0
  Ag  Ag498  1  0.50000000  0.00000000  0.33881579  1.0
  Ag  Ag499  1  0.50000000  0.33333333  0.33881579  1.0
  Ag  Ag500  1  0.50000000  0.66666667  0.33881579  1.0
  Ag  Ag501  1  0.83333333  0.00000000  0.33881579  1.0
  Ag  Ag502  1  0.83333333  0.33333333  0.33881579  1.0
  Ag  Ag503  1  0.83333333  0.66666667  0.33881579  1.0
  Ni  Ni504  1  0.04166667  0.16666667  0.38486842  1.0
  Ni  Ni505  1  0.04166667  0.50000000  0.38486842  1.0
  Ni  Ni506  1  0.04166667  0.83333333  0.38486842  1.0
  Ni  Ni507  1  0.37500000  0.16666667  0.38486842  1.0
  Ni  Ni508  1  0.37500000  0.50000000  0.38486842  1.0
  Ni  Ni509  1  0.37500000  0.83333333  0.38486842  1.0
  Ni  Ni510  1  0.70833333  0.16666667  0.38486842  1.0
  Ni  Ni511  1  0.70833333  0.50000000  0.38486842  1.0
  Ni  Ni512  1  0.70833333  0.83333333  0.38486842  1.0
  Ni  Ni513  1  0.20833333  0.16666667  0.41118421  1.0
  Ni  Ni514  1  0.20833333  0.50000000  0.41118421  1.0
  Ni  Ni515  1  0.20833333  0.83333333  0.41118421  1.0
  Ni  Ni516  1  0.54166667  0.16666667  0.41118421  1.0
  Ni  Ni517  1  0.54166667  0.50000000  0.41118421  1.0
  Ni  Ni518  1  0.54166667  0.83333333  0.41118421  1.0
  Ni  Ni519  1  0.87500000  0.16666667  0.41118421  1.0
  Ni  Ni520  1  0.87500000  0.50000000  0.41118421  1.0
  Ni  Ni521  1  0.87500000  0.83333333  0.41118421  1.0
  Ni  Ni522  1  0.12500000  0.16666667  0.37171053  1.0
  Ni  Ni523  1  0.12500000  0.50000000  0.37171053  1.0
  Ni  Ni524  1  0.12500000  0.83333333  0.37171053  1.0
  Ni  Ni525  1  0.45833333  0.16666667  0.37171053  1.0
  Ni  Ni526  1  0.45833333  0.50000000  0.37171053  1.0
  Ni  Ni527  1  0.45833333  0.83333333  0.37171053  1.0
  Ni  Ni528  1  0.79166667  0.16666667  0.37171053  1.0
  Ni  Ni529  1  0.79166667  0.50000000  0.37171053  1.0
  Ni  Ni530  1  0.79166667  0.83333333  0.37171053  1.0
  Ni  Ni531  1  0.29166667  0.16666667  0.39802632  1.0
  Ni  Ni532  1  0.29166667  0.50000000  0.39802632  1.0
  Ni  Ni533  1  0.29166667  0.83333333  0.39802632  1.0
  Ni  Ni534  1  0.62500000  0.16666667  0.39802632  1.0
  Ni  Ni535  1  0.62500000  0.50000000  0.39802632  1.0
  Ni  Ni536  1  0.62500000  0.83333333  0.39802632  1.0
  Ni  Ni537  1  0.95833333  0.16666667  0.39802632  1.0
  Ni  Ni538  1  0.95833333  0.50000000  0.39802632  1.0
  Ni  Ni539  1  0.95833333  0.83333333  0.39802632  1.0
  Ni  Ni540  1  0.08333333  0.00000000  0.40460526  1.0
  Ni  Ni541  1  0.08333333  0.33333333  0.40460526  1.0
  Ni  Ni542  1  0.08333333  0.66666667  0.40460526  1.0
  Ni  Ni543  1  0.41666667  0.00000000  0.40460526  1.0
  Ni  Ni544  1  0.41666667  0.33333333  0.40460526  1.0
  Ni  Ni545  1  0.41666667  0.66666667  0.40460526  1.0
  Ni  Ni546  1  0.75000000  0.00000000  0.40460526  1.0
  Ni  Ni547  1  0.75000000  0.33333333  0.40460526  1.0
  Ni  Ni548  1  0.75000000  0.66666667  0.40460526  1.0
  Ni  Ni549  1  0.25000000  0.00000000  0.37828947  1.0
  Ni  Ni550  1  0.25000000  0.33333333  0.37828947  1.0
  Ni  Ni551  1  0.25000000  0.66666667  0.37828947  1.0
  Ni  Ni552  1  0.58333333  0.00000000  0.37828947  1.0
  Ni  Ni553  1  0.58333333  0.33333333  0.37828947  1.0
  Ni  Ni554  1  0.58333333  0.66666667  0.37828947  1.0
  Ni  Ni555  1  0.91666667  0.00000000  0.37828947  1.0
  Ni  Ni556  1  0.91666667  0.33333333  0.37828947  1.0
  Ni  Ni557  1  0.91666667  0.66666667  0.37828947  1.0
  Ag  Ag558  1  0.00000000  0.00000000  0.41776316  1.0
  Ag  Ag559  1  0.00000000  0.33333333  0.41776316  1.0
  Ag  Ag560  1  0.00000000  0.66666667  0.41776316  1.0
  Ag  Ag561  1  0.33333333  0.00000000  0.41776316  1.0
  Ag  Ag562  1  0.33333333  0.33333333  0.41776316  1.0
  Ag  Ag563  1  0.33333333  0.66666667  0.41776316  1.0
  Ag  Ag564  1  0.66666667  0.00000000  0.41776316  1.0
  Ag  Ag565  1  0.66666667  0.33333333  0.41776316  1.0
  Ag  Ag566  1  0.66666667  0.66666667  0.41776316  1.0
  Ag  Ag567  1  0.16666667  0.00000000  0.39144737  1.0
  Ag  Ag568  1  0.16666667  0.33333333  0.39144737  1.0
  Ag  Ag569  1  0.16666667  0.66666667  0.39144737  1.0
  Ag  Ag570  1  0.50000000  0.00000000  0.39144737  1.0
  Ag  Ag571  1  0.50000000  0.33333333  0.39144737  1.0
  Ag  Ag572  1  0.50000000  0.66666667  0.39144737  1.0
  Ag  Ag573  1  0.83333333  0.00000000  0.39144737  1.0
  Ag  Ag574  1  0.83333333  0.33333333  0.39144737  1.0
  Ag  Ag575  1  0.83333333  0.66666667  0.39144737  1.0
