# generated using pymatgen
data_Ni3Au
_symmetry_space_group_name_H-M   'P 1'
_cell_length_a   12.76256100
_cell_length_b   27.22001131
_cell_length_c   52.38493620
_cell_angle_alpha   30.00000000
_cell_angle_beta   90.00000000
_cell_angle_gamma   90.00000000
_symmetry_Int_Tables_number   1
_chemical_formula_structural   Ni3Au
_chemical_formula_sum   'Ni216 Au72'
_cell_volume   9099.18627659
_cell_formula_units_Z   72
loop_
 _symmetry_equiv_pos_site_id
 _symmetry_equiv_pos_as_xyz
  1  'x, y, z'
loop_
 _atom_site_type_symbol
 _atom_site_label
 _atom_site_symmetry_multiplicity
 _atom_site_fract_x
 _atom_site_fract_y
 _atom_site_fract_z
 _atom_site_occupancy
  Ni  Ni0  1  0.08333333  0.10583567  0.02856092  1.0
  Ni  Ni1  1  0.08333333  0.43916900  0.02856093  1.0
  Ni  Ni2  1  0.08333333  0.77250233  0.02856093  1.0
  Ni  Ni3  1  0.41666667  0.10583567  0.02856092  1.0
  Ni  Ni4  1  0.41666667  0.43916900  0.02856093  1.0
  Ni  Ni5  1  0.41666667  0.77250233  0.02856093  1.0
  Ni  Ni6  1  0.75000000  0.10583567  0.02856092  1.0
  Ni  Ni7  1  0.75000000  0.43916900  0.02856093  1.0
  Ni  Ni8  1  0.75000000  0.77250233  0.02856093  1.0
  Ni  Ni9  1  0.08333333  0.28041550  0.07618697  1.0
  Ni  Ni10  1  0.08333333  0.61374883  0.07618697  1.0
  Ni  Ni11  1  0.08333333  0.94708217  0.07618698  1.0
  Ni  Ni12  1  0.41666667  0.28041550  0.07618697  1.0
  Ni  Ni13  1  0.41666667  0.61374883  0.07618697  1.0
  Ni  Ni14  1  0.41666667  0.94708217  0.07618698  1.0
  Ni  Ni15  1  0.75000000  0.28041550  0.07618697  1.0
  Ni  Ni16  1  0.75000000  0.61374883  0.07618697  1.0
  Ni  Ni17  1  0.75000000  0.94708217  0.07618698  1.0
  Ni  Ni18  1  0.08333333  0.28041550  0.02381302  1.0
  Ni  Ni19  1  0.08333333  0.61374883  0.02381303  1.0
  Ni  Ni20  1  0.08333333  0.94708217  0.02381302  1.0
  Ni  Ni21  1  0.41666667  0.28041550  0.02381302  1.0
  Ni  Ni22  1  0.41666667  0.61374883  0.02381303  1.0
  Ni  Ni23  1  0.41666667  0.94708217  0.02381302  1.0
  Ni  Ni24  1  0.75000000  0.28041550  0.02381303  1.0
  Ni  Ni25  1  0.75000000  0.61374883  0.02381303  1.0
  Ni  Ni26  1  0.75000000  0.94708217  0.02381302  1.0
  Ni  Ni27  1  0.25000000  0.22749767  0.02381303  1.0
  Ni  Ni28  1  0.25000000  0.56083100  0.02381303  1.0
  Ni  Ni29  1  0.25000000  0.89416433  0.02381302  1.0
  Ni  Ni30  1  0.58333333  0.22749767  0.02381302  1.0
  Ni  Ni31  1  0.58333333  0.56083100  0.02381303  1.0
  Ni  Ni32  1  0.58333333  0.89416433  0.02381302  1.0
  Ni  Ni33  1  0.91666667  0.22749767  0.02381302  1.0
  Ni  Ni34  1  0.91666667  0.56083100  0.02381303  1.0
  Ni  Ni35  1  0.91666667  0.89416433  0.02381302  1.0
  Ni  Ni36  1  0.25000000  0.05291783  0.07618698  1.0
  Ni  Ni37  1  0.25000000  0.38625117  0.07618697  1.0
  Ni  Ni38  1  0.25000000  0.71958450  0.07618697  1.0
  Ni  Ni39  1  0.58333333  0.05291783  0.07618697  1.0
  Ni  Ni40  1  0.58333333  0.38625117  0.07618697  1.0
  Ni  Ni41  1  0.58333333  0.71958450  0.07618697  1.0
  Ni  Ni42  1  0.91666667  0.05291783  0.07618698  1.0
  Ni  Ni43  1  0.91666667  0.38625117  0.07618697  1.0
  Ni  Ni44  1  0.91666667  0.71958450  0.07618697  1.0
  Ni  Ni45  1  0.25000000  0.05291783  0.02856092  1.0
  Ni  Ni46  1  0.25000000  0.38625117  0.02856092  1.0
  Ni  Ni47  1  0.25000000  0.71958450  0.02856092  1.0
  Ni  Ni48  1  0.58333333  0.05291783  0.02856092  1.0
  Ni  Ni49  1  0.58333333  0.38625117  0.02856092  1.0
  Ni  Ni50  1  0.58333333  0.71958450  0.02856092  1.0
  Ni  Ni51  1  0.91666667  0.05291783  0.02856092  1.0
  Ni  Ni52  1  0.91666667  0.38625117  0.02856092  1.0
  Ni  Ni53  1  0.91666667  0.71958450  0.02856092  1.0
  Au  Au54  1  0.25000000  0.22222222  0.07618698  1.0
  Au  Au55  1  0.25000000  0.55555556  0.07618698  1.0
  Au  Au56  1  0.25000000  0.88888889  0.07618697  1.0
  Au  Au57  1  0.58333333  0.22222222  0.07618698  1.0
  Au  Au58  1  0.58333333  0.55555556  0.07618698  1.0
  Au  Au59  1  0.58333333  0.88888889  0.07618697  1.0
  Au  Au60  1  0.91666667  0.22222222  0.07618698  1.0
  Au  Au61  1  0.91666667  0.55555556  0.07618698  1.0
  Au  Au62  1  0.91666667  0.88888889  0.07618697  1.0
  Au  Au63  1  0.08333333  0.11111111  0.07618698  1.0
  Au  Au64  1  0.08333333  0.44444444  0.07618698  1.0
  Au  Au65  1  0.08333333  0.77777778  0.07618697  1.0
  Au  Au66  1  0.41666667  0.11111111  0.07618698  1.0
  Au  Au67  1  0.41666667  0.44444444  0.07618698  1.0
  Au  Au68  1  0.41666667  0.77777778  0.07618697  1.0
  Au  Au69  1  0.75000000  0.11111111  0.07618698  1.0
  Au  Au70  1  0.75000000  0.44444444  0.07618698  1.0
  Au  Au71  1  0.75000000  0.77777778  0.07618697  1.0
  Ni  Ni72  1  0.08333333  0.10583567  0.12856092  1.0
  Ni  Ni73  1  0.08333333  0.43916900  0.12856092  1.0
  Ni  Ni74  1  0.08333333  0.77250233  0.12856092  1.0
  Ni  Ni75  1  0.41666667  0.10583567  0.12856092  1.0
  Ni  Ni76  1  0.41666667  0.43916900  0.12856092  1.0
  Ni  Ni77  1  0.41666667  0.77250233  0.12856092  1.0
  Ni  Ni78  1  0.75000000  0.10583567  0.12856092  1.0
  Ni  Ni79  1  0.75000000  0.43916900  0.12856092  1.0
  Ni  Ni80  1  0.75000000  0.77250233  0.12856092  1.0
  Ni  Ni81  1  0.08333333  0.28041550  0.17618697  1.0
  Ni  Ni82  1  0.08333333  0.61374883  0.17618698  1.0
  Ni  Ni83  1  0.08333333  0.94708217  0.17618698  1.0
  Ni  Ni84  1  0.41666667  0.28041550  0.17618697  1.0
  Ni  Ni85  1  0.41666667  0.61374883  0.17618698  1.0
  Ni  Ni86  1  0.41666667  0.94708217  0.17618698  1.0
  Ni  Ni87  1  0.75000000  0.28041550  0.17618697  1.0
  Ni  Ni88  1  0.75000000  0.61374883  0.17618698  1.0
  Ni  Ni89  1  0.75000000  0.94708217  0.17618698  1.0
  Ni  Ni90  1  0.08333333  0.28041550  0.12381302  1.0
  Ni  Ni91  1  0.08333333  0.61374883  0.12381303  1.0
  Ni  Ni92  1  0.08333333  0.94708217  0.12381303  1.0
  Ni  Ni93  1  0.41666667  0.28041550  0.12381302  1.0
  Ni  Ni94  1  0.41666667  0.61374883  0.12381303  1.0
  Ni  Ni95  1  0.41666667  0.94708217  0.12381303  1.0
  Ni  Ni96  1  0.75000000  0.28041550  0.12381302  1.0
  Ni  Ni97  1  0.75000000  0.61374883  0.12381303  1.0
  Ni  Ni98  1  0.75000000  0.94708217  0.12381303  1.0
  Ni  Ni99  1  0.25000000  0.22749767  0.12381303  1.0
  Ni  Ni100  1  0.25000000  0.56083100  0.12381303  1.0
  Ni  Ni101  1  0.25000000  0.89416433  0.12381303  1.0
  Ni  Ni102  1  0.58333333  0.22749767  0.12381303  1.0
  Ni  Ni103  1  0.58333333  0.56083100  0.12381303  1.0
  Ni  Ni104  1  0.58333333  0.89416433  0.12381303  1.0
  Ni  Ni105  1  0.91666667  0.22749767  0.12381303  1.0
  Ni  Ni106  1  0.91666667  0.56083100  0.12381303  1.0
  Ni  Ni107  1  0.91666667  0.89416433  0.12381303  1.0
  Ni  Ni108  1  0.25000000  0.05291783  0.17618697  1.0
  Ni  Ni109  1  0.25000000  0.38625117  0.17618698  1.0
  Ni  Ni110  1  0.25000000  0.71958450  0.17618697  1.0
  Ni  Ni111  1  0.58333333  0.05291783  0.17618697  1.0
  Ni  Ni112  1  0.58333333  0.38625117  0.17618698  1.0
  Ni  Ni113  1  0.58333333  0.71958450  0.17618697  1.0
  Ni  Ni114  1  0.91666667  0.05291783  0.17618697  1.0
  Ni  Ni115  1  0.91666667  0.38625117  0.17618698  1.0
  Ni  Ni116  1  0.91666667  0.71958450  0.17618697  1.0
  Ni  Ni117  1  0.25000000  0.05291783  0.12856092  1.0
  Ni  Ni118  1  0.25000000  0.38625117  0.12856092  1.0
  Ni  Ni119  1  0.25000000  0.71958450  0.12856092  1.0
  Ni  Ni120  1  0.58333333  0.05291783  0.12856092  1.0
  Ni  Ni121  1  0.58333333  0.38625117  0.12856092  1.0
  Ni  Ni122  1  0.58333333  0.71958450  0.12856092  1.0
  Ni  Ni123  1  0.91666667  0.05291783  0.12856092  1.0
  Ni  Ni124  1  0.91666667  0.38625117  0.12856092  1.0
  Ni  Ni125  1  0.91666667  0.71958450  0.12856092  1.0
  Au  Au126  1  0.25000000  0.22222222  0.17618698  1.0
  Au  Au127  1  0.25000000  0.55555556  0.17618698  1.0
  Au  Au128  1  0.25000000  0.88888889  0.17618698  1.0
  Au  Au129  1  0.58333333  0.22222222  0.17618698  1.0
  Au  Au130  1  0.58333333  0.55555556  0.17618698  1.0
  Au  Au131  1  0.58333333  0.88888889  0.17618698  1.0
  Au  Au132  1  0.91666667  0.22222222  0.17618698  1.0
  Au  Au133  1  0.91666667  0.55555556  0.17618698  1.0
  Au  Au134  1  0.91666667  0.88888889  0.17618698  1.0
  Au  Au135  1  0.08333333  0.11111111  0.17618698  1.0
  Au  Au136  1  0.08333333  0.44444444  0.17618698  1.0
  Au  Au137  1  0.08333333  0.77777778  0.17618697  1.0
  Au  Au138  1  0.41666667  0.11111111  0.17618698  1.0
  Au  Au139  1  0.41666667  0.44444444  0.17618698  1.0
  Au  Au140  1  0.41666667  0.77777778  0.17618697  1.0
  Au  Au141  1  0.75000000  0.11111111  0.17618698  1.0
  Au  Au142  1  0.75000000  0.44444444  0.17618698  1.0
  Au  Au143  1  0.75000000  0.77777778  0.17618697  1.0
  Ni  Ni144  1  0.08333333  0.10583567  0.22856093  1.0
  Ni  Ni145  1  0.08333333  0.43916900  0.22856093  1.0
  Ni  Ni146  1  0.08333333  0.77250233  0.22856093  1.0
  Ni  Ni147  1  0.41666667  0.10583567  0.22856092  1.0
  Ni  Ni148  1  0.41666667  0.43916900  0.22856093  1.0
  Ni  Ni149  1  0.41666667  0.77250233  0.22856093  1.0
  Ni  Ni150  1  0.75000000  0.10583567  0.22856092  1.0
  Ni  Ni151  1  0.75000000  0.43916900  0.22856093  1.0
  Ni  Ni152  1  0.75000000  0.77250233  0.22856093  1.0
  Ni  Ni153  1  0.08333333  0.28041550  0.27618698  1.0
  Ni  Ni154  1  0.08333333  0.61374883  0.27618698  1.0
  Ni  Ni155  1  0.08333333  0.94708217  0.27618698  1.0
  Ni  Ni156  1  0.41666667  0.28041550  0.27618698  1.0
  Ni  Ni157  1  0.41666667  0.61374883  0.27618698  1.0
  Ni  Ni158  1  0.41666667  0.94708217  0.27618698  1.0
  Ni  Ni159  1  0.75000000  0.28041550  0.27618698  1.0
  Ni  Ni160  1  0.75000000  0.61374883  0.27618698  1.0
  Ni  Ni161  1  0.75000000  0.94708217  0.27618698  1.0
  Ni  Ni162  1  0.08333333  0.28041550  0.22381303  1.0
  Ni  Ni163  1  0.08333333  0.61374883  0.22381302  1.0
  Ni  Ni164  1  0.08333333  0.94708217  0.22381302  1.0
  Ni  Ni165  1  0.41666667  0.28041550  0.22381303  1.0
  Ni  Ni166  1  0.41666667  0.61374883  0.22381302  1.0
  Ni  Ni167  1  0.41666667  0.94708217  0.22381302  1.0
  Ni  Ni168  1  0.75000000  0.28041550  0.22381303  1.0
  Ni  Ni169  1  0.75000000  0.61374883  0.22381302  1.0
  Ni  Ni170  1  0.75000000  0.94708217  0.22381302  1.0
  Ni  Ni171  1  0.25000000  0.22749767  0.22381302  1.0
  Ni  Ni172  1  0.25000000  0.56083100  0.22381303  1.0
  Ni  Ni173  1  0.25000000  0.89416433  0.22381302  1.0
  Ni  Ni174  1  0.58333333  0.22749767  0.22381302  1.0
  Ni  Ni175  1  0.58333333  0.56083100  0.22381303  1.0
  Ni  Ni176  1  0.58333333  0.89416433  0.22381302  1.0
  Ni  Ni177  1  0.91666667  0.22749767  0.22381302  1.0
  Ni  Ni178  1  0.91666667  0.56083100  0.22381303  1.0
  Ni  Ni179  1  0.91666667  0.89416433  0.22381302  1.0
  Ni  Ni180  1  0.25000000  0.05291783  0.27618698  1.0
  Ni  Ni181  1  0.25000000  0.38625117  0.27618698  1.0
  Ni  Ni182  1  0.25000000  0.71958450  0.27618698  1.0
  Ni  Ni183  1  0.58333333  0.05291783  0.27618698  1.0
  Ni  Ni184  1  0.58333333  0.38625117  0.27618698  1.0
  Ni  Ni185  1  0.58333333  0.71958450  0.27618698  1.0
  Ni  Ni186  1  0.91666667  0.05291783  0.27618698  1.0
  Ni  Ni187  1  0.91666667  0.38625117  0.27618698  1.0
  Ni  Ni188  1  0.91666667  0.71958450  0.27618698  1.0
  Ni  Ni189  1  0.25000000  0.05291783  0.22856093  1.0
  Ni  Ni190  1  0.25000000  0.38625117  0.22856092  1.0
  Ni  Ni191  1  0.25000000  0.71958450  0.22856092  1.0
  Ni  Ni192  1  0.58333333  0.05291783  0.22856092  1.0
  Ni  Ni193  1  0.58333333  0.38625117  0.22856092  1.0
  Ni  Ni194  1  0.58333333  0.71958450  0.22856092  1.0
  Ni  Ni195  1  0.91666667  0.05291783  0.22856092  1.0
  Ni  Ni196  1  0.91666667  0.38625117  0.22856093  1.0
  Ni  Ni197  1  0.91666667  0.71958450  0.22856092  1.0
  Au  Au198  1  0.25000000  0.22222222  0.27618698  1.0
  Au  Au199  1  0.25000000  0.55555556  0.27618698  1.0
  Au  Au200  1  0.25000000  0.88888889  0.27618698  1.0
  Au  Au201  1  0.58333333  0.22222222  0.27618698  1.0
  Au  Au202  1  0.58333333  0.55555556  0.27618698  1.0
  Au  Au203  1  0.58333333  0.88888889  0.27618698  1.0
  Au  Au204  1  0.91666667  0.22222222  0.27618698  1.0
  Au  Au205  1  0.91666667  0.55555556  0.27618698  1.0
  Au  Au206  1  0.91666667  0.88888889  0.27618698  1.0
  Au  Au207  1  0.08333333  0.11111111  0.27618698  1.0
  Au  Au208  1  0.08333333  0.44444444  0.27618698  1.0
  Au  Au209  1  0.08333333  0.77777778  0.27618697  1.0
  Au  Au210  1  0.41666667  0.11111111  0.27618698  1.0
  Au  Au211  1  0.41666667  0.44444444  0.27618698  1.0
  Au  Au212  1  0.41666667  0.77777778  0.27618697  1.0
  Au  Au213  1  0.75000000  0.11111111  0.27618698  1.0
  Au  Au214  1  0.75000000  0.44444444  0.27618698  1.0
  Au  Au215  1  0.75000000  0.77777778  0.27618697  1.0
  Ni  Ni216  1  0.08333333  0.10583567  0.32856093  1.0
  Ni  Ni217  1  0.08333333  0.43916900  0.32856093  1.0
  Ni  Ni218  1  0.08333333  0.77250233  0.32856093  1.0
  Ni  Ni219  1  0.41666667  0.10583567  0.32856093  1.0
  Ni  Ni220  1  0.41666667  0.43916900  0.32856093  1.0
  Ni  Ni221  1  0.41666667  0.77250233  0.32856093  1.0
  Ni  Ni222  1  0.75000000  0.10583567  0.32856093  1.0
  Ni  Ni223  1  0.75000000  0.43916900  0.32856093  1.0
  Ni  Ni224  1  0.75000000  0.77250233  0.32856093  1.0
  Ni  Ni225  1  0.08333333  0.28041550  0.37618698  1.0
  Ni  Ni226  1  0.08333333  0.61374883  0.37618697  1.0
  Ni  Ni227  1  0.08333333  0.94708217  0.37618697  1.0
  Ni  Ni228  1  0.41666667  0.28041550  0.37618698  1.0
  Ni  Ni229  1  0.41666667  0.61374883  0.37618697  1.0
  Ni  Ni230  1  0.41666667  0.94708217  0.37618697  1.0
  Ni  Ni231  1  0.75000000  0.28041550  0.37618698  1.0
  Ni  Ni232  1  0.75000000  0.61374883  0.37618697  1.0
  Ni  Ni233  1  0.75000000  0.94708217  0.37618697  1.0
  Ni  Ni234  1  0.08333333  0.28041550  0.32381302  1.0
  Ni  Ni235  1  0.08333333  0.61374883  0.32381303  1.0
  Ni  Ni236  1  0.08333333  0.94708217  0.32381302  1.0
  Ni  Ni237  1  0.41666667  0.28041550  0.32381302  1.0
  Ni  Ni238  1  0.41666667  0.61374883  0.32381303  1.0
  Ni  Ni239  1  0.41666667  0.94708217  0.32381302  1.0
  Ni  Ni240  1  0.75000000  0.28041550  0.32381302  1.0
  Ni  Ni241  1  0.75000000  0.61374883  0.32381303  1.0
  Ni  Ni242  1  0.75000000  0.94708217  0.32381302  1.0
  Ni  Ni243  1  0.25000000  0.22749767  0.32381303  1.0
  Ni  Ni244  1  0.25000000  0.56083100  0.32381303  1.0
  Ni  Ni245  1  0.25000000  0.89416433  0.32381302  1.0
  Ni  Ni246  1  0.58333333  0.22749767  0.32381303  1.0
  Ni  Ni247  1  0.58333333  0.56083100  0.32381303  1.0
  Ni  Ni248  1  0.58333333  0.89416433  0.32381302  1.0
  Ni  Ni249  1  0.91666667  0.22749767  0.32381303  1.0
  Ni  Ni250  1  0.91666667  0.56083100  0.32381303  1.0
  Ni  Ni251  1  0.91666667  0.89416433  0.32381302  1.0
  Ni  Ni252  1  0.25000000  0.05291783  0.37618698  1.0
  Ni  Ni253  1  0.25000000  0.38625117  0.37618698  1.0
  Ni  Ni254  1  0.25000000  0.71958450  0.37618698  1.0
  Ni  Ni255  1  0.58333333  0.05291783  0.37618698  1.0
  Ni  Ni256  1  0.58333333  0.38625117  0.37618698  1.0
  Ni  Ni257  1  0.58333333  0.71958450  0.37618698  1.0
  Ni  Ni258  1  0.91666667  0.05291783  0.37618698  1.0
  Ni  Ni259  1  0.91666667  0.38625117  0.37618698  1.0
  Ni  Ni260  1  0.91666667  0.71958450  0.37618698  1.0
  Ni  Ni261  1  0.25000000  0.05291783  0.32856093  1.0
  Ni  Ni262  1  0.25000000  0.38625117  0.32856093  1.0
  Ni  Ni263  1  0.25000000  0.71958450  0.32856092  1.0
  Ni  Ni264  1  0.58333333  0.05291783  0.32856093  1.0
  Ni  Ni265  1  0.58333333  0.38625117  0.32856093  1.0
  Ni  Ni266  1  0.58333333  0.71958450  0.32856092  1.0
  Ni  Ni267  1  0.91666667  0.05291783  0.32856093  1.0
  Ni  Ni268  1  0.91666667  0.38625117  0.32856093  1.0
  Ni  Ni269  1  0.91666667  0.71958450  0.32856092  1.0
  Au  Au270  1  0.25000000  0.22222222  0.37618698  1.0
  Au  Au271  1  0.25000000  0.55555556  0.37618697  1.0
  Au  Au272  1  0.25000000  0.88888889  0.37618698  1.0
  Au  Au273  1  0.58333333  0.22222222  0.37618698  1.0
  Au  Au274  1  0.58333333  0.55555556  0.37618697  1.0
  Au  Au275  1  0.58333333  0.88888889  0.37618698  1.0
  Au  Au276  1  0.91666667  0.22222222  0.37618698  1.0
  Au  Au277  1  0.91666667  0.55555556  0.37618698  1.0
  Au  Au278  1  0.91666667  0.88888889  0.37618698  1.0
  Au  Au279  1  0.08333333  0.11111111  0.37618698  1.0
  Au  Au280  1  0.08333333  0.44444444  0.37618698  1.0
  Au  Au281  1  0.08333333  0.77777778  0.37618697  1.0
  Au  Au282  1  0.41666667  0.11111111  0.37618698  1.0
  Au  Au283  1  0.41666667  0.44444444  0.37618698  1.0
  Au  Au284  1  0.41666667  0.77777778  0.37618697  1.0
  Au  Au285  1  0.75000000  0.11111111  0.37618698  1.0
  Au  Au286  1  0.75000000  0.44444444  0.37618698  1.0
  Au  Au287  1  0.75000000  0.77777778  0.37618697  1.0
