# generated using pymatgen
data_Ni3Ge
_symmetry_space_group_name_H-M   'P 1'
_cell_length_a   15.18469103
_cell_length_b   18.59737247
_cell_length_c   29.29591780
_cell_angle_alpha   94.04469124
_cell_angle_beta   90.00000000
_cell_angle_gamma   90.00000000
_symmetry_Int_Tables_number   1
_chemical_formula_structural   Ni3Ge
_chemical_formula_sum   'Ni216 Ge72'
_cell_volume   8252.42576679
_cell_formula_units_Z   72
loop_
 _symmetry_equiv_pos_site_id
 _symmetry_equiv_pos_as_xyz
  1  'x, y, z'
loop_
 _atom_site_type_symbol
 _atom_site_label
 _atom_site_symmetry_multiplicity
 _atom_site_fract_x
 _atom_site_fract_y
 _atom_site_fract_z
 _atom_site_occupancy
  Ge  Ge0  1  0.00000000  0.08750000  0.91250000  1.0
  Ge  Ge1  1  0.00000000  0.42083333  0.91250000  1.0
  Ge  Ge2  1  0.00000000  0.75416667  0.91250000  1.0
  Ge  Ge3  1  0.33333333  0.08750000  0.91250000  1.0
  Ge  Ge4  1  0.33333333  0.42083333  0.91250000  1.0
  Ge  Ge5  1  0.33333333  0.75416667  0.91250000  1.0
  Ge  Ge6  1  0.66666667  0.08750000  0.91250000  1.0
  Ge  Ge7  1  0.66666667  0.42083333  0.91250000  1.0
  Ge  Ge8  1  0.66666667  0.75416667  0.91250000  1.0
  Ge  Ge9  1  0.16666667  0.20416667  0.96250000  1.0
  Ge  Ge10  1  0.16666667  0.53750000  0.96250000  1.0
  Ge  Ge11  1  0.16666667  0.87083333  0.96250000  1.0
  Ge  Ge12  1  0.50000000  0.20416667  0.96250000  1.0
  Ge  Ge13  1  0.50000000  0.53750000  0.96250000  1.0
  Ge  Ge14  1  0.50000000  0.87083333  0.96250000  1.0
  Ge  Ge15  1  0.83333333  0.20416667  0.96250000  1.0
  Ge  Ge16  1  0.83333333  0.53750000  0.96250000  1.0
  Ge  Ge17  1  0.83333333  0.87083333  0.96250000  1.0
  Ge  Ge18  1  0.00000000  0.18750000  0.81250000  1.0
  Ge  Ge19  1  0.00000000  0.52083333  0.81250000  1.0
  Ge  Ge20  1  0.00000000  0.85416667  0.81250000  1.0
  Ge  Ge21  1  0.33333333  0.18750000  0.81250000  1.0
  Ge  Ge22  1  0.33333333  0.52083333  0.81250000  1.0
  Ge  Ge23  1  0.33333333  0.85416667  0.81250000  1.0
  Ge  Ge24  1  0.66666667  0.18750000  0.81250000  1.0
  Ge  Ge25  1  0.66666667  0.52083333  0.81250000  1.0
  Ge  Ge26  1  0.66666667  0.85416667  0.81250000  1.0
  Ge  Ge27  1  0.16666667  0.30416667  0.86250000  1.0
  Ge  Ge28  1  0.16666667  0.63750000  0.86250000  1.0
  Ge  Ge29  1  0.16666667  0.97083333  0.86250000  1.0
  Ge  Ge30  1  0.50000000  0.30416667  0.86250000  1.0
  Ge  Ge31  1  0.50000000  0.63750000  0.86250000  1.0
  Ge  Ge32  1  0.50000000  0.97083333  0.86250000  1.0
  Ge  Ge33  1  0.83333333  0.30416667  0.86250000  1.0
  Ge  Ge34  1  0.83333333  0.63750000  0.86250000  1.0
  Ge  Ge35  1  0.83333333  0.97083333  0.86250000  1.0
  Ge  Ge36  1  0.00000000  0.28750000  0.71250000  1.0
  Ge  Ge37  1  0.00000000  0.62083333  0.71250000  1.0
  Ge  Ge38  1  0.00000000  0.95416667  0.71250000  1.0
  Ge  Ge39  1  0.33333333  0.28750000  0.71250000  1.0
  Ge  Ge40  1  0.33333333  0.62083333  0.71250000  1.0
  Ge  Ge41  1  0.33333333  0.95416667  0.71250000  1.0
  Ge  Ge42  1  0.66666667  0.28750000  0.71250000  1.0
  Ge  Ge43  1  0.66666667  0.62083333  0.71250000  1.0
  Ge  Ge44  1  0.66666667  0.95416667  0.71250000  1.0
  Ge  Ge45  1  0.16666667  0.07083333  0.76250000  1.0
  Ge  Ge46  1  0.16666667  0.40416667  0.76250000  1.0
  Ge  Ge47  1  0.16666667  0.73750000  0.76250000  1.0
  Ge  Ge48  1  0.50000000  0.07083333  0.76250000  1.0
  Ge  Ge49  1  0.50000000  0.40416667  0.76250000  1.0
  Ge  Ge50  1  0.50000000  0.73750000  0.76250000  1.0
  Ge  Ge51  1  0.83333333  0.07083333  0.76250000  1.0
  Ge  Ge52  1  0.83333333  0.40416667  0.76250000  1.0
  Ge  Ge53  1  0.83333333  0.73750000  0.76250000  1.0
  Ge  Ge54  1  0.00000000  0.05416667  0.61250000  1.0
  Ge  Ge55  1  0.00000000  0.38750000  0.61250000  1.0
  Ge  Ge56  1  0.00000000  0.72083333  0.61250000  1.0
  Ge  Ge57  1  0.33333333  0.05416667  0.61250000  1.0
  Ge  Ge58  1  0.33333333  0.38750000  0.61250000  1.0
  Ge  Ge59  1  0.33333333  0.72083333  0.61250000  1.0
  Ge  Ge60  1  0.66666667  0.05416667  0.61250000  1.0
  Ge  Ge61  1  0.66666667  0.38750000  0.61250000  1.0
  Ge  Ge62  1  0.66666667  0.72083333  0.61250000  1.0
  Ge  Ge63  1  0.16666667  0.17083333  0.66250000  1.0
  Ge  Ge64  1  0.16666667  0.50416667  0.66250000  1.0
  Ge  Ge65  1  0.16666667  0.83750000  0.66250000  1.0
  Ge  Ge66  1  0.50000000  0.17083333  0.66250000  1.0
  Ge  Ge67  1  0.50000000  0.50416667  0.66250000  1.0
  Ge  Ge68  1  0.50000000  0.83750000  0.66250000  1.0
  Ge  Ge69  1  0.83333333  0.17083333  0.66250000  1.0
  Ge  Ge70  1  0.83333333  0.50416667  0.66250000  1.0
  Ge  Ge71  1  0.83333333  0.83750000  0.66250000  1.0
  Ni  Ni72  1  0.25000000  0.31250000  0.93750000  1.0
  Ni  Ni73  1  0.25000000  0.64583333  0.93750000  1.0
  Ni  Ni74  1  0.25000000  0.97916667  0.93750000  1.0
  Ni  Ni75  1  0.58333333  0.31250000  0.93750000  1.0
  Ni  Ni76  1  0.58333333  0.64583333  0.93750000  1.0
  Ni  Ni77  1  0.58333333  0.97916667  0.93750000  1.0
  Ni  Ni78  1  0.91666667  0.31250000  0.93750000  1.0
  Ni  Ni79  1  0.91666667  0.64583333  0.93750000  1.0
  Ni  Ni80  1  0.91666667  0.97916667  0.93750000  1.0
  Ni  Ni81  1  0.08333333  0.09583333  0.98750000  1.0
  Ni  Ni82  1  0.08333333  0.42916667  0.98750000  1.0
  Ni  Ni83  1  0.08333333  0.76250000  0.98750000  1.0
  Ni  Ni84  1  0.41666667  0.09583333  0.98750000  1.0
  Ni  Ni85  1  0.41666667  0.42916667  0.98750000  1.0
  Ni  Ni86  1  0.41666667  0.76250000  0.98750000  1.0
  Ni  Ni87  1  0.75000000  0.09583333  0.98750000  1.0
  Ni  Ni88  1  0.75000000  0.42916667  0.98750000  1.0
  Ni  Ni89  1  0.75000000  0.76250000  0.98750000  1.0
  Ni  Ni90  1  0.00000000  0.20416667  0.96250000  1.0
  Ni  Ni91  1  0.00000000  0.53750000  0.96250000  1.0
  Ni  Ni92  1  0.00000000  0.87083333  0.96250000  1.0
  Ni  Ni93  1  0.33333333  0.20416667  0.96250000  1.0
  Ni  Ni94  1  0.33333333  0.53750000  0.96250000  1.0
  Ni  Ni95  1  0.33333333  0.87083333  0.96250000  1.0
  Ni  Ni96  1  0.66666667  0.20416667  0.96250000  1.0
  Ni  Ni97  1  0.66666667  0.53750000  0.96250000  1.0
  Ni  Ni98  1  0.66666667  0.87083333  0.96250000  1.0
  Ni  Ni99  1  0.16666667  0.08750000  0.91250000  1.0
  Ni  Ni100  1  0.16666667  0.42083333  0.91250000  1.0
  Ni  Ni101  1  0.16666667  0.75416667  0.91250000  1.0
  Ni  Ni102  1  0.50000000  0.08750000  0.91250000  1.0
  Ni  Ni103  1  0.50000000  0.42083333  0.91250000  1.0
  Ni  Ni104  1  0.50000000  0.75416667  0.91250000  1.0
  Ni  Ni105  1  0.83333333  0.08750000  0.91250000  1.0
  Ni  Ni106  1  0.83333333  0.42083333  0.91250000  1.0
  Ni  Ni107  1  0.83333333  0.75416667  0.91250000  1.0
  Ni  Ni108  1  0.08333333  0.31250000  0.93750000  1.0
  Ni  Ni109  1  0.08333333  0.64583333  0.93750000  1.0
  Ni  Ni110  1  0.08333333  0.97916667  0.93750000  1.0
  Ni  Ni111  1  0.41666667  0.31250000  0.93750000  1.0
  Ni  Ni112  1  0.41666667  0.64583333  0.93750000  1.0
  Ni  Ni113  1  0.41666667  0.97916667  0.93750000  1.0
  Ni  Ni114  1  0.75000000  0.31250000  0.93750000  1.0
  Ni  Ni115  1  0.75000000  0.64583333  0.93750000  1.0
  Ni  Ni116  1  0.75000000  0.97916667  0.93750000  1.0
  Ni  Ni117  1  0.25000000  0.09583333  0.98750000  1.0
  Ni  Ni118  1  0.25000000  0.42916667  0.98750000  1.0
  Ni  Ni119  1  0.25000000  0.76250000  0.98750000  1.0
  Ni  Ni120  1  0.58333333  0.09583333  0.98750000  1.0
  Ni  Ni121  1  0.58333333  0.42916667  0.98750000  1.0
  Ni  Ni122  1  0.58333333  0.76250000  0.98750000  1.0
  Ni  Ni123  1  0.91666667  0.09583333  0.98750000  1.0
  Ni  Ni124  1  0.91666667  0.42916667  0.98750000  1.0
  Ni  Ni125  1  0.91666667  0.76250000  0.98750000  1.0
  Ni  Ni126  1  0.25000000  0.07916667  0.83750000  1.0
  Ni  Ni127  1  0.25000000  0.41250000  0.83750000  1.0
  Ni  Ni128  1  0.25000000  0.74583333  0.83750000  1.0
  Ni  Ni129  1  0.58333333  0.07916667  0.83750000  1.0
  Ni  Ni130  1  0.58333333  0.41250000  0.83750000  1.0
  Ni  Ni131  1  0.58333333  0.74583333  0.83750000  1.0
  Ni  Ni132  1  0.91666667  0.07916667  0.83750000  1.0
  Ni  Ni133  1  0.91666667  0.41250000  0.83750000  1.0
  Ni  Ni134  1  0.91666667  0.74583333  0.83750000  1.0
  Ni  Ni135  1  0.08333333  0.19583333  0.88750000  1.0
  Ni  Ni136  1  0.08333333  0.52916667  0.88750000  1.0
  Ni  Ni137  1  0.08333333  0.86250000  0.88750000  1.0
  Ni  Ni138  1  0.41666667  0.19583333  0.88750000  1.0
  Ni  Ni139  1  0.41666667  0.52916667  0.88750000  1.0
  Ni  Ni140  1  0.41666667  0.86250000  0.88750000  1.0
  Ni  Ni141  1  0.75000000  0.19583333  0.88750000  1.0
  Ni  Ni142  1  0.75000000  0.52916667  0.88750000  1.0
  Ni  Ni143  1  0.75000000  0.86250000  0.88750000  1.0
  Ni  Ni144  1  0.00000000  0.30416667  0.86250000  1.0
  Ni  Ni145  1  0.00000000  0.63750000  0.86250000  1.0
  Ni  Ni146  1  0.00000000  0.97083333  0.86250000  1.0
  Ni  Ni147  1  0.33333333  0.30416667  0.86250000  1.0
  Ni  Ni148  1  0.33333333  0.63750000  0.86250000  1.0
  Ni  Ni149  1  0.33333333  0.97083333  0.86250000  1.0
  Ni  Ni150  1  0.66666667  0.30416667  0.86250000  1.0
  Ni  Ni151  1  0.66666667  0.63750000  0.86250000  1.0
  Ni  Ni152  1  0.66666667  0.97083333  0.86250000  1.0
  Ni  Ni153  1  0.16666667  0.18750000  0.81250000  1.0
  Ni  Ni154  1  0.16666667  0.52083333  0.81250000  1.0
  Ni  Ni155  1  0.16666667  0.85416667  0.81250000  1.0
  Ni  Ni156  1  0.50000000  0.18750000  0.81250000  1.0
  Ni  Ni157  1  0.50000000  0.52083333  0.81250000  1.0
  Ni  Ni158  1  0.50000000  0.85416667  0.81250000  1.0
  Ni  Ni159  1  0.83333333  0.18750000  0.81250000  1.0
  Ni  Ni160  1  0.83333333  0.52083333  0.81250000  1.0
  Ni  Ni161  1  0.83333333  0.85416667  0.81250000  1.0
  Ni  Ni162  1  0.08333333  0.07916667  0.83750000  1.0
  Ni  Ni163  1  0.08333333  0.41250000  0.83750000  1.0
  Ni  Ni164  1  0.08333333  0.74583333  0.83750000  1.0
  Ni  Ni165  1  0.41666667  0.07916667  0.83750000  1.0
  Ni  Ni166  1  0.41666667  0.41250000  0.83750000  1.0
  Ni  Ni167  1  0.41666667  0.74583333  0.83750000  1.0
  Ni  Ni168  1  0.75000000  0.07916667  0.83750000  1.0
  Ni  Ni169  1  0.75000000  0.41250000  0.83750000  1.0
  Ni  Ni170  1  0.75000000  0.74583333  0.83750000  1.0
  Ni  Ni171  1  0.25000000  0.19583333  0.88750000  1.0
  Ni  Ni172  1  0.25000000  0.52916667  0.88750000  1.0
  Ni  Ni173  1  0.25000000  0.86250000  0.88750000  1.0
  Ni  Ni174  1  0.58333333  0.19583333  0.88750000  1.0
  Ni  Ni175  1  0.58333333  0.52916667  0.88750000  1.0
  Ni  Ni176  1  0.58333333  0.86250000  0.88750000  1.0
  Ni  Ni177  1  0.91666667  0.19583333  0.88750000  1.0
  Ni  Ni178  1  0.91666667  0.52916667  0.88750000  1.0
  Ni  Ni179  1  0.91666667  0.86250000  0.88750000  1.0
  Ni  Ni180  1  0.25000000  0.17916667  0.73750000  1.0
  Ni  Ni181  1  0.25000000  0.51250000  0.73750000  1.0
  Ni  Ni182  1  0.25000000  0.84583333  0.73750000  1.0
  Ni  Ni183  1  0.58333333  0.17916667  0.73750000  1.0
  Ni  Ni184  1  0.58333333  0.51250000  0.73750000  1.0
  Ni  Ni185  1  0.58333333  0.84583333  0.73750000  1.0
  Ni  Ni186  1  0.91666667  0.17916667  0.73750000  1.0
  Ni  Ni187  1  0.91666667  0.51250000  0.73750000  1.0
  Ni  Ni188  1  0.91666667  0.84583333  0.73750000  1.0
  Ni  Ni189  1  0.08333333  0.29583333  0.78750000  1.0
  Ni  Ni190  1  0.08333333  0.62916667  0.78750000  1.0
  Ni  Ni191  1  0.08333333  0.96250000  0.78750000  1.0
  Ni  Ni192  1  0.41666667  0.29583333  0.78750000  1.0
  Ni  Ni193  1  0.41666667  0.62916667  0.78750000  1.0
  Ni  Ni194  1  0.41666667  0.96250000  0.78750000  1.0
  Ni  Ni195  1  0.75000000  0.29583333  0.78750000  1.0
  Ni  Ni196  1  0.75000000  0.62916667  0.78750000  1.0
  Ni  Ni197  1  0.75000000  0.96250000  0.78750000  1.0
  Ni  Ni198  1  0.00000000  0.07083333  0.76250000  1.0
  Ni  Ni199  1  0.00000000  0.40416667  0.76250000  1.0
  Ni  Ni200  1  0.00000000  0.73750000  0.76250000  1.0
  Ni  Ni201  1  0.33333333  0.07083333  0.76250000  1.0
  Ni  Ni202  1  0.33333333  0.40416667  0.76250000  1.0
  Ni  Ni203  1  0.33333333  0.73750000  0.76250000  1.0
  Ni  Ni204  1  0.66666667  0.07083333  0.76250000  1.0
  Ni  Ni205  1  0.66666667  0.40416667  0.76250000  1.0
  Ni  Ni206  1  0.66666667  0.73750000  0.76250000  1.0
  Ni  Ni207  1  0.16666667  0.28750000  0.71250000  1.0
  Ni  Ni208  1  0.16666667  0.62083333  0.71250000  1.0
  Ni  Ni209  1  0.16666667  0.95416667  0.71250000  1.0
  Ni  Ni210  1  0.50000000  0.28750000  0.71250000  1.0
  Ni  Ni211  1  0.50000000  0.62083333  0.71250000  1.0
  Ni  Ni212  1  0.50000000  0.95416667  0.71250000  1.0
  Ni  Ni213  1  0.83333333  0.28750000  0.71250000  1.0
  Ni  Ni214  1  0.83333333  0.62083333  0.71250000  1.0
  Ni  Ni215  1  0.83333333  0.95416667  0.71250000  1.0
  Ni  Ni216  1  0.08333333  0.17916667  0.73750000  1.0
  Ni  Ni217  1  0.08333333  0.51250000  0.73750000  1.0
  Ni  Ni218  1  0.08333333  0.84583333  0.73750000  1.0
  Ni  Ni219  1  0.41666667  0.17916667  0.73750000  1.0
  Ni  Ni220  1  0.41666667  0.51250000  0.73750000  1.0
  Ni  Ni221  1  0.41666667  0.84583333  0.73750000  1.0
  Ni  Ni222  1  0.75000000  0.17916667  0.73750000  1.0
  Ni  Ni223  1  0.75000000  0.51250000  0.73750000  1.0
  Ni  Ni224  1  0.75000000  0.84583333  0.73750000  1.0
  Ni  Ni225  1  0.25000000  0.29583333  0.78750000  1.0
  Ni  Ni226  1  0.25000000  0.62916667  0.78750000  1.0
  Ni  Ni227  1  0.25000000  0.96250000  0.78750000  1.0
  Ni  Ni228  1  0.58333333  0.29583333  0.78750000  1.0
  Ni  Ni229  1  0.58333333  0.62916667  0.78750000  1.0
  Ni  Ni230  1  0.58333333  0.96250000  0.78750000  1.0
  Ni  Ni231  1  0.91666667  0.29583333  0.78750000  1.0
  Ni  Ni232  1  0.91666667  0.62916667  0.78750000  1.0
  Ni  Ni233  1  0.91666667  0.96250000  0.78750000  1.0
  Ni  Ni234  1  0.25000000  0.27916667  0.63750000  1.0
  Ni  Ni235  1  0.25000000  0.61250000  0.63750000  1.0
  Ni  Ni236  1  0.25000000  0.94583333  0.63750000  1.0
  Ni  Ni237  1  0.58333333  0.27916667  0.63750000  1.0
  Ni  Ni238  1  0.58333333  0.61250000  0.63750000  1.0
  Ni  Ni239  1  0.58333333  0.94583333  0.63750000  1.0
  Ni  Ni240  1  0.91666667  0.27916667  0.63750000  1.0
  Ni  Ni241  1  0.91666667  0.61250000  0.63750000  1.0
  Ni  Ni242  1  0.91666667  0.94583333  0.63750000  1.0
  Ni  Ni243  1  0.08333333  0.06250000  0.68750000  1.0
  Ni  Ni244  1  0.08333333  0.39583333  0.68750000  1.0
  Ni  Ni245  1  0.08333333  0.72916667  0.68750000  1.0
  Ni  Ni246  1  0.41666667  0.06250000  0.68750000  1.0
  Ni  Ni247  1  0.41666667  0.39583333  0.68750000  1.0
  Ni  Ni248  1  0.41666667  0.72916667  0.68750000  1.0
  Ni  Ni249  1  0.75000000  0.06250000  0.68750000  1.0
  Ni  Ni250  1  0.75000000  0.39583333  0.68750000  1.0
  Ni  Ni251  1  0.75000000  0.72916667  0.68750000  1.0
  Ni  Ni252  1  0.00000000  0.17083333  0.66250000  1.0
  Ni  Ni253  1  0.00000000  0.50416667  0.66250000  1.0
  Ni  Ni254  1  0.00000000  0.83750000  0.66250000  1.0
  Ni  Ni255  1  0.33333333  0.17083333  0.66250000  1.0
  Ni  Ni256  1  0.33333333  0.50416667  0.66250000  1.0
  Ni  Ni257  1  0.33333333  0.83750000  0.66250000  1.0
  Ni  Ni258  1  0.66666667  0.17083333  0.66250000  1.0
  Ni  Ni259  1  0.66666667  0.50416667  0.66250000  1.0
  Ni  Ni260  1  0.66666667  0.83750000  0.66250000  1.0
  Ni  Ni261  1  0.16666667  0.05416667  0.61250000  1.0
  Ni  Ni262  1  0.16666667  0.38750000  0.61250000  1.0
  Ni  Ni263  1  0.16666667  0.72083333  0.61250000  1.0
  Ni  Ni264  1  0.50000000  0.05416667  0.61250000  1.0
  Ni  Ni265  1  0.50000000  0.38750000  0.61250000  1.0
  Ni  Ni266  1  0.50000000  0.72083333  0.61250000  1.0
  Ni  Ni267  1  0.83333333  0.05416667  0.61250000  1.0
  Ni  Ni268  1  0.83333333  0.38750000  0.61250000  1.0
  Ni  Ni269  1  0.83333333  0.72083333  0.61250000  1.0
  Ni  Ni270  1  0.08333333  0.27916667  0.63750000  1.0
  Ni  Ni271  1  0.08333333  0.61250000  0.63750000  1.0
  Ni  Ni272  1  0.08333333  0.94583333  0.63750000  1.0
  Ni  Ni273  1  0.41666667  0.27916667  0.63750000  1.0
  Ni  Ni274  1  0.41666667  0.61250000  0.63750000  1.0
  Ni  Ni275  1  0.41666667  0.94583333  0.63750000  1.0
  Ni  Ni276  1  0.75000000  0.27916667  0.63750000  1.0
  Ni  Ni277  1  0.75000000  0.61250000  0.63750000  1.0
  Ni  Ni278  1  0.75000000  0.94583333  0.63750000  1.0
  Ni  Ni279  1  0.25000000  0.06250000  0.68750000  1.0
  Ni  Ni280  1  0.25000000  0.39583333  0.68750000  1.0
  Ni  Ni281  1  0.25000000  0.72916667  0.68750000  1.0
  Ni  Ni282  1  0.58333333  0.06250000  0.68750000  1.0
  Ni  Ni283  1  0.58333333  0.39583333  0.68750000  1.0
  Ni  Ni284  1  0.58333333  0.72916667  0.68750000  1.0
  Ni  Ni285  1  0.91666667  0.06250000  0.68750000  1.0
  Ni  Ni286  1  0.91666667  0.39583333  0.68750000  1.0
  Ni  Ni287  1  0.91666667  0.72916667  0.68750000  1.0
