# generated using pymatgen
data_Ni3Mo
_symmetry_space_group_name_H-M   'P 1'
_cell_length_a   12.70740900
_cell_length_b   13.38640800
_cell_length_c   25.12253500
_cell_angle_alpha   90.00000000
_cell_angle_beta   90.00000000
_cell_angle_gamma   90.00000000
_symmetry_Int_Tables_number   1
_chemical_formula_structural   Ni3Mo
_chemical_formula_sum   'Ni108 Mo36'
_cell_volume   4273.50804493
_cell_formula_units_Z   36
loop_
 _symmetry_equiv_pos_site_id
 _symmetry_equiv_pos_as_xyz
  1  'x, y, z'
loop_
 _atom_site_type_symbol
 _atom_site_label
 _atom_site_symmetry_multiplicity
 _atom_site_fract_x
 _atom_site_fract_y
 _atom_site_fract_z
 _atom_site_occupancy
  Ni  Ni0  1  0.16666667  0.28016867  0.12511470  1.0
  Ni  Ni1  1  0.16666667  0.61350200  0.12511470  1.0
  Ni  Ni2  1  0.16666667  0.94683533  0.12511470  1.0
  Ni  Ni3  1  0.50000000  0.28016867  0.12511470  1.0
  Ni  Ni4  1  0.50000000  0.61350200  0.12511470  1.0
  Ni  Ni5  1  0.50000000  0.94683533  0.12511470  1.0
  Ni  Ni6  1  0.83333333  0.28016867  0.12511470  1.0
  Ni  Ni7  1  0.83333333  0.61350200  0.12511470  1.0
  Ni  Ni8  1  0.83333333  0.94683533  0.12511470  1.0
  Ni  Ni9  1  0.16666667  0.28016867  0.02465590  1.0
  Ni  Ni10  1  0.16666667  0.61350200  0.02465590  1.0
  Ni  Ni11  1  0.16666667  0.94683533  0.02465590  1.0
  Ni  Ni12  1  0.50000000  0.28016867  0.02465590  1.0
  Ni  Ni13  1  0.50000000  0.61350200  0.02465590  1.0
  Ni  Ni14  1  0.50000000  0.94683533  0.02465590  1.0
  Ni  Ni15  1  0.83333333  0.28016867  0.02465590  1.0
  Ni  Ni16  1  0.83333333  0.61350200  0.02465590  1.0
  Ni  Ni17  1  0.83333333  0.94683533  0.02465590  1.0
  Ni  Ni18  1  0.00000000  0.05316467  0.12465590  1.0
  Ni  Ni19  1  0.00000000  0.38649800  0.12465590  1.0
  Ni  Ni20  1  0.00000000  0.71983133  0.12465590  1.0
  Ni  Ni21  1  0.33333333  0.05316467  0.12465590  1.0
  Ni  Ni22  1  0.33333333  0.38649800  0.12465590  1.0
  Ni  Ni23  1  0.33333333  0.71983133  0.12465590  1.0
  Ni  Ni24  1  0.66666667  0.05316467  0.12465590  1.0
  Ni  Ni25  1  0.66666667  0.38649800  0.12465590  1.0
  Ni  Ni26  1  0.66666667  0.71983133  0.12465590  1.0
  Ni  Ni27  1  0.00000000  0.05316467  0.02511470  1.0
  Ni  Ni28  1  0.00000000  0.38649800  0.02511470  1.0
  Ni  Ni29  1  0.00000000  0.71983133  0.02511470  1.0
  Ni  Ni30  1  0.33333333  0.05316467  0.02511470  1.0
  Ni  Ni31  1  0.33333333  0.38649800  0.02511470  1.0
  Ni  Ni32  1  0.33333333  0.71983133  0.02511470  1.0
  Ni  Ni33  1  0.66666667  0.05316467  0.02511470  1.0
  Ni  Ni34  1  0.66666667  0.38649800  0.02511470  1.0
  Ni  Ni35  1  0.66666667  0.71983133  0.02511470  1.0
  Ni  Ni36  1  0.00000000  0.22073500  0.07488530  1.0
  Ni  Ni37  1  0.00000000  0.55406833  0.07488530  1.0
  Ni  Ni38  1  0.00000000  0.88740167  0.07488530  1.0
  Ni  Ni39  1  0.33333333  0.22073500  0.07488530  1.0
  Ni  Ni40  1  0.33333333  0.55406833  0.07488530  1.0
  Ni  Ni41  1  0.33333333  0.88740167  0.07488530  1.0
  Ni  Ni42  1  0.66666667  0.22073500  0.07488530  1.0
  Ni  Ni43  1  0.66666667  0.55406833  0.07488530  1.0
  Ni  Ni44  1  0.66666667  0.88740167  0.07488530  1.0
  Ni  Ni45  1  0.16666667  0.11259833  0.17488530  1.0
  Ni  Ni46  1  0.16666667  0.44593167  0.17488530  1.0
  Ni  Ni47  1  0.16666667  0.77926500  0.17488530  1.0
  Ni  Ni48  1  0.50000000  0.11259833  0.17488530  1.0
  Ni  Ni49  1  0.50000000  0.44593167  0.17488530  1.0
  Ni  Ni50  1  0.50000000  0.77926500  0.17488530  1.0
  Ni  Ni51  1  0.83333333  0.11259833  0.17488530  1.0
  Ni  Ni52  1  0.83333333  0.44593167  0.17488530  1.0
  Ni  Ni53  1  0.83333333  0.77926500  0.17488530  1.0
  Mo  Mo54  1  0.16666667  0.11433067  0.07488530  1.0
  Mo  Mo55  1  0.16666667  0.44766400  0.07488530  1.0
  Mo  Mo56  1  0.16666667  0.78099733  0.07488530  1.0
  Mo  Mo57  1  0.50000000  0.11433067  0.07488530  1.0
  Mo  Mo58  1  0.50000000  0.44766400  0.07488530  1.0
  Mo  Mo59  1  0.50000000  0.78099733  0.07488530  1.0
  Mo  Mo60  1  0.83333333  0.11433067  0.07488530  1.0
  Mo  Mo61  1  0.83333333  0.44766400  0.07488530  1.0
  Mo  Mo62  1  0.83333333  0.78099733  0.07488530  1.0
  Mo  Mo63  1  0.00000000  0.21900267  0.17488530  1.0
  Mo  Mo64  1  0.00000000  0.55233600  0.17488530  1.0
  Mo  Mo65  1  0.00000000  0.88566933  0.17488530  1.0
  Mo  Mo66  1  0.33333333  0.21900267  0.17488530  1.0
  Mo  Mo67  1  0.33333333  0.55233600  0.17488530  1.0
  Mo  Mo68  1  0.33333333  0.88566933  0.17488530  1.0
  Mo  Mo69  1  0.66666667  0.21900267  0.17488530  1.0
  Mo  Mo70  1  0.66666667  0.55233600  0.17488530  1.0
  Mo  Mo71  1  0.66666667  0.88566933  0.17488530  1.0
  Ni  Ni72  1  0.16666667  0.28016867  0.32511470  1.0
  Ni  Ni73  1  0.16666667  0.61350200  0.32511470  1.0
  Ni  Ni74  1  0.16666667  0.94683533  0.32511470  1.0
  Ni  Ni75  1  0.50000000  0.28016867  0.32511470  1.0
  Ni  Ni76  1  0.50000000  0.61350200  0.32511470  1.0
  Ni  Ni77  1  0.50000000  0.94683533  0.32511470  1.0
  Ni  Ni78  1  0.83333333  0.28016867  0.32511470  1.0
  Ni  Ni79  1  0.83333333  0.61350200  0.32511470  1.0
  Ni  Ni80  1  0.83333333  0.94683533  0.32511470  1.0
  Ni  Ni81  1  0.16666667  0.28016867  0.22465590  1.0
  Ni  Ni82  1  0.16666667  0.61350200  0.22465590  1.0
  Ni  Ni83  1  0.16666667  0.94683533  0.22465590  1.0
  Ni  Ni84  1  0.50000000  0.28016867  0.22465590  1.0
  Ni  Ni85  1  0.50000000  0.61350200  0.22465590  1.0
  Ni  Ni86  1  0.50000000  0.94683533  0.22465590  1.0
  Ni  Ni87  1  0.83333333  0.28016867  0.22465590  1.0
  Ni  Ni88  1  0.83333333  0.61350200  0.22465590  1.0
  Ni  Ni89  1  0.83333333  0.94683533  0.22465590  1.0
  Ni  Ni90  1  0.00000000  0.05316467  0.32465590  1.0
  Ni  Ni91  1  0.00000000  0.38649800  0.32465590  1.0
  Ni  Ni92  1  0.00000000  0.71983133  0.32465590  1.0
  Ni  Ni93  1  0.33333333  0.05316467  0.32465590  1.0
  Ni  Ni94  1  0.33333333  0.38649800  0.32465590  1.0
  Ni  Ni95  1  0.33333333  0.71983133  0.32465590  1.0
  Ni  Ni96  1  0.66666667  0.05316467  0.32465590  1.0
  Ni  Ni97  1  0.66666667  0.38649800  0.32465590  1.0
  Ni  Ni98  1  0.66666667  0.71983133  0.32465590  1.0
  Ni  Ni99  1  0.00000000  0.05316467  0.22511470  1.0
  Ni  Ni100  1  0.00000000  0.38649800  0.22511470  1.0
  Ni  Ni101  1  0.00000000  0.71983133  0.22511470  1.0
  Ni  Ni102  1  0.33333333  0.05316467  0.22511470  1.0
  Ni  Ni103  1  0.33333333  0.38649800  0.22511470  1.0
  Ni  Ni104  1  0.33333333  0.71983133  0.22511470  1.0
  Ni  Ni105  1  0.66666667  0.05316467  0.22511470  1.0
  Ni  Ni106  1  0.66666667  0.38649800  0.22511470  1.0
  Ni  Ni107  1  0.66666667  0.71983133  0.22511470  1.0
  Ni  Ni108  1  0.00000000  0.22073500  0.27488530  1.0
  Ni  Ni109  1  0.00000000  0.55406833  0.27488530  1.0
  Ni  Ni110  1  0.00000000  0.88740167  0.27488530  1.0
  Ni  Ni111  1  0.33333333  0.22073500  0.27488530  1.0
  Ni  Ni112  1  0.33333333  0.55406833  0.27488530  1.0
  Ni  Ni113  1  0.33333333  0.88740167  0.27488530  1.0
  Ni  Ni114  1  0.66666667  0.22073500  0.27488530  1.0
  Ni  Ni115  1  0.66666667  0.55406833  0.27488530  1.0
  Ni  Ni116  1  0.66666667  0.88740167  0.27488530  1.0
  Ni  Ni117  1  0.16666667  0.11259833  0.37488530  1.0
  Ni  Ni118  1  0.16666667  0.44593167  0.37488530  1.0
  Ni  Ni119  1  0.16666667  0.77926500  0.37488530  1.0
  Ni  Ni120  1  0.50000000  0.11259833  0.37488530  1.0
  Ni  Ni121  1  0.50000000  0.44593167  0.37488530  1.0
  Ni  Ni122  1  0.50000000  0.77926500  0.37488530  1.0
  Ni  Ni123  1  0.83333333  0.11259833  0.37488530  1.0
  Ni  Ni124  1  0.83333333  0.44593167  0.37488530  1.0
  Ni  Ni125  1  0.83333333  0.77926500  0.37488530  1.0
  Mo  Mo126  1  0.16666667  0.11433067  0.27488530  1.0
  Mo  Mo127  1  0.16666667  0.44766400  0.27488530  1.0
  Mo  Mo128  1  0.16666667  0.78099733  0.27488530  1.0
  Mo  Mo129  1  0.50000000  0.11433067  0.27488530  1.0
  Mo  Mo130  1  0.50000000  0.44766400  0.27488530  1.0
  Mo  Mo131  1  0.50000000  0.78099733  0.27488530  1.0
  Mo  Mo132  1  0.83333333  0.11433067  0.27488530  1.0
  Mo  Mo133  1  0.83333333  0.44766400  0.27488530  1.0
  Mo  Mo134  1  0.83333333  0.78099733  0.27488530  1.0
  Mo  Mo135  1  0.00000000  0.21900267  0.37488530  1.0
  Mo  Mo136  1  0.00000000  0.55233600  0.37488530  1.0
  Mo  Mo137  1  0.00000000  0.88566933  0.37488530  1.0
  Mo  Mo138  1  0.33333333  0.21900267  0.37488530  1.0
  Mo  Mo139  1  0.33333333  0.55233600  0.37488530  1.0
  Mo  Mo140  1  0.33333333  0.88566933  0.37488530  1.0
  Mo  Mo141  1  0.66666667  0.21900267  0.37488530  1.0
  Mo  Mo142  1  0.66666667  0.55233600  0.37488530  1.0
  Mo  Mo143  1  0.66666667  0.88566933  0.37488530  1.0
