# generated using pymatgen
data_Ni3Mo
_symmetry_space_group_name_H-M   'P 1'
_cell_length_a   13.38640800
_cell_length_b   32.71578189
_cell_length_c   29.65062100
_cell_angle_alpha   112.85611832
_cell_angle_beta   90.00000000
_cell_angle_gamma   90.00000000
_symmetry_Int_Tables_number   1
_chemical_formula_structural   Ni3Mo
_chemical_formula_sum   'Ni324 Mo108'
_cell_volume   11965.82252582
_cell_formula_units_Z   108
loop_
 _symmetry_equiv_pos_site_id
 _symmetry_equiv_pos_as_xyz
  1  'x, y, z'
loop_
 _atom_site_type_symbol
 _atom_site_label
 _atom_site_symmetry_multiplicity
 _atom_site_fract_x
 _atom_site_fract_y
 _atom_site_fract_z
 _atom_site_occupancy
  Ni  Ni0  1  0.28016867  0.12519117  0.11611239  1.0
  Ni  Ni1  1  0.28016867  0.45852450  0.11611239  1.0
  Ni  Ni2  1  0.28016867  0.79185783  0.11611239  1.0
  Ni  Ni3  1  0.61350200  0.12519117  0.11611239  1.0
  Ni  Ni4  1  0.61350200  0.45852450  0.11611239  1.0
  Ni  Ni5  1  0.61350200  0.79185783  0.11611239  1.0
  Ni  Ni6  1  0.94683533  0.12519117  0.11611239  1.0
  Ni  Ni7  1  0.94683533  0.45852450  0.11611239  1.0
  Ni  Ni8  1  0.94683533  0.79185783  0.11611239  1.0
  Ni  Ni9  1  0.28016867  0.29185783  0.04468382  1.0
  Ni  Ni10  1  0.28016867  0.62519117  0.04468382  1.0
  Ni  Ni11  1  0.28016867  0.95852450  0.04468382  1.0
  Ni  Ni12  1  0.61350200  0.29185783  0.04468382  1.0
  Ni  Ni13  1  0.61350200  0.62519117  0.04468382  1.0
  Ni  Ni14  1  0.61350200  0.95852450  0.04468382  1.0
  Ni  Ni15  1  0.94683533  0.29185783  0.04468382  1.0
  Ni  Ni16  1  0.94683533  0.62519117  0.04468382  1.0
  Ni  Ni17  1  0.94683533  0.95852450  0.04468382  1.0
  Ni  Ni18  1  0.28016867  0.04147550  0.08023425  1.0
  Ni  Ni19  1  0.28016867  0.37480883  0.08023425  1.0
  Ni  Ni20  1  0.28016867  0.70814217  0.08023425  1.0
  Ni  Ni21  1  0.61350200  0.04147550  0.08023425  1.0
  Ni  Ni22  1  0.61350200  0.37480883  0.08023425  1.0
  Ni  Ni23  1  0.61350200  0.70814217  0.08023425  1.0
  Ni  Ni24  1  0.94683533  0.04147550  0.08023425  1.0
  Ni  Ni25  1  0.94683533  0.37480883  0.08023425  1.0
  Ni  Ni26  1  0.94683533  0.70814217  0.08023425  1.0
  Ni  Ni27  1  0.28016867  0.20814217  0.00880568  1.0
  Ni  Ni28  1  0.28016867  0.54147550  0.00880568  1.0
  Ni  Ni29  1  0.28016867  0.87480883  0.00880568  1.0
  Ni  Ni30  1  0.61350200  0.20814217  0.00880568  1.0
  Ni  Ni31  1  0.61350200  0.54147550  0.00880568  1.0
  Ni  Ni32  1  0.61350200  0.87480883  0.00880568  1.0
  Ni  Ni33  1  0.94683533  0.20814217  0.00880568  1.0
  Ni  Ni34  1  0.94683533  0.54147550  0.00880568  1.0
  Ni  Ni35  1  0.94683533  0.87480883  0.00880568  1.0
  Ni  Ni36  1  0.05316467  0.12480883  0.04451996  1.0
  Ni  Ni37  1  0.05316467  0.45814217  0.04451996  1.0
  Ni  Ni38  1  0.05316467  0.79147550  0.04451996  1.0
  Ni  Ni39  1  0.38649800  0.12480883  0.04451996  1.0
  Ni  Ni40  1  0.38649800  0.45814217  0.04451996  1.0
  Ni  Ni41  1  0.38649800  0.79147550  0.04451996  1.0
  Ni  Ni42  1  0.71983133  0.12480883  0.04451996  1.0
  Ni  Ni43  1  0.71983133  0.45814217  0.04451996  1.0
  Ni  Ni44  1  0.71983133  0.79147550  0.04451996  1.0
  Ni  Ni45  1  0.05316467  0.29147550  0.11594854  1.0
  Ni  Ni46  1  0.05316467  0.62480883  0.11594854  1.0
  Ni  Ni47  1  0.05316467  0.95814217  0.11594854  1.0
  Ni  Ni48  1  0.38649800  0.29147550  0.11594854  1.0
  Ni  Ni49  1  0.38649800  0.62480883  0.11594854  1.0
  Ni  Ni50  1  0.38649800  0.95814217  0.11594854  1.0
  Ni  Ni51  1  0.71983133  0.29147550  0.11594854  1.0
  Ni  Ni52  1  0.71983133  0.62480883  0.11594854  1.0
  Ni  Ni53  1  0.71983133  0.95814217  0.11594854  1.0
  Ni  Ni54  1  0.05316467  0.04185783  0.00896954  1.0
  Ni  Ni55  1  0.05316467  0.37519117  0.00896954  1.0
  Ni  Ni56  1  0.05316467  0.70852450  0.00896954  1.0
  Ni  Ni57  1  0.38649800  0.04185783  0.00896954  1.0
  Ni  Ni58  1  0.38649800  0.37519117  0.00896954  1.0
  Ni  Ni59  1  0.38649800  0.70852450  0.00896954  1.0
  Ni  Ni60  1  0.71983133  0.04185783  0.00896954  1.0
  Ni  Ni61  1  0.71983133  0.37519117  0.00896954  1.0
  Ni  Ni62  1  0.71983133  0.70852450  0.00896954  1.0
  Ni  Ni63  1  0.05316467  0.20852450  0.08039811  1.0
  Ni  Ni64  1  0.05316467  0.54185783  0.08039811  1.0
  Ni  Ni65  1  0.05316467  0.87519117  0.08039811  1.0
  Ni  Ni66  1  0.38649800  0.20852450  0.08039811  1.0
  Ni  Ni67  1  0.38649800  0.54185783  0.08039811  1.0
  Ni  Ni68  1  0.38649800  0.87519117  0.08039811  1.0
  Ni  Ni69  1  0.71983133  0.20852450  0.08039811  1.0
  Ni  Ni70  1  0.71983133  0.54185783  0.08039811  1.0
  Ni  Ni71  1  0.71983133  0.87519117  0.08039811  1.0
  Ni  Ni72  1  0.22073500  0.08333333  0.02674475  1.0
  Ni  Ni73  1  0.22073500  0.41666667  0.02674475  1.0
  Ni  Ni74  1  0.22073500  0.75000000  0.02674475  1.0
  Ni  Ni75  1  0.55406833  0.08333333  0.02674475  1.0
  Ni  Ni76  1  0.55406833  0.41666667  0.02674475  1.0
  Ni  Ni77  1  0.55406833  0.75000000  0.02674475  1.0
  Ni  Ni78  1  0.88740167  0.08333333  0.02674475  1.0
  Ni  Ni79  1  0.88740167  0.41666667  0.02674475  1.0
  Ni  Ni80  1  0.88740167  0.75000000  0.02674475  1.0
  Ni  Ni81  1  0.22073500  0.25000000  0.09817332  1.0
  Ni  Ni82  1  0.22073500  0.58333333  0.09817332  1.0
  Ni  Ni83  1  0.22073500  0.91666667  0.09817332  1.0
  Ni  Ni84  1  0.55406833  0.25000000  0.09817332  1.0
  Ni  Ni85  1  0.55406833  0.58333333  0.09817332  1.0
  Ni  Ni86  1  0.55406833  0.91666667  0.09817332  1.0
  Ni  Ni87  1  0.88740167  0.25000000  0.09817332  1.0
  Ni  Ni88  1  0.88740167  0.58333333  0.09817332  1.0
  Ni  Ni89  1  0.88740167  0.91666667  0.09817332  1.0
  Ni  Ni90  1  0.11259833  0.00000000  0.06245904  1.0
  Ni  Ni91  1  0.11259833  0.33333333  0.06245904  1.0
  Ni  Ni92  1  0.11259833  0.66666667  0.06245904  1.0
  Ni  Ni93  1  0.44593167  0.00000000  0.06245904  1.0
  Ni  Ni94  1  0.44593167  0.33333333  0.06245904  1.0
  Ni  Ni95  1  0.44593167  0.66666667  0.06245904  1.0
  Ni  Ni96  1  0.77926500  0.00000000  0.06245904  1.0
  Ni  Ni97  1  0.77926500  0.33333333  0.06245904  1.0
  Ni  Ni98  1  0.77926500  0.66666667  0.06245904  1.0
  Ni  Ni99  1  0.11259833  0.16666667  0.13388761  1.0
  Ni  Ni100  1  0.11259833  0.50000000  0.13388761  1.0
  Ni  Ni101  1  0.11259833  0.83333333  0.13388761  1.0
  Ni  Ni102  1  0.44593167  0.16666667  0.13388761  1.0
  Ni  Ni103  1  0.44593167  0.50000000  0.13388761  1.0
  Ni  Ni104  1  0.44593167  0.83333333  0.13388761  1.0
  Ni  Ni105  1  0.77926500  0.16666667  0.13388761  1.0
  Ni  Ni106  1  0.77926500  0.50000000  0.13388761  1.0
  Ni  Ni107  1  0.77926500  0.83333333  0.13388761  1.0
  Mo  Mo108  1  0.11433067  0.08333333  0.09817332  1.0
  Mo  Mo109  1  0.11433067  0.41666667  0.09817332  1.0
  Mo  Mo110  1  0.11433067  0.75000000  0.09817332  1.0
  Mo  Mo111  1  0.44766400  0.08333333  0.09817332  1.0
  Mo  Mo112  1  0.44766400  0.41666667  0.09817332  1.0
  Mo  Mo113  1  0.44766400  0.75000000  0.09817332  1.0
  Mo  Mo114  1  0.78099733  0.08333333  0.09817332  1.0
  Mo  Mo115  1  0.78099733  0.41666667  0.09817332  1.0
  Mo  Mo116  1  0.78099733  0.75000000  0.09817332  1.0
  Mo  Mo117  1  0.11433067  0.25000000  0.02674475  1.0
  Mo  Mo118  1  0.11433067  0.58333333  0.02674475  1.0
  Mo  Mo119  1  0.11433067  0.91666667  0.02674475  1.0
  Mo  Mo120  1  0.44766400  0.25000000  0.02674475  1.0
  Mo  Mo121  1  0.44766400  0.58333333  0.02674475  1.0
  Mo  Mo122  1  0.44766400  0.91666667  0.02674475  1.0
  Mo  Mo123  1  0.78099733  0.25000000  0.02674475  1.0
  Mo  Mo124  1  0.78099733  0.58333333  0.02674475  1.0
  Mo  Mo125  1  0.78099733  0.91666667  0.02674475  1.0
  Mo  Mo126  1  0.21900267  0.00000000  0.13388761  1.0
  Mo  Mo127  1  0.21900267  0.33333333  0.13388761  1.0
  Mo  Mo128  1  0.21900267  0.66666667  0.13388761  1.0
  Mo  Mo129  1  0.55233600  0.00000000  0.13388761  1.0
  Mo  Mo130  1  0.55233600  0.33333333  0.13388761  1.0
  Mo  Mo131  1  0.55233600  0.66666667  0.13388761  1.0
  Mo  Mo132  1  0.88566933  0.00000000  0.13388761  1.0
  Mo  Mo133  1  0.88566933  0.33333333  0.13388761  1.0
  Mo  Mo134  1  0.88566933  0.66666667  0.13388761  1.0
  Mo  Mo135  1  0.21900267  0.16666667  0.06245904  1.0
  Mo  Mo136  1  0.21900267  0.50000000  0.06245904  1.0
  Mo  Mo137  1  0.21900267  0.83333333  0.06245904  1.0
  Mo  Mo138  1  0.55233600  0.16666667  0.06245904  1.0
  Mo  Mo139  1  0.55233600  0.50000000  0.06245904  1.0
  Mo  Mo140  1  0.55233600  0.83333333  0.06245904  1.0
  Mo  Mo141  1  0.88566933  0.16666667  0.06245904  1.0
  Mo  Mo142  1  0.88566933  0.50000000  0.06245904  1.0
  Mo  Mo143  1  0.88566933  0.83333333  0.06245904  1.0
  Ni  Ni144  1  0.28016867  0.12519117  0.25896954  1.0
  Ni  Ni145  1  0.28016867  0.45852450  0.25896954  1.0
  Ni  Ni146  1  0.28016867  0.79185783  0.25896954  1.0
  Ni  Ni147  1  0.61350200  0.12519117  0.25896954  1.0
  Ni  Ni148  1  0.61350200  0.45852450  0.25896954  1.0
  Ni  Ni149  1  0.61350200  0.79185783  0.25896954  1.0
  Ni  Ni150  1  0.94683533  0.12519117  0.25896954  1.0
  Ni  Ni151  1  0.94683533  0.45852450  0.25896954  1.0
  Ni  Ni152  1  0.94683533  0.79185783  0.25896954  1.0
  Ni  Ni153  1  0.28016867  0.29185783  0.18754096  1.0
  Ni  Ni154  1  0.28016867  0.62519117  0.18754096  1.0
  Ni  Ni155  1  0.28016867  0.95852450  0.18754096  1.0
  Ni  Ni156  1  0.61350200  0.29185783  0.18754096  1.0
  Ni  Ni157  1  0.61350200  0.62519117  0.18754096  1.0
  Ni  Ni158  1  0.61350200  0.95852450  0.18754096  1.0
  Ni  Ni159  1  0.94683533  0.29185783  0.18754096  1.0
  Ni  Ni160  1  0.94683533  0.62519117  0.18754096  1.0
  Ni  Ni161  1  0.94683533  0.95852450  0.18754096  1.0
  Ni  Ni162  1  0.28016867  0.04147550  0.22309139  1.0
  Ni  Ni163  1  0.28016867  0.37480883  0.22309139  1.0
  Ni  Ni164  1  0.28016867  0.70814217  0.22309139  1.0
  Ni  Ni165  1  0.61350200  0.04147550  0.22309139  1.0
  Ni  Ni166  1  0.61350200  0.37480883  0.22309139  1.0
  Ni  Ni167  1  0.61350200  0.70814217  0.22309139  1.0
  Ni  Ni168  1  0.94683533  0.04147550  0.22309139  1.0
  Ni  Ni169  1  0.94683533  0.37480883  0.22309139  1.0
  Ni  Ni170  1  0.94683533  0.70814217  0.22309139  1.0
  Ni  Ni171  1  0.28016867  0.20814217  0.15166282  1.0
  Ni  Ni172  1  0.28016867  0.54147550  0.15166282  1.0
  Ni  Ni173  1  0.28016867  0.87480883  0.15166282  1.0
  Ni  Ni174  1  0.61350200  0.20814217  0.15166282  1.0
  Ni  Ni175  1  0.61350200  0.54147550  0.15166282  1.0
  Ni  Ni176  1  0.61350200  0.87480883  0.15166282  1.0
  Ni  Ni177  1  0.94683533  0.20814217  0.15166282  1.0
  Ni  Ni178  1  0.94683533  0.54147550  0.15166282  1.0
  Ni  Ni179  1  0.94683533  0.87480883  0.15166282  1.0
  Ni  Ni180  1  0.05316467  0.12480883  0.18737711  1.0
  Ni  Ni181  1  0.05316467  0.45814217  0.18737711  1.0
  Ni  Ni182  1  0.05316467  0.79147550  0.18737711  1.0
  Ni  Ni183  1  0.38649800  0.12480883  0.18737711  1.0
  Ni  Ni184  1  0.38649800  0.45814217  0.18737711  1.0
  Ni  Ni185  1  0.38649800  0.79147550  0.18737711  1.0
  Ni  Ni186  1  0.71983133  0.12480883  0.18737711  1.0
  Ni  Ni187  1  0.71983133  0.45814217  0.18737711  1.0
  Ni  Ni188  1  0.71983133  0.79147550  0.18737711  1.0
  Ni  Ni189  1  0.05316467  0.29147550  0.25880568  1.0
  Ni  Ni190  1  0.05316467  0.62480883  0.25880568  1.0
  Ni  Ni191  1  0.05316467  0.95814217  0.25880568  1.0
  Ni  Ni192  1  0.38649800  0.29147550  0.25880568  1.0
  Ni  Ni193  1  0.38649800  0.62480883  0.25880568  1.0
  Ni  Ni194  1  0.38649800  0.95814217  0.25880568  1.0
  Ni  Ni195  1  0.71983133  0.29147550  0.25880568  1.0
  Ni  Ni196  1  0.71983133  0.62480883  0.25880568  1.0
  Ni  Ni197  1  0.71983133  0.95814217  0.25880568  1.0
  Ni  Ni198  1  0.05316467  0.04185783  0.15182668  1.0
  Ni  Ni199  1  0.05316467  0.37519117  0.15182668  1.0
  Ni  Ni200  1  0.05316467  0.70852450  0.15182668  1.0
  Ni  Ni201  1  0.38649800  0.04185783  0.15182668  1.0
  Ni  Ni202  1  0.38649800  0.37519117  0.15182668  1.0
  Ni  Ni203  1  0.38649800  0.70852450  0.15182668  1.0
  Ni  Ni204  1  0.71983133  0.04185783  0.15182668  1.0
  Ni  Ni205  1  0.71983133  0.37519117  0.15182668  1.0
  Ni  Ni206  1  0.71983133  0.70852450  0.15182668  1.0
  Ni  Ni207  1  0.05316467  0.20852450  0.22325525  1.0
  Ni  Ni208  1  0.05316467  0.54185783  0.22325525  1.0
  Ni  Ni209  1  0.05316467  0.87519117  0.22325525  1.0
  Ni  Ni210  1  0.38649800  0.20852450  0.22325525  1.0
  Ni  Ni211  1  0.38649800  0.54185783  0.22325525  1.0
  Ni  Ni212  1  0.38649800  0.87519117  0.22325525  1.0
  Ni  Ni213  1  0.71983133  0.20852450  0.22325525  1.0
  Ni  Ni214  1  0.71983133  0.54185783  0.22325525  1.0
  Ni  Ni215  1  0.71983133  0.87519117  0.22325525  1.0
  Ni  Ni216  1  0.22073500  0.08333333  0.16960189  1.0
  Ni  Ni217  1  0.22073500  0.41666667  0.16960189  1.0
  Ni  Ni218  1  0.22073500  0.75000000  0.16960189  1.0
  Ni  Ni219  1  0.55406833  0.08333333  0.16960189  1.0
  Ni  Ni220  1  0.55406833  0.41666667  0.16960189  1.0
  Ni  Ni221  1  0.55406833  0.75000000  0.16960189  1.0
  Ni  Ni222  1  0.88740167  0.08333333  0.16960189  1.0
  Ni  Ni223  1  0.88740167  0.41666667  0.16960189  1.0
  Ni  Ni224  1  0.88740167  0.75000000  0.16960189  1.0
  Ni  Ni225  1  0.22073500  0.25000000  0.24103046  1.0
  Ni  Ni226  1  0.22073500  0.58333333  0.24103046  1.0
  Ni  Ni227  1  0.22073500  0.91666667  0.24103046  1.0
  Ni  Ni228  1  0.55406833  0.25000000  0.24103046  1.0
  Ni  Ni229  1  0.55406833  0.58333333  0.24103046  1.0
  Ni  Ni230  1  0.55406833  0.91666667  0.24103046  1.0
  Ni  Ni231  1  0.88740167  0.25000000  0.24103046  1.0
  Ni  Ni232  1  0.88740167  0.58333333  0.24103046  1.0
  Ni  Ni233  1  0.88740167  0.91666667  0.24103046  1.0
  Ni  Ni234  1  0.11259833  0.00000000  0.20531618  1.0
  Ni  Ni235  1  0.11259833  0.33333333  0.20531618  1.0
  Ni  Ni236  1  0.11259833  0.66666667  0.20531618  1.0
  Ni  Ni237  1  0.44593167  0.00000000  0.20531618  1.0
  Ni  Ni238  1  0.44593167  0.33333333  0.20531618  1.0
  Ni  Ni239  1  0.44593167  0.66666667  0.20531618  1.0
  Ni  Ni240  1  0.77926500  0.00000000  0.20531618  1.0
  Ni  Ni241  1  0.77926500  0.33333333  0.20531618  1.0
  Ni  Ni242  1  0.77926500  0.66666667  0.20531618  1.0
  Ni  Ni243  1  0.11259833  0.16666667  0.27674475  1.0
  Ni  Ni244  1  0.11259833  0.50000000  0.27674475  1.0
  Ni  Ni245  1  0.11259833  0.83333333  0.27674475  1.0
  Ni  Ni246  1  0.44593167  0.16666667  0.27674475  1.0
  Ni  Ni247  1  0.44593167  0.50000000  0.27674475  1.0
  Ni  Ni248  1  0.44593167  0.83333333  0.27674475  1.0
  Ni  Ni249  1  0.77926500  0.16666667  0.27674475  1.0
  Ni  Ni250  1  0.77926500  0.50000000  0.27674475  1.0
  Ni  Ni251  1  0.77926500  0.83333333  0.27674475  1.0
  Mo  Mo252  1  0.11433067  0.08333333  0.24103046  1.0
  Mo  Mo253  1  0.11433067  0.41666667  0.24103046  1.0
  Mo  Mo254  1  0.11433067  0.75000000  0.24103046  1.0
  Mo  Mo255  1  0.44766400  0.08333333  0.24103046  1.0
  Mo  Mo256  1  0.44766400  0.41666667  0.24103046  1.0
  Mo  Mo257  1  0.44766400  0.75000000  0.24103046  1.0
  Mo  Mo258  1  0.78099733  0.08333333  0.24103046  1.0
  Mo  Mo259  1  0.78099733  0.41666667  0.24103046  1.0
  Mo  Mo260  1  0.78099733  0.75000000  0.24103046  1.0
  Mo  Mo261  1  0.11433067  0.25000000  0.16960189  1.0
  Mo  Mo262  1  0.11433067  0.58333333  0.16960189  1.0
  Mo  Mo263  1  0.11433067  0.91666667  0.16960189  1.0
  Mo  Mo264  1  0.44766400  0.25000000  0.16960189  1.0
  Mo  Mo265  1  0.44766400  0.58333333  0.16960189  1.0
  Mo  Mo266  1  0.44766400  0.91666667  0.16960189  1.0
  Mo  Mo267  1  0.78099733  0.25000000  0.16960189  1.0
  Mo  Mo268  1  0.78099733  0.58333333  0.16960189  1.0
  Mo  Mo269  1  0.78099733  0.91666667  0.16960189  1.0
  Mo  Mo270  1  0.21900267  0.00000000  0.27674475  1.0
  Mo  Mo271  1  0.21900267  0.33333333  0.27674475  1.0
  Mo  Mo272  1  0.21900267  0.66666667  0.27674475  1.0
  Mo  Mo273  1  0.55233600  0.00000000  0.27674475  1.0
  Mo  Mo274  1  0.55233600  0.33333333  0.27674475  1.0
  Mo  Mo275  1  0.55233600  0.66666667  0.27674475  1.0
  Mo  Mo276  1  0.88566933  0.00000000  0.27674475  1.0
  Mo  Mo277  1  0.88566933  0.33333333  0.27674475  1.0
  Mo  Mo278  1  0.88566933  0.66666667  0.27674475  1.0
  Mo  Mo279  1  0.21900267  0.16666667  0.20531618  1.0
  Mo  Mo280  1  0.21900267  0.50000000  0.20531618  1.0
  Mo  Mo281  1  0.21900267  0.83333333  0.20531618  1.0
  Mo  Mo282  1  0.55233600  0.16666667  0.20531618  1.0
  Mo  Mo283  1  0.55233600  0.50000000  0.20531618  1.0
  Mo  Mo284  1  0.55233600  0.83333333  0.20531618  1.0
  Mo  Mo285  1  0.88566933  0.16666667  0.20531618  1.0
  Mo  Mo286  1  0.88566933  0.50000000  0.20531618  1.0
  Mo  Mo287  1  0.88566933  0.83333333  0.20531618  1.0
  Ni  Ni288  1  0.28016867  0.12519117  0.40182668  1.0
  Ni  Ni289  1  0.28016867  0.45852450  0.40182668  1.0
  Ni  Ni290  1  0.28016867  0.79185783  0.40182668  1.0
  Ni  Ni291  1  0.61350200  0.12519117  0.40182668  1.0
  Ni  Ni292  1  0.61350200  0.45852450  0.40182668  1.0
  Ni  Ni293  1  0.61350200  0.79185783  0.40182668  1.0
  Ni  Ni294  1  0.94683533  0.12519117  0.40182668  1.0
  Ni  Ni295  1  0.94683533  0.45852450  0.40182668  1.0
  Ni  Ni296  1  0.94683533  0.79185783  0.40182668  1.0
  Ni  Ni297  1  0.28016867  0.29185783  0.33039811  1.0
  Ni  Ni298  1  0.28016867  0.62519117  0.33039811  1.0
  Ni  Ni299  1  0.28016867  0.95852450  0.33039811  1.0
  Ni  Ni300  1  0.61350200  0.29185783  0.33039811  1.0
  Ni  Ni301  1  0.61350200  0.62519117  0.33039811  1.0
  Ni  Ni302  1  0.61350200  0.95852450  0.33039811  1.0
  Ni  Ni303  1  0.94683533  0.29185783  0.33039811  1.0
  Ni  Ni304  1  0.94683533  0.62519117  0.33039811  1.0
  Ni  Ni305  1  0.94683533  0.95852450  0.33039811  1.0
  Ni  Ni306  1  0.28016867  0.04147550  0.36594854  1.0
  Ni  Ni307  1  0.28016867  0.37480883  0.36594854  1.0
  Ni  Ni308  1  0.28016867  0.70814217  0.36594854  1.0
  Ni  Ni309  1  0.61350200  0.04147550  0.36594854  1.0
  Ni  Ni310  1  0.61350200  0.37480883  0.36594854  1.0
  Ni  Ni311  1  0.61350200  0.70814217  0.36594854  1.0
  Ni  Ni312  1  0.94683533  0.04147550  0.36594854  1.0
  Ni  Ni313  1  0.94683533  0.37480883  0.36594854  1.0
  Ni  Ni314  1  0.94683533  0.70814217  0.36594854  1.0
  Ni  Ni315  1  0.28016867  0.20814217  0.29451996  1.0
  Ni  Ni316  1  0.28016867  0.54147550  0.29451996  1.0
  Ni  Ni317  1  0.28016867  0.87480883  0.29451996  1.0
  Ni  Ni318  1  0.61350200  0.20814217  0.29451996  1.0
  Ni  Ni319  1  0.61350200  0.54147550  0.29451996  1.0
  Ni  Ni320  1  0.61350200  0.87480883  0.29451996  1.0
  Ni  Ni321  1  0.94683533  0.20814217  0.29451996  1.0
  Ni  Ni322  1  0.94683533  0.54147550  0.29451996  1.0
  Ni  Ni323  1  0.94683533  0.87480883  0.29451996  1.0
  Ni  Ni324  1  0.05316467  0.12480883  0.33023425  1.0
  Ni  Ni325  1  0.05316467  0.45814217  0.33023425  1.0
  Ni  Ni326  1  0.05316467  0.79147550  0.33023425  1.0
  Ni  Ni327  1  0.38649800  0.12480883  0.33023425  1.0
  Ni  Ni328  1  0.38649800  0.45814217  0.33023425  1.0
  Ni  Ni329  1  0.38649800  0.79147550  0.33023425  1.0
  Ni  Ni330  1  0.71983133  0.12480883  0.33023425  1.0
  Ni  Ni331  1  0.71983133  0.45814217  0.33023425  1.0
  Ni  Ni332  1  0.71983133  0.79147550  0.33023425  1.0
  Ni  Ni333  1  0.05316467  0.29147550  0.40166282  1.0
  Ni  Ni334  1  0.05316467  0.62480883  0.40166282  1.0
  Ni  Ni335  1  0.05316467  0.95814217  0.40166282  1.0
  Ni  Ni336  1  0.38649800  0.29147550  0.40166282  1.0
  Ni  Ni337  1  0.38649800  0.62480883  0.40166282  1.0
  Ni  Ni338  1  0.38649800  0.95814217  0.40166282  1.0
  Ni  Ni339  1  0.71983133  0.29147550  0.40166282  1.0
  Ni  Ni340  1  0.71983133  0.62480883  0.40166282  1.0
  Ni  Ni341  1  0.71983133  0.95814217  0.40166282  1.0
  Ni  Ni342  1  0.05316467  0.04185783  0.29468382  1.0
  Ni  Ni343  1  0.05316467  0.37519117  0.29468382  1.0
  Ni  Ni344  1  0.05316467  0.70852450  0.29468382  1.0
  Ni  Ni345  1  0.38649800  0.04185783  0.29468382  1.0
  Ni  Ni346  1  0.38649800  0.37519117  0.29468382  1.0
  Ni  Ni347  1  0.38649800  0.70852450  0.29468382  1.0
  Ni  Ni348  1  0.71983133  0.04185783  0.29468382  1.0
  Ni  Ni349  1  0.71983133  0.37519117  0.29468382  1.0
  Ni  Ni350  1  0.71983133  0.70852450  0.29468382  1.0
  Ni  Ni351  1  0.05316467  0.20852450  0.36611239  1.0
  Ni  Ni352  1  0.05316467  0.54185783  0.36611239  1.0
  Ni  Ni353  1  0.05316467  0.87519117  0.36611239  1.0
  Ni  Ni354  1  0.38649800  0.20852450  0.36611239  1.0
  Ni  Ni355  1  0.38649800  0.54185783  0.36611239  1.0
  Ni  Ni356  1  0.38649800  0.87519117  0.36611239  1.0
  Ni  Ni357  1  0.71983133  0.20852450  0.36611239  1.0
  Ni  Ni358  1  0.71983133  0.54185783  0.36611239  1.0
  Ni  Ni359  1  0.71983133  0.87519117  0.36611239  1.0
  Ni  Ni360  1  0.22073500  0.08333333  0.31245904  1.0
  Ni  Ni361  1  0.22073500  0.41666667  0.31245904  1.0
  Ni  Ni362  1  0.22073500  0.75000000  0.31245904  1.0
  Ni  Ni363  1  0.55406833  0.08333333  0.31245904  1.0
  Ni  Ni364  1  0.55406833  0.41666667  0.31245904  1.0
  Ni  Ni365  1  0.55406833  0.75000000  0.31245904  1.0
  Ni  Ni366  1  0.88740167  0.08333333  0.31245904  1.0
  Ni  Ni367  1  0.88740167  0.41666667  0.31245904  1.0
  Ni  Ni368  1  0.88740167  0.75000000  0.31245904  1.0
  Ni  Ni369  1  0.22073500  0.25000000  0.38388761  1.0
  Ni  Ni370  1  0.22073500  0.58333333  0.38388761  1.0
  Ni  Ni371  1  0.22073500  0.91666667  0.38388761  1.0
  Ni  Ni372  1  0.55406833  0.25000000  0.38388761  1.0
  Ni  Ni373  1  0.55406833  0.58333333  0.38388761  1.0
  Ni  Ni374  1  0.55406833  0.91666667  0.38388761  1.0
  Ni  Ni375  1  0.88740167  0.25000000  0.38388761  1.0
  Ni  Ni376  1  0.88740167  0.58333333  0.38388761  1.0
  Ni  Ni377  1  0.88740167  0.91666667  0.38388761  1.0
  Ni  Ni378  1  0.11259833  0.00000000  0.34817332  1.0
  Ni  Ni379  1  0.11259833  0.33333333  0.34817332  1.0
  Ni  Ni380  1  0.11259833  0.66666667  0.34817332  1.0
  Ni  Ni381  1  0.44593167  0.00000000  0.34817332  1.0
  Ni  Ni382  1  0.44593167  0.33333333  0.34817332  1.0
  Ni  Ni383  1  0.44593167  0.66666667  0.34817332  1.0
  Ni  Ni384  1  0.77926500  0.00000000  0.34817332  1.0
  Ni  Ni385  1  0.77926500  0.33333333  0.34817332  1.0
  Ni  Ni386  1  0.77926500  0.66666667  0.34817332  1.0
  Ni  Ni387  1  0.11259833  0.16666667  0.41960189  1.0
  Ni  Ni388  1  0.11259833  0.50000000  0.41960189  1.0
  Ni  Ni389  1  0.11259833  0.83333333  0.41960189  1.0
  Ni  Ni390  1  0.44593167  0.16666667  0.41960189  1.0
  Ni  Ni391  1  0.44593167  0.50000000  0.41960189  1.0
  Ni  Ni392  1  0.44593167  0.83333333  0.41960189  1.0
  Ni  Ni393  1  0.77926500  0.16666667  0.41960189  1.0
  Ni  Ni394  1  0.77926500  0.50000000  0.41960189  1.0
  Ni  Ni395  1  0.77926500  0.83333333  0.41960189  1.0
  Mo  Mo396  1  0.11433067  0.08333333  0.38388761  1.0
  Mo  Mo397  1  0.11433067  0.41666667  0.38388761  1.0
  Mo  Mo398  1  0.11433067  0.75000000  0.38388761  1.0
  Mo  Mo399  1  0.44766400  0.08333333  0.38388761  1.0
  Mo  Mo400  1  0.44766400  0.41666667  0.38388761  1.0
  Mo  Mo401  1  0.44766400  0.75000000  0.38388761  1.0
  Mo  Mo402  1  0.78099733  0.08333333  0.38388761  1.0
  Mo  Mo403  1  0.78099733  0.41666667  0.38388761  1.0
  Mo  Mo404  1  0.78099733  0.75000000  0.38388761  1.0
  Mo  Mo405  1  0.11433067  0.25000000  0.31245904  1.0
  Mo  Mo406  1  0.11433067  0.58333333  0.31245904  1.0
  Mo  Mo407  1  0.11433067  0.91666667  0.31245904  1.0
  Mo  Mo408  1  0.44766400  0.25000000  0.31245904  1.0
  Mo  Mo409  1  0.44766400  0.58333333  0.31245904  1.0
  Mo  Mo410  1  0.44766400  0.91666667  0.31245904  1.0
  Mo  Mo411  1  0.78099733  0.25000000  0.31245904  1.0
  Mo  Mo412  1  0.78099733  0.58333333  0.31245904  1.0
  Mo  Mo413  1  0.78099733  0.91666667  0.31245904  1.0
  Mo  Mo414  1  0.21900267  0.00000000  0.41960189  1.0
  Mo  Mo415  1  0.21900267  0.33333333  0.41960189  1.0
  Mo  Mo416  1  0.21900267  0.66666667  0.41960189  1.0
  Mo  Mo417  1  0.55233600  0.00000000  0.41960189  1.0
  Mo  Mo418  1  0.55233600  0.33333333  0.41960189  1.0
  Mo  Mo419  1  0.55233600  0.66666667  0.41960189  1.0
  Mo  Mo420  1  0.88566933  0.00000000  0.41960189  1.0
  Mo  Mo421  1  0.88566933  0.33333333  0.41960189  1.0
  Mo  Mo422  1  0.88566933  0.66666667  0.41960189  1.0
  Mo  Mo423  1  0.21900267  0.16666667  0.34817332  1.0
  Mo  Mo424  1  0.21900267  0.50000000  0.34817332  1.0
  Mo  Mo425  1  0.21900267  0.83333333  0.34817332  1.0
  Mo  Mo426  1  0.55233600  0.16666667  0.34817332  1.0
  Mo  Mo427  1  0.55233600  0.50000000  0.34817332  1.0
  Mo  Mo428  1  0.55233600  0.83333333  0.34817332  1.0
  Mo  Mo429  1  0.88566933  0.16666667  0.34817332  1.0
  Mo  Mo430  1  0.88566933  0.50000000  0.34817332  1.0
  Mo  Mo431  1  0.88566933  0.83333333  0.34817332  1.0
