# generated using pymatgen
data_Ni3Mo
_symmetry_space_group_name_H-M   'P 1'
_cell_length_a   29.63548414
_cell_length_b   19.71520426
_cell_length_c   38.12222700
_cell_angle_alpha   130.13184594
_cell_angle_beta   115.39081587
_cell_angle_gamma   73.95595392
_symmetry_Int_Tables_number   1
_chemical_formula_structural   Ni3Mo
_chemical_formula_sum   'Ni432 Mo144'
_cell_volume   15384.62896177
_cell_formula_units_Z   144
loop_
 _symmetry_equiv_pos_site_id
 _symmetry_equiv_pos_as_xyz
  1  'x, y, z'
loop_
 _atom_site_type_symbol
 _atom_site_label
 _atom_site_symmetry_multiplicity
 _atom_site_fract_x
 _atom_site_fract_y
 _atom_site_fract_z
 _atom_site_occupancy
  Ni  Ni0  1  0.14008433  0.25038233  0.07460000  1.0
  Ni  Ni1  1  0.14008433  0.58371567  0.07460000  1.0
  Ni  Ni2  1  0.14008433  0.91704900  0.07460000  1.0
  Ni  Ni3  1  0.47341767  0.25038233  0.07460000  1.0
  Ni  Ni4  1  0.47341767  0.58371567  0.07460000  1.0
  Ni  Ni5  1  0.47341767  0.91704900  0.07460000  1.0
  Ni  Ni6  1  0.80675100  0.25038233  0.07460000  1.0
  Ni  Ni7  1  0.80675100  0.58371567  0.07460000  1.0
  Ni  Ni8  1  0.80675100  0.91704900  0.07460000  1.0
  Ni  Ni9  1  0.30675100  0.25038233  0.01904444  1.0
  Ni  Ni10  1  0.30675100  0.58371567  0.01904444  1.0
  Ni  Ni11  1  0.30675100  0.91704900  0.01904444  1.0
  Ni  Ni12  1  0.64008433  0.25038233  0.01904444  1.0
  Ni  Ni13  1  0.64008433  0.58371567  0.01904444  1.0
  Ni  Ni14  1  0.64008433  0.91704900  0.01904444  1.0
  Ni  Ni15  1  0.97341767  0.25038233  0.01904444  1.0
  Ni  Ni16  1  0.97341767  0.58371567  0.01904444  1.0
  Ni  Ni17  1  0.97341767  0.91704900  0.01904444  1.0
  Ni  Ni18  1  0.14008433  0.08295100  0.01878956  1.0
  Ni  Ni19  1  0.14008433  0.41628433  0.01878956  1.0
  Ni  Ni20  1  0.14008433  0.74961767  0.01878956  1.0
  Ni  Ni21  1  0.47341767  0.08295100  0.01878956  1.0
  Ni  Ni22  1  0.47341767  0.41628433  0.01878956  1.0
  Ni  Ni23  1  0.47341767  0.74961767  0.01878956  1.0
  Ni  Ni24  1  0.80675100  0.08295100  0.01878956  1.0
  Ni  Ni25  1  0.80675100  0.41628433  0.01878956  1.0
  Ni  Ni26  1  0.80675100  0.74961767  0.01878956  1.0
  Ni  Ni27  1  0.30675100  0.08295100  0.07434511  1.0
  Ni  Ni28  1  0.30675100  0.41628433  0.07434511  1.0
  Ni  Ni29  1  0.30675100  0.74961767  0.07434511  1.0
  Ni  Ni30  1  0.64008433  0.08295100  0.07434511  1.0
  Ni  Ni31  1  0.64008433  0.41628433  0.07434511  1.0
  Ni  Ni32  1  0.64008433  0.74961767  0.07434511  1.0
  Ni  Ni33  1  0.97341767  0.08295100  0.07434511  1.0
  Ni  Ni34  1  0.97341767  0.41628433  0.07434511  1.0
  Ni  Ni35  1  0.97341767  0.74961767  0.07434511  1.0
  Ni  Ni36  1  0.02658233  0.24961767  0.09206667  1.0
  Ni  Ni37  1  0.02658233  0.58295100  0.09206667  1.0
  Ni  Ni38  1  0.02658233  0.91628433  0.09206667  1.0
  Ni  Ni39  1  0.35991567  0.24961767  0.09206667  1.0
  Ni  Ni40  1  0.35991567  0.58295100  0.09206667  1.0
  Ni  Ni41  1  0.35991567  0.91628433  0.09206667  1.0
  Ni  Ni42  1  0.69324900  0.24961767  0.09206667  1.0
  Ni  Ni43  1  0.69324900  0.58295100  0.09206667  1.0
  Ni  Ni44  1  0.69324900  0.91628433  0.09206667  1.0
  Ni  Ni45  1  0.19324900  0.24961767  0.03651111  1.0
  Ni  Ni46  1  0.19324900  0.58295100  0.03651111  1.0
  Ni  Ni47  1  0.19324900  0.91628433  0.03651111  1.0
  Ni  Ni48  1  0.52658233  0.24961767  0.03651111  1.0
  Ni  Ni49  1  0.52658233  0.58295100  0.03651111  1.0
  Ni  Ni50  1  0.52658233  0.91628433  0.03651111  1.0
  Ni  Ni51  1  0.85991567  0.24961767  0.03651111  1.0
  Ni  Ni52  1  0.85991567  0.58295100  0.03651111  1.0
  Ni  Ni53  1  0.85991567  0.91628433  0.03651111  1.0
  Ni  Ni54  1  0.02658233  0.08371567  0.03676600  1.0
  Ni  Ni55  1  0.02658233  0.41704900  0.03676600  1.0
  Ni  Ni56  1  0.02658233  0.75038233  0.03676600  1.0
  Ni  Ni57  1  0.35991567  0.08371567  0.03676600  1.0
  Ni  Ni58  1  0.35991567  0.41704900  0.03676600  1.0
  Ni  Ni59  1  0.35991567  0.75038233  0.03676600  1.0
  Ni  Ni60  1  0.69324900  0.08371567  0.03676600  1.0
  Ni  Ni61  1  0.69324900  0.41704900  0.03676600  1.0
  Ni  Ni62  1  0.69324900  0.75038233  0.03676600  1.0
  Ni  Ni63  1  0.19324900  0.08371567  0.09232156  1.0
  Ni  Ni64  1  0.19324900  0.41704900  0.09232156  1.0
  Ni  Ni65  1  0.19324900  0.75038233  0.09232156  1.0
  Ni  Ni66  1  0.52658233  0.08371567  0.09232156  1.0
  Ni  Ni67  1  0.52658233  0.41704900  0.09232156  1.0
  Ni  Ni68  1  0.52658233  0.75038233  0.09232156  1.0
  Ni  Ni69  1  0.85991567  0.08371567  0.09232156  1.0
  Ni  Ni70  1  0.85991567  0.41704900  0.09232156  1.0
  Ni  Ni71  1  0.85991567  0.75038233  0.09232156  1.0
  Ni  Ni72  1  0.11036750  0.16666667  0.09234472  1.0
  Ni  Ni73  1  0.11036750  0.50000000  0.09234472  1.0
  Ni  Ni74  1  0.11036750  0.83333333  0.09234472  1.0
  Ni  Ni75  1  0.44370083  0.16666667  0.09234472  1.0
  Ni  Ni76  1  0.44370083  0.50000000  0.09234472  1.0
  Ni  Ni77  1  0.44370083  0.83333333  0.09234472  1.0
  Ni  Ni78  1  0.77703417  0.16666667  0.09234472  1.0
  Ni  Ni79  1  0.77703417  0.50000000  0.09234472  1.0
  Ni  Ni80  1  0.77703417  0.83333333  0.09234472  1.0
  Ni  Ni81  1  0.27703417  0.16666667  0.03678917  1.0
  Ni  Ni82  1  0.27703417  0.50000000  0.03678917  1.0
  Ni  Ni83  1  0.27703417  0.83333333  0.03678917  1.0
  Ni  Ni84  1  0.61036750  0.16666667  0.03678917  1.0
  Ni  Ni85  1  0.61036750  0.50000000  0.03678917  1.0
  Ni  Ni86  1  0.61036750  0.83333333  0.03678917  1.0
  Ni  Ni87  1  0.94370083  0.16666667  0.03678917  1.0
  Ni  Ni88  1  0.94370083  0.50000000  0.03678917  1.0
  Ni  Ni89  1  0.94370083  0.83333333  0.03678917  1.0
  Ni  Ni90  1  0.05629917  0.00000000  0.07432194  1.0
  Ni  Ni91  1  0.05629917  0.33333333  0.07432194  1.0
  Ni  Ni92  1  0.05629917  0.66666667  0.07432194  1.0
  Ni  Ni93  1  0.38963250  0.00000000  0.07432194  1.0
  Ni  Ni94  1  0.38963250  0.33333333  0.07432194  1.0
  Ni  Ni95  1  0.38963250  0.66666667  0.07432194  1.0
  Ni  Ni96  1  0.72296583  0.00000000  0.07432194  1.0
  Ni  Ni97  1  0.72296583  0.33333333  0.07432194  1.0
  Ni  Ni98  1  0.72296583  0.66666667  0.07432194  1.0
  Ni  Ni99  1  0.22296583  0.00000000  0.01876639  1.0
  Ni  Ni100  1  0.22296583  0.33333333  0.01876639  1.0
  Ni  Ni101  1  0.22296583  0.66666667  0.01876639  1.0
  Ni  Ni102  1  0.55629917  0.00000000  0.01876639  1.0
  Ni  Ni103  1  0.55629917  0.33333333  0.01876639  1.0
  Ni  Ni104  1  0.55629917  0.66666667  0.01876639  1.0
  Ni  Ni105  1  0.88963250  0.00000000  0.01876639  1.0
  Ni  Ni106  1  0.88963250  0.33333333  0.01876639  1.0
  Ni  Ni107  1  0.88963250  0.66666667  0.01876639  1.0
  Mo  Mo108  1  0.05716533  0.16666667  0.01905511  1.0
  Mo  Mo109  1  0.05716533  0.50000000  0.01905511  1.0
  Mo  Mo110  1  0.05716533  0.83333333  0.01905511  1.0
  Mo  Mo111  1  0.39049867  0.16666667  0.01905511  1.0
  Mo  Mo112  1  0.39049867  0.50000000  0.01905511  1.0
  Mo  Mo113  1  0.39049867  0.83333333  0.01905511  1.0
  Mo  Mo114  1  0.72383200  0.16666667  0.01905511  1.0
  Mo  Mo115  1  0.72383200  0.50000000  0.01905511  1.0
  Mo  Mo116  1  0.72383200  0.83333333  0.01905511  1.0
  Mo  Mo117  1  0.22383200  0.16666667  0.07461067  1.0
  Mo  Mo118  1  0.22383200  0.50000000  0.07461067  1.0
  Mo  Mo119  1  0.22383200  0.83333333  0.07461067  1.0
  Mo  Mo120  1  0.55716533  0.16666667  0.07461067  1.0
  Mo  Mo121  1  0.55716533  0.50000000  0.07461067  1.0
  Mo  Mo122  1  0.55716533  0.83333333  0.07461067  1.0
  Mo  Mo123  1  0.89049867  0.16666667  0.07461067  1.0
  Mo  Mo124  1  0.89049867  0.50000000  0.07461067  1.0
  Mo  Mo125  1  0.89049867  0.83333333  0.07461067  1.0
  Mo  Mo126  1  0.10950133  0.00000000  0.03650044  1.0
  Mo  Mo127  1  0.10950133  0.33333333  0.03650044  1.0
  Mo  Mo128  1  0.10950133  0.66666667  0.03650044  1.0
  Mo  Mo129  1  0.44283467  0.00000000  0.03650044  1.0
  Mo  Mo130  1  0.44283467  0.33333333  0.03650044  1.0
  Mo  Mo131  1  0.44283467  0.66666667  0.03650044  1.0
  Mo  Mo132  1  0.77616800  0.00000000  0.03650044  1.0
  Mo  Mo133  1  0.77616800  0.33333333  0.03650044  1.0
  Mo  Mo134  1  0.77616800  0.66666667  0.03650044  1.0
  Mo  Mo135  1  0.27616800  0.00000000  0.09205600  1.0
  Mo  Mo136  1  0.27616800  0.33333333  0.09205600  1.0
  Mo  Mo137  1  0.27616800  0.66666667  0.09205600  1.0
  Mo  Mo138  1  0.60950133  0.00000000  0.09205600  1.0
  Mo  Mo139  1  0.60950133  0.33333333  0.09205600  1.0
  Mo  Mo140  1  0.60950133  0.66666667  0.09205600  1.0
  Mo  Mo141  1  0.94283467  0.00000000  0.09205600  1.0
  Mo  Mo142  1  0.94283467  0.33333333  0.09205600  1.0
  Mo  Mo143  1  0.94283467  0.66666667  0.09205600  1.0
  Ni  Ni144  1  0.14008433  0.25038233  0.18571111  1.0
  Ni  Ni145  1  0.14008433  0.58371567  0.18571111  1.0
  Ni  Ni146  1  0.14008433  0.91704900  0.18571111  1.0
  Ni  Ni147  1  0.47341767  0.25038233  0.18571111  1.0
  Ni  Ni148  1  0.47341767  0.58371567  0.18571111  1.0
  Ni  Ni149  1  0.47341767  0.91704900  0.18571111  1.0
  Ni  Ni150  1  0.80675100  0.25038233  0.18571111  1.0
  Ni  Ni151  1  0.80675100  0.58371567  0.18571111  1.0
  Ni  Ni152  1  0.80675100  0.91704900  0.18571111  1.0
  Ni  Ni153  1  0.30675100  0.25038233  0.13015556  1.0
  Ni  Ni154  1  0.30675100  0.58371567  0.13015556  1.0
  Ni  Ni155  1  0.30675100  0.91704900  0.13015556  1.0
  Ni  Ni156  1  0.64008433  0.25038233  0.13015556  1.0
  Ni  Ni157  1  0.64008433  0.58371567  0.13015556  1.0
  Ni  Ni158  1  0.64008433  0.91704900  0.13015556  1.0
  Ni  Ni159  1  0.97341767  0.25038233  0.13015556  1.0
  Ni  Ni160  1  0.97341767  0.58371567  0.13015556  1.0
  Ni  Ni161  1  0.97341767  0.91704900  0.13015556  1.0
  Ni  Ni162  1  0.14008433  0.08295100  0.12990067  1.0
  Ni  Ni163  1  0.14008433  0.41628433  0.12990067  1.0
  Ni  Ni164  1  0.14008433  0.74961767  0.12990067  1.0
  Ni  Ni165  1  0.47341767  0.08295100  0.12990067  1.0
  Ni  Ni166  1  0.47341767  0.41628433  0.12990067  1.0
  Ni  Ni167  1  0.47341767  0.74961767  0.12990067  1.0
  Ni  Ni168  1  0.80675100  0.08295100  0.12990067  1.0
  Ni  Ni169  1  0.80675100  0.41628433  0.12990067  1.0
  Ni  Ni170  1  0.80675100  0.74961767  0.12990067  1.0
  Ni  Ni171  1  0.30675100  0.08295100  0.18545622  1.0
  Ni  Ni172  1  0.30675100  0.41628433  0.18545622  1.0
  Ni  Ni173  1  0.30675100  0.74961767  0.18545622  1.0
  Ni  Ni174  1  0.64008433  0.08295100  0.18545622  1.0
  Ni  Ni175  1  0.64008433  0.41628433  0.18545622  1.0
  Ni  Ni176  1  0.64008433  0.74961767  0.18545622  1.0
  Ni  Ni177  1  0.97341767  0.08295100  0.18545622  1.0
  Ni  Ni178  1  0.97341767  0.41628433  0.18545622  1.0
  Ni  Ni179  1  0.97341767  0.74961767  0.18545622  1.0
  Ni  Ni180  1  0.02658233  0.24961767  0.20317778  1.0
  Ni  Ni181  1  0.02658233  0.58295100  0.20317778  1.0
  Ni  Ni182  1  0.02658233  0.91628433  0.20317778  1.0
  Ni  Ni183  1  0.35991567  0.24961767  0.20317778  1.0
  Ni  Ni184  1  0.35991567  0.58295100  0.20317778  1.0
  Ni  Ni185  1  0.35991567  0.91628433  0.20317778  1.0
  Ni  Ni186  1  0.69324900  0.24961767  0.20317778  1.0
  Ni  Ni187  1  0.69324900  0.58295100  0.20317778  1.0
  Ni  Ni188  1  0.69324900  0.91628433  0.20317778  1.0
  Ni  Ni189  1  0.19324900  0.24961767  0.14762222  1.0
  Ni  Ni190  1  0.19324900  0.58295100  0.14762222  1.0
  Ni  Ni191  1  0.19324900  0.91628433  0.14762222  1.0
  Ni  Ni192  1  0.52658233  0.24961767  0.14762222  1.0
  Ni  Ni193  1  0.52658233  0.58295100  0.14762222  1.0
  Ni  Ni194  1  0.52658233  0.91628433  0.14762222  1.0
  Ni  Ni195  1  0.85991567  0.24961767  0.14762222  1.0
  Ni  Ni196  1  0.85991567  0.58295100  0.14762222  1.0
  Ni  Ni197  1  0.85991567  0.91628433  0.14762222  1.0
  Ni  Ni198  1  0.02658233  0.08371567  0.14787711  1.0
  Ni  Ni199  1  0.02658233  0.41704900  0.14787711  1.0
  Ni  Ni200  1  0.02658233  0.75038233  0.14787711  1.0
  Ni  Ni201  1  0.35991567  0.08371567  0.14787711  1.0
  Ni  Ni202  1  0.35991567  0.41704900  0.14787711  1.0
  Ni  Ni203  1  0.35991567  0.75038233  0.14787711  1.0
  Ni  Ni204  1  0.69324900  0.08371567  0.14787711  1.0
  Ni  Ni205  1  0.69324900  0.41704900  0.14787711  1.0
  Ni  Ni206  1  0.69324900  0.75038233  0.14787711  1.0
  Ni  Ni207  1  0.19324900  0.08371567  0.20343267  1.0
  Ni  Ni208  1  0.19324900  0.41704900  0.20343267  1.0
  Ni  Ni209  1  0.19324900  0.75038233  0.20343267  1.0
  Ni  Ni210  1  0.52658233  0.08371567  0.20343267  1.0
  Ni  Ni211  1  0.52658233  0.41704900  0.20343267  1.0
  Ni  Ni212  1  0.52658233  0.75038233  0.20343267  1.0
  Ni  Ni213  1  0.85991567  0.08371567  0.20343267  1.0
  Ni  Ni214  1  0.85991567  0.41704900  0.20343267  1.0
  Ni  Ni215  1  0.85991567  0.75038233  0.20343267  1.0
  Ni  Ni216  1  0.11036750  0.16666667  0.20345583  1.0
  Ni  Ni217  1  0.11036750  0.50000000  0.20345583  1.0
  Ni  Ni218  1  0.11036750  0.83333333  0.20345583  1.0
  Ni  Ni219  1  0.44370083  0.16666667  0.20345583  1.0
  Ni  Ni220  1  0.44370083  0.50000000  0.20345583  1.0
  Ni  Ni221  1  0.44370083  0.83333333  0.20345583  1.0
  Ni  Ni222  1  0.77703417  0.16666667  0.20345583  1.0
  Ni  Ni223  1  0.77703417  0.50000000  0.20345583  1.0
  Ni  Ni224  1  0.77703417  0.83333333  0.20345583  1.0
  Ni  Ni225  1  0.27703417  0.16666667  0.14790028  1.0
  Ni  Ni226  1  0.27703417  0.50000000  0.14790028  1.0
  Ni  Ni227  1  0.27703417  0.83333333  0.14790028  1.0
  Ni  Ni228  1  0.61036750  0.16666667  0.14790028  1.0
  Ni  Ni229  1  0.61036750  0.50000000  0.14790028  1.0
  Ni  Ni230  1  0.61036750  0.83333333  0.14790028  1.0
  Ni  Ni231  1  0.94370083  0.16666667  0.14790028  1.0
  Ni  Ni232  1  0.94370083  0.50000000  0.14790028  1.0
  Ni  Ni233  1  0.94370083  0.83333333  0.14790028  1.0
  Ni  Ni234  1  0.05629917  0.00000000  0.18543306  1.0
  Ni  Ni235  1  0.05629917  0.33333333  0.18543306  1.0
  Ni  Ni236  1  0.05629917  0.66666667  0.18543306  1.0
  Ni  Ni237  1  0.38963250  0.00000000  0.18543306  1.0
  Ni  Ni238  1  0.38963250  0.33333333  0.18543306  1.0
  Ni  Ni239  1  0.38963250  0.66666667  0.18543306  1.0
  Ni  Ni240  1  0.72296583  0.00000000  0.18543306  1.0
  Ni  Ni241  1  0.72296583  0.33333333  0.18543306  1.0
  Ni  Ni242  1  0.72296583  0.66666667  0.18543306  1.0
  Ni  Ni243  1  0.22296583  0.00000000  0.12987750  1.0
  Ni  Ni244  1  0.22296583  0.33333333  0.12987750  1.0
  Ni  Ni245  1  0.22296583  0.66666667  0.12987750  1.0
  Ni  Ni246  1  0.55629917  0.00000000  0.12987750  1.0
  Ni  Ni247  1  0.55629917  0.33333333  0.12987750  1.0
  Ni  Ni248  1  0.55629917  0.66666667  0.12987750  1.0
  Ni  Ni249  1  0.88963250  0.00000000  0.12987750  1.0
  Ni  Ni250  1  0.88963250  0.33333333  0.12987750  1.0
  Ni  Ni251  1  0.88963250  0.66666667  0.12987750  1.0
  Mo  Mo252  1  0.05716533  0.16666667  0.13016622  1.0
  Mo  Mo253  1  0.05716533  0.50000000  0.13016622  1.0
  Mo  Mo254  1  0.05716533  0.83333333  0.13016622  1.0
  Mo  Mo255  1  0.39049867  0.16666667  0.13016622  1.0
  Mo  Mo256  1  0.39049867  0.50000000  0.13016622  1.0
  Mo  Mo257  1  0.39049867  0.83333333  0.13016622  1.0
  Mo  Mo258  1  0.72383200  0.16666667  0.13016622  1.0
  Mo  Mo259  1  0.72383200  0.50000000  0.13016622  1.0
  Mo  Mo260  1  0.72383200  0.83333333  0.13016622  1.0
  Mo  Mo261  1  0.22383200  0.16666667  0.18572178  1.0
  Mo  Mo262  1  0.22383200  0.50000000  0.18572178  1.0
  Mo  Mo263  1  0.22383200  0.83333333  0.18572178  1.0
  Mo  Mo264  1  0.55716533  0.16666667  0.18572178  1.0
  Mo  Mo265  1  0.55716533  0.50000000  0.18572178  1.0
  Mo  Mo266  1  0.55716533  0.83333333  0.18572178  1.0
  Mo  Mo267  1  0.89049867  0.16666667  0.18572178  1.0
  Mo  Mo268  1  0.89049867  0.50000000  0.18572178  1.0
  Mo  Mo269  1  0.89049867  0.83333333  0.18572178  1.0
  Mo  Mo270  1  0.10950133  0.00000000  0.14761156  1.0
  Mo  Mo271  1  0.10950133  0.33333333  0.14761156  1.0
  Mo  Mo272  1  0.10950133  0.66666667  0.14761156  1.0
  Mo  Mo273  1  0.44283467  0.00000000  0.14761156  1.0
  Mo  Mo274  1  0.44283467  0.33333333  0.14761156  1.0
  Mo  Mo275  1  0.44283467  0.66666667  0.14761156  1.0
  Mo  Mo276  1  0.77616800  0.00000000  0.14761156  1.0
  Mo  Mo277  1  0.77616800  0.33333333  0.14761156  1.0
  Mo  Mo278  1  0.77616800  0.66666667  0.14761156  1.0
  Mo  Mo279  1  0.27616800  0.00000000  0.20316711  1.0
  Mo  Mo280  1  0.27616800  0.33333333  0.20316711  1.0
  Mo  Mo281  1  0.27616800  0.66666667  0.20316711  1.0
  Mo  Mo282  1  0.60950133  0.00000000  0.20316711  1.0
  Mo  Mo283  1  0.60950133  0.33333333  0.20316711  1.0
  Mo  Mo284  1  0.60950133  0.66666667  0.20316711  1.0
  Mo  Mo285  1  0.94283467  0.00000000  0.20316711  1.0
  Mo  Mo286  1  0.94283467  0.33333333  0.20316711  1.0
  Mo  Mo287  1  0.94283467  0.66666667  0.20316711  1.0
  Ni  Ni288  1  0.14008433  0.25038233  0.29682222  1.0
  Ni  Ni289  1  0.14008433  0.58371567  0.29682222  1.0
  Ni  Ni290  1  0.14008433  0.91704900  0.29682222  1.0
  Ni  Ni291  1  0.47341767  0.25038233  0.29682222  1.0
  Ni  Ni292  1  0.47341767  0.58371567  0.29682222  1.0
  Ni  Ni293  1  0.47341767  0.91704900  0.29682222  1.0
  Ni  Ni294  1  0.80675100  0.25038233  0.29682222  1.0
  Ni  Ni295  1  0.80675100  0.58371567  0.29682222  1.0
  Ni  Ni296  1  0.80675100  0.91704900  0.29682222  1.0
  Ni  Ni297  1  0.30675100  0.25038233  0.24126667  1.0
  Ni  Ni298  1  0.30675100  0.58371567  0.24126667  1.0
  Ni  Ni299  1  0.30675100  0.91704900  0.24126667  1.0
  Ni  Ni300  1  0.64008433  0.25038233  0.24126667  1.0
  Ni  Ni301  1  0.64008433  0.58371567  0.24126667  1.0
  Ni  Ni302  1  0.64008433  0.91704900  0.24126667  1.0
  Ni  Ni303  1  0.97341767  0.25038233  0.24126667  1.0
  Ni  Ni304  1  0.97341767  0.58371567  0.24126667  1.0
  Ni  Ni305  1  0.97341767  0.91704900  0.24126667  1.0
  Ni  Ni306  1  0.14008433  0.08295100  0.24101178  1.0
  Ni  Ni307  1  0.14008433  0.41628433  0.24101178  1.0
  Ni  Ni308  1  0.14008433  0.74961767  0.24101178  1.0
  Ni  Ni309  1  0.47341767  0.08295100  0.24101178  1.0
  Ni  Ni310  1  0.47341767  0.41628433  0.24101178  1.0
  Ni  Ni311  1  0.47341767  0.74961767  0.24101178  1.0
  Ni  Ni312  1  0.80675100  0.08295100  0.24101178  1.0
  Ni  Ni313  1  0.80675100  0.41628433  0.24101178  1.0
  Ni  Ni314  1  0.80675100  0.74961767  0.24101178  1.0
  Ni  Ni315  1  0.30675100  0.08295100  0.29656733  1.0
  Ni  Ni316  1  0.30675100  0.41628433  0.29656733  1.0
  Ni  Ni317  1  0.30675100  0.74961767  0.29656733  1.0
  Ni  Ni318  1  0.64008433  0.08295100  0.29656733  1.0
  Ni  Ni319  1  0.64008433  0.41628433  0.29656733  1.0
  Ni  Ni320  1  0.64008433  0.74961767  0.29656733  1.0
  Ni  Ni321  1  0.97341767  0.08295100  0.29656733  1.0
  Ni  Ni322  1  0.97341767  0.41628433  0.29656733  1.0
  Ni  Ni323  1  0.97341767  0.74961767  0.29656733  1.0
  Ni  Ni324  1  0.02658233  0.24961767  0.31428889  1.0
  Ni  Ni325  1  0.02658233  0.58295100  0.31428889  1.0
  Ni  Ni326  1  0.02658233  0.91628433  0.31428889  1.0
  Ni  Ni327  1  0.35991567  0.24961767  0.31428889  1.0
  Ni  Ni328  1  0.35991567  0.58295100  0.31428889  1.0
  Ni  Ni329  1  0.35991567  0.91628433  0.31428889  1.0
  Ni  Ni330  1  0.69324900  0.24961767  0.31428889  1.0
  Ni  Ni331  1  0.69324900  0.58295100  0.31428889  1.0
  Ni  Ni332  1  0.69324900  0.91628433  0.31428889  1.0
  Ni  Ni333  1  0.19324900  0.24961767  0.25873333  1.0
  Ni  Ni334  1  0.19324900  0.58295100  0.25873333  1.0
  Ni  Ni335  1  0.19324900  0.91628433  0.25873333  1.0
  Ni  Ni336  1  0.52658233  0.24961767  0.25873333  1.0
  Ni  Ni337  1  0.52658233  0.58295100  0.25873333  1.0
  Ni  Ni338  1  0.52658233  0.91628433  0.25873333  1.0
  Ni  Ni339  1  0.85991567  0.24961767  0.25873333  1.0
  Ni  Ni340  1  0.85991567  0.58295100  0.25873333  1.0
  Ni  Ni341  1  0.85991567  0.91628433  0.25873333  1.0
  Ni  Ni342  1  0.02658233  0.08371567  0.25898822  1.0
  Ni  Ni343  1  0.02658233  0.41704900  0.25898822  1.0
  Ni  Ni344  1  0.02658233  0.75038233  0.25898822  1.0
  Ni  Ni345  1  0.35991567  0.08371567  0.25898822  1.0
  Ni  Ni346  1  0.35991567  0.41704900  0.25898822  1.0
  Ni  Ni347  1  0.35991567  0.75038233  0.25898822  1.0
  Ni  Ni348  1  0.69324900  0.08371567  0.25898822  1.0
  Ni  Ni349  1  0.69324900  0.41704900  0.25898822  1.0
  Ni  Ni350  1  0.69324900  0.75038233  0.25898822  1.0
  Ni  Ni351  1  0.19324900  0.08371567  0.31454378  1.0
  Ni  Ni352  1  0.19324900  0.41704900  0.31454378  1.0
  Ni  Ni353  1  0.19324900  0.75038233  0.31454378  1.0
  Ni  Ni354  1  0.52658233  0.08371567  0.31454378  1.0
  Ni  Ni355  1  0.52658233  0.41704900  0.31454378  1.0
  Ni  Ni356  1  0.52658233  0.75038233  0.31454378  1.0
  Ni  Ni357  1  0.85991567  0.08371567  0.31454378  1.0
  Ni  Ni358  1  0.85991567  0.41704900  0.31454378  1.0
  Ni  Ni359  1  0.85991567  0.75038233  0.31454378  1.0
  Ni  Ni360  1  0.11036750  0.16666667  0.31456694  1.0
  Ni  Ni361  1  0.11036750  0.50000000  0.31456694  1.0
  Ni  Ni362  1  0.11036750  0.83333333  0.31456694  1.0
  Ni  Ni363  1  0.44370083  0.16666667  0.31456694  1.0
  Ni  Ni364  1  0.44370083  0.50000000  0.31456694  1.0
  Ni  Ni365  1  0.44370083  0.83333333  0.31456694  1.0
  Ni  Ni366  1  0.77703417  0.16666667  0.31456694  1.0
  Ni  Ni367  1  0.77703417  0.50000000  0.31456694  1.0
  Ni  Ni368  1  0.77703417  0.83333333  0.31456694  1.0
  Ni  Ni369  1  0.27703417  0.16666667  0.25901139  1.0
  Ni  Ni370  1  0.27703417  0.50000000  0.25901139  1.0
  Ni  Ni371  1  0.27703417  0.83333333  0.25901139  1.0
  Ni  Ni372  1  0.61036750  0.16666667  0.25901139  1.0
  Ni  Ni373  1  0.61036750  0.50000000  0.25901139  1.0
  Ni  Ni374  1  0.61036750  0.83333333  0.25901139  1.0
  Ni  Ni375  1  0.94370083  0.16666667  0.25901139  1.0
  Ni  Ni376  1  0.94370083  0.50000000  0.25901139  1.0
  Ni  Ni377  1  0.94370083  0.83333333  0.25901139  1.0
  Ni  Ni378  1  0.05629917  0.00000000  0.29654417  1.0
  Ni  Ni379  1  0.05629917  0.33333333  0.29654417  1.0
  Ni  Ni380  1  0.05629917  0.66666667  0.29654417  1.0
  Ni  Ni381  1  0.38963250  0.00000000  0.29654417  1.0
  Ni  Ni382  1  0.38963250  0.33333333  0.29654417  1.0
  Ni  Ni383  1  0.38963250  0.66666667  0.29654417  1.0
  Ni  Ni384  1  0.72296583  0.00000000  0.29654417  1.0
  Ni  Ni385  1  0.72296583  0.33333333  0.29654417  1.0
  Ni  Ni386  1  0.72296583  0.66666667  0.29654417  1.0
  Ni  Ni387  1  0.22296583  0.00000000  0.24098861  1.0
  Ni  Ni388  1  0.22296583  0.33333333  0.24098861  1.0
  Ni  Ni389  1  0.22296583  0.66666667  0.24098861  1.0
  Ni  Ni390  1  0.55629917  0.00000000  0.24098861  1.0
  Ni  Ni391  1  0.55629917  0.33333333  0.24098861  1.0
  Ni  Ni392  1  0.55629917  0.66666667  0.24098861  1.0
  Ni  Ni393  1  0.88963250  0.00000000  0.24098861  1.0
  Ni  Ni394  1  0.88963250  0.33333333  0.24098861  1.0
  Ni  Ni395  1  0.88963250  0.66666667  0.24098861  1.0
  Mo  Mo396  1  0.05716533  0.16666667  0.24127733  1.0
  Mo  Mo397  1  0.05716533  0.50000000  0.24127733  1.0
  Mo  Mo398  1  0.05716533  0.83333333  0.24127733  1.0
  Mo  Mo399  1  0.39049867  0.16666667  0.24127733  1.0
  Mo  Mo400  1  0.39049867  0.50000000  0.24127733  1.0
  Mo  Mo401  1  0.39049867  0.83333333  0.24127733  1.0
  Mo  Mo402  1  0.72383200  0.16666667  0.24127733  1.0
  Mo  Mo403  1  0.72383200  0.50000000  0.24127733  1.0
  Mo  Mo404  1  0.72383200  0.83333333  0.24127733  1.0
  Mo  Mo405  1  0.22383200  0.16666667  0.29683289  1.0
  Mo  Mo406  1  0.22383200  0.50000000  0.29683289  1.0
  Mo  Mo407  1  0.22383200  0.83333333  0.29683289  1.0
  Mo  Mo408  1  0.55716533  0.16666667  0.29683289  1.0
  Mo  Mo409  1  0.55716533  0.50000000  0.29683289  1.0
  Mo  Mo410  1  0.55716533  0.83333333  0.29683289  1.0
  Mo  Mo411  1  0.89049867  0.16666667  0.29683289  1.0
  Mo  Mo412  1  0.89049867  0.50000000  0.29683289  1.0
  Mo  Mo413  1  0.89049867  0.83333333  0.29683289  1.0
  Mo  Mo414  1  0.10950133  0.00000000  0.25872267  1.0
  Mo  Mo415  1  0.10950133  0.33333333  0.25872267  1.0
  Mo  Mo416  1  0.10950133  0.66666667  0.25872267  1.0
  Mo  Mo417  1  0.44283467  0.00000000  0.25872267  1.0
  Mo  Mo418  1  0.44283467  0.33333333  0.25872267  1.0
  Mo  Mo419  1  0.44283467  0.66666667  0.25872267  1.0
  Mo  Mo420  1  0.77616800  0.00000000  0.25872267  1.0
  Mo  Mo421  1  0.77616800  0.33333333  0.25872267  1.0
  Mo  Mo422  1  0.77616800  0.66666667  0.25872267  1.0
  Mo  Mo423  1  0.27616800  0.00000000  0.31427822  1.0
  Mo  Mo424  1  0.27616800  0.33333333  0.31427822  1.0
  Mo  Mo425  1  0.27616800  0.66666667  0.31427822  1.0
  Mo  Mo426  1  0.60950133  0.00000000  0.31427822  1.0
  Mo  Mo427  1  0.60950133  0.33333333  0.31427822  1.0
  Mo  Mo428  1  0.60950133  0.66666667  0.31427822  1.0
  Mo  Mo429  1  0.94283467  0.00000000  0.31427822  1.0
  Mo  Mo430  1  0.94283467  0.33333333  0.31427822  1.0
  Mo  Mo431  1  0.94283467  0.66666667  0.31427822  1.0
  Ni  Ni432  1  0.14008433  0.25038233  0.40793333  1.0
  Ni  Ni433  1  0.14008433  0.58371567  0.40793333  1.0
  Ni  Ni434  1  0.14008433  0.91704900  0.40793333  1.0
  Ni  Ni435  1  0.47341767  0.25038233  0.40793333  1.0
  Ni  Ni436  1  0.47341767  0.58371567  0.40793333  1.0
  Ni  Ni437  1  0.47341767  0.91704900  0.40793333  1.0
  Ni  Ni438  1  0.80675100  0.25038233  0.40793333  1.0
  Ni  Ni439  1  0.80675100  0.58371567  0.40793333  1.0
  Ni  Ni440  1  0.80675100  0.91704900  0.40793333  1.0
  Ni  Ni441  1  0.30675100  0.25038233  0.35237778  1.0
  Ni  Ni442  1  0.30675100  0.58371567  0.35237778  1.0
  Ni  Ni443  1  0.30675100  0.91704900  0.35237778  1.0
  Ni  Ni444  1  0.64008433  0.25038233  0.35237778  1.0
  Ni  Ni445  1  0.64008433  0.58371567  0.35237778  1.0
  Ni  Ni446  1  0.64008433  0.91704900  0.35237778  1.0
  Ni  Ni447  1  0.97341767  0.25038233  0.35237778  1.0
  Ni  Ni448  1  0.97341767  0.58371567  0.35237778  1.0
  Ni  Ni449  1  0.97341767  0.91704900  0.35237778  1.0
  Ni  Ni450  1  0.14008433  0.08295100  0.35212289  1.0
  Ni  Ni451  1  0.14008433  0.41628433  0.35212289  1.0
  Ni  Ni452  1  0.14008433  0.74961767  0.35212289  1.0
  Ni  Ni453  1  0.47341767  0.08295100  0.35212289  1.0
  Ni  Ni454  1  0.47341767  0.41628433  0.35212289  1.0
  Ni  Ni455  1  0.47341767  0.74961767  0.35212289  1.0
  Ni  Ni456  1  0.80675100  0.08295100  0.35212289  1.0
  Ni  Ni457  1  0.80675100  0.41628433  0.35212289  1.0
  Ni  Ni458  1  0.80675100  0.74961767  0.35212289  1.0
  Ni  Ni459  1  0.30675100  0.08295100  0.40767844  1.0
  Ni  Ni460  1  0.30675100  0.41628433  0.40767844  1.0
  Ni  Ni461  1  0.30675100  0.74961767  0.40767844  1.0
  Ni  Ni462  1  0.64008433  0.08295100  0.40767844  1.0
  Ni  Ni463  1  0.64008433  0.41628433  0.40767844  1.0
  Ni  Ni464  1  0.64008433  0.74961767  0.40767844  1.0
  Ni  Ni465  1  0.97341767  0.08295100  0.40767844  1.0
  Ni  Ni466  1  0.97341767  0.41628433  0.40767844  1.0
  Ni  Ni467  1  0.97341767  0.74961767  0.40767844  1.0
  Ni  Ni468  1  0.02658233  0.24961767  0.42540000  1.0
  Ni  Ni469  1  0.02658233  0.58295100  0.42540000  1.0
  Ni  Ni470  1  0.02658233  0.91628433  0.42540000  1.0
  Ni  Ni471  1  0.35991567  0.24961767  0.42540000  1.0
  Ni  Ni472  1  0.35991567  0.58295100  0.42540000  1.0
  Ni  Ni473  1  0.35991567  0.91628433  0.42540000  1.0
  Ni  Ni474  1  0.69324900  0.24961767  0.42540000  1.0
  Ni  Ni475  1  0.69324900  0.58295100  0.42540000  1.0
  Ni  Ni476  1  0.69324900  0.91628433  0.42540000  1.0
  Ni  Ni477  1  0.19324900  0.24961767  0.36984444  1.0
  Ni  Ni478  1  0.19324900  0.58295100  0.36984444  1.0
  Ni  Ni479  1  0.19324900  0.91628433  0.36984444  1.0
  Ni  Ni480  1  0.52658233  0.24961767  0.36984444  1.0
  Ni  Ni481  1  0.52658233  0.58295100  0.36984444  1.0
  Ni  Ni482  1  0.52658233  0.91628433  0.36984444  1.0
  Ni  Ni483  1  0.85991567  0.24961767  0.36984444  1.0
  Ni  Ni484  1  0.85991567  0.58295100  0.36984444  1.0
  Ni  Ni485  1  0.85991567  0.91628433  0.36984444  1.0
  Ni  Ni486  1  0.02658233  0.08371567  0.37009933  1.0
  Ni  Ni487  1  0.02658233  0.41704900  0.37009933  1.0
  Ni  Ni488  1  0.02658233  0.75038233  0.37009933  1.0
  Ni  Ni489  1  0.35991567  0.08371567  0.37009933  1.0
  Ni  Ni490  1  0.35991567  0.41704900  0.37009933  1.0
  Ni  Ni491  1  0.35991567  0.75038233  0.37009933  1.0
  Ni  Ni492  1  0.69324900  0.08371567  0.37009933  1.0
  Ni  Ni493  1  0.69324900  0.41704900  0.37009933  1.0
  Ni  Ni494  1  0.69324900  0.75038233  0.37009933  1.0
  Ni  Ni495  1  0.19324900  0.08371567  0.42565489  1.0
  Ni  Ni496  1  0.19324900  0.41704900  0.42565489  1.0
  Ni  Ni497  1  0.19324900  0.75038233  0.42565489  1.0
  Ni  Ni498  1  0.52658233  0.08371567  0.42565489  1.0
  Ni  Ni499  1  0.52658233  0.41704900  0.42565489  1.0
  Ni  Ni500  1  0.52658233  0.75038233  0.42565489  1.0
  Ni  Ni501  1  0.85991567  0.08371567  0.42565489  1.0
  Ni  Ni502  1  0.85991567  0.41704900  0.42565489  1.0
  Ni  Ni503  1  0.85991567  0.75038233  0.42565489  1.0
  Ni  Ni504  1  0.11036750  0.16666667  0.42567806  1.0
  Ni  Ni505  1  0.11036750  0.50000000  0.42567806  1.0
  Ni  Ni506  1  0.11036750  0.83333333  0.42567806  1.0
  Ni  Ni507  1  0.44370083  0.16666667  0.42567806  1.0
  Ni  Ni508  1  0.44370083  0.50000000  0.42567806  1.0
  Ni  Ni509  1  0.44370083  0.83333333  0.42567806  1.0
  Ni  Ni510  1  0.77703417  0.16666667  0.42567806  1.0
  Ni  Ni511  1  0.77703417  0.50000000  0.42567806  1.0
  Ni  Ni512  1  0.77703417  0.83333333  0.42567806  1.0
  Ni  Ni513  1  0.27703417  0.16666667  0.37012250  1.0
  Ni  Ni514  1  0.27703417  0.50000000  0.37012250  1.0
  Ni  Ni515  1  0.27703417  0.83333333  0.37012250  1.0
  Ni  Ni516  1  0.61036750  0.16666667  0.37012250  1.0
  Ni  Ni517  1  0.61036750  0.50000000  0.37012250  1.0
  Ni  Ni518  1  0.61036750  0.83333333  0.37012250  1.0
  Ni  Ni519  1  0.94370083  0.16666667  0.37012250  1.0
  Ni  Ni520  1  0.94370083  0.50000000  0.37012250  1.0
  Ni  Ni521  1  0.94370083  0.83333333  0.37012250  1.0
  Ni  Ni522  1  0.05629917  0.00000000  0.40765528  1.0
  Ni  Ni523  1  0.05629917  0.33333333  0.40765528  1.0
  Ni  Ni524  1  0.05629917  0.66666667  0.40765528  1.0
  Ni  Ni525  1  0.38963250  0.00000000  0.40765528  1.0
  Ni  Ni526  1  0.38963250  0.33333333  0.40765528  1.0
  Ni  Ni527  1  0.38963250  0.66666667  0.40765528  1.0
  Ni  Ni528  1  0.72296583  0.00000000  0.40765528  1.0
  Ni  Ni529  1  0.72296583  0.33333333  0.40765528  1.0
  Ni  Ni530  1  0.72296583  0.66666667  0.40765528  1.0
  Ni  Ni531  1  0.22296583  0.00000000  0.35209972  1.0
  Ni  Ni532  1  0.22296583  0.33333333  0.35209972  1.0
  Ni  Ni533  1  0.22296583  0.66666667  0.35209972  1.0
  Ni  Ni534  1  0.55629917  0.00000000  0.35209972  1.0
  Ni  Ni535  1  0.55629917  0.33333333  0.35209972  1.0
  Ni  Ni536  1  0.55629917  0.66666667  0.35209972  1.0
  Ni  Ni537  1  0.88963250  0.00000000  0.35209972  1.0
  Ni  Ni538  1  0.88963250  0.33333333  0.35209972  1.0
  Ni  Ni539  1  0.88963250  0.66666667  0.35209972  1.0
  Mo  Mo540  1  0.05716533  0.16666667  0.35238844  1.0
  Mo  Mo541  1  0.05716533  0.50000000  0.35238844  1.0
  Mo  Mo542  1  0.05716533  0.83333333  0.35238844  1.0
  Mo  Mo543  1  0.39049867  0.16666667  0.35238844  1.0
  Mo  Mo544  1  0.39049867  0.50000000  0.35238844  1.0
  Mo  Mo545  1  0.39049867  0.83333333  0.35238844  1.0
  Mo  Mo546  1  0.72383200  0.16666667  0.35238844  1.0
  Mo  Mo547  1  0.72383200  0.50000000  0.35238844  1.0
  Mo  Mo548  1  0.72383200  0.83333333  0.35238844  1.0
  Mo  Mo549  1  0.22383200  0.16666667  0.40794400  1.0
  Mo  Mo550  1  0.22383200  0.50000000  0.40794400  1.0
  Mo  Mo551  1  0.22383200  0.83333333  0.40794400  1.0
  Mo  Mo552  1  0.55716533  0.16666667  0.40794400  1.0
  Mo  Mo553  1  0.55716533  0.50000000  0.40794400  1.0
  Mo  Mo554  1  0.55716533  0.83333333  0.40794400  1.0
  Mo  Mo555  1  0.89049867  0.16666667  0.40794400  1.0
  Mo  Mo556  1  0.89049867  0.50000000  0.40794400  1.0
  Mo  Mo557  1  0.89049867  0.83333333  0.40794400  1.0
  Mo  Mo558  1  0.10950133  0.00000000  0.36983378  1.0
  Mo  Mo559  1  0.10950133  0.33333333  0.36983378  1.0
  Mo  Mo560  1  0.10950133  0.66666667  0.36983378  1.0
  Mo  Mo561  1  0.44283467  0.00000000  0.36983378  1.0
  Mo  Mo562  1  0.44283467  0.33333333  0.36983378  1.0
  Mo  Mo563  1  0.44283467  0.66666667  0.36983378  1.0
  Mo  Mo564  1  0.77616800  0.00000000  0.36983378  1.0
  Mo  Mo565  1  0.77616800  0.33333333  0.36983378  1.0
  Mo  Mo566  1  0.77616800  0.66666667  0.36983378  1.0
  Mo  Mo567  1  0.27616800  0.00000000  0.42538933  1.0
  Mo  Mo568  1  0.27616800  0.33333333  0.42538933  1.0
  Mo  Mo569  1  0.27616800  0.66666667  0.42538933  1.0
  Mo  Mo570  1  0.60950133  0.00000000  0.42538933  1.0
  Mo  Mo571  1  0.60950133  0.33333333  0.42538933  1.0
  Mo  Mo572  1  0.60950133  0.66666667  0.42538933  1.0
  Mo  Mo573  1  0.94283467  0.00000000  0.42538933  1.0
  Mo  Mo574  1  0.94283467  0.33333333  0.42538933  1.0
  Mo  Mo575  1  0.94283467  0.66666667  0.42538933  1.0
