# generated using pymatgen
data_Ni3Mo
_symmetry_space_group_name_H-M   'P 1'
_cell_length_a   12.70740900
_cell_length_b   15.07352100
_cell_length_c   31.23495200
_cell_angle_alpha   90.00000000
_cell_angle_beta   90.00000000
_cell_angle_gamma   90.00000000
_symmetry_Int_Tables_number   1
_chemical_formula_structural   Ni3Mo
_chemical_formula_sum   'Ni162 Mo54'
_cell_volume   5982.91126291
_cell_formula_units_Z   54
loop_
 _symmetry_equiv_pos_site_id
 _symmetry_equiv_pos_as_xyz
  1  'x, y, z'
loop_
 _atom_site_type_symbol
 _atom_site_label
 _atom_site_symmetry_multiplicity
 _atom_site_fract_x
 _atom_site_fract_y
 _atom_site_fract_z
 _atom_site_occupancy
  Ni  Ni0  1  0.16666667  0.08295100  0.02278486  1.0
  Ni  Ni1  1  0.16666667  0.41628433  0.02278486  1.0
  Ni  Ni2  1  0.16666667  0.74961767  0.02278486  1.0
  Ni  Ni3  1  0.50000000  0.08295100  0.02278486  1.0
  Ni  Ni4  1  0.50000000  0.41628433  0.02278486  1.0
  Ni  Ni5  1  0.50000000  0.74961767  0.02278486  1.0
  Ni  Ni6  1  0.83333333  0.08295100  0.02278486  1.0
  Ni  Ni7  1  0.83333333  0.41628433  0.02278486  1.0
  Ni  Ni8  1  0.83333333  0.74961767  0.02278486  1.0
  Ni  Ni9  1  0.16666667  0.25038233  0.02278486  1.0
  Ni  Ni10  1  0.16666667  0.58371567  0.02278486  1.0
  Ni  Ni11  1  0.16666667  0.91704900  0.02278486  1.0
  Ni  Ni12  1  0.50000000  0.25038233  0.02278486  1.0
  Ni  Ni13  1  0.50000000  0.58371567  0.02278486  1.0
  Ni  Ni14  1  0.50000000  0.91704900  0.02278486  1.0
  Ni  Ni15  1  0.83333333  0.25038233  0.02278486  1.0
  Ni  Ni16  1  0.83333333  0.58371567  0.02278486  1.0
  Ni  Ni17  1  0.83333333  0.91704900  0.02278486  1.0
  Ni  Ni18  1  0.00000000  0.08371567  0.12007229  1.0
  Ni  Ni19  1  0.00000000  0.41704900  0.12007229  1.0
  Ni  Ni20  1  0.00000000  0.75038233  0.12007229  1.0
  Ni  Ni21  1  0.33333333  0.08371567  0.12007229  1.0
  Ni  Ni22  1  0.33333333  0.41704900  0.12007229  1.0
  Ni  Ni23  1  0.33333333  0.75038233  0.12007229  1.0
  Ni  Ni24  1  0.66666667  0.08371567  0.12007229  1.0
  Ni  Ni25  1  0.66666667  0.41704900  0.12007229  1.0
  Ni  Ni26  1  0.66666667  0.75038233  0.12007229  1.0
  Ni  Ni27  1  0.00000000  0.24961767  0.12007229  1.0
  Ni  Ni28  1  0.00000000  0.58295100  0.12007229  1.0
  Ni  Ni29  1  0.00000000  0.91628433  0.12007229  1.0
  Ni  Ni30  1  0.33333333  0.24961767  0.12007229  1.0
  Ni  Ni31  1  0.33333333  0.58295100  0.12007229  1.0
  Ni  Ni32  1  0.33333333  0.91628433  0.12007229  1.0
  Ni  Ni33  1  0.66666667  0.24961767  0.12007229  1.0
  Ni  Ni34  1  0.66666667  0.58295100  0.12007229  1.0
  Ni  Ni35  1  0.66666667  0.91628433  0.12007229  1.0
  Ni  Ni36  1  0.00000000  0.16666667  0.04825643  1.0
  Ni  Ni37  1  0.00000000  0.50000000  0.04825643  1.0
  Ni  Ni38  1  0.00000000  0.83333333  0.04825643  1.0
  Ni  Ni39  1  0.33333333  0.16666667  0.04825643  1.0
  Ni  Ni40  1  0.33333333  0.50000000  0.04825643  1.0
  Ni  Ni41  1  0.33333333  0.83333333  0.04825643  1.0
  Ni  Ni42  1  0.66666667  0.16666667  0.04825643  1.0
  Ni  Ni43  1  0.66666667  0.50000000  0.04825643  1.0
  Ni  Ni44  1  0.66666667  0.83333333  0.04825643  1.0
  Ni  Ni45  1  0.16666667  0.00000000  0.09460071  1.0
  Ni  Ni46  1  0.16666667  0.33333333  0.09460071  1.0
  Ni  Ni47  1  0.16666667  0.66666667  0.09460071  1.0
  Ni  Ni48  1  0.50000000  0.00000000  0.09460071  1.0
  Ni  Ni49  1  0.50000000  0.33333333  0.09460071  1.0
  Ni  Ni50  1  0.50000000  0.66666667  0.09460071  1.0
  Ni  Ni51  1  0.83333333  0.00000000  0.09460071  1.0
  Ni  Ni52  1  0.83333333  0.33333333  0.09460071  1.0
  Ni  Ni53  1  0.83333333  0.66666667  0.09460071  1.0
  Mo  Mo54  1  0.16666667  0.16666667  0.09385829  1.0
  Mo  Mo55  1  0.16666667  0.50000000  0.09385829  1.0
  Mo  Mo56  1  0.16666667  0.83333333  0.09385829  1.0
  Mo  Mo57  1  0.50000000  0.16666667  0.09385829  1.0
  Mo  Mo58  1  0.50000000  0.50000000  0.09385829  1.0
  Mo  Mo59  1  0.50000000  0.83333333  0.09385829  1.0
  Mo  Mo60  1  0.83333333  0.16666667  0.09385829  1.0
  Mo  Mo61  1  0.83333333  0.50000000  0.09385829  1.0
  Mo  Mo62  1  0.83333333  0.83333333  0.09385829  1.0
  Mo  Mo63  1  0.00000000  0.00000000  0.04899886  1.0
  Mo  Mo64  1  0.00000000  0.33333333  0.04899886  1.0
  Mo  Mo65  1  0.00000000  0.66666667  0.04899886  1.0
  Mo  Mo66  1  0.33333333  0.00000000  0.04899886  1.0
  Mo  Mo67  1  0.33333333  0.33333333  0.04899886  1.0
  Mo  Mo68  1  0.33333333  0.66666667  0.04899886  1.0
  Mo  Mo69  1  0.66666667  0.00000000  0.04899886  1.0
  Mo  Mo70  1  0.66666667  0.33333333  0.04899886  1.0
  Mo  Mo71  1  0.66666667  0.66666667  0.04899886  1.0
  Ni  Ni72  1  0.16666667  0.08295100  0.16564200  1.0
  Ni  Ni73  1  0.16666667  0.41628433  0.16564200  1.0
  Ni  Ni74  1  0.16666667  0.74961767  0.16564200  1.0
  Ni  Ni75  1  0.50000000  0.08295100  0.16564200  1.0
  Ni  Ni76  1  0.50000000  0.41628433  0.16564200  1.0
  Ni  Ni77  1  0.50000000  0.74961767  0.16564200  1.0
  Ni  Ni78  1  0.83333333  0.08295100  0.16564200  1.0
  Ni  Ni79  1  0.83333333  0.41628433  0.16564200  1.0
  Ni  Ni80  1  0.83333333  0.74961767  0.16564200  1.0
  Ni  Ni81  1  0.16666667  0.25038233  0.16564200  1.0
  Ni  Ni82  1  0.16666667  0.58371567  0.16564200  1.0
  Ni  Ni83  1  0.16666667  0.91704900  0.16564200  1.0
  Ni  Ni84  1  0.50000000  0.25038233  0.16564200  1.0
  Ni  Ni85  1  0.50000000  0.58371567  0.16564200  1.0
  Ni  Ni86  1  0.50000000  0.91704900  0.16564200  1.0
  Ni  Ni87  1  0.83333333  0.25038233  0.16564200  1.0
  Ni  Ni88  1  0.83333333  0.58371567  0.16564200  1.0
  Ni  Ni89  1  0.83333333  0.91704900  0.16564200  1.0
  Ni  Ni90  1  0.00000000  0.08371567  0.26292943  1.0
  Ni  Ni91  1  0.00000000  0.41704900  0.26292943  1.0
  Ni  Ni92  1  0.00000000  0.75038233  0.26292943  1.0
  Ni  Ni93  1  0.33333333  0.08371567  0.26292943  1.0
  Ni  Ni94  1  0.33333333  0.41704900  0.26292943  1.0
  Ni  Ni95  1  0.33333333  0.75038233  0.26292943  1.0
  Ni  Ni96  1  0.66666667  0.08371567  0.26292943  1.0
  Ni  Ni97  1  0.66666667  0.41704900  0.26292943  1.0
  Ni  Ni98  1  0.66666667  0.75038233  0.26292943  1.0
  Ni  Ni99  1  0.00000000  0.24961767  0.26292943  1.0
  Ni  Ni100  1  0.00000000  0.58295100  0.26292943  1.0
  Ni  Ni101  1  0.00000000  0.91628433  0.26292943  1.0
  Ni  Ni102  1  0.33333333  0.24961767  0.26292943  1.0
  Ni  Ni103  1  0.33333333  0.58295100  0.26292943  1.0
  Ni  Ni104  1  0.33333333  0.91628433  0.26292943  1.0
  Ni  Ni105  1  0.66666667  0.24961767  0.26292943  1.0
  Ni  Ni106  1  0.66666667  0.58295100  0.26292943  1.0
  Ni  Ni107  1  0.66666667  0.91628433  0.26292943  1.0
  Ni  Ni108  1  0.00000000  0.16666667  0.19111357  1.0
  Ni  Ni109  1  0.00000000  0.50000000  0.19111357  1.0
  Ni  Ni110  1  0.00000000  0.83333333  0.19111357  1.0
  Ni  Ni111  1  0.33333333  0.16666667  0.19111357  1.0
  Ni  Ni112  1  0.33333333  0.50000000  0.19111357  1.0
  Ni  Ni113  1  0.33333333  0.83333333  0.19111357  1.0
  Ni  Ni114  1  0.66666667  0.16666667  0.19111357  1.0
  Ni  Ni115  1  0.66666667  0.50000000  0.19111357  1.0
  Ni  Ni116  1  0.66666667  0.83333333  0.19111357  1.0
  Ni  Ni117  1  0.16666667  0.00000000  0.23745786  1.0
  Ni  Ni118  1  0.16666667  0.33333333  0.23745786  1.0
  Ni  Ni119  1  0.16666667  0.66666667  0.23745786  1.0
  Ni  Ni120  1  0.50000000  0.00000000  0.23745786  1.0
  Ni  Ni121  1  0.50000000  0.33333333  0.23745786  1.0
  Ni  Ni122  1  0.50000000  0.66666667  0.23745786  1.0
  Ni  Ni123  1  0.83333333  0.00000000  0.23745786  1.0
  Ni  Ni124  1  0.83333333  0.33333333  0.23745786  1.0
  Ni  Ni125  1  0.83333333  0.66666667  0.23745786  1.0
  Mo  Mo126  1  0.16666667  0.16666667  0.23671543  1.0
  Mo  Mo127  1  0.16666667  0.50000000  0.23671543  1.0
  Mo  Mo128  1  0.16666667  0.83333333  0.23671543  1.0
  Mo  Mo129  1  0.50000000  0.16666667  0.23671543  1.0
  Mo  Mo130  1  0.50000000  0.50000000  0.23671543  1.0
  Mo  Mo131  1  0.50000000  0.83333333  0.23671543  1.0
  Mo  Mo132  1  0.83333333  0.16666667  0.23671543  1.0
  Mo  Mo133  1  0.83333333  0.50000000  0.23671543  1.0
  Mo  Mo134  1  0.83333333  0.83333333  0.23671543  1.0
  Mo  Mo135  1  0.00000000  0.00000000  0.19185600  1.0
  Mo  Mo136  1  0.00000000  0.33333333  0.19185600  1.0
  Mo  Mo137  1  0.00000000  0.66666667  0.19185600  1.0
  Mo  Mo138  1  0.33333333  0.00000000  0.19185600  1.0
  Mo  Mo139  1  0.33333333  0.33333333  0.19185600  1.0
  Mo  Mo140  1  0.33333333  0.66666667  0.19185600  1.0
  Mo  Mo141  1  0.66666667  0.00000000  0.19185600  1.0
  Mo  Mo142  1  0.66666667  0.33333333  0.19185600  1.0
  Mo  Mo143  1  0.66666667  0.66666667  0.19185600  1.0
  Ni  Ni144  1  0.16666667  0.08295100  0.30849914  1.0
  Ni  Ni145  1  0.16666667  0.41628433  0.30849914  1.0
  Ni  Ni146  1  0.16666667  0.74961767  0.30849914  1.0
  Ni  Ni147  1  0.50000000  0.08295100  0.30849914  1.0
  Ni  Ni148  1  0.50000000  0.41628433  0.30849914  1.0
  Ni  Ni149  1  0.50000000  0.74961767  0.30849914  1.0
  Ni  Ni150  1  0.83333333  0.08295100  0.30849914  1.0
  Ni  Ni151  1  0.83333333  0.41628433  0.30849914  1.0
  Ni  Ni152  1  0.83333333  0.74961767  0.30849914  1.0
  Ni  Ni153  1  0.16666667  0.25038233  0.30849914  1.0
  Ni  Ni154  1  0.16666667  0.58371567  0.30849914  1.0
  Ni  Ni155  1  0.16666667  0.91704900  0.30849914  1.0
  Ni  Ni156  1  0.50000000  0.25038233  0.30849914  1.0
  Ni  Ni157  1  0.50000000  0.58371567  0.30849914  1.0
  Ni  Ni158  1  0.50000000  0.91704900  0.30849914  1.0
  Ni  Ni159  1  0.83333333  0.25038233  0.30849914  1.0
  Ni  Ni160  1  0.83333333  0.58371567  0.30849914  1.0
  Ni  Ni161  1  0.83333333  0.91704900  0.30849914  1.0
  Ni  Ni162  1  0.00000000  0.08371567  0.40578657  1.0
  Ni  Ni163  1  0.00000000  0.41704900  0.40578657  1.0
  Ni  Ni164  1  0.00000000  0.75038233  0.40578657  1.0
  Ni  Ni165  1  0.33333333  0.08371567  0.40578657  1.0
  Ni  Ni166  1  0.33333333  0.41704900  0.40578657  1.0
  Ni  Ni167  1  0.33333333  0.75038233  0.40578657  1.0
  Ni  Ni168  1  0.66666667  0.08371567  0.40578657  1.0
  Ni  Ni169  1  0.66666667  0.41704900  0.40578657  1.0
  Ni  Ni170  1  0.66666667  0.75038233  0.40578657  1.0
  Ni  Ni171  1  0.00000000  0.24961767  0.40578657  1.0
  Ni  Ni172  1  0.00000000  0.58295100  0.40578657  1.0
  Ni  Ni173  1  0.00000000  0.91628433  0.40578657  1.0
  Ni  Ni174  1  0.33333333  0.24961767  0.40578657  1.0
  Ni  Ni175  1  0.33333333  0.58295100  0.40578657  1.0
  Ni  Ni176  1  0.33333333  0.91628433  0.40578657  1.0
  Ni  Ni177  1  0.66666667  0.24961767  0.40578657  1.0
  Ni  Ni178  1  0.66666667  0.58295100  0.40578657  1.0
  Ni  Ni179  1  0.66666667  0.91628433  0.40578657  1.0
  Ni  Ni180  1  0.00000000  0.16666667  0.33397071  1.0
  Ni  Ni181  1  0.00000000  0.50000000  0.33397071  1.0
  Ni  Ni182  1  0.00000000  0.83333333  0.33397071  1.0
  Ni  Ni183  1  0.33333333  0.16666667  0.33397071  1.0
  Ni  Ni184  1  0.33333333  0.50000000  0.33397071  1.0
  Ni  Ni185  1  0.33333333  0.83333333  0.33397071  1.0
  Ni  Ni186  1  0.66666667  0.16666667  0.33397071  1.0
  Ni  Ni187  1  0.66666667  0.50000000  0.33397071  1.0
  Ni  Ni188  1  0.66666667  0.83333333  0.33397071  1.0
  Ni  Ni189  1  0.16666667  0.00000000  0.38031500  1.0
  Ni  Ni190  1  0.16666667  0.33333333  0.38031500  1.0
  Ni  Ni191  1  0.16666667  0.66666667  0.38031500  1.0
  Ni  Ni192  1  0.50000000  0.00000000  0.38031500  1.0
  Ni  Ni193  1  0.50000000  0.33333333  0.38031500  1.0
  Ni  Ni194  1  0.50000000  0.66666667  0.38031500  1.0
  Ni  Ni195  1  0.83333333  0.00000000  0.38031500  1.0
  Ni  Ni196  1  0.83333333  0.33333333  0.38031500  1.0
  Ni  Ni197  1  0.83333333  0.66666667  0.38031500  1.0
  Mo  Mo198  1  0.16666667  0.16666667  0.37957257  1.0
  Mo  Mo199  1  0.16666667  0.50000000  0.37957257  1.0
  Mo  Mo200  1  0.16666667  0.83333333  0.37957257  1.0
  Mo  Mo201  1  0.50000000  0.16666667  0.37957257  1.0
  Mo  Mo202  1  0.50000000  0.50000000  0.37957257  1.0
  Mo  Mo203  1  0.50000000  0.83333333  0.37957257  1.0
  Mo  Mo204  1  0.83333333  0.16666667  0.37957257  1.0
  Mo  Mo205  1  0.83333333  0.50000000  0.37957257  1.0
  Mo  Mo206  1  0.83333333  0.83333333  0.37957257  1.0
  Mo  Mo207  1  0.00000000  0.00000000  0.33471314  1.0
  Mo  Mo208  1  0.00000000  0.33333333  0.33471314  1.0
  Mo  Mo209  1  0.00000000  0.66666667  0.33471314  1.0
  Mo  Mo210  1  0.33333333  0.00000000  0.33471314  1.0
  Mo  Mo211  1  0.33333333  0.33333333  0.33471314  1.0
  Mo  Mo212  1  0.33333333  0.66666667  0.33471314  1.0
  Mo  Mo213  1  0.66666667  0.00000000  0.33471314  1.0
  Mo  Mo214  1  0.66666667  0.33333333  0.33471314  1.0
  Mo  Mo215  1  0.66666667  0.66666667  0.33471314  1.0
