# generated using pymatgen
data_Ni3Mo
_symmetry_space_group_name_H-M   'P 1'
_cell_length_a   20.15953756
_cell_length_b   23.83034196
_cell_length_c   28.74957890
_cell_angle_alpha   94.35448704
_cell_angle_beta   93.16605418
_cell_angle_gamma   95.73608381
_symmetry_Int_Tables_number   1
_chemical_formula_structural   Ni3Mo
_chemical_formula_sum   'Ni324 Mo108'
_cell_volume   13675.22574379
_cell_formula_units_Z   108
loop_
 _symmetry_equiv_pos_site_id
 _symmetry_equiv_pos_as_xyz
  1  'x, y, z'
loop_
 _atom_site_type_symbol
 _atom_site_label
 _atom_site_symmetry_multiplicity
 _atom_site_fract_x
 _atom_site_fract_y
 _atom_site_fract_z
 _atom_site_occupancy
  Mo  Mo0  1  0.30716533  0.06894825  0.10732563  1.0
  Mo  Mo1  1  0.30716533  0.40228158  0.10732563  1.0
  Mo  Mo2  1  0.30716533  0.73561492  0.10732563  1.0
  Mo  Mo3  1  0.64049867  0.06894825  0.10732563  1.0
  Mo  Mo4  1  0.64049867  0.40228158  0.10732563  1.0
  Mo  Mo5  1  0.64049867  0.73561492  0.10732563  1.0
  Mo  Mo6  1  0.97383200  0.06894825  0.10732563  1.0
  Mo  Mo7  1  0.97383200  0.40228158  0.10732563  1.0
  Mo  Mo8  1  0.97383200  0.73561492  0.10732563  1.0
  Mo  Mo9  1  0.14049867  0.27728158  0.04482563  1.0
  Mo  Mo10  1  0.14049867  0.61061492  0.04482563  1.0
  Mo  Mo11  1  0.14049867  0.94394825  0.04482563  1.0
  Mo  Mo12  1  0.47383200  0.27728158  0.04482563  1.0
  Mo  Mo13  1  0.47383200  0.61061492  0.04482563  1.0
  Mo  Mo14  1  0.47383200  0.94394825  0.04482563  1.0
  Mo  Mo15  1  0.80716533  0.27728158  0.04482563  1.0
  Mo  Mo16  1  0.80716533  0.61061492  0.04482563  1.0
  Mo  Mo17  1  0.80716533  0.94394825  0.04482563  1.0
  Mo  Mo18  1  0.10950133  0.08736692  0.03320163  1.0
  Mo  Mo19  1  0.10950133  0.42070025  0.03320163  1.0
  Mo  Mo20  1  0.10950133  0.75403358  0.03320163  1.0
  Mo  Mo21  1  0.44283467  0.08736692  0.03320163  1.0
  Mo  Mo22  1  0.44283467  0.42070025  0.03320163  1.0
  Mo  Mo23  1  0.44283467  0.75403358  0.03320163  1.0
  Mo  Mo24  1  0.77616800  0.08736692  0.03320163  1.0
  Mo  Mo25  1  0.77616800  0.42070025  0.03320163  1.0
  Mo  Mo26  1  0.77616800  0.75403358  0.03320163  1.0
  Mo  Mo27  1  0.27616800  0.21236692  0.09570162  1.0
  Mo  Mo28  1  0.27616800  0.54570025  0.09570162  1.0
  Mo  Mo29  1  0.27616800  0.87903358  0.09570162  1.0
  Mo  Mo30  1  0.60950133  0.21236692  0.09570162  1.0
  Mo  Mo31  1  0.60950133  0.54570025  0.09570162  1.0
  Mo  Mo32  1  0.60950133  0.87903358  0.09570162  1.0
  Mo  Mo33  1  0.94283467  0.21236692  0.09570162  1.0
  Mo  Mo34  1  0.94283467  0.54570025  0.09570162  1.0
  Mo  Mo35  1  0.94283467  0.87903358  0.09570162  1.0
  Mo  Mo36  1  0.30716533  0.31894825  0.23232563  1.0
  Mo  Mo37  1  0.30716533  0.65228158  0.23232563  1.0
  Mo  Mo38  1  0.30716533  0.98561492  0.23232563  1.0
  Mo  Mo39  1  0.64049867  0.31894825  0.23232563  1.0
  Mo  Mo40  1  0.64049867  0.65228158  0.23232563  1.0
  Mo  Mo41  1  0.64049867  0.98561492  0.23232563  1.0
  Mo  Mo42  1  0.97383200  0.31894825  0.23232563  1.0
  Mo  Mo43  1  0.97383200  0.65228158  0.23232563  1.0
  Mo  Mo44  1  0.97383200  0.98561492  0.23232563  1.0
  Mo  Mo45  1  0.14049867  0.19394825  0.16982562  1.0
  Mo  Mo46  1  0.14049867  0.52728158  0.16982562  1.0
  Mo  Mo47  1  0.14049867  0.86061492  0.16982562  1.0
  Mo  Mo48  1  0.47383200  0.19394825  0.16982562  1.0
  Mo  Mo49  1  0.47383200  0.52728158  0.16982562  1.0
  Mo  Mo50  1  0.47383200  0.86061492  0.16982562  1.0
  Mo  Mo51  1  0.80716533  0.19394825  0.16982562  1.0
  Mo  Mo52  1  0.80716533  0.52728158  0.16982562  1.0
  Mo  Mo53  1  0.80716533  0.86061492  0.16982562  1.0
  Mo  Mo54  1  0.10950133  0.00403358  0.15820163  1.0
  Mo  Mo55  1  0.10950133  0.33736692  0.15820163  1.0
  Mo  Mo56  1  0.10950133  0.67070025  0.15820163  1.0
  Mo  Mo57  1  0.44283467  0.00403358  0.15820163  1.0
  Mo  Mo58  1  0.44283467  0.33736692  0.15820163  1.0
  Mo  Mo59  1  0.44283467  0.67070025  0.15820163  1.0
  Mo  Mo60  1  0.77616800  0.00403358  0.15820163  1.0
  Mo  Mo61  1  0.77616800  0.33736692  0.15820163  1.0
  Mo  Mo62  1  0.77616800  0.67070025  0.15820163  1.0
  Mo  Mo63  1  0.27616800  0.12903358  0.22070163  1.0
  Mo  Mo64  1  0.27616800  0.46236692  0.22070163  1.0
  Mo  Mo65  1  0.27616800  0.79570025  0.22070163  1.0
  Mo  Mo66  1  0.60950133  0.12903358  0.22070162  1.0
  Mo  Mo67  1  0.60950133  0.46236692  0.22070163  1.0
  Mo  Mo68  1  0.60950133  0.79570025  0.22070163  1.0
  Mo  Mo69  1  0.94283467  0.12903358  0.22070162  1.0
  Mo  Mo70  1  0.94283467  0.46236692  0.22070163  1.0
  Mo  Mo71  1  0.94283467  0.79570025  0.22070163  1.0
  Mo  Mo72  1  0.30716533  0.23561492  0.35732563  1.0
  Mo  Mo73  1  0.30716533  0.56894825  0.35732563  1.0
  Mo  Mo74  1  0.30716533  0.90228158  0.35732563  1.0
  Mo  Mo75  1  0.64049867  0.23561492  0.35732562  1.0
  Mo  Mo76  1  0.64049867  0.56894825  0.35732562  1.0
  Mo  Mo77  1  0.64049867  0.90228158  0.35732563  1.0
  Mo  Mo78  1  0.97383200  0.23561492  0.35732562  1.0
  Mo  Mo79  1  0.97383200  0.56894825  0.35732562  1.0
  Mo  Mo80  1  0.97383200  0.90228158  0.35732562  1.0
  Mo  Mo81  1  0.14049867  0.11061492  0.29482563  1.0
  Mo  Mo82  1  0.14049867  0.44394825  0.29482563  1.0
  Mo  Mo83  1  0.14049867  0.77728158  0.29482562  1.0
  Mo  Mo84  1  0.47383200  0.11061492  0.29482562  1.0
  Mo  Mo85  1  0.47383200  0.44394825  0.29482562  1.0
  Mo  Mo86  1  0.47383200  0.77728158  0.29482562  1.0
  Mo  Mo87  1  0.80716533  0.11061492  0.29482562  1.0
  Mo  Mo88  1  0.80716533  0.44394825  0.29482562  1.0
  Mo  Mo89  1  0.80716533  0.77728158  0.29482562  1.0
  Mo  Mo90  1  0.10950133  0.25403358  0.28320163  1.0
  Mo  Mo91  1  0.10950133  0.58736692  0.28320163  1.0
  Mo  Mo92  1  0.10950133  0.92070025  0.28320163  1.0
  Mo  Mo93  1  0.44283467  0.25403358  0.28320163  1.0
  Mo  Mo94  1  0.44283467  0.58736692  0.28320163  1.0
  Mo  Mo95  1  0.44283467  0.92070025  0.28320163  1.0
  Mo  Mo96  1  0.77616800  0.25403358  0.28320163  1.0
  Mo  Mo97  1  0.77616800  0.58736692  0.28320163  1.0
  Mo  Mo98  1  0.77616800  0.92070025  0.28320163  1.0
  Mo  Mo99  1  0.27616800  0.04570025  0.34570163  1.0
  Mo  Mo100  1  0.27616800  0.37903358  0.34570163  1.0
  Mo  Mo101  1  0.27616800  0.71236692  0.34570163  1.0
  Mo  Mo102  1  0.60950133  0.04570025  0.34570163  1.0
  Mo  Mo103  1  0.60950133  0.37903358  0.34570163  1.0
  Mo  Mo104  1  0.60950133  0.71236692  0.34570163  1.0
  Mo  Mo105  1  0.94283467  0.04570025  0.34570163  1.0
  Mo  Mo106  1  0.94283467  0.37903358  0.34570162  1.0
  Mo  Mo107  1  0.94283467  0.71236692  0.34570163  1.0
  Ni  Ni108  1  0.01489317  0.24586421  0.02911694  1.0
  Ni  Ni109  1  0.01489317  0.57919754  0.02911694  1.0
  Ni  Ni110  1  0.01489317  0.91253087  0.02911694  1.0
  Ni  Ni111  1  0.34822650  0.24586421  0.02911694  1.0
  Ni  Ni112  1  0.34822650  0.57919754  0.02911694  1.0
  Ni  Ni113  1  0.34822650  0.91253087  0.02911694  1.0
  Ni  Ni114  1  0.68155983  0.24586421  0.02911694  1.0
  Ni  Ni115  1  0.68155983  0.57919754  0.02911694  1.0
  Ni  Ni116  1  0.68155983  0.91253087  0.02911694  1.0
  Ni  Ni117  1  0.18155983  0.03753087  0.09161694  1.0
  Ni  Ni118  1  0.18155983  0.37086421  0.09161694  1.0
  Ni  Ni119  1  0.18155983  0.70419754  0.09161694  1.0
  Ni  Ni120  1  0.51489317  0.03753087  0.09161694  1.0
  Ni  Ni121  1  0.51489317  0.37086421  0.09161694  1.0
  Ni  Ni122  1  0.51489317  0.70419754  0.09161694  1.0
  Ni  Ni123  1  0.84822650  0.03753087  0.09161694  1.0
  Ni  Ni124  1  0.84822650  0.37086421  0.09161694  1.0
  Ni  Ni125  1  0.84822650  0.70419754  0.09161694  1.0
  Ni  Ni126  1  0.09860883  0.09974412  0.12272356  1.0
  Ni  Ni127  1  0.09860883  0.43307746  0.12272356  1.0
  Ni  Ni128  1  0.09860883  0.76641079  0.12272356  1.0
  Ni  Ni129  1  0.43194217  0.09974412  0.12272356  1.0
  Ni  Ni130  1  0.43194217  0.43307746  0.12272356  1.0
  Ni  Ni131  1  0.43194217  0.76641079  0.12272356  1.0
  Ni  Ni132  1  0.76527550  0.09974412  0.12272356  1.0
  Ni  Ni133  1  0.76527550  0.43307746  0.12272356  1.0
  Ni  Ni134  1  0.76527550  0.76641079  0.12272356  1.0
  Ni  Ni135  1  0.26527550  0.30807746  0.06022356  1.0
  Ni  Ni136  1  0.26527550  0.64141079  0.06022356  1.0
  Ni  Ni137  1  0.26527550  0.97474412  0.06022356  1.0
  Ni  Ni138  1  0.59860883  0.30807746  0.06022356  1.0
  Ni  Ni139  1  0.59860883  0.64141079  0.06022356  1.0
  Ni  Ni140  1  0.59860883  0.97474412  0.06022356  1.0
  Ni  Ni141  1  0.93194217  0.30807746  0.06022356  1.0
  Ni  Ni142  1  0.93194217  0.64141079  0.06022356  1.0
  Ni  Ni143  1  0.93194217  0.97474412  0.06022356  1.0
  Ni  Ni144  1  0.23510683  0.11878429  0.04891031  1.0
  Ni  Ni145  1  0.23510683  0.45211762  0.04891031  1.0
  Ni  Ni146  1  0.23510683  0.78545096  0.04891031  1.0
  Ni  Ni147  1  0.56844017  0.11878429  0.04891031  1.0
  Ni  Ni148  1  0.56844017  0.45211762  0.04891031  1.0
  Ni  Ni149  1  0.56844017  0.78545096  0.04891031  1.0
  Ni  Ni150  1  0.90177350  0.11878429  0.04891031  1.0
  Ni  Ni151  1  0.90177350  0.45211762  0.04891031  1.0
  Ni  Ni152  1  0.90177350  0.78545096  0.04891031  1.0
  Ni  Ni153  1  0.06844017  0.24378429  0.11141031  1.0
  Ni  Ni154  1  0.06844017  0.57711762  0.11141031  1.0
  Ni  Ni155  1  0.06844017  0.91045096  0.11141031  1.0
  Ni  Ni156  1  0.40177350  0.24378429  0.11141031  1.0
  Ni  Ni157  1  0.40177350  0.57711762  0.11141031  1.0
  Ni  Ni158  1  0.40177350  0.91045096  0.11141031  1.0
  Ni  Ni159  1  0.73510683  0.24378429  0.11141031  1.0
  Ni  Ni160  1  0.73510683  0.57711762  0.11141031  1.0
  Ni  Ni161  1  0.73510683  0.91045096  0.11141031  1.0
  Ni  Ni162  1  0.31805783  0.05657104  0.01780369  1.0
  Ni  Ni163  1  0.31805783  0.38990437  0.01780369  1.0
  Ni  Ni164  1  0.31805783  0.72323771  0.01780369  1.0
  Ni  Ni165  1  0.65139117  0.05657104  0.01780369  1.0
  Ni  Ni166  1  0.65139117  0.38990437  0.01780369  1.0
  Ni  Ni167  1  0.65139117  0.72323771  0.01780369  1.0
  Ni  Ni168  1  0.98472450  0.05657104  0.01780369  1.0
  Ni  Ni169  1  0.98472450  0.38990437  0.01780369  1.0
  Ni  Ni170  1  0.98472450  0.72323771  0.01780369  1.0
  Ni  Ni171  1  0.15139117  0.18157104  0.08030369  1.0
  Ni  Ni172  1  0.15139117  0.51490437  0.08030369  1.0
  Ni  Ni173  1  0.15139117  0.84823771  0.08030369  1.0
  Ni  Ni174  1  0.48472450  0.18157104  0.08030369  1.0
  Ni  Ni175  1  0.48472450  0.51490437  0.08030369  1.0
  Ni  Ni176  1  0.48472450  0.84823771  0.08030369  1.0
  Ni  Ni177  1  0.81805783  0.18157104  0.08030369  1.0
  Ni  Ni178  1  0.81805783  0.51490437  0.08030369  1.0
  Ni  Ni179  1  0.81805783  0.84823771  0.08030369  1.0
  Ni  Ni180  1  0.02703417  0.15051654  0.06477644  1.0
  Ni  Ni181  1  0.02703417  0.48384987  0.06477644  1.0
  Ni  Ni182  1  0.02703417  0.81718321  0.06477644  1.0
  Ni  Ni183  1  0.36036750  0.15051654  0.06477644  1.0
  Ni  Ni184  1  0.36036750  0.48384987  0.06477644  1.0
  Ni  Ni185  1  0.36036750  0.81718321  0.06477644  1.0
  Ni  Ni186  1  0.69370083  0.15051654  0.06477644  1.0
  Ni  Ni187  1  0.69370083  0.48384987  0.06477644  1.0
  Ni  Ni188  1  0.69370083  0.81718321  0.06477644  1.0
  Ni  Ni189  1  0.19370083  0.02551654  0.00227644  1.0
  Ni  Ni190  1  0.19370083  0.35884987  0.00227644  1.0
  Ni  Ni191  1  0.19370083  0.69218321  0.00227644  1.0
  Ni  Ni192  1  0.52703417  0.02551654  0.00227644  1.0
  Ni  Ni193  1  0.52703417  0.35884987  0.00227644  1.0
  Ni  Ni194  1  0.52703417  0.69218321  0.00227644  1.0
  Ni  Ni195  1  0.86036750  0.02551654  0.00227644  1.0
  Ni  Ni196  1  0.86036750  0.35884987  0.00227644  1.0
  Ni  Ni197  1  0.86036750  0.69218321  0.00227644  1.0
  Ni  Ni198  1  0.05629917  0.00579862  0.07575081  1.0
  Ni  Ni199  1  0.05629917  0.33913196  0.07575081  1.0
  Ni  Ni200  1  0.05629917  0.67246529  0.07575081  1.0
  Ni  Ni201  1  0.38963250  0.00579862  0.07575081  1.0
  Ni  Ni202  1  0.38963250  0.33913196  0.07575081  1.0
  Ni  Ni203  1  0.38963250  0.67246529  0.07575081  1.0
  Ni  Ni204  1  0.72296583  0.00579862  0.07575081  1.0
  Ni  Ni205  1  0.72296583  0.33913196  0.07575081  1.0
  Ni  Ni206  1  0.72296583  0.67246529  0.07575081  1.0
  Ni  Ni207  1  0.22296583  0.21413196  0.01325081  1.0
  Ni  Ni208  1  0.22296583  0.54746529  0.01325081  1.0
  Ni  Ni209  1  0.22296583  0.88079862  0.01325081  1.0
  Ni  Ni210  1  0.55629917  0.21413196  0.01325081  1.0
  Ni  Ni211  1  0.55629917  0.54746529  0.01325081  1.0
  Ni  Ni212  1  0.55629917  0.88079862  0.01325081  1.0
  Ni  Ni213  1  0.88963250  0.21413196  0.01325081  1.0
  Ni  Ni214  1  0.88963250  0.54746529  0.01325081  1.0
  Ni  Ni215  1  0.88963250  0.88079862  0.01325081  1.0
  Ni  Ni216  1  0.01489317  0.16253087  0.15411694  1.0
  Ni  Ni217  1  0.01489317  0.49586421  0.15411694  1.0
  Ni  Ni218  1  0.01489317  0.82919754  0.15411694  1.0
  Ni  Ni219  1  0.34822650  0.16253087  0.15411694  1.0
  Ni  Ni220  1  0.34822650  0.49586421  0.15411694  1.0
  Ni  Ni221  1  0.34822650  0.82919754  0.15411694  1.0
  Ni  Ni222  1  0.68155983  0.16253087  0.15411694  1.0
  Ni  Ni223  1  0.68155983  0.49586421  0.15411694  1.0
  Ni  Ni224  1  0.68155983  0.82919754  0.15411694  1.0
  Ni  Ni225  1  0.18155983  0.28753087  0.21661694  1.0
  Ni  Ni226  1  0.18155983  0.62086421  0.21661694  1.0
  Ni  Ni227  1  0.18155983  0.95419754  0.21661694  1.0
  Ni  Ni228  1  0.51489317  0.28753087  0.21661694  1.0
  Ni  Ni229  1  0.51489317  0.62086421  0.21661694  1.0
  Ni  Ni230  1  0.51489317  0.95419754  0.21661694  1.0
  Ni  Ni231  1  0.84822650  0.28753087  0.21661694  1.0
  Ni  Ni232  1  0.84822650  0.62086421  0.21661694  1.0
  Ni  Ni233  1  0.84822650  0.95419754  0.21661694  1.0
  Ni  Ni234  1  0.09860883  0.01641079  0.24772356  1.0
  Ni  Ni235  1  0.09860883  0.34974412  0.24772356  1.0
  Ni  Ni236  1  0.09860883  0.68307746  0.24772356  1.0
  Ni  Ni237  1  0.43194217  0.01641079  0.24772356  1.0
  Ni  Ni238  1  0.43194217  0.34974412  0.24772356  1.0
  Ni  Ni239  1  0.43194217  0.68307746  0.24772356  1.0
  Ni  Ni240  1  0.76527550  0.01641079  0.24772356  1.0
  Ni  Ni241  1  0.76527550  0.34974412  0.24772356  1.0
  Ni  Ni242  1  0.76527550  0.68307746  0.24772356  1.0
  Ni  Ni243  1  0.26527550  0.22474412  0.18522356  1.0
  Ni  Ni244  1  0.26527550  0.55807746  0.18522356  1.0
  Ni  Ni245  1  0.26527550  0.89141079  0.18522356  1.0
  Ni  Ni246  1  0.59860883  0.22474412  0.18522356  1.0
  Ni  Ni247  1  0.59860883  0.55807746  0.18522356  1.0
  Ni  Ni248  1  0.59860883  0.89141079  0.18522356  1.0
  Ni  Ni249  1  0.93194217  0.22474412  0.18522356  1.0
  Ni  Ni250  1  0.93194217  0.55807746  0.18522356  1.0
  Ni  Ni251  1  0.93194217  0.89141079  0.18522356  1.0
  Ni  Ni252  1  0.23510683  0.03545096  0.17391031  1.0
  Ni  Ni253  1  0.23510683  0.36878429  0.17391031  1.0
  Ni  Ni254  1  0.23510683  0.70211762  0.17391031  1.0
  Ni  Ni255  1  0.56844017  0.03545096  0.17391031  1.0
  Ni  Ni256  1  0.56844017  0.36878429  0.17391031  1.0
  Ni  Ni257  1  0.56844017  0.70211762  0.17391031  1.0
  Ni  Ni258  1  0.90177350  0.03545096  0.17391031  1.0
  Ni  Ni259  1  0.90177350  0.36878429  0.17391031  1.0
  Ni  Ni260  1  0.90177350  0.70211762  0.17391031  1.0
  Ni  Ni261  1  0.06844017  0.16045096  0.23641031  1.0
  Ni  Ni262  1  0.06844017  0.49378429  0.23641031  1.0
  Ni  Ni263  1  0.06844017  0.82711762  0.23641031  1.0
  Ni  Ni264  1  0.40177350  0.16045096  0.23641031  1.0
  Ni  Ni265  1  0.40177350  0.49378429  0.23641031  1.0
  Ni  Ni266  1  0.40177350  0.82711762  0.23641031  1.0
  Ni  Ni267  1  0.73510683  0.16045096  0.23641031  1.0
  Ni  Ni268  1  0.73510683  0.49378429  0.23641031  1.0
  Ni  Ni269  1  0.73510683  0.82711762  0.23641031  1.0
  Ni  Ni270  1  0.31805783  0.30657104  0.14280369  1.0
  Ni  Ni271  1  0.31805783  0.63990437  0.14280369  1.0
  Ni  Ni272  1  0.31805783  0.97323771  0.14280369  1.0
  Ni  Ni273  1  0.65139117  0.30657104  0.14280369  1.0
  Ni  Ni274  1  0.65139117  0.63990437  0.14280369  1.0
  Ni  Ni275  1  0.65139117  0.97323771  0.14280369  1.0
  Ni  Ni276  1  0.98472450  0.30657104  0.14280369  1.0
  Ni  Ni277  1  0.98472450  0.63990437  0.14280369  1.0
  Ni  Ni278  1  0.98472450  0.97323771  0.14280369  1.0
  Ni  Ni279  1  0.15139117  0.09823771  0.20530369  1.0
  Ni  Ni280  1  0.15139117  0.43157104  0.20530369  1.0
  Ni  Ni281  1  0.15139117  0.76490437  0.20530369  1.0
  Ni  Ni282  1  0.48472450  0.09823771  0.20530369  1.0
  Ni  Ni283  1  0.48472450  0.43157104  0.20530369  1.0
  Ni  Ni284  1  0.48472450  0.76490437  0.20530369  1.0
  Ni  Ni285  1  0.81805783  0.09823771  0.20530369  1.0
  Ni  Ni286  1  0.81805783  0.43157104  0.20530369  1.0
  Ni  Ni287  1  0.81805783  0.76490437  0.20530369  1.0
  Ni  Ni288  1  0.02703417  0.06718321  0.18977644  1.0
  Ni  Ni289  1  0.02703417  0.40051654  0.18977644  1.0
  Ni  Ni290  1  0.02703417  0.73384987  0.18977644  1.0
  Ni  Ni291  1  0.36036750  0.06718321  0.18977644  1.0
  Ni  Ni292  1  0.36036750  0.40051654  0.18977644  1.0
  Ni  Ni293  1  0.36036750  0.73384987  0.18977644  1.0
  Ni  Ni294  1  0.69370083  0.06718321  0.18977644  1.0
  Ni  Ni295  1  0.69370083  0.40051654  0.18977644  1.0
  Ni  Ni296  1  0.69370083  0.73384987  0.18977644  1.0
  Ni  Ni297  1  0.19370083  0.27551654  0.12727644  1.0
  Ni  Ni298  1  0.19370083  0.60884987  0.12727644  1.0
  Ni  Ni299  1  0.19370083  0.94218321  0.12727644  1.0
  Ni  Ni300  1  0.52703417  0.27551654  0.12727644  1.0
  Ni  Ni301  1  0.52703417  0.60884987  0.12727644  1.0
  Ni  Ni302  1  0.52703417  0.94218321  0.12727644  1.0
  Ni  Ni303  1  0.86036750  0.27551654  0.12727644  1.0
  Ni  Ni304  1  0.86036750  0.60884987  0.12727644  1.0
  Ni  Ni305  1  0.86036750  0.94218321  0.12727644  1.0
  Ni  Ni306  1  0.05629917  0.25579863  0.20075081  1.0
  Ni  Ni307  1  0.05629917  0.58913196  0.20075081  1.0
  Ni  Ni308  1  0.05629917  0.92246529  0.20075081  1.0
  Ni  Ni309  1  0.38963250  0.25579863  0.20075081  1.0
  Ni  Ni310  1  0.38963250  0.58913196  0.20075081  1.0
  Ni  Ni311  1  0.38963250  0.92246529  0.20075081  1.0
  Ni  Ni312  1  0.72296583  0.25579863  0.20075081  1.0
  Ni  Ni313  1  0.72296583  0.58913196  0.20075081  1.0
  Ni  Ni314  1  0.72296583  0.92246529  0.20075081  1.0
  Ni  Ni315  1  0.22296583  0.13079862  0.13825081  1.0
  Ni  Ni316  1  0.22296583  0.46413196  0.13825081  1.0
  Ni  Ni317  1  0.22296583  0.79746529  0.13825081  1.0
  Ni  Ni318  1  0.55629917  0.13079862  0.13825081  1.0
  Ni  Ni319  1  0.55629917  0.46413196  0.13825081  1.0
  Ni  Ni320  1  0.55629917  0.79746529  0.13825081  1.0
  Ni  Ni321  1  0.88963250  0.13079862  0.13825081  1.0
  Ni  Ni322  1  0.88963250  0.46413196  0.13825081  1.0
  Ni  Ni323  1  0.88963250  0.79746529  0.13825081  1.0
  Ni  Ni324  1  0.01489317  0.07919754  0.27911694  1.0
  Ni  Ni325  1  0.01489317  0.41253087  0.27911694  1.0
  Ni  Ni326  1  0.01489317  0.74586421  0.27911694  1.0
  Ni  Ni327  1  0.34822650  0.07919754  0.27911694  1.0
  Ni  Ni328  1  0.34822650  0.41253087  0.27911694  1.0
  Ni  Ni329  1  0.34822650  0.74586421  0.27911694  1.0
  Ni  Ni330  1  0.68155983  0.07919754  0.27911694  1.0
  Ni  Ni331  1  0.68155983  0.41253087  0.27911694  1.0
  Ni  Ni332  1  0.68155983  0.74586421  0.27911694  1.0
  Ni  Ni333  1  0.18155983  0.20419754  0.34161694  1.0
  Ni  Ni334  1  0.18155983  0.53753087  0.34161694  1.0
  Ni  Ni335  1  0.18155983  0.87086421  0.34161694  1.0
  Ni  Ni336  1  0.51489317  0.20419754  0.34161694  1.0
  Ni  Ni337  1  0.51489317  0.53753087  0.34161694  1.0
  Ni  Ni338  1  0.51489317  0.87086421  0.34161694  1.0
  Ni  Ni339  1  0.84822650  0.20419754  0.34161694  1.0
  Ni  Ni340  1  0.84822650  0.53753087  0.34161694  1.0
  Ni  Ni341  1  0.84822650  0.87086421  0.34161694  1.0
  Ni  Ni342  1  0.09860883  0.26641079  0.37272356  1.0
  Ni  Ni343  1  0.09860883  0.59974412  0.37272356  1.0
  Ni  Ni344  1  0.09860883  0.93307746  0.37272356  1.0
  Ni  Ni345  1  0.43194217  0.26641079  0.37272356  1.0
  Ni  Ni346  1  0.43194217  0.59974412  0.37272356  1.0
  Ni  Ni347  1  0.43194217  0.93307746  0.37272356  1.0
  Ni  Ni348  1  0.76527550  0.26641079  0.37272356  1.0
  Ni  Ni349  1  0.76527550  0.59974412  0.37272356  1.0
  Ni  Ni350  1  0.76527550  0.93307746  0.37272356  1.0
  Ni  Ni351  1  0.26527550  0.14141079  0.31022356  1.0
  Ni  Ni352  1  0.26527550  0.47474412  0.31022356  1.0
  Ni  Ni353  1  0.26527550  0.80807746  0.31022356  1.0
  Ni  Ni354  1  0.59860883  0.14141079  0.31022356  1.0
  Ni  Ni355  1  0.59860883  0.47474412  0.31022356  1.0
  Ni  Ni356  1  0.59860883  0.80807746  0.31022356  1.0
  Ni  Ni357  1  0.93194217  0.14141079  0.31022356  1.0
  Ni  Ni358  1  0.93194217  0.47474412  0.31022356  1.0
  Ni  Ni359  1  0.93194217  0.80807746  0.31022356  1.0
  Ni  Ni360  1  0.23510683  0.28545096  0.29891031  1.0
  Ni  Ni361  1  0.23510683  0.61878429  0.29891031  1.0
  Ni  Ni362  1  0.23510683  0.95211762  0.29891031  1.0
  Ni  Ni363  1  0.56844017  0.28545096  0.29891031  1.0
  Ni  Ni364  1  0.56844017  0.61878429  0.29891031  1.0
  Ni  Ni365  1  0.56844017  0.95211762  0.29891031  1.0
  Ni  Ni366  1  0.90177350  0.28545096  0.29891031  1.0
  Ni  Ni367  1  0.90177350  0.61878429  0.29891031  1.0
  Ni  Ni368  1  0.90177350  0.95211762  0.29891031  1.0
  Ni  Ni369  1  0.06844017  0.07711762  0.36141031  1.0
  Ni  Ni370  1  0.06844017  0.41045096  0.36141031  1.0
  Ni  Ni371  1  0.06844017  0.74378429  0.36141031  1.0
  Ni  Ni372  1  0.40177350  0.07711762  0.36141031  1.0
  Ni  Ni373  1  0.40177350  0.41045096  0.36141031  1.0
  Ni  Ni374  1  0.40177350  0.74378429  0.36141031  1.0
  Ni  Ni375  1  0.73510683  0.07711762  0.36141031  1.0
  Ni  Ni376  1  0.73510683  0.41045096  0.36141031  1.0
  Ni  Ni377  1  0.73510683  0.74378429  0.36141031  1.0
  Ni  Ni378  1  0.31805783  0.22323771  0.26780369  1.0
  Ni  Ni379  1  0.31805783  0.55657104  0.26780369  1.0
  Ni  Ni380  1  0.31805783  0.88990437  0.26780369  1.0
  Ni  Ni381  1  0.65139117  0.22323771  0.26780369  1.0
  Ni  Ni382  1  0.65139117  0.55657104  0.26780369  1.0
  Ni  Ni383  1  0.65139117  0.88990437  0.26780369  1.0
  Ni  Ni384  1  0.98472450  0.22323771  0.26780369  1.0
  Ni  Ni385  1  0.98472450  0.55657104  0.26780369  1.0
  Ni  Ni386  1  0.98472450  0.88990437  0.26780369  1.0
  Ni  Ni387  1  0.15139117  0.01490438  0.33030369  1.0
  Ni  Ni388  1  0.15139117  0.34823771  0.33030369  1.0
  Ni  Ni389  1  0.15139117  0.68157104  0.33030369  1.0
  Ni  Ni390  1  0.48472450  0.01490438  0.33030369  1.0
  Ni  Ni391  1  0.48472450  0.34823771  0.33030369  1.0
  Ni  Ni392  1  0.48472450  0.68157104  0.33030369  1.0
  Ni  Ni393  1  0.81805783  0.01490438  0.33030369  1.0
  Ni  Ni394  1  0.81805783  0.34823771  0.33030369  1.0
  Ni  Ni395  1  0.81805783  0.68157104  0.33030369  1.0
  Ni  Ni396  1  0.02703417  0.31718321  0.31477644  1.0
  Ni  Ni397  1  0.02703417  0.65051654  0.31477644  1.0
  Ni  Ni398  1  0.02703417  0.98384987  0.31477644  1.0
  Ni  Ni399  1  0.36036750  0.31718321  0.31477644  1.0
  Ni  Ni400  1  0.36036750  0.65051654  0.31477644  1.0
  Ni  Ni401  1  0.36036750  0.98384987  0.31477644  1.0
  Ni  Ni402  1  0.69370083  0.31718321  0.31477644  1.0
  Ni  Ni403  1  0.69370083  0.65051654  0.31477644  1.0
  Ni  Ni404  1  0.69370083  0.98384987  0.31477644  1.0
  Ni  Ni405  1  0.19370083  0.19218321  0.25227644  1.0
  Ni  Ni406  1  0.19370083  0.52551654  0.25227644  1.0
  Ni  Ni407  1  0.19370083  0.85884987  0.25227644  1.0
  Ni  Ni408  1  0.52703417  0.19218321  0.25227644  1.0
  Ni  Ni409  1  0.52703417  0.52551654  0.25227644  1.0
  Ni  Ni410  1  0.52703417  0.85884987  0.25227644  1.0
  Ni  Ni411  1  0.86036750  0.19218321  0.25227644  1.0
  Ni  Ni412  1  0.86036750  0.52551654  0.25227644  1.0
  Ni  Ni413  1  0.86036750  0.85884987  0.25227644  1.0
  Ni  Ni414  1  0.05629917  0.17246529  0.32575081  1.0
  Ni  Ni415  1  0.05629917  0.50579862  0.32575081  1.0
  Ni  Ni416  1  0.05629917  0.83913196  0.32575081  1.0
  Ni  Ni417  1  0.38963250  0.17246529  0.32575081  1.0
  Ni  Ni418  1  0.38963250  0.50579862  0.32575081  1.0
  Ni  Ni419  1  0.38963250  0.83913196  0.32575081  1.0
  Ni  Ni420  1  0.72296583  0.17246529  0.32575081  1.0
  Ni  Ni421  1  0.72296583  0.50579862  0.32575081  1.0
  Ni  Ni422  1  0.72296583  0.83913196  0.32575081  1.0
  Ni  Ni423  1  0.22296583  0.04746529  0.26325081  1.0
  Ni  Ni424  1  0.22296583  0.38079863  0.26325081  1.0
  Ni  Ni425  1  0.22296583  0.71413196  0.26325081  1.0
  Ni  Ni426  1  0.55629917  0.04746529  0.26325081  1.0
  Ni  Ni427  1  0.55629917  0.38079863  0.26325081  1.0
  Ni  Ni428  1  0.55629917  0.71413196  0.26325081  1.0
  Ni  Ni429  1  0.88963250  0.04746529  0.26325081  1.0
  Ni  Ni430  1  0.88963250  0.38079863  0.26325081  1.0
  Ni  Ni431  1  0.88963250  0.71413196  0.26325081  1.0
