# generated using pymatgen
data_Ni3Pb
_symmetry_space_group_name_H-M   'P 1'
_cell_length_a   16.15812251
_cell_length_b   25.54823493
_cell_length_c   38.08506000
_cell_angle_alpha   116.56505118
_cell_angle_beta   135.00000000
_cell_angle_gamma   71.56505118
_symmetry_Int_Tables_number   1
_chemical_formula_structural   Ni3Pb
_chemical_formula_sum   'Ni216 Pb72'
_cell_volume   9943.43496275
_cell_formula_units_Z   72
loop_
 _symmetry_equiv_pos_site_id
 _symmetry_equiv_pos_as_xyz
  1  'x, y, z'
loop_
 _atom_site_type_symbol
 _atom_site_label
 _atom_site_symmetry_multiplicity
 _atom_site_fract_x
 _atom_site_fract_y
 _atom_site_fract_z
 _atom_site_occupancy
  Ni  Ni0  1  0.16666667  0.08333333  0.06250000  1.0
  Ni  Ni1  1  0.16666667  0.41666667  0.06250000  1.0
  Ni  Ni2  1  0.16666667  0.75000000  0.06250000  1.0
  Ni  Ni3  1  0.50000000  0.08333333  0.06250000  1.0
  Ni  Ni4  1  0.50000000  0.41666667  0.06250000  1.0
  Ni  Ni5  1  0.50000000  0.75000000  0.06250000  1.0
  Ni  Ni6  1  0.83333333  0.08333333  0.06250000  1.0
  Ni  Ni7  1  0.83333333  0.41666667  0.06250000  1.0
  Ni  Ni8  1  0.83333333  0.75000000  0.06250000  1.0
  Ni  Ni9  1  0.16666667  0.25000000  0.01250000  1.0
  Ni  Ni10  1  0.16666667  0.58333333  0.01250000  1.0
  Ni  Ni11  1  0.16666667  0.91666667  0.01250000  1.0
  Ni  Ni12  1  0.50000000  0.25000000  0.01250000  1.0
  Ni  Ni13  1  0.50000000  0.58333333  0.01250000  1.0
  Ni  Ni14  1  0.50000000  0.91666667  0.01250000  1.0
  Ni  Ni15  1  0.83333333  0.25000000  0.01250000  1.0
  Ni  Ni16  1  0.83333333  0.58333333  0.01250000  1.0
  Ni  Ni17  1  0.83333333  0.91666667  0.01250000  1.0
  Ni  Ni18  1  0.00000000  0.08333333  0.06250000  1.0
  Ni  Ni19  1  0.00000000  0.41666667  0.06250000  1.0
  Ni  Ni20  1  0.00000000  0.75000000  0.06250000  1.0
  Ni  Ni21  1  0.33333333  0.08333333  0.06250000  1.0
  Ni  Ni22  1  0.33333333  0.41666667  0.06250000  1.0
  Ni  Ni23  1  0.33333333  0.75000000  0.06250000  1.0
  Ni  Ni24  1  0.66666667  0.08333333  0.06250000  1.0
  Ni  Ni25  1  0.66666667  0.41666667  0.06250000  1.0
  Ni  Ni26  1  0.66666667  0.75000000  0.06250000  1.0
  Ni  Ni27  1  0.00000000  0.25000000  0.01250000  1.0
  Ni  Ni28  1  0.00000000  0.58333333  0.01250000  1.0
  Ni  Ni29  1  0.00000000  0.91666667  0.01250000  1.0
  Ni  Ni30  1  0.33333333  0.25000000  0.01250000  1.0
  Ni  Ni31  1  0.33333333  0.58333333  0.01250000  1.0
  Ni  Ni32  1  0.33333333  0.91666667  0.01250000  1.0
  Ni  Ni33  1  0.66666667  0.25000000  0.01250000  1.0
  Ni  Ni34  1  0.66666667  0.58333333  0.01250000  1.0
  Ni  Ni35  1  0.66666667  0.91666667  0.01250000  1.0
  Ni  Ni36  1  0.16666667  0.00000000  0.08750000  1.0
  Ni  Ni37  1  0.16666667  0.33333333  0.08750000  1.0
  Ni  Ni38  1  0.16666667  0.66666667  0.08750000  1.0
  Ni  Ni39  1  0.50000000  0.00000000  0.08750000  1.0
  Ni  Ni40  1  0.50000000  0.33333333  0.08750000  1.0
  Ni  Ni41  1  0.50000000  0.66666667  0.08750000  1.0
  Ni  Ni42  1  0.83333333  0.00000000  0.08750000  1.0
  Ni  Ni43  1  0.83333333  0.33333333  0.08750000  1.0
  Ni  Ni44  1  0.83333333  0.66666667  0.08750000  1.0
  Ni  Ni45  1  0.16666667  0.16666667  0.03750000  1.0
  Ni  Ni46  1  0.16666667  0.50000000  0.03750000  1.0
  Ni  Ni47  1  0.16666667  0.83333333  0.03750000  1.0
  Ni  Ni48  1  0.50000000  0.16666667  0.03750000  1.0
  Ni  Ni49  1  0.50000000  0.50000000  0.03750000  1.0
  Ni  Ni50  1  0.50000000  0.83333333  0.03750000  1.0
  Ni  Ni51  1  0.83333333  0.16666667  0.03750000  1.0
  Ni  Ni52  1  0.83333333  0.50000000  0.03750000  1.0
  Ni  Ni53  1  0.83333333  0.83333333  0.03750000  1.0
  Pb  Pb54  1  0.00000000  0.00000000  0.08750000  1.0
  Pb  Pb55  1  0.00000000  0.33333333  0.08750000  1.0
  Pb  Pb56  1  0.00000000  0.66666667  0.08750000  1.0
  Pb  Pb57  1  0.33333333  0.00000000  0.08750000  1.0
  Pb  Pb58  1  0.33333333  0.33333333  0.08750000  1.0
  Pb  Pb59  1  0.33333333  0.66666667  0.08750000  1.0
  Pb  Pb60  1  0.66666667  0.00000000  0.08750000  1.0
  Pb  Pb61  1  0.66666667  0.33333333  0.08750000  1.0
  Pb  Pb62  1  0.66666667  0.66666667  0.08750000  1.0
  Pb  Pb63  1  0.00000000  0.16666667  0.03750000  1.0
  Pb  Pb64  1  0.00000000  0.50000000  0.03750000  1.0
  Pb  Pb65  1  0.00000000  0.83333333  0.03750000  1.0
  Pb  Pb66  1  0.33333333  0.16666667  0.03750000  1.0
  Pb  Pb67  1  0.33333333  0.50000000  0.03750000  1.0
  Pb  Pb68  1  0.33333333  0.83333333  0.03750000  1.0
  Pb  Pb69  1  0.66666667  0.16666667  0.03750000  1.0
  Pb  Pb70  1  0.66666667  0.50000000  0.03750000  1.0
  Pb  Pb71  1  0.66666667  0.83333333  0.03750000  1.0
  Ni  Ni72  1  0.16666667  0.08333333  0.16250000  1.0
  Ni  Ni73  1  0.16666667  0.41666667  0.16250000  1.0
  Ni  Ni74  1  0.16666667  0.75000000  0.16250000  1.0
  Ni  Ni75  1  0.50000000  0.08333333  0.16250000  1.0
  Ni  Ni76  1  0.50000000  0.41666667  0.16250000  1.0
  Ni  Ni77  1  0.50000000  0.75000000  0.16250000  1.0
  Ni  Ni78  1  0.83333333  0.08333333  0.16250000  1.0
  Ni  Ni79  1  0.83333333  0.41666667  0.16250000  1.0
  Ni  Ni80  1  0.83333333  0.75000000  0.16250000  1.0
  Ni  Ni81  1  0.16666667  0.25000000  0.11250000  1.0
  Ni  Ni82  1  0.16666667  0.58333333  0.11250000  1.0
  Ni  Ni83  1  0.16666667  0.91666667  0.11250000  1.0
  Ni  Ni84  1  0.50000000  0.25000000  0.11250000  1.0
  Ni  Ni85  1  0.50000000  0.58333333  0.11250000  1.0
  Ni  Ni86  1  0.50000000  0.91666667  0.11250000  1.0
  Ni  Ni87  1  0.83333333  0.25000000  0.11250000  1.0
  Ni  Ni88  1  0.83333333  0.58333333  0.11250000  1.0
  Ni  Ni89  1  0.83333333  0.91666667  0.11250000  1.0
  Ni  Ni90  1  0.00000000  0.08333333  0.16250000  1.0
  Ni  Ni91  1  0.00000000  0.41666667  0.16250000  1.0
  Ni  Ni92  1  0.00000000  0.75000000  0.16250000  1.0
  Ni  Ni93  1  0.33333333  0.08333333  0.16250000  1.0
  Ni  Ni94  1  0.33333333  0.41666667  0.16250000  1.0
  Ni  Ni95  1  0.33333333  0.75000000  0.16250000  1.0
  Ni  Ni96  1  0.66666667  0.08333333  0.16250000  1.0
  Ni  Ni97  1  0.66666667  0.41666667  0.16250000  1.0
  Ni  Ni98  1  0.66666667  0.75000000  0.16250000  1.0
  Ni  Ni99  1  0.00000000  0.25000000  0.11250000  1.0
  Ni  Ni100  1  0.00000000  0.58333333  0.11250000  1.0
  Ni  Ni101  1  0.00000000  0.91666667  0.11250000  1.0
  Ni  Ni102  1  0.33333333  0.25000000  0.11250000  1.0
  Ni  Ni103  1  0.33333333  0.58333333  0.11250000  1.0
  Ni  Ni104  1  0.33333333  0.91666667  0.11250000  1.0
  Ni  Ni105  1  0.66666667  0.25000000  0.11250000  1.0
  Ni  Ni106  1  0.66666667  0.58333333  0.11250000  1.0
  Ni  Ni107  1  0.66666667  0.91666667  0.11250000  1.0
  Ni  Ni108  1  0.16666667  0.00000000  0.18750000  1.0
  Ni  Ni109  1  0.16666667  0.33333333  0.18750000  1.0
  Ni  Ni110  1  0.16666667  0.66666667  0.18750000  1.0
  Ni  Ni111  1  0.50000000  0.00000000  0.18750000  1.0
  Ni  Ni112  1  0.50000000  0.33333333  0.18750000  1.0
  Ni  Ni113  1  0.50000000  0.66666667  0.18750000  1.0
  Ni  Ni114  1  0.83333333  0.00000000  0.18750000  1.0
  Ni  Ni115  1  0.83333333  0.33333333  0.18750000  1.0
  Ni  Ni116  1  0.83333333  0.66666667  0.18750000  1.0
  Ni  Ni117  1  0.16666667  0.16666667  0.13750000  1.0
  Ni  Ni118  1  0.16666667  0.50000000  0.13750000  1.0
  Ni  Ni119  1  0.16666667  0.83333333  0.13750000  1.0
  Ni  Ni120  1  0.50000000  0.16666667  0.13750000  1.0
  Ni  Ni121  1  0.50000000  0.50000000  0.13750000  1.0
  Ni  Ni122  1  0.50000000  0.83333333  0.13750000  1.0
  Ni  Ni123  1  0.83333333  0.16666667  0.13750000  1.0
  Ni  Ni124  1  0.83333333  0.50000000  0.13750000  1.0
  Ni  Ni125  1  0.83333333  0.83333333  0.13750000  1.0
  Pb  Pb126  1  0.00000000  0.00000000  0.18750000  1.0
  Pb  Pb127  1  0.00000000  0.33333333  0.18750000  1.0
  Pb  Pb128  1  0.00000000  0.66666667  0.18750000  1.0
  Pb  Pb129  1  0.33333333  0.00000000  0.18750000  1.0
  Pb  Pb130  1  0.33333333  0.33333333  0.18750000  1.0
  Pb  Pb131  1  0.33333333  0.66666667  0.18750000  1.0
  Pb  Pb132  1  0.66666667  0.00000000  0.18750000  1.0
  Pb  Pb133  1  0.66666667  0.33333333  0.18750000  1.0
  Pb  Pb134  1  0.66666667  0.66666667  0.18750000  1.0
  Pb  Pb135  1  0.00000000  0.16666667  0.13750000  1.0
  Pb  Pb136  1  0.00000000  0.50000000  0.13750000  1.0
  Pb  Pb137  1  0.00000000  0.83333333  0.13750000  1.0
  Pb  Pb138  1  0.33333333  0.16666667  0.13750000  1.0
  Pb  Pb139  1  0.33333333  0.50000000  0.13750000  1.0
  Pb  Pb140  1  0.33333333  0.83333333  0.13750000  1.0
  Pb  Pb141  1  0.66666667  0.16666667  0.13750000  1.0
  Pb  Pb142  1  0.66666667  0.50000000  0.13750000  1.0
  Pb  Pb143  1  0.66666667  0.83333333  0.13750000  1.0
  Ni  Ni144  1  0.16666667  0.08333333  0.26250000  1.0
  Ni  Ni145  1  0.16666667  0.41666667  0.26250000  1.0
  Ni  Ni146  1  0.16666667  0.75000000  0.26250000  1.0
  Ni  Ni147  1  0.50000000  0.08333333  0.26250000  1.0
  Ni  Ni148  1  0.50000000  0.41666667  0.26250000  1.0
  Ni  Ni149  1  0.50000000  0.75000000  0.26250000  1.0
  Ni  Ni150  1  0.83333333  0.08333333  0.26250000  1.0
  Ni  Ni151  1  0.83333333  0.41666667  0.26250000  1.0
  Ni  Ni152  1  0.83333333  0.75000000  0.26250000  1.0
  Ni  Ni153  1  0.16666667  0.25000000  0.21250000  1.0
  Ni  Ni154  1  0.16666667  0.58333333  0.21250000  1.0
  Ni  Ni155  1  0.16666667  0.91666667  0.21250000  1.0
  Ni  Ni156  1  0.50000000  0.25000000  0.21250000  1.0
  Ni  Ni157  1  0.50000000  0.58333333  0.21250000  1.0
  Ni  Ni158  1  0.50000000  0.91666667  0.21250000  1.0
  Ni  Ni159  1  0.83333333  0.25000000  0.21250000  1.0
  Ni  Ni160  1  0.83333333  0.58333333  0.21250000  1.0
  Ni  Ni161  1  0.83333333  0.91666667  0.21250000  1.0
  Ni  Ni162  1  0.00000000  0.08333333  0.26250000  1.0
  Ni  Ni163  1  0.00000000  0.41666667  0.26250000  1.0
  Ni  Ni164  1  0.00000000  0.75000000  0.26250000  1.0
  Ni  Ni165  1  0.33333333  0.08333333  0.26250000  1.0
  Ni  Ni166  1  0.33333333  0.41666667  0.26250000  1.0
  Ni  Ni167  1  0.33333333  0.75000000  0.26250000  1.0
  Ni  Ni168  1  0.66666667  0.08333333  0.26250000  1.0
  Ni  Ni169  1  0.66666667  0.41666667  0.26250000  1.0
  Ni  Ni170  1  0.66666667  0.75000000  0.26250000  1.0
  Ni  Ni171  1  0.00000000  0.25000000  0.21250000  1.0
  Ni  Ni172  1  0.00000000  0.58333333  0.21250000  1.0
  Ni  Ni173  1  0.00000000  0.91666667  0.21250000  1.0
  Ni  Ni174  1  0.33333333  0.25000000  0.21250000  1.0
  Ni  Ni175  1  0.33333333  0.58333333  0.21250000  1.0
  Ni  Ni176  1  0.33333333  0.91666667  0.21250000  1.0
  Ni  Ni177  1  0.66666667  0.25000000  0.21250000  1.0
  Ni  Ni178  1  0.66666667  0.58333333  0.21250000  1.0
  Ni  Ni179  1  0.66666667  0.91666667  0.21250000  1.0
  Ni  Ni180  1  0.16666667  0.00000000  0.28750000  1.0
  Ni  Ni181  1  0.16666667  0.33333333  0.28750000  1.0
  Ni  Ni182  1  0.16666667  0.66666667  0.28750000  1.0
  Ni  Ni183  1  0.50000000  0.00000000  0.28750000  1.0
  Ni  Ni184  1  0.50000000  0.33333333  0.28750000  1.0
  Ni  Ni185  1  0.50000000  0.66666667  0.28750000  1.0
  Ni  Ni186  1  0.83333333  0.00000000  0.28750000  1.0
  Ni  Ni187  1  0.83333333  0.33333333  0.28750000  1.0
  Ni  Ni188  1  0.83333333  0.66666667  0.28750000  1.0
  Ni  Ni189  1  0.16666667  0.16666667  0.23750000  1.0
  Ni  Ni190  1  0.16666667  0.50000000  0.23750000  1.0
  Ni  Ni191  1  0.16666667  0.83333333  0.23750000  1.0
  Ni  Ni192  1  0.50000000  0.16666667  0.23750000  1.0
  Ni  Ni193  1  0.50000000  0.50000000  0.23750000  1.0
  Ni  Ni194  1  0.50000000  0.83333333  0.23750000  1.0
  Ni  Ni195  1  0.83333333  0.16666667  0.23750000  1.0
  Ni  Ni196  1  0.83333333  0.50000000  0.23750000  1.0
  Ni  Ni197  1  0.83333333  0.83333333  0.23750000  1.0
  Pb  Pb198  1  0.00000000  0.00000000  0.28750000  1.0
  Pb  Pb199  1  0.00000000  0.33333333  0.28750000  1.0
  Pb  Pb200  1  0.00000000  0.66666667  0.28750000  1.0
  Pb  Pb201  1  0.33333333  0.00000000  0.28750000  1.0
  Pb  Pb202  1  0.33333333  0.33333333  0.28750000  1.0
  Pb  Pb203  1  0.33333333  0.66666667  0.28750000  1.0
  Pb  Pb204  1  0.66666667  0.00000000  0.28750000  1.0
  Pb  Pb205  1  0.66666667  0.33333333  0.28750000  1.0
  Pb  Pb206  1  0.66666667  0.66666667  0.28750000  1.0
  Pb  Pb207  1  0.00000000  0.16666667  0.23750000  1.0
  Pb  Pb208  1  0.00000000  0.50000000  0.23750000  1.0
  Pb  Pb209  1  0.00000000  0.83333333  0.23750000  1.0
  Pb  Pb210  1  0.33333333  0.16666667  0.23750000  1.0
  Pb  Pb211  1  0.33333333  0.50000000  0.23750000  1.0
  Pb  Pb212  1  0.33333333  0.83333333  0.23750000  1.0
  Pb  Pb213  1  0.66666667  0.16666667  0.23750000  1.0
  Pb  Pb214  1  0.66666667  0.50000000  0.23750000  1.0
  Pb  Pb215  1  0.66666667  0.83333333  0.23750000  1.0
  Ni  Ni216  1  0.16666667  0.08333333  0.36250000  1.0
  Ni  Ni217  1  0.16666667  0.41666667  0.36250000  1.0
  Ni  Ni218  1  0.16666667  0.75000000  0.36250000  1.0
  Ni  Ni219  1  0.50000000  0.08333333  0.36250000  1.0
  Ni  Ni220  1  0.50000000  0.41666667  0.36250000  1.0
  Ni  Ni221  1  0.50000000  0.75000000  0.36250000  1.0
  Ni  Ni222  1  0.83333333  0.08333333  0.36250000  1.0
  Ni  Ni223  1  0.83333333  0.41666667  0.36250000  1.0
  Ni  Ni224  1  0.83333333  0.75000000  0.36250000  1.0
  Ni  Ni225  1  0.16666667  0.25000000  0.31250000  1.0
  Ni  Ni226  1  0.16666667  0.58333333  0.31250000  1.0
  Ni  Ni227  1  0.16666667  0.91666667  0.31250000  1.0
  Ni  Ni228  1  0.50000000  0.25000000  0.31250000  1.0
  Ni  Ni229  1  0.50000000  0.58333333  0.31250000  1.0
  Ni  Ni230  1  0.50000000  0.91666667  0.31250000  1.0
  Ni  Ni231  1  0.83333333  0.25000000  0.31250000  1.0
  Ni  Ni232  1  0.83333333  0.58333333  0.31250000  1.0
  Ni  Ni233  1  0.83333333  0.91666667  0.31250000  1.0
  Ni  Ni234  1  0.00000000  0.08333333  0.36250000  1.0
  Ni  Ni235  1  0.00000000  0.41666667  0.36250000  1.0
  Ni  Ni236  1  0.00000000  0.75000000  0.36250000  1.0
  Ni  Ni237  1  0.33333333  0.08333333  0.36250000  1.0
  Ni  Ni238  1  0.33333333  0.41666667  0.36250000  1.0
  Ni  Ni239  1  0.33333333  0.75000000  0.36250000  1.0
  Ni  Ni240  1  0.66666667  0.08333333  0.36250000  1.0
  Ni  Ni241  1  0.66666667  0.41666667  0.36250000  1.0
  Ni  Ni242  1  0.66666667  0.75000000  0.36250000  1.0
  Ni  Ni243  1  0.00000000  0.25000000  0.31250000  1.0
  Ni  Ni244  1  0.00000000  0.58333333  0.31250000  1.0
  Ni  Ni245  1  0.00000000  0.91666667  0.31250000  1.0
  Ni  Ni246  1  0.33333333  0.25000000  0.31250000  1.0
  Ni  Ni247  1  0.33333333  0.58333333  0.31250000  1.0
  Ni  Ni248  1  0.33333333  0.91666667  0.31250000  1.0
  Ni  Ni249  1  0.66666667  0.25000000  0.31250000  1.0
  Ni  Ni250  1  0.66666667  0.58333333  0.31250000  1.0
  Ni  Ni251  1  0.66666667  0.91666667  0.31250000  1.0
  Ni  Ni252  1  0.16666667  0.00000000  0.38750000  1.0
  Ni  Ni253  1  0.16666667  0.33333333  0.38750000  1.0
  Ni  Ni254  1  0.16666667  0.66666667  0.38750000  1.0
  Ni  Ni255  1  0.50000000  0.00000000  0.38750000  1.0
  Ni  Ni256  1  0.50000000  0.33333333  0.38750000  1.0
  Ni  Ni257  1  0.50000000  0.66666667  0.38750000  1.0
  Ni  Ni258  1  0.83333333  0.00000000  0.38750000  1.0
  Ni  Ni259  1  0.83333333  0.33333333  0.38750000  1.0
  Ni  Ni260  1  0.83333333  0.66666667  0.38750000  1.0
  Ni  Ni261  1  0.16666667  0.16666667  0.33750000  1.0
  Ni  Ni262  1  0.16666667  0.50000000  0.33750000  1.0
  Ni  Ni263  1  0.16666667  0.83333333  0.33750000  1.0
  Ni  Ni264  1  0.50000000  0.16666667  0.33750000  1.0
  Ni  Ni265  1  0.50000000  0.50000000  0.33750000  1.0
  Ni  Ni266  1  0.50000000  0.83333333  0.33750000  1.0
  Ni  Ni267  1  0.83333333  0.16666667  0.33750000  1.0
  Ni  Ni268  1  0.83333333  0.50000000  0.33750000  1.0
  Ni  Ni269  1  0.83333333  0.83333333  0.33750000  1.0
  Pb  Pb270  1  0.00000000  0.00000000  0.38750000  1.0
  Pb  Pb271  1  0.00000000  0.33333333  0.38750000  1.0
  Pb  Pb272  1  0.00000000  0.66666667  0.38750000  1.0
  Pb  Pb273  1  0.33333333  0.00000000  0.38750000  1.0
  Pb  Pb274  1  0.33333333  0.33333333  0.38750000  1.0
  Pb  Pb275  1  0.33333333  0.66666667  0.38750000  1.0
  Pb  Pb276  1  0.66666667  0.00000000  0.38750000  1.0
  Pb  Pb277  1  0.66666667  0.33333333  0.38750000  1.0
  Pb  Pb278  1  0.66666667  0.66666667  0.38750000  1.0
  Pb  Pb279  1  0.00000000  0.16666667  0.33750000  1.0
  Pb  Pb280  1  0.00000000  0.50000000  0.33750000  1.0
  Pb  Pb281  1  0.00000000  0.83333333  0.33750000  1.0
  Pb  Pb282  1  0.33333333  0.16666667  0.33750000  1.0
  Pb  Pb283  1  0.33333333  0.50000000  0.33750000  1.0
  Pb  Pb284  1  0.33333333  0.83333333  0.33750000  1.0
  Pb  Pb285  1  0.66666667  0.16666667  0.33750000  1.0
  Pb  Pb286  1  0.66666667  0.50000000  0.33750000  1.0
  Pb  Pb287  1  0.66666667  0.83333333  0.33750000  1.0
