# generated using pymatgen
data_Ni3Pb
_symmetry_space_group_name_H-M   'P 1'
_cell_length_a   11.42551800
_cell_length_b   25.54823493
_cell_length_c   30.46804800
_cell_angle_alpha   116.56505118
_cell_angle_beta   90.00000000
_cell_angle_gamma   90.00000000
_symmetry_Int_Tables_number   1
_chemical_formula_structural   Ni3Pb
_chemical_formula_sum   'Ni162 Pb54'
_cell_volume   7954.74797020
_cell_formula_units_Z   54
loop_
 _symmetry_equiv_pos_site_id
 _symmetry_equiv_pos_as_xyz
  1  'x, y, z'
loop_
 _atom_site_type_symbol
 _atom_site_label
 _atom_site_symmetry_multiplicity
 _atom_site_fract_x
 _atom_site_fract_y
 _atom_site_fract_z
 _atom_site_occupancy
  Ni  Ni0  1  0.16666667  0.08333333  0.01562500  1.0
  Ni  Ni1  1  0.16666667  0.41666667  0.01562500  1.0
  Ni  Ni2  1  0.16666667  0.75000000  0.01562500  1.0
  Ni  Ni3  1  0.50000000  0.08333333  0.01562500  1.0
  Ni  Ni4  1  0.50000000  0.41666667  0.01562500  1.0
  Ni  Ni5  1  0.50000000  0.75000000  0.01562500  1.0
  Ni  Ni6  1  0.83333333  0.08333333  0.01562500  1.0
  Ni  Ni7  1  0.83333333  0.41666667  0.01562500  1.0
  Ni  Ni8  1  0.83333333  0.75000000  0.01562500  1.0
  Ni  Ni9  1  0.16666667  0.25000000  0.07812500  1.0
  Ni  Ni10  1  0.16666667  0.58333333  0.07812500  1.0
  Ni  Ni11  1  0.16666667  0.91666667  0.07812500  1.0
  Ni  Ni12  1  0.50000000  0.25000000  0.07812500  1.0
  Ni  Ni13  1  0.50000000  0.58333333  0.07812500  1.0
  Ni  Ni14  1  0.50000000  0.91666667  0.07812500  1.0
  Ni  Ni15  1  0.83333333  0.25000000  0.07812500  1.0
  Ni  Ni16  1  0.83333333  0.58333333  0.07812500  1.0
  Ni  Ni17  1  0.83333333  0.91666667  0.07812500  1.0
  Ni  Ni18  1  0.16666667  0.16666667  0.10937500  1.0
  Ni  Ni19  1  0.16666667  0.50000000  0.10937500  1.0
  Ni  Ni20  1  0.16666667  0.83333333  0.10937500  1.0
  Ni  Ni21  1  0.50000000  0.16666667  0.10937500  1.0
  Ni  Ni22  1  0.50000000  0.50000000  0.10937500  1.0
  Ni  Ni23  1  0.50000000  0.83333333  0.10937500  1.0
  Ni  Ni24  1  0.83333333  0.16666667  0.10937500  1.0
  Ni  Ni25  1  0.83333333  0.50000000  0.10937500  1.0
  Ni  Ni26  1  0.83333333  0.83333333  0.10937500  1.0
  Ni  Ni27  1  0.16666667  0.00000000  0.04687500  1.0
  Ni  Ni28  1  0.16666667  0.33333333  0.04687500  1.0
  Ni  Ni29  1  0.16666667  0.66666667  0.04687500  1.0
  Ni  Ni30  1  0.50000000  0.00000000  0.04687500  1.0
  Ni  Ni31  1  0.50000000  0.33333333  0.04687500  1.0
  Ni  Ni32  1  0.50000000  0.66666667  0.04687500  1.0
  Ni  Ni33  1  0.83333333  0.00000000  0.04687500  1.0
  Ni  Ni34  1  0.83333333  0.33333333  0.04687500  1.0
  Ni  Ni35  1  0.83333333  0.66666667  0.04687500  1.0
  Ni  Ni36  1  0.00000000  0.08333333  0.07812500  1.0
  Ni  Ni37  1  0.00000000  0.41666667  0.07812500  1.0
  Ni  Ni38  1  0.00000000  0.75000000  0.07812500  1.0
  Ni  Ni39  1  0.33333333  0.08333333  0.07812500  1.0
  Ni  Ni40  1  0.33333333  0.41666667  0.07812500  1.0
  Ni  Ni41  1  0.33333333  0.75000000  0.07812500  1.0
  Ni  Ni42  1  0.66666667  0.08333333  0.07812500  1.0
  Ni  Ni43  1  0.66666667  0.41666667  0.07812500  1.0
  Ni  Ni44  1  0.66666667  0.75000000  0.07812500  1.0
  Ni  Ni45  1  0.00000000  0.25000000  0.01562500  1.0
  Ni  Ni46  1  0.00000000  0.58333333  0.01562500  1.0
  Ni  Ni47  1  0.00000000  0.91666667  0.01562500  1.0
  Ni  Ni48  1  0.33333333  0.25000000  0.01562500  1.0
  Ni  Ni49  1  0.33333333  0.58333333  0.01562500  1.0
  Ni  Ni50  1  0.33333333  0.91666667  0.01562500  1.0
  Ni  Ni51  1  0.66666667  0.25000000  0.01562500  1.0
  Ni  Ni52  1  0.66666667  0.58333333  0.01562500  1.0
  Ni  Ni53  1  0.66666667  0.91666667  0.01562500  1.0
  Pb  Pb54  1  0.00000000  0.16666667  0.04687500  1.0
  Pb  Pb55  1  0.00000000  0.50000000  0.04687500  1.0
  Pb  Pb56  1  0.00000000  0.83333333  0.04687500  1.0
  Pb  Pb57  1  0.33333333  0.16666667  0.04687500  1.0
  Pb  Pb58  1  0.33333333  0.50000000  0.04687500  1.0
  Pb  Pb59  1  0.33333333  0.83333333  0.04687500  1.0
  Pb  Pb60  1  0.66666667  0.16666667  0.04687500  1.0
  Pb  Pb61  1  0.66666667  0.50000000  0.04687500  1.0
  Pb  Pb62  1  0.66666667  0.83333333  0.04687500  1.0
  Pb  Pb63  1  0.00000000  0.00000000  0.10937500  1.0
  Pb  Pb64  1  0.00000000  0.33333333  0.10937500  1.0
  Pb  Pb65  1  0.00000000  0.66666667  0.10937500  1.0
  Pb  Pb66  1  0.33333333  0.00000000  0.10937500  1.0
  Pb  Pb67  1  0.33333333  0.33333333  0.10937500  1.0
  Pb  Pb68  1  0.33333333  0.66666667  0.10937500  1.0
  Pb  Pb69  1  0.66666667  0.00000000  0.10937500  1.0
  Pb  Pb70  1  0.66666667  0.33333333  0.10937500  1.0
  Pb  Pb71  1  0.66666667  0.66666667  0.10937500  1.0
  Ni  Ni72  1  0.16666667  0.08333333  0.14062500  1.0
  Ni  Ni73  1  0.16666667  0.41666667  0.14062500  1.0
  Ni  Ni74  1  0.16666667  0.75000000  0.14062500  1.0
  Ni  Ni75  1  0.50000000  0.08333333  0.14062500  1.0
  Ni  Ni76  1  0.50000000  0.41666667  0.14062500  1.0
  Ni  Ni77  1  0.50000000  0.75000000  0.14062500  1.0
  Ni  Ni78  1  0.83333333  0.08333333  0.14062500  1.0
  Ni  Ni79  1  0.83333333  0.41666667  0.14062500  1.0
  Ni  Ni80  1  0.83333333  0.75000000  0.14062500  1.0
  Ni  Ni81  1  0.16666667  0.25000000  0.20312500  1.0
  Ni  Ni82  1  0.16666667  0.58333333  0.20312500  1.0
  Ni  Ni83  1  0.16666667  0.91666667  0.20312500  1.0
  Ni  Ni84  1  0.50000000  0.25000000  0.20312500  1.0
  Ni  Ni85  1  0.50000000  0.58333333  0.20312500  1.0
  Ni  Ni86  1  0.50000000  0.91666667  0.20312500  1.0
  Ni  Ni87  1  0.83333333  0.25000000  0.20312500  1.0
  Ni  Ni88  1  0.83333333  0.58333333  0.20312500  1.0
  Ni  Ni89  1  0.83333333  0.91666667  0.20312500  1.0
  Ni  Ni90  1  0.16666667  0.16666667  0.23437500  1.0
  Ni  Ni91  1  0.16666667  0.50000000  0.23437500  1.0
  Ni  Ni92  1  0.16666667  0.83333333  0.23437500  1.0
  Ni  Ni93  1  0.50000000  0.16666667  0.23437500  1.0
  Ni  Ni94  1  0.50000000  0.50000000  0.23437500  1.0
  Ni  Ni95  1  0.50000000  0.83333333  0.23437500  1.0
  Ni  Ni96  1  0.83333333  0.16666667  0.23437500  1.0
  Ni  Ni97  1  0.83333333  0.50000000  0.23437500  1.0
  Ni  Ni98  1  0.83333333  0.83333333  0.23437500  1.0
  Ni  Ni99  1  0.16666667  0.00000000  0.17187500  1.0
  Ni  Ni100  1  0.16666667  0.33333333  0.17187500  1.0
  Ni  Ni101  1  0.16666667  0.66666667  0.17187500  1.0
  Ni  Ni102  1  0.50000000  0.00000000  0.17187500  1.0
  Ni  Ni103  1  0.50000000  0.33333333  0.17187500  1.0
  Ni  Ni104  1  0.50000000  0.66666667  0.17187500  1.0
  Ni  Ni105  1  0.83333333  0.00000000  0.17187500  1.0
  Ni  Ni106  1  0.83333333  0.33333333  0.17187500  1.0
  Ni  Ni107  1  0.83333333  0.66666667  0.17187500  1.0
  Ni  Ni108  1  0.00000000  0.08333333  0.20312500  1.0
  Ni  Ni109  1  0.00000000  0.41666667  0.20312500  1.0
  Ni  Ni110  1  0.00000000  0.75000000  0.20312500  1.0
  Ni  Ni111  1  0.33333333  0.08333333  0.20312500  1.0
  Ni  Ni112  1  0.33333333  0.41666667  0.20312500  1.0
  Ni  Ni113  1  0.33333333  0.75000000  0.20312500  1.0
  Ni  Ni114  1  0.66666667  0.08333333  0.20312500  1.0
  Ni  Ni115  1  0.66666667  0.41666667  0.20312500  1.0
  Ni  Ni116  1  0.66666667  0.75000000  0.20312500  1.0
  Ni  Ni117  1  0.00000000  0.25000000  0.14062500  1.0
  Ni  Ni118  1  0.00000000  0.58333333  0.14062500  1.0
  Ni  Ni119  1  0.00000000  0.91666667  0.14062500  1.0
  Ni  Ni120  1  0.33333333  0.25000000  0.14062500  1.0
  Ni  Ni121  1  0.33333333  0.58333333  0.14062500  1.0
  Ni  Ni122  1  0.33333333  0.91666667  0.14062500  1.0
  Ni  Ni123  1  0.66666667  0.25000000  0.14062500  1.0
  Ni  Ni124  1  0.66666667  0.58333333  0.14062500  1.0
  Ni  Ni125  1  0.66666667  0.91666667  0.14062500  1.0
  Pb  Pb126  1  0.00000000  0.16666667  0.17187500  1.0
  Pb  Pb127  1  0.00000000  0.50000000  0.17187500  1.0
  Pb  Pb128  1  0.00000000  0.83333333  0.17187500  1.0
  Pb  Pb129  1  0.33333333  0.16666667  0.17187500  1.0
  Pb  Pb130  1  0.33333333  0.50000000  0.17187500  1.0
  Pb  Pb131  1  0.33333333  0.83333333  0.17187500  1.0
  Pb  Pb132  1  0.66666667  0.16666667  0.17187500  1.0
  Pb  Pb133  1  0.66666667  0.50000000  0.17187500  1.0
  Pb  Pb134  1  0.66666667  0.83333333  0.17187500  1.0
  Pb  Pb135  1  0.00000000  0.00000000  0.23437500  1.0
  Pb  Pb136  1  0.00000000  0.33333333  0.23437500  1.0
  Pb  Pb137  1  0.00000000  0.66666667  0.23437500  1.0
  Pb  Pb138  1  0.33333333  0.00000000  0.23437500  1.0
  Pb  Pb139  1  0.33333333  0.33333333  0.23437500  1.0
  Pb  Pb140  1  0.33333333  0.66666667  0.23437500  1.0
  Pb  Pb141  1  0.66666667  0.00000000  0.23437500  1.0
  Pb  Pb142  1  0.66666667  0.33333333  0.23437500  1.0
  Pb  Pb143  1  0.66666667  0.66666667  0.23437500  1.0
  Ni  Ni144  1  0.16666667  0.08333333  0.26562500  1.0
  Ni  Ni145  1  0.16666667  0.41666667  0.26562500  1.0
  Ni  Ni146  1  0.16666667  0.75000000  0.26562500  1.0
  Ni  Ni147  1  0.50000000  0.08333333  0.26562500  1.0
  Ni  Ni148  1  0.50000000  0.41666667  0.26562500  1.0
  Ni  Ni149  1  0.50000000  0.75000000  0.26562500  1.0
  Ni  Ni150  1  0.83333333  0.08333333  0.26562500  1.0
  Ni  Ni151  1  0.83333333  0.41666667  0.26562500  1.0
  Ni  Ni152  1  0.83333333  0.75000000  0.26562500  1.0
  Ni  Ni153  1  0.16666667  0.25000000  0.32812500  1.0
  Ni  Ni154  1  0.16666667  0.58333333  0.32812500  1.0
  Ni  Ni155  1  0.16666667  0.91666667  0.32812500  1.0
  Ni  Ni156  1  0.50000000  0.25000000  0.32812500  1.0
  Ni  Ni157  1  0.50000000  0.58333333  0.32812500  1.0
  Ni  Ni158  1  0.50000000  0.91666667  0.32812500  1.0
  Ni  Ni159  1  0.83333333  0.25000000  0.32812500  1.0
  Ni  Ni160  1  0.83333333  0.58333333  0.32812500  1.0
  Ni  Ni161  1  0.83333333  0.91666667  0.32812500  1.0
  Ni  Ni162  1  0.16666667  0.16666667  0.35937500  1.0
  Ni  Ni163  1  0.16666667  0.50000000  0.35937500  1.0
  Ni  Ni164  1  0.16666667  0.83333333  0.35937500  1.0
  Ni  Ni165  1  0.50000000  0.16666667  0.35937500  1.0
  Ni  Ni166  1  0.50000000  0.50000000  0.35937500  1.0
  Ni  Ni167  1  0.50000000  0.83333333  0.35937500  1.0
  Ni  Ni168  1  0.83333333  0.16666667  0.35937500  1.0
  Ni  Ni169  1  0.83333333  0.50000000  0.35937500  1.0
  Ni  Ni170  1  0.83333333  0.83333333  0.35937500  1.0
  Ni  Ni171  1  0.16666667  0.00000000  0.29687500  1.0
  Ni  Ni172  1  0.16666667  0.33333333  0.29687500  1.0
  Ni  Ni173  1  0.16666667  0.66666667  0.29687500  1.0
  Ni  Ni174  1  0.50000000  0.00000000  0.29687500  1.0
  Ni  Ni175  1  0.50000000  0.33333333  0.29687500  1.0
  Ni  Ni176  1  0.50000000  0.66666667  0.29687500  1.0
  Ni  Ni177  1  0.83333333  0.00000000  0.29687500  1.0
  Ni  Ni178  1  0.83333333  0.33333333  0.29687500  1.0
  Ni  Ni179  1  0.83333333  0.66666667  0.29687500  1.0
  Ni  Ni180  1  0.00000000  0.08333333  0.32812500  1.0
  Ni  Ni181  1  0.00000000  0.41666667  0.32812500  1.0
  Ni  Ni182  1  0.00000000  0.75000000  0.32812500  1.0
  Ni  Ni183  1  0.33333333  0.08333333  0.32812500  1.0
  Ni  Ni184  1  0.33333333  0.41666667  0.32812500  1.0
  Ni  Ni185  1  0.33333333  0.75000000  0.32812500  1.0
  Ni  Ni186  1  0.66666667  0.08333333  0.32812500  1.0
  Ni  Ni187  1  0.66666667  0.41666667  0.32812500  1.0
  Ni  Ni188  1  0.66666667  0.75000000  0.32812500  1.0
  Ni  Ni189  1  0.00000000  0.25000000  0.26562500  1.0
  Ni  Ni190  1  0.00000000  0.58333333  0.26562500  1.0
  Ni  Ni191  1  0.00000000  0.91666667  0.26562500  1.0
  Ni  Ni192  1  0.33333333  0.25000000  0.26562500  1.0
  Ni  Ni193  1  0.33333333  0.58333333  0.26562500  1.0
  Ni  Ni194  1  0.33333333  0.91666667  0.26562500  1.0
  Ni  Ni195  1  0.66666667  0.25000000  0.26562500  1.0
  Ni  Ni196  1  0.66666667  0.58333333  0.26562500  1.0
  Ni  Ni197  1  0.66666667  0.91666667  0.26562500  1.0
  Pb  Pb198  1  0.00000000  0.16666667  0.29687500  1.0
  Pb  Pb199  1  0.00000000  0.50000000  0.29687500  1.0
  Pb  Pb200  1  0.00000000  0.83333333  0.29687500  1.0
  Pb  Pb201  1  0.33333333  0.16666667  0.29687500  1.0
  Pb  Pb202  1  0.33333333  0.50000000  0.29687500  1.0
  Pb  Pb203  1  0.33333333  0.83333333  0.29687500  1.0
  Pb  Pb204  1  0.66666667  0.16666667  0.29687500  1.0
  Pb  Pb205  1  0.66666667  0.50000000  0.29687500  1.0
  Pb  Pb206  1  0.66666667  0.83333333  0.29687500  1.0
  Pb  Pb207  1  0.00000000  0.00000000  0.35937500  1.0
  Pb  Pb208  1  0.00000000  0.33333333  0.35937500  1.0
  Pb  Pb209  1  0.00000000  0.66666667  0.35937500  1.0
  Pb  Pb210  1  0.33333333  0.00000000  0.35937500  1.0
  Pb  Pb211  1  0.33333333  0.33333333  0.35937500  1.0
  Pb  Pb212  1  0.33333333  0.66666667  0.35937500  1.0
  Pb  Pb213  1  0.66666667  0.00000000  0.35937500  1.0
  Pb  Pb214  1  0.66666667  0.33333333  0.35937500  1.0
  Pb  Pb215  1  0.66666667  0.66666667  0.35937500  1.0
