# generated using pymatgen
data_Ni3Sn4
_symmetry_space_group_name_H-M   'P 1'
_cell_length_a   21.78041209
_cell_length_b   41.01632038
_cell_length_c   26.72971869
_cell_angle_alpha   102.29023698
_cell_angle_beta   93.45247473
_cell_angle_gamma   97.85263440
_symmetry_Int_Tables_number   1
_chemical_formula_structural   Ni3Sn4
_chemical_formula_sum   'Ni216 Sn288'
_cell_volume   23014.42083770
_cell_formula_units_Z   72
loop_
 _symmetry_equiv_pos_site_id
 _symmetry_equiv_pos_as_xyz
  1  'x, y, z'
loop_
 _atom_site_type_symbol
 _atom_site_label
 _atom_site_symmetry_multiplicity
 _atom_site_fract_x
 _atom_site_fract_y
 _atom_site_fract_z
 _atom_site_occupancy
  Ni  Ni0  1  0.19501210  0.13000807  0.09750605  1.0
  Ni  Ni1  1  0.19501210  0.46334140  0.09750605  1.0
  Ni  Ni2  1  0.19501210  0.79667473  0.09750605  1.0
  Ni  Ni3  1  0.52834543  0.13000807  0.09750605  1.0
  Ni  Ni4  1  0.52834543  0.46334140  0.09750605  1.0
  Ni  Ni5  1  0.52834543  0.79667473  0.09750605  1.0
  Ni  Ni6  1  0.86167877  0.13000807  0.09750605  1.0
  Ni  Ni7  1  0.86167877  0.46334140  0.09750605  1.0
  Ni  Ni8  1  0.86167877  0.79667473  0.09750605  1.0
  Ni  Ni9  1  0.09501210  0.23000807  0.04750605  1.0
  Ni  Ni10  1  0.09501210  0.56334140  0.04750605  1.0
  Ni  Ni11  1  0.09501210  0.89667473  0.04750605  1.0
  Ni  Ni12  1  0.42834543  0.23000807  0.04750605  1.0
  Ni  Ni13  1  0.42834543  0.56334140  0.04750605  1.0
  Ni  Ni14  1  0.42834543  0.89667473  0.04750605  1.0
  Ni  Ni15  1  0.76167877  0.23000807  0.04750605  1.0
  Ni  Ni16  1  0.76167877  0.56334140  0.04750605  1.0
  Ni  Ni17  1  0.76167877  0.89667473  0.04750605  1.0
  Ni  Ni18  1  0.30115437  0.21328980  0.01988785  1.0
  Ni  Ni19  1  0.30115437  0.54662313  0.01988785  1.0
  Ni  Ni20  1  0.30115437  0.87995647  0.01988785  1.0
  Ni  Ni21  1  0.63448770  0.21328980  0.01988785  1.0
  Ni  Ni22  1  0.63448770  0.54662313  0.01988785  1.0
  Ni  Ni23  1  0.63448770  0.87995647  0.01988785  1.0
  Ni  Ni24  1  0.96782103  0.21328980  0.01988785  1.0
  Ni  Ni25  1  0.96782103  0.54662313  0.01988785  1.0
  Ni  Ni26  1  0.96782103  0.87995647  0.01988785  1.0
  Ni  Ni27  1  0.06782103  0.11328980  0.06988785  1.0
  Ni  Ni28  1  0.06782103  0.44662313  0.06988785  1.0
  Ni  Ni29  1  0.06782103  0.77995647  0.06988785  1.0
  Ni  Ni30  1  0.40115437  0.11328980  0.06988785  1.0
  Ni  Ni31  1  0.40115437  0.44662313  0.06988785  1.0
  Ni  Ni32  1  0.40115437  0.77995647  0.06988785  1.0
  Ni  Ni33  1  0.73448770  0.11328980  0.06988785  1.0
  Ni  Ni34  1  0.73448770  0.44662313  0.06988785  1.0
  Ni  Ni35  1  0.73448770  0.77995647  0.06988785  1.0
  Ni  Ni36  1  0.22220317  0.24672633  0.07512425  1.0
  Ni  Ni37  1  0.22220317  0.58005967  0.07512425  1.0
  Ni  Ni38  1  0.22220317  0.91339300  0.07512425  1.0
  Ni  Ni39  1  0.55553650  0.24672633  0.07512425  1.0
  Ni  Ni40  1  0.55553650  0.58005967  0.07512425  1.0
  Ni  Ni41  1  0.55553650  0.91339300  0.07512425  1.0
  Ni  Ni42  1  0.88886983  0.24672633  0.07512425  1.0
  Ni  Ni43  1  0.88886983  0.58005967  0.07512425  1.0
  Ni  Ni44  1  0.88886983  0.91339300  0.07512425  1.0
  Ni  Ni45  1  0.12220317  0.01339300  0.02512425  1.0
  Ni  Ni46  1  0.12220317  0.34672633  0.02512425  1.0
  Ni  Ni47  1  0.12220317  0.68005967  0.02512425  1.0
  Ni  Ni48  1  0.45553650  0.01339300  0.02512425  1.0
  Ni  Ni49  1  0.45553650  0.34672633  0.02512425  1.0
  Ni  Ni50  1  0.45553650  0.68005967  0.02512425  1.0
  Ni  Ni51  1  0.78886983  0.01339300  0.02512425  1.0
  Ni  Ni52  1  0.78886983  0.34672633  0.02512425  1.0
  Ni  Ni53  1  0.78886983  0.68005967  0.02512425  1.0
  Ni  Ni54  1  0.06167877  0.26334140  0.19750605  1.0
  Ni  Ni55  1  0.06167877  0.59667473  0.19750605  1.0
  Ni  Ni56  1  0.06167877  0.93000807  0.19750605  1.0
  Ni  Ni57  1  0.39501210  0.26334140  0.19750605  1.0
  Ni  Ni58  1  0.39501210  0.59667473  0.19750605  1.0
  Ni  Ni59  1  0.39501210  0.93000807  0.19750605  1.0
  Ni  Ni60  1  0.72834543  0.26334140  0.19750605  1.0
  Ni  Ni61  1  0.72834543  0.59667473  0.19750605  1.0
  Ni  Ni62  1  0.72834543  0.93000807  0.19750605  1.0
  Ni  Ni63  1  0.29501210  0.03000807  0.14750605  1.0
  Ni  Ni64  1  0.29501210  0.36334140  0.14750605  1.0
  Ni  Ni65  1  0.29501210  0.69667473  0.14750605  1.0
  Ni  Ni66  1  0.62834543  0.03000807  0.14750605  1.0
  Ni  Ni67  1  0.62834543  0.36334140  0.14750605  1.0
  Ni  Ni68  1  0.62834543  0.69667473  0.14750605  1.0
  Ni  Ni69  1  0.96167877  0.03000807  0.14750605  1.0
  Ni  Ni70  1  0.96167877  0.36334140  0.14750605  1.0
  Ni  Ni71  1  0.96167877  0.69667473  0.14750605  1.0
  Ni  Ni72  1  0.16782103  0.01328980  0.11988785  1.0
  Ni  Ni73  1  0.16782103  0.34662313  0.11988785  1.0
  Ni  Ni74  1  0.16782103  0.67995647  0.11988785  1.0
  Ni  Ni75  1  0.50115437  0.01328980  0.11988785  1.0
  Ni  Ni76  1  0.50115437  0.34662313  0.11988785  1.0
  Ni  Ni77  1  0.50115437  0.67995647  0.11988785  1.0
  Ni  Ni78  1  0.83448770  0.01328980  0.11988785  1.0
  Ni  Ni79  1  0.83448770  0.34662313  0.11988785  1.0
  Ni  Ni80  1  0.83448770  0.67995647  0.11988785  1.0
  Ni  Ni81  1  0.26782103  0.24662313  0.16988785  1.0
  Ni  Ni82  1  0.26782103  0.57995647  0.16988785  1.0
  Ni  Ni83  1  0.26782103  0.91328980  0.16988785  1.0
  Ni  Ni84  1  0.60115437  0.24662313  0.16988785  1.0
  Ni  Ni85  1  0.60115437  0.57995647  0.16988785  1.0
  Ni  Ni86  1  0.60115437  0.91328980  0.16988785  1.0
  Ni  Ni87  1  0.93448770  0.24662313  0.16988785  1.0
  Ni  Ni88  1  0.93448770  0.57995647  0.16988785  1.0
  Ni  Ni89  1  0.93448770  0.91328980  0.16988785  1.0
  Ni  Ni90  1  0.08886983  0.04672633  0.17512425  1.0
  Ni  Ni91  1  0.08886983  0.38005967  0.17512425  1.0
  Ni  Ni92  1  0.08886983  0.71339300  0.17512425  1.0
  Ni  Ni93  1  0.42220317  0.04672633  0.17512425  1.0
  Ni  Ni94  1  0.42220317  0.38005967  0.17512425  1.0
  Ni  Ni95  1  0.42220317  0.71339300  0.17512425  1.0
  Ni  Ni96  1  0.75553650  0.04672633  0.17512425  1.0
  Ni  Ni97  1  0.75553650  0.38005967  0.17512425  1.0
  Ni  Ni98  1  0.75553650  0.71339300  0.17512425  1.0
  Ni  Ni99  1  0.32220317  0.14672633  0.12512425  1.0
  Ni  Ni100  1  0.32220317  0.48005967  0.12512425  1.0
  Ni  Ni101  1  0.32220317  0.81339300  0.12512425  1.0
  Ni  Ni102  1  0.65553650  0.14672633  0.12512425  1.0
  Ni  Ni103  1  0.65553650  0.48005967  0.12512425  1.0
  Ni  Ni104  1  0.65553650  0.81339300  0.12512425  1.0
  Ni  Ni105  1  0.98886983  0.14672633  0.12512425  1.0
  Ni  Ni106  1  0.98886983  0.48005967  0.12512425  1.0
  Ni  Ni107  1  0.98886983  0.81339300  0.12512425  1.0
  Ni  Ni108  1  0.26167877  0.06334140  0.29750605  1.0
  Ni  Ni109  1  0.26167877  0.39667473  0.29750605  1.0
  Ni  Ni110  1  0.26167877  0.73000807  0.29750605  1.0
  Ni  Ni111  1  0.59501210  0.06334140  0.29750605  1.0
  Ni  Ni112  1  0.59501210  0.39667473  0.29750605  1.0
  Ni  Ni113  1  0.59501210  0.73000807  0.29750605  1.0
  Ni  Ni114  1  0.92834543  0.06334140  0.29750605  1.0
  Ni  Ni115  1  0.92834543  0.39667473  0.29750605  1.0
  Ni  Ni116  1  0.92834543  0.73000807  0.29750605  1.0
  Ni  Ni117  1  0.16167877  0.16334140  0.24750605  1.0
  Ni  Ni118  1  0.16167877  0.49667473  0.24750605  1.0
  Ni  Ni119  1  0.16167877  0.83000807  0.24750605  1.0
  Ni  Ni120  1  0.49501210  0.16334140  0.24750605  1.0
  Ni  Ni121  1  0.49501210  0.49667473  0.24750605  1.0
  Ni  Ni122  1  0.49501210  0.83000807  0.24750605  1.0
  Ni  Ni123  1  0.82834543  0.16334140  0.24750605  1.0
  Ni  Ni124  1  0.82834543  0.49667473  0.24750605  1.0
  Ni  Ni125  1  0.82834543  0.83000807  0.24750605  1.0
  Ni  Ni126  1  0.03448770  0.14662313  0.21988785  1.0
  Ni  Ni127  1  0.03448770  0.47995647  0.21988785  1.0
  Ni  Ni128  1  0.03448770  0.81328980  0.21988785  1.0
  Ni  Ni129  1  0.36782103  0.14662313  0.21988785  1.0
  Ni  Ni130  1  0.36782103  0.47995647  0.21988785  1.0
  Ni  Ni131  1  0.36782103  0.81328980  0.21988785  1.0
  Ni  Ni132  1  0.70115437  0.14662313  0.21988785  1.0
  Ni  Ni133  1  0.70115437  0.47995647  0.21988785  1.0
  Ni  Ni134  1  0.70115437  0.81328980  0.21988785  1.0
  Ni  Ni135  1  0.13448770  0.04662313  0.26988785  1.0
  Ni  Ni136  1  0.13448770  0.37995647  0.26988785  1.0
  Ni  Ni137  1  0.13448770  0.71328980  0.26988785  1.0
  Ni  Ni138  1  0.46782103  0.04662313  0.26988785  1.0
  Ni  Ni139  1  0.46782103  0.37995647  0.26988785  1.0
  Ni  Ni140  1  0.46782103  0.71328980  0.26988785  1.0
  Ni  Ni141  1  0.80115437  0.04662313  0.26988785  1.0
  Ni  Ni142  1  0.80115437  0.37995647  0.26988785  1.0
  Ni  Ni143  1  0.80115437  0.71328980  0.26988785  1.0
  Ni  Ni144  1  0.28886983  0.18005967  0.27512425  1.0
  Ni  Ni145  1  0.28886983  0.51339300  0.27512425  1.0
  Ni  Ni146  1  0.28886983  0.84672633  0.27512425  1.0
  Ni  Ni147  1  0.62220317  0.18005967  0.27512425  1.0
  Ni  Ni148  1  0.62220317  0.51339300  0.27512425  1.0
  Ni  Ni149  1  0.62220317  0.84672633  0.27512425  1.0
  Ni  Ni150  1  0.95553650  0.18005967  0.27512425  1.0
  Ni  Ni151  1  0.95553650  0.51339300  0.27512425  1.0
  Ni  Ni152  1  0.95553650  0.84672633  0.27512425  1.0
  Ni  Ni153  1  0.18886983  0.28005967  0.22512425  1.0
  Ni  Ni154  1  0.18886983  0.61339300  0.22512425  1.0
  Ni  Ni155  1  0.18886983  0.94672633  0.22512425  1.0
  Ni  Ni156  1  0.52220317  0.28005967  0.22512425  1.0
  Ni  Ni157  1  0.52220317  0.61339300  0.22512425  1.0
  Ni  Ni158  1  0.52220317  0.94672633  0.22512425  1.0
  Ni  Ni159  1  0.85553650  0.28005967  0.22512425  1.0
  Ni  Ni160  1  0.85553650  0.61339300  0.22512425  1.0
  Ni  Ni161  1  0.85553650  0.94672633  0.22512425  1.0
  Ni  Ni162  1  0.12834543  0.19667473  0.39750605  1.0
  Ni  Ni163  1  0.12834543  0.53000807  0.39750605  1.0
  Ni  Ni164  1  0.12834543  0.86334140  0.39750605  1.0
  Ni  Ni165  1  0.46167877  0.19667473  0.39750605  1.0
  Ni  Ni166  1  0.46167877  0.53000807  0.39750605  1.0
  Ni  Ni167  1  0.46167877  0.86334140  0.39750605  1.0
  Ni  Ni168  1  0.79501210  0.19667473  0.39750605  1.0
  Ni  Ni169  1  0.79501210  0.53000807  0.39750605  1.0
  Ni  Ni170  1  0.79501210  0.86334140  0.39750605  1.0
  Ni  Ni171  1  0.02834543  0.29667473  0.34750605  1.0
  Ni  Ni172  1  0.02834543  0.63000807  0.34750605  1.0
  Ni  Ni173  1  0.02834543  0.96334140  0.34750605  1.0
  Ni  Ni174  1  0.36167877  0.29667473  0.34750605  1.0
  Ni  Ni175  1  0.36167877  0.63000807  0.34750605  1.0
  Ni  Ni176  1  0.36167877  0.96334140  0.34750605  1.0
  Ni  Ni177  1  0.69501210  0.29667473  0.34750605  1.0
  Ni  Ni178  1  0.69501210  0.63000807  0.34750605  1.0
  Ni  Ni179  1  0.69501210  0.96334140  0.34750605  1.0
  Ni  Ni180  1  0.23448770  0.27995647  0.31988785  1.0
  Ni  Ni181  1  0.23448770  0.61328980  0.31988785  1.0
  Ni  Ni182  1  0.23448770  0.94662313  0.31988785  1.0
  Ni  Ni183  1  0.56782103  0.27995647  0.31988785  1.0
  Ni  Ni184  1  0.56782103  0.61328980  0.31988785  1.0
  Ni  Ni185  1  0.56782103  0.94662313  0.31988785  1.0
  Ni  Ni186  1  0.90115437  0.27995647  0.31988785  1.0
  Ni  Ni187  1  0.90115437  0.61328980  0.31988785  1.0
  Ni  Ni188  1  0.90115437  0.94662313  0.31988785  1.0
  Ni  Ni189  1  0.00115437  0.17995647  0.36988785  1.0
  Ni  Ni190  1  0.00115437  0.51328980  0.36988785  1.0
  Ni  Ni191  1  0.00115437  0.84662313  0.36988785  1.0
  Ni  Ni192  1  0.33448770  0.17995647  0.36988785  1.0
  Ni  Ni193  1  0.33448770  0.51328980  0.36988785  1.0
  Ni  Ni194  1  0.33448770  0.84662313  0.36988785  1.0
  Ni  Ni195  1  0.66782103  0.17995647  0.36988785  1.0
  Ni  Ni196  1  0.66782103  0.51328980  0.36988785  1.0
  Ni  Ni197  1  0.66782103  0.84662313  0.36988785  1.0
  Ni  Ni198  1  0.15553650  0.31339300  0.37512425  1.0
  Ni  Ni199  1  0.15553650  0.64672633  0.37512425  1.0
  Ni  Ni200  1  0.15553650  0.98005967  0.37512425  1.0
  Ni  Ni201  1  0.48886983  0.31339300  0.37512425  1.0
  Ni  Ni202  1  0.48886983  0.64672633  0.37512425  1.0
  Ni  Ni203  1  0.48886983  0.98005967  0.37512425  1.0
  Ni  Ni204  1  0.82220317  0.31339300  0.37512425  1.0
  Ni  Ni205  1  0.82220317  0.64672633  0.37512425  1.0
  Ni  Ni206  1  0.82220317  0.98005967  0.37512425  1.0
  Ni  Ni207  1  0.05553650  0.08005967  0.32512425  1.0
  Ni  Ni208  1  0.05553650  0.41339300  0.32512425  1.0
  Ni  Ni209  1  0.05553650  0.74672633  0.32512425  1.0
  Ni  Ni210  1  0.38886983  0.08005967  0.32512425  1.0
  Ni  Ni211  1  0.38886983  0.41339300  0.32512425  1.0
  Ni  Ni212  1  0.38886983  0.74672633  0.32512425  1.0
  Ni  Ni213  1  0.72220317  0.08005967  0.32512425  1.0
  Ni  Ni214  1  0.72220317  0.41339300  0.32512425  1.0
  Ni  Ni215  1  0.72220317  0.74672633  0.32512425  1.0
  Sn  Sn216  1  0.04068370  0.33215580  0.09172035  1.0
  Sn  Sn217  1  0.04068370  0.66548913  0.09172035  1.0
  Sn  Sn218  1  0.04068370  0.99882247  0.09172035  1.0
  Sn  Sn219  1  0.37401703  0.33215580  0.09172035  1.0
  Sn  Sn220  1  0.37401703  0.66548913  0.09172035  1.0
  Sn  Sn221  1  0.37401703  0.99882247  0.09172035  1.0
  Sn  Sn222  1  0.70735037  0.33215580  0.09172035  1.0
  Sn  Sn223  1  0.70735037  0.66548913  0.09172035  1.0
  Sn  Sn224  1  0.70735037  0.99882247  0.09172035  1.0
  Sn  Sn225  1  0.27401703  0.09882247  0.04172035  1.0
  Sn  Sn226  1  0.27401703  0.43215580  0.04172035  1.0
  Sn  Sn227  1  0.27401703  0.76548913  0.04172035  1.0
  Sn  Sn228  1  0.60735037  0.09882247  0.04172035  1.0
  Sn  Sn229  1  0.60735037  0.43215580  0.04172035  1.0
  Sn  Sn230  1  0.60735037  0.76548913  0.04172035  1.0
  Sn  Sn231  1  0.94068370  0.09882247  0.04172035  1.0
  Sn  Sn232  1  0.94068370  0.43215580  0.04172035  1.0
  Sn  Sn233  1  0.94068370  0.76548913  0.04172035  1.0
  Sn  Sn234  1  0.14934050  0.12786033  0.00329175  1.0
  Sn  Sn235  1  0.14934050  0.46119367  0.00329175  1.0
  Sn  Sn236  1  0.14934050  0.79452700  0.00329175  1.0
  Sn  Sn237  1  0.48267383  0.12786033  0.00329175  1.0
  Sn  Sn238  1  0.48267383  0.46119367  0.00329175  1.0
  Sn  Sn239  1  0.48267383  0.79452700  0.00329175  1.0
  Sn  Sn240  1  0.81600717  0.12786033  0.00329175  1.0
  Sn  Sn241  1  0.81600717  0.46119367  0.00329175  1.0
  Sn  Sn242  1  0.81600717  0.79452700  0.00329175  1.0
  Sn  Sn243  1  0.24934050  0.02786033  0.05329175  1.0
  Sn  Sn244  1  0.24934050  0.36119367  0.05329175  1.0
  Sn  Sn245  1  0.24934050  0.69452700  0.05329175  1.0
  Sn  Sn246  1  0.58267383  0.02786033  0.05329175  1.0
  Sn  Sn247  1  0.58267383  0.36119367  0.05329175  1.0
  Sn  Sn248  1  0.58267383  0.69452700  0.05329175  1.0
  Sn  Sn249  1  0.91600717  0.02786033  0.05329175  1.0
  Sn  Sn250  1  0.91600717  0.36119367  0.05329175  1.0
  Sn  Sn251  1  0.91600717  0.69452700  0.05329175  1.0
  Sn  Sn252  1  0.13933170  0.07113647  0.09830385  1.0
  Sn  Sn253  1  0.13933170  0.40446980  0.09830385  1.0
  Sn  Sn254  1  0.13933170  0.73780313  0.09830385  1.0
  Sn  Sn255  1  0.47266503  0.07113647  0.09830385  1.0
  Sn  Sn256  1  0.47266503  0.40446980  0.09830385  1.0
  Sn  Sn257  1  0.47266503  0.73780313  0.09830385  1.0
  Sn  Sn258  1  0.80599837  0.07113647  0.09830385  1.0
  Sn  Sn259  1  0.80599837  0.40446980  0.09830385  1.0
  Sn  Sn260  1  0.80599837  0.73780313  0.09830385  1.0
  Sn  Sn261  1  0.03933170  0.17113647  0.04830385  1.0
  Sn  Sn262  1  0.03933170  0.50446980  0.04830385  1.0
  Sn  Sn263  1  0.03933170  0.83780313  0.04830385  1.0
  Sn  Sn264  1  0.37266503  0.17113647  0.04830385  1.0
  Sn  Sn265  1  0.37266503  0.50446980  0.04830385  1.0
  Sn  Sn266  1  0.37266503  0.83780313  0.04830385  1.0
  Sn  Sn267  1  0.70599837  0.17113647  0.04830385  1.0
  Sn  Sn268  1  0.70599837  0.50446980  0.04830385  1.0
  Sn  Sn269  1  0.70599837  0.83780313  0.04830385  1.0
  Sn  Sn270  1  0.25069250  0.18887967  0.09670825  1.0
  Sn  Sn271  1  0.25069250  0.52221300  0.09670825  1.0
  Sn  Sn272  1  0.25069250  0.85554633  0.09670825  1.0
  Sn  Sn273  1  0.58402583  0.18887967  0.09670825  1.0
  Sn  Sn274  1  0.58402583  0.52221300  0.09670825  1.0
  Sn  Sn275  1  0.58402583  0.85554633  0.09670825  1.0
  Sn  Sn276  1  0.91735917  0.18887967  0.09670825  1.0
  Sn  Sn277  1  0.91735917  0.52221300  0.09670825  1.0
  Sn  Sn278  1  0.91735917  0.85554633  0.09670825  1.0
  Sn  Sn279  1  0.15069250  0.28887967  0.04670825  1.0
  Sn  Sn280  1  0.15069250  0.62221300  0.04670825  1.0
  Sn  Sn281  1  0.15069250  0.95554633  0.04670825  1.0
  Sn  Sn282  1  0.48402583  0.28887967  0.04670825  1.0
  Sn  Sn283  1  0.48402583  0.62221300  0.04670825  1.0
  Sn  Sn284  1  0.48402583  0.95554633  0.04670825  1.0
  Sn  Sn285  1  0.81735917  0.28887967  0.04670825  1.0
  Sn  Sn286  1  0.81735917  0.62221300  0.04670825  1.0
  Sn  Sn287  1  0.81735917  0.95554633  0.04670825  1.0
  Sn  Sn288  1  0.24068370  0.13215580  0.19172035  1.0
  Sn  Sn289  1  0.24068370  0.46548913  0.19172035  1.0
  Sn  Sn290  1  0.24068370  0.79882247  0.19172035  1.0
  Sn  Sn291  1  0.57401703  0.13215580  0.19172035  1.0
  Sn  Sn292  1  0.57401703  0.46548913  0.19172035  1.0
  Sn  Sn293  1  0.57401703  0.79882247  0.19172035  1.0
  Sn  Sn294  1  0.90735037  0.13215580  0.19172035  1.0
  Sn  Sn295  1  0.90735037  0.46548913  0.19172035  1.0
  Sn  Sn296  1  0.90735037  0.79882247  0.19172035  1.0
  Sn  Sn297  1  0.14068370  0.23215580  0.14172035  1.0
  Sn  Sn298  1  0.14068370  0.56548913  0.14172035  1.0
  Sn  Sn299  1  0.14068370  0.89882247  0.14172035  1.0
  Sn  Sn300  1  0.47401703  0.23215580  0.14172035  1.0
  Sn  Sn301  1  0.47401703  0.56548913  0.14172035  1.0
  Sn  Sn302  1  0.47401703  0.89882247  0.14172035  1.0
  Sn  Sn303  1  0.80735037  0.23215580  0.14172035  1.0
  Sn  Sn304  1  0.80735037  0.56548913  0.14172035  1.0
  Sn  Sn305  1  0.80735037  0.89882247  0.14172035  1.0
  Sn  Sn306  1  0.01600717  0.26119367  0.10329175  1.0
  Sn  Sn307  1  0.01600717  0.59452700  0.10329175  1.0
  Sn  Sn308  1  0.01600717  0.92786033  0.10329175  1.0
  Sn  Sn309  1  0.34934050  0.26119367  0.10329175  1.0
  Sn  Sn310  1  0.34934050  0.59452700  0.10329175  1.0
  Sn  Sn311  1  0.34934050  0.92786033  0.10329175  1.0
  Sn  Sn312  1  0.68267383  0.26119367  0.10329175  1.0
  Sn  Sn313  1  0.68267383  0.59452700  0.10329175  1.0
  Sn  Sn314  1  0.68267383  0.92786033  0.10329175  1.0
  Sn  Sn315  1  0.11600717  0.16119367  0.15329175  1.0
  Sn  Sn316  1  0.11600717  0.49452700  0.15329175  1.0
  Sn  Sn317  1  0.11600717  0.82786033  0.15329175  1.0
  Sn  Sn318  1  0.44934050  0.16119367  0.15329175  1.0
  Sn  Sn319  1  0.44934050  0.49452700  0.15329175  1.0
  Sn  Sn320  1  0.44934050  0.82786033  0.15329175  1.0
  Sn  Sn321  1  0.78267383  0.16119367  0.15329175  1.0
  Sn  Sn322  1  0.78267383  0.49452700  0.15329175  1.0
  Sn  Sn323  1  0.78267383  0.82786033  0.15329175  1.0
  Sn  Sn324  1  0.00599837  0.20446980  0.19830385  1.0
  Sn  Sn325  1  0.00599837  0.53780313  0.19830385  1.0
  Sn  Sn326  1  0.00599837  0.87113647  0.19830385  1.0
  Sn  Sn327  1  0.33933170  0.20446980  0.19830385  1.0
  Sn  Sn328  1  0.33933170  0.53780313  0.19830385  1.0
  Sn  Sn329  1  0.33933170  0.87113647  0.19830385  1.0
  Sn  Sn330  1  0.67266503  0.20446980  0.19830385  1.0
  Sn  Sn331  1  0.67266503  0.53780313  0.19830385  1.0
  Sn  Sn332  1  0.67266503  0.87113647  0.19830385  1.0
  Sn  Sn333  1  0.23933170  0.30446980  0.14830385  1.0
  Sn  Sn334  1  0.23933170  0.63780313  0.14830385  1.0
  Sn  Sn335  1  0.23933170  0.97113647  0.14830385  1.0
  Sn  Sn336  1  0.57266503  0.30446980  0.14830385  1.0
  Sn  Sn337  1  0.57266503  0.63780313  0.14830385  1.0
  Sn  Sn338  1  0.57266503  0.97113647  0.14830385  1.0
  Sn  Sn339  1  0.90599837  0.30446980  0.14830385  1.0
  Sn  Sn340  1  0.90599837  0.63780313  0.14830385  1.0
  Sn  Sn341  1  0.90599837  0.97113647  0.14830385  1.0
  Sn  Sn342  1  0.11735917  0.32221300  0.19670825  1.0
  Sn  Sn343  1  0.11735917  0.65554633  0.19670825  1.0
  Sn  Sn344  1  0.11735917  0.98887967  0.19670825  1.0
  Sn  Sn345  1  0.45069250  0.32221300  0.19670825  1.0
  Sn  Sn346  1  0.45069250  0.65554633  0.19670825  1.0
  Sn  Sn347  1  0.45069250  0.98887967  0.19670825  1.0
  Sn  Sn348  1  0.78402583  0.32221300  0.19670825  1.0
  Sn  Sn349  1  0.78402583  0.65554633  0.19670825  1.0
  Sn  Sn350  1  0.78402583  0.98887967  0.19670825  1.0
  Sn  Sn351  1  0.01735917  0.08887967  0.14670825  1.0
  Sn  Sn352  1  0.01735917  0.42221300  0.14670825  1.0
  Sn  Sn353  1  0.01735917  0.75554633  0.14670825  1.0
  Sn  Sn354  1  0.35069250  0.08887967  0.14670825  1.0
  Sn  Sn355  1  0.35069250  0.42221300  0.14670825  1.0
  Sn  Sn356  1  0.35069250  0.75554633  0.14670825  1.0
  Sn  Sn357  1  0.68402583  0.08887967  0.14670825  1.0
  Sn  Sn358  1  0.68402583  0.42221300  0.14670825  1.0
  Sn  Sn359  1  0.68402583  0.75554633  0.14670825  1.0
  Sn  Sn360  1  0.10735037  0.26548913  0.29172035  1.0
  Sn  Sn361  1  0.10735037  0.59882247  0.29172035  1.0
  Sn  Sn362  1  0.10735037  0.93215580  0.29172035  1.0
  Sn  Sn363  1  0.44068370  0.26548913  0.29172035  1.0
  Sn  Sn364  1  0.44068370  0.59882247  0.29172035  1.0
  Sn  Sn365  1  0.44068370  0.93215580  0.29172035  1.0
  Sn  Sn366  1  0.77401703  0.26548913  0.29172035  1.0
  Sn  Sn367  1  0.77401703  0.59882247  0.29172035  1.0
  Sn  Sn368  1  0.77401703  0.93215580  0.29172035  1.0
  Sn  Sn369  1  0.00735037  0.03215580  0.24172035  1.0
  Sn  Sn370  1  0.00735037  0.36548913  0.24172035  1.0
  Sn  Sn371  1  0.00735037  0.69882247  0.24172035  1.0
  Sn  Sn372  1  0.34068370  0.03215580  0.24172035  1.0
  Sn  Sn373  1  0.34068370  0.36548913  0.24172035  1.0
  Sn  Sn374  1  0.34068370  0.69882247  0.24172035  1.0
  Sn  Sn375  1  0.67401703  0.03215580  0.24172035  1.0
  Sn  Sn376  1  0.67401703  0.36548913  0.24172035  1.0
  Sn  Sn377  1  0.67401703  0.69882247  0.24172035  1.0
  Sn  Sn378  1  0.21600717  0.06119367  0.20329175  1.0
  Sn  Sn379  1  0.21600717  0.39452700  0.20329175  1.0
  Sn  Sn380  1  0.21600717  0.72786033  0.20329175  1.0
  Sn  Sn381  1  0.54934050  0.06119367  0.20329175  1.0
  Sn  Sn382  1  0.54934050  0.39452700  0.20329175  1.0
  Sn  Sn383  1  0.54934050  0.72786033  0.20329175  1.0
  Sn  Sn384  1  0.88267383  0.06119367  0.20329175  1.0
  Sn  Sn385  1  0.88267383  0.39452700  0.20329175  1.0
  Sn  Sn386  1  0.88267383  0.72786033  0.20329175  1.0
  Sn  Sn387  1  0.31600717  0.29452700  0.25329175  1.0
  Sn  Sn388  1  0.31600717  0.62786033  0.25329175  1.0
  Sn  Sn389  1  0.31600717  0.96119367  0.25329175  1.0
  Sn  Sn390  1  0.64934050  0.29452700  0.25329175  1.0
  Sn  Sn391  1  0.64934050  0.62786033  0.25329175  1.0
  Sn  Sn392  1  0.64934050  0.96119367  0.25329175  1.0
  Sn  Sn393  1  0.98267383  0.29452700  0.25329175  1.0
  Sn  Sn394  1  0.98267383  0.62786033  0.25329175  1.0
  Sn  Sn395  1  0.98267383  0.96119367  0.25329175  1.0
  Sn  Sn396  1  0.20599837  0.00446980  0.29830385  1.0
  Sn  Sn397  1  0.20599837  0.33780313  0.29830385  1.0
  Sn  Sn398  1  0.20599837  0.67113647  0.29830385  1.0
  Sn  Sn399  1  0.53933170  0.00446980  0.29830385  1.0
  Sn  Sn400  1  0.53933170  0.33780313  0.29830385  1.0
  Sn  Sn401  1  0.53933170  0.67113647  0.29830385  1.0
  Sn  Sn402  1  0.87266503  0.00446980  0.29830385  1.0
  Sn  Sn403  1  0.87266503  0.33780313  0.29830385  1.0
  Sn  Sn404  1  0.87266503  0.67113647  0.29830385  1.0
  Sn  Sn405  1  0.10599837  0.10446980  0.24830385  1.0
  Sn  Sn406  1  0.10599837  0.43780313  0.24830385  1.0
  Sn  Sn407  1  0.10599837  0.77113647  0.24830385  1.0
  Sn  Sn408  1  0.43933170  0.10446980  0.24830385  1.0
  Sn  Sn409  1  0.43933170  0.43780313  0.24830385  1.0
  Sn  Sn410  1  0.43933170  0.77113647  0.24830385  1.0
  Sn  Sn411  1  0.77266503  0.10446980  0.24830385  1.0
  Sn  Sn412  1  0.77266503  0.43780313  0.24830385  1.0
  Sn  Sn413  1  0.77266503  0.77113647  0.24830385  1.0
  Sn  Sn414  1  0.31735917  0.12221300  0.29670825  1.0
  Sn  Sn415  1  0.31735917  0.45554633  0.29670825  1.0
  Sn  Sn416  1  0.31735917  0.78887967  0.29670825  1.0
  Sn  Sn417  1  0.65069250  0.12221300  0.29670825  1.0
  Sn  Sn418  1  0.65069250  0.45554633  0.29670825  1.0
  Sn  Sn419  1  0.65069250  0.78887967  0.29670825  1.0
  Sn  Sn420  1  0.98402583  0.12221300  0.29670825  1.0
  Sn  Sn421  1  0.98402583  0.45554633  0.29670825  1.0
  Sn  Sn422  1  0.98402583  0.78887967  0.29670825  1.0
  Sn  Sn423  1  0.21735917  0.22221300  0.24670825  1.0
  Sn  Sn424  1  0.21735917  0.55554633  0.24670825  1.0
  Sn  Sn425  1  0.21735917  0.88887967  0.24670825  1.0
  Sn  Sn426  1  0.55069250  0.22221300  0.24670825  1.0
  Sn  Sn427  1  0.55069250  0.55554633  0.24670825  1.0
  Sn  Sn428  1  0.55069250  0.88887967  0.24670825  1.0
  Sn  Sn429  1  0.88402583  0.22221300  0.24670825  1.0
  Sn  Sn430  1  0.88402583  0.55554633  0.24670825  1.0
  Sn  Sn431  1  0.88402583  0.88887967  0.24670825  1.0
  Sn  Sn432  1  0.30735037  0.06548913  0.39172035  1.0
  Sn  Sn433  1  0.30735037  0.39882247  0.39172035  1.0
  Sn  Sn434  1  0.30735037  0.73215580  0.39172035  1.0
  Sn  Sn435  1  0.64068370  0.06548913  0.39172035  1.0
  Sn  Sn436  1  0.64068370  0.39882247  0.39172035  1.0
  Sn  Sn437  1  0.64068370  0.73215580  0.39172035  1.0
  Sn  Sn438  1  0.97401703  0.06548913  0.39172035  1.0
  Sn  Sn439  1  0.97401703  0.39882247  0.39172035  1.0
  Sn  Sn440  1  0.97401703  0.73215580  0.39172035  1.0
  Sn  Sn441  1  0.20735037  0.16548913  0.34172035  1.0
  Sn  Sn442  1  0.20735037  0.49882247  0.34172035  1.0
  Sn  Sn443  1  0.20735037  0.83215580  0.34172035  1.0
  Sn  Sn444  1  0.54068370  0.16548913  0.34172035  1.0
  Sn  Sn445  1  0.54068370  0.49882247  0.34172035  1.0
  Sn  Sn446  1  0.54068370  0.83215580  0.34172035  1.0
  Sn  Sn447  1  0.87401703  0.16548913  0.34172035  1.0
  Sn  Sn448  1  0.87401703  0.49882247  0.34172035  1.0
  Sn  Sn449  1  0.87401703  0.83215580  0.34172035  1.0
  Sn  Sn450  1  0.08267383  0.19452700  0.30329175  1.0
  Sn  Sn451  1  0.08267383  0.52786033  0.30329175  1.0
  Sn  Sn452  1  0.08267383  0.86119367  0.30329175  1.0
  Sn  Sn453  1  0.41600717  0.19452700  0.30329175  1.0
  Sn  Sn454  1  0.41600717  0.52786033  0.30329175  1.0
  Sn  Sn455  1  0.41600717  0.86119367  0.30329175  1.0
  Sn  Sn456  1  0.74934050  0.19452700  0.30329175  1.0
  Sn  Sn457  1  0.74934050  0.52786033  0.30329175  1.0
  Sn  Sn458  1  0.74934050  0.86119367  0.30329175  1.0
  Sn  Sn459  1  0.18267383  0.09452700  0.35329175  1.0
  Sn  Sn460  1  0.18267383  0.42786033  0.35329175  1.0
  Sn  Sn461  1  0.18267383  0.76119367  0.35329175  1.0
  Sn  Sn462  1  0.51600717  0.09452700  0.35329175  1.0
  Sn  Sn463  1  0.51600717  0.42786033  0.35329175  1.0
  Sn  Sn464  1  0.51600717  0.76119367  0.35329175  1.0
  Sn  Sn465  1  0.84934050  0.09452700  0.35329175  1.0
  Sn  Sn466  1  0.84934050  0.42786033  0.35329175  1.0
  Sn  Sn467  1  0.84934050  0.76119367  0.35329175  1.0
  Sn  Sn468  1  0.07266503  0.13780313  0.39830385  1.0
  Sn  Sn469  1  0.07266503  0.47113647  0.39830385  1.0
  Sn  Sn470  1  0.07266503  0.80446980  0.39830385  1.0
  Sn  Sn471  1  0.40599837  0.13780313  0.39830385  1.0
  Sn  Sn472  1  0.40599837  0.47113647  0.39830385  1.0
  Sn  Sn473  1  0.40599837  0.80446980  0.39830385  1.0
  Sn  Sn474  1  0.73933170  0.13780313  0.39830385  1.0
  Sn  Sn475  1  0.73933170  0.47113647  0.39830385  1.0
  Sn  Sn476  1  0.73933170  0.80446980  0.39830385  1.0
  Sn  Sn477  1  0.30599837  0.23780313  0.34830385  1.0
  Sn  Sn478  1  0.30599837  0.57113647  0.34830385  1.0
  Sn  Sn479  1  0.30599837  0.90446980  0.34830385  1.0
  Sn  Sn480  1  0.63933170  0.23780313  0.34830385  1.0
  Sn  Sn481  1  0.63933170  0.57113647  0.34830385  1.0
  Sn  Sn482  1  0.63933170  0.90446980  0.34830385  1.0
  Sn  Sn483  1  0.97266503  0.23780313  0.34830385  1.0
  Sn  Sn484  1  0.97266503  0.57113647  0.34830385  1.0
  Sn  Sn485  1  0.97266503  0.90446980  0.34830385  1.0
  Sn  Sn486  1  0.18402583  0.25554633  0.39670825  1.0
  Sn  Sn487  1  0.18402583  0.58887967  0.39670825  1.0
  Sn  Sn488  1  0.18402583  0.92221300  0.39670825  1.0
  Sn  Sn489  1  0.51735917  0.25554633  0.39670825  1.0
  Sn  Sn490  1  0.51735917  0.58887967  0.39670825  1.0
  Sn  Sn491  1  0.51735917  0.92221300  0.39670825  1.0
  Sn  Sn492  1  0.85069250  0.25554633  0.39670825  1.0
  Sn  Sn493  1  0.85069250  0.58887967  0.39670825  1.0
  Sn  Sn494  1  0.85069250  0.92221300  0.39670825  1.0
  Sn  Sn495  1  0.08402583  0.02221300  0.34670825  1.0
  Sn  Sn496  1  0.08402583  0.35554633  0.34670825  1.0
  Sn  Sn497  1  0.08402583  0.68887967  0.34670825  1.0
  Sn  Sn498  1  0.41735917  0.02221300  0.34670825  1.0
  Sn  Sn499  1  0.41735917  0.35554633  0.34670825  1.0
  Sn  Sn500  1  0.41735917  0.68887967  0.34670825  1.0
  Sn  Sn501  1  0.75069250  0.02221300  0.34670825  1.0
  Sn  Sn502  1  0.75069250  0.35554633  0.34670825  1.0
  Sn  Sn503  1  0.75069250  0.68887967  0.34670825  1.0
