# generated using pymatgen
data_Ni3Sn4
_symmetry_space_group_name_H-M   'P 1'
_cell_length_a   36.84172801
_cell_length_b   27.92291896
_cell_length_c   73.78636104
_cell_angle_alpha   42.34273749
_cell_angle_beta   74.80798802
_cell_angle_gamma   36.09000743
_symmetry_Int_Tables_number   1
_chemical_formula_structural   Ni3Sn4
_chemical_formula_sum   'Ni162 Sn216'
_cell_volume   16110.09458639
_cell_formula_units_Z   54
loop_
 _symmetry_equiv_pos_site_id
 _symmetry_equiv_pos_as_xyz
  1  'x, y, z'
loop_
 _atom_site_type_symbol
 _atom_site_label
 _atom_site_symmetry_multiplicity
 _atom_site_fract_x
 _atom_site_fract_y
 _atom_site_fract_z
 _atom_site_occupancy
  Ni  Ni0  1  0.00000000  0.00000000  0.06472200  1.0
  Ni  Ni1  1  0.00000000  0.33333333  0.06472200  1.0
  Ni  Ni2  1  0.00000000  0.66666667  0.06472200  1.0
  Ni  Ni3  1  0.33333333  0.00000000  0.06472200  1.0
  Ni  Ni4  1  0.33333333  0.33333333  0.06472200  1.0
  Ni  Ni5  1  0.33333333  0.66666667  0.06472200  1.0
  Ni  Ni6  1  0.66666667  0.00000000  0.06472200  1.0
  Ni  Ni7  1  0.66666667  0.33333333  0.06472200  1.0
  Ni  Ni8  1  0.66666667  0.66666667  0.06472200  1.0
  Ni  Ni9  1  0.07195467  0.33333333  0.04068629  1.0
  Ni  Ni10  1  0.07195467  0.66666667  0.04068629  1.0
  Ni  Ni11  1  0.07195467  1.00000000  0.04068629  1.0
  Ni  Ni12  1  0.40528800  0.33333333  0.04068629  1.0
  Ni  Ni13  1  0.40528800  0.66666667  0.04068629  1.0
  Ni  Ni14  1  0.40528800  1.00000000  0.04068629  1.0
  Ni  Ni15  1  0.73862133  0.33333333  0.04068629  1.0
  Ni  Ni16  1  0.73862133  0.66666667  0.04068629  1.0
  Ni  Ni17  1  0.73862133  1.00000000  0.04068629  1.0
  Ni  Ni18  1  0.26137867  0.33333333  0.01732914  1.0
  Ni  Ni19  1  0.26137867  0.66666667  0.01732914  1.0
  Ni  Ni20  1  0.26137867  1.00000000  0.01732914  1.0
  Ni  Ni21  1  0.59471200  0.33333333  0.01732914  1.0
  Ni  Ni22  1  0.59471200  0.66666667  0.01732914  1.0
  Ni  Ni23  1  0.59471200  1.00000000  0.01732914  1.0
  Ni  Ni24  1  0.92804533  0.33333333  0.01732914  1.0
  Ni  Ni25  1  0.92804533  0.66666667  0.01732914  1.0
  Ni  Ni26  1  0.92804533  1.00000000  0.01732914  1.0
  Sn  Sn27  1  0.14275700  0.33333333  0.01561893  1.0
  Sn  Sn28  1  0.14275700  0.66666667  0.01561893  1.0
  Sn  Sn29  1  0.14275700  1.00000000  0.01561893  1.0
  Sn  Sn30  1  0.47609033  0.33333333  0.01561893  1.0
  Sn  Sn31  1  0.47609033  0.66666667  0.01561893  1.0
  Sn  Sn32  1  0.47609033  1.00000000  0.01561893  1.0
  Sn  Sn33  1  0.80942367  0.33333333  0.01561893  1.0
  Sn  Sn34  1  0.80942367  0.66666667  0.01561893  1.0
  Sn  Sn35  1  0.80942367  1.00000000  0.01561893  1.0
  Sn  Sn36  1  0.19057633  0.33333333  0.04239650  1.0
  Sn  Sn37  1  0.19057633  0.66666667  0.04239650  1.0
  Sn  Sn38  1  0.19057633  1.00000000  0.04239650  1.0
  Sn  Sn39  1  0.52390967  0.33333333  0.04239650  1.0
  Sn  Sn40  1  0.52390967  0.66666667  0.04239650  1.0
  Sn  Sn41  1  0.52390967  1.00000000  0.04239650  1.0
  Sn  Sn42  1  0.85724300  0.33333333  0.04239650  1.0
  Sn  Sn43  1  0.85724300  0.66666667  0.04239650  1.0
  Sn  Sn44  1  0.85724300  1.00000000  0.04239650  1.0
  Sn  Sn45  1  0.05727600  0.33333333  0.00670657  1.0
  Sn  Sn46  1  0.05727600  0.66666667  0.00670657  1.0
  Sn  Sn47  1  0.05727600  1.00000000  0.00670657  1.0
  Sn  Sn48  1  0.39060933  0.33333333  0.00670657  1.0
  Sn  Sn49  1  0.39060933  0.66666667  0.00670657  1.0
  Sn  Sn50  1  0.39060933  1.00000000  0.00670657  1.0
  Sn  Sn51  1  0.72394267  0.33333333  0.00670657  1.0
  Sn  Sn52  1  0.72394267  0.66666667  0.00670657  1.0
  Sn  Sn53  1  0.72394267  1.00000000  0.00670657  1.0
  Sn  Sn54  1  0.27605733  0.33333333  0.05130886  1.0
  Sn  Sn55  1  0.27605733  0.66666667  0.05130886  1.0
  Sn  Sn56  1  0.27605733  1.00000000  0.05130886  1.0
  Sn  Sn57  1  0.60939067  0.33333333  0.05130886  1.0
  Sn  Sn58  1  0.60939067  0.66666667  0.05130886  1.0
  Sn  Sn59  1  0.60939067  1.00000000  0.05130886  1.0
  Sn  Sn60  1  0.94272400  0.33333333  0.05130886  1.0
  Sn  Sn61  1  0.94272400  0.66666667  0.05130886  1.0
  Sn  Sn62  1  0.94272400  1.00000000  0.05130886  1.0
  Ni  Ni63  1  0.00000000  0.00000000  0.13615057  1.0
  Ni  Ni64  1  0.00000000  0.33333333  0.13615057  1.0
  Ni  Ni65  1  0.00000000  0.66666667  0.13615057  1.0
  Ni  Ni66  1  0.33333333  0.00000000  0.13615057  1.0
  Ni  Ni67  1  0.33333333  0.33333333  0.13615057  1.0
  Ni  Ni68  1  0.33333333  0.66666667  0.13615057  1.0
  Ni  Ni69  1  0.66666667  0.00000000  0.13615057  1.0
  Ni  Ni70  1  0.66666667  0.33333333  0.13615057  1.0
  Ni  Ni71  1  0.66666667  0.66666667  0.13615057  1.0
  Ni  Ni72  1  0.07195467  0.33333333  0.11211486  1.0
  Ni  Ni73  1  0.07195467  0.66666667  0.11211486  1.0
  Ni  Ni74  1  0.07195467  1.00000000  0.11211486  1.0
  Ni  Ni75  1  0.40528800  0.33333333  0.11211486  1.0
  Ni  Ni76  1  0.40528800  0.66666667  0.11211486  1.0
  Ni  Ni77  1  0.40528800  1.00000000  0.11211486  1.0
  Ni  Ni78  1  0.73862133  0.33333333  0.11211486  1.0
  Ni  Ni79  1  0.73862133  0.66666667  0.11211486  1.0
  Ni  Ni80  1  0.73862133  1.00000000  0.11211486  1.0
  Ni  Ni81  1  0.26137867  0.33333333  0.08875771  1.0
  Ni  Ni82  1  0.26137867  0.66666667  0.08875771  1.0
  Ni  Ni83  1  0.26137867  1.00000000  0.08875771  1.0
  Ni  Ni84  1  0.59471200  0.33333333  0.08875771  1.0
  Ni  Ni85  1  0.59471200  0.66666667  0.08875771  1.0
  Ni  Ni86  1  0.59471200  1.00000000  0.08875771  1.0
  Ni  Ni87  1  0.92804533  0.33333333  0.08875771  1.0
  Ni  Ni88  1  0.92804533  0.66666667  0.08875771  1.0
  Ni  Ni89  1  0.92804533  1.00000000  0.08875771  1.0
  Sn  Sn90  1  0.14275700  0.33333333  0.08704750  1.0
  Sn  Sn91  1  0.14275700  0.66666667  0.08704750  1.0
  Sn  Sn92  1  0.14275700  1.00000000  0.08704750  1.0
  Sn  Sn93  1  0.47609033  0.33333333  0.08704750  1.0
  Sn  Sn94  1  0.47609033  0.66666667  0.08704750  1.0
  Sn  Sn95  1  0.47609033  1.00000000  0.08704750  1.0
  Sn  Sn96  1  0.80942367  0.33333333  0.08704750  1.0
  Sn  Sn97  1  0.80942367  0.66666667  0.08704750  1.0
  Sn  Sn98  1  0.80942367  1.00000000  0.08704750  1.0
  Sn  Sn99  1  0.19057633  0.33333333  0.11382507  1.0
  Sn  Sn100  1  0.19057633  0.66666667  0.11382507  1.0
  Sn  Sn101  1  0.19057633  1.00000000  0.11382507  1.0
  Sn  Sn102  1  0.52390967  0.33333333  0.11382507  1.0
  Sn  Sn103  1  0.52390967  0.66666667  0.11382507  1.0
  Sn  Sn104  1  0.52390967  1.00000000  0.11382507  1.0
  Sn  Sn105  1  0.85724300  0.33333333  0.11382507  1.0
  Sn  Sn106  1  0.85724300  0.66666667  0.11382507  1.0
  Sn  Sn107  1  0.85724300  1.00000000  0.11382507  1.0
  Sn  Sn108  1  0.05727600  0.33333333  0.07813514  1.0
  Sn  Sn109  1  0.05727600  0.66666667  0.07813514  1.0
  Sn  Sn110  1  0.05727600  1.00000000  0.07813514  1.0
  Sn  Sn111  1  0.39060933  0.33333333  0.07813514  1.0
  Sn  Sn112  1  0.39060933  0.66666667  0.07813514  1.0
  Sn  Sn113  1  0.39060933  1.00000000  0.07813514  1.0
  Sn  Sn114  1  0.72394267  0.33333333  0.07813514  1.0
  Sn  Sn115  1  0.72394267  0.66666667  0.07813514  1.0
  Sn  Sn116  1  0.72394267  1.00000000  0.07813514  1.0
  Sn  Sn117  1  0.27605733  0.33333333  0.12273743  1.0
  Sn  Sn118  1  0.27605733  0.66666667  0.12273743  1.0
  Sn  Sn119  1  0.27605733  1.00000000  0.12273743  1.0
  Sn  Sn120  1  0.60939067  0.33333333  0.12273743  1.0
  Sn  Sn121  1  0.60939067  0.66666667  0.12273743  1.0
  Sn  Sn122  1  0.60939067  1.00000000  0.12273743  1.0
  Sn  Sn123  1  0.94272400  0.33333333  0.12273743  1.0
  Sn  Sn124  1  0.94272400  0.66666667  0.12273743  1.0
  Sn  Sn125  1  0.94272400  1.00000000  0.12273743  1.0
  Ni  Ni126  1  0.00000000  0.00000000  0.20757914  1.0
  Ni  Ni127  1  0.00000000  0.33333333  0.20757914  1.0
  Ni  Ni128  1  0.00000000  0.66666667  0.20757914  1.0
  Ni  Ni129  1  0.33333333  0.00000000  0.20757914  1.0
  Ni  Ni130  1  0.33333333  0.33333333  0.20757914  1.0
  Ni  Ni131  1  0.33333333  0.66666667  0.20757914  1.0
  Ni  Ni132  1  0.66666667  0.00000000  0.20757914  1.0
  Ni  Ni133  1  0.66666667  0.33333333  0.20757914  1.0
  Ni  Ni134  1  0.66666667  0.66666667  0.20757914  1.0
  Ni  Ni135  1  0.07195467  0.33333333  0.18354343  1.0
  Ni  Ni136  1  0.07195467  0.66666667  0.18354343  1.0
  Ni  Ni137  1  0.07195467  1.00000000  0.18354343  1.0
  Ni  Ni138  1  0.40528800  0.33333333  0.18354343  1.0
  Ni  Ni139  1  0.40528800  0.66666667  0.18354343  1.0
  Ni  Ni140  1  0.40528800  1.00000000  0.18354343  1.0
  Ni  Ni141  1  0.73862133  0.33333333  0.18354343  1.0
  Ni  Ni142  1  0.73862133  0.66666667  0.18354343  1.0
  Ni  Ni143  1  0.73862133  1.00000000  0.18354343  1.0
  Ni  Ni144  1  0.26137867  0.33333333  0.16018629  1.0
  Ni  Ni145  1  0.26137867  0.66666667  0.16018629  1.0
  Ni  Ni146  1  0.26137867  1.00000000  0.16018629  1.0
  Ni  Ni147  1  0.59471200  0.33333333  0.16018629  1.0
  Ni  Ni148  1  0.59471200  0.66666667  0.16018629  1.0
  Ni  Ni149  1  0.59471200  1.00000000  0.16018629  1.0
  Ni  Ni150  1  0.92804533  0.33333333  0.16018629  1.0
  Ni  Ni151  1  0.92804533  0.66666667  0.16018629  1.0
  Ni  Ni152  1  0.92804533  1.00000000  0.16018629  1.0
  Sn  Sn153  1  0.14275700  0.33333333  0.15847607  1.0
  Sn  Sn154  1  0.14275700  0.66666667  0.15847607  1.0
  Sn  Sn155  1  0.14275700  1.00000000  0.15847607  1.0
  Sn  Sn156  1  0.47609033  0.33333333  0.15847607  1.0
  Sn  Sn157  1  0.47609033  0.66666667  0.15847607  1.0
  Sn  Sn158  1  0.47609033  1.00000000  0.15847607  1.0
  Sn  Sn159  1  0.80942367  0.33333333  0.15847607  1.0
  Sn  Sn160  1  0.80942367  0.66666667  0.15847607  1.0
  Sn  Sn161  1  0.80942367  1.00000000  0.15847607  1.0
  Sn  Sn162  1  0.19057633  0.33333333  0.18525364  1.0
  Sn  Sn163  1  0.19057633  0.66666667  0.18525364  1.0
  Sn  Sn164  1  0.19057633  1.00000000  0.18525364  1.0
  Sn  Sn165  1  0.52390967  0.33333333  0.18525364  1.0
  Sn  Sn166  1  0.52390967  0.66666667  0.18525364  1.0
  Sn  Sn167  1  0.52390967  1.00000000  0.18525364  1.0
  Sn  Sn168  1  0.85724300  0.33333333  0.18525364  1.0
  Sn  Sn169  1  0.85724300  0.66666667  0.18525364  1.0
  Sn  Sn170  1  0.85724300  1.00000000  0.18525364  1.0
  Sn  Sn171  1  0.05727600  0.33333333  0.14956371  1.0
  Sn  Sn172  1  0.05727600  0.66666667  0.14956371  1.0
  Sn  Sn173  1  0.05727600  1.00000000  0.14956371  1.0
  Sn  Sn174  1  0.39060933  0.33333333  0.14956371  1.0
  Sn  Sn175  1  0.39060933  0.66666667  0.14956371  1.0
  Sn  Sn176  1  0.39060933  1.00000000  0.14956371  1.0
  Sn  Sn177  1  0.72394267  0.33333333  0.14956371  1.0
  Sn  Sn178  1  0.72394267  0.66666667  0.14956371  1.0
  Sn  Sn179  1  0.72394267  1.00000000  0.14956371  1.0
  Sn  Sn180  1  0.27605733  0.33333333  0.19416600  1.0
  Sn  Sn181  1  0.27605733  0.66666667  0.19416600  1.0
  Sn  Sn182  1  0.27605733  1.00000000  0.19416600  1.0
  Sn  Sn183  1  0.60939067  0.33333333  0.19416600  1.0
  Sn  Sn184  1  0.60939067  0.66666667  0.19416600  1.0
  Sn  Sn185  1  0.60939067  1.00000000  0.19416600  1.0
  Sn  Sn186  1  0.94272400  0.33333333  0.19416600  1.0
  Sn  Sn187  1  0.94272400  0.66666667  0.19416600  1.0
  Sn  Sn188  1  0.94272400  1.00000000  0.19416600  1.0
  Ni  Ni189  1  0.00000000  0.00000000  0.27900771  1.0
  Ni  Ni190  1  0.00000000  0.33333333  0.27900771  1.0
  Ni  Ni191  1  0.00000000  0.66666667  0.27900771  1.0
  Ni  Ni192  1  0.33333333  0.00000000  0.27900771  1.0
  Ni  Ni193  1  0.33333333  0.33333333  0.27900771  1.0
  Ni  Ni194  1  0.33333333  0.66666667  0.27900771  1.0
  Ni  Ni195  1  0.66666667  0.00000000  0.27900771  1.0
  Ni  Ni196  1  0.66666667  0.33333333  0.27900771  1.0
  Ni  Ni197  1  0.66666667  0.66666667  0.27900771  1.0
  Ni  Ni198  1  0.07195467  0.33333333  0.25497200  1.0
  Ni  Ni199  1  0.07195467  0.66666667  0.25497200  1.0
  Ni  Ni200  1  0.07195467  1.00000000  0.25497200  1.0
  Ni  Ni201  1  0.40528800  0.33333333  0.25497200  1.0
  Ni  Ni202  1  0.40528800  0.66666667  0.25497200  1.0
  Ni  Ni203  1  0.40528800  1.00000000  0.25497200  1.0
  Ni  Ni204  1  0.73862133  0.33333333  0.25497200  1.0
  Ni  Ni205  1  0.73862133  0.66666667  0.25497200  1.0
  Ni  Ni206  1  0.73862133  1.00000000  0.25497200  1.0
  Ni  Ni207  1  0.26137867  0.33333333  0.23161486  1.0
  Ni  Ni208  1  0.26137867  0.66666667  0.23161486  1.0
  Ni  Ni209  1  0.26137867  1.00000000  0.23161486  1.0
  Ni  Ni210  1  0.59471200  0.33333333  0.23161486  1.0
  Ni  Ni211  1  0.59471200  0.66666667  0.23161486  1.0
  Ni  Ni212  1  0.59471200  1.00000000  0.23161486  1.0
  Ni  Ni213  1  0.92804533  0.33333333  0.23161486  1.0
  Ni  Ni214  1  0.92804533  0.66666667  0.23161486  1.0
  Ni  Ni215  1  0.92804533  1.00000000  0.23161486  1.0
  Sn  Sn216  1  0.14275700  0.33333333  0.22990464  1.0
  Sn  Sn217  1  0.14275700  0.66666667  0.22990464  1.0
  Sn  Sn218  1  0.14275700  1.00000000  0.22990464  1.0
  Sn  Sn219  1  0.47609033  0.33333333  0.22990464  1.0
  Sn  Sn220  1  0.47609033  0.66666667  0.22990464  1.0
  Sn  Sn221  1  0.47609033  1.00000000  0.22990464  1.0
  Sn  Sn222  1  0.80942367  0.33333333  0.22990464  1.0
  Sn  Sn223  1  0.80942367  0.66666667  0.22990464  1.0
  Sn  Sn224  1  0.80942367  1.00000000  0.22990464  1.0
  Sn  Sn225  1  0.19057633  0.33333333  0.25668221  1.0
  Sn  Sn226  1  0.19057633  0.66666667  0.25668221  1.0
  Sn  Sn227  1  0.19057633  1.00000000  0.25668221  1.0
  Sn  Sn228  1  0.52390967  0.33333333  0.25668221  1.0
  Sn  Sn229  1  0.52390967  0.66666667  0.25668221  1.0
  Sn  Sn230  1  0.52390967  1.00000000  0.25668221  1.0
  Sn  Sn231  1  0.85724300  0.33333333  0.25668221  1.0
  Sn  Sn232  1  0.85724300  0.66666667  0.25668221  1.0
  Sn  Sn233  1  0.85724300  1.00000000  0.25668221  1.0
  Sn  Sn234  1  0.05727600  0.33333333  0.22099229  1.0
  Sn  Sn235  1  0.05727600  0.66666667  0.22099229  1.0
  Sn  Sn236  1  0.05727600  1.00000000  0.22099229  1.0
  Sn  Sn237  1  0.39060933  0.33333333  0.22099229  1.0
  Sn  Sn238  1  0.39060933  0.66666667  0.22099229  1.0
  Sn  Sn239  1  0.39060933  1.00000000  0.22099229  1.0
  Sn  Sn240  1  0.72394267  0.33333333  0.22099229  1.0
  Sn  Sn241  1  0.72394267  0.66666667  0.22099229  1.0
  Sn  Sn242  1  0.72394267  1.00000000  0.22099229  1.0
  Sn  Sn243  1  0.27605733  0.33333333  0.26559457  1.0
  Sn  Sn244  1  0.27605733  0.66666667  0.26559457  1.0
  Sn  Sn245  1  0.27605733  1.00000000  0.26559457  1.0
  Sn  Sn246  1  0.60939067  0.33333333  0.26559457  1.0
  Sn  Sn247  1  0.60939067  0.66666667  0.26559457  1.0
  Sn  Sn248  1  0.60939067  1.00000000  0.26559457  1.0
  Sn  Sn249  1  0.94272400  0.33333333  0.26559457  1.0
  Sn  Sn250  1  0.94272400  0.66666667  0.26559457  1.0
  Sn  Sn251  1  0.94272400  1.00000000  0.26559457  1.0
  Ni  Ni252  1  0.00000000  0.00000000  0.35043629  1.0
  Ni  Ni253  1  0.00000000  0.33333333  0.35043629  1.0
  Ni  Ni254  1  0.00000000  0.66666667  0.35043629  1.0
  Ni  Ni255  1  0.33333333  0.00000000  0.35043629  1.0
  Ni  Ni256  1  0.33333333  0.33333333  0.35043629  1.0
  Ni  Ni257  1  0.33333333  0.66666667  0.35043629  1.0
  Ni  Ni258  1  0.66666667  0.00000000  0.35043629  1.0
  Ni  Ni259  1  0.66666667  0.33333333  0.35043629  1.0
  Ni  Ni260  1  0.66666667  0.66666667  0.35043629  1.0
  Ni  Ni261  1  0.07195467  0.33333333  0.32640057  1.0
  Ni  Ni262  1  0.07195467  0.66666667  0.32640057  1.0
  Ni  Ni263  1  0.07195467  1.00000000  0.32640057  1.0
  Ni  Ni264  1  0.40528800  0.33333333  0.32640057  1.0
  Ni  Ni265  1  0.40528800  0.66666667  0.32640057  1.0
  Ni  Ni266  1  0.40528800  1.00000000  0.32640057  1.0
  Ni  Ni267  1  0.73862133  0.33333333  0.32640057  1.0
  Ni  Ni268  1  0.73862133  0.66666667  0.32640057  1.0
  Ni  Ni269  1  0.73862133  1.00000000  0.32640057  1.0
  Ni  Ni270  1  0.26137867  0.33333333  0.30304343  1.0
  Ni  Ni271  1  0.26137867  0.66666667  0.30304343  1.0
  Ni  Ni272  1  0.26137867  1.00000000  0.30304343  1.0
  Ni  Ni273  1  0.59471200  0.33333333  0.30304343  1.0
  Ni  Ni274  1  0.59471200  0.66666667  0.30304343  1.0
  Ni  Ni275  1  0.59471200  1.00000000  0.30304343  1.0
  Ni  Ni276  1  0.92804533  0.33333333  0.30304343  1.0
  Ni  Ni277  1  0.92804533  0.66666667  0.30304343  1.0
  Ni  Ni278  1  0.92804533  1.00000000  0.30304343  1.0
  Sn  Sn279  1  0.14275700  0.33333333  0.30133321  1.0
  Sn  Sn280  1  0.14275700  0.66666667  0.30133321  1.0
  Sn  Sn281  1  0.14275700  1.00000000  0.30133321  1.0
  Sn  Sn282  1  0.47609033  0.33333333  0.30133321  1.0
  Sn  Sn283  1  0.47609033  0.66666667  0.30133321  1.0
  Sn  Sn284  1  0.47609033  1.00000000  0.30133321  1.0
  Sn  Sn285  1  0.80942367  0.33333333  0.30133321  1.0
  Sn  Sn286  1  0.80942367  0.66666667  0.30133321  1.0
  Sn  Sn287  1  0.80942367  1.00000000  0.30133321  1.0
  Sn  Sn288  1  0.19057633  0.33333333  0.32811079  1.0
  Sn  Sn289  1  0.19057633  0.66666667  0.32811079  1.0
  Sn  Sn290  1  0.19057633  1.00000000  0.32811079  1.0
  Sn  Sn291  1  0.52390967  0.33333333  0.32811079  1.0
  Sn  Sn292  1  0.52390967  0.66666667  0.32811079  1.0
  Sn  Sn293  1  0.52390967  1.00000000  0.32811079  1.0
  Sn  Sn294  1  0.85724300  0.33333333  0.32811079  1.0
  Sn  Sn295  1  0.85724300  0.66666667  0.32811079  1.0
  Sn  Sn296  1  0.85724300  1.00000000  0.32811079  1.0
  Sn  Sn297  1  0.05727600  0.33333333  0.29242086  1.0
  Sn  Sn298  1  0.05727600  0.66666667  0.29242086  1.0
  Sn  Sn299  1  0.05727600  1.00000000  0.29242086  1.0
  Sn  Sn300  1  0.39060933  0.33333333  0.29242086  1.0
  Sn  Sn301  1  0.39060933  0.66666667  0.29242086  1.0
  Sn  Sn302  1  0.39060933  1.00000000  0.29242086  1.0
  Sn  Sn303  1  0.72394267  0.33333333  0.29242086  1.0
  Sn  Sn304  1  0.72394267  0.66666667  0.29242086  1.0
  Sn  Sn305  1  0.72394267  1.00000000  0.29242086  1.0
  Sn  Sn306  1  0.27605733  0.33333333  0.33702314  1.0
  Sn  Sn307  1  0.27605733  0.66666667  0.33702314  1.0
  Sn  Sn308  1  0.27605733  1.00000000  0.33702314  1.0
  Sn  Sn309  1  0.60939067  0.33333333  0.33702314  1.0
  Sn  Sn310  1  0.60939067  0.66666667  0.33702314  1.0
  Sn  Sn311  1  0.60939067  1.00000000  0.33702314  1.0
  Sn  Sn312  1  0.94272400  0.33333333  0.33702314  1.0
  Sn  Sn313  1  0.94272400  0.66666667  0.33702314  1.0
  Sn  Sn314  1  0.94272400  1.00000000  0.33702314  1.0
  Ni  Ni315  1  0.00000000  0.00000000  0.42186486  1.0
  Ni  Ni316  1  0.00000000  0.33333333  0.42186486  1.0
  Ni  Ni317  1  0.00000000  0.66666667  0.42186486  1.0
  Ni  Ni318  1  0.33333333  0.00000000  0.42186486  1.0
  Ni  Ni319  1  0.33333333  0.33333333  0.42186486  1.0
  Ni  Ni320  1  0.33333333  0.66666667  0.42186486  1.0
  Ni  Ni321  1  0.66666667  0.00000000  0.42186486  1.0
  Ni  Ni322  1  0.66666667  0.33333333  0.42186486  1.0
  Ni  Ni323  1  0.66666667  0.66666667  0.42186486  1.0
  Ni  Ni324  1  0.07195467  0.33333333  0.39782914  1.0
  Ni  Ni325  1  0.07195467  0.66666667  0.39782914  1.0
  Ni  Ni326  1  0.07195467  1.00000000  0.39782914  1.0
  Ni  Ni327  1  0.40528800  0.33333333  0.39782914  1.0
  Ni  Ni328  1  0.40528800  0.66666667  0.39782914  1.0
  Ni  Ni329  1  0.40528800  1.00000000  0.39782914  1.0
  Ni  Ni330  1  0.73862133  0.33333333  0.39782914  1.0
  Ni  Ni331  1  0.73862133  0.66666667  0.39782914  1.0
  Ni  Ni332  1  0.73862133  1.00000000  0.39782914  1.0
  Ni  Ni333  1  0.26137867  0.33333333  0.37447200  1.0
  Ni  Ni334  1  0.26137867  0.66666667  0.37447200  1.0
  Ni  Ni335  1  0.26137867  1.00000000  0.37447200  1.0
  Ni  Ni336  1  0.59471200  0.33333333  0.37447200  1.0
  Ni  Ni337  1  0.59471200  0.66666667  0.37447200  1.0
  Ni  Ni338  1  0.59471200  1.00000000  0.37447200  1.0
  Ni  Ni339  1  0.92804533  0.33333333  0.37447200  1.0
  Ni  Ni340  1  0.92804533  0.66666667  0.37447200  1.0
  Ni  Ni341  1  0.92804533  1.00000000  0.37447200  1.0
  Sn  Sn342  1  0.14275700  0.33333333  0.37276179  1.0
  Sn  Sn343  1  0.14275700  0.66666667  0.37276179  1.0
  Sn  Sn344  1  0.14275700  1.00000000  0.37276179  1.0
  Sn  Sn345  1  0.47609033  0.33333333  0.37276179  1.0
  Sn  Sn346  1  0.47609033  0.66666667  0.37276179  1.0
  Sn  Sn347  1  0.47609033  1.00000000  0.37276179  1.0
  Sn  Sn348  1  0.80942367  0.33333333  0.37276179  1.0
  Sn  Sn349  1  0.80942367  0.66666667  0.37276179  1.0
  Sn  Sn350  1  0.80942367  1.00000000  0.37276179  1.0
  Sn  Sn351  1  0.19057633  0.33333333  0.39953936  1.0
  Sn  Sn352  1  0.19057633  0.66666667  0.39953936  1.0
  Sn  Sn353  1  0.19057633  1.00000000  0.39953936  1.0
  Sn  Sn354  1  0.52390967  0.33333333  0.39953936  1.0
  Sn  Sn355  1  0.52390967  0.66666667  0.39953936  1.0
  Sn  Sn356  1  0.52390967  1.00000000  0.39953936  1.0
  Sn  Sn357  1  0.85724300  0.33333333  0.39953936  1.0
  Sn  Sn358  1  0.85724300  0.66666667  0.39953936  1.0
  Sn  Sn359  1  0.85724300  1.00000000  0.39953936  1.0
  Sn  Sn360  1  0.05727600  0.33333333  0.36384943  1.0
  Sn  Sn361  1  0.05727600  0.66666667  0.36384943  1.0
  Sn  Sn362  1  0.05727600  1.00000000  0.36384943  1.0
  Sn  Sn363  1  0.39060933  0.33333333  0.36384943  1.0
  Sn  Sn364  1  0.39060933  0.66666667  0.36384943  1.0
  Sn  Sn365  1  0.39060933  1.00000000  0.36384943  1.0
  Sn  Sn366  1  0.72394267  0.33333333  0.36384943  1.0
  Sn  Sn367  1  0.72394267  0.66666667  0.36384943  1.0
  Sn  Sn368  1  0.72394267  1.00000000  0.36384943  1.0
  Sn  Sn369  1  0.27605733  0.33333333  0.40845171  1.0
  Sn  Sn370  1  0.27605733  0.66666667  0.40845171  1.0
  Sn  Sn371  1  0.27605733  1.00000000  0.40845171  1.0
  Sn  Sn372  1  0.60939067  0.33333333  0.40845171  1.0
  Sn  Sn373  1  0.60939067  0.66666667  0.40845171  1.0
  Sn  Sn374  1  0.60939067  1.00000000  0.40845171  1.0
  Sn  Sn375  1  0.94272400  0.33333333  0.40845171  1.0
  Sn  Sn376  1  0.94272400  0.66666667  0.40845171  1.0
  Sn  Sn377  1  0.94272400  1.00000000  0.40845171  1.0
