# generated using pymatgen
data_Ni3Sn4
_symmetry_space_group_name_H-M   'P 1'
_cell_length_a   26.05229792
_cell_length_b   27.92291896
_cell_length_c   42.16363488
_cell_angle_alpha   137.65726251
_cell_angle_beta   79.32186432
_cell_angle_gamma   114.57372245
_symmetry_Int_Tables_number   1
_chemical_formula_structural   Ni3Sn4
_chemical_formula_sum   'Ni162 Sn216'
_cell_volume   18411.53667016
_cell_formula_units_Z   54
loop_
 _symmetry_equiv_pos_site_id
 _symmetry_equiv_pos_as_xyz
  1  'x, y, z'
loop_
 _atom_site_type_symbol
 _atom_site_label
 _atom_site_symmetry_multiplicity
 _atom_site_fract_x
 _atom_site_fract_y
 _atom_site_fract_z
 _atom_site_occupancy
  Ni  Ni0  1  0.16666667  0.16666667  0.05812762  1.0
  Ni  Ni1  1  0.16666667  0.50000000  0.05812763  1.0
  Ni  Ni2  1  0.16666667  0.83333333  0.05812762  1.0
  Ni  Ni3  1  0.50000000  0.16666667  0.05812762  1.0
  Ni  Ni4  1  0.50000000  0.50000000  0.05812762  1.0
  Ni  Ni5  1  0.50000000  0.83333333  0.05812762  1.0
  Ni  Ni6  1  0.83333333  0.16666667  0.05812762  1.0
  Ni  Ni7  1  0.83333333  0.50000000  0.05812763  1.0
  Ni  Ni8  1  0.83333333  0.83333333  0.05812762  1.0
  Ni  Ni9  1  0.00000000  0.00000000  0.12062762  1.0
  Ni  Ni10  1  0.00000000  0.33333333  0.12062762  1.0
  Ni  Ni11  1  0.00000000  0.66666667  0.12062762  1.0
  Ni  Ni12  1  0.33333333  0.00000000  0.12062762  1.0
  Ni  Ni13  1  0.33333333  0.33333333  0.12062762  1.0
  Ni  Ni14  1  0.33333333  0.66666667  0.12062762  1.0
  Ni  Ni15  1  0.66666667  0.00000000  0.12062763  1.0
  Ni  Ni16  1  0.66666667  0.33333333  0.12062762  1.0
  Ni  Ni17  1  0.66666667  0.66666667  0.12062762  1.0
  Ni  Ni18  1  0.13068933  0.27459867  0.01566462  1.0
  Ni  Ni19  1  0.13068933  0.60793200  0.01566462  1.0
  Ni  Ni20  1  0.13068933  0.94126533  0.01566463  1.0
  Ni  Ni21  1  0.46402267  0.27459867  0.01566462  1.0
  Ni  Ni22  1  0.46402267  0.60793200  0.01566462  1.0
  Ni  Ni23  1  0.46402267  0.94126533  0.01566463  1.0
  Ni  Ni24  1  0.79735600  0.27459867  0.01566462  1.0
  Ni  Ni25  1  0.79735600  0.60793200  0.01566462  1.0
  Ni  Ni26  1  0.79735600  0.94126533  0.01566463  1.0
  Ni  Ni27  1  0.29735600  0.10793200  0.07816462  1.0
  Ni  Ni28  1  0.29735600  0.44126533  0.07816463  1.0
  Ni  Ni29  1  0.29735600  0.77459867  0.07816462  1.0
  Ni  Ni30  1  0.63068933  0.10793200  0.07816462  1.0
  Ni  Ni31  1  0.63068933  0.44126533  0.07816463  1.0
  Ni  Ni32  1  0.63068933  0.77459867  0.07816462  1.0
  Ni  Ni33  1  0.96402267  0.10793200  0.07816462  1.0
  Ni  Ni34  1  0.96402267  0.44126533  0.07816463  1.0
  Ni  Ni35  1  0.96402267  0.77459867  0.07816462  1.0
  Ni  Ni36  1  0.03597733  0.22540133  0.03809062  1.0
  Ni  Ni37  1  0.03597733  0.55873467  0.03809062  1.0
  Ni  Ni38  1  0.03597733  0.89206800  0.03809062  1.0
  Ni  Ni39  1  0.36931067  0.22540133  0.03809062  1.0
  Ni  Ni40  1  0.36931067  0.55873467  0.03809062  1.0
  Ni  Ni41  1  0.36931067  0.89206800  0.03809062  1.0
  Ni  Ni42  1  0.70264400  0.22540133  0.03809062  1.0
  Ni  Ni43  1  0.70264400  0.55873467  0.03809062  1.0
  Ni  Ni44  1  0.70264400  0.89206800  0.03809062  1.0
  Ni  Ni45  1  0.20264400  0.05873467  0.10059063  1.0
  Ni  Ni46  1  0.20264400  0.39206800  0.10059063  1.0
  Ni  Ni47  1  0.20264400  0.72540133  0.10059062  1.0
  Ni  Ni48  1  0.53597733  0.05873467  0.10059063  1.0
  Ni  Ni49  1  0.53597733  0.39206800  0.10059063  1.0
  Ni  Ni50  1  0.53597733  0.72540133  0.10059062  1.0
  Ni  Ni51  1  0.86931067  0.05873467  0.10059063  1.0
  Ni  Ni52  1  0.86931067  0.39206800  0.10059063  1.0
  Ni  Ni53  1  0.86931067  0.72540133  0.10059063  1.0
  Sn  Sn54  1  0.09528817  0.04746883  0.09935881  1.0
  Sn  Sn55  1  0.09528817  0.38080217  0.09935881  1.0
  Sn  Sn56  1  0.09528817  0.71413550  0.09935881  1.0
  Sn  Sn57  1  0.42862150  0.04746883  0.09935881  1.0
  Sn  Sn58  1  0.42862150  0.38080217  0.09935881  1.0
  Sn  Sn59  1  0.42862150  0.71413550  0.09935881  1.0
  Sn  Sn60  1  0.76195483  0.04746883  0.09935881  1.0
  Sn  Sn61  1  0.76195483  0.38080217  0.09935881  1.0
  Sn  Sn62  1  0.76195483  0.71413550  0.09935881  1.0
  Sn  Sn63  1  0.26195483  0.21413550  0.03685881  1.0
  Sn  Sn64  1  0.26195483  0.54746883  0.03685881  1.0
  Sn  Sn65  1  0.26195483  0.88080217  0.03685881  1.0
  Sn  Sn66  1  0.59528817  0.21413550  0.03685881  1.0
  Sn  Sn67  1  0.59528817  0.54746883  0.03685881  1.0
  Sn  Sn68  1  0.59528817  0.88080217  0.03685881  1.0
  Sn  Sn69  1  0.92862150  0.21413550  0.03685881  1.0
  Sn  Sn70  1  0.92862150  0.54746883  0.03685881  1.0
  Sn  Sn71  1  0.92862150  0.88080217  0.03685881  1.0
  Sn  Sn72  1  0.07137850  0.11919783  0.07939644  1.0
  Sn  Sn73  1  0.07137850  0.45253117  0.07939644  1.0
  Sn  Sn74  1  0.07137850  0.78586450  0.07939644  1.0
  Sn  Sn75  1  0.40471183  0.11919783  0.07939644  1.0
  Sn  Sn76  1  0.40471183  0.45253117  0.07939644  1.0
  Sn  Sn77  1  0.40471183  0.78586450  0.07939644  1.0
  Sn  Sn78  1  0.73804517  0.11919783  0.07939644  1.0
  Sn  Sn79  1  0.73804517  0.45253117  0.07939644  1.0
  Sn  Sn80  1  0.73804517  0.78586450  0.07939644  1.0
  Sn  Sn81  1  0.23804517  0.28586450  0.01689644  1.0
  Sn  Sn82  1  0.23804517  0.61919783  0.01689644  1.0
  Sn  Sn83  1  0.23804517  0.95253117  0.01689644  1.0
  Sn  Sn84  1  0.57137850  0.28586450  0.01689644  1.0
  Sn  Sn85  1  0.57137850  0.61919783  0.01689644  1.0
  Sn  Sn86  1  0.57137850  0.95253117  0.01689644  1.0
  Sn  Sn87  1  0.90471183  0.28586450  0.01689644  1.0
  Sn  Sn88  1  0.90471183  0.61919783  0.01689644  1.0
  Sn  Sn89  1  0.90471183  0.95253117  0.01689644  1.0
  Sn  Sn90  1  0.13802867  0.25258067  0.06687238  1.0
  Sn  Sn91  1  0.13802867  0.58591400  0.06687237  1.0
  Sn  Sn92  1  0.13802867  0.91924733  0.06687238  1.0
  Sn  Sn93  1  0.47136200  0.25258067  0.06687238  1.0
  Sn  Sn94  1  0.47136200  0.58591400  0.06687237  1.0
  Sn  Sn95  1  0.47136200  0.91924733  0.06687238  1.0
  Sn  Sn96  1  0.80469533  0.25258067  0.06687238  1.0
  Sn  Sn97  1  0.80469533  0.58591400  0.06687237  1.0
  Sn  Sn98  1  0.80469533  0.91924733  0.06687238  1.0
  Sn  Sn99  1  0.30469533  0.08591400  0.00437237  1.0
  Sn  Sn100  1  0.30469533  0.41924733  0.00437237  1.0
  Sn  Sn101  1  0.30469533  0.75258067  0.00437237  1.0
  Sn  Sn102  1  0.63802867  0.08591400  0.00437238  1.0
  Sn  Sn103  1  0.63802867  0.41924733  0.00437237  1.0
  Sn  Sn104  1  0.63802867  0.75258067  0.00437237  1.0
  Sn  Sn105  1  0.97136200  0.08591400  0.00437237  1.0
  Sn  Sn106  1  0.97136200  0.41924733  0.00437237  1.0
  Sn  Sn107  1  0.97136200  0.75258067  0.00437237  1.0
  Sn  Sn108  1  0.02863800  0.24741933  0.11188287  1.0
  Sn  Sn109  1  0.02863800  0.58075267  0.11188288  1.0
  Sn  Sn110  1  0.02863800  0.91408600  0.11188287  1.0
  Sn  Sn111  1  0.36197133  0.24741933  0.11188287  1.0
  Sn  Sn112  1  0.36197133  0.58075267  0.11188287  1.0
  Sn  Sn113  1  0.36197133  0.91408600  0.11188287  1.0
  Sn  Sn114  1  0.69530467  0.24741933  0.11188288  1.0
  Sn  Sn115  1  0.69530467  0.58075267  0.11188288  1.0
  Sn  Sn116  1  0.69530467  0.91408600  0.11188287  1.0
  Sn  Sn117  1  0.19530467  0.08075267  0.04938287  1.0
  Sn  Sn118  1  0.19530467  0.41408600  0.04938287  1.0
  Sn  Sn119  1  0.19530467  0.74741933  0.04938287  1.0
  Sn  Sn120  1  0.52863800  0.08075267  0.04938287  1.0
  Sn  Sn121  1  0.52863800  0.41408600  0.04938287  1.0
  Sn  Sn122  1  0.52863800  0.74741933  0.04938287  1.0
  Sn  Sn123  1  0.86197133  0.08075267  0.04938287  1.0
  Sn  Sn124  1  0.86197133  0.41408600  0.04938287  1.0
  Sn  Sn125  1  0.86197133  0.74741933  0.04938287  1.0
  Ni  Ni126  1  0.16666667  0.16666667  0.18312762  1.0
  Ni  Ni127  1  0.16666667  0.50000000  0.18312763  1.0
  Ni  Ni128  1  0.16666667  0.83333333  0.18312762  1.0
  Ni  Ni129  1  0.50000000  0.16666667  0.18312762  1.0
  Ni  Ni130  1  0.50000000  0.50000000  0.18312762  1.0
  Ni  Ni131  1  0.50000000  0.83333333  0.18312762  1.0
  Ni  Ni132  1  0.83333333  0.16666667  0.18312762  1.0
  Ni  Ni133  1  0.83333333  0.50000000  0.18312763  1.0
  Ni  Ni134  1  0.83333333  0.83333333  0.18312762  1.0
  Ni  Ni135  1  0.00000000  0.00000000  0.24562763  1.0
  Ni  Ni136  1  0.00000000  0.33333333  0.24562762  1.0
  Ni  Ni137  1  0.00000000  0.66666667  0.24562762  1.0
  Ni  Ni138  1  0.33333333  0.00000000  0.24562763  1.0
  Ni  Ni139  1  0.33333333  0.33333333  0.24562763  1.0
  Ni  Ni140  1  0.33333333  0.66666667  0.24562762  1.0
  Ni  Ni141  1  0.66666667  0.00000000  0.24562763  1.0
  Ni  Ni142  1  0.66666667  0.33333333  0.24562763  1.0
  Ni  Ni143  1  0.66666667  0.66666667  0.24562762  1.0
  Ni  Ni144  1  0.13068933  0.27459867  0.14066462  1.0
  Ni  Ni145  1  0.13068933  0.60793200  0.14066462  1.0
  Ni  Ni146  1  0.13068933  0.94126533  0.14066462  1.0
  Ni  Ni147  1  0.46402267  0.27459867  0.14066462  1.0
  Ni  Ni148  1  0.46402267  0.60793200  0.14066462  1.0
  Ni  Ni149  1  0.46402267  0.94126533  0.14066462  1.0
  Ni  Ni150  1  0.79735600  0.27459867  0.14066462  1.0
  Ni  Ni151  1  0.79735600  0.60793200  0.14066462  1.0
  Ni  Ni152  1  0.79735600  0.94126533  0.14066462  1.0
  Ni  Ni153  1  0.29735600  0.10793200  0.20316462  1.0
  Ni  Ni154  1  0.29735600  0.44126533  0.20316463  1.0
  Ni  Ni155  1  0.29735600  0.77459867  0.20316462  1.0
  Ni  Ni156  1  0.63068933  0.10793200  0.20316463  1.0
  Ni  Ni157  1  0.63068933  0.44126533  0.20316462  1.0
  Ni  Ni158  1  0.63068933  0.77459867  0.20316462  1.0
  Ni  Ni159  1  0.96402267  0.10793200  0.20316463  1.0
  Ni  Ni160  1  0.96402267  0.44126533  0.20316462  1.0
  Ni  Ni161  1  0.96402267  0.77459867  0.20316462  1.0
  Ni  Ni162  1  0.03597733  0.22540133  0.16309062  1.0
  Ni  Ni163  1  0.03597733  0.55873467  0.16309062  1.0
  Ni  Ni164  1  0.03597733  0.89206800  0.16309062  1.0
  Ni  Ni165  1  0.36931067  0.22540133  0.16309062  1.0
  Ni  Ni166  1  0.36931067  0.55873467  0.16309062  1.0
  Ni  Ni167  1  0.36931067  0.89206800  0.16309062  1.0
  Ni  Ni168  1  0.70264400  0.22540133  0.16309062  1.0
  Ni  Ni169  1  0.70264400  0.55873467  0.16309062  1.0
  Ni  Ni170  1  0.70264400  0.89206800  0.16309062  1.0
  Ni  Ni171  1  0.20264400  0.05873467  0.22559062  1.0
  Ni  Ni172  1  0.20264400  0.39206800  0.22559062  1.0
  Ni  Ni173  1  0.20264400  0.72540133  0.22559062  1.0
  Ni  Ni174  1  0.53597733  0.05873467  0.22559062  1.0
  Ni  Ni175  1  0.53597733  0.39206800  0.22559062  1.0
  Ni  Ni176  1  0.53597733  0.72540133  0.22559062  1.0
  Ni  Ni177  1  0.86931067  0.05873467  0.22559062  1.0
  Ni  Ni178  1  0.86931067  0.39206800  0.22559062  1.0
  Ni  Ni179  1  0.86931067  0.72540133  0.22559062  1.0
  Sn  Sn180  1  0.09528817  0.04746883  0.22435881  1.0
  Sn  Sn181  1  0.09528817  0.38080217  0.22435881  1.0
  Sn  Sn182  1  0.09528817  0.71413550  0.22435881  1.0
  Sn  Sn183  1  0.42862150  0.04746883  0.22435881  1.0
  Sn  Sn184  1  0.42862150  0.38080217  0.22435881  1.0
  Sn  Sn185  1  0.42862150  0.71413550  0.22435881  1.0
  Sn  Sn186  1  0.76195483  0.04746883  0.22435881  1.0
  Sn  Sn187  1  0.76195483  0.38080217  0.22435881  1.0
  Sn  Sn188  1  0.76195483  0.71413550  0.22435881  1.0
  Sn  Sn189  1  0.26195483  0.21413550  0.16185881  1.0
  Sn  Sn190  1  0.26195483  0.54746883  0.16185881  1.0
  Sn  Sn191  1  0.26195483  0.88080217  0.16185881  1.0
  Sn  Sn192  1  0.59528817  0.21413550  0.16185881  1.0
  Sn  Sn193  1  0.59528817  0.54746883  0.16185881  1.0
  Sn  Sn194  1  0.59528817  0.88080217  0.16185881  1.0
  Sn  Sn195  1  0.92862150  0.21413550  0.16185881  1.0
  Sn  Sn196  1  0.92862150  0.54746883  0.16185881  1.0
  Sn  Sn197  1  0.92862150  0.88080217  0.16185881  1.0
  Sn  Sn198  1  0.07137850  0.11919783  0.20439644  1.0
  Sn  Sn199  1  0.07137850  0.45253117  0.20439644  1.0
  Sn  Sn200  1  0.07137850  0.78586450  0.20439644  1.0
  Sn  Sn201  1  0.40471183  0.11919783  0.20439644  1.0
  Sn  Sn202  1  0.40471183  0.45253117  0.20439644  1.0
  Sn  Sn203  1  0.40471183  0.78586450  0.20439644  1.0
  Sn  Sn204  1  0.73804517  0.11919783  0.20439644  1.0
  Sn  Sn205  1  0.73804517  0.45253117  0.20439644  1.0
  Sn  Sn206  1  0.73804517  0.78586450  0.20439644  1.0
  Sn  Sn207  1  0.23804517  0.28586450  0.14189644  1.0
  Sn  Sn208  1  0.23804517  0.61919783  0.14189644  1.0
  Sn  Sn209  1  0.23804517  0.95253117  0.14189644  1.0
  Sn  Sn210  1  0.57137850  0.28586450  0.14189644  1.0
  Sn  Sn211  1  0.57137850  0.61919783  0.14189644  1.0
  Sn  Sn212  1  0.57137850  0.95253117  0.14189644  1.0
  Sn  Sn213  1  0.90471183  0.28586450  0.14189644  1.0
  Sn  Sn214  1  0.90471183  0.61919783  0.14189644  1.0
  Sn  Sn215  1  0.90471183  0.95253117  0.14189644  1.0
  Sn  Sn216  1  0.13802867  0.25258067  0.19187237  1.0
  Sn  Sn217  1  0.13802867  0.58591400  0.19187237  1.0
  Sn  Sn218  1  0.13802867  0.91924733  0.19187238  1.0
  Sn  Sn219  1  0.47136200  0.25258067  0.19187238  1.0
  Sn  Sn220  1  0.47136200  0.58591400  0.19187237  1.0
  Sn  Sn221  1  0.47136200  0.91924733  0.19187238  1.0
  Sn  Sn222  1  0.80469533  0.25258067  0.19187237  1.0
  Sn  Sn223  1  0.80469533  0.58591400  0.19187237  1.0
  Sn  Sn224  1  0.80469533  0.91924733  0.19187238  1.0
  Sn  Sn225  1  0.30469533  0.08591400  0.12937237  1.0
  Sn  Sn226  1  0.30469533  0.41924733  0.12937237  1.0
  Sn  Sn227  1  0.30469533  0.75258067  0.12937237  1.0
  Sn  Sn228  1  0.63802867  0.08591400  0.12937237  1.0
  Sn  Sn229  1  0.63802867  0.41924733  0.12937237  1.0
  Sn  Sn230  1  0.63802867  0.75258067  0.12937237  1.0
  Sn  Sn231  1  0.97136200  0.08591400  0.12937237  1.0
  Sn  Sn232  1  0.97136200  0.41924733  0.12937237  1.0
  Sn  Sn233  1  0.97136200  0.75258067  0.12937237  1.0
  Sn  Sn234  1  0.02863800  0.24741933  0.23688288  1.0
  Sn  Sn235  1  0.02863800  0.58075267  0.23688288  1.0
  Sn  Sn236  1  0.02863800  0.91408600  0.23688287  1.0
  Sn  Sn237  1  0.36197133  0.24741933  0.23688288  1.0
  Sn  Sn238  1  0.36197133  0.58075267  0.23688288  1.0
  Sn  Sn239  1  0.36197133  0.91408600  0.23688287  1.0
  Sn  Sn240  1  0.69530467  0.24741933  0.23688288  1.0
  Sn  Sn241  1  0.69530467  0.58075267  0.23688288  1.0
  Sn  Sn242  1  0.69530467  0.91408600  0.23688287  1.0
  Sn  Sn243  1  0.19530467  0.08075267  0.17438287  1.0
  Sn  Sn244  1  0.19530467  0.41408600  0.17438287  1.0
  Sn  Sn245  1  0.19530467  0.74741933  0.17438287  1.0
  Sn  Sn246  1  0.52863800  0.08075267  0.17438287  1.0
  Sn  Sn247  1  0.52863800  0.41408600  0.17438287  1.0
  Sn  Sn248  1  0.52863800  0.74741933  0.17438287  1.0
  Sn  Sn249  1  0.86197133  0.08075267  0.17438287  1.0
  Sn  Sn250  1  0.86197133  0.41408600  0.17438287  1.0
  Sn  Sn251  1  0.86197133  0.74741933  0.17438287  1.0
  Ni  Ni252  1  0.16666667  0.16666667  0.30812763  1.0
  Ni  Ni253  1  0.16666667  0.50000000  0.30812763  1.0
  Ni  Ni254  1  0.16666667  0.83333333  0.30812762  1.0
  Ni  Ni255  1  0.50000000  0.16666667  0.30812763  1.0
  Ni  Ni256  1  0.50000000  0.50000000  0.30812763  1.0
  Ni  Ni257  1  0.50000000  0.83333333  0.30812762  1.0
  Ni  Ni258  1  0.83333333  0.16666667  0.30812763  1.0
  Ni  Ni259  1  0.83333333  0.50000000  0.30812763  1.0
  Ni  Ni260  1  0.83333333  0.83333333  0.30812762  1.0
  Ni  Ni261  1  0.00000000  0.00000000  0.37062763  1.0
  Ni  Ni262  1  0.00000000  0.33333333  0.37062763  1.0
  Ni  Ni263  1  0.00000000  0.66666667  0.37062763  1.0
  Ni  Ni264  1  0.33333333  0.00000000  0.37062763  1.0
  Ni  Ni265  1  0.33333333  0.33333333  0.37062763  1.0
  Ni  Ni266  1  0.33333333  0.66666667  0.37062762  1.0
  Ni  Ni267  1  0.66666667  0.00000000  0.37062763  1.0
  Ni  Ni268  1  0.66666667  0.33333333  0.37062763  1.0
  Ni  Ni269  1  0.66666667  0.66666667  0.37062763  1.0
  Ni  Ni270  1  0.13068933  0.27459867  0.26566462  1.0
  Ni  Ni271  1  0.13068933  0.60793200  0.26566462  1.0
  Ni  Ni272  1  0.13068933  0.94126533  0.26566462  1.0
  Ni  Ni273  1  0.46402267  0.27459867  0.26566462  1.0
  Ni  Ni274  1  0.46402267  0.60793200  0.26566462  1.0
  Ni  Ni275  1  0.46402267  0.94126533  0.26566462  1.0
  Ni  Ni276  1  0.79735600  0.27459867  0.26566462  1.0
  Ni  Ni277  1  0.79735600  0.60793200  0.26566462  1.0
  Ni  Ni278  1  0.79735600  0.94126533  0.26566462  1.0
  Ni  Ni279  1  0.29735600  0.10793200  0.32816462  1.0
  Ni  Ni280  1  0.29735600  0.44126533  0.32816462  1.0
  Ni  Ni281  1  0.29735600  0.77459867  0.32816462  1.0
  Ni  Ni282  1  0.63068933  0.10793200  0.32816462  1.0
  Ni  Ni283  1  0.63068933  0.44126533  0.32816462  1.0
  Ni  Ni284  1  0.63068933  0.77459867  0.32816462  1.0
  Ni  Ni285  1  0.96402267  0.10793200  0.32816462  1.0
  Ni  Ni286  1  0.96402267  0.44126533  0.32816463  1.0
  Ni  Ni287  1  0.96402267  0.77459867  0.32816462  1.0
  Ni  Ni288  1  0.03597733  0.22540133  0.28809062  1.0
  Ni  Ni289  1  0.03597733  0.55873467  0.28809062  1.0
  Ni  Ni290  1  0.03597733  0.89206800  0.28809062  1.0
  Ni  Ni291  1  0.36931067  0.22540133  0.28809062  1.0
  Ni  Ni292  1  0.36931067  0.55873467  0.28809062  1.0
  Ni  Ni293  1  0.36931067  0.89206800  0.28809062  1.0
  Ni  Ni294  1  0.70264400  0.22540133  0.28809062  1.0
  Ni  Ni295  1  0.70264400  0.55873467  0.28809062  1.0
  Ni  Ni296  1  0.70264400  0.89206800  0.28809062  1.0
  Ni  Ni297  1  0.20264400  0.05873467  0.35059062  1.0
  Ni  Ni298  1  0.20264400  0.39206800  0.35059063  1.0
  Ni  Ni299  1  0.20264400  0.72540133  0.35059063  1.0
  Ni  Ni300  1  0.53597733  0.05873467  0.35059063  1.0
  Ni  Ni301  1  0.53597733  0.39206800  0.35059063  1.0
  Ni  Ni302  1  0.53597733  0.72540133  0.35059063  1.0
  Ni  Ni303  1  0.86931067  0.05873467  0.35059063  1.0
  Ni  Ni304  1  0.86931067  0.39206800  0.35059063  1.0
  Ni  Ni305  1  0.86931067  0.72540133  0.35059063  1.0
  Sn  Sn306  1  0.09528817  0.04746883  0.34935881  1.0
  Sn  Sn307  1  0.09528817  0.38080217  0.34935881  1.0
  Sn  Sn308  1  0.09528817  0.71413550  0.34935881  1.0
  Sn  Sn309  1  0.42862150  0.04746883  0.34935881  1.0
  Sn  Sn310  1  0.42862150  0.38080217  0.34935881  1.0
  Sn  Sn311  1  0.42862150  0.71413550  0.34935881  1.0
  Sn  Sn312  1  0.76195483  0.04746883  0.34935881  1.0
  Sn  Sn313  1  0.76195483  0.38080217  0.34935881  1.0
  Sn  Sn314  1  0.76195483  0.71413550  0.34935881  1.0
  Sn  Sn315  1  0.26195483  0.21413550  0.28685881  1.0
  Sn  Sn316  1  0.26195483  0.54746883  0.28685881  1.0
  Sn  Sn317  1  0.26195483  0.88080217  0.28685881  1.0
  Sn  Sn318  1  0.59528817  0.21413550  0.28685881  1.0
  Sn  Sn319  1  0.59528817  0.54746883  0.28685881  1.0
  Sn  Sn320  1  0.59528817  0.88080217  0.28685881  1.0
  Sn  Sn321  1  0.92862150  0.21413550  0.28685881  1.0
  Sn  Sn322  1  0.92862150  0.54746883  0.28685881  1.0
  Sn  Sn323  1  0.92862150  0.88080217  0.28685881  1.0
  Sn  Sn324  1  0.07137850  0.11919783  0.32939644  1.0
  Sn  Sn325  1  0.07137850  0.45253117  0.32939644  1.0
  Sn  Sn326  1  0.07137850  0.78586450  0.32939644  1.0
  Sn  Sn327  1  0.40471183  0.11919783  0.32939644  1.0
  Sn  Sn328  1  0.40471183  0.45253117  0.32939644  1.0
  Sn  Sn329  1  0.40471183  0.78586450  0.32939644  1.0
  Sn  Sn330  1  0.73804517  0.11919783  0.32939644  1.0
  Sn  Sn331  1  0.73804517  0.45253117  0.32939644  1.0
  Sn  Sn332  1  0.73804517  0.78586450  0.32939644  1.0
  Sn  Sn333  1  0.23804517  0.28586450  0.26689644  1.0
  Sn  Sn334  1  0.23804517  0.61919783  0.26689644  1.0
  Sn  Sn335  1  0.23804517  0.95253117  0.26689644  1.0
  Sn  Sn336  1  0.57137850  0.28586450  0.26689644  1.0
  Sn  Sn337  1  0.57137850  0.61919783  0.26689644  1.0
  Sn  Sn338  1  0.57137850  0.95253117  0.26689644  1.0
  Sn  Sn339  1  0.90471183  0.28586450  0.26689644  1.0
  Sn  Sn340  1  0.90471183  0.61919783  0.26689644  1.0
  Sn  Sn341  1  0.90471183  0.95253117  0.26689644  1.0
  Sn  Sn342  1  0.13802867  0.25258067  0.31687237  1.0
  Sn  Sn343  1  0.13802867  0.58591400  0.31687237  1.0
  Sn  Sn344  1  0.13802867  0.91924733  0.31687237  1.0
  Sn  Sn345  1  0.47136200  0.25258067  0.31687237  1.0
  Sn  Sn346  1  0.47136200  0.58591400  0.31687237  1.0
  Sn  Sn347  1  0.47136200  0.91924733  0.31687237  1.0
  Sn  Sn348  1  0.80469533  0.25258067  0.31687237  1.0
  Sn  Sn349  1  0.80469533  0.58591400  0.31687237  1.0
  Sn  Sn350  1  0.80469533  0.91924733  0.31687237  1.0
  Sn  Sn351  1  0.30469533  0.08591400  0.25437237  1.0
  Sn  Sn352  1  0.30469533  0.41924733  0.25437237  1.0
  Sn  Sn353  1  0.30469533  0.75258067  0.25437237  1.0
  Sn  Sn354  1  0.63802867  0.08591400  0.25437237  1.0
  Sn  Sn355  1  0.63802867  0.41924733  0.25437237  1.0
  Sn  Sn356  1  0.63802867  0.75258067  0.25437237  1.0
  Sn  Sn357  1  0.97136200  0.08591400  0.25437237  1.0
  Sn  Sn358  1  0.97136200  0.41924733  0.25437237  1.0
  Sn  Sn359  1  0.97136200  0.75258067  0.25437237  1.0
  Sn  Sn360  1  0.02863800  0.24741933  0.36188287  1.0
  Sn  Sn361  1  0.02863800  0.58075267  0.36188287  1.0
  Sn  Sn362  1  0.02863800  0.91408600  0.36188287  1.0
  Sn  Sn363  1  0.36197133  0.24741933  0.36188287  1.0
  Sn  Sn364  1  0.36197133  0.58075267  0.36188287  1.0
  Sn  Sn365  1  0.36197133  0.91408600  0.36188287  1.0
  Sn  Sn366  1  0.69530467  0.24741933  0.36188287  1.0
  Sn  Sn367  1  0.69530467  0.58075267  0.36188288  1.0
  Sn  Sn368  1  0.69530467  0.91408600  0.36188287  1.0
  Sn  Sn369  1  0.19530467  0.08075267  0.29938287  1.0
  Sn  Sn370  1  0.19530467  0.41408600  0.29938287  1.0
  Sn  Sn371  1  0.19530467  0.74741933  0.29938287  1.0
  Sn  Sn372  1  0.52863800  0.08075267  0.29938287  1.0
  Sn  Sn373  1  0.52863800  0.41408600  0.29938287  1.0
  Sn  Sn374  1  0.52863800  0.74741933  0.29938287  1.0
  Sn  Sn375  1  0.86197133  0.08075267  0.29938287  1.0
  Sn  Sn376  1  0.86197133  0.41408600  0.29938287  1.0
  Sn  Sn377  1  0.86197133  0.74741933  0.29938287  1.0
