# generated using pymatgen
data_Ni3Sb
_symmetry_space_group_name_H-M   'P 1'
_cell_length_a   12.77370900
_cell_length_b   13.59590100
_cell_length_c   26.63232000
_cell_angle_alpha   90.00000000
_cell_angle_beta   90.00000000
_cell_angle_gamma   90.00000000
_symmetry_Int_Tables_number   1
_chemical_formula_structural   Ni3Sb
_chemical_formula_sum   'Ni108 Sb36'
_cell_volume   4625.23722400
_cell_formula_units_Z   36
loop_
 _symmetry_equiv_pos_site_id
 _symmetry_equiv_pos_as_xyz
  1  'x, y, z'
loop_
 _atom_site_type_symbol
 _atom_site_label
 _atom_site_symmetry_multiplicity
 _atom_site_fract_x
 _atom_site_fract_y
 _atom_site_fract_z
 _atom_site_occupancy
  Ni  Ni0  1  0.16666667  0.27665700  0.12501130  1.0
  Ni  Ni1  1  0.16666667  0.60999033  0.12501130  1.0
  Ni  Ni2  1  0.16666667  0.94332367  0.12501130  1.0
  Ni  Ni3  1  0.50000000  0.27665700  0.12501130  1.0
  Ni  Ni4  1  0.50000000  0.60999033  0.12501130  1.0
  Ni  Ni5  1  0.50000000  0.94332367  0.12501130  1.0
  Ni  Ni6  1  0.83333333  0.27665700  0.12501130  1.0
  Ni  Ni7  1  0.83333333  0.60999033  0.12501130  1.0
  Ni  Ni8  1  0.83333333  0.94332367  0.12501130  1.0
  Ni  Ni9  1  0.16666667  0.27665700  0.02496610  1.0
  Ni  Ni10  1  0.16666667  0.60999033  0.02496610  1.0
  Ni  Ni11  1  0.16666667  0.94332367  0.02496610  1.0
  Ni  Ni12  1  0.50000000  0.27665700  0.02496610  1.0
  Ni  Ni13  1  0.50000000  0.60999033  0.02496610  1.0
  Ni  Ni14  1  0.50000000  0.94332367  0.02496610  1.0
  Ni  Ni15  1  0.83333333  0.27665700  0.02496610  1.0
  Ni  Ni16  1  0.83333333  0.60999033  0.02496610  1.0
  Ni  Ni17  1  0.83333333  0.94332367  0.02496610  1.0
  Ni  Ni18  1  0.00000000  0.05667633  0.12496610  1.0
  Ni  Ni19  1  0.00000000  0.39000967  0.12496610  1.0
  Ni  Ni20  1  0.00000000  0.72334300  0.12496610  1.0
  Ni  Ni21  1  0.33333333  0.05667633  0.12496610  1.0
  Ni  Ni22  1  0.33333333  0.39000967  0.12496610  1.0
  Ni  Ni23  1  0.33333333  0.72334300  0.12496610  1.0
  Ni  Ni24  1  0.66666667  0.05667633  0.12496610  1.0
  Ni  Ni25  1  0.66666667  0.39000967  0.12496610  1.0
  Ni  Ni26  1  0.66666667  0.72334300  0.12496610  1.0
  Ni  Ni27  1  0.00000000  0.05667633  0.02501130  1.0
  Ni  Ni28  1  0.00000000  0.39000967  0.02501130  1.0
  Ni  Ni29  1  0.00000000  0.72334300  0.02501130  1.0
  Ni  Ni30  1  0.33333333  0.05667633  0.02501130  1.0
  Ni  Ni31  1  0.33333333  0.39000967  0.02501130  1.0
  Ni  Ni32  1  0.33333333  0.72334300  0.02501130  1.0
  Ni  Ni33  1  0.66666667  0.05667633  0.02501130  1.0
  Ni  Ni34  1  0.66666667  0.39000967  0.02501130  1.0
  Ni  Ni35  1  0.66666667  0.72334300  0.02501130  1.0
  Ni  Ni36  1  0.00000000  0.22682800  0.07498870  1.0
  Ni  Ni37  1  0.00000000  0.56016133  0.07498870  1.0
  Ni  Ni38  1  0.00000000  0.89349467  0.07498870  1.0
  Ni  Ni39  1  0.33333333  0.22682800  0.07498870  1.0
  Ni  Ni40  1  0.33333333  0.56016133  0.07498870  1.0
  Ni  Ni41  1  0.33333333  0.89349467  0.07498870  1.0
  Ni  Ni42  1  0.66666667  0.22682800  0.07498870  1.0
  Ni  Ni43  1  0.66666667  0.56016133  0.07498870  1.0
  Ni  Ni44  1  0.66666667  0.89349467  0.07498870  1.0
  Ni  Ni45  1  0.16666667  0.10650533  0.17498870  1.0
  Ni  Ni46  1  0.16666667  0.43983867  0.17498870  1.0
  Ni  Ni47  1  0.16666667  0.77317200  0.17498870  1.0
  Ni  Ni48  1  0.50000000  0.10650533  0.17498870  1.0
  Ni  Ni49  1  0.50000000  0.43983867  0.17498870  1.0
  Ni  Ni50  1  0.50000000  0.77317200  0.17498870  1.0
  Ni  Ni51  1  0.83333333  0.10650533  0.17498870  1.0
  Ni  Ni52  1  0.83333333  0.43983867  0.17498870  1.0
  Ni  Ni53  1  0.83333333  0.77317200  0.17498870  1.0
  Sb  Sb54  1  0.16666667  0.10745600  0.07498870  1.0
  Sb  Sb55  1  0.16666667  0.44078933  0.07498870  1.0
  Sb  Sb56  1  0.16666667  0.77412267  0.07498870  1.0
  Sb  Sb57  1  0.50000000  0.10745600  0.07498870  1.0
  Sb  Sb58  1  0.50000000  0.44078933  0.07498870  1.0
  Sb  Sb59  1  0.50000000  0.77412267  0.07498870  1.0
  Sb  Sb60  1  0.83333333  0.10745600  0.07498870  1.0
  Sb  Sb61  1  0.83333333  0.44078933  0.07498870  1.0
  Sb  Sb62  1  0.83333333  0.77412267  0.07498870  1.0
  Sb  Sb63  1  0.00000000  0.22587733  0.17498870  1.0
  Sb  Sb64  1  0.00000000  0.55921067  0.17498870  1.0
  Sb  Sb65  1  0.00000000  0.89254400  0.17498870  1.0
  Sb  Sb66  1  0.33333333  0.22587733  0.17498870  1.0
  Sb  Sb67  1  0.33333333  0.55921067  0.17498870  1.0
  Sb  Sb68  1  0.33333333  0.89254400  0.17498870  1.0
  Sb  Sb69  1  0.66666667  0.22587733  0.17498870  1.0
  Sb  Sb70  1  0.66666667  0.55921067  0.17498870  1.0
  Sb  Sb71  1  0.66666667  0.89254400  0.17498870  1.0
  Ni  Ni72  1  0.16666667  0.27665700  0.32501130  1.0
  Ni  Ni73  1  0.16666667  0.60999033  0.32501130  1.0
  Ni  Ni74  1  0.16666667  0.94332367  0.32501130  1.0
  Ni  Ni75  1  0.50000000  0.27665700  0.32501130  1.0
  Ni  Ni76  1  0.50000000  0.60999033  0.32501130  1.0
  Ni  Ni77  1  0.50000000  0.94332367  0.32501130  1.0
  Ni  Ni78  1  0.83333333  0.27665700  0.32501130  1.0
  Ni  Ni79  1  0.83333333  0.60999033  0.32501130  1.0
  Ni  Ni80  1  0.83333333  0.94332367  0.32501130  1.0
  Ni  Ni81  1  0.16666667  0.27665700  0.22496610  1.0
  Ni  Ni82  1  0.16666667  0.60999033  0.22496610  1.0
  Ni  Ni83  1  0.16666667  0.94332367  0.22496610  1.0
  Ni  Ni84  1  0.50000000  0.27665700  0.22496610  1.0
  Ni  Ni85  1  0.50000000  0.60999033  0.22496610  1.0
  Ni  Ni86  1  0.50000000  0.94332367  0.22496610  1.0
  Ni  Ni87  1  0.83333333  0.27665700  0.22496610  1.0
  Ni  Ni88  1  0.83333333  0.60999033  0.22496610  1.0
  Ni  Ni89  1  0.83333333  0.94332367  0.22496610  1.0
  Ni  Ni90  1  0.00000000  0.05667633  0.32496610  1.0
  Ni  Ni91  1  0.00000000  0.39000967  0.32496610  1.0
  Ni  Ni92  1  0.00000000  0.72334300  0.32496610  1.0
  Ni  Ni93  1  0.33333333  0.05667633  0.32496610  1.0
  Ni  Ni94  1  0.33333333  0.39000967  0.32496610  1.0
  Ni  Ni95  1  0.33333333  0.72334300  0.32496610  1.0
  Ni  Ni96  1  0.66666667  0.05667633  0.32496610  1.0
  Ni  Ni97  1  0.66666667  0.39000967  0.32496610  1.0
  Ni  Ni98  1  0.66666667  0.72334300  0.32496610  1.0
  Ni  Ni99  1  0.00000000  0.05667633  0.22501130  1.0
  Ni  Ni100  1  0.00000000  0.39000967  0.22501130  1.0
  Ni  Ni101  1  0.00000000  0.72334300  0.22501130  1.0
  Ni  Ni102  1  0.33333333  0.05667633  0.22501130  1.0
  Ni  Ni103  1  0.33333333  0.39000967  0.22501130  1.0
  Ni  Ni104  1  0.33333333  0.72334300  0.22501130  1.0
  Ni  Ni105  1  0.66666667  0.05667633  0.22501130  1.0
  Ni  Ni106  1  0.66666667  0.39000967  0.22501130  1.0
  Ni  Ni107  1  0.66666667  0.72334300  0.22501130  1.0
  Ni  Ni108  1  0.00000000  0.22682800  0.27498870  1.0
  Ni  Ni109  1  0.00000000  0.56016133  0.27498870  1.0
  Ni  Ni110  1  0.00000000  0.89349467  0.27498870  1.0
  Ni  Ni111  1  0.33333333  0.22682800  0.27498870  1.0
  Ni  Ni112  1  0.33333333  0.56016133  0.27498870  1.0
  Ni  Ni113  1  0.33333333  0.89349467  0.27498870  1.0
  Ni  Ni114  1  0.66666667  0.22682800  0.27498870  1.0
  Ni  Ni115  1  0.66666667  0.56016133  0.27498870  1.0
  Ni  Ni116  1  0.66666667  0.89349467  0.27498870  1.0
  Ni  Ni117  1  0.16666667  0.10650533  0.37498870  1.0
  Ni  Ni118  1  0.16666667  0.43983867  0.37498870  1.0
  Ni  Ni119  1  0.16666667  0.77317200  0.37498870  1.0
  Ni  Ni120  1  0.50000000  0.10650533  0.37498870  1.0
  Ni  Ni121  1  0.50000000  0.43983867  0.37498870  1.0
  Ni  Ni122  1  0.50000000  0.77317200  0.37498870  1.0
  Ni  Ni123  1  0.83333333  0.10650533  0.37498870  1.0
  Ni  Ni124  1  0.83333333  0.43983867  0.37498870  1.0
  Ni  Ni125  1  0.83333333  0.77317200  0.37498870  1.0
  Sb  Sb126  1  0.16666667  0.10745600  0.27498870  1.0
  Sb  Sb127  1  0.16666667  0.44078933  0.27498870  1.0
  Sb  Sb128  1  0.16666667  0.77412267  0.27498870  1.0
  Sb  Sb129  1  0.50000000  0.10745600  0.27498870  1.0
  Sb  Sb130  1  0.50000000  0.44078933  0.27498870  1.0
  Sb  Sb131  1  0.50000000  0.77412267  0.27498870  1.0
  Sb  Sb132  1  0.83333333  0.10745600  0.27498870  1.0
  Sb  Sb133  1  0.83333333  0.44078933  0.27498870  1.0
  Sb  Sb134  1  0.83333333  0.77412267  0.27498870  1.0
  Sb  Sb135  1  0.00000000  0.22587733  0.37498870  1.0
  Sb  Sb136  1  0.00000000  0.55921067  0.37498870  1.0
  Sb  Sb137  1  0.00000000  0.89254400  0.37498870  1.0
  Sb  Sb138  1  0.33333333  0.22587733  0.37498870  1.0
  Sb  Sb139  1  0.33333333  0.55921067  0.37498870  1.0
  Sb  Sb140  1  0.33333333  0.89254400  0.37498870  1.0
  Sb  Sb141  1  0.66666667  0.22587733  0.37498870  1.0
  Sb  Sb142  1  0.66666667  0.55921067  0.37498870  1.0
  Sb  Sb143  1  0.66666667  0.89254400  0.37498870  1.0
