# generated using pymatgen
data_Ni3Sn4
_symmetry_space_group_name_H-M   'P 1'
_cell_length_a   20.02101343
_cell_length_b   21.78041209
_cell_length_c   27.36372343
_cell_angle_alpha   96.37234069
_cell_angle_beta   93.54270586
_cell_angle_gamma   103.02145023
_symmetry_Int_Tables_number   1
_chemical_formula_structural   Ni3Sn4
_chemical_formula_sum   'Ni108 Sn144'
_cell_volume   11507.21041885
_cell_formula_units_Z   36
loop_
 _symmetry_equiv_pos_site_id
 _symmetry_equiv_pos_as_xyz
  1  'x, y, z'
loop_
 _atom_site_type_symbol
 _atom_site_label
 _atom_site_symmetry_multiplicity
 _atom_site_fract_x
 _atom_site_fract_y
 _atom_site_fract_z
 _atom_site_occupancy
  Ni  Ni0  1  0.27161220  0.14816993  0.81483660  1.0
  Ni  Ni1  1  0.27161220  0.48150327  0.81483660  1.0
  Ni  Ni2  1  0.27161220  0.81483660  0.81483660  1.0
  Ni  Ni3  1  0.60494553  0.14816993  0.81483660  1.0
  Ni  Ni4  1  0.60494553  0.48150327  0.81483660  1.0
  Ni  Ni5  1  0.60494553  0.81483660  0.81483660  1.0
  Ni  Ni6  1  0.93827887  0.14816993  0.81483660  1.0
  Ni  Ni7  1  0.93827887  0.48150327  0.81483660  1.0
  Ni  Ni8  1  0.93827887  0.81483660  0.81483660  1.0
  Ni  Ni9  1  0.13827887  0.08150327  0.91483660  1.0
  Ni  Ni10  1  0.13827887  0.41483660  0.91483660  1.0
  Ni  Ni11  1  0.13827887  0.74816993  0.91483660  1.0
  Ni  Ni12  1  0.47161220  0.08150327  0.91483660  1.0
  Ni  Ni13  1  0.47161220  0.41483660  0.91483660  1.0
  Ni  Ni14  1  0.47161220  0.74816993  0.91483660  1.0
  Ni  Ni15  1  0.80494553  0.08150327  0.91483660  1.0
  Ni  Ni16  1  0.80494553  0.41483660  0.91483660  1.0
  Ni  Ni17  1  0.80494553  0.74816993  0.91483660  1.0
  Ni  Ni18  1  0.12854260  0.20467313  0.94594580  1.0
  Ni  Ni19  1  0.12854260  0.53800647  0.94594580  1.0
  Ni  Ni20  1  0.12854260  0.87133980  0.94594580  1.0
  Ni  Ni21  1  0.46187593  0.20467313  0.94594580  1.0
  Ni  Ni22  1  0.46187593  0.53800647  0.94594580  1.0
  Ni  Ni23  1  0.46187593  0.87133980  0.94594580  1.0
  Ni  Ni24  1  0.79520927  0.20467313  0.94594580  1.0
  Ni  Ni25  1  0.79520927  0.53800647  0.94594580  1.0
  Ni  Ni26  1  0.79520927  0.87133980  0.94594580  1.0
  Ni  Ni27  1  0.26187593  0.27133980  0.84594580  1.0
  Ni  Ni28  1  0.26187593  0.60467313  0.84594580  1.0
  Ni  Ni29  1  0.26187593  0.93800647  0.84594580  1.0
  Ni  Ni30  1  0.59520927  0.27133980  0.84594580  1.0
  Ni  Ni31  1  0.59520927  0.60467313  0.84594580  1.0
  Ni  Ni32  1  0.59520927  0.93800647  0.84594580  1.0
  Ni  Ni33  1  0.92854260  0.27133980  0.84594580  1.0
  Ni  Ni34  1  0.92854260  0.60467313  0.84594580  1.0
  Ni  Ni35  1  0.92854260  0.93800647  0.84594580  1.0
  Ni  Ni36  1  0.14801513  0.29166673  0.88372740  1.0
  Ni  Ni37  1  0.14801513  0.62500007  0.88372740  1.0
  Ni  Ni38  1  0.14801513  0.95833340  0.88372740  1.0
  Ni  Ni39  1  0.48134847  0.29166673  0.88372740  1.0
  Ni  Ni40  1  0.48134847  0.62500007  0.88372740  1.0
  Ni  Ni41  1  0.48134847  0.95833340  0.88372740  1.0
  Ni  Ni42  1  0.81468180  0.29166673  0.88372740  1.0
  Ni  Ni43  1  0.81468180  0.62500007  0.88372740  1.0
  Ni  Ni44  1  0.81468180  0.95833340  0.88372740  1.0
  Ni  Ni45  1  0.01468180  0.22500007  0.98372740  1.0
  Ni  Ni46  1  0.01468180  0.55833340  0.98372740  1.0
  Ni  Ni47  1  0.01468180  0.89166673  0.98372740  1.0
  Ni  Ni48  1  0.34801513  0.22500007  0.98372740  1.0
  Ni  Ni49  1  0.34801513  0.55833340  0.98372740  1.0
  Ni  Ni50  1  0.34801513  0.89166673  0.98372740  1.0
  Ni  Ni51  1  0.68134847  0.22500007  0.98372740  1.0
  Ni  Ni52  1  0.68134847  0.55833340  0.98372740  1.0
  Ni  Ni53  1  0.68134847  0.89166673  0.98372740  1.0
  Ni  Ni54  1  0.20494553  0.28150327  0.61483660  1.0
  Ni  Ni55  1  0.20494553  0.61483660  0.61483660  1.0
  Ni  Ni56  1  0.20494553  0.94816993  0.61483660  1.0
  Ni  Ni57  1  0.53827887  0.28150327  0.61483660  1.0
  Ni  Ni58  1  0.53827887  0.61483660  0.61483660  1.0
  Ni  Ni59  1  0.53827887  0.94816993  0.61483660  1.0
  Ni  Ni60  1  0.87161220  0.28150327  0.61483660  1.0
  Ni  Ni61  1  0.87161220  0.61483660  0.61483660  1.0
  Ni  Ni62  1  0.87161220  0.94816993  0.61483660  1.0
  Ni  Ni63  1  0.07161220  0.21483660  0.71483660  1.0
  Ni  Ni64  1  0.07161220  0.54816993  0.71483660  1.0
  Ni  Ni65  1  0.07161220  0.88150327  0.71483660  1.0
  Ni  Ni66  1  0.40494553  0.21483660  0.71483660  1.0
  Ni  Ni67  1  0.40494553  0.54816993  0.71483660  1.0
  Ni  Ni68  1  0.40494553  0.88150327  0.71483660  1.0
  Ni  Ni69  1  0.73827887  0.21483660  0.71483660  1.0
  Ni  Ni70  1  0.73827887  0.54816993  0.71483660  1.0
  Ni  Ni71  1  0.73827887  0.88150327  0.71483660  1.0
  Ni  Ni72  1  0.06187593  0.00467313  0.74594580  1.0
  Ni  Ni73  1  0.06187593  0.33800647  0.74594580  1.0
  Ni  Ni74  1  0.06187593  0.67133980  0.74594580  1.0
  Ni  Ni75  1  0.39520927  0.00467313  0.74594580  1.0
  Ni  Ni76  1  0.39520927  0.33800647  0.74594580  1.0
  Ni  Ni77  1  0.39520927  0.67133980  0.74594580  1.0
  Ni  Ni78  1  0.72854260  0.00467313  0.74594580  1.0
  Ni  Ni79  1  0.72854260  0.33800647  0.74594580  1.0
  Ni  Ni80  1  0.72854260  0.67133980  0.74594580  1.0
  Ni  Ni81  1  0.19520927  0.07133980  0.64594580  1.0
  Ni  Ni82  1  0.19520927  0.40467313  0.64594580  1.0
  Ni  Ni83  1  0.19520927  0.73800647  0.64594580  1.0
  Ni  Ni84  1  0.52854260  0.07133980  0.64594580  1.0
  Ni  Ni85  1  0.52854260  0.40467313  0.64594580  1.0
  Ni  Ni86  1  0.52854260  0.73800647  0.64594580  1.0
  Ni  Ni87  1  0.86187593  0.07133980  0.64594580  1.0
  Ni  Ni88  1  0.86187593  0.40467313  0.64594580  1.0
  Ni  Ni89  1  0.86187593  0.73800647  0.64594580  1.0
  Ni  Ni90  1  0.08134847  0.09166673  0.68372740  1.0
  Ni  Ni91  1  0.08134847  0.42500007  0.68372740  1.0
  Ni  Ni92  1  0.08134847  0.75833340  0.68372740  1.0
  Ni  Ni93  1  0.41468180  0.09166673  0.68372740  1.0
  Ni  Ni94  1  0.41468180  0.42500007  0.68372740  1.0
  Ni  Ni95  1  0.41468180  0.75833340  0.68372740  1.0
  Ni  Ni96  1  0.74801513  0.09166673  0.68372740  1.0
  Ni  Ni97  1  0.74801513  0.42500007  0.68372740  1.0
  Ni  Ni98  1  0.74801513  0.75833340  0.68372740  1.0
  Ni  Ni99  1  0.28134847  0.02500007  0.78372740  1.0
  Ni  Ni100  1  0.28134847  0.35833340  0.78372740  1.0
  Ni  Ni101  1  0.28134847  0.69166673  0.78372740  1.0
  Ni  Ni102  1  0.61468180  0.02500007  0.78372740  1.0
  Ni  Ni103  1  0.61468180  0.35833340  0.78372740  1.0
  Ni  Ni104  1  0.61468180  0.69166673  0.78372740  1.0
  Ni  Ni105  1  0.94801513  0.02500007  0.78372740  1.0
  Ni  Ni106  1  0.94801513  0.35833340  0.78372740  1.0
  Ni  Ni107  1  0.94801513  0.69166673  0.78372740  1.0
  Sn  Sn108  1  0.11499587  0.32719260  0.97457360  1.0
  Sn  Sn109  1  0.11499587  0.66052593  0.97457360  1.0
  Sn  Sn110  1  0.11499587  0.99385927  0.97457360  1.0
  Sn  Sn111  1  0.44832920  0.32719260  0.97457360  1.0
  Sn  Sn112  1  0.44832920  0.66052593  0.97457360  1.0
  Sn  Sn113  1  0.44832920  0.99385927  0.97457360  1.0
  Sn  Sn114  1  0.78166253  0.32719260  0.97457360  1.0
  Sn  Sn115  1  0.78166253  0.66052593  0.97457360  1.0
  Sn  Sn116  1  0.78166253  0.99385927  0.97457360  1.0
  Sn  Sn117  1  0.24832920  0.06052593  0.87457360  1.0
  Sn  Sn118  1  0.24832920  0.39385927  0.87457360  1.0
  Sn  Sn119  1  0.24832920  0.72719260  0.87457360  1.0
  Sn  Sn120  1  0.58166253  0.06052593  0.87457360  1.0
  Sn  Sn121  1  0.58166253  0.39385927  0.87457360  1.0
  Sn  Sn122  1  0.58166253  0.72719260  0.87457360  1.0
  Sn  Sn123  1  0.91499587  0.06052593  0.87457360  1.0
  Sn  Sn124  1  0.91499587  0.39385927  0.87457360  1.0
  Sn  Sn125  1  0.91499587  0.72719260  0.87457360  1.0
  Sn  Sn126  1  0.16156187  0.16914727  0.85509960  1.0
  Sn  Sn127  1  0.16156187  0.50248060  0.85509960  1.0
  Sn  Sn128  1  0.16156187  0.83581393  0.85509960  1.0
  Sn  Sn129  1  0.49489520  0.16914727  0.85509960  1.0
  Sn  Sn130  1  0.49489520  0.50248060  0.85509960  1.0
  Sn  Sn131  1  0.49489520  0.83581393  0.85509960  1.0
  Sn  Sn132  1  0.82822853  0.16914727  0.85509960  1.0
  Sn  Sn133  1  0.82822853  0.50248060  0.85509960  1.0
  Sn  Sn134  1  0.82822853  0.83581393  0.85509960  1.0
  Sn  Sn135  1  0.02822853  0.10248060  0.95509960  1.0
  Sn  Sn136  1  0.02822853  0.43581393  0.95509960  1.0
  Sn  Sn137  1  0.02822853  0.76914727  0.95509960  1.0
  Sn  Sn138  1  0.36156187  0.10248060  0.95509960  1.0
  Sn  Sn139  1  0.36156187  0.43581393  0.95509960  1.0
  Sn  Sn140  1  0.36156187  0.76914727  0.95509960  1.0
  Sn  Sn141  1  0.69489520  0.10248060  0.95509960  1.0
  Sn  Sn142  1  0.69489520  0.43581393  0.95509960  1.0
  Sn  Sn143  1  0.69489520  0.76914727  0.95509960  1.0
  Sn  Sn144  1  0.02165647  0.21583740  0.88516340  1.0
  Sn  Sn145  1  0.02165647  0.54917073  0.88516340  1.0
  Sn  Sn146  1  0.02165647  0.88250407  0.88516340  1.0
  Sn  Sn147  1  0.35498980  0.21583740  0.88516340  1.0
  Sn  Sn148  1  0.35498980  0.54917073  0.88516340  1.0
  Sn  Sn149  1  0.35498980  0.88250407  0.88516340  1.0
  Sn  Sn150  1  0.68832313  0.21583740  0.88516340  1.0
  Sn  Sn151  1  0.68832313  0.54917073  0.88516340  1.0
  Sn  Sn152  1  0.68832313  0.88250407  0.88516340  1.0
  Sn  Sn153  1  0.22165647  0.14917073  0.98516340  1.0
  Sn  Sn154  1  0.22165647  0.48250407  0.98516340  1.0
  Sn  Sn155  1  0.22165647  0.81583740  0.98516340  1.0
  Sn  Sn156  1  0.55498980  0.14917073  0.98516340  1.0
  Sn  Sn157  1  0.55498980  0.48250407  0.98516340  1.0
  Sn  Sn158  1  0.55498980  0.81583740  0.98516340  1.0
  Sn  Sn159  1  0.88832313  0.14917073  0.98516340  1.0
  Sn  Sn160  1  0.88832313  0.48250407  0.98516340  1.0
  Sn  Sn161  1  0.88832313  0.81583740  0.98516340  1.0
  Sn  Sn162  1  0.25490127  0.28050247  0.94450980  1.0
  Sn  Sn163  1  0.25490127  0.61383580  0.94450980  1.0
  Sn  Sn164  1  0.25490127  0.94716913  0.94450980  1.0
  Sn  Sn165  1  0.58823460  0.28050247  0.94450980  1.0
  Sn  Sn166  1  0.58823460  0.61383580  0.94450980  1.0
  Sn  Sn167  1  0.58823460  0.94716913  0.94450980  1.0
  Sn  Sn168  1  0.92156793  0.28050247  0.94450980  1.0
  Sn  Sn169  1  0.92156793  0.61383580  0.94450980  1.0
  Sn  Sn170  1  0.92156793  0.94716913  0.94450980  1.0
  Sn  Sn171  1  0.05490127  0.01383580  0.84450980  1.0
  Sn  Sn172  1  0.05490127  0.34716913  0.84450980  1.0
  Sn  Sn173  1  0.05490127  0.68050247  0.84450980  1.0
  Sn  Sn174  1  0.38823460  0.01383580  0.84450980  1.0
  Sn  Sn175  1  0.38823460  0.34716913  0.84450980  1.0
  Sn  Sn176  1  0.38823460  0.68050247  0.84450980  1.0
  Sn  Sn177  1  0.72156793  0.01383580  0.84450980  1.0
  Sn  Sn178  1  0.72156793  0.34716913  0.84450980  1.0
  Sn  Sn179  1  0.72156793  0.68050247  0.84450980  1.0
  Sn  Sn180  1  0.04832920  0.12719260  0.77457360  1.0
  Sn  Sn181  1  0.04832920  0.46052593  0.77457360  1.0
  Sn  Sn182  1  0.04832920  0.79385927  0.77457360  1.0
  Sn  Sn183  1  0.38166253  0.12719260  0.77457360  1.0
  Sn  Sn184  1  0.38166253  0.46052593  0.77457360  1.0
  Sn  Sn185  1  0.38166253  0.79385927  0.77457360  1.0
  Sn  Sn186  1  0.71499587  0.12719260  0.77457360  1.0
  Sn  Sn187  1  0.71499587  0.46052593  0.77457360  1.0
  Sn  Sn188  1  0.71499587  0.79385927  0.77457360  1.0
  Sn  Sn189  1  0.18166253  0.19385927  0.67457360  1.0
  Sn  Sn190  1  0.18166253  0.52719260  0.67457360  1.0
  Sn  Sn191  1  0.18166253  0.86052593  0.67457360  1.0
  Sn  Sn192  1  0.51499587  0.19385927  0.67457360  1.0
  Sn  Sn193  1  0.51499587  0.52719260  0.67457360  1.0
  Sn  Sn194  1  0.51499587  0.86052593  0.67457360  1.0
  Sn  Sn195  1  0.84832920  0.19385927  0.67457360  1.0
  Sn  Sn196  1  0.84832920  0.52719260  0.67457360  1.0
  Sn  Sn197  1  0.84832920  0.86052593  0.67457360  1.0
  Sn  Sn198  1  0.09489520  0.30248060  0.65509960  1.0
  Sn  Sn199  1  0.09489520  0.63581393  0.65509960  1.0
  Sn  Sn200  1  0.09489520  0.96914727  0.65509960  1.0
  Sn  Sn201  1  0.42822853  0.30248060  0.65509960  1.0
  Sn  Sn202  1  0.42822853  0.63581393  0.65509960  1.0
  Sn  Sn203  1  0.42822853  0.96914727  0.65509960  1.0
  Sn  Sn204  1  0.76156187  0.30248060  0.65509960  1.0
  Sn  Sn205  1  0.76156187  0.63581393  0.65509960  1.0
  Sn  Sn206  1  0.76156187  0.96914727  0.65509960  1.0
  Sn  Sn207  1  0.29489520  0.23581393  0.75509960  1.0
  Sn  Sn208  1  0.29489520  0.56914727  0.75509960  1.0
  Sn  Sn209  1  0.29489520  0.90248060  0.75509960  1.0
  Sn  Sn210  1  0.62822853  0.23581393  0.75509960  1.0
  Sn  Sn211  1  0.62822853  0.56914727  0.75509960  1.0
  Sn  Sn212  1  0.62822853  0.90248060  0.75509960  1.0
  Sn  Sn213  1  0.96156187  0.23581393  0.75509960  1.0
  Sn  Sn214  1  0.96156187  0.56914727  0.75509960  1.0
  Sn  Sn215  1  0.96156187  0.90248060  0.75509960  1.0
  Sn  Sn216  1  0.28832313  0.01583740  0.68516340  1.0
  Sn  Sn217  1  0.28832313  0.34917073  0.68516340  1.0
  Sn  Sn218  1  0.28832313  0.68250407  0.68516340  1.0
  Sn  Sn219  1  0.62165647  0.01583740  0.68516340  1.0
  Sn  Sn220  1  0.62165647  0.34917073  0.68516340  1.0
  Sn  Sn221  1  0.62165647  0.68250407  0.68516340  1.0
  Sn  Sn222  1  0.95498980  0.01583740  0.68516340  1.0
  Sn  Sn223  1  0.95498980  0.34917073  0.68516340  1.0
  Sn  Sn224  1  0.95498980  0.68250407  0.68516340  1.0
  Sn  Sn225  1  0.15498980  0.28250407  0.78516340  1.0
  Sn  Sn226  1  0.15498980  0.61583740  0.78516340  1.0
  Sn  Sn227  1  0.15498980  0.94917073  0.78516340  1.0
  Sn  Sn228  1  0.48832313  0.28250407  0.78516340  1.0
  Sn  Sn229  1  0.48832313  0.61583740  0.78516340  1.0
  Sn  Sn230  1  0.48832313  0.94917073  0.78516340  1.0
  Sn  Sn231  1  0.82165647  0.28250407  0.78516340  1.0
  Sn  Sn232  1  0.82165647  0.61583740  0.78516340  1.0
  Sn  Sn233  1  0.82165647  0.94917073  0.78516340  1.0
  Sn  Sn234  1  0.18823460  0.08050247  0.74450980  1.0
  Sn  Sn235  1  0.18823460  0.41383580  0.74450980  1.0
  Sn  Sn236  1  0.18823460  0.74716913  0.74450980  1.0
  Sn  Sn237  1  0.52156793  0.08050247  0.74450980  1.0
  Sn  Sn238  1  0.52156793  0.41383580  0.74450980  1.0
  Sn  Sn239  1  0.52156793  0.74716913  0.74450980  1.0
  Sn  Sn240  1  0.85490127  0.08050247  0.74450980  1.0
  Sn  Sn241  1  0.85490127  0.41383580  0.74450980  1.0
  Sn  Sn242  1  0.85490127  0.74716913  0.74450980  1.0
  Sn  Sn243  1  0.32156793  0.14716913  0.64450980  1.0
  Sn  Sn244  1  0.32156793  0.48050247  0.64450980  1.0
  Sn  Sn245  1  0.32156793  0.81383580  0.64450980  1.0
  Sn  Sn246  1  0.65490127  0.14716913  0.64450980  1.0
  Sn  Sn247  1  0.65490127  0.48050247  0.64450980  1.0
  Sn  Sn248  1  0.65490127  0.81383580  0.64450980  1.0
  Sn  Sn249  1  0.98823460  0.14716913  0.64450980  1.0
  Sn  Sn250  1  0.98823460  0.48050247  0.64450980  1.0
  Sn  Sn251  1  0.98823460  0.81383580  0.64450980  1.0
