# generated using pymatgen
data_Ni3Sb
_symmetry_space_group_name_H-M   'P 1'
_cell_length_a   18.65519139
_cell_length_b   30.13322975
_cell_length_c   37.28524800
_cell_angle_alpha   57.97485566
_cell_angle_beta   90.00000000
_cell_angle_gamma   54.51273828
_symmetry_Int_Tables_number   1
_chemical_formula_structural   Ni3Sb
_chemical_formula_sum   'Ni324 Sb108'
_cell_volume   12950.66422720
_cell_formula_units_Z   108
loop_
 _symmetry_equiv_pos_site_id
 _symmetry_equiv_pos_as_xyz
  1  'x, y, z'
loop_
 _atom_site_type_symbol
 _atom_site_label
 _atom_site_symmetry_multiplicity
 _atom_site_fract_x
 _atom_site_fract_y
 _atom_site_fract_z
 _atom_site_occupancy
  Ni  Ni0  1  0.27665700  0.27833817  0.11287121  1.0
  Ni  Ni1  1  0.27665700  0.61167150  0.11287121  1.0
  Ni  Ni2  1  0.27665700  0.94500483  0.11287121  1.0
  Ni  Ni3  1  0.60999033  0.27833817  0.11287121  1.0
  Ni  Ni4  1  0.60999033  0.61167150  0.11287121  1.0
  Ni  Ni5  1  0.60999033  0.94500483  0.11287121  1.0
  Ni  Ni6  1  0.94332367  0.27833817  0.11287121  1.0
  Ni  Ni7  1  0.94332367  0.61167150  0.11287121  1.0
  Ni  Ni8  1  0.94332367  0.94500483  0.11287121  1.0
  Ni  Ni9  1  0.27665700  0.11167150  0.04144264  1.0
  Ni  Ni10  1  0.27665700  0.44500483  0.04144264  1.0
  Ni  Ni11  1  0.27665700  0.77833817  0.04144264  1.0
  Ni  Ni12  1  0.60999033  0.11167150  0.04144264  1.0
  Ni  Ni13  1  0.60999033  0.44500483  0.04144264  1.0
  Ni  Ni14  1  0.60999033  0.77833817  0.04144264  1.0
  Ni  Ni15  1  0.94332367  0.11167150  0.04144264  1.0
  Ni  Ni16  1  0.94332367  0.44500483  0.04144264  1.0
  Ni  Ni17  1  0.94332367  0.77833817  0.04144264  1.0
  Ni  Ni18  1  0.27665700  0.27833817  0.04141036  1.0
  Ni  Ni19  1  0.27665700  0.61167150  0.04141036  1.0
  Ni  Ni20  1  0.27665700  0.94500483  0.04141036  1.0
  Ni  Ni21  1  0.60999033  0.27833817  0.04141036  1.0
  Ni  Ni22  1  0.60999033  0.61167150  0.04141036  1.0
  Ni  Ni23  1  0.60999033  0.94500483  0.04141036  1.0
  Ni  Ni24  1  0.94332367  0.27833817  0.04141036  1.0
  Ni  Ni25  1  0.94332367  0.61167150  0.04141036  1.0
  Ni  Ni26  1  0.94332367  0.94500483  0.04141036  1.0
  Ni  Ni27  1  0.27665700  0.11167150  0.11283893  1.0
  Ni  Ni28  1  0.27665700  0.44500483  0.11283893  1.0
  Ni  Ni29  1  0.27665700  0.77833817  0.11283893  1.0
  Ni  Ni30  1  0.60999033  0.11167150  0.11283893  1.0
  Ni  Ni31  1  0.60999033  0.44500483  0.11283893  1.0
  Ni  Ni32  1  0.60999033  0.77833817  0.11283893  1.0
  Ni  Ni33  1  0.94332367  0.11167150  0.11283893  1.0
  Ni  Ni34  1  0.94332367  0.44500483  0.11283893  1.0
  Ni  Ni35  1  0.94332367  0.77833817  0.11283893  1.0
  Ni  Ni36  1  0.05667633  0.13832850  0.02998593  1.0
  Ni  Ni37  1  0.05667633  0.47166183  0.02998593  1.0
  Ni  Ni38  1  0.05667633  0.80499517  0.02998593  1.0
  Ni  Ni39  1  0.39000967  0.13832850  0.02998593  1.0
  Ni  Ni40  1  0.39000967  0.47166183  0.02998593  1.0
  Ni  Ni41  1  0.39000967  0.80499517  0.02998593  1.0
  Ni  Ni42  1  0.72334300  0.13832850  0.02998593  1.0
  Ni  Ni43  1  0.72334300  0.47166183  0.02998593  1.0
  Ni  Ni44  1  0.72334300  0.80499517  0.02998593  1.0
  Ni  Ni45  1  0.05667633  0.30499517  0.10141450  1.0
  Ni  Ni46  1  0.05667633  0.63832850  0.10141450  1.0
  Ni  Ni47  1  0.05667633  0.97166183  0.10141450  1.0
  Ni  Ni48  1  0.39000967  0.30499517  0.10141450  1.0
  Ni  Ni49  1  0.39000967  0.63832850  0.10141450  1.0
  Ni  Ni50  1  0.39000967  0.97166183  0.10141450  1.0
  Ni  Ni51  1  0.72334300  0.30499517  0.10141450  1.0
  Ni  Ni52  1  0.72334300  0.63832850  0.10141450  1.0
  Ni  Ni53  1  0.72334300  0.97166183  0.10141450  1.0
  Ni  Ni54  1  0.05667633  0.13832850  0.10144679  1.0
  Ni  Ni55  1  0.05667633  0.47166183  0.10144679  1.0
  Ni  Ni56  1  0.05667633  0.80499517  0.10144679  1.0
  Ni  Ni57  1  0.39000967  0.13832850  0.10144679  1.0
  Ni  Ni58  1  0.39000967  0.47166183  0.10144679  1.0
  Ni  Ni59  1  0.39000967  0.80499517  0.10144679  1.0
  Ni  Ni60  1  0.72334300  0.13832850  0.10144679  1.0
  Ni  Ni61  1  0.72334300  0.47166183  0.10144679  1.0
  Ni  Ni62  1  0.72334300  0.80499517  0.10144679  1.0
  Ni  Ni63  1  0.05667633  0.30499517  0.03001821  1.0
  Ni  Ni64  1  0.05667633  0.63832850  0.03001821  1.0
  Ni  Ni65  1  0.05667633  0.97166183  0.03001821  1.0
  Ni  Ni66  1  0.39000967  0.30499517  0.03001821  1.0
  Ni  Ni67  1  0.39000967  0.63832850  0.03001821  1.0
  Ni  Ni68  1  0.39000967  0.97166183  0.03001821  1.0
  Ni  Ni69  1  0.72334300  0.30499517  0.03001821  1.0
  Ni  Ni70  1  0.72334300  0.63832850  0.03001821  1.0
  Ni  Ni71  1  0.72334300  0.97166183  0.03001821  1.0
  Ni  Ni72  1  0.22682800  0.05325267  0.03074886  1.0
  Ni  Ni73  1  0.22682800  0.38658600  0.03074886  1.0
  Ni  Ni74  1  0.22682800  0.71991933  0.03074886  1.0
  Ni  Ni75  1  0.56016133  0.05325267  0.03074886  1.0
  Ni  Ni76  1  0.56016133  0.38658600  0.03074886  1.0
  Ni  Ni77  1  0.56016133  0.71991933  0.03074886  1.0
  Ni  Ni78  1  0.89349467  0.05325267  0.03074886  1.0
  Ni  Ni79  1  0.89349467  0.38658600  0.03074886  1.0
  Ni  Ni80  1  0.89349467  0.71991933  0.03074886  1.0
  Ni  Ni81  1  0.22682800  0.21991933  0.10217743  1.0
  Ni  Ni82  1  0.22682800  0.55325267  0.10217743  1.0
  Ni  Ni83  1  0.22682800  0.88658600  0.10217743  1.0
  Ni  Ni84  1  0.56016133  0.21991933  0.10217743  1.0
  Ni  Ni85  1  0.56016133  0.55325267  0.10217743  1.0
  Ni  Ni86  1  0.56016133  0.88658600  0.10217743  1.0
  Ni  Ni87  1  0.89349467  0.21991933  0.10217743  1.0
  Ni  Ni88  1  0.89349467  0.55325267  0.10217743  1.0
  Ni  Ni89  1  0.89349467  0.88658600  0.10217743  1.0
  Ni  Ni90  1  0.10650533  0.03008067  0.11210829  1.0
  Ni  Ni91  1  0.10650533  0.36341400  0.11210829  1.0
  Ni  Ni92  1  0.10650533  0.69674733  0.11210829  1.0
  Ni  Ni93  1  0.43983867  0.03008067  0.11210829  1.0
  Ni  Ni94  1  0.43983867  0.36341400  0.11210829  1.0
  Ni  Ni95  1  0.43983867  0.69674733  0.11210829  1.0
  Ni  Ni96  1  0.77317200  0.03008067  0.11210829  1.0
  Ni  Ni97  1  0.77317200  0.36341400  0.11210829  1.0
  Ni  Ni98  1  0.77317200  0.69674733  0.11210829  1.0
  Ni  Ni99  1  0.10650533  0.19674733  0.04067971  1.0
  Ni  Ni100  1  0.10650533  0.53008067  0.04067971  1.0
  Ni  Ni101  1  0.10650533  0.86341400  0.04067971  1.0
  Ni  Ni102  1  0.43983867  0.19674733  0.04067971  1.0
  Ni  Ni103  1  0.43983867  0.53008067  0.04067971  1.0
  Ni  Ni104  1  0.43983867  0.86341400  0.04067971  1.0
  Ni  Ni105  1  0.77317200  0.19674733  0.04067971  1.0
  Ni  Ni106  1  0.77317200  0.53008067  0.04067971  1.0
  Ni  Ni107  1  0.77317200  0.86341400  0.04067971  1.0
  Sb  Sb108  1  0.10745600  0.02960533  0.04088343  1.0
  Sb  Sb109  1  0.10745600  0.36293867  0.04088343  1.0
  Sb  Sb110  1  0.10745600  0.69627200  0.04088343  1.0
  Sb  Sb111  1  0.44078933  0.02960533  0.04088343  1.0
  Sb  Sb112  1  0.44078933  0.36293867  0.04088343  1.0
  Sb  Sb113  1  0.44078933  0.69627200  0.04088343  1.0
  Sb  Sb114  1  0.77412267  0.02960533  0.04088343  1.0
  Sb  Sb115  1  0.77412267  0.36293867  0.04088343  1.0
  Sb  Sb116  1  0.77412267  0.69627200  0.04088343  1.0
  Sb  Sb117  1  0.10745600  0.19627200  0.11231200  1.0
  Sb  Sb118  1  0.10745600  0.52960533  0.11231200  1.0
  Sb  Sb119  1  0.10745600  0.86293867  0.11231200  1.0
  Sb  Sb120  1  0.44078933  0.19627200  0.11231200  1.0
  Sb  Sb121  1  0.44078933  0.52960533  0.11231200  1.0
  Sb  Sb122  1  0.44078933  0.86293867  0.11231200  1.0
  Sb  Sb123  1  0.77412267  0.19627200  0.11231200  1.0
  Sb  Sb124  1  0.77412267  0.52960533  0.11231200  1.0
  Sb  Sb125  1  0.77412267  0.86293867  0.11231200  1.0
  Sb  Sb126  1  0.22587733  0.05372800  0.10197371  1.0
  Sb  Sb127  1  0.22587733  0.38706133  0.10197371  1.0
  Sb  Sb128  1  0.22587733  0.72039467  0.10197371  1.0
  Sb  Sb129  1  0.55921067  0.05372800  0.10197371  1.0
  Sb  Sb130  1  0.55921067  0.38706133  0.10197371  1.0
  Sb  Sb131  1  0.55921067  0.72039467  0.10197371  1.0
  Sb  Sb132  1  0.89254400  0.05372800  0.10197371  1.0
  Sb  Sb133  1  0.89254400  0.38706133  0.10197371  1.0
  Sb  Sb134  1  0.89254400  0.72039467  0.10197371  1.0
  Sb  Sb135  1  0.22587733  0.22039467  0.03054514  1.0
  Sb  Sb136  1  0.22587733  0.55372800  0.03054514  1.0
  Sb  Sb137  1  0.22587733  0.88706133  0.03054514  1.0
  Sb  Sb138  1  0.55921067  0.22039467  0.03054514  1.0
  Sb  Sb139  1  0.55921067  0.55372800  0.03054514  1.0
  Sb  Sb140  1  0.55921067  0.88706133  0.03054514  1.0
  Sb  Sb141  1  0.89254400  0.22039467  0.03054514  1.0
  Sb  Sb142  1  0.89254400  0.55372800  0.03054514  1.0
  Sb  Sb143  1  0.89254400  0.88706133  0.03054514  1.0
  Ni  Ni144  1  0.27665700  0.27833817  0.25572836  1.0
  Ni  Ni145  1  0.27665700  0.61167150  0.25572836  1.0
  Ni  Ni146  1  0.27665700  0.94500483  0.25572836  1.0
  Ni  Ni147  1  0.60999033  0.27833817  0.25572836  1.0
  Ni  Ni148  1  0.60999033  0.61167150  0.25572836  1.0
  Ni  Ni149  1  0.60999033  0.94500483  0.25572836  1.0
  Ni  Ni150  1  0.94332367  0.27833817  0.25572836  1.0
  Ni  Ni151  1  0.94332367  0.61167150  0.25572836  1.0
  Ni  Ni152  1  0.94332367  0.94500483  0.25572836  1.0
  Ni  Ni153  1  0.27665700  0.11167150  0.18429979  1.0
  Ni  Ni154  1  0.27665700  0.44500483  0.18429979  1.0
  Ni  Ni155  1  0.27665700  0.77833817  0.18429979  1.0
  Ni  Ni156  1  0.60999033  0.11167150  0.18429979  1.0
  Ni  Ni157  1  0.60999033  0.44500483  0.18429979  1.0
  Ni  Ni158  1  0.60999033  0.77833817  0.18429979  1.0
  Ni  Ni159  1  0.94332367  0.11167150  0.18429979  1.0
  Ni  Ni160  1  0.94332367  0.44500483  0.18429979  1.0
  Ni  Ni161  1  0.94332367  0.77833817  0.18429979  1.0
  Ni  Ni162  1  0.27665700  0.27833817  0.18426750  1.0
  Ni  Ni163  1  0.27665700  0.61167150  0.18426750  1.0
  Ni  Ni164  1  0.27665700  0.94500483  0.18426750  1.0
  Ni  Ni165  1  0.60999033  0.27833817  0.18426750  1.0
  Ni  Ni166  1  0.60999033  0.61167150  0.18426750  1.0
  Ni  Ni167  1  0.60999033  0.94500483  0.18426750  1.0
  Ni  Ni168  1  0.94332367  0.27833817  0.18426750  1.0
  Ni  Ni169  1  0.94332367  0.61167150  0.18426750  1.0
  Ni  Ni170  1  0.94332367  0.94500483  0.18426750  1.0
  Ni  Ni171  1  0.27665700  0.11167150  0.25569607  1.0
  Ni  Ni172  1  0.27665700  0.44500483  0.25569607  1.0
  Ni  Ni173  1  0.27665700  0.77833817  0.25569607  1.0
  Ni  Ni174  1  0.60999033  0.11167150  0.25569607  1.0
  Ni  Ni175  1  0.60999033  0.44500483  0.25569607  1.0
  Ni  Ni176  1  0.60999033  0.77833817  0.25569607  1.0
  Ni  Ni177  1  0.94332367  0.11167150  0.25569607  1.0
  Ni  Ni178  1  0.94332367  0.44500483  0.25569607  1.0
  Ni  Ni179  1  0.94332367  0.77833817  0.25569607  1.0
  Ni  Ni180  1  0.05667633  0.13832850  0.17284307  1.0
  Ni  Ni181  1  0.05667633  0.47166183  0.17284307  1.0
  Ni  Ni182  1  0.05667633  0.80499517  0.17284307  1.0
  Ni  Ni183  1  0.39000967  0.13832850  0.17284307  1.0
  Ni  Ni184  1  0.39000967  0.47166183  0.17284307  1.0
  Ni  Ni185  1  0.39000967  0.80499517  0.17284307  1.0
  Ni  Ni186  1  0.72334300  0.13832850  0.17284307  1.0
  Ni  Ni187  1  0.72334300  0.47166183  0.17284307  1.0
  Ni  Ni188  1  0.72334300  0.80499517  0.17284307  1.0
  Ni  Ni189  1  0.05667633  0.30499517  0.24427164  1.0
  Ni  Ni190  1  0.05667633  0.63832850  0.24427164  1.0
  Ni  Ni191  1  0.05667633  0.97166183  0.24427164  1.0
  Ni  Ni192  1  0.39000967  0.30499517  0.24427164  1.0
  Ni  Ni193  1  0.39000967  0.63832850  0.24427164  1.0
  Ni  Ni194  1  0.39000967  0.97166183  0.24427164  1.0
  Ni  Ni195  1  0.72334300  0.30499517  0.24427164  1.0
  Ni  Ni196  1  0.72334300  0.63832850  0.24427164  1.0
  Ni  Ni197  1  0.72334300  0.97166183  0.24427164  1.0
  Ni  Ni198  1  0.05667633  0.13832850  0.24430393  1.0
  Ni  Ni199  1  0.05667633  0.47166183  0.24430393  1.0
  Ni  Ni200  1  0.05667633  0.80499517  0.24430393  1.0
  Ni  Ni201  1  0.39000967  0.13832850  0.24430393  1.0
  Ni  Ni202  1  0.39000967  0.47166183  0.24430393  1.0
  Ni  Ni203  1  0.39000967  0.80499517  0.24430393  1.0
  Ni  Ni204  1  0.72334300  0.13832850  0.24430393  1.0
  Ni  Ni205  1  0.72334300  0.47166183  0.24430393  1.0
  Ni  Ni206  1  0.72334300  0.80499517  0.24430393  1.0
  Ni  Ni207  1  0.05667633  0.30499517  0.17287536  1.0
  Ni  Ni208  1  0.05667633  0.63832850  0.17287536  1.0
  Ni  Ni209  1  0.05667633  0.97166183  0.17287536  1.0
  Ni  Ni210  1  0.39000967  0.30499517  0.17287536  1.0
  Ni  Ni211  1  0.39000967  0.63832850  0.17287536  1.0
  Ni  Ni212  1  0.39000967  0.97166183  0.17287536  1.0
  Ni  Ni213  1  0.72334300  0.30499517  0.17287536  1.0
  Ni  Ni214  1  0.72334300  0.63832850  0.17287536  1.0
  Ni  Ni215  1  0.72334300  0.97166183  0.17287536  1.0
  Ni  Ni216  1  0.22682800  0.05325267  0.17360600  1.0
  Ni  Ni217  1  0.22682800  0.38658600  0.17360600  1.0
  Ni  Ni218  1  0.22682800  0.71991933  0.17360600  1.0
  Ni  Ni219  1  0.56016133  0.05325267  0.17360600  1.0
  Ni  Ni220  1  0.56016133  0.38658600  0.17360600  1.0
  Ni  Ni221  1  0.56016133  0.71991933  0.17360600  1.0
  Ni  Ni222  1  0.89349467  0.05325267  0.17360600  1.0
  Ni  Ni223  1  0.89349467  0.38658600  0.17360600  1.0
  Ni  Ni224  1  0.89349467  0.71991933  0.17360600  1.0
  Ni  Ni225  1  0.22682800  0.21991933  0.24503457  1.0
  Ni  Ni226  1  0.22682800  0.55325267  0.24503457  1.0
  Ni  Ni227  1  0.22682800  0.88658600  0.24503457  1.0
  Ni  Ni228  1  0.56016133  0.21991933  0.24503457  1.0
  Ni  Ni229  1  0.56016133  0.55325267  0.24503457  1.0
  Ni  Ni230  1  0.56016133  0.88658600  0.24503457  1.0
  Ni  Ni231  1  0.89349467  0.21991933  0.24503457  1.0
  Ni  Ni232  1  0.89349467  0.55325267  0.24503457  1.0
  Ni  Ni233  1  0.89349467  0.88658600  0.24503457  1.0
  Ni  Ni234  1  0.10650533  0.03008067  0.25496543  1.0
  Ni  Ni235  1  0.10650533  0.36341400  0.25496543  1.0
  Ni  Ni236  1  0.10650533  0.69674733  0.25496543  1.0
  Ni  Ni237  1  0.43983867  0.03008067  0.25496543  1.0
  Ni  Ni238  1  0.43983867  0.36341400  0.25496543  1.0
  Ni  Ni239  1  0.43983867  0.69674733  0.25496543  1.0
  Ni  Ni240  1  0.77317200  0.03008067  0.25496543  1.0
  Ni  Ni241  1  0.77317200  0.36341400  0.25496543  1.0
  Ni  Ni242  1  0.77317200  0.69674733  0.25496543  1.0
  Ni  Ni243  1  0.10650533  0.19674733  0.18353686  1.0
  Ni  Ni244  1  0.10650533  0.53008067  0.18353686  1.0
  Ni  Ni245  1  0.10650533  0.86341400  0.18353686  1.0
  Ni  Ni246  1  0.43983867  0.19674733  0.18353686  1.0
  Ni  Ni247  1  0.43983867  0.53008067  0.18353686  1.0
  Ni  Ni248  1  0.43983867  0.86341400  0.18353686  1.0
  Ni  Ni249  1  0.77317200  0.19674733  0.18353686  1.0
  Ni  Ni250  1  0.77317200  0.53008067  0.18353686  1.0
  Ni  Ni251  1  0.77317200  0.86341400  0.18353686  1.0
  Sb  Sb252  1  0.10745600  0.02960533  0.18374057  1.0
  Sb  Sb253  1  0.10745600  0.36293867  0.18374057  1.0
  Sb  Sb254  1  0.10745600  0.69627200  0.18374057  1.0
  Sb  Sb255  1  0.44078933  0.02960533  0.18374057  1.0
  Sb  Sb256  1  0.44078933  0.36293867  0.18374057  1.0
  Sb  Sb257  1  0.44078933  0.69627200  0.18374057  1.0
  Sb  Sb258  1  0.77412267  0.02960533  0.18374057  1.0
  Sb  Sb259  1  0.77412267  0.36293867  0.18374057  1.0
  Sb  Sb260  1  0.77412267  0.69627200  0.18374057  1.0
  Sb  Sb261  1  0.10745600  0.19627200  0.25516914  1.0
  Sb  Sb262  1  0.10745600  0.52960533  0.25516914  1.0
  Sb  Sb263  1  0.10745600  0.86293867  0.25516914  1.0
  Sb  Sb264  1  0.44078933  0.19627200  0.25516914  1.0
  Sb  Sb265  1  0.44078933  0.52960533  0.25516914  1.0
  Sb  Sb266  1  0.44078933  0.86293867  0.25516914  1.0
  Sb  Sb267  1  0.77412267  0.19627200  0.25516914  1.0
  Sb  Sb268  1  0.77412267  0.52960533  0.25516914  1.0
  Sb  Sb269  1  0.77412267  0.86293867  0.25516914  1.0
  Sb  Sb270  1  0.22587733  0.05372800  0.24483086  1.0
  Sb  Sb271  1  0.22587733  0.38706133  0.24483086  1.0
  Sb  Sb272  1  0.22587733  0.72039467  0.24483086  1.0
  Sb  Sb273  1  0.55921067  0.05372800  0.24483086  1.0
  Sb  Sb274  1  0.55921067  0.38706133  0.24483086  1.0
  Sb  Sb275  1  0.55921067  0.72039467  0.24483086  1.0
  Sb  Sb276  1  0.89254400  0.05372800  0.24483086  1.0
  Sb  Sb277  1  0.89254400  0.38706133  0.24483086  1.0
  Sb  Sb278  1  0.89254400  0.72039467  0.24483086  1.0
  Sb  Sb279  1  0.22587733  0.22039467  0.17340229  1.0
  Sb  Sb280  1  0.22587733  0.55372800  0.17340229  1.0
  Sb  Sb281  1  0.22587733  0.88706133  0.17340229  1.0
  Sb  Sb282  1  0.55921067  0.22039467  0.17340229  1.0
  Sb  Sb283  1  0.55921067  0.55372800  0.17340229  1.0
  Sb  Sb284  1  0.55921067  0.88706133  0.17340229  1.0
  Sb  Sb285  1  0.89254400  0.22039467  0.17340229  1.0
  Sb  Sb286  1  0.89254400  0.55372800  0.17340229  1.0
  Sb  Sb287  1  0.89254400  0.88706133  0.17340229  1.0
  Ni  Ni288  1  0.27665700  0.27833817  0.39858550  1.0
  Ni  Ni289  1  0.27665700  0.61167150  0.39858550  1.0
  Ni  Ni290  1  0.27665700  0.94500483  0.39858550  1.0
  Ni  Ni291  1  0.60999033  0.27833817  0.39858550  1.0
  Ni  Ni292  1  0.60999033  0.61167150  0.39858550  1.0
  Ni  Ni293  1  0.60999033  0.94500483  0.39858550  1.0
  Ni  Ni294  1  0.94332367  0.27833817  0.39858550  1.0
  Ni  Ni295  1  0.94332367  0.61167150  0.39858550  1.0
  Ni  Ni296  1  0.94332367  0.94500483  0.39858550  1.0
  Ni  Ni297  1  0.27665700  0.11167150  0.32715693  1.0
  Ni  Ni298  1  0.27665700  0.44500483  0.32715693  1.0
  Ni  Ni299  1  0.27665700  0.77833817  0.32715693  1.0
  Ni  Ni300  1  0.60999033  0.11167150  0.32715693  1.0
  Ni  Ni301  1  0.60999033  0.44500483  0.32715693  1.0
  Ni  Ni302  1  0.60999033  0.77833817  0.32715693  1.0
  Ni  Ni303  1  0.94332367  0.11167150  0.32715693  1.0
  Ni  Ni304  1  0.94332367  0.44500483  0.32715693  1.0
  Ni  Ni305  1  0.94332367  0.77833817  0.32715693  1.0
  Ni  Ni306  1  0.27665700  0.27833817  0.32712464  1.0
  Ni  Ni307  1  0.27665700  0.61167150  0.32712464  1.0
  Ni  Ni308  1  0.27665700  0.94500483  0.32712464  1.0
  Ni  Ni309  1  0.60999033  0.27833817  0.32712464  1.0
  Ni  Ni310  1  0.60999033  0.61167150  0.32712464  1.0
  Ni  Ni311  1  0.60999033  0.94500483  0.32712464  1.0
  Ni  Ni312  1  0.94332367  0.27833817  0.32712464  1.0
  Ni  Ni313  1  0.94332367  0.61167150  0.32712464  1.0
  Ni  Ni314  1  0.94332367  0.94500483  0.32712464  1.0
  Ni  Ni315  1  0.27665700  0.11167150  0.39855321  1.0
  Ni  Ni316  1  0.27665700  0.44500483  0.39855321  1.0
  Ni  Ni317  1  0.27665700  0.77833817  0.39855321  1.0
  Ni  Ni318  1  0.60999033  0.11167150  0.39855321  1.0
  Ni  Ni319  1  0.60999033  0.44500483  0.39855321  1.0
  Ni  Ni320  1  0.60999033  0.77833817  0.39855321  1.0
  Ni  Ni321  1  0.94332367  0.11167150  0.39855321  1.0
  Ni  Ni322  1  0.94332367  0.44500483  0.39855321  1.0
  Ni  Ni323  1  0.94332367  0.77833817  0.39855321  1.0
  Ni  Ni324  1  0.05667633  0.13832850  0.31570021  1.0
  Ni  Ni325  1  0.05667633  0.47166183  0.31570021  1.0
  Ni  Ni326  1  0.05667633  0.80499517  0.31570021  1.0
  Ni  Ni327  1  0.39000967  0.13832850  0.31570021  1.0
  Ni  Ni328  1  0.39000967  0.47166183  0.31570021  1.0
  Ni  Ni329  1  0.39000967  0.80499517  0.31570021  1.0
  Ni  Ni330  1  0.72334300  0.13832850  0.31570021  1.0
  Ni  Ni331  1  0.72334300  0.47166183  0.31570021  1.0
  Ni  Ni332  1  0.72334300  0.80499517  0.31570021  1.0
  Ni  Ni333  1  0.05667633  0.30499517  0.38712879  1.0
  Ni  Ni334  1  0.05667633  0.63832850  0.38712879  1.0
  Ni  Ni335  1  0.05667633  0.97166183  0.38712879  1.0
  Ni  Ni336  1  0.39000967  0.30499517  0.38712879  1.0
  Ni  Ni337  1  0.39000967  0.63832850  0.38712879  1.0
  Ni  Ni338  1  0.39000967  0.97166183  0.38712879  1.0
  Ni  Ni339  1  0.72334300  0.30499517  0.38712879  1.0
  Ni  Ni340  1  0.72334300  0.63832850  0.38712879  1.0
  Ni  Ni341  1  0.72334300  0.97166183  0.38712879  1.0
  Ni  Ni342  1  0.05667633  0.13832850  0.38716107  1.0
  Ni  Ni343  1  0.05667633  0.47166183  0.38716107  1.0
  Ni  Ni344  1  0.05667633  0.80499517  0.38716107  1.0
  Ni  Ni345  1  0.39000967  0.13832850  0.38716107  1.0
  Ni  Ni346  1  0.39000967  0.47166183  0.38716107  1.0
  Ni  Ni347  1  0.39000967  0.80499517  0.38716107  1.0
  Ni  Ni348  1  0.72334300  0.13832850  0.38716107  1.0
  Ni  Ni349  1  0.72334300  0.47166183  0.38716107  1.0
  Ni  Ni350  1  0.72334300  0.80499517  0.38716107  1.0
  Ni  Ni351  1  0.05667633  0.30499517  0.31573250  1.0
  Ni  Ni352  1  0.05667633  0.63832850  0.31573250  1.0
  Ni  Ni353  1  0.05667633  0.97166183  0.31573250  1.0
  Ni  Ni354  1  0.39000967  0.30499517  0.31573250  1.0
  Ni  Ni355  1  0.39000967  0.63832850  0.31573250  1.0
  Ni  Ni356  1  0.39000967  0.97166183  0.31573250  1.0
  Ni  Ni357  1  0.72334300  0.30499517  0.31573250  1.0
  Ni  Ni358  1  0.72334300  0.63832850  0.31573250  1.0
  Ni  Ni359  1  0.72334300  0.97166183  0.31573250  1.0
  Ni  Ni360  1  0.22682800  0.05325267  0.31646314  1.0
  Ni  Ni361  1  0.22682800  0.38658600  0.31646314  1.0
  Ni  Ni362  1  0.22682800  0.71991933  0.31646314  1.0
  Ni  Ni363  1  0.56016133  0.05325267  0.31646314  1.0
  Ni  Ni364  1  0.56016133  0.38658600  0.31646314  1.0
  Ni  Ni365  1  0.56016133  0.71991933  0.31646314  1.0
  Ni  Ni366  1  0.89349467  0.05325267  0.31646314  1.0
  Ni  Ni367  1  0.89349467  0.38658600  0.31646314  1.0
  Ni  Ni368  1  0.89349467  0.71991933  0.31646314  1.0
  Ni  Ni369  1  0.22682800  0.21991933  0.38789171  1.0
  Ni  Ni370  1  0.22682800  0.55325267  0.38789171  1.0
  Ni  Ni371  1  0.22682800  0.88658600  0.38789171  1.0
  Ni  Ni372  1  0.56016133  0.21991933  0.38789171  1.0
  Ni  Ni373  1  0.56016133  0.55325267  0.38789171  1.0
  Ni  Ni374  1  0.56016133  0.88658600  0.38789171  1.0
  Ni  Ni375  1  0.89349467  0.21991933  0.38789171  1.0
  Ni  Ni376  1  0.89349467  0.55325267  0.38789171  1.0
  Ni  Ni377  1  0.89349467  0.88658600  0.38789171  1.0
  Ni  Ni378  1  0.10650533  0.03008067  0.39782257  1.0
  Ni  Ni379  1  0.10650533  0.36341400  0.39782257  1.0
  Ni  Ni380  1  0.10650533  0.69674733  0.39782257  1.0
  Ni  Ni381  1  0.43983867  0.03008067  0.39782257  1.0
  Ni  Ni382  1  0.43983867  0.36341400  0.39782257  1.0
  Ni  Ni383  1  0.43983867  0.69674733  0.39782257  1.0
  Ni  Ni384  1  0.77317200  0.03008067  0.39782257  1.0
  Ni  Ni385  1  0.77317200  0.36341400  0.39782257  1.0
  Ni  Ni386  1  0.77317200  0.69674733  0.39782257  1.0
  Ni  Ni387  1  0.10650533  0.19674733  0.32639400  1.0
  Ni  Ni388  1  0.10650533  0.53008067  0.32639400  1.0
  Ni  Ni389  1  0.10650533  0.86341400  0.32639400  1.0
  Ni  Ni390  1  0.43983867  0.19674733  0.32639400  1.0
  Ni  Ni391  1  0.43983867  0.53008067  0.32639400  1.0
  Ni  Ni392  1  0.43983867  0.86341400  0.32639400  1.0
  Ni  Ni393  1  0.77317200  0.19674733  0.32639400  1.0
  Ni  Ni394  1  0.77317200  0.53008067  0.32639400  1.0
  Ni  Ni395  1  0.77317200  0.86341400  0.32639400  1.0
  Sb  Sb396  1  0.10745600  0.02960533  0.32659771  1.0
  Sb  Sb397  1  0.10745600  0.36293867  0.32659771  1.0
  Sb  Sb398  1  0.10745600  0.69627200  0.32659771  1.0
  Sb  Sb399  1  0.44078933  0.02960533  0.32659771  1.0
  Sb  Sb400  1  0.44078933  0.36293867  0.32659771  1.0
  Sb  Sb401  1  0.44078933  0.69627200  0.32659771  1.0
  Sb  Sb402  1  0.77412267  0.02960533  0.32659771  1.0
  Sb  Sb403  1  0.77412267  0.36293867  0.32659771  1.0
  Sb  Sb404  1  0.77412267  0.69627200  0.32659771  1.0
  Sb  Sb405  1  0.10745600  0.19627200  0.39802629  1.0
  Sb  Sb406  1  0.10745600  0.52960533  0.39802629  1.0
  Sb  Sb407  1  0.10745600  0.86293867  0.39802629  1.0
  Sb  Sb408  1  0.44078933  0.19627200  0.39802629  1.0
  Sb  Sb409  1  0.44078933  0.52960533  0.39802629  1.0
  Sb  Sb410  1  0.44078933  0.86293867  0.39802629  1.0
  Sb  Sb411  1  0.77412267  0.19627200  0.39802629  1.0
  Sb  Sb412  1  0.77412267  0.52960533  0.39802629  1.0
  Sb  Sb413  1  0.77412267  0.86293867  0.39802629  1.0
  Sb  Sb414  1  0.22587733  0.05372800  0.38768800  1.0
  Sb  Sb415  1  0.22587733  0.38706133  0.38768800  1.0
  Sb  Sb416  1  0.22587733  0.72039467  0.38768800  1.0
  Sb  Sb417  1  0.55921067  0.05372800  0.38768800  1.0
  Sb  Sb418  1  0.55921067  0.38706133  0.38768800  1.0
  Sb  Sb419  1  0.55921067  0.72039467  0.38768800  1.0
  Sb  Sb420  1  0.89254400  0.05372800  0.38768800  1.0
  Sb  Sb421  1  0.89254400  0.38706133  0.38768800  1.0
  Sb  Sb422  1  0.89254400  0.72039467  0.38768800  1.0
  Sb  Sb423  1  0.22587733  0.22039467  0.31625943  1.0
  Sb  Sb424  1  0.22587733  0.55372800  0.31625943  1.0
  Sb  Sb425  1  0.22587733  0.88706133  0.31625943  1.0
  Sb  Sb426  1  0.55921067  0.22039467  0.31625943  1.0
  Sb  Sb427  1  0.55921067  0.55372800  0.31625943  1.0
  Sb  Sb428  1  0.55921067  0.88706133  0.31625943  1.0
  Sb  Sb429  1  0.89254400  0.22039467  0.31625943  1.0
  Sb  Sb430  1  0.89254400  0.55372800  0.31625943  1.0
  Sb  Sb431  1  0.89254400  0.88706133  0.31625943  1.0
