# generated using pymatgen
data_Ni3Sn
_symmetry_space_group_name_H-M   'P 1'
_cell_length_a   18.69725938
_cell_length_b   20.40377224
_cell_length_c   42.45661000
_cell_angle_alpha   128.62690245
_cell_angle_beta   132.93920242
_cell_angle_gamma   64.83348681
_symmetry_Int_Tables_number   1
_chemical_formula_structural   Ni3Sn
_chemical_formula_sum   'Ni216 Sn72'
_cell_volume   9263.34790477
_cell_formula_units_Z   72
loop_
 _symmetry_equiv_pos_site_id
 _symmetry_equiv_pos_as_xyz
  1  'x, y, z'
loop_
 _atom_site_type_symbol
 _atom_site_label
 _atom_site_symmetry_multiplicity
 _atom_site_fract_x
 _atom_site_fract_y
 _atom_site_fract_z
 _atom_site_occupancy
  Ni  Ni0  1  0.27849067  0.24896033  0.00823530  1.0
  Ni  Ni1  1  0.27849067  0.58229367  0.00823530  1.0
  Ni  Ni2  1  0.27849067  0.91562700  0.00823530  1.0
  Ni  Ni3  1  0.61182400  0.24896033  0.00823530  1.0
  Ni  Ni4  1  0.61182400  0.58229367  0.00823530  1.0
  Ni  Ni5  1  0.61182400  0.91562700  0.00823530  1.0
  Ni  Ni6  1  0.94515733  0.24896033  0.00823530  1.0
  Ni  Ni7  1  0.94515733  0.58229367  0.00823530  1.0
  Ni  Ni8  1  0.94515733  0.91562700  0.00823530  1.0
  Ni  Ni9  1  0.27849067  0.08437300  0.05885910  1.0
  Ni  Ni10  1  0.27849067  0.41770633  0.05885910  1.0
  Ni  Ni11  1  0.27849067  0.75103967  0.05885910  1.0
  Ni  Ni12  1  0.61182400  0.08437300  0.05885910  1.0
  Ni  Ni13  1  0.61182400  0.41770633  0.05885910  1.0
  Ni  Ni14  1  0.61182400  0.75103967  0.05885910  1.0
  Ni  Ni15  1  0.94515733  0.08437300  0.05885910  1.0
  Ni  Ni16  1  0.94515733  0.41770633  0.05885910  1.0
  Ni  Ni17  1  0.94515733  0.75103967  0.05885910  1.0
  Ni  Ni18  1  0.05484267  0.25103967  0.09176470  1.0
  Ni  Ni19  1  0.05484267  0.58437300  0.09176470  1.0
  Ni  Ni20  1  0.05484267  0.91770633  0.09176470  1.0
  Ni  Ni21  1  0.38817600  0.25103967  0.09176470  1.0
  Ni  Ni22  1  0.38817600  0.58437300  0.09176470  1.0
  Ni  Ni23  1  0.38817600  0.91770633  0.09176470  1.0
  Ni  Ni24  1  0.72150933  0.25103967  0.09176470  1.0
  Ni  Ni25  1  0.72150933  0.58437300  0.09176470  1.0
  Ni  Ni26  1  0.72150933  0.91770633  0.09176470  1.0
  Ni  Ni27  1  0.05484267  0.08229367  0.04114090  1.0
  Ni  Ni28  1  0.05484267  0.41562700  0.04114090  1.0
  Ni  Ni29  1  0.05484267  0.74896033  0.04114090  1.0
  Ni  Ni30  1  0.38817600  0.08229367  0.04114090  1.0
  Ni  Ni31  1  0.38817600  0.41562700  0.04114090  1.0
  Ni  Ni32  1  0.38817600  0.74896033  0.04114090  1.0
  Ni  Ni33  1  0.72150933  0.08229367  0.04114090  1.0
  Ni  Ni34  1  0.72150933  0.41562700  0.04114090  1.0
  Ni  Ni35  1  0.72150933  0.74896033  0.04114090  1.0
  Ni  Ni36  1  0.23071700  0.16666667  0.01921510  1.0
  Ni  Ni37  1  0.23071700  0.50000000  0.01921510  1.0
  Ni  Ni38  1  0.23071700  0.83333333  0.01921510  1.0
  Ni  Ni39  1  0.56405033  0.16666667  0.01921510  1.0
  Ni  Ni40  1  0.56405033  0.50000000  0.01921510  1.0
  Ni  Ni41  1  0.56405033  0.83333333  0.01921510  1.0
  Ni  Ni42  1  0.89738367  0.16666667  0.01921510  1.0
  Ni  Ni43  1  0.89738367  0.50000000  0.01921510  1.0
  Ni  Ni44  1  0.89738367  0.83333333  0.01921510  1.0
  Ni  Ni45  1  0.10261633  0.00000000  0.08078490  1.0
  Ni  Ni46  1  0.10261633  0.33333333  0.08078490  1.0
  Ni  Ni47  1  0.10261633  0.66666667  0.08078490  1.0
  Ni  Ni48  1  0.43594967  0.00000000  0.08078490  1.0
  Ni  Ni49  1  0.43594967  0.33333333  0.08078490  1.0
  Ni  Ni50  1  0.43594967  0.66666667  0.08078490  1.0
  Ni  Ni51  1  0.76928300  0.00000000  0.08078490  1.0
  Ni  Ni52  1  0.76928300  0.33333333  0.08078490  1.0
  Ni  Ni53  1  0.76928300  0.66666667  0.08078490  1.0
  Sn  Sn54  1  0.11125300  0.16666667  0.03337590  1.0
  Sn  Sn55  1  0.11125300  0.50000000  0.03337590  1.0
  Sn  Sn56  1  0.11125300  0.83333333  0.03337590  1.0
  Sn  Sn57  1  0.44458633  0.16666667  0.03337590  1.0
  Sn  Sn58  1  0.44458633  0.50000000  0.03337590  1.0
  Sn  Sn59  1  0.44458633  0.83333333  0.03337590  1.0
  Sn  Sn60  1  0.77791967  0.16666667  0.03337590  1.0
  Sn  Sn61  1  0.77791967  0.50000000  0.03337590  1.0
  Sn  Sn62  1  0.77791967  0.83333333  0.03337590  1.0
  Sn  Sn63  1  0.22208033  0.00000000  0.06662410  1.0
  Sn  Sn64  1  0.22208033  0.33333333  0.06662410  1.0
  Sn  Sn65  1  0.22208033  0.66666667  0.06662410  1.0
  Sn  Sn66  1  0.55541367  0.00000000  0.06662410  1.0
  Sn  Sn67  1  0.55541367  0.33333333  0.06662410  1.0
  Sn  Sn68  1  0.55541367  0.66666667  0.06662410  1.0
  Sn  Sn69  1  0.88874700  0.00000000  0.06662410  1.0
  Sn  Sn70  1  0.88874700  0.33333333  0.06662410  1.0
  Sn  Sn71  1  0.88874700  0.66666667  0.06662410  1.0
  Ni  Ni72  1  0.27849067  0.24896033  0.10823530  1.0
  Ni  Ni73  1  0.27849067  0.58229367  0.10823530  1.0
  Ni  Ni74  1  0.27849067  0.91562700  0.10823530  1.0
  Ni  Ni75  1  0.61182400  0.24896033  0.10823530  1.0
  Ni  Ni76  1  0.61182400  0.58229367  0.10823530  1.0
  Ni  Ni77  1  0.61182400  0.91562700  0.10823530  1.0
  Ni  Ni78  1  0.94515733  0.24896033  0.10823530  1.0
  Ni  Ni79  1  0.94515733  0.58229367  0.10823530  1.0
  Ni  Ni80  1  0.94515733  0.91562700  0.10823530  1.0
  Ni  Ni81  1  0.27849067  0.08437300  0.15885910  1.0
  Ni  Ni82  1  0.27849067  0.41770633  0.15885910  1.0
  Ni  Ni83  1  0.27849067  0.75103967  0.15885910  1.0
  Ni  Ni84  1  0.61182400  0.08437300  0.15885910  1.0
  Ni  Ni85  1  0.61182400  0.41770633  0.15885910  1.0
  Ni  Ni86  1  0.61182400  0.75103967  0.15885910  1.0
  Ni  Ni87  1  0.94515733  0.08437300  0.15885910  1.0
  Ni  Ni88  1  0.94515733  0.41770633  0.15885910  1.0
  Ni  Ni89  1  0.94515733  0.75103967  0.15885910  1.0
  Ni  Ni90  1  0.05484267  0.25103967  0.19176470  1.0
  Ni  Ni91  1  0.05484267  0.58437300  0.19176470  1.0
  Ni  Ni92  1  0.05484267  0.91770633  0.19176470  1.0
  Ni  Ni93  1  0.38817600  0.25103967  0.19176470  1.0
  Ni  Ni94  1  0.38817600  0.58437300  0.19176470  1.0
  Ni  Ni95  1  0.38817600  0.91770633  0.19176470  1.0
  Ni  Ni96  1  0.72150933  0.25103967  0.19176470  1.0
  Ni  Ni97  1  0.72150933  0.58437300  0.19176470  1.0
  Ni  Ni98  1  0.72150933  0.91770633  0.19176470  1.0
  Ni  Ni99  1  0.05484267  0.08229367  0.14114090  1.0
  Ni  Ni100  1  0.05484267  0.41562700  0.14114090  1.0
  Ni  Ni101  1  0.05484267  0.74896033  0.14114090  1.0
  Ni  Ni102  1  0.38817600  0.08229367  0.14114090  1.0
  Ni  Ni103  1  0.38817600  0.41562700  0.14114090  1.0
  Ni  Ni104  1  0.38817600  0.74896033  0.14114090  1.0
  Ni  Ni105  1  0.72150933  0.08229367  0.14114090  1.0
  Ni  Ni106  1  0.72150933  0.41562700  0.14114090  1.0
  Ni  Ni107  1  0.72150933  0.74896033  0.14114090  1.0
  Ni  Ni108  1  0.23071700  0.16666667  0.11921510  1.0
  Ni  Ni109  1  0.23071700  0.50000000  0.11921510  1.0
  Ni  Ni110  1  0.23071700  0.83333333  0.11921510  1.0
  Ni  Ni111  1  0.56405033  0.16666667  0.11921510  1.0
  Ni  Ni112  1  0.56405033  0.50000000  0.11921510  1.0
  Ni  Ni113  1  0.56405033  0.83333333  0.11921510  1.0
  Ni  Ni114  1  0.89738367  0.16666667  0.11921510  1.0
  Ni  Ni115  1  0.89738367  0.50000000  0.11921510  1.0
  Ni  Ni116  1  0.89738367  0.83333333  0.11921510  1.0
  Ni  Ni117  1  0.10261633  0.00000000  0.18078490  1.0
  Ni  Ni118  1  0.10261633  0.33333333  0.18078490  1.0
  Ni  Ni119  1  0.10261633  0.66666667  0.18078490  1.0
  Ni  Ni120  1  0.43594967  0.00000000  0.18078490  1.0
  Ni  Ni121  1  0.43594967  0.33333333  0.18078490  1.0
  Ni  Ni122  1  0.43594967  0.66666667  0.18078490  1.0
  Ni  Ni123  1  0.76928300  0.00000000  0.18078490  1.0
  Ni  Ni124  1  0.76928300  0.33333333  0.18078490  1.0
  Ni  Ni125  1  0.76928300  0.66666667  0.18078490  1.0
  Sn  Sn126  1  0.11125300  0.16666667  0.13337590  1.0
  Sn  Sn127  1  0.11125300  0.50000000  0.13337590  1.0
  Sn  Sn128  1  0.11125300  0.83333333  0.13337590  1.0
  Sn  Sn129  1  0.44458633  0.16666667  0.13337590  1.0
  Sn  Sn130  1  0.44458633  0.50000000  0.13337590  1.0
  Sn  Sn131  1  0.44458633  0.83333333  0.13337590  1.0
  Sn  Sn132  1  0.77791967  0.16666667  0.13337590  1.0
  Sn  Sn133  1  0.77791967  0.50000000  0.13337590  1.0
  Sn  Sn134  1  0.77791967  0.83333333  0.13337590  1.0
  Sn  Sn135  1  0.22208033  0.00000000  0.16662410  1.0
  Sn  Sn136  1  0.22208033  0.33333333  0.16662410  1.0
  Sn  Sn137  1  0.22208033  0.66666667  0.16662410  1.0
  Sn  Sn138  1  0.55541367  0.00000000  0.16662410  1.0
  Sn  Sn139  1  0.55541367  0.33333333  0.16662410  1.0
  Sn  Sn140  1  0.55541367  0.66666667  0.16662410  1.0
  Sn  Sn141  1  0.88874700  0.00000000  0.16662410  1.0
  Sn  Sn142  1  0.88874700  0.33333333  0.16662410  1.0
  Sn  Sn143  1  0.88874700  0.66666667  0.16662410  1.0
  Ni  Ni144  1  0.27849067  0.24896033  0.20823530  1.0
  Ni  Ni145  1  0.27849067  0.58229367  0.20823530  1.0
  Ni  Ni146  1  0.27849067  0.91562700  0.20823530  1.0
  Ni  Ni147  1  0.61182400  0.24896033  0.20823530  1.0
  Ni  Ni148  1  0.61182400  0.58229367  0.20823530  1.0
  Ni  Ni149  1  0.61182400  0.91562700  0.20823530  1.0
  Ni  Ni150  1  0.94515733  0.24896033  0.20823530  1.0
  Ni  Ni151  1  0.94515733  0.58229367  0.20823530  1.0
  Ni  Ni152  1  0.94515733  0.91562700  0.20823530  1.0
  Ni  Ni153  1  0.27849067  0.08437300  0.25885910  1.0
  Ni  Ni154  1  0.27849067  0.41770633  0.25885910  1.0
  Ni  Ni155  1  0.27849067  0.75103967  0.25885910  1.0
  Ni  Ni156  1  0.61182400  0.08437300  0.25885910  1.0
  Ni  Ni157  1  0.61182400  0.41770633  0.25885910  1.0
  Ni  Ni158  1  0.61182400  0.75103967  0.25885910  1.0
  Ni  Ni159  1  0.94515733  0.08437300  0.25885910  1.0
  Ni  Ni160  1  0.94515733  0.41770633  0.25885910  1.0
  Ni  Ni161  1  0.94515733  0.75103967  0.25885910  1.0
  Ni  Ni162  1  0.05484267  0.25103967  0.29176470  1.0
  Ni  Ni163  1  0.05484267  0.58437300  0.29176470  1.0
  Ni  Ni164  1  0.05484267  0.91770633  0.29176470  1.0
  Ni  Ni165  1  0.38817600  0.25103967  0.29176470  1.0
  Ni  Ni166  1  0.38817600  0.58437300  0.29176470  1.0
  Ni  Ni167  1  0.38817600  0.91770633  0.29176470  1.0
  Ni  Ni168  1  0.72150933  0.25103967  0.29176470  1.0
  Ni  Ni169  1  0.72150933  0.58437300  0.29176470  1.0
  Ni  Ni170  1  0.72150933  0.91770633  0.29176470  1.0
  Ni  Ni171  1  0.05484267  0.08229367  0.24114090  1.0
  Ni  Ni172  1  0.05484267  0.41562700  0.24114090  1.0
  Ni  Ni173  1  0.05484267  0.74896033  0.24114090  1.0
  Ni  Ni174  1  0.38817600  0.08229367  0.24114090  1.0
  Ni  Ni175  1  0.38817600  0.41562700  0.24114090  1.0
  Ni  Ni176  1  0.38817600  0.74896033  0.24114090  1.0
  Ni  Ni177  1  0.72150933  0.08229367  0.24114090  1.0
  Ni  Ni178  1  0.72150933  0.41562700  0.24114090  1.0
  Ni  Ni179  1  0.72150933  0.74896033  0.24114090  1.0
  Ni  Ni180  1  0.23071700  0.16666667  0.21921510  1.0
  Ni  Ni181  1  0.23071700  0.50000000  0.21921510  1.0
  Ni  Ni182  1  0.23071700  0.83333333  0.21921510  1.0
  Ni  Ni183  1  0.56405033  0.16666667  0.21921510  1.0
  Ni  Ni184  1  0.56405033  0.50000000  0.21921510  1.0
  Ni  Ni185  1  0.56405033  0.83333333  0.21921510  1.0
  Ni  Ni186  1  0.89738367  0.16666667  0.21921510  1.0
  Ni  Ni187  1  0.89738367  0.50000000  0.21921510  1.0
  Ni  Ni188  1  0.89738367  0.83333333  0.21921510  1.0
  Ni  Ni189  1  0.10261633  0.00000000  0.28078490  1.0
  Ni  Ni190  1  0.10261633  0.33333333  0.28078490  1.0
  Ni  Ni191  1  0.10261633  0.66666667  0.28078490  1.0
  Ni  Ni192  1  0.43594967  0.00000000  0.28078490  1.0
  Ni  Ni193  1  0.43594967  0.33333333  0.28078490  1.0
  Ni  Ni194  1  0.43594967  0.66666667  0.28078490  1.0
  Ni  Ni195  1  0.76928300  0.00000000  0.28078490  1.0
  Ni  Ni196  1  0.76928300  0.33333333  0.28078490  1.0
  Ni  Ni197  1  0.76928300  0.66666667  0.28078490  1.0
  Sn  Sn198  1  0.11125300  0.16666667  0.23337590  1.0
  Sn  Sn199  1  0.11125300  0.50000000  0.23337590  1.0
  Sn  Sn200  1  0.11125300  0.83333333  0.23337590  1.0
  Sn  Sn201  1  0.44458633  0.16666667  0.23337590  1.0
  Sn  Sn202  1  0.44458633  0.50000000  0.23337590  1.0
  Sn  Sn203  1  0.44458633  0.83333333  0.23337590  1.0
  Sn  Sn204  1  0.77791967  0.16666667  0.23337590  1.0
  Sn  Sn205  1  0.77791967  0.50000000  0.23337590  1.0
  Sn  Sn206  1  0.77791967  0.83333333  0.23337590  1.0
  Sn  Sn207  1  0.22208033  0.00000000  0.26662410  1.0
  Sn  Sn208  1  0.22208033  0.33333333  0.26662410  1.0
  Sn  Sn209  1  0.22208033  0.66666667  0.26662410  1.0
  Sn  Sn210  1  0.55541367  0.00000000  0.26662410  1.0
  Sn  Sn211  1  0.55541367  0.33333333  0.26662410  1.0
  Sn  Sn212  1  0.55541367  0.66666667  0.26662410  1.0
  Sn  Sn213  1  0.88874700  0.00000000  0.26662410  1.0
  Sn  Sn214  1  0.88874700  0.33333333  0.26662410  1.0
  Sn  Sn215  1  0.88874700  0.66666667  0.26662410  1.0
  Ni  Ni216  1  0.27849067  0.24896033  0.30823530  1.0
  Ni  Ni217  1  0.27849067  0.58229367  0.30823530  1.0
  Ni  Ni218  1  0.27849067  0.91562700  0.30823530  1.0
  Ni  Ni219  1  0.61182400  0.24896033  0.30823530  1.0
  Ni  Ni220  1  0.61182400  0.58229367  0.30823530  1.0
  Ni  Ni221  1  0.61182400  0.91562700  0.30823530  1.0
  Ni  Ni222  1  0.94515733  0.24896033  0.30823530  1.0
  Ni  Ni223  1  0.94515733  0.58229367  0.30823530  1.0
  Ni  Ni224  1  0.94515733  0.91562700  0.30823530  1.0
  Ni  Ni225  1  0.27849067  0.08437300  0.35885910  1.0
  Ni  Ni226  1  0.27849067  0.41770633  0.35885910  1.0
  Ni  Ni227  1  0.27849067  0.75103967  0.35885910  1.0
  Ni  Ni228  1  0.61182400  0.08437300  0.35885910  1.0
  Ni  Ni229  1  0.61182400  0.41770633  0.35885910  1.0
  Ni  Ni230  1  0.61182400  0.75103967  0.35885910  1.0
  Ni  Ni231  1  0.94515733  0.08437300  0.35885910  1.0
  Ni  Ni232  1  0.94515733  0.41770633  0.35885910  1.0
  Ni  Ni233  1  0.94515733  0.75103967  0.35885910  1.0
  Ni  Ni234  1  0.05484267  0.25103967  0.39176470  1.0
  Ni  Ni235  1  0.05484267  0.58437300  0.39176470  1.0
  Ni  Ni236  1  0.05484267  0.91770633  0.39176470  1.0
  Ni  Ni237  1  0.38817600  0.25103967  0.39176470  1.0
  Ni  Ni238  1  0.38817600  0.58437300  0.39176470  1.0
  Ni  Ni239  1  0.38817600  0.91770633  0.39176470  1.0
  Ni  Ni240  1  0.72150933  0.25103967  0.39176470  1.0
  Ni  Ni241  1  0.72150933  0.58437300  0.39176470  1.0
  Ni  Ni242  1  0.72150933  0.91770633  0.39176470  1.0
  Ni  Ni243  1  0.05484267  0.08229367  0.34114090  1.0
  Ni  Ni244  1  0.05484267  0.41562700  0.34114090  1.0
  Ni  Ni245  1  0.05484267  0.74896033  0.34114090  1.0
  Ni  Ni246  1  0.38817600  0.08229367  0.34114090  1.0
  Ni  Ni247  1  0.38817600  0.41562700  0.34114090  1.0
  Ni  Ni248  1  0.38817600  0.74896033  0.34114090  1.0
  Ni  Ni249  1  0.72150933  0.08229367  0.34114090  1.0
  Ni  Ni250  1  0.72150933  0.41562700  0.34114090  1.0
  Ni  Ni251  1  0.72150933  0.74896033  0.34114090  1.0
  Ni  Ni252  1  0.23071700  0.16666667  0.31921510  1.0
  Ni  Ni253  1  0.23071700  0.50000000  0.31921510  1.0
  Ni  Ni254  1  0.23071700  0.83333333  0.31921510  1.0
  Ni  Ni255  1  0.56405033  0.16666667  0.31921510  1.0
  Ni  Ni256  1  0.56405033  0.50000000  0.31921510  1.0
  Ni  Ni257  1  0.56405033  0.83333333  0.31921510  1.0
  Ni  Ni258  1  0.89738367  0.16666667  0.31921510  1.0
  Ni  Ni259  1  0.89738367  0.50000000  0.31921510  1.0
  Ni  Ni260  1  0.89738367  0.83333333  0.31921510  1.0
  Ni  Ni261  1  0.10261633  0.00000000  0.38078490  1.0
  Ni  Ni262  1  0.10261633  0.33333333  0.38078490  1.0
  Ni  Ni263  1  0.10261633  0.66666667  0.38078490  1.0
  Ni  Ni264  1  0.43594967  0.00000000  0.38078490  1.0
  Ni  Ni265  1  0.43594967  0.33333333  0.38078490  1.0
  Ni  Ni266  1  0.43594967  0.66666667  0.38078490  1.0
  Ni  Ni267  1  0.76928300  0.00000000  0.38078490  1.0
  Ni  Ni268  1  0.76928300  0.33333333  0.38078490  1.0
  Ni  Ni269  1  0.76928300  0.66666667  0.38078490  1.0
  Sn  Sn270  1  0.11125300  0.16666667  0.33337590  1.0
  Sn  Sn271  1  0.11125300  0.50000000  0.33337590  1.0
  Sn  Sn272  1  0.11125300  0.83333333  0.33337590  1.0
  Sn  Sn273  1  0.44458633  0.16666667  0.33337590  1.0
  Sn  Sn274  1  0.44458633  0.50000000  0.33337590  1.0
  Sn  Sn275  1  0.44458633  0.83333333  0.33337590  1.0
  Sn  Sn276  1  0.77791967  0.16666667  0.33337590  1.0
  Sn  Sn277  1  0.77791967  0.50000000  0.33337590  1.0
  Sn  Sn278  1  0.77791967  0.83333333  0.33337590  1.0
  Sn  Sn279  1  0.22208033  0.00000000  0.36662410  1.0
  Sn  Sn280  1  0.22208033  0.33333333  0.36662410  1.0
  Sn  Sn281  1  0.22208033  0.66666667  0.36662410  1.0
  Sn  Sn282  1  0.55541367  0.00000000  0.36662410  1.0
  Sn  Sn283  1  0.55541367  0.33333333  0.36662410  1.0
  Sn  Sn284  1  0.55541367  0.66666667  0.36662410  1.0
  Sn  Sn285  1  0.88874700  0.00000000  0.36662410  1.0
  Sn  Sn286  1  0.88874700  0.33333333  0.36662410  1.0
  Sn  Sn287  1  0.88874700  0.66666667  0.36662410  1.0
