# generated using pymatgen
data_Ni3Sb
_symmetry_space_group_name_H-M   'P 1'
_cell_length_a   12.55503021
_cell_length_b   17.75549400
_cell_length_c   29.29507049
_cell_angle_alpha   90.00000000
_cell_angle_beta   90.00000000
_cell_angle_gamma   90.00000000
_symmetry_Int_Tables_number   1
_chemical_formula_structural   Ni3Sb
_chemical_formula_sum   'Ni162 Sb54'
_cell_volume   6530.47948190
_cell_formula_units_Z   54
loop_
 _symmetry_equiv_pos_site_id
 _symmetry_equiv_pos_as_xyz
  1  'x, y, z'
loop_
 _atom_site_type_symbol
 _atom_site_label
 _atom_site_symmetry_multiplicity
 _atom_site_fract_x
 _atom_site_fract_y
 _atom_site_fract_z
 _atom_site_occupancy
  Ni  Ni0  1  0.00000000  0.16666667  0.89285714  1.0
  Ni  Ni1  1  0.00000000  0.50000000  0.89285714  1.0
  Ni  Ni2  1  0.00000000  0.83333333  0.89285714  1.0
  Ni  Ni3  1  0.33333333  0.16666667  0.89285714  1.0
  Ni  Ni4  1  0.33333333  0.50000000  0.89285714  1.0
  Ni  Ni5  1  0.33333333  0.83333333  0.89285714  1.0
  Ni  Ni6  1  0.66666667  0.16666667  0.89285714  1.0
  Ni  Ni7  1  0.66666667  0.50000000  0.89285714  1.0
  Ni  Ni8  1  0.66666667  0.83333333  0.89285714  1.0
  Ni  Ni9  1  0.16666667  0.33333333  0.96428571  1.0
  Ni  Ni10  1  0.16666667  0.66666667  0.96428571  1.0
  Ni  Ni11  1  0.16666667  1.00000000  0.96428571  1.0
  Ni  Ni12  1  0.50000000  0.33333333  0.96428571  1.0
  Ni  Ni13  1  0.50000000  0.66666667  0.96428571  1.0
  Ni  Ni14  1  0.50000000  1.00000000  0.96428571  1.0
  Ni  Ni15  1  0.83333333  0.33333333  0.96428571  1.0
  Ni  Ni16  1  0.83333333  0.66666667  0.96428571  1.0
  Ni  Ni17  1  0.83333333  1.00000000  0.96428571  1.0
  Ni  Ni18  1  0.00000000  0.08333333  0.96428571  1.0
  Ni  Ni19  1  0.00000000  0.41666667  0.96428571  1.0
  Ni  Ni20  1  0.00000000  0.75000000  0.96428571  1.0
  Ni  Ni21  1  0.33333333  0.08333333  0.96428571  1.0
  Ni  Ni22  1  0.33333333  0.41666667  0.96428571  1.0
  Ni  Ni23  1  0.33333333  0.75000000  0.96428571  1.0
  Ni  Ni24  1  0.66666667  0.08333333  0.96428571  1.0
  Ni  Ni25  1  0.66666667  0.41666667  0.96428571  1.0
  Ni  Ni26  1  0.66666667  0.75000000  0.96428571  1.0
  Ni  Ni27  1  0.16666667  0.25000000  0.89285714  1.0
  Ni  Ni28  1  0.16666667  0.58333333  0.89285714  1.0
  Ni  Ni29  1  0.16666667  0.91666667  0.89285714  1.0
  Ni  Ni30  1  0.50000000  0.25000000  0.89285714  1.0
  Ni  Ni31  1  0.50000000  0.58333333  0.89285714  1.0
  Ni  Ni32  1  0.50000000  0.91666667  0.89285714  1.0
  Ni  Ni33  1  0.83333333  0.25000000  0.89285714  1.0
  Ni  Ni34  1  0.83333333  0.58333333  0.89285714  1.0
  Ni  Ni35  1  0.83333333  0.91666667  0.89285714  1.0
  Ni  Ni36  1  0.00000000  0.25000000  0.96428571  1.0
  Ni  Ni37  1  0.00000000  0.58333333  0.96428571  1.0
  Ni  Ni38  1  0.00000000  0.91666667  0.96428571  1.0
  Ni  Ni39  1  0.33333333  0.25000000  0.96428571  1.0
  Ni  Ni40  1  0.33333333  0.58333333  0.96428571  1.0
  Ni  Ni41  1  0.33333333  0.91666667  0.96428571  1.0
  Ni  Ni42  1  0.66666667  0.25000000  0.96428571  1.0
  Ni  Ni43  1  0.66666667  0.58333333  0.96428571  1.0
  Ni  Ni44  1  0.66666667  0.91666667  0.96428571  1.0
  Ni  Ni45  1  0.16666667  0.08333333  0.89285714  1.0
  Ni  Ni46  1  0.16666667  0.41666667  0.89285714  1.0
  Ni  Ni47  1  0.16666667  0.75000000  0.89285714  1.0
  Ni  Ni48  1  0.50000000  0.08333333  0.89285714  1.0
  Ni  Ni49  1  0.50000000  0.41666667  0.89285714  1.0
  Ni  Ni50  1  0.50000000  0.75000000  0.89285714  1.0
  Ni  Ni51  1  0.83333333  0.08333333  0.89285714  1.0
  Ni  Ni52  1  0.83333333  0.41666667  0.89285714  1.0
  Ni  Ni53  1  0.83333333  0.75000000  0.89285714  1.0
  Ni  Ni54  1  0.00000000  0.16666667  0.75000000  1.0
  Ni  Ni55  1  0.00000000  0.50000000  0.75000000  1.0
  Ni  Ni56  1  0.00000000  0.83333333  0.75000000  1.0
  Ni  Ni57  1  0.33333333  0.16666667  0.75000000  1.0
  Ni  Ni58  1  0.33333333  0.50000000  0.75000000  1.0
  Ni  Ni59  1  0.33333333  0.83333333  0.75000000  1.0
  Ni  Ni60  1  0.66666667  0.16666667  0.75000000  1.0
  Ni  Ni61  1  0.66666667  0.50000000  0.75000000  1.0
  Ni  Ni62  1  0.66666667  0.83333333  0.75000000  1.0
  Ni  Ni63  1  0.16666667  0.33333333  0.82142857  1.0
  Ni  Ni64  1  0.16666667  0.66666667  0.82142857  1.0
  Ni  Ni65  1  0.16666667  1.00000000  0.82142857  1.0
  Ni  Ni66  1  0.50000000  0.33333333  0.82142857  1.0
  Ni  Ni67  1  0.50000000  0.66666667  0.82142857  1.0
  Ni  Ni68  1  0.50000000  1.00000000  0.82142857  1.0
  Ni  Ni69  1  0.83333333  0.33333333  0.82142857  1.0
  Ni  Ni70  1  0.83333333  0.66666667  0.82142857  1.0
  Ni  Ni71  1  0.83333333  1.00000000  0.82142857  1.0
  Ni  Ni72  1  0.00000000  0.08333333  0.82142857  1.0
  Ni  Ni73  1  0.00000000  0.41666667  0.82142857  1.0
  Ni  Ni74  1  0.00000000  0.75000000  0.82142857  1.0
  Ni  Ni75  1  0.33333333  0.08333333  0.82142857  1.0
  Ni  Ni76  1  0.33333333  0.41666667  0.82142857  1.0
  Ni  Ni77  1  0.33333333  0.75000000  0.82142857  1.0
  Ni  Ni78  1  0.66666667  0.08333333  0.82142857  1.0
  Ni  Ni79  1  0.66666667  0.41666667  0.82142857  1.0
  Ni  Ni80  1  0.66666667  0.75000000  0.82142857  1.0
  Ni  Ni81  1  0.16666667  0.25000000  0.75000000  1.0
  Ni  Ni82  1  0.16666667  0.58333333  0.75000000  1.0
  Ni  Ni83  1  0.16666667  0.91666667  0.75000000  1.0
  Ni  Ni84  1  0.50000000  0.25000000  0.75000000  1.0
  Ni  Ni85  1  0.50000000  0.58333333  0.75000000  1.0
  Ni  Ni86  1  0.50000000  0.91666667  0.75000000  1.0
  Ni  Ni87  1  0.83333333  0.25000000  0.75000000  1.0
  Ni  Ni88  1  0.83333333  0.58333333  0.75000000  1.0
  Ni  Ni89  1  0.83333333  0.91666667  0.75000000  1.0
  Ni  Ni90  1  0.00000000  0.25000000  0.82142857  1.0
  Ni  Ni91  1  0.00000000  0.58333333  0.82142857  1.0
  Ni  Ni92  1  0.00000000  0.91666667  0.82142857  1.0
  Ni  Ni93  1  0.33333333  0.25000000  0.82142857  1.0
  Ni  Ni94  1  0.33333333  0.58333333  0.82142857  1.0
  Ni  Ni95  1  0.33333333  0.91666667  0.82142857  1.0
  Ni  Ni96  1  0.66666667  0.25000000  0.82142857  1.0
  Ni  Ni97  1  0.66666667  0.58333333  0.82142857  1.0
  Ni  Ni98  1  0.66666667  0.91666667  0.82142857  1.0
  Ni  Ni99  1  0.16666667  0.08333333  0.75000000  1.0
  Ni  Ni100  1  0.16666667  0.41666667  0.75000000  1.0
  Ni  Ni101  1  0.16666667  0.75000000  0.75000000  1.0
  Ni  Ni102  1  0.50000000  0.08333333  0.75000000  1.0
  Ni  Ni103  1  0.50000000  0.41666667  0.75000000  1.0
  Ni  Ni104  1  0.50000000  0.75000000  0.75000000  1.0
  Ni  Ni105  1  0.83333333  0.08333333  0.75000000  1.0
  Ni  Ni106  1  0.83333333  0.41666667  0.75000000  1.0
  Ni  Ni107  1  0.83333333  0.75000000  0.75000000  1.0
  Ni  Ni108  1  0.00000000  0.16666667  0.60714286  1.0
  Ni  Ni109  1  0.00000000  0.50000000  0.60714286  1.0
  Ni  Ni110  1  0.00000000  0.83333333  0.60714286  1.0
  Ni  Ni111  1  0.33333333  0.16666667  0.60714286  1.0
  Ni  Ni112  1  0.33333333  0.50000000  0.60714286  1.0
  Ni  Ni113  1  0.33333333  0.83333333  0.60714286  1.0
  Ni  Ni114  1  0.66666667  0.16666667  0.60714286  1.0
  Ni  Ni115  1  0.66666667  0.50000000  0.60714286  1.0
  Ni  Ni116  1  0.66666667  0.83333333  0.60714286  1.0
  Ni  Ni117  1  0.16666667  0.00000000  0.67857143  1.0
  Ni  Ni118  1  0.16666667  0.33333333  0.67857143  1.0
  Ni  Ni119  1  0.16666667  0.66666667  0.67857143  1.0
  Ni  Ni120  1  0.50000000  0.00000000  0.67857143  1.0
  Ni  Ni121  1  0.50000000  0.33333333  0.67857143  1.0
  Ni  Ni122  1  0.50000000  0.66666667  0.67857143  1.0
  Ni  Ni123  1  0.83333333  0.00000000  0.67857143  1.0
  Ni  Ni124  1  0.83333333  0.33333333  0.67857143  1.0
  Ni  Ni125  1  0.83333333  0.66666667  0.67857143  1.0
  Ni  Ni126  1  0.00000000  0.08333333  0.67857143  1.0
  Ni  Ni127  1  0.00000000  0.41666667  0.67857143  1.0
  Ni  Ni128  1  0.00000000  0.75000000  0.67857143  1.0
  Ni  Ni129  1  0.33333333  0.08333333  0.67857143  1.0
  Ni  Ni130  1  0.33333333  0.41666667  0.67857143  1.0
  Ni  Ni131  1  0.33333333  0.75000000  0.67857143  1.0
  Ni  Ni132  1  0.66666667  0.08333333  0.67857143  1.0
  Ni  Ni133  1  0.66666667  0.41666667  0.67857143  1.0
  Ni  Ni134  1  0.66666667  0.75000000  0.67857143  1.0
  Ni  Ni135  1  0.16666667  0.25000000  0.60714286  1.0
  Ni  Ni136  1  0.16666667  0.58333333  0.60714286  1.0
  Ni  Ni137  1  0.16666667  0.91666667  0.60714286  1.0
  Ni  Ni138  1  0.50000000  0.25000000  0.60714286  1.0
  Ni  Ni139  1  0.50000000  0.58333333  0.60714286  1.0
  Ni  Ni140  1  0.50000000  0.91666667  0.60714286  1.0
  Ni  Ni141  1  0.83333333  0.25000000  0.60714286  1.0
  Ni  Ni142  1  0.83333333  0.58333333  0.60714286  1.0
  Ni  Ni143  1  0.83333333  0.91666667  0.60714286  1.0
  Ni  Ni144  1  0.00000000  0.25000000  0.67857143  1.0
  Ni  Ni145  1  0.00000000  0.58333333  0.67857143  1.0
  Ni  Ni146  1  0.00000000  0.91666667  0.67857143  1.0
  Ni  Ni147  1  0.33333333  0.25000000  0.67857143  1.0
  Ni  Ni148  1  0.33333333  0.58333333  0.67857143  1.0
  Ni  Ni149  1  0.33333333  0.91666667  0.67857143  1.0
  Ni  Ni150  1  0.66666667  0.25000000  0.67857143  1.0
  Ni  Ni151  1  0.66666667  0.58333333  0.67857143  1.0
  Ni  Ni152  1  0.66666667  0.91666667  0.67857143  1.0
  Ni  Ni153  1  0.16666667  0.08333333  0.60714286  1.0
  Ni  Ni154  1  0.16666667  0.41666667  0.60714286  1.0
  Ni  Ni155  1  0.16666667  0.75000000  0.60714286  1.0
  Ni  Ni156  1  0.50000000  0.08333333  0.60714286  1.0
  Ni  Ni157  1  0.50000000  0.41666667  0.60714286  1.0
  Ni  Ni158  1  0.50000000  0.75000000  0.60714286  1.0
  Ni  Ni159  1  0.83333333  0.08333333  0.60714286  1.0
  Ni  Ni160  1  0.83333333  0.41666667  0.60714286  1.0
  Ni  Ni161  1  0.83333333  0.75000000  0.60714286  1.0
  Sb  Sb162  1  0.00000000  0.00000000  0.89285714  1.0
  Sb  Sb163  1  0.00000000  0.33333333  0.89285714  1.0
  Sb  Sb164  1  0.00000000  0.66666667  0.89285714  1.0
  Sb  Sb165  1  0.33333333  0.00000000  0.89285714  1.0
  Sb  Sb166  1  0.33333333  0.33333333  0.89285714  1.0
  Sb  Sb167  1  0.33333333  0.66666667  0.89285714  1.0
  Sb  Sb168  1  0.66666667  0.00000000  0.89285714  1.0
  Sb  Sb169  1  0.66666667  0.33333333  0.89285714  1.0
  Sb  Sb170  1  0.66666667  0.66666667  0.89285714  1.0
  Sb  Sb171  1  0.16666667  0.16666667  0.96428571  1.0
  Sb  Sb172  1  0.16666667  0.50000000  0.96428571  1.0
  Sb  Sb173  1  0.16666667  0.83333333  0.96428571  1.0
  Sb  Sb174  1  0.50000000  0.16666667  0.96428571  1.0
  Sb  Sb175  1  0.50000000  0.50000000  0.96428571  1.0
  Sb  Sb176  1  0.50000000  0.83333333  0.96428571  1.0
  Sb  Sb177  1  0.83333333  0.16666667  0.96428571  1.0
  Sb  Sb178  1  0.83333333  0.50000000  0.96428571  1.0
  Sb  Sb179  1  0.83333333  0.83333333  0.96428571  1.0
  Sb  Sb180  1  0.00000000  0.00000000  0.75000000  1.0
  Sb  Sb181  1  0.00000000  0.33333333  0.75000000  1.0
  Sb  Sb182  1  0.00000000  0.66666667  0.75000000  1.0
  Sb  Sb183  1  0.33333333  0.00000000  0.75000000  1.0
  Sb  Sb184  1  0.33333333  0.33333333  0.75000000  1.0
  Sb  Sb185  1  0.33333333  0.66666667  0.75000000  1.0
  Sb  Sb186  1  0.66666667  0.00000000  0.75000000  1.0
  Sb  Sb187  1  0.66666667  0.33333333  0.75000000  1.0
  Sb  Sb188  1  0.66666667  0.66666667  0.75000000  1.0
  Sb  Sb189  1  0.16666667  0.16666667  0.82142857  1.0
  Sb  Sb190  1  0.16666667  0.50000000  0.82142857  1.0
  Sb  Sb191  1  0.16666667  0.83333333  0.82142857  1.0
  Sb  Sb192  1  0.50000000  0.16666667  0.82142857  1.0
  Sb  Sb193  1  0.50000000  0.50000000  0.82142857  1.0
  Sb  Sb194  1  0.50000000  0.83333333  0.82142857  1.0
  Sb  Sb195  1  0.83333333  0.16666667  0.82142857  1.0
  Sb  Sb196  1  0.83333333  0.50000000  0.82142857  1.0
  Sb  Sb197  1  0.83333333  0.83333333  0.82142857  1.0
  Sb  Sb198  1  0.00000000  0.00000000  0.60714286  1.0
  Sb  Sb199  1  0.00000000  0.33333333  0.60714286  1.0
  Sb  Sb200  1  0.00000000  0.66666667  0.60714286  1.0
  Sb  Sb201  1  0.33333333  0.00000000  0.60714286  1.0
  Sb  Sb202  1  0.33333333  0.33333333  0.60714286  1.0
  Sb  Sb203  1  0.33333333  0.66666667  0.60714286  1.0
  Sb  Sb204  1  0.66666667  0.00000000  0.60714286  1.0
  Sb  Sb205  1  0.66666667  0.33333333  0.60714286  1.0
  Sb  Sb206  1  0.66666667  0.66666667  0.60714286  1.0
  Sb  Sb207  1  0.16666667  0.16666667  0.67857143  1.0
  Sb  Sb208  1  0.16666667  0.50000000  0.67857143  1.0
  Sb  Sb209  1  0.16666667  0.83333333  0.67857143  1.0
  Sb  Sb210  1  0.50000000  0.16666667  0.67857143  1.0
  Sb  Sb211  1  0.50000000  0.50000000  0.67857143  1.0
  Sb  Sb212  1  0.50000000  0.83333333  0.67857143  1.0
  Sb  Sb213  1  0.83333333  0.16666667  0.67857143  1.0
  Sb  Sb214  1  0.83333333  0.50000000  0.67857143  1.0
  Sb  Sb215  1  0.83333333  0.83333333  0.67857143  1.0
