# generated using pymatgen
data_Ni3Sn
_symmetry_space_group_name_H-M   'P 1'
_cell_length_a   12.56413491
_cell_length_b   21.76172002
_cell_length_c   33.50435976
_cell_angle_alpha   90.00000000
_cell_angle_beta   120.00000000
_cell_angle_gamma   73.22134512
_symmetry_Int_Tables_number   1
_chemical_formula_structural   Ni3Sn
_chemical_formula_sum   'Ni162 Sn54'
_cell_volume   7479.65391324
_cell_formula_units_Z   54
loop_
 _symmetry_equiv_pos_site_id
 _symmetry_equiv_pos_as_xyz
  1  'x, y, z'
loop_
 _atom_site_type_symbol
 _atom_site_label
 _atom_site_symmetry_multiplicity
 _atom_site_fract_x
 _atom_site_fract_y
 _atom_site_fract_z
 _atom_site_occupancy
  Ni  Ni0  1  0.16666667  0.08333333  0.02343750  1.0
  Ni  Ni1  1  0.16666667  0.41666667  0.02343750  1.0
  Ni  Ni2  1  0.16666667  0.75000000  0.02343750  1.0
  Ni  Ni3  1  0.50000000  0.08333333  0.02343750  1.0
  Ni  Ni4  1  0.50000000  0.41666667  0.02343750  1.0
  Ni  Ni5  1  0.50000000  0.75000000  0.02343750  1.0
  Ni  Ni6  1  0.83333333  0.08333333  0.02343750  1.0
  Ni  Ni7  1  0.83333333  0.41666667  0.02343750  1.0
  Ni  Ni8  1  0.83333333  0.75000000  0.02343750  1.0
  Ni  Ni9  1  0.16666667  0.25000000  0.08593750  1.0
  Ni  Ni10  1  0.16666667  0.58333333  0.08593750  1.0
  Ni  Ni11  1  0.16666667  0.91666667  0.08593750  1.0
  Ni  Ni12  1  0.50000000  0.25000000  0.08593750  1.0
  Ni  Ni13  1  0.50000000  0.58333333  0.08593750  1.0
  Ni  Ni14  1  0.50000000  0.91666667  0.08593750  1.0
  Ni  Ni15  1  0.83333333  0.25000000  0.08593750  1.0
  Ni  Ni16  1  0.83333333  0.58333333  0.08593750  1.0
  Ni  Ni17  1  0.83333333  0.91666667  0.08593750  1.0
  Ni  Ni18  1  0.25000000  0.12500000  0.10156250  1.0
  Ni  Ni19  1  0.25000000  0.45833333  0.10156250  1.0
  Ni  Ni20  1  0.25000000  0.79166667  0.10156250  1.0
  Ni  Ni21  1  0.58333333  0.12500000  0.10156250  1.0
  Ni  Ni22  1  0.58333333  0.45833333  0.10156250  1.0
  Ni  Ni23  1  0.58333333  0.79166667  0.10156250  1.0
  Ni  Ni24  1  0.91666667  0.12500000  0.10156250  1.0
  Ni  Ni25  1  0.91666667  0.45833333  0.10156250  1.0
  Ni  Ni26  1  0.91666667  0.79166667  0.10156250  1.0
  Ni  Ni27  1  0.25000000  0.29166667  0.03906250  1.0
  Ni  Ni28  1  0.25000000  0.62500000  0.03906250  1.0
  Ni  Ni29  1  0.25000000  0.95833333  0.03906250  1.0
  Ni  Ni30  1  0.58333333  0.29166667  0.03906250  1.0
  Ni  Ni31  1  0.58333333  0.62500000  0.03906250  1.0
  Ni  Ni32  1  0.58333333  0.95833333  0.03906250  1.0
  Ni  Ni33  1  0.91666667  0.29166667  0.03906250  1.0
  Ni  Ni34  1  0.91666667  0.62500000  0.03906250  1.0
  Ni  Ni35  1  0.91666667  0.95833333  0.03906250  1.0
  Ni  Ni36  1  0.08333333  0.04166667  0.07031250  1.0
  Ni  Ni37  1  0.08333333  0.37500000  0.07031250  1.0
  Ni  Ni38  1  0.08333333  0.70833333  0.07031250  1.0
  Ni  Ni39  1  0.41666667  0.04166667  0.07031250  1.0
  Ni  Ni40  1  0.41666667  0.37500000  0.07031250  1.0
  Ni  Ni41  1  0.41666667  0.70833333  0.07031250  1.0
  Ni  Ni42  1  0.75000000  0.04166667  0.07031250  1.0
  Ni  Ni43  1  0.75000000  0.37500000  0.07031250  1.0
  Ni  Ni44  1  0.75000000  0.70833333  0.07031250  1.0
  Ni  Ni45  1  0.08333333  0.20833333  0.00781250  1.0
  Ni  Ni46  1  0.08333333  0.54166667  0.00781250  1.0
  Ni  Ni47  1  0.08333333  0.87500000  0.00781250  1.0
  Ni  Ni48  1  0.41666667  0.20833333  0.00781250  1.0
  Ni  Ni49  1  0.41666667  0.54166667  0.00781250  1.0
  Ni  Ni50  1  0.41666667  0.87500000  0.00781250  1.0
  Ni  Ni51  1  0.75000000  0.20833333  0.00781250  1.0
  Ni  Ni52  1  0.75000000  0.54166667  0.00781250  1.0
  Ni  Ni53  1  0.75000000  0.87500000  0.00781250  1.0
  Sn  Sn54  1  0.00000000  0.00000000  0.11718750  1.0
  Sn  Sn55  1  0.00000000  0.33333333  0.11718750  1.0
  Sn  Sn56  1  0.00000000  0.66666667  0.11718750  1.0
  Sn  Sn57  1  0.33333333  0.00000000  0.11718750  1.0
  Sn  Sn58  1  0.33333333  0.33333333  0.11718750  1.0
  Sn  Sn59  1  0.33333333  0.66666667  0.11718750  1.0
  Sn  Sn60  1  0.66666667  0.00000000  0.11718750  1.0
  Sn  Sn61  1  0.66666667  0.33333333  0.11718750  1.0
  Sn  Sn62  1  0.66666667  0.66666667  0.11718750  1.0
  Sn  Sn63  1  0.00000000  0.16666667  0.05468750  1.0
  Sn  Sn64  1  0.00000000  0.50000000  0.05468750  1.0
  Sn  Sn65  1  0.00000000  0.83333333  0.05468750  1.0
  Sn  Sn66  1  0.33333333  0.16666667  0.05468750  1.0
  Sn  Sn67  1  0.33333333  0.50000000  0.05468750  1.0
  Sn  Sn68  1  0.33333333  0.83333333  0.05468750  1.0
  Sn  Sn69  1  0.66666667  0.16666667  0.05468750  1.0
  Sn  Sn70  1  0.66666667  0.50000000  0.05468750  1.0
  Sn  Sn71  1  0.66666667  0.83333333  0.05468750  1.0
  Ni  Ni72  1  0.16666667  0.08333333  0.14843750  1.0
  Ni  Ni73  1  0.16666667  0.41666667  0.14843750  1.0
  Ni  Ni74  1  0.16666667  0.75000000  0.14843750  1.0
  Ni  Ni75  1  0.50000000  0.08333333  0.14843750  1.0
  Ni  Ni76  1  0.50000000  0.41666667  0.14843750  1.0
  Ni  Ni77  1  0.50000000  0.75000000  0.14843750  1.0
  Ni  Ni78  1  0.83333333  0.08333333  0.14843750  1.0
  Ni  Ni79  1  0.83333333  0.41666667  0.14843750  1.0
  Ni  Ni80  1  0.83333333  0.75000000  0.14843750  1.0
  Ni  Ni81  1  0.16666667  0.25000000  0.21093750  1.0
  Ni  Ni82  1  0.16666667  0.58333333  0.21093750  1.0
  Ni  Ni83  1  0.16666667  0.91666667  0.21093750  1.0
  Ni  Ni84  1  0.50000000  0.25000000  0.21093750  1.0
  Ni  Ni85  1  0.50000000  0.58333333  0.21093750  1.0
  Ni  Ni86  1  0.50000000  0.91666667  0.21093750  1.0
  Ni  Ni87  1  0.83333333  0.25000000  0.21093750  1.0
  Ni  Ni88  1  0.83333333  0.58333333  0.21093750  1.0
  Ni  Ni89  1  0.83333333  0.91666667  0.21093750  1.0
  Ni  Ni90  1  0.25000000  0.12500000  0.22656250  1.0
  Ni  Ni91  1  0.25000000  0.45833333  0.22656250  1.0
  Ni  Ni92  1  0.25000000  0.79166667  0.22656250  1.0
  Ni  Ni93  1  0.58333333  0.12500000  0.22656250  1.0
  Ni  Ni94  1  0.58333333  0.45833333  0.22656250  1.0
  Ni  Ni95  1  0.58333333  0.79166667  0.22656250  1.0
  Ni  Ni96  1  0.91666667  0.12500000  0.22656250  1.0
  Ni  Ni97  1  0.91666667  0.45833333  0.22656250  1.0
  Ni  Ni98  1  0.91666667  0.79166667  0.22656250  1.0
  Ni  Ni99  1  0.25000000  0.29166667  0.16406250  1.0
  Ni  Ni100  1  0.25000000  0.62500000  0.16406250  1.0
  Ni  Ni101  1  0.25000000  0.95833333  0.16406250  1.0
  Ni  Ni102  1  0.58333333  0.29166667  0.16406250  1.0
  Ni  Ni103  1  0.58333333  0.62500000  0.16406250  1.0
  Ni  Ni104  1  0.58333333  0.95833333  0.16406250  1.0
  Ni  Ni105  1  0.91666667  0.29166667  0.16406250  1.0
  Ni  Ni106  1  0.91666667  0.62500000  0.16406250  1.0
  Ni  Ni107  1  0.91666667  0.95833333  0.16406250  1.0
  Ni  Ni108  1  0.08333333  0.04166667  0.19531250  1.0
  Ni  Ni109  1  0.08333333  0.37500000  0.19531250  1.0
  Ni  Ni110  1  0.08333333  0.70833333  0.19531250  1.0
  Ni  Ni111  1  0.41666667  0.04166667  0.19531250  1.0
  Ni  Ni112  1  0.41666667  0.37500000  0.19531250  1.0
  Ni  Ni113  1  0.41666667  0.70833333  0.19531250  1.0
  Ni  Ni114  1  0.75000000  0.04166667  0.19531250  1.0
  Ni  Ni115  1  0.75000000  0.37500000  0.19531250  1.0
  Ni  Ni116  1  0.75000000  0.70833333  0.19531250  1.0
  Ni  Ni117  1  0.08333333  0.20833333  0.13281250  1.0
  Ni  Ni118  1  0.08333333  0.54166667  0.13281250  1.0
  Ni  Ni119  1  0.08333333  0.87500000  0.13281250  1.0
  Ni  Ni120  1  0.41666667  0.20833333  0.13281250  1.0
  Ni  Ni121  1  0.41666667  0.54166667  0.13281250  1.0
  Ni  Ni122  1  0.41666667  0.87500000  0.13281250  1.0
  Ni  Ni123  1  0.75000000  0.20833333  0.13281250  1.0
  Ni  Ni124  1  0.75000000  0.54166667  0.13281250  1.0
  Ni  Ni125  1  0.75000000  0.87500000  0.13281250  1.0
  Sn  Sn126  1  0.00000000  0.00000000  0.24218750  1.0
  Sn  Sn127  1  0.00000000  0.33333333  0.24218750  1.0
  Sn  Sn128  1  0.00000000  0.66666667  0.24218750  1.0
  Sn  Sn129  1  0.33333333  0.00000000  0.24218750  1.0
  Sn  Sn130  1  0.33333333  0.33333333  0.24218750  1.0
  Sn  Sn131  1  0.33333333  0.66666667  0.24218750  1.0
  Sn  Sn132  1  0.66666667  0.00000000  0.24218750  1.0
  Sn  Sn133  1  0.66666667  0.33333333  0.24218750  1.0
  Sn  Sn134  1  0.66666667  0.66666667  0.24218750  1.0
  Sn  Sn135  1  0.00000000  0.16666667  0.17968750  1.0
  Sn  Sn136  1  0.00000000  0.50000000  0.17968750  1.0
  Sn  Sn137  1  0.00000000  0.83333333  0.17968750  1.0
  Sn  Sn138  1  0.33333333  0.16666667  0.17968750  1.0
  Sn  Sn139  1  0.33333333  0.50000000  0.17968750  1.0
  Sn  Sn140  1  0.33333333  0.83333333  0.17968750  1.0
  Sn  Sn141  1  0.66666667  0.16666667  0.17968750  1.0
  Sn  Sn142  1  0.66666667  0.50000000  0.17968750  1.0
  Sn  Sn143  1  0.66666667  0.83333333  0.17968750  1.0
  Ni  Ni144  1  0.16666667  0.08333333  0.27343750  1.0
  Ni  Ni145  1  0.16666667  0.41666667  0.27343750  1.0
  Ni  Ni146  1  0.16666667  0.75000000  0.27343750  1.0
  Ni  Ni147  1  0.50000000  0.08333333  0.27343750  1.0
  Ni  Ni148  1  0.50000000  0.41666667  0.27343750  1.0
  Ni  Ni149  1  0.50000000  0.75000000  0.27343750  1.0
  Ni  Ni150  1  0.83333333  0.08333333  0.27343750  1.0
  Ni  Ni151  1  0.83333333  0.41666667  0.27343750  1.0
  Ni  Ni152  1  0.83333333  0.75000000  0.27343750  1.0
  Ni  Ni153  1  0.16666667  0.25000000  0.33593750  1.0
  Ni  Ni154  1  0.16666667  0.58333333  0.33593750  1.0
  Ni  Ni155  1  0.16666667  0.91666667  0.33593750  1.0
  Ni  Ni156  1  0.50000000  0.25000000  0.33593750  1.0
  Ni  Ni157  1  0.50000000  0.58333333  0.33593750  1.0
  Ni  Ni158  1  0.50000000  0.91666667  0.33593750  1.0
  Ni  Ni159  1  0.83333333  0.25000000  0.33593750  1.0
  Ni  Ni160  1  0.83333333  0.58333333  0.33593750  1.0
  Ni  Ni161  1  0.83333333  0.91666667  0.33593750  1.0
  Ni  Ni162  1  0.25000000  0.12500000  0.35156250  1.0
  Ni  Ni163  1  0.25000000  0.45833333  0.35156250  1.0
  Ni  Ni164  1  0.25000000  0.79166667  0.35156250  1.0
  Ni  Ni165  1  0.58333333  0.12500000  0.35156250  1.0
  Ni  Ni166  1  0.58333333  0.45833333  0.35156250  1.0
  Ni  Ni167  1  0.58333333  0.79166667  0.35156250  1.0
  Ni  Ni168  1  0.91666667  0.12500000  0.35156250  1.0
  Ni  Ni169  1  0.91666667  0.45833333  0.35156250  1.0
  Ni  Ni170  1  0.91666667  0.79166667  0.35156250  1.0
  Ni  Ni171  1  0.25000000  0.29166667  0.28906250  1.0
  Ni  Ni172  1  0.25000000  0.62500000  0.28906250  1.0
  Ni  Ni173  1  0.25000000  0.95833333  0.28906250  1.0
  Ni  Ni174  1  0.58333333  0.29166667  0.28906250  1.0
  Ni  Ni175  1  0.58333333  0.62500000  0.28906250  1.0
  Ni  Ni176  1  0.58333333  0.95833333  0.28906250  1.0
  Ni  Ni177  1  0.91666667  0.29166667  0.28906250  1.0
  Ni  Ni178  1  0.91666667  0.62500000  0.28906250  1.0
  Ni  Ni179  1  0.91666667  0.95833333  0.28906250  1.0
  Ni  Ni180  1  0.08333333  0.04166667  0.32031250  1.0
  Ni  Ni181  1  0.08333333  0.37500000  0.32031250  1.0
  Ni  Ni182  1  0.08333333  0.70833333  0.32031250  1.0
  Ni  Ni183  1  0.41666667  0.04166667  0.32031250  1.0
  Ni  Ni184  1  0.41666667  0.37500000  0.32031250  1.0
  Ni  Ni185  1  0.41666667  0.70833333  0.32031250  1.0
  Ni  Ni186  1  0.75000000  0.04166667  0.32031250  1.0
  Ni  Ni187  1  0.75000000  0.37500000  0.32031250  1.0
  Ni  Ni188  1  0.75000000  0.70833333  0.32031250  1.0
  Ni  Ni189  1  0.08333333  0.20833333  0.25781250  1.0
  Ni  Ni190  1  0.08333333  0.54166667  0.25781250  1.0
  Ni  Ni191  1  0.08333333  0.87500000  0.25781250  1.0
  Ni  Ni192  1  0.41666667  0.20833333  0.25781250  1.0
  Ni  Ni193  1  0.41666667  0.54166667  0.25781250  1.0
  Ni  Ni194  1  0.41666667  0.87500000  0.25781250  1.0
  Ni  Ni195  1  0.75000000  0.20833333  0.25781250  1.0
  Ni  Ni196  1  0.75000000  0.54166667  0.25781250  1.0
  Ni  Ni197  1  0.75000000  0.87500000  0.25781250  1.0
  Sn  Sn198  1  0.00000000  0.00000000  0.36718750  1.0
  Sn  Sn199  1  0.00000000  0.33333333  0.36718750  1.0
  Sn  Sn200  1  0.00000000  0.66666667  0.36718750  1.0
  Sn  Sn201  1  0.33333333  0.00000000  0.36718750  1.0
  Sn  Sn202  1  0.33333333  0.33333333  0.36718750  1.0
  Sn  Sn203  1  0.33333333  0.66666667  0.36718750  1.0
  Sn  Sn204  1  0.66666667  0.00000000  0.36718750  1.0
  Sn  Sn205  1  0.66666667  0.33333333  0.36718750  1.0
  Sn  Sn206  1  0.66666667  0.66666667  0.36718750  1.0
  Sn  Sn207  1  0.00000000  0.16666667  0.30468750  1.0
  Sn  Sn208  1  0.00000000  0.50000000  0.30468750  1.0
  Sn  Sn209  1  0.00000000  0.83333333  0.30468750  1.0
  Sn  Sn210  1  0.33333333  0.16666667  0.30468750  1.0
  Sn  Sn211  1  0.33333333  0.50000000  0.30468750  1.0
  Sn  Sn212  1  0.33333333  0.83333333  0.30468750  1.0
  Sn  Sn213  1  0.66666667  0.16666667  0.30468750  1.0
  Sn  Sn214  1  0.66666667  0.50000000  0.30468750  1.0
  Sn  Sn215  1  0.66666667  0.83333333  0.30468750  1.0
