# generated using pymatgen
data_Ni3Sb
_symmetry_space_group_name_H-M   'P 1'
_cell_length_a   20.34207260
_cell_length_b   30.11436218
_cell_length_c   29.13912712
_cell_angle_alpha   97.42801631
_cell_angle_beta   92.55511061
_cell_angle_gamma   109.45134169
_symmetry_Int_Tables_number   1
_chemical_formula_structural   Ni3Sb
_chemical_formula_sum   'Ni432 Sb144'
_cell_volume   16616.77035774
_cell_formula_units_Z   144
loop_
 _symmetry_equiv_pos_site_id
 _symmetry_equiv_pos_as_xyz
  1  'x, y, z'
loop_
 _atom_site_type_symbol
 _atom_site_label
 _atom_site_symmetry_multiplicity
 _atom_site_fract_x
 _atom_site_fract_y
 _atom_site_fract_z
 _atom_site_occupancy
  Ni  Ni0  1  0.01058581  0.11941044  0.03264739  1.0
  Ni  Ni1  1  0.01058581  0.45274378  0.03264739  1.0
  Ni  Ni2  1  0.01058581  0.78607711  0.03264739  1.0
  Ni  Ni3  1  0.34391915  0.11941044  0.03264739  1.0
  Ni  Ni4  1  0.34391915  0.45274378  0.03264739  1.0
  Ni  Ni5  1  0.34391915  0.78607711  0.03264739  1.0
  Ni  Ni6  1  0.67725248  0.11941044  0.03264739  1.0
  Ni  Ni7  1  0.67725248  0.45274378  0.03264739  1.0
  Ni  Ni8  1  0.67725248  0.78607711  0.03264739  1.0
  Ni  Ni9  1  0.26984507  0.23052156  0.08820294  1.0
  Ni  Ni10  1  0.26984507  0.56385489  0.08820294  1.0
  Ni  Ni11  1  0.26984507  0.89718822  0.08820294  1.0
  Ni  Ni12  1  0.60317841  0.23052156  0.08820294  1.0
  Ni  Ni13  1  0.60317841  0.56385489  0.08820294  1.0
  Ni  Ni14  1  0.60317841  0.89718822  0.08820294  1.0
  Ni  Ni15  1  0.93651174  0.23052156  0.08820294  1.0
  Ni  Ni16  1  0.93651174  0.56385489  0.08820294  1.0
  Ni  Ni17  1  0.93651174  0.89718822  0.08820294  1.0
  Ni  Ni18  1  0.14357519  0.17640589  0.06114511  1.0
  Ni  Ni19  1  0.14357519  0.50973922  0.06114511  1.0
  Ni  Ni20  1  0.14357519  0.84307256  0.06114511  1.0
  Ni  Ni21  1  0.47690852  0.17640589  0.06114511  1.0
  Ni  Ni22  1  0.47690852  0.50973922  0.06114511  1.0
  Ni  Ni23  1  0.47690852  0.84307256  0.06114511  1.0
  Ni  Ni24  1  0.81024185  0.17640589  0.06114511  1.0
  Ni  Ni25  1  0.81024185  0.50973922  0.06114511  1.0
  Ni  Ni26  1  0.81024185  0.84307256  0.06114511  1.0
  Ni  Ni27  1  0.21764926  0.06529478  0.00558956  1.0
  Ni  Ni28  1  0.21764926  0.39862811  0.00558956  1.0
  Ni  Ni29  1  0.21764926  0.73196144  0.00558956  1.0
  Ni  Ni30  1  0.55098259  0.06529478  0.00558956  1.0
  Ni  Ni31  1  0.55098259  0.39862811  0.00558956  1.0
  Ni  Ni32  1  0.55098259  0.73196144  0.00558956  1.0
  Ni  Ni33  1  0.88431593  0.06529478  0.00558956  1.0
  Ni  Ni34  1  0.88431593  0.39862811  0.00558956  1.0
  Ni  Ni35  1  0.88431593  0.73196144  0.00558956  1.0
  Ni  Ni36  1  0.24675359  0.15692744  0.02434806  1.0
  Ni  Ni37  1  0.24675359  0.49026078  0.02434806  1.0
  Ni  Ni38  1  0.24675359  0.82359411  0.02434806  1.0
  Ni  Ni39  1  0.58008693  0.15692744  0.02434806  1.0
  Ni  Ni40  1  0.58008693  0.49026078  0.02434806  1.0
  Ni  Ni41  1  0.58008693  0.82359411  0.02434806  1.0
  Ni  Ni42  1  0.91342026  0.15692744  0.02434806  1.0
  Ni  Ni43  1  0.91342026  0.49026078  0.02434806  1.0
  Ni  Ni44  1  0.91342026  0.82359411  0.02434806  1.0
  Ni  Ni45  1  0.17267952  0.26803856  0.07990361  1.0
  Ni  Ni46  1  0.17267952  0.60137189  0.07990361  1.0
  Ni  Ni47  1  0.17267952  0.93470522  0.07990361  1.0
  Ni  Ni48  1  0.50601285  0.26803856  0.07990361  1.0
  Ni  Ni49  1  0.50601285  0.60137189  0.07990361  1.0
  Ni  Ni50  1  0.50601285  0.93470522  0.07990361  1.0
  Ni  Ni51  1  0.83934619  0.26803856  0.07990361  1.0
  Ni  Ni52  1  0.83934619  0.60137189  0.07990361  1.0
  Ni  Ni53  1  0.83934619  0.93470522  0.07990361  1.0
  Ni  Ni54  1  0.17459937  0.10281178  0.07846372  1.0
  Ni  Ni55  1  0.17459937  0.43614511  0.07846372  1.0
  Ni  Ni56  1  0.17459937  0.76947844  0.07846372  1.0
  Ni  Ni57  1  0.50793270  0.10281178  0.07846372  1.0
  Ni  Ni58  1  0.50793270  0.43614511  0.07846372  1.0
  Ni  Ni59  1  0.50793270  0.76947844  0.07846372  1.0
  Ni  Ni60  1  0.84126604  0.10281178  0.07846372  1.0
  Ni  Ni61  1  0.84126604  0.43614511  0.07846372  1.0
  Ni  Ni62  1  0.84126604  0.76947844  0.07846372  1.0
  Ni  Ni63  1  0.24867344  0.32503400  0.02290817  1.0
  Ni  Ni64  1  0.24867344  0.65836733  0.02290817  1.0
  Ni  Ni65  1  0.24867344  0.99170067  0.02290817  1.0
  Ni  Ni66  1  0.58200678  0.32503400  0.02290817  1.0
  Ni  Ni67  1  0.58200678  0.65836733  0.02290817  1.0
  Ni  Ni68  1  0.58200678  0.99170067  0.02290817  1.0
  Ni  Ni69  1  0.91534011  0.32503400  0.02290817  1.0
  Ni  Ni70  1  0.91534011  0.65836733  0.02290817  1.0
  Ni  Ni71  1  0.91534011  0.99170067  0.02290817  1.0
  Ni  Ni72  1  0.04161000  0.04581633  0.04996600  1.0
  Ni  Ni73  1  0.04161000  0.37914967  0.04996600  1.0
  Ni  Ni74  1  0.04161000  0.71248300  0.04996600  1.0
  Ni  Ni75  1  0.37494333  0.04581633  0.04996600  1.0
  Ni  Ni76  1  0.37494333  0.37914967  0.04996600  1.0
  Ni  Ni77  1  0.37494333  0.71248300  0.04996600  1.0
  Ni  Ni78  1  0.70827667  0.04581633  0.04996600  1.0
  Ni  Ni79  1  0.70827667  0.37914967  0.04996600  1.0
  Ni  Ni80  1  0.70827667  0.71248300  0.04996600  1.0
  Ni  Ni81  1  0.30086926  0.15692744  0.10552156  1.0
  Ni  Ni82  1  0.30086926  0.49026078  0.10552156  1.0
  Ni  Ni83  1  0.30086926  0.82359411  0.10552156  1.0
  Ni  Ni84  1  0.63420259  0.15692744  0.10552156  1.0
  Ni  Ni85  1  0.63420259  0.49026078  0.10552156  1.0
  Ni  Ni86  1  0.63420259  0.82359411  0.10552156  1.0
  Ni  Ni87  1  0.96753593  0.15692744  0.10552156  1.0
  Ni  Ni88  1  0.96753593  0.49026078  0.10552156  1.0
  Ni  Ni89  1  0.96753593  0.82359411  0.10552156  1.0
  Ni  Ni90  1  0.27176493  0.06529478  0.08676306  1.0
  Ni  Ni91  1  0.27176493  0.39862811  0.08676306  1.0
  Ni  Ni92  1  0.27176493  0.73196144  0.08676306  1.0
  Ni  Ni93  1  0.60509826  0.06529478  0.08676306  1.0
  Ni  Ni94  1  0.60509826  0.39862811  0.08676306  1.0
  Ni  Ni95  1  0.60509826  0.73196144  0.08676306  1.0
  Ni  Ni96  1  0.93843159  0.06529478  0.08676306  1.0
  Ni  Ni97  1  0.93843159  0.39862811  0.08676306  1.0
  Ni  Ni98  1  0.93843159  0.73196144  0.08676306  1.0
  Ni  Ni99  1  0.01250567  0.28751700  0.03120750  1.0
  Ni  Ni100  1  0.01250567  0.62085033  0.03120750  1.0
  Ni  Ni101  1  0.01250567  0.95418367  0.03120750  1.0
  Ni  Ni102  1  0.34583900  0.28751700  0.03120750  1.0
  Ni  Ni103  1  0.34583900  0.62085033  0.03120750  1.0
  Ni  Ni104  1  0.34583900  0.95418367  0.03120750  1.0
  Ni  Ni105  1  0.67917233  0.28751700  0.03120750  1.0
  Ni  Ni106  1  0.67917233  0.62085033  0.03120750  1.0
  Ni  Ni107  1  0.67917233  0.95418367  0.03120750  1.0
  Ni  Ni108  1  0.19577100  0.00829933  0.14375850  1.0
  Ni  Ni109  1  0.19577100  0.34163267  0.14375850  1.0
  Ni  Ni110  1  0.19577100  0.67496600  0.14375850  1.0
  Ni  Ni111  1  0.52910433  0.00829933  0.14375850  1.0
  Ni  Ni112  1  0.52910433  0.34163267  0.14375850  1.0
  Ni  Ni113  1  0.52910433  0.67496600  0.14375850  1.0
  Ni  Ni114  1  0.86243767  0.00829933  0.14375850  1.0
  Ni  Ni115  1  0.86243767  0.34163267  0.14375850  1.0
  Ni  Ni116  1  0.86243767  0.67496600  0.14375850  1.0
  Ni  Ni117  1  0.12169693  0.11941044  0.19931406  1.0
  Ni  Ni118  1  0.12169693  0.45274378  0.19931406  1.0
  Ni  Ni119  1  0.12169693  0.78607711  0.19931406  1.0
  Ni  Ni120  1  0.45503026  0.11941044  0.19931406  1.0
  Ni  Ni121  1  0.45503026  0.45274378  0.19931406  1.0
  Ni  Ni122  1  0.45503026  0.78607711  0.19931406  1.0
  Ni  Ni123  1  0.78836359  0.11941044  0.19931406  1.0
  Ni  Ni124  1  0.78836359  0.45274378  0.19931406  1.0
  Ni  Ni125  1  0.78836359  0.78607711  0.19931406  1.0
  Ni  Ni126  1  0.32876037  0.06529478  0.17225622  1.0
  Ni  Ni127  1  0.32876037  0.39862811  0.17225622  1.0
  Ni  Ni128  1  0.32876037  0.73196144  0.17225622  1.0
  Ni  Ni129  1  0.66209370  0.06529478  0.17225622  1.0
  Ni  Ni130  1  0.66209370  0.39862811  0.17225622  1.0
  Ni  Ni131  1  0.66209370  0.73196144  0.17225622  1.0
  Ni  Ni132  1  0.99542704  0.06529478  0.17225622  1.0
  Ni  Ni133  1  0.99542704  0.39862811  0.17225622  1.0
  Ni  Ni134  1  0.99542704  0.73196144  0.17225622  1.0
  Ni  Ni135  1  0.06950111  0.28751700  0.11670067  1.0
  Ni  Ni136  1  0.06950111  0.62085033  0.11670067  1.0
  Ni  Ni137  1  0.06950111  0.95418367  0.11670067  1.0
  Ni  Ni138  1  0.40283444  0.28751700  0.11670067  1.0
  Ni  Ni139  1  0.40283444  0.62085033  0.11670067  1.0
  Ni  Ni140  1  0.40283444  0.95418367  0.11670067  1.0
  Ni  Ni141  1  0.73616778  0.28751700  0.11670067  1.0
  Ni  Ni142  1  0.73616778  0.62085033  0.11670067  1.0
  Ni  Ni143  1  0.73616778  0.95418367  0.11670067  1.0
  Ni  Ni144  1  0.09860544  0.04581633  0.13545917  1.0
  Ni  Ni145  1  0.09860544  0.37914967  0.13545917  1.0
  Ni  Ni146  1  0.09860544  0.71248300  0.13545917  1.0
  Ni  Ni147  1  0.43193878  0.04581633  0.13545917  1.0
  Ni  Ni148  1  0.43193878  0.37914967  0.13545917  1.0
  Ni  Ni149  1  0.43193878  0.71248300  0.13545917  1.0
  Ni  Ni150  1  0.76527211  0.04581633  0.13545917  1.0
  Ni  Ni151  1  0.76527211  0.37914967  0.13545917  1.0
  Ni  Ni152  1  0.76527211  0.71248300  0.13545917  1.0
  Ni  Ni153  1  0.02453137  0.15692744  0.19101472  1.0
  Ni  Ni154  1  0.02453137  0.49026078  0.19101472  1.0
  Ni  Ni155  1  0.02453137  0.82359411  0.19101472  1.0
  Ni  Ni156  1  0.35786470  0.15692744  0.19101472  1.0
  Ni  Ni157  1  0.35786470  0.49026078  0.19101472  1.0
  Ni  Ni158  1  0.35786470  0.82359411  0.19101472  1.0
  Ni  Ni159  1  0.69119804  0.15692744  0.19101472  1.0
  Ni  Ni160  1  0.69119804  0.49026078  0.19101472  1.0
  Ni  Ni161  1  0.69119804  0.82359411  0.19101472  1.0
  Ni  Ni162  1  0.02645122  0.32503400  0.18957483  1.0
  Ni  Ni163  1  0.02645122  0.65836733  0.18957483  1.0
  Ni  Ni164  1  0.02645122  0.99170067  0.18957483  1.0
  Ni  Ni165  1  0.35978456  0.32503400  0.18957483  1.0
  Ni  Ni166  1  0.35978456  0.65836733  0.18957483  1.0
  Ni  Ni167  1  0.35978456  0.99170067  0.18957483  1.0
  Ni  Ni168  1  0.69311789  0.32503400  0.18957483  1.0
  Ni  Ni169  1  0.69311789  0.65836733  0.18957483  1.0
  Ni  Ni170  1  0.69311789  0.99170067  0.18957483  1.0
  Ni  Ni171  1  0.10052530  0.21392289  0.13401928  1.0
  Ni  Ni172  1  0.10052530  0.54725622  0.13401928  1.0
  Ni  Ni173  1  0.10052530  0.88058956  0.13401928  1.0
  Ni  Ni174  1  0.43385863  0.21392289  0.13401928  1.0
  Ni  Ni175  1  0.43385863  0.54725622  0.13401928  1.0
  Ni  Ni176  1  0.43385863  0.88058956  0.13401928  1.0
  Ni  Ni177  1  0.76719196  0.21392289  0.13401928  1.0
  Ni  Ni178  1  0.76719196  0.54725622  0.13401928  1.0
  Ni  Ni179  1  0.76719196  0.88058956  0.13401928  1.0
  Ni  Ni180  1  0.22679519  0.26803856  0.16107711  1.0
  Ni  Ni181  1  0.22679519  0.60137189  0.16107711  1.0
  Ni  Ni182  1  0.22679519  0.93470522  0.16107711  1.0
  Ni  Ni183  1  0.56012852  0.26803856  0.16107711  1.0
  Ni  Ni184  1  0.56012852  0.60137189  0.16107711  1.0
  Ni  Ni185  1  0.56012852  0.93470522  0.16107711  1.0
  Ni  Ni186  1  0.89346185  0.26803856  0.16107711  1.0
  Ni  Ni187  1  0.89346185  0.60137189  0.16107711  1.0
  Ni  Ni188  1  0.89346185  0.93470522  0.16107711  1.0
  Ni  Ni189  1  0.15272111  0.04581633  0.21663267  1.0
  Ni  Ni190  1  0.15272111  0.37914967  0.21663267  1.0
  Ni  Ni191  1  0.15272111  0.71248300  0.21663267  1.0
  Ni  Ni192  1  0.48605444  0.04581633  0.21663267  1.0
  Ni  Ni193  1  0.48605444  0.37914967  0.21663267  1.0
  Ni  Ni194  1  0.48605444  0.71248300  0.21663267  1.0
  Ni  Ni195  1  0.81938778  0.04581633  0.21663267  1.0
  Ni  Ni196  1  0.81938778  0.37914967  0.21663267  1.0
  Ni  Ni197  1  0.81938778  0.71248300  0.21663267  1.0
  Ni  Ni198  1  0.12361678  0.28751700  0.19787417  1.0
  Ni  Ni199  1  0.12361678  0.62085033  0.19787417  1.0
  Ni  Ni200  1  0.12361678  0.95418367  0.19787417  1.0
  Ni  Ni201  1  0.45695011  0.28751700  0.19787417  1.0
  Ni  Ni202  1  0.45695011  0.62085033  0.19787417  1.0
  Ni  Ni203  1  0.45695011  0.95418367  0.19787417  1.0
  Ni  Ni204  1  0.79028344  0.28751700  0.19787417  1.0
  Ni  Ni205  1  0.79028344  0.62085033  0.19787417  1.0
  Ni  Ni206  1  0.79028344  0.95418367  0.19787417  1.0
  Ni  Ni207  1  0.19769085  0.17640589  0.14231861  1.0
  Ni  Ni208  1  0.19769085  0.50973922  0.14231861  1.0
  Ni  Ni209  1  0.19769085  0.84307256  0.14231861  1.0
  Ni  Ni210  1  0.53102419  0.17640589  0.14231861  1.0
  Ni  Ni211  1  0.53102419  0.50973922  0.14231861  1.0
  Ni  Ni212  1  0.53102419  0.84307256  0.14231861  1.0
  Ni  Ni213  1  0.86435752  0.17640589  0.14231861  1.0
  Ni  Ni214  1  0.86435752  0.50973922  0.14231861  1.0
  Ni  Ni215  1  0.86435752  0.84307256  0.14231861  1.0
  Ni  Ni216  1  0.04762285  0.23052156  0.25486961  1.0
  Ni  Ni217  1  0.04762285  0.56385489  0.25486961  1.0
  Ni  Ni218  1  0.04762285  0.89718822  0.25486961  1.0
  Ni  Ni219  1  0.38095619  0.23052156  0.25486961  1.0
  Ni  Ni220  1  0.38095619  0.56385489  0.25486961  1.0
  Ni  Ni221  1  0.38095619  0.89718822  0.25486961  1.0
  Ni  Ni222  1  0.71428952  0.23052156  0.25486961  1.0
  Ni  Ni223  1  0.71428952  0.56385489  0.25486961  1.0
  Ni  Ni224  1  0.71428952  0.89718822  0.25486961  1.0
  Ni  Ni225  1  0.30688211  0.00829933  0.31042517  1.0
  Ni  Ni226  1  0.30688211  0.34163267  0.31042517  1.0
  Ni  Ni227  1  0.30688211  0.67496600  0.31042517  1.0
  Ni  Ni228  1  0.64021544  0.00829933  0.31042517  1.0
  Ni  Ni229  1  0.64021544  0.34163267  0.31042517  1.0
  Ni  Ni230  1  0.64021544  0.67496600  0.31042517  1.0
  Ni  Ni231  1  0.97354878  0.00829933  0.31042517  1.0
  Ni  Ni232  1  0.97354878  0.34163267  0.31042517  1.0
  Ni  Ni233  1  0.97354878  0.67496600  0.31042517  1.0
  Ni  Ni234  1  0.18061222  0.28751700  0.28336733  1.0
  Ni  Ni235  1  0.18061222  0.62085033  0.28336733  1.0
  Ni  Ni236  1  0.18061222  0.95418367  0.28336733  1.0
  Ni  Ni237  1  0.51394556  0.28751700  0.28336733  1.0
  Ni  Ni238  1  0.51394556  0.62085033  0.28336733  1.0
  Ni  Ni239  1  0.51394556  0.95418367  0.28336733  1.0
  Ni  Ni240  1  0.84727889  0.28751700  0.28336733  1.0
  Ni  Ni241  1  0.84727889  0.62085033  0.28336733  1.0
  Ni  Ni242  1  0.84727889  0.95418367  0.28336733  1.0
  Ni  Ni243  1  0.25468630  0.17640589  0.22781178  1.0
  Ni  Ni244  1  0.25468630  0.50973922  0.22781178  1.0
  Ni  Ni245  1  0.25468630  0.84307256  0.22781178  1.0
  Ni  Ni246  1  0.58801963  0.17640589  0.22781178  1.0
  Ni  Ni247  1  0.58801963  0.50973922  0.22781178  1.0
  Ni  Ni248  1  0.58801963  0.84307256  0.22781178  1.0
  Ni  Ni249  1  0.92135296  0.17640589  0.22781178  1.0
  Ni  Ni250  1  0.92135296  0.50973922  0.22781178  1.0
  Ni  Ni251  1  0.92135296  0.84307256  0.22781178  1.0
  Ni  Ni252  1  0.28379063  0.26803856  0.24657028  1.0
  Ni  Ni253  1  0.28379063  0.60137189  0.24657028  1.0
  Ni  Ni254  1  0.28379063  0.93470522  0.24657028  1.0
  Ni  Ni255  1  0.61712396  0.26803856  0.24657028  1.0
  Ni  Ni256  1  0.61712396  0.60137189  0.24657028  1.0
  Ni  Ni257  1  0.61712396  0.93470522  0.24657028  1.0
  Ni  Ni258  1  0.95045730  0.26803856  0.24657028  1.0
  Ni  Ni259  1  0.95045730  0.60137189  0.24657028  1.0
  Ni  Ni260  1  0.95045730  0.93470522  0.24657028  1.0
  Ni  Ni261  1  0.20971656  0.04581633  0.30212583  1.0
  Ni  Ni262  1  0.20971656  0.37914967  0.30212583  1.0
  Ni  Ni263  1  0.20971656  0.71248300  0.30212583  1.0
  Ni  Ni264  1  0.54304989  0.04581633  0.30212583  1.0
  Ni  Ni265  1  0.54304989  0.37914967  0.30212583  1.0
  Ni  Ni266  1  0.54304989  0.71248300  0.30212583  1.0
  Ni  Ni267  1  0.87638322  0.04581633  0.30212583  1.0
  Ni  Ni268  1  0.87638322  0.37914967  0.30212583  1.0
  Ni  Ni269  1  0.87638322  0.71248300  0.30212583  1.0
  Ni  Ni270  1  0.21163641  0.21392289  0.30068594  1.0
  Ni  Ni271  1  0.21163641  0.54725622  0.30068594  1.0
  Ni  Ni272  1  0.21163641  0.88058956  0.30068594  1.0
  Ni  Ni273  1  0.54496974  0.21392289  0.30068594  1.0
  Ni  Ni274  1  0.54496974  0.54725622  0.30068594  1.0
  Ni  Ni275  1  0.54496974  0.88058956  0.30068594  1.0
  Ni  Ni276  1  0.87830307  0.21392289  0.30068594  1.0
  Ni  Ni277  1  0.87830307  0.54725622  0.30068594  1.0
  Ni  Ni278  1  0.87830307  0.88058956  0.30068594  1.0
  Ni  Ni279  1  0.28571048  0.10281178  0.24513039  1.0
  Ni  Ni280  1  0.28571048  0.43614511  0.24513039  1.0
  Ni  Ni281  1  0.28571048  0.76947844  0.24513039  1.0
  Ni  Ni282  1  0.61904381  0.10281178  0.24513039  1.0
  Ni  Ni283  1  0.61904381  0.43614511  0.24513039  1.0
  Ni  Ni284  1  0.61904381  0.76947844  0.24513039  1.0
  Ni  Ni285  1  0.95237715  0.10281178  0.24513039  1.0
  Ni  Ni286  1  0.95237715  0.43614511  0.24513039  1.0
  Ni  Ni287  1  0.95237715  0.76947844  0.24513039  1.0
  Ni  Ni288  1  0.07864704  0.15692744  0.27218822  1.0
  Ni  Ni289  1  0.07864704  0.49026078  0.27218822  1.0
  Ni  Ni290  1  0.07864704  0.82359411  0.27218822  1.0
  Ni  Ni291  1  0.41198037  0.15692744  0.27218822  1.0
  Ni  Ni292  1  0.41198037  0.49026078  0.27218822  1.0
  Ni  Ni293  1  0.41198037  0.82359411  0.27218822  1.0
  Ni  Ni294  1  0.74531370  0.15692744  0.27218822  1.0
  Ni  Ni295  1  0.74531370  0.49026078  0.27218822  1.0
  Ni  Ni296  1  0.74531370  0.82359411  0.27218822  1.0
  Ni  Ni297  1  0.00457296  0.26803856  0.32774378  1.0
  Ni  Ni298  1  0.00457296  0.60137189  0.32774378  1.0
  Ni  Ni299  1  0.00457296  0.93470522  0.32774378  1.0
  Ni  Ni300  1  0.33790630  0.26803856  0.32774378  1.0
  Ni  Ni301  1  0.33790630  0.60137189  0.32774378  1.0
  Ni  Ni302  1  0.33790630  0.93470522  0.32774378  1.0
  Ni  Ni303  1  0.67123963  0.26803856  0.32774378  1.0
  Ni  Ni304  1  0.67123963  0.60137189  0.32774378  1.0
  Ni  Ni305  1  0.67123963  0.93470522  0.32774378  1.0
  Ni  Ni306  1  0.30880196  0.17640589  0.30898528  1.0
  Ni  Ni307  1  0.30880196  0.50973922  0.30898528  1.0
  Ni  Ni308  1  0.30880196  0.84307256  0.30898528  1.0
  Ni  Ni309  1  0.64213530  0.17640589  0.30898528  1.0
  Ni  Ni310  1  0.64213530  0.50973922  0.30898528  1.0
  Ni  Ni311  1  0.64213530  0.84307256  0.30898528  1.0
  Ni  Ni312  1  0.97546863  0.17640589  0.30898528  1.0
  Ni  Ni313  1  0.97546863  0.50973922  0.30898528  1.0
  Ni  Ni314  1  0.97546863  0.84307256  0.30898528  1.0
  Ni  Ni315  1  0.04954270  0.06529478  0.25342972  1.0
  Ni  Ni316  1  0.04954270  0.39862811  0.25342972  1.0
  Ni  Ni317  1  0.04954270  0.73196144  0.25342972  1.0
  Ni  Ni318  1  0.38287604  0.06529478  0.25342972  1.0
  Ni  Ni319  1  0.38287604  0.39862811  0.25342972  1.0
  Ni  Ni320  1  0.38287604  0.73196144  0.25342972  1.0
  Ni  Ni321  1  0.71620937  0.06529478  0.25342972  1.0
  Ni  Ni322  1  0.71620937  0.39862811  0.25342972  1.0
  Ni  Ni323  1  0.71620937  0.73196144  0.25342972  1.0
  Ni  Ni324  1  0.23280804  0.11941044  0.36598072  1.0
  Ni  Ni325  1  0.23280804  0.45274378  0.36598072  1.0
  Ni  Ni326  1  0.23280804  0.78607711  0.36598072  1.0
  Ni  Ni327  1  0.56614137  0.11941044  0.36598072  1.0
  Ni  Ni328  1  0.56614137  0.45274378  0.36598072  1.0
  Ni  Ni329  1  0.56614137  0.78607711  0.36598072  1.0
  Ni  Ni330  1  0.89947470  0.11941044  0.36598072  1.0
  Ni  Ni331  1  0.89947470  0.45274378  0.36598072  1.0
  Ni  Ni332  1  0.89947470  0.78607711  0.36598072  1.0
  Ni  Ni333  1  0.15873396  0.23052156  0.42153628  1.0
  Ni  Ni334  1  0.15873396  0.56385489  0.42153628  1.0
  Ni  Ni335  1  0.15873396  0.89718822  0.42153628  1.0
  Ni  Ni336  1  0.49206730  0.23052156  0.42153628  1.0
  Ni  Ni337  1  0.49206730  0.56385489  0.42153628  1.0
  Ni  Ni338  1  0.49206730  0.89718822  0.42153628  1.0
  Ni  Ni339  1  0.82540063  0.23052156  0.42153628  1.0
  Ni  Ni340  1  0.82540063  0.56385489  0.42153628  1.0
  Ni  Ni341  1  0.82540063  0.89718822  0.42153628  1.0
  Ni  Ni342  1  0.03246407  0.17640589  0.39447844  1.0
  Ni  Ni343  1  0.03246407  0.50973922  0.39447844  1.0
  Ni  Ni344  1  0.03246407  0.84307256  0.39447844  1.0
  Ni  Ni345  1  0.36579741  0.17640589  0.39447844  1.0
  Ni  Ni346  1  0.36579741  0.50973922  0.39447844  1.0
  Ni  Ni347  1  0.36579741  0.84307256  0.39447844  1.0
  Ni  Ni348  1  0.69913074  0.17640589  0.39447844  1.0
  Ni  Ni349  1  0.69913074  0.50973922  0.39447844  1.0
  Ni  Ni350  1  0.69913074  0.84307256  0.39447844  1.0
  Ni  Ni351  1  0.10653815  0.06529478  0.33892289  1.0
  Ni  Ni352  1  0.10653815  0.39862811  0.33892289  1.0
  Ni  Ni353  1  0.10653815  0.73196144  0.33892289  1.0
  Ni  Ni354  1  0.43987148  0.06529478  0.33892289  1.0
  Ni  Ni355  1  0.43987148  0.39862811  0.33892289  1.0
  Ni  Ni356  1  0.43987148  0.73196144  0.33892289  1.0
  Ni  Ni357  1  0.77320481  0.06529478  0.33892289  1.0
  Ni  Ni358  1  0.77320481  0.39862811  0.33892289  1.0
  Ni  Ni359  1  0.77320481  0.73196144  0.33892289  1.0
  Ni  Ni360  1  0.13564248  0.15692744  0.35768139  1.0
  Ni  Ni361  1  0.13564248  0.49026078  0.35768139  1.0
  Ni  Ni362  1  0.13564248  0.82359411  0.35768139  1.0
  Ni  Ni363  1  0.46897581  0.15692744  0.35768139  1.0
  Ni  Ni364  1  0.46897581  0.49026078  0.35768139  1.0
  Ni  Ni365  1  0.46897581  0.82359411  0.35768139  1.0
  Ni  Ni366  1  0.80230915  0.15692744  0.35768139  1.0
  Ni  Ni367  1  0.80230915  0.49026078  0.35768139  1.0
  Ni  Ni368  1  0.80230915  0.82359411  0.35768139  1.0
  Ni  Ni369  1  0.06156841  0.26803856  0.41323694  1.0
  Ni  Ni370  1  0.06156841  0.60137189  0.41323694  1.0
  Ni  Ni371  1  0.06156841  0.93470522  0.41323694  1.0
  Ni  Ni372  1  0.39490174  0.26803856  0.41323694  1.0
  Ni  Ni373  1  0.39490174  0.60137189  0.41323694  1.0
  Ni  Ni374  1  0.39490174  0.93470522  0.41323694  1.0
  Ni  Ni375  1  0.72823507  0.26803856  0.41323694  1.0
  Ni  Ni376  1  0.72823507  0.60137189  0.41323694  1.0
  Ni  Ni377  1  0.72823507  0.93470522  0.41323694  1.0
  Ni  Ni378  1  0.06348826  0.10281178  0.41179706  1.0
  Ni  Ni379  1  0.06348826  0.43614511  0.41179706  1.0
  Ni  Ni380  1  0.06348826  0.76947844  0.41179706  1.0
  Ni  Ni381  1  0.39682159  0.10281178  0.41179706  1.0
  Ni  Ni382  1  0.39682159  0.43614511  0.41179706  1.0
  Ni  Ni383  1  0.39682159  0.76947844  0.41179706  1.0
  Ni  Ni384  1  0.73015493  0.10281178  0.41179706  1.0
  Ni  Ni385  1  0.73015493  0.43614511  0.41179706  1.0
  Ni  Ni386  1  0.73015493  0.76947844  0.41179706  1.0
  Ni  Ni387  1  0.13756233  0.32503400  0.35624150  1.0
  Ni  Ni388  1  0.13756233  0.65836733  0.35624150  1.0
  Ni  Ni389  1  0.13756233  0.99170067  0.35624150  1.0
  Ni  Ni390  1  0.47089567  0.32503400  0.35624150  1.0
  Ni  Ni391  1  0.47089567  0.65836733  0.35624150  1.0
  Ni  Ni392  1  0.47089567  0.99170067  0.35624150  1.0
  Ni  Ni393  1  0.80422900  0.32503400  0.35624150  1.0
  Ni  Ni394  1  0.80422900  0.65836733  0.35624150  1.0
  Ni  Ni395  1  0.80422900  0.99170067  0.35624150  1.0
  Ni  Ni396  1  0.26383222  0.04581633  0.38329933  1.0
  Ni  Ni397  1  0.26383222  0.37914967  0.38329933  1.0
  Ni  Ni398  1  0.26383222  0.71248300  0.38329933  1.0
  Ni  Ni399  1  0.59716556  0.04581633  0.38329933  1.0
  Ni  Ni400  1  0.59716556  0.37914967  0.38329933  1.0
  Ni  Ni401  1  0.59716556  0.71248300  0.38329933  1.0
  Ni  Ni402  1  0.93049889  0.04581633  0.38329933  1.0
  Ni  Ni403  1  0.93049889  0.37914967  0.38329933  1.0
  Ni  Ni404  1  0.93049889  0.71248300  0.38329933  1.0
  Ni  Ni405  1  0.18975815  0.15692744  0.43885489  1.0
  Ni  Ni406  1  0.18975815  0.49026078  0.43885489  1.0
  Ni  Ni407  1  0.18975815  0.82359411  0.43885489  1.0
  Ni  Ni408  1  0.52309148  0.15692744  0.43885489  1.0
  Ni  Ni409  1  0.52309148  0.49026078  0.43885489  1.0
  Ni  Ni410  1  0.52309148  0.82359411  0.43885489  1.0
  Ni  Ni411  1  0.85642481  0.15692744  0.43885489  1.0
  Ni  Ni412  1  0.85642481  0.49026078  0.43885489  1.0
  Ni  Ni413  1  0.85642481  0.82359411  0.43885489  1.0
  Ni  Ni414  1  0.16065381  0.06529478  0.42009639  1.0
  Ni  Ni415  1  0.16065381  0.39862811  0.42009639  1.0
  Ni  Ni416  1  0.16065381  0.73196144  0.42009639  1.0
  Ni  Ni417  1  0.49398715  0.06529478  0.42009639  1.0
  Ni  Ni418  1  0.49398715  0.39862811  0.42009639  1.0
  Ni  Ni419  1  0.49398715  0.73196144  0.42009639  1.0
  Ni  Ni420  1  0.82732048  0.06529478  0.42009639  1.0
  Ni  Ni421  1  0.82732048  0.39862811  0.42009639  1.0
  Ni  Ni422  1  0.82732048  0.73196144  0.42009639  1.0
  Ni  Ni423  1  0.23472789  0.28751700  0.36454083  1.0
  Ni  Ni424  1  0.23472789  0.62085033  0.36454083  1.0
  Ni  Ni425  1  0.23472789  0.95418367  0.36454083  1.0
  Ni  Ni426  1  0.56806122  0.28751700  0.36454083  1.0
  Ni  Ni427  1  0.56806122  0.62085033  0.36454083  1.0
  Ni  Ni428  1  0.56806122  0.95418367  0.36454083  1.0
  Ni  Ni429  1  0.90139456  0.28751700  0.36454083  1.0
  Ni  Ni430  1  0.90139456  0.62085033  0.36454083  1.0
  Ni  Ni431  1  0.90139456  0.95418367  0.36454083  1.0
  Sb  Sb432  1  0.30246914  0.32407407  0.10648148  1.0
  Sb  Sb433  1  0.30246914  0.65740741  0.10648148  1.0
  Sb  Sb434  1  0.30246914  0.99074074  0.10648148  1.0
  Sb  Sb435  1  0.63580247  0.32407407  0.10648148  1.0
  Sb  Sb436  1  0.63580247  0.65740741  0.10648148  1.0
  Sb  Sb437  1  0.63580247  0.99074074  0.10648148  1.0
  Sb  Sb438  1  0.96913580  0.32407407  0.10648148  1.0
  Sb  Sb439  1  0.96913580  0.65740741  0.10648148  1.0
  Sb  Sb440  1  0.96913580  0.99074074  0.10648148  1.0
  Sb  Sb441  1  0.04320988  0.21296296  0.05092593  1.0
  Sb  Sb442  1  0.04320988  0.54629630  0.05092593  1.0
  Sb  Sb443  1  0.04320988  0.87962963  0.05092593  1.0
  Sb  Sb444  1  0.37654321  0.21296296  0.05092593  1.0
  Sb  Sb445  1  0.37654321  0.54629630  0.05092593  1.0
  Sb  Sb446  1  0.37654321  0.87962963  0.05092593  1.0
  Sb  Sb447  1  0.70987654  0.21296296  0.05092593  1.0
  Sb  Sb448  1  0.70987654  0.54629630  0.05092593  1.0
  Sb  Sb449  1  0.70987654  0.87962963  0.05092593  1.0
  Sb  Sb450  1  0.21604938  0.23148148  0.00462963  1.0
  Sb  Sb451  1  0.21604938  0.56481481  0.00462963  1.0
  Sb  Sb452  1  0.21604938  0.89814815  0.00462963  1.0
  Sb  Sb453  1  0.54938272  0.23148148  0.00462963  1.0
  Sb  Sb454  1  0.54938272  0.56481481  0.00462963  1.0
  Sb  Sb455  1  0.54938272  0.89814815  0.00462963  1.0
  Sb  Sb456  1  0.88271605  0.23148148  0.00462963  1.0
  Sb  Sb457  1  0.88271605  0.56481481  0.00462963  1.0
  Sb  Sb458  1  0.88271605  0.89814815  0.00462963  1.0
  Sb  Sb459  1  0.14197531  0.00925926  0.06018519  1.0
  Sb  Sb460  1  0.14197531  0.34259259  0.06018519  1.0
  Sb  Sb461  1  0.14197531  0.67592593  0.06018519  1.0
  Sb  Sb462  1  0.47530864  0.00925926  0.06018519  1.0
  Sb  Sb463  1  0.47530864  0.34259259  0.06018519  1.0
  Sb  Sb464  1  0.47530864  0.67592593  0.06018519  1.0
  Sb  Sb465  1  0.80864198  0.00925926  0.06018519  1.0
  Sb  Sb466  1  0.80864198  0.34259259  0.06018519  1.0
  Sb  Sb467  1  0.80864198  0.67592593  0.06018519  1.0
  Sb  Sb468  1  0.15432099  0.21296296  0.21759259  1.0
  Sb  Sb469  1  0.15432099  0.54629630  0.21759259  1.0
  Sb  Sb470  1  0.15432099  0.87962963  0.21759259  1.0
  Sb  Sb471  1  0.48765432  0.21296296  0.21759259  1.0
  Sb  Sb472  1  0.48765432  0.54629630  0.21759259  1.0
  Sb  Sb473  1  0.48765432  0.87962963  0.21759259  1.0
  Sb  Sb474  1  0.82098765  0.21296296  0.21759259  1.0
  Sb  Sb475  1  0.82098765  0.54629630  0.21759259  1.0
  Sb  Sb476  1  0.82098765  0.87962963  0.21759259  1.0
  Sb  Sb477  1  0.22839506  0.10185185  0.16203704  1.0
  Sb  Sb478  1  0.22839506  0.43518519  0.16203704  1.0
  Sb  Sb479  1  0.22839506  0.76851852  0.16203704  1.0
  Sb  Sb480  1  0.56172840  0.10185185  0.16203704  1.0
  Sb  Sb481  1  0.56172840  0.43518519  0.16203704  1.0
  Sb  Sb482  1  0.56172840  0.76851852  0.16203704  1.0
  Sb  Sb483  1  0.89506173  0.10185185  0.16203704  1.0
  Sb  Sb484  1  0.89506173  0.43518519  0.16203704  1.0
  Sb  Sb485  1  0.89506173  0.76851852  0.16203704  1.0
  Sb  Sb486  1  0.06790123  0.12037037  0.11574074  1.0
  Sb  Sb487  1  0.06790123  0.45370370  0.11574074  1.0
  Sb  Sb488  1  0.06790123  0.78703704  0.11574074  1.0
  Sb  Sb489  1  0.40123457  0.12037037  0.11574074  1.0
  Sb  Sb490  1  0.40123457  0.45370370  0.11574074  1.0
  Sb  Sb491  1  0.40123457  0.78703704  0.11574074  1.0
  Sb  Sb492  1  0.73456790  0.12037037  0.11574074  1.0
  Sb  Sb493  1  0.73456790  0.45370370  0.11574074  1.0
  Sb  Sb494  1  0.73456790  0.78703704  0.11574074  1.0
  Sb  Sb495  1  0.32716049  0.23148148  0.17129630  1.0
  Sb  Sb496  1  0.32716049  0.56481481  0.17129630  1.0
  Sb  Sb497  1  0.32716049  0.89814815  0.17129630  1.0
  Sb  Sb498  1  0.66049383  0.23148148  0.17129630  1.0
  Sb  Sb499  1  0.66049383  0.56481481  0.17129630  1.0
  Sb  Sb500  1  0.66049383  0.89814815  0.17129630  1.0
  Sb  Sb501  1  0.99382716  0.23148148  0.17129630  1.0
  Sb  Sb502  1  0.99382716  0.56481481  0.17129630  1.0
  Sb  Sb503  1  0.99382716  0.89814815  0.17129630  1.0
  Sb  Sb504  1  0.00617284  0.10185185  0.32870370  1.0
  Sb  Sb505  1  0.00617284  0.43518519  0.32870370  1.0
  Sb  Sb506  1  0.00617284  0.76851852  0.32870370  1.0
  Sb  Sb507  1  0.33950617  0.10185185  0.32870370  1.0
  Sb  Sb508  1  0.33950617  0.43518519  0.32870370  1.0
  Sb  Sb509  1  0.33950617  0.76851852  0.32870370  1.0
  Sb  Sb510  1  0.67283951  0.10185185  0.32870370  1.0
  Sb  Sb511  1  0.67283951  0.43518519  0.32870370  1.0
  Sb  Sb512  1  0.67283951  0.76851852  0.32870370  1.0
  Sb  Sb513  1  0.08024691  0.32407407  0.27314815  1.0
  Sb  Sb514  1  0.08024691  0.65740741  0.27314815  1.0
  Sb  Sb515  1  0.08024691  0.99074074  0.27314815  1.0
  Sb  Sb516  1  0.41358025  0.32407407  0.27314815  1.0
  Sb  Sb517  1  0.41358025  0.65740741  0.27314815  1.0
  Sb  Sb518  1  0.41358025  0.99074074  0.27314815  1.0
  Sb  Sb519  1  0.74691358  0.32407407  0.27314815  1.0
  Sb  Sb520  1  0.74691358  0.65740741  0.27314815  1.0
  Sb  Sb521  1  0.74691358  0.99074074  0.27314815  1.0
  Sb  Sb522  1  0.25308642  0.00925926  0.22685185  1.0
  Sb  Sb523  1  0.25308642  0.34259259  0.22685185  1.0
  Sb  Sb524  1  0.25308642  0.67592593  0.22685185  1.0
  Sb  Sb525  1  0.58641975  0.00925926  0.22685185  1.0
  Sb  Sb526  1  0.58641975  0.34259259  0.22685185  1.0
  Sb  Sb527  1  0.58641975  0.67592593  0.22685185  1.0
  Sb  Sb528  1  0.91975309  0.00925926  0.22685185  1.0
  Sb  Sb529  1  0.91975309  0.34259259  0.22685185  1.0
  Sb  Sb530  1  0.91975309  0.67592593  0.22685185  1.0
  Sb  Sb531  1  0.17901235  0.12037037  0.28240741  1.0
  Sb  Sb532  1  0.17901235  0.45370370  0.28240741  1.0
  Sb  Sb533  1  0.17901235  0.78703704  0.28240741  1.0
  Sb  Sb534  1  0.51234568  0.12037037  0.28240741  1.0
  Sb  Sb535  1  0.51234568  0.45370370  0.28240741  1.0
  Sb  Sb536  1  0.51234568  0.78703704  0.28240741  1.0
  Sb  Sb537  1  0.84567901  0.12037037  0.28240741  1.0
  Sb  Sb538  1  0.84567901  0.45370370  0.28240741  1.0
  Sb  Sb539  1  0.84567901  0.78703704  0.28240741  1.0
  Sb  Sb540  1  0.19135802  0.32407407  0.43981481  1.0
  Sb  Sb541  1  0.19135802  0.65740741  0.43981481  1.0
  Sb  Sb542  1  0.19135802  0.99074074  0.43981481  1.0
  Sb  Sb543  1  0.52469136  0.32407407  0.43981481  1.0
  Sb  Sb544  1  0.52469136  0.65740741  0.43981481  1.0
  Sb  Sb545  1  0.52469136  0.99074074  0.43981481  1.0
  Sb  Sb546  1  0.85802469  0.32407407  0.43981481  1.0
  Sb  Sb547  1  0.85802469  0.65740741  0.43981481  1.0
  Sb  Sb548  1  0.85802469  0.99074074  0.43981481  1.0
  Sb  Sb549  1  0.26543210  0.21296296  0.38425926  1.0
  Sb  Sb550  1  0.26543210  0.54629630  0.38425926  1.0
  Sb  Sb551  1  0.26543210  0.87962963  0.38425926  1.0
  Sb  Sb552  1  0.59876543  0.21296296  0.38425926  1.0
  Sb  Sb553  1  0.59876543  0.54629630  0.38425926  1.0
  Sb  Sb554  1  0.59876543  0.87962963  0.38425926  1.0
  Sb  Sb555  1  0.93209877  0.21296296  0.38425926  1.0
  Sb  Sb556  1  0.93209877  0.54629630  0.38425926  1.0
  Sb  Sb557  1  0.93209877  0.87962963  0.38425926  1.0
  Sb  Sb558  1  0.10493827  0.23148148  0.33796296  1.0
  Sb  Sb559  1  0.10493827  0.56481481  0.33796296  1.0
  Sb  Sb560  1  0.10493827  0.89814815  0.33796296  1.0
  Sb  Sb561  1  0.43827160  0.23148148  0.33796296  1.0
  Sb  Sb562  1  0.43827160  0.56481481  0.33796296  1.0
  Sb  Sb563  1  0.43827160  0.89814815  0.33796296  1.0
  Sb  Sb564  1  0.77160494  0.23148148  0.33796296  1.0
  Sb  Sb565  1  0.77160494  0.56481481  0.33796296  1.0
  Sb  Sb566  1  0.77160494  0.89814815  0.33796296  1.0
  Sb  Sb567  1  0.03086420  0.00925926  0.39351852  1.0
  Sb  Sb568  1  0.03086420  0.34259259  0.39351852  1.0
  Sb  Sb569  1  0.03086420  0.67592593  0.39351852  1.0
  Sb  Sb570  1  0.36419753  0.00925926  0.39351852  1.0
  Sb  Sb571  1  0.36419753  0.34259259  0.39351852  1.0
  Sb  Sb572  1  0.36419753  0.67592593  0.39351852  1.0
  Sb  Sb573  1  0.69753086  0.00925926  0.39351852  1.0
  Sb  Sb574  1  0.69753086  0.34259259  0.39351852  1.0
  Sb  Sb575  1  0.69753086  0.67592593  0.39351852  1.0
