# generated using pymatgen
data_Ni3Sn2
_symmetry_space_group_name_H-M   'P 1'
_cell_length_a   21.38101200
_cell_length_b   24.62364600
_cell_length_c   26.08776500
_cell_angle_alpha   90.00000000
_cell_angle_beta   90.00000000
_cell_angle_gamma   90.00000000
_symmetry_Int_Tables_number   1
_chemical_formula_structural   Ni3Sn2
_chemical_formula_sum   'Ni216 Sn144'
_cell_volume   13734.64661883
_cell_formula_units_Z   72
loop_
 _symmetry_equiv_pos_site_id
 _symmetry_equiv_pos_as_xyz
  1  'x, y, z'
loop_
 _atom_site_type_symbol
 _atom_site_label
 _atom_site_symmetry_multiplicity
 _atom_site_fract_x
 _atom_site_fract_y
 _atom_site_fract_z
 _atom_site_occupancy
  Ni  Ni0  1  0.30363633  0.20848567  0.02454460  1.0
  Ni  Ni1  1  0.30363633  0.54181900  0.02454460  1.0
  Ni  Ni2  1  0.30363633  0.87515233  0.02454460  1.0
  Ni  Ni3  1  0.63696967  0.20848567  0.02454460  1.0
  Ni  Ni4  1  0.63696967  0.54181900  0.02454460  1.0
  Ni  Ni5  1  0.63696967  0.87515233  0.02454460  1.0
  Ni  Ni6  1  0.97030300  0.20848567  0.02454460  1.0
  Ni  Ni7  1  0.97030300  0.54181900  0.02454460  1.0
  Ni  Ni8  1  0.97030300  0.87515233  0.02454460  1.0
  Ni  Ni9  1  0.02969700  0.12484767  0.12454460  1.0
  Ni  Ni10  1  0.02969700  0.45818100  0.12454460  1.0
  Ni  Ni11  1  0.02969700  0.79151433  0.12454460  1.0
  Ni  Ni12  1  0.36303033  0.12484767  0.12454460  1.0
  Ni  Ni13  1  0.36303033  0.45818100  0.12454460  1.0
  Ni  Ni14  1  0.36303033  0.79151433  0.12454460  1.0
  Ni  Ni15  1  0.69636367  0.12484767  0.12454460  1.0
  Ni  Ni16  1  0.69636367  0.45818100  0.12454460  1.0
  Ni  Ni17  1  0.69636367  0.79151433  0.12454460  1.0
  Ni  Ni18  1  0.07887300  0.20786900  0.07363380  1.0
  Ni  Ni19  1  0.07887300  0.54120233  0.07363380  1.0
  Ni  Ni20  1  0.07887300  0.87453567  0.07363380  1.0
  Ni  Ni21  1  0.41220633  0.20786900  0.07363380  1.0
  Ni  Ni22  1  0.41220633  0.54120233  0.07363380  1.0
  Ni  Ni23  1  0.41220633  0.87453567  0.07363380  1.0
  Ni  Ni24  1  0.74553967  0.20786900  0.07363380  1.0
  Ni  Ni25  1  0.74553967  0.54120233  0.07363380  1.0
  Ni  Ni26  1  0.74553967  0.87453567  0.07363380  1.0
  Ni  Ni27  1  0.25446033  0.12546433  0.17363380  1.0
  Ni  Ni28  1  0.25446033  0.45879767  0.17363380  1.0
  Ni  Ni29  1  0.25446033  0.79213100  0.17363380  1.0
  Ni  Ni30  1  0.58779367  0.12546433  0.17363380  1.0
  Ni  Ni31  1  0.58779367  0.45879767  0.17363380  1.0
  Ni  Ni32  1  0.58779367  0.79213100  0.17363380  1.0
  Ni  Ni33  1  0.92112700  0.12546433  0.17363380  1.0
  Ni  Ni34  1  0.92112700  0.45879767  0.17363380  1.0
  Ni  Ni35  1  0.92112700  0.79213100  0.17363380  1.0
  Ni  Ni36  1  0.08779367  0.04120233  0.07545540  1.0
  Ni  Ni37  1  0.08779367  0.37453567  0.07545540  1.0
  Ni  Ni38  1  0.08779367  0.70786900  0.07545540  1.0
  Ni  Ni39  1  0.42112700  0.04120233  0.07545540  1.0
  Ni  Ni40  1  0.42112700  0.37453567  0.07545540  1.0
  Ni  Ni41  1  0.42112700  0.70786900  0.07545540  1.0
  Ni  Ni42  1  0.75446033  0.04120233  0.07545540  1.0
  Ni  Ni43  1  0.75446033  0.37453567  0.07545540  1.0
  Ni  Ni44  1  0.75446033  0.70786900  0.07545540  1.0
  Ni  Ni45  1  0.08779367  0.04120233  0.17363380  1.0
  Ni  Ni46  1  0.08779367  0.37453567  0.17363380  1.0
  Ni  Ni47  1  0.08779367  0.70786900  0.17363380  1.0
  Ni  Ni48  1  0.42112700  0.04120233  0.17363380  1.0
  Ni  Ni49  1  0.42112700  0.37453567  0.17363380  1.0
  Ni  Ni50  1  0.42112700  0.70786900  0.17363380  1.0
  Ni  Ni51  1  0.75446033  0.04120233  0.17363380  1.0
  Ni  Ni52  1  0.75446033  0.37453567  0.17363380  1.0
  Ni  Ni53  1  0.75446033  0.70786900  0.17363380  1.0
  Ni  Ni54  1  0.25446033  0.12546433  0.07545540  1.0
  Ni  Ni55  1  0.25446033  0.45879767  0.07545540  1.0
  Ni  Ni56  1  0.25446033  0.79213100  0.07545540  1.0
  Ni  Ni57  1  0.58779367  0.12546433  0.07545540  1.0
  Ni  Ni58  1  0.58779367  0.45879767  0.07545540  1.0
  Ni  Ni59  1  0.58779367  0.79213100  0.07545540  1.0
  Ni  Ni60  1  0.92112700  0.12546433  0.07545540  1.0
  Ni  Ni61  1  0.92112700  0.45879767  0.07545540  1.0
  Ni  Ni62  1  0.92112700  0.79213100  0.07545540  1.0
  Ni  Ni63  1  0.07887300  0.20786900  0.17545540  1.0
  Ni  Ni64  1  0.07887300  0.54120233  0.17545540  1.0
  Ni  Ni65  1  0.07887300  0.87453567  0.17545540  1.0
  Ni  Ni66  1  0.41220633  0.20786900  0.17545540  1.0
  Ni  Ni67  1  0.41220633  0.54120233  0.17545540  1.0
  Ni  Ni68  1  0.41220633  0.87453567  0.17545540  1.0
  Ni  Ni69  1  0.74553967  0.20786900  0.17545540  1.0
  Ni  Ni70  1  0.74553967  0.54120233  0.17545540  1.0
  Ni  Ni71  1  0.74553967  0.87453567  0.17545540  1.0
  Ni  Ni72  1  0.24553967  0.29213100  0.07363380  1.0
  Ni  Ni73  1  0.24553967  0.62546433  0.07363380  1.0
  Ni  Ni74  1  0.24553967  0.95879767  0.07363380  1.0
  Ni  Ni75  1  0.57887300  0.29213100  0.07363380  1.0
  Ni  Ni76  1  0.57887300  0.62546433  0.07363380  1.0
  Ni  Ni77  1  0.57887300  0.95879767  0.07363380  1.0
  Ni  Ni78  1  0.91220633  0.29213100  0.07363380  1.0
  Ni  Ni79  1  0.91220633  0.62546433  0.07363380  1.0
  Ni  Ni80  1  0.91220633  0.95879767  0.07363380  1.0
  Ni  Ni81  1  0.13696967  0.29151433  0.02454460  1.0
  Ni  Ni82  1  0.13696967  0.62484767  0.02454460  1.0
  Ni  Ni83  1  0.13696967  0.95818100  0.02454460  1.0
  Ni  Ni84  1  0.47030300  0.29151433  0.02454460  1.0
  Ni  Ni85  1  0.47030300  0.62484767  0.02454460  1.0
  Ni  Ni86  1  0.47030300  0.95818100  0.02454460  1.0
  Ni  Ni87  1  0.80363633  0.29151433  0.02454460  1.0
  Ni  Ni88  1  0.80363633  0.62484767  0.02454460  1.0
  Ni  Ni89  1  0.80363633  0.95818100  0.02454460  1.0
  Ni  Ni90  1  0.24553967  0.29213100  0.17545540  1.0
  Ni  Ni91  1  0.24553967  0.62546433  0.17545540  1.0
  Ni  Ni92  1  0.24553967  0.95879767  0.17545540  1.0
  Ni  Ni93  1  0.57887300  0.29213100  0.17545540  1.0
  Ni  Ni94  1  0.57887300  0.62546433  0.17545540  1.0
  Ni  Ni95  1  0.57887300  0.95879767  0.17545540  1.0
  Ni  Ni96  1  0.91220633  0.29213100  0.17545540  1.0
  Ni  Ni97  1  0.91220633  0.62546433  0.17545540  1.0
  Ni  Ni98  1  0.91220633  0.95879767  0.17545540  1.0
  Ni  Ni99  1  0.19636367  0.04181900  0.12454460  1.0
  Ni  Ni100  1  0.19636367  0.37515233  0.12454460  1.0
  Ni  Ni101  1  0.19636367  0.70848567  0.12454460  1.0
  Ni  Ni102  1  0.52969700  0.04181900  0.12454460  1.0
  Ni  Ni103  1  0.52969700  0.37515233  0.12454460  1.0
  Ni  Ni104  1  0.52969700  0.70848567  0.12454460  1.0
  Ni  Ni105  1  0.86303033  0.04181900  0.12454460  1.0
  Ni  Ni106  1  0.86303033  0.37515233  0.12454460  1.0
  Ni  Ni107  1  0.86303033  0.70848567  0.12454460  1.0
  Sn  Sn108  1  0.18705800  0.19901567  0.02454460  1.0
  Sn  Sn109  1  0.18705800  0.53234900  0.02454460  1.0
  Sn  Sn110  1  0.18705800  0.86568233  0.02454460  1.0
  Sn  Sn111  1  0.52039133  0.19901567  0.02454460  1.0
  Sn  Sn112  1  0.52039133  0.53234900  0.02454460  1.0
  Sn  Sn113  1  0.52039133  0.86568233  0.02454460  1.0
  Sn  Sn114  1  0.85372467  0.19901567  0.02454460  1.0
  Sn  Sn115  1  0.85372467  0.53234900  0.02454460  1.0
  Sn  Sn116  1  0.85372467  0.86568233  0.02454460  1.0
  Sn  Sn117  1  0.03279133  0.11912700  0.02454460  1.0
  Sn  Sn118  1  0.03279133  0.45246033  0.02454460  1.0
  Sn  Sn119  1  0.03279133  0.78579367  0.02454460  1.0
  Sn  Sn120  1  0.36612467  0.11912700  0.02454460  1.0
  Sn  Sn121  1  0.36612467  0.45246033  0.02454460  1.0
  Sn  Sn122  1  0.36612467  0.78579367  0.02454460  1.0
  Sn  Sn123  1  0.69945800  0.11912700  0.02454460  1.0
  Sn  Sn124  1  0.69945800  0.45246033  0.02454460  1.0
  Sn  Sn125  1  0.69945800  0.78579367  0.02454460  1.0
  Sn  Sn126  1  0.30054200  0.21420633  0.12454460  1.0
  Sn  Sn127  1  0.30054200  0.54753967  0.12454460  1.0
  Sn  Sn128  1  0.30054200  0.88087300  0.12454460  1.0
  Sn  Sn129  1  0.63387533  0.21420633  0.12454460  1.0
  Sn  Sn130  1  0.63387533  0.54753967  0.12454460  1.0
  Sn  Sn131  1  0.63387533  0.88087300  0.12454460  1.0
  Sn  Sn132  1  0.96720867  0.21420633  0.12454460  1.0
  Sn  Sn133  1  0.96720867  0.54753967  0.12454460  1.0
  Sn  Sn134  1  0.96720867  0.88087300  0.12454460  1.0
  Sn  Sn135  1  0.13387533  0.28579367  0.12454460  1.0
  Sn  Sn136  1  0.13387533  0.61912700  0.12454460  1.0
  Sn  Sn137  1  0.13387533  0.95246033  0.12454460  1.0
  Sn  Sn138  1  0.46720867  0.28579367  0.12454460  1.0
  Sn  Sn139  1  0.46720867  0.61912700  0.12454460  1.0
  Sn  Sn140  1  0.46720867  0.95246033  0.12454460  1.0
  Sn  Sn141  1  0.80054200  0.28579367  0.12454460  1.0
  Sn  Sn142  1  0.80054200  0.61912700  0.12454460  1.0
  Sn  Sn143  1  0.80054200  0.95246033  0.12454460  1.0
  Sn  Sn144  1  0.19945800  0.04753967  0.02454460  1.0
  Sn  Sn145  1  0.19945800  0.38087300  0.02454460  1.0
  Sn  Sn146  1  0.19945800  0.71420633  0.02454460  1.0
  Sn  Sn147  1  0.53279133  0.04753967  0.02454460  1.0
  Sn  Sn148  1  0.53279133  0.38087300  0.02454460  1.0
  Sn  Sn149  1  0.53279133  0.71420633  0.02454460  1.0
  Sn  Sn150  1  0.86612467  0.04753967  0.02454460  1.0
  Sn  Sn151  1  0.86612467  0.38087300  0.02454460  1.0
  Sn  Sn152  1  0.86612467  0.71420633  0.02454460  1.0
  Sn  Sn153  1  0.02039133  0.30098433  0.02454460  1.0
  Sn  Sn154  1  0.02039133  0.63431767  0.02454460  1.0
  Sn  Sn155  1  0.02039133  0.96765100  0.02454460  1.0
  Sn  Sn156  1  0.35372467  0.30098433  0.02454460  1.0
  Sn  Sn157  1  0.35372467  0.63431767  0.02454460  1.0
  Sn  Sn158  1  0.35372467  0.96765100  0.02454460  1.0
  Sn  Sn159  1  0.68705800  0.30098433  0.02454460  1.0
  Sn  Sn160  1  0.68705800  0.63431767  0.02454460  1.0
  Sn  Sn161  1  0.68705800  0.96765100  0.02454460  1.0
  Sn  Sn162  1  0.14627533  0.13431767  0.12454460  1.0
  Sn  Sn163  1  0.14627533  0.46765100  0.12454460  1.0
  Sn  Sn164  1  0.14627533  0.80098433  0.12454460  1.0
  Sn  Sn165  1  0.47960867  0.13431767  0.12454460  1.0
  Sn  Sn166  1  0.47960867  0.46765100  0.12454460  1.0
  Sn  Sn167  1  0.47960867  0.80098433  0.12454460  1.0
  Sn  Sn168  1  0.81294200  0.13431767  0.12454460  1.0
  Sn  Sn169  1  0.81294200  0.46765100  0.12454460  1.0
  Sn  Sn170  1  0.81294200  0.80098433  0.12454460  1.0
  Sn  Sn171  1  0.31294200  0.03234900  0.12454460  1.0
  Sn  Sn172  1  0.31294200  0.36568233  0.12454460  1.0
  Sn  Sn173  1  0.31294200  0.69901567  0.12454460  1.0
  Sn  Sn174  1  0.64627533  0.03234900  0.12454460  1.0
  Sn  Sn175  1  0.64627533  0.36568233  0.12454460  1.0
  Sn  Sn176  1  0.64627533  0.69901567  0.12454460  1.0
  Sn  Sn177  1  0.97960867  0.03234900  0.12454460  1.0
  Sn  Sn178  1  0.97960867  0.36568233  0.12454460  1.0
  Sn  Sn179  1  0.97960867  0.69901567  0.12454460  1.0
  Ni  Ni180  1  0.30363633  0.20848567  0.22454460  1.0
  Ni  Ni181  1  0.30363633  0.54181900  0.22454460  1.0
  Ni  Ni182  1  0.30363633  0.87515233  0.22454460  1.0
  Ni  Ni183  1  0.63696967  0.20848567  0.22454460  1.0
  Ni  Ni184  1  0.63696967  0.54181900  0.22454460  1.0
  Ni  Ni185  1  0.63696967  0.87515233  0.22454460  1.0
  Ni  Ni186  1  0.97030300  0.20848567  0.22454460  1.0
  Ni  Ni187  1  0.97030300  0.54181900  0.22454460  1.0
  Ni  Ni188  1  0.97030300  0.87515233  0.22454460  1.0
  Ni  Ni189  1  0.02969700  0.12484767  0.32454460  1.0
  Ni  Ni190  1  0.02969700  0.45818100  0.32454460  1.0
  Ni  Ni191  1  0.02969700  0.79151433  0.32454460  1.0
  Ni  Ni192  1  0.36303033  0.12484767  0.32454460  1.0
  Ni  Ni193  1  0.36303033  0.45818100  0.32454460  1.0
  Ni  Ni194  1  0.36303033  0.79151433  0.32454460  1.0
  Ni  Ni195  1  0.69636367  0.12484767  0.32454460  1.0
  Ni  Ni196  1  0.69636367  0.45818100  0.32454460  1.0
  Ni  Ni197  1  0.69636367  0.79151433  0.32454460  1.0
  Ni  Ni198  1  0.07887300  0.20786900  0.27363380  1.0
  Ni  Ni199  1  0.07887300  0.54120233  0.27363380  1.0
  Ni  Ni200  1  0.07887300  0.87453567  0.27363380  1.0
  Ni  Ni201  1  0.41220633  0.20786900  0.27363380  1.0
  Ni  Ni202  1  0.41220633  0.54120233  0.27363380  1.0
  Ni  Ni203  1  0.41220633  0.87453567  0.27363380  1.0
  Ni  Ni204  1  0.74553967  0.20786900  0.27363380  1.0
  Ni  Ni205  1  0.74553967  0.54120233  0.27363380  1.0
  Ni  Ni206  1  0.74553967  0.87453567  0.27363380  1.0
  Ni  Ni207  1  0.25446033  0.12546433  0.37363380  1.0
  Ni  Ni208  1  0.25446033  0.45879767  0.37363380  1.0
  Ni  Ni209  1  0.25446033  0.79213100  0.37363380  1.0
  Ni  Ni210  1  0.58779367  0.12546433  0.37363380  1.0
  Ni  Ni211  1  0.58779367  0.45879767  0.37363380  1.0
  Ni  Ni212  1  0.58779367  0.79213100  0.37363380  1.0
  Ni  Ni213  1  0.92112700  0.12546433  0.37363380  1.0
  Ni  Ni214  1  0.92112700  0.45879767  0.37363380  1.0
  Ni  Ni215  1  0.92112700  0.79213100  0.37363380  1.0
  Ni  Ni216  1  0.08779367  0.04120233  0.27545540  1.0
  Ni  Ni217  1  0.08779367  0.37453567  0.27545540  1.0
  Ni  Ni218  1  0.08779367  0.70786900  0.27545540  1.0
  Ni  Ni219  1  0.42112700  0.04120233  0.27545540  1.0
  Ni  Ni220  1  0.42112700  0.37453567  0.27545540  1.0
  Ni  Ni221  1  0.42112700  0.70786900  0.27545540  1.0
  Ni  Ni222  1  0.75446033  0.04120233  0.27545540  1.0
  Ni  Ni223  1  0.75446033  0.37453567  0.27545540  1.0
  Ni  Ni224  1  0.75446033  0.70786900  0.27545540  1.0
  Ni  Ni225  1  0.08779367  0.04120233  0.37363380  1.0
  Ni  Ni226  1  0.08779367  0.37453567  0.37363380  1.0
  Ni  Ni227  1  0.08779367  0.70786900  0.37363380  1.0
  Ni  Ni228  1  0.42112700  0.04120233  0.37363380  1.0
  Ni  Ni229  1  0.42112700  0.37453567  0.37363380  1.0
  Ni  Ni230  1  0.42112700  0.70786900  0.37363380  1.0
  Ni  Ni231  1  0.75446033  0.04120233  0.37363380  1.0
  Ni  Ni232  1  0.75446033  0.37453567  0.37363380  1.0
  Ni  Ni233  1  0.75446033  0.70786900  0.37363380  1.0
  Ni  Ni234  1  0.25446033  0.12546433  0.27545540  1.0
  Ni  Ni235  1  0.25446033  0.45879767  0.27545540  1.0
  Ni  Ni236  1  0.25446033  0.79213100  0.27545540  1.0
  Ni  Ni237  1  0.58779367  0.12546433  0.27545540  1.0
  Ni  Ni238  1  0.58779367  0.45879767  0.27545540  1.0
  Ni  Ni239  1  0.58779367  0.79213100  0.27545540  1.0
  Ni  Ni240  1  0.92112700  0.12546433  0.27545540  1.0
  Ni  Ni241  1  0.92112700  0.45879767  0.27545540  1.0
  Ni  Ni242  1  0.92112700  0.79213100  0.27545540  1.0
  Ni  Ni243  1  0.07887300  0.20786900  0.37545540  1.0
  Ni  Ni244  1  0.07887300  0.54120233  0.37545540  1.0
  Ni  Ni245  1  0.07887300  0.87453567  0.37545540  1.0
  Ni  Ni246  1  0.41220633  0.20786900  0.37545540  1.0
  Ni  Ni247  1  0.41220633  0.54120233  0.37545540  1.0
  Ni  Ni248  1  0.41220633  0.87453567  0.37545540  1.0
  Ni  Ni249  1  0.74553967  0.20786900  0.37545540  1.0
  Ni  Ni250  1  0.74553967  0.54120233  0.37545540  1.0
  Ni  Ni251  1  0.74553967  0.87453567  0.37545540  1.0
  Ni  Ni252  1  0.24553967  0.29213100  0.27363380  1.0
  Ni  Ni253  1  0.24553967  0.62546433  0.27363380  1.0
  Ni  Ni254  1  0.24553967  0.95879767  0.27363380  1.0
  Ni  Ni255  1  0.57887300  0.29213100  0.27363380  1.0
  Ni  Ni256  1  0.57887300  0.62546433  0.27363380  1.0
  Ni  Ni257  1  0.57887300  0.95879767  0.27363380  1.0
  Ni  Ni258  1  0.91220633  0.29213100  0.27363380  1.0
  Ni  Ni259  1  0.91220633  0.62546433  0.27363380  1.0
  Ni  Ni260  1  0.91220633  0.95879767  0.27363380  1.0
  Ni  Ni261  1  0.13696967  0.29151433  0.22454460  1.0
  Ni  Ni262  1  0.13696967  0.62484767  0.22454460  1.0
  Ni  Ni263  1  0.13696967  0.95818100  0.22454460  1.0
  Ni  Ni264  1  0.47030300  0.29151433  0.22454460  1.0
  Ni  Ni265  1  0.47030300  0.62484767  0.22454460  1.0
  Ni  Ni266  1  0.47030300  0.95818100  0.22454460  1.0
  Ni  Ni267  1  0.80363633  0.29151433  0.22454460  1.0
  Ni  Ni268  1  0.80363633  0.62484767  0.22454460  1.0
  Ni  Ni269  1  0.80363633  0.95818100  0.22454460  1.0
  Ni  Ni270  1  0.24553967  0.29213100  0.37545540  1.0
  Ni  Ni271  1  0.24553967  0.62546433  0.37545540  1.0
  Ni  Ni272  1  0.24553967  0.95879767  0.37545540  1.0
  Ni  Ni273  1  0.57887300  0.29213100  0.37545540  1.0
  Ni  Ni274  1  0.57887300  0.62546433  0.37545540  1.0
  Ni  Ni275  1  0.57887300  0.95879767  0.37545540  1.0
  Ni  Ni276  1  0.91220633  0.29213100  0.37545540  1.0
  Ni  Ni277  1  0.91220633  0.62546433  0.37545540  1.0
  Ni  Ni278  1  0.91220633  0.95879767  0.37545540  1.0
  Ni  Ni279  1  0.19636367  0.04181900  0.32454460  1.0
  Ni  Ni280  1  0.19636367  0.37515233  0.32454460  1.0
  Ni  Ni281  1  0.19636367  0.70848567  0.32454460  1.0
  Ni  Ni282  1  0.52969700  0.04181900  0.32454460  1.0
  Ni  Ni283  1  0.52969700  0.37515233  0.32454460  1.0
  Ni  Ni284  1  0.52969700  0.70848567  0.32454460  1.0
  Ni  Ni285  1  0.86303033  0.04181900  0.32454460  1.0
  Ni  Ni286  1  0.86303033  0.37515233  0.32454460  1.0
  Ni  Ni287  1  0.86303033  0.70848567  0.32454460  1.0
  Sn  Sn288  1  0.18705800  0.19901567  0.22454460  1.0
  Sn  Sn289  1  0.18705800  0.53234900  0.22454460  1.0
  Sn  Sn290  1  0.18705800  0.86568233  0.22454460  1.0
  Sn  Sn291  1  0.52039133  0.19901567  0.22454460  1.0
  Sn  Sn292  1  0.52039133  0.53234900  0.22454460  1.0
  Sn  Sn293  1  0.52039133  0.86568233  0.22454460  1.0
  Sn  Sn294  1  0.85372467  0.19901567  0.22454460  1.0
  Sn  Sn295  1  0.85372467  0.53234900  0.22454460  1.0
  Sn  Sn296  1  0.85372467  0.86568233  0.22454460  1.0
  Sn  Sn297  1  0.03279133  0.11912700  0.22454460  1.0
  Sn  Sn298  1  0.03279133  0.45246033  0.22454460  1.0
  Sn  Sn299  1  0.03279133  0.78579367  0.22454460  1.0
  Sn  Sn300  1  0.36612467  0.11912700  0.22454460  1.0
  Sn  Sn301  1  0.36612467  0.45246033  0.22454460  1.0
  Sn  Sn302  1  0.36612467  0.78579367  0.22454460  1.0
  Sn  Sn303  1  0.69945800  0.11912700  0.22454460  1.0
  Sn  Sn304  1  0.69945800  0.45246033  0.22454460  1.0
  Sn  Sn305  1  0.69945800  0.78579367  0.22454460  1.0
  Sn  Sn306  1  0.30054200  0.21420633  0.32454460  1.0
  Sn  Sn307  1  0.30054200  0.54753967  0.32454460  1.0
  Sn  Sn308  1  0.30054200  0.88087300  0.32454460  1.0
  Sn  Sn309  1  0.63387533  0.21420633  0.32454460  1.0
  Sn  Sn310  1  0.63387533  0.54753967  0.32454460  1.0
  Sn  Sn311  1  0.63387533  0.88087300  0.32454460  1.0
  Sn  Sn312  1  0.96720867  0.21420633  0.32454460  1.0
  Sn  Sn313  1  0.96720867  0.54753967  0.32454460  1.0
  Sn  Sn314  1  0.96720867  0.88087300  0.32454460  1.0
  Sn  Sn315  1  0.13387533  0.28579367  0.32454460  1.0
  Sn  Sn316  1  0.13387533  0.61912700  0.32454460  1.0
  Sn  Sn317  1  0.13387533  0.95246033  0.32454460  1.0
  Sn  Sn318  1  0.46720867  0.28579367  0.32454460  1.0
  Sn  Sn319  1  0.46720867  0.61912700  0.32454460  1.0
  Sn  Sn320  1  0.46720867  0.95246033  0.32454460  1.0
  Sn  Sn321  1  0.80054200  0.28579367  0.32454460  1.0
  Sn  Sn322  1  0.80054200  0.61912700  0.32454460  1.0
  Sn  Sn323  1  0.80054200  0.95246033  0.32454460  1.0
  Sn  Sn324  1  0.19945800  0.04753967  0.22454460  1.0
  Sn  Sn325  1  0.19945800  0.38087300  0.22454460  1.0
  Sn  Sn326  1  0.19945800  0.71420633  0.22454460  1.0
  Sn  Sn327  1  0.53279133  0.04753967  0.22454460  1.0
  Sn  Sn328  1  0.53279133  0.38087300  0.22454460  1.0
  Sn  Sn329  1  0.53279133  0.71420633  0.22454460  1.0
  Sn  Sn330  1  0.86612467  0.04753967  0.22454460  1.0
  Sn  Sn331  1  0.86612467  0.38087300  0.22454460  1.0
  Sn  Sn332  1  0.86612467  0.71420633  0.22454460  1.0
  Sn  Sn333  1  0.02039133  0.30098433  0.22454460  1.0
  Sn  Sn334  1  0.02039133  0.63431767  0.22454460  1.0
  Sn  Sn335  1  0.02039133  0.96765100  0.22454460  1.0
  Sn  Sn336  1  0.35372467  0.30098433  0.22454460  1.0
  Sn  Sn337  1  0.35372467  0.63431767  0.22454460  1.0
  Sn  Sn338  1  0.35372467  0.96765100  0.22454460  1.0
  Sn  Sn339  1  0.68705800  0.30098433  0.22454460  1.0
  Sn  Sn340  1  0.68705800  0.63431767  0.22454460  1.0
  Sn  Sn341  1  0.68705800  0.96765100  0.22454460  1.0
  Sn  Sn342  1  0.14627533  0.13431767  0.32454460  1.0
  Sn  Sn343  1  0.14627533  0.46765100  0.32454460  1.0
  Sn  Sn344  1  0.14627533  0.80098433  0.32454460  1.0
  Sn  Sn345  1  0.47960867  0.13431767  0.32454460  1.0
  Sn  Sn346  1  0.47960867  0.46765100  0.32454460  1.0
  Sn  Sn347  1  0.47960867  0.80098433  0.32454460  1.0
  Sn  Sn348  1  0.81294200  0.13431767  0.32454460  1.0
  Sn  Sn349  1  0.81294200  0.46765100  0.32454460  1.0
  Sn  Sn350  1  0.81294200  0.80098433  0.32454460  1.0
  Sn  Sn351  1  0.31294200  0.03234900  0.32454460  1.0
  Sn  Sn352  1  0.31294200  0.36568233  0.32454460  1.0
  Sn  Sn353  1  0.31294200  0.69901567  0.32454460  1.0
  Sn  Sn354  1  0.64627533  0.03234900  0.32454460  1.0
  Sn  Sn355  1  0.64627533  0.36568233  0.32454460  1.0
  Sn  Sn356  1  0.64627533  0.69901567  0.32454460  1.0
  Sn  Sn357  1  0.97960867  0.03234900  0.32454460  1.0
  Sn  Sn358  1  0.97960867  0.36568233  0.32454460  1.0
  Sn  Sn359  1  0.97960867  0.69901567  0.32454460  1.0
