# generated using pymatgen
data_Ni3Sn4
_symmetry_space_group_name_H-M   'P 1'
_cell_length_a   36.84172801
_cell_length_b   41.01632038
_cell_length_c   84.14242954
_cell_angle_alpha   131.68827553
_cell_angle_beta   161.56338559
_cell_angle_gamma   49.37169392
_symmetry_Int_Tables_number   1
_chemical_formula_structural   Ni3Sn4
_chemical_formula_sum   'Ni270 Sn360'
_cell_volume   29918.74708902
_cell_formula_units_Z   90
loop_
 _symmetry_equiv_pos_site_id
 _symmetry_equiv_pos_as_xyz
  1  'x, y, z'
loop_
 _atom_site_type_symbol
 _atom_site_label
 _atom_site_symmetry_multiplicity
 _atom_site_fract_x
 _atom_site_fract_y
 _atom_site_fract_z
 _atom_site_occupancy
  Ni  Ni0  1  0.00000000  0.00000000  0.07331185  1.0
  Ni  Ni1  1  0.00000000  0.33333333  0.07331185  1.0
  Ni  Ni2  1  0.00000000  0.66666667  0.07331185  1.0
  Ni  Ni3  1  0.33333333  0.00000000  0.07331185  1.0
  Ni  Ni4  1  0.33333333  0.33333333  0.07331185  1.0
  Ni  Ni5  1  0.33333333  0.66666667  0.07331185  1.0
  Ni  Ni6  1  0.66666667  0.00000000  0.07331185  1.0
  Ni  Ni7  1  0.66666667  0.33333333  0.07331185  1.0
  Ni  Ni8  1  0.66666667  0.66666667  0.07331185  1.0
  Ni  Ni9  1  0.00000000  0.16666667  0.03485031  1.0
  Ni  Ni10  1  0.00000000  0.50000000  0.03485031  1.0
  Ni  Ni11  1  0.00000000  0.83333333  0.03485031  1.0
  Ni  Ni12  1  0.33333333  0.16666667  0.03485031  1.0
  Ni  Ni13  1  0.33333333  0.50000000  0.03485031  1.0
  Ni  Ni14  1  0.33333333  0.83333333  0.03485031  1.0
  Ni  Ni15  1  0.66666667  0.16666667  0.03485031  1.0
  Ni  Ni16  1  0.66666667  0.50000000  0.03485031  1.0
  Ni  Ni17  1  0.66666667  0.83333333  0.03485031  1.0
  Ni  Ni18  1  0.07195467  0.11058333  0.02190800  1.0
  Ni  Ni19  1  0.07195467  0.44391667  0.02190800  1.0
  Ni  Ni20  1  0.07195467  0.77725000  0.02190800  1.0
  Ni  Ni21  1  0.40528800  0.11058333  0.02190800  1.0
  Ni  Ni22  1  0.40528800  0.44391667  0.02190800  1.0
  Ni  Ni23  1  0.40528800  0.77725000  0.02190800  1.0
  Ni  Ni24  1  0.73862133  0.11058333  0.02190800  1.0
  Ni  Ni25  1  0.73862133  0.44391667  0.02190800  1.0
  Ni  Ni26  1  0.73862133  0.77725000  0.02190800  1.0
  Ni  Ni27  1  0.07195467  0.27725000  0.06036954  1.0
  Ni  Ni28  1  0.07195467  0.61058333  0.06036954  1.0
  Ni  Ni29  1  0.07195467  0.94391667  0.06036954  1.0
  Ni  Ni30  1  0.40528800  0.27725000  0.06036954  1.0
  Ni  Ni31  1  0.40528800  0.61058333  0.06036954  1.0
  Ni  Ni32  1  0.40528800  0.94391667  0.06036954  1.0
  Ni  Ni33  1  0.73862133  0.27725000  0.06036954  1.0
  Ni  Ni34  1  0.73862133  0.61058333  0.06036954  1.0
  Ni  Ni35  1  0.73862133  0.94391667  0.06036954  1.0
  Ni  Ni36  1  0.26137867  0.05608333  0.00933108  1.0
  Ni  Ni37  1  0.26137867  0.38941667  0.00933108  1.0
  Ni  Ni38  1  0.26137867  0.72275000  0.00933108  1.0
  Ni  Ni39  1  0.59471200  0.05608333  0.00933108  1.0
  Ni  Ni40  1  0.59471200  0.38941667  0.00933108  1.0
  Ni  Ni41  1  0.59471200  0.72275000  0.00933108  1.0
  Ni  Ni42  1  0.92804533  0.05608333  0.00933108  1.0
  Ni  Ni43  1  0.92804533  0.38941667  0.00933108  1.0
  Ni  Ni44  1  0.92804533  0.72275000  0.00933108  1.0
  Ni  Ni45  1  0.26137867  0.22275000  0.04779262  1.0
  Ni  Ni46  1  0.26137867  0.55608333  0.04779262  1.0
  Ni  Ni47  1  0.26137867  0.88941667  0.04779262  1.0
  Ni  Ni48  1  0.59471200  0.22275000  0.04779262  1.0
  Ni  Ni49  1  0.59471200  0.55608333  0.04779262  1.0
  Ni  Ni50  1  0.59471200  0.88941667  0.04779262  1.0
  Ni  Ni51  1  0.92804533  0.22275000  0.04779262  1.0
  Ni  Ni52  1  0.92804533  0.55608333  0.04779262  1.0
  Ni  Ni53  1  0.92804533  0.88941667  0.04779262  1.0
  Sn  Sn54  1  0.14275700  0.05209283  0.00841019  1.0
  Sn  Sn55  1  0.14275700  0.38542617  0.00841019  1.0
  Sn  Sn56  1  0.14275700  0.71875950  0.00841019  1.0
  Sn  Sn57  1  0.47609033  0.05209283  0.00841019  1.0
  Sn  Sn58  1  0.47609033  0.38542617  0.00841019  1.0
  Sn  Sn59  1  0.47609033  0.71875950  0.00841019  1.0
  Sn  Sn60  1  0.80942367  0.05209283  0.00841019  1.0
  Sn  Sn61  1  0.80942367  0.38542617  0.00841019  1.0
  Sn  Sn62  1  0.80942367  0.71875950  0.00841019  1.0
  Sn  Sn63  1  0.14275700  0.21875950  0.04687173  1.0
  Sn  Sn64  1  0.14275700  0.55209283  0.04687173  1.0
  Sn  Sn65  1  0.14275700  0.88542617  0.04687173  1.0
  Sn  Sn66  1  0.47609033  0.21875950  0.04687173  1.0
  Sn  Sn67  1  0.47609033  0.55209283  0.04687173  1.0
  Sn  Sn68  1  0.47609033  0.88542617  0.04687173  1.0
  Sn  Sn69  1  0.80942367  0.21875950  0.04687173  1.0
  Sn  Sn70  1  0.80942367  0.55209283  0.04687173  1.0
  Sn  Sn71  1  0.80942367  0.88542617  0.04687173  1.0
  Sn  Sn72  1  0.19057633  0.11457383  0.02282888  1.0
  Sn  Sn73  1  0.19057633  0.44790717  0.02282888  1.0
  Sn  Sn74  1  0.19057633  0.78124050  0.02282888  1.0
  Sn  Sn75  1  0.52390967  0.11457383  0.02282888  1.0
  Sn  Sn76  1  0.52390967  0.44790717  0.02282888  1.0
  Sn  Sn77  1  0.52390967  0.78124050  0.02282888  1.0
  Sn  Sn78  1  0.85724300  0.11457383  0.02282888  1.0
  Sn  Sn79  1  0.85724300  0.44790717  0.02282888  1.0
  Sn  Sn80  1  0.85724300  0.78124050  0.02282888  1.0
  Sn  Sn81  1  0.19057633  0.28124050  0.06129042  1.0
  Sn  Sn82  1  0.19057633  0.61457383  0.06129042  1.0
  Sn  Sn83  1  0.19057633  0.94790717  0.06129042  1.0
  Sn  Sn84  1  0.52390967  0.28124050  0.06129042  1.0
  Sn  Sn85  1  0.52390967  0.61457383  0.06129042  1.0
  Sn  Sn86  1  0.52390967  0.94790717  0.06129042  1.0
  Sn  Sn87  1  0.85724300  0.28124050  0.06129042  1.0
  Sn  Sn88  1  0.85724300  0.61457383  0.06129042  1.0
  Sn  Sn89  1  0.85724300  0.94790717  0.06129042  1.0
  Sn  Sn90  1  0.05727600  0.03129733  0.00361123  1.0
  Sn  Sn91  1  0.05727600  0.36463067  0.00361123  1.0
  Sn  Sn92  1  0.05727600  0.69796400  0.00361123  1.0
  Sn  Sn93  1  0.39060933  0.03129733  0.00361123  1.0
  Sn  Sn94  1  0.39060933  0.36463067  0.00361123  1.0
  Sn  Sn95  1  0.39060933  0.69796400  0.00361123  1.0
  Sn  Sn96  1  0.72394267  0.03129733  0.00361123  1.0
  Sn  Sn97  1  0.72394267  0.36463067  0.00361123  1.0
  Sn  Sn98  1  0.72394267  0.69796400  0.00361123  1.0
  Sn  Sn99  1  0.05727600  0.19796400  0.04207277  1.0
  Sn  Sn100  1  0.05727600  0.53129733  0.04207277  1.0
  Sn  Sn101  1  0.05727600  0.86463067  0.04207277  1.0
  Sn  Sn102  1  0.39060933  0.19796400  0.04207277  1.0
  Sn  Sn103  1  0.39060933  0.53129733  0.04207277  1.0
  Sn  Sn104  1  0.39060933  0.86463067  0.04207277  1.0
  Sn  Sn105  1  0.72394267  0.19796400  0.04207277  1.0
  Sn  Sn106  1  0.72394267  0.53129733  0.04207277  1.0
  Sn  Sn107  1  0.72394267  0.86463067  0.04207277  1.0
  Sn  Sn108  1  0.27605733  0.13536933  0.02762785  1.0
  Sn  Sn109  1  0.27605733  0.46870267  0.02762785  1.0
  Sn  Sn110  1  0.27605733  0.80203600  0.02762785  1.0
  Sn  Sn111  1  0.60939067  0.13536933  0.02762785  1.0
  Sn  Sn112  1  0.60939067  0.46870267  0.02762785  1.0
  Sn  Sn113  1  0.60939067  0.80203600  0.02762785  1.0
  Sn  Sn114  1  0.94272400  0.13536933  0.02762785  1.0
  Sn  Sn115  1  0.94272400  0.46870267  0.02762785  1.0
  Sn  Sn116  1  0.94272400  0.80203600  0.02762785  1.0
  Sn  Sn117  1  0.27605733  0.30203600  0.06608938  1.0
  Sn  Sn118  1  0.27605733  0.63536933  0.06608938  1.0
  Sn  Sn119  1  0.27605733  0.96870267  0.06608938  1.0
  Sn  Sn120  1  0.60939067  0.30203600  0.06608938  1.0
  Sn  Sn121  1  0.60939067  0.63536933  0.06608938  1.0
  Sn  Sn122  1  0.60939067  0.96870267  0.06608938  1.0
  Sn  Sn123  1  0.94272400  0.30203600  0.06608938  1.0
  Sn  Sn124  1  0.94272400  0.63536933  0.06608938  1.0
  Sn  Sn125  1  0.94272400  0.96870267  0.06608938  1.0
  Ni  Ni126  1  0.00000000  0.00000000  0.15023492  1.0
  Ni  Ni127  1  0.00000000  0.33333333  0.15023492  1.0
  Ni  Ni128  1  0.00000000  0.66666667  0.15023492  1.0
  Ni  Ni129  1  0.33333333  0.00000000  0.15023492  1.0
  Ni  Ni130  1  0.33333333  0.33333333  0.15023492  1.0
  Ni  Ni131  1  0.33333333  0.66666667  0.15023492  1.0
  Ni  Ni132  1  0.66666667  0.00000000  0.15023492  1.0
  Ni  Ni133  1  0.66666667  0.33333333  0.15023492  1.0
  Ni  Ni134  1  0.66666667  0.66666667  0.15023492  1.0
  Ni  Ni135  1  0.00000000  0.16666667  0.11177338  1.0
  Ni  Ni136  1  0.00000000  0.50000000  0.11177338  1.0
  Ni  Ni137  1  0.00000000  0.83333333  0.11177338  1.0
  Ni  Ni138  1  0.33333333  0.16666667  0.11177338  1.0
  Ni  Ni139  1  0.33333333  0.50000000  0.11177338  1.0
  Ni  Ni140  1  0.33333333  0.83333333  0.11177338  1.0
  Ni  Ni141  1  0.66666667  0.16666667  0.11177338  1.0
  Ni  Ni142  1  0.66666667  0.50000000  0.11177338  1.0
  Ni  Ni143  1  0.66666667  0.83333333  0.11177338  1.0
  Ni  Ni144  1  0.07195467  0.11058333  0.09883108  1.0
  Ni  Ni145  1  0.07195467  0.44391667  0.09883108  1.0
  Ni  Ni146  1  0.07195467  0.77725000  0.09883108  1.0
  Ni  Ni147  1  0.40528800  0.11058333  0.09883108  1.0
  Ni  Ni148  1  0.40528800  0.44391667  0.09883108  1.0
  Ni  Ni149  1  0.40528800  0.77725000  0.09883108  1.0
  Ni  Ni150  1  0.73862133  0.11058333  0.09883108  1.0
  Ni  Ni151  1  0.73862133  0.44391667  0.09883108  1.0
  Ni  Ni152  1  0.73862133  0.77725000  0.09883108  1.0
  Ni  Ni153  1  0.07195467  0.27725000  0.13729262  1.0
  Ni  Ni154  1  0.07195467  0.61058333  0.13729262  1.0
  Ni  Ni155  1  0.07195467  0.94391667  0.13729262  1.0
  Ni  Ni156  1  0.40528800  0.27725000  0.13729262  1.0
  Ni  Ni157  1  0.40528800  0.61058333  0.13729262  1.0
  Ni  Ni158  1  0.40528800  0.94391667  0.13729262  1.0
  Ni  Ni159  1  0.73862133  0.27725000  0.13729262  1.0
  Ni  Ni160  1  0.73862133  0.61058333  0.13729262  1.0
  Ni  Ni161  1  0.73862133  0.94391667  0.13729262  1.0
  Ni  Ni162  1  0.26137867  0.05608333  0.08625415  1.0
  Ni  Ni163  1  0.26137867  0.38941667  0.08625415  1.0
  Ni  Ni164  1  0.26137867  0.72275000  0.08625415  1.0
  Ni  Ni165  1  0.59471200  0.05608333  0.08625415  1.0
  Ni  Ni166  1  0.59471200  0.38941667  0.08625415  1.0
  Ni  Ni167  1  0.59471200  0.72275000  0.08625415  1.0
  Ni  Ni168  1  0.92804533  0.05608333  0.08625415  1.0
  Ni  Ni169  1  0.92804533  0.38941667  0.08625415  1.0
  Ni  Ni170  1  0.92804533  0.72275000  0.08625415  1.0
  Ni  Ni171  1  0.26137867  0.22275000  0.12471569  1.0
  Ni  Ni172  1  0.26137867  0.55608333  0.12471569  1.0
  Ni  Ni173  1  0.26137867  0.88941667  0.12471569  1.0
  Ni  Ni174  1  0.59471200  0.22275000  0.12471569  1.0
  Ni  Ni175  1  0.59471200  0.55608333  0.12471569  1.0
  Ni  Ni176  1  0.59471200  0.88941667  0.12471569  1.0
  Ni  Ni177  1  0.92804533  0.22275000  0.12471569  1.0
  Ni  Ni178  1  0.92804533  0.55608333  0.12471569  1.0
  Ni  Ni179  1  0.92804533  0.88941667  0.12471569  1.0
  Sn  Sn180  1  0.14275700  0.05209283  0.08533327  1.0
  Sn  Sn181  1  0.14275700  0.38542617  0.08533327  1.0
  Sn  Sn182  1  0.14275700  0.71875950  0.08533327  1.0
  Sn  Sn183  1  0.47609033  0.05209283  0.08533327  1.0
  Sn  Sn184  1  0.47609033  0.38542617  0.08533327  1.0
  Sn  Sn185  1  0.47609033  0.71875950  0.08533327  1.0
  Sn  Sn186  1  0.80942367  0.05209283  0.08533327  1.0
  Sn  Sn187  1  0.80942367  0.38542617  0.08533327  1.0
  Sn  Sn188  1  0.80942367  0.71875950  0.08533327  1.0
  Sn  Sn189  1  0.14275700  0.21875950  0.12379481  1.0
  Sn  Sn190  1  0.14275700  0.55209283  0.12379481  1.0
  Sn  Sn191  1  0.14275700  0.88542617  0.12379481  1.0
  Sn  Sn192  1  0.47609033  0.21875950  0.12379481  1.0
  Sn  Sn193  1  0.47609033  0.55209283  0.12379481  1.0
  Sn  Sn194  1  0.47609033  0.88542617  0.12379481  1.0
  Sn  Sn195  1  0.80942367  0.21875950  0.12379481  1.0
  Sn  Sn196  1  0.80942367  0.55209283  0.12379481  1.0
  Sn  Sn197  1  0.80942367  0.88542617  0.12379481  1.0
  Sn  Sn198  1  0.19057633  0.11457383  0.09975196  1.0
  Sn  Sn199  1  0.19057633  0.44790717  0.09975196  1.0
  Sn  Sn200  1  0.19057633  0.78124050  0.09975196  1.0
  Sn  Sn201  1  0.52390967  0.11457383  0.09975196  1.0
  Sn  Sn202  1  0.52390967  0.44790717  0.09975196  1.0
  Sn  Sn203  1  0.52390967  0.78124050  0.09975196  1.0
  Sn  Sn204  1  0.85724300  0.11457383  0.09975196  1.0
  Sn  Sn205  1  0.85724300  0.44790717  0.09975196  1.0
  Sn  Sn206  1  0.85724300  0.78124050  0.09975196  1.0
  Sn  Sn207  1  0.19057633  0.28124050  0.13821350  1.0
  Sn  Sn208  1  0.19057633  0.61457383  0.13821350  1.0
  Sn  Sn209  1  0.19057633  0.94790717  0.13821350  1.0
  Sn  Sn210  1  0.52390967  0.28124050  0.13821350  1.0
  Sn  Sn211  1  0.52390967  0.61457383  0.13821350  1.0
  Sn  Sn212  1  0.52390967  0.94790717  0.13821350  1.0
  Sn  Sn213  1  0.85724300  0.28124050  0.13821350  1.0
  Sn  Sn214  1  0.85724300  0.61457383  0.13821350  1.0
  Sn  Sn215  1  0.85724300  0.94790717  0.13821350  1.0
  Sn  Sn216  1  0.05727600  0.03129733  0.08053431  1.0
  Sn  Sn217  1  0.05727600  0.36463067  0.08053431  1.0
  Sn  Sn218  1  0.05727600  0.69796400  0.08053431  1.0
  Sn  Sn219  1  0.39060933  0.03129733  0.08053431  1.0
  Sn  Sn220  1  0.39060933  0.36463067  0.08053431  1.0
  Sn  Sn221  1  0.39060933  0.69796400  0.08053431  1.0
  Sn  Sn222  1  0.72394267  0.03129733  0.08053431  1.0
  Sn  Sn223  1  0.72394267  0.36463067  0.08053431  1.0
  Sn  Sn224  1  0.72394267  0.69796400  0.08053431  1.0
  Sn  Sn225  1  0.05727600  0.19796400  0.11899585  1.0
  Sn  Sn226  1  0.05727600  0.53129733  0.11899585  1.0
  Sn  Sn227  1  0.05727600  0.86463067  0.11899585  1.0
  Sn  Sn228  1  0.39060933  0.19796400  0.11899585  1.0
  Sn  Sn229  1  0.39060933  0.53129733  0.11899585  1.0
  Sn  Sn230  1  0.39060933  0.86463067  0.11899585  1.0
  Sn  Sn231  1  0.72394267  0.19796400  0.11899585  1.0
  Sn  Sn232  1  0.72394267  0.53129733  0.11899585  1.0
  Sn  Sn233  1  0.72394267  0.86463067  0.11899585  1.0
  Sn  Sn234  1  0.27605733  0.13536933  0.10455092  1.0
  Sn  Sn235  1  0.27605733  0.46870267  0.10455092  1.0
  Sn  Sn236  1  0.27605733  0.80203600  0.10455092  1.0
  Sn  Sn237  1  0.60939067  0.13536933  0.10455092  1.0
  Sn  Sn238  1  0.60939067  0.46870267  0.10455092  1.0
  Sn  Sn239  1  0.60939067  0.80203600  0.10455092  1.0
  Sn  Sn240  1  0.94272400  0.13536933  0.10455092  1.0
  Sn  Sn241  1  0.94272400  0.46870267  0.10455092  1.0
  Sn  Sn242  1  0.94272400  0.80203600  0.10455092  1.0
  Sn  Sn243  1  0.27605733  0.30203600  0.14301246  1.0
  Sn  Sn244  1  0.27605733  0.63536933  0.14301246  1.0
  Sn  Sn245  1  0.27605733  0.96870267  0.14301246  1.0
  Sn  Sn246  1  0.60939067  0.30203600  0.14301246  1.0
  Sn  Sn247  1  0.60939067  0.63536933  0.14301246  1.0
  Sn  Sn248  1  0.60939067  0.96870267  0.14301246  1.0
  Sn  Sn249  1  0.94272400  0.30203600  0.14301246  1.0
  Sn  Sn250  1  0.94272400  0.63536933  0.14301246  1.0
  Sn  Sn251  1  0.94272400  0.96870267  0.14301246  1.0
  Ni  Ni252  1  0.00000000  0.00000000  0.22715800  1.0
  Ni  Ni253  1  0.00000000  0.33333333  0.22715800  1.0
  Ni  Ni254  1  0.00000000  0.66666667  0.22715800  1.0
  Ni  Ni255  1  0.33333333  0.00000000  0.22715800  1.0
  Ni  Ni256  1  0.33333333  0.33333333  0.22715800  1.0
  Ni  Ni257  1  0.33333333  0.66666667  0.22715800  1.0
  Ni  Ni258  1  0.66666667  0.00000000  0.22715800  1.0
  Ni  Ni259  1  0.66666667  0.33333333  0.22715800  1.0
  Ni  Ni260  1  0.66666667  0.66666667  0.22715800  1.0
  Ni  Ni261  1  0.00000000  0.16666667  0.18869646  1.0
  Ni  Ni262  1  0.00000000  0.50000000  0.18869646  1.0
  Ni  Ni263  1  0.00000000  0.83333333  0.18869646  1.0
  Ni  Ni264  1  0.33333333  0.16666667  0.18869646  1.0
  Ni  Ni265  1  0.33333333  0.50000000  0.18869646  1.0
  Ni  Ni266  1  0.33333333  0.83333333  0.18869646  1.0
  Ni  Ni267  1  0.66666667  0.16666667  0.18869646  1.0
  Ni  Ni268  1  0.66666667  0.50000000  0.18869646  1.0
  Ni  Ni269  1  0.66666667  0.83333333  0.18869646  1.0
  Ni  Ni270  1  0.07195467  0.11058333  0.17575415  1.0
  Ni  Ni271  1  0.07195467  0.44391667  0.17575415  1.0
  Ni  Ni272  1  0.07195467  0.77725000  0.17575415  1.0
  Ni  Ni273  1  0.40528800  0.11058333  0.17575415  1.0
  Ni  Ni274  1  0.40528800  0.44391667  0.17575415  1.0
  Ni  Ni275  1  0.40528800  0.77725000  0.17575415  1.0
  Ni  Ni276  1  0.73862133  0.11058333  0.17575415  1.0
  Ni  Ni277  1  0.73862133  0.44391667  0.17575415  1.0
  Ni  Ni278  1  0.73862133  0.77725000  0.17575415  1.0
  Ni  Ni279  1  0.07195467  0.27725000  0.21421569  1.0
  Ni  Ni280  1  0.07195467  0.61058333  0.21421569  1.0
  Ni  Ni281  1  0.07195467  0.94391667  0.21421569  1.0
  Ni  Ni282  1  0.40528800  0.27725000  0.21421569  1.0
  Ni  Ni283  1  0.40528800  0.61058333  0.21421569  1.0
  Ni  Ni284  1  0.40528800  0.94391667  0.21421569  1.0
  Ni  Ni285  1  0.73862133  0.27725000  0.21421569  1.0
  Ni  Ni286  1  0.73862133  0.61058333  0.21421569  1.0
  Ni  Ni287  1  0.73862133  0.94391667  0.21421569  1.0
  Ni  Ni288  1  0.26137867  0.05608333  0.16317723  1.0
  Ni  Ni289  1  0.26137867  0.38941667  0.16317723  1.0
  Ni  Ni290  1  0.26137867  0.72275000  0.16317723  1.0
  Ni  Ni291  1  0.59471200  0.05608333  0.16317723  1.0
  Ni  Ni292  1  0.59471200  0.38941667  0.16317723  1.0
  Ni  Ni293  1  0.59471200  0.72275000  0.16317723  1.0
  Ni  Ni294  1  0.92804533  0.05608333  0.16317723  1.0
  Ni  Ni295  1  0.92804533  0.38941667  0.16317723  1.0
  Ni  Ni296  1  0.92804533  0.72275000  0.16317723  1.0
  Ni  Ni297  1  0.26137867  0.22275000  0.20163877  1.0
  Ni  Ni298  1  0.26137867  0.55608333  0.20163877  1.0
  Ni  Ni299  1  0.26137867  0.88941667  0.20163877  1.0
  Ni  Ni300  1  0.59471200  0.22275000  0.20163877  1.0
  Ni  Ni301  1  0.59471200  0.55608333  0.20163877  1.0
  Ni  Ni302  1  0.59471200  0.88941667  0.20163877  1.0
  Ni  Ni303  1  0.92804533  0.22275000  0.20163877  1.0
  Ni  Ni304  1  0.92804533  0.55608333  0.20163877  1.0
  Ni  Ni305  1  0.92804533  0.88941667  0.20163877  1.0
  Sn  Sn306  1  0.14275700  0.05209283  0.16225635  1.0
  Sn  Sn307  1  0.14275700  0.38542617  0.16225635  1.0
  Sn  Sn308  1  0.14275700  0.71875950  0.16225635  1.0
  Sn  Sn309  1  0.47609033  0.05209283  0.16225635  1.0
  Sn  Sn310  1  0.47609033  0.38542617  0.16225635  1.0
  Sn  Sn311  1  0.47609033  0.71875950  0.16225635  1.0
  Sn  Sn312  1  0.80942367  0.05209283  0.16225635  1.0
  Sn  Sn313  1  0.80942367  0.38542617  0.16225635  1.0
  Sn  Sn314  1  0.80942367  0.71875950  0.16225635  1.0
  Sn  Sn315  1  0.14275700  0.21875950  0.20071788  1.0
  Sn  Sn316  1  0.14275700  0.55209283  0.20071788  1.0
  Sn  Sn317  1  0.14275700  0.88542617  0.20071788  1.0
  Sn  Sn318  1  0.47609033  0.21875950  0.20071788  1.0
  Sn  Sn319  1  0.47609033  0.55209283  0.20071788  1.0
  Sn  Sn320  1  0.47609033  0.88542617  0.20071788  1.0
  Sn  Sn321  1  0.80942367  0.21875950  0.20071788  1.0
  Sn  Sn322  1  0.80942367  0.55209283  0.20071788  1.0
  Sn  Sn323  1  0.80942367  0.88542617  0.20071788  1.0
  Sn  Sn324  1  0.19057633  0.11457383  0.17667504  1.0
  Sn  Sn325  1  0.19057633  0.44790717  0.17667504  1.0
  Sn  Sn326  1  0.19057633  0.78124050  0.17667504  1.0
  Sn  Sn327  1  0.52390967  0.11457383  0.17667504  1.0
  Sn  Sn328  1  0.52390967  0.44790717  0.17667504  1.0
  Sn  Sn329  1  0.52390967  0.78124050  0.17667504  1.0
  Sn  Sn330  1  0.85724300  0.11457383  0.17667504  1.0
  Sn  Sn331  1  0.85724300  0.44790717  0.17667504  1.0
  Sn  Sn332  1  0.85724300  0.78124050  0.17667504  1.0
  Sn  Sn333  1  0.19057633  0.28124050  0.21513658  1.0
  Sn  Sn334  1  0.19057633  0.61457383  0.21513658  1.0
  Sn  Sn335  1  0.19057633  0.94790717  0.21513658  1.0
  Sn  Sn336  1  0.52390967  0.28124050  0.21513658  1.0
  Sn  Sn337  1  0.52390967  0.61457383  0.21513658  1.0
  Sn  Sn338  1  0.52390967  0.94790717  0.21513658  1.0
  Sn  Sn339  1  0.85724300  0.28124050  0.21513658  1.0
  Sn  Sn340  1  0.85724300  0.61457383  0.21513658  1.0
  Sn  Sn341  1  0.85724300  0.94790717  0.21513658  1.0
  Sn  Sn342  1  0.05727600  0.03129733  0.15745738  1.0
  Sn  Sn343  1  0.05727600  0.36463067  0.15745738  1.0
  Sn  Sn344  1  0.05727600  0.69796400  0.15745738  1.0
  Sn  Sn345  1  0.39060933  0.03129733  0.15745738  1.0
  Sn  Sn346  1  0.39060933  0.36463067  0.15745738  1.0
  Sn  Sn347  1  0.39060933  0.69796400  0.15745738  1.0
  Sn  Sn348  1  0.72394267  0.03129733  0.15745738  1.0
  Sn  Sn349  1  0.72394267  0.36463067  0.15745738  1.0
  Sn  Sn350  1  0.72394267  0.69796400  0.15745738  1.0
  Sn  Sn351  1  0.05727600  0.19796400  0.19591892  1.0
  Sn  Sn352  1  0.05727600  0.53129733  0.19591892  1.0
  Sn  Sn353  1  0.05727600  0.86463067  0.19591892  1.0
  Sn  Sn354  1  0.39060933  0.19796400  0.19591892  1.0
  Sn  Sn355  1  0.39060933  0.53129733  0.19591892  1.0
  Sn  Sn356  1  0.39060933  0.86463067  0.19591892  1.0
  Sn  Sn357  1  0.72394267  0.19796400  0.19591892  1.0
  Sn  Sn358  1  0.72394267  0.53129733  0.19591892  1.0
  Sn  Sn359  1  0.72394267  0.86463067  0.19591892  1.0
  Sn  Sn360  1  0.27605733  0.13536933  0.18147400  1.0
  Sn  Sn361  1  0.27605733  0.46870267  0.18147400  1.0
  Sn  Sn362  1  0.27605733  0.80203600  0.18147400  1.0
  Sn  Sn363  1  0.60939067  0.13536933  0.18147400  1.0
  Sn  Sn364  1  0.60939067  0.46870267  0.18147400  1.0
  Sn  Sn365  1  0.60939067  0.80203600  0.18147400  1.0
  Sn  Sn366  1  0.94272400  0.13536933  0.18147400  1.0
  Sn  Sn367  1  0.94272400  0.46870267  0.18147400  1.0
  Sn  Sn368  1  0.94272400  0.80203600  0.18147400  1.0
  Sn  Sn369  1  0.27605733  0.30203600  0.21993554  1.0
  Sn  Sn370  1  0.27605733  0.63536933  0.21993554  1.0
  Sn  Sn371  1  0.27605733  0.96870267  0.21993554  1.0
  Sn  Sn372  1  0.60939067  0.30203600  0.21993554  1.0
  Sn  Sn373  1  0.60939067  0.63536933  0.21993554  1.0
  Sn  Sn374  1  0.60939067  0.96870267  0.21993554  1.0
  Sn  Sn375  1  0.94272400  0.30203600  0.21993554  1.0
  Sn  Sn376  1  0.94272400  0.63536933  0.21993554  1.0
  Sn  Sn377  1  0.94272400  0.96870267  0.21993554  1.0
  Ni  Ni378  1  0.00000000  0.00000000  0.30408108  1.0
  Ni  Ni379  1  0.00000000  0.33333333  0.30408108  1.0
  Ni  Ni380  1  0.00000000  0.66666667  0.30408108  1.0
  Ni  Ni381  1  0.33333333  0.00000000  0.30408108  1.0
  Ni  Ni382  1  0.33333333  0.33333333  0.30408108  1.0
  Ni  Ni383  1  0.33333333  0.66666667  0.30408108  1.0
  Ni  Ni384  1  0.66666667  0.00000000  0.30408108  1.0
  Ni  Ni385  1  0.66666667  0.33333333  0.30408108  1.0
  Ni  Ni386  1  0.66666667  0.66666667  0.30408108  1.0
  Ni  Ni387  1  0.00000000  0.16666667  0.26561954  1.0
  Ni  Ni388  1  0.00000000  0.50000000  0.26561954  1.0
  Ni  Ni389  1  0.00000000  0.83333333  0.26561954  1.0
  Ni  Ni390  1  0.33333333  0.16666667  0.26561954  1.0
  Ni  Ni391  1  0.33333333  0.50000000  0.26561954  1.0
  Ni  Ni392  1  0.33333333  0.83333333  0.26561954  1.0
  Ni  Ni393  1  0.66666667  0.16666667  0.26561954  1.0
  Ni  Ni394  1  0.66666667  0.50000000  0.26561954  1.0
  Ni  Ni395  1  0.66666667  0.83333333  0.26561954  1.0
  Ni  Ni396  1  0.07195467  0.11058333  0.25267723  1.0
  Ni  Ni397  1  0.07195467  0.44391667  0.25267723  1.0
  Ni  Ni398  1  0.07195467  0.77725000  0.25267723  1.0
  Ni  Ni399  1  0.40528800  0.11058333  0.25267723  1.0
  Ni  Ni400  1  0.40528800  0.44391667  0.25267723  1.0
  Ni  Ni401  1  0.40528800  0.77725000  0.25267723  1.0
  Ni  Ni402  1  0.73862133  0.11058333  0.25267723  1.0
  Ni  Ni403  1  0.73862133  0.44391667  0.25267723  1.0
  Ni  Ni404  1  0.73862133  0.77725000  0.25267723  1.0
  Ni  Ni405  1  0.07195467  0.27725000  0.29113877  1.0
  Ni  Ni406  1  0.07195467  0.61058333  0.29113877  1.0
  Ni  Ni407  1  0.07195467  0.94391667  0.29113877  1.0
  Ni  Ni408  1  0.40528800  0.27725000  0.29113877  1.0
  Ni  Ni409  1  0.40528800  0.61058333  0.29113877  1.0
  Ni  Ni410  1  0.40528800  0.94391667  0.29113877  1.0
  Ni  Ni411  1  0.73862133  0.27725000  0.29113877  1.0
  Ni  Ni412  1  0.73862133  0.61058333  0.29113877  1.0
  Ni  Ni413  1  0.73862133  0.94391667  0.29113877  1.0
  Ni  Ni414  1  0.26137867  0.05608333  0.24010031  1.0
  Ni  Ni415  1  0.26137867  0.38941667  0.24010031  1.0
  Ni  Ni416  1  0.26137867  0.72275000  0.24010031  1.0
  Ni  Ni417  1  0.59471200  0.05608333  0.24010031  1.0
  Ni  Ni418  1  0.59471200  0.38941667  0.24010031  1.0
  Ni  Ni419  1  0.59471200  0.72275000  0.24010031  1.0
  Ni  Ni420  1  0.92804533  0.05608333  0.24010031  1.0
  Ni  Ni421  1  0.92804533  0.38941667  0.24010031  1.0
  Ni  Ni422  1  0.92804533  0.72275000  0.24010031  1.0
  Ni  Ni423  1  0.26137867  0.22275000  0.27856185  1.0
  Ni  Ni424  1  0.26137867  0.55608333  0.27856185  1.0
  Ni  Ni425  1  0.26137867  0.88941667  0.27856185  1.0
  Ni  Ni426  1  0.59471200  0.22275000  0.27856185  1.0
  Ni  Ni427  1  0.59471200  0.55608333  0.27856185  1.0
  Ni  Ni428  1  0.59471200  0.88941667  0.27856185  1.0
  Ni  Ni429  1  0.92804533  0.22275000  0.27856185  1.0
  Ni  Ni430  1  0.92804533  0.55608333  0.27856185  1.0
  Ni  Ni431  1  0.92804533  0.88941667  0.27856185  1.0
  Sn  Sn432  1  0.14275700  0.05209283  0.23917942  1.0
  Sn  Sn433  1  0.14275700  0.38542617  0.23917942  1.0
  Sn  Sn434  1  0.14275700  0.71875950  0.23917942  1.0
  Sn  Sn435  1  0.47609033  0.05209283  0.23917942  1.0
  Sn  Sn436  1  0.47609033  0.38542617  0.23917942  1.0
  Sn  Sn437  1  0.47609033  0.71875950  0.23917942  1.0
  Sn  Sn438  1  0.80942367  0.05209283  0.23917942  1.0
  Sn  Sn439  1  0.80942367  0.38542617  0.23917942  1.0
  Sn  Sn440  1  0.80942367  0.71875950  0.23917942  1.0
  Sn  Sn441  1  0.14275700  0.21875950  0.27764096  1.0
  Sn  Sn442  1  0.14275700  0.55209283  0.27764096  1.0
  Sn  Sn443  1  0.14275700  0.88542617  0.27764096  1.0
  Sn  Sn444  1  0.47609033  0.21875950  0.27764096  1.0
  Sn  Sn445  1  0.47609033  0.55209283  0.27764096  1.0
  Sn  Sn446  1  0.47609033  0.88542617  0.27764096  1.0
  Sn  Sn447  1  0.80942367  0.21875950  0.27764096  1.0
  Sn  Sn448  1  0.80942367  0.55209283  0.27764096  1.0
  Sn  Sn449  1  0.80942367  0.88542617  0.27764096  1.0
  Sn  Sn450  1  0.19057633  0.11457383  0.25359812  1.0
  Sn  Sn451  1  0.19057633  0.44790717  0.25359812  1.0
  Sn  Sn452  1  0.19057633  0.78124050  0.25359812  1.0
  Sn  Sn453  1  0.52390967  0.11457383  0.25359812  1.0
  Sn  Sn454  1  0.52390967  0.44790717  0.25359812  1.0
  Sn  Sn455  1  0.52390967  0.78124050  0.25359812  1.0
  Sn  Sn456  1  0.85724300  0.11457383  0.25359812  1.0
  Sn  Sn457  1  0.85724300  0.44790717  0.25359812  1.0
  Sn  Sn458  1  0.85724300  0.78124050  0.25359812  1.0
  Sn  Sn459  1  0.19057633  0.28124050  0.29205965  1.0
  Sn  Sn460  1  0.19057633  0.61457383  0.29205965  1.0
  Sn  Sn461  1  0.19057633  0.94790717  0.29205965  1.0
  Sn  Sn462  1  0.52390967  0.28124050  0.29205965  1.0
  Sn  Sn463  1  0.52390967  0.61457383  0.29205965  1.0
  Sn  Sn464  1  0.52390967  0.94790717  0.29205965  1.0
  Sn  Sn465  1  0.85724300  0.28124050  0.29205965  1.0
  Sn  Sn466  1  0.85724300  0.61457383  0.29205965  1.0
  Sn  Sn467  1  0.85724300  0.94790717  0.29205965  1.0
  Sn  Sn468  1  0.05727600  0.03129733  0.23438046  1.0
  Sn  Sn469  1  0.05727600  0.36463067  0.23438046  1.0
  Sn  Sn470  1  0.05727600  0.69796400  0.23438046  1.0
  Sn  Sn471  1  0.39060933  0.03129733  0.23438046  1.0
  Sn  Sn472  1  0.39060933  0.36463067  0.23438046  1.0
  Sn  Sn473  1  0.39060933  0.69796400  0.23438046  1.0
  Sn  Sn474  1  0.72394267  0.03129733  0.23438046  1.0
  Sn  Sn475  1  0.72394267  0.36463067  0.23438046  1.0
  Sn  Sn476  1  0.72394267  0.69796400  0.23438046  1.0
  Sn  Sn477  1  0.05727600  0.19796400  0.27284200  1.0
  Sn  Sn478  1  0.05727600  0.53129733  0.27284200  1.0
  Sn  Sn479  1  0.05727600  0.86463067  0.27284200  1.0
  Sn  Sn480  1  0.39060933  0.19796400  0.27284200  1.0
  Sn  Sn481  1  0.39060933  0.53129733  0.27284200  1.0
  Sn  Sn482  1  0.39060933  0.86463067  0.27284200  1.0
  Sn  Sn483  1  0.72394267  0.19796400  0.27284200  1.0
  Sn  Sn484  1  0.72394267  0.53129733  0.27284200  1.0
  Sn  Sn485  1  0.72394267  0.86463067  0.27284200  1.0
  Sn  Sn486  1  0.27605733  0.13536933  0.25839708  1.0
  Sn  Sn487  1  0.27605733  0.46870267  0.25839708  1.0
  Sn  Sn488  1  0.27605733  0.80203600  0.25839708  1.0
  Sn  Sn489  1  0.60939067  0.13536933  0.25839708  1.0
  Sn  Sn490  1  0.60939067  0.46870267  0.25839708  1.0
  Sn  Sn491  1  0.60939067  0.80203600  0.25839708  1.0
  Sn  Sn492  1  0.94272400  0.13536933  0.25839708  1.0
  Sn  Sn493  1  0.94272400  0.46870267  0.25839708  1.0
  Sn  Sn494  1  0.94272400  0.80203600  0.25839708  1.0
  Sn  Sn495  1  0.27605733  0.30203600  0.29685862  1.0
  Sn  Sn496  1  0.27605733  0.63536933  0.29685862  1.0
  Sn  Sn497  1  0.27605733  0.96870267  0.29685862  1.0
  Sn  Sn498  1  0.60939067  0.30203600  0.29685862  1.0
  Sn  Sn499  1  0.60939067  0.63536933  0.29685862  1.0
  Sn  Sn500  1  0.60939067  0.96870267  0.29685862  1.0
  Sn  Sn501  1  0.94272400  0.30203600  0.29685862  1.0
  Sn  Sn502  1  0.94272400  0.63536933  0.29685862  1.0
  Sn  Sn503  1  0.94272400  0.96870267  0.29685862  1.0
  Ni  Ni504  1  0.00000000  0.00000000  0.38100415  1.0
  Ni  Ni505  1  0.00000000  0.33333333  0.38100415  1.0
  Ni  Ni506  1  0.00000000  0.66666667  0.38100415  1.0
  Ni  Ni507  1  0.33333333  0.00000000  0.38100415  1.0
  Ni  Ni508  1  0.33333333  0.33333333  0.38100415  1.0
  Ni  Ni509  1  0.33333333  0.66666667  0.38100415  1.0
  Ni  Ni510  1  0.66666667  0.00000000  0.38100415  1.0
  Ni  Ni511  1  0.66666667  0.33333333  0.38100415  1.0
  Ni  Ni512  1  0.66666667  0.66666667  0.38100415  1.0
  Ni  Ni513  1  0.00000000  0.16666667  0.34254262  1.0
  Ni  Ni514  1  0.00000000  0.50000000  0.34254262  1.0
  Ni  Ni515  1  0.00000000  0.83333333  0.34254262  1.0
  Ni  Ni516  1  0.33333333  0.16666667  0.34254262  1.0
  Ni  Ni517  1  0.33333333  0.50000000  0.34254262  1.0
  Ni  Ni518  1  0.33333333  0.83333333  0.34254262  1.0
  Ni  Ni519  1  0.66666667  0.16666667  0.34254262  1.0
  Ni  Ni520  1  0.66666667  0.50000000  0.34254262  1.0
  Ni  Ni521  1  0.66666667  0.83333333  0.34254262  1.0
  Ni  Ni522  1  0.07195467  0.11058333  0.32960031  1.0
  Ni  Ni523  1  0.07195467  0.44391667  0.32960031  1.0
  Ni  Ni524  1  0.07195467  0.77725000  0.32960031  1.0
  Ni  Ni525  1  0.40528800  0.11058333  0.32960031  1.0
  Ni  Ni526  1  0.40528800  0.44391667  0.32960031  1.0
  Ni  Ni527  1  0.40528800  0.77725000  0.32960031  1.0
  Ni  Ni528  1  0.73862133  0.11058333  0.32960031  1.0
  Ni  Ni529  1  0.73862133  0.44391667  0.32960031  1.0
  Ni  Ni530  1  0.73862133  0.77725000  0.32960031  1.0
  Ni  Ni531  1  0.07195467  0.27725000  0.36806185  1.0
  Ni  Ni532  1  0.07195467  0.61058333  0.36806185  1.0
  Ni  Ni533  1  0.07195467  0.94391667  0.36806185  1.0
  Ni  Ni534  1  0.40528800  0.27725000  0.36806185  1.0
  Ni  Ni535  1  0.40528800  0.61058333  0.36806185  1.0
  Ni  Ni536  1  0.40528800  0.94391667  0.36806185  1.0
  Ni  Ni537  1  0.73862133  0.27725000  0.36806185  1.0
  Ni  Ni538  1  0.73862133  0.61058333  0.36806185  1.0
  Ni  Ni539  1  0.73862133  0.94391667  0.36806185  1.0
  Ni  Ni540  1  0.26137867  0.05608333  0.31702338  1.0
  Ni  Ni541  1  0.26137867  0.38941667  0.31702338  1.0
  Ni  Ni542  1  0.26137867  0.72275000  0.31702338  1.0
  Ni  Ni543  1  0.59471200  0.05608333  0.31702338  1.0
  Ni  Ni544  1  0.59471200  0.38941667  0.31702338  1.0
  Ni  Ni545  1  0.59471200  0.72275000  0.31702338  1.0
  Ni  Ni546  1  0.92804533  0.05608333  0.31702338  1.0
  Ni  Ni547  1  0.92804533  0.38941667  0.31702338  1.0
  Ni  Ni548  1  0.92804533  0.72275000  0.31702338  1.0
  Ni  Ni549  1  0.26137867  0.22275000  0.35548492  1.0
  Ni  Ni550  1  0.26137867  0.55608333  0.35548492  1.0
  Ni  Ni551  1  0.26137867  0.88941667  0.35548492  1.0
  Ni  Ni552  1  0.59471200  0.22275000  0.35548492  1.0
  Ni  Ni553  1  0.59471200  0.55608333  0.35548492  1.0
  Ni  Ni554  1  0.59471200  0.88941667  0.35548492  1.0
  Ni  Ni555  1  0.92804533  0.22275000  0.35548492  1.0
  Ni  Ni556  1  0.92804533  0.55608333  0.35548492  1.0
  Ni  Ni557  1  0.92804533  0.88941667  0.35548492  1.0
  Sn  Sn558  1  0.14275700  0.05209283  0.31610250  1.0
  Sn  Sn559  1  0.14275700  0.38542617  0.31610250  1.0
  Sn  Sn560  1  0.14275700  0.71875950  0.31610250  1.0
  Sn  Sn561  1  0.47609033  0.05209283  0.31610250  1.0
  Sn  Sn562  1  0.47609033  0.38542617  0.31610250  1.0
  Sn  Sn563  1  0.47609033  0.71875950  0.31610250  1.0
  Sn  Sn564  1  0.80942367  0.05209283  0.31610250  1.0
  Sn  Sn565  1  0.80942367  0.38542617  0.31610250  1.0
  Sn  Sn566  1  0.80942367  0.71875950  0.31610250  1.0
  Sn  Sn567  1  0.14275700  0.21875950  0.35456404  1.0
  Sn  Sn568  1  0.14275700  0.55209283  0.35456404  1.0
  Sn  Sn569  1  0.14275700  0.88542617  0.35456404  1.0
  Sn  Sn570  1  0.47609033  0.21875950  0.35456404  1.0
  Sn  Sn571  1  0.47609033  0.55209283  0.35456404  1.0
  Sn  Sn572  1  0.47609033  0.88542617  0.35456404  1.0
  Sn  Sn573  1  0.80942367  0.21875950  0.35456404  1.0
  Sn  Sn574  1  0.80942367  0.55209283  0.35456404  1.0
  Sn  Sn575  1  0.80942367  0.88542617  0.35456404  1.0
  Sn  Sn576  1  0.19057633  0.11457383  0.33052119  1.0
  Sn  Sn577  1  0.19057633  0.44790717  0.33052119  1.0
  Sn  Sn578  1  0.19057633  0.78124050  0.33052119  1.0
  Sn  Sn579  1  0.52390967  0.11457383  0.33052119  1.0
  Sn  Sn580  1  0.52390967  0.44790717  0.33052119  1.0
  Sn  Sn581  1  0.52390967  0.78124050  0.33052119  1.0
  Sn  Sn582  1  0.85724300  0.11457383  0.33052119  1.0
  Sn  Sn583  1  0.85724300  0.44790717  0.33052119  1.0
  Sn  Sn584  1  0.85724300  0.78124050  0.33052119  1.0
  Sn  Sn585  1  0.19057633  0.28124050  0.36898273  1.0
  Sn  Sn586  1  0.19057633  0.61457383  0.36898273  1.0
  Sn  Sn587  1  0.19057633  0.94790717  0.36898273  1.0
  Sn  Sn588  1  0.52390967  0.28124050  0.36898273  1.0
  Sn  Sn589  1  0.52390967  0.61457383  0.36898273  1.0
  Sn  Sn590  1  0.52390967  0.94790717  0.36898273  1.0
  Sn  Sn591  1  0.85724300  0.28124050  0.36898273  1.0
  Sn  Sn592  1  0.85724300  0.61457383  0.36898273  1.0
  Sn  Sn593  1  0.85724300  0.94790717  0.36898273  1.0
  Sn  Sn594  1  0.05727600  0.03129733  0.31130354  1.0
  Sn  Sn595  1  0.05727600  0.36463067  0.31130354  1.0
  Sn  Sn596  1  0.05727600  0.69796400  0.31130354  1.0
  Sn  Sn597  1  0.39060933  0.03129733  0.31130354  1.0
  Sn  Sn598  1  0.39060933  0.36463067  0.31130354  1.0
  Sn  Sn599  1  0.39060933  0.69796400  0.31130354  1.0
  Sn  Sn600  1  0.72394267  0.03129733  0.31130354  1.0
  Sn  Sn601  1  0.72394267  0.36463067  0.31130354  1.0
  Sn  Sn602  1  0.72394267  0.69796400  0.31130354  1.0
  Sn  Sn603  1  0.05727600  0.19796400  0.34976508  1.0
  Sn  Sn604  1  0.05727600  0.53129733  0.34976508  1.0
  Sn  Sn605  1  0.05727600  0.86463067  0.34976508  1.0
  Sn  Sn606  1  0.39060933  0.19796400  0.34976508  1.0
  Sn  Sn607  1  0.39060933  0.53129733  0.34976508  1.0
  Sn  Sn608  1  0.39060933  0.86463067  0.34976508  1.0
  Sn  Sn609  1  0.72394267  0.19796400  0.34976508  1.0
  Sn  Sn610  1  0.72394267  0.53129733  0.34976508  1.0
  Sn  Sn611  1  0.72394267  0.86463067  0.34976508  1.0
  Sn  Sn612  1  0.27605733  0.13536933  0.33532015  1.0
  Sn  Sn613  1  0.27605733  0.46870267  0.33532015  1.0
  Sn  Sn614  1  0.27605733  0.80203600  0.33532015  1.0
  Sn  Sn615  1  0.60939067  0.13536933  0.33532015  1.0
  Sn  Sn616  1  0.60939067  0.46870267  0.33532015  1.0
  Sn  Sn617  1  0.60939067  0.80203600  0.33532015  1.0
  Sn  Sn618  1  0.94272400  0.13536933  0.33532015  1.0
  Sn  Sn619  1  0.94272400  0.46870267  0.33532015  1.0
  Sn  Sn620  1  0.94272400  0.80203600  0.33532015  1.0
  Sn  Sn621  1  0.27605733  0.30203600  0.37378169  1.0
  Sn  Sn622  1  0.27605733  0.63536933  0.37378169  1.0
  Sn  Sn623  1  0.27605733  0.96870267  0.37378169  1.0
  Sn  Sn624  1  0.60939067  0.30203600  0.37378169  1.0
  Sn  Sn625  1  0.60939067  0.63536933  0.37378169  1.0
  Sn  Sn626  1  0.60939067  0.96870267  0.37378169  1.0
  Sn  Sn627  1  0.94272400  0.30203600  0.37378169  1.0
  Sn  Sn628  1  0.94272400  0.63536933  0.37378169  1.0
  Sn  Sn629  1  0.94272400  0.96870267  0.37378169  1.0
