# generated using pymatgen
data_Ni3Sn
_symmetry_space_group_name_H-M   'P 1'
_cell_length_a   12.73698300
_cell_length_b   13.68783300
_cell_length_c   26.56664500
_cell_angle_alpha   90.00000000
_cell_angle_beta   90.00000000
_cell_angle_gamma   90.00000000
_symmetry_Int_Tables_number   1
_chemical_formula_structural   Ni3Sn
_chemical_formula_sum   'Ni108 Sn36'
_cell_volume   4631.67395238
_cell_formula_units_Z   36
loop_
 _symmetry_equiv_pos_site_id
 _symmetry_equiv_pos_as_xyz
  1  'x, y, z'
loop_
 _atom_site_type_symbol
 _atom_site_label
 _atom_site_symmetry_multiplicity
 _atom_site_fract_x
 _atom_site_fract_y
 _atom_site_fract_z
 _atom_site_occupancy
  Ni  Ni0  1  0.16666667  0.27849067  0.12468810  1.0
  Ni  Ni1  1  0.16666667  0.61182400  0.12468810  1.0
  Ni  Ni2  1  0.16666667  0.94515733  0.12468810  1.0
  Ni  Ni3  1  0.50000000  0.27849067  0.12468810  1.0
  Ni  Ni4  1  0.50000000  0.61182400  0.12468810  1.0
  Ni  Ni5  1  0.50000000  0.94515733  0.12468810  1.0
  Ni  Ni6  1  0.83333333  0.27849067  0.12468810  1.0
  Ni  Ni7  1  0.83333333  0.61182400  0.12468810  1.0
  Ni  Ni8  1  0.83333333  0.94515733  0.12468810  1.0
  Ni  Ni9  1  0.16666667  0.27849067  0.02593570  1.0
  Ni  Ni10  1  0.16666667  0.61182400  0.02593570  1.0
  Ni  Ni11  1  0.16666667  0.94515733  0.02593570  1.0
  Ni  Ni12  1  0.50000000  0.27849067  0.02593570  1.0
  Ni  Ni13  1  0.50000000  0.61182400  0.02593570  1.0
  Ni  Ni14  1  0.50000000  0.94515733  0.02593570  1.0
  Ni  Ni15  1  0.83333333  0.27849067  0.02593570  1.0
  Ni  Ni16  1  0.83333333  0.61182400  0.02593570  1.0
  Ni  Ni17  1  0.83333333  0.94515733  0.02593570  1.0
  Ni  Ni18  1  0.00000000  0.05484267  0.12593570  1.0
  Ni  Ni19  1  0.00000000  0.38817600  0.12593570  1.0
  Ni  Ni20  1  0.00000000  0.72150933  0.12593570  1.0
  Ni  Ni21  1  0.33333333  0.05484267  0.12593570  1.0
  Ni  Ni22  1  0.33333333  0.38817600  0.12593570  1.0
  Ni  Ni23  1  0.33333333  0.72150933  0.12593570  1.0
  Ni  Ni24  1  0.66666667  0.05484267  0.12593570  1.0
  Ni  Ni25  1  0.66666667  0.38817600  0.12593570  1.0
  Ni  Ni26  1  0.66666667  0.72150933  0.12593570  1.0
  Ni  Ni27  1  0.00000000  0.05484267  0.02468810  1.0
  Ni  Ni28  1  0.00000000  0.38817600  0.02468810  1.0
  Ni  Ni29  1  0.00000000  0.72150933  0.02468810  1.0
  Ni  Ni30  1  0.33333333  0.05484267  0.02468810  1.0
  Ni  Ni31  1  0.33333333  0.38817600  0.02468810  1.0
  Ni  Ni32  1  0.33333333  0.72150933  0.02468810  1.0
  Ni  Ni33  1  0.66666667  0.05484267  0.02468810  1.0
  Ni  Ni34  1  0.66666667  0.38817600  0.02468810  1.0
  Ni  Ni35  1  0.66666667  0.72150933  0.02468810  1.0
  Ni  Ni36  1  0.00000000  0.23071700  0.07531190  1.0
  Ni  Ni37  1  0.00000000  0.56405033  0.07531190  1.0
  Ni  Ni38  1  0.00000000  0.89738367  0.07531190  1.0
  Ni  Ni39  1  0.33333333  0.23071700  0.07531190  1.0
  Ni  Ni40  1  0.33333333  0.56405033  0.07531190  1.0
  Ni  Ni41  1  0.33333333  0.89738367  0.07531190  1.0
  Ni  Ni42  1  0.66666667  0.23071700  0.07531190  1.0
  Ni  Ni43  1  0.66666667  0.56405033  0.07531190  1.0
  Ni  Ni44  1  0.66666667  0.89738367  0.07531190  1.0
  Ni  Ni45  1  0.16666667  0.10261633  0.17531190  1.0
  Ni  Ni46  1  0.16666667  0.43594967  0.17531190  1.0
  Ni  Ni47  1  0.16666667  0.76928300  0.17531190  1.0
  Ni  Ni48  1  0.50000000  0.10261633  0.17531190  1.0
  Ni  Ni49  1  0.50000000  0.43594967  0.17531190  1.0
  Ni  Ni50  1  0.50000000  0.76928300  0.17531190  1.0
  Ni  Ni51  1  0.83333333  0.10261633  0.17531190  1.0
  Ni  Ni52  1  0.83333333  0.43594967  0.17531190  1.0
  Ni  Ni53  1  0.83333333  0.76928300  0.17531190  1.0
  Sn  Sn54  1  0.16666667  0.11125300  0.07531190  1.0
  Sn  Sn55  1  0.16666667  0.44458633  0.07531190  1.0
  Sn  Sn56  1  0.16666667  0.77791967  0.07531190  1.0
  Sn  Sn57  1  0.50000000  0.11125300  0.07531190  1.0
  Sn  Sn58  1  0.50000000  0.44458633  0.07531190  1.0
  Sn  Sn59  1  0.50000000  0.77791967  0.07531190  1.0
  Sn  Sn60  1  0.83333333  0.11125300  0.07531190  1.0
  Sn  Sn61  1  0.83333333  0.44458633  0.07531190  1.0
  Sn  Sn62  1  0.83333333  0.77791967  0.07531190  1.0
  Sn  Sn63  1  0.00000000  0.22208033  0.17531190  1.0
  Sn  Sn64  1  0.00000000  0.55541367  0.17531190  1.0
  Sn  Sn65  1  0.00000000  0.88874700  0.17531190  1.0
  Sn  Sn66  1  0.33333333  0.22208033  0.17531190  1.0
  Sn  Sn67  1  0.33333333  0.55541367  0.17531190  1.0
  Sn  Sn68  1  0.33333333  0.88874700  0.17531190  1.0
  Sn  Sn69  1  0.66666667  0.22208033  0.17531190  1.0
  Sn  Sn70  1  0.66666667  0.55541367  0.17531190  1.0
  Sn  Sn71  1  0.66666667  0.88874700  0.17531190  1.0
  Ni  Ni72  1  0.16666667  0.27849067  0.32468810  1.0
  Ni  Ni73  1  0.16666667  0.61182400  0.32468810  1.0
  Ni  Ni74  1  0.16666667  0.94515733  0.32468810  1.0
  Ni  Ni75  1  0.50000000  0.27849067  0.32468810  1.0
  Ni  Ni76  1  0.50000000  0.61182400  0.32468810  1.0
  Ni  Ni77  1  0.50000000  0.94515733  0.32468810  1.0
  Ni  Ni78  1  0.83333333  0.27849067  0.32468810  1.0
  Ni  Ni79  1  0.83333333  0.61182400  0.32468810  1.0
  Ni  Ni80  1  0.83333333  0.94515733  0.32468810  1.0
  Ni  Ni81  1  0.16666667  0.27849067  0.22593570  1.0
  Ni  Ni82  1  0.16666667  0.61182400  0.22593570  1.0
  Ni  Ni83  1  0.16666667  0.94515733  0.22593570  1.0
  Ni  Ni84  1  0.50000000  0.27849067  0.22593570  1.0
  Ni  Ni85  1  0.50000000  0.61182400  0.22593570  1.0
  Ni  Ni86  1  0.50000000  0.94515733  0.22593570  1.0
  Ni  Ni87  1  0.83333333  0.27849067  0.22593570  1.0
  Ni  Ni88  1  0.83333333  0.61182400  0.22593570  1.0
  Ni  Ni89  1  0.83333333  0.94515733  0.22593570  1.0
  Ni  Ni90  1  0.00000000  0.05484267  0.32593570  1.0
  Ni  Ni91  1  0.00000000  0.38817600  0.32593570  1.0
  Ni  Ni92  1  0.00000000  0.72150933  0.32593570  1.0
  Ni  Ni93  1  0.33333333  0.05484267  0.32593570  1.0
  Ni  Ni94  1  0.33333333  0.38817600  0.32593570  1.0
  Ni  Ni95  1  0.33333333  0.72150933  0.32593570  1.0
  Ni  Ni96  1  0.66666667  0.05484267  0.32593570  1.0
  Ni  Ni97  1  0.66666667  0.38817600  0.32593570  1.0
  Ni  Ni98  1  0.66666667  0.72150933  0.32593570  1.0
  Ni  Ni99  1  0.00000000  0.05484267  0.22468810  1.0
  Ni  Ni100  1  0.00000000  0.38817600  0.22468810  1.0
  Ni  Ni101  1  0.00000000  0.72150933  0.22468810  1.0
  Ni  Ni102  1  0.33333333  0.05484267  0.22468810  1.0
  Ni  Ni103  1  0.33333333  0.38817600  0.22468810  1.0
  Ni  Ni104  1  0.33333333  0.72150933  0.22468810  1.0
  Ni  Ni105  1  0.66666667  0.05484267  0.22468810  1.0
  Ni  Ni106  1  0.66666667  0.38817600  0.22468810  1.0
  Ni  Ni107  1  0.66666667  0.72150933  0.22468810  1.0
  Ni  Ni108  1  0.00000000  0.23071700  0.27531190  1.0
  Ni  Ni109  1  0.00000000  0.56405033  0.27531190  1.0
  Ni  Ni110  1  0.00000000  0.89738367  0.27531190  1.0
  Ni  Ni111  1  0.33333333  0.23071700  0.27531190  1.0
  Ni  Ni112  1  0.33333333  0.56405033  0.27531190  1.0
  Ni  Ni113  1  0.33333333  0.89738367  0.27531190  1.0
  Ni  Ni114  1  0.66666667  0.23071700  0.27531190  1.0
  Ni  Ni115  1  0.66666667  0.56405033  0.27531190  1.0
  Ni  Ni116  1  0.66666667  0.89738367  0.27531190  1.0
  Ni  Ni117  1  0.16666667  0.10261633  0.37531190  1.0
  Ni  Ni118  1  0.16666667  0.43594967  0.37531190  1.0
  Ni  Ni119  1  0.16666667  0.76928300  0.37531190  1.0
  Ni  Ni120  1  0.50000000  0.10261633  0.37531190  1.0
  Ni  Ni121  1  0.50000000  0.43594967  0.37531190  1.0
  Ni  Ni122  1  0.50000000  0.76928300  0.37531190  1.0
  Ni  Ni123  1  0.83333333  0.10261633  0.37531190  1.0
  Ni  Ni124  1  0.83333333  0.43594967  0.37531190  1.0
  Ni  Ni125  1  0.83333333  0.76928300  0.37531190  1.0
  Sn  Sn126  1  0.16666667  0.11125300  0.27531190  1.0
  Sn  Sn127  1  0.16666667  0.44458633  0.27531190  1.0
  Sn  Sn128  1  0.16666667  0.77791967  0.27531190  1.0
  Sn  Sn129  1  0.50000000  0.11125300  0.27531190  1.0
  Sn  Sn130  1  0.50000000  0.44458633  0.27531190  1.0
  Sn  Sn131  1  0.50000000  0.77791967  0.27531190  1.0
  Sn  Sn132  1  0.83333333  0.11125300  0.27531190  1.0
  Sn  Sn133  1  0.83333333  0.44458633  0.27531190  1.0
  Sn  Sn134  1  0.83333333  0.77791967  0.27531190  1.0
  Sn  Sn135  1  0.00000000  0.22208033  0.37531190  1.0
  Sn  Sn136  1  0.00000000  0.55541367  0.37531190  1.0
  Sn  Sn137  1  0.00000000  0.88874700  0.37531190  1.0
  Sn  Sn138  1  0.33333333  0.22208033  0.37531190  1.0
  Sn  Sn139  1  0.33333333  0.55541367  0.37531190  1.0
  Sn  Sn140  1  0.33333333  0.88874700  0.37531190  1.0
  Sn  Sn141  1  0.66666667  0.22208033  0.37531190  1.0
  Sn  Sn142  1  0.66666667  0.55541367  0.37531190  1.0
  Sn  Sn143  1  0.66666667  0.88874700  0.37531190  1.0
