# generated using pymatgen
data_Ni3Sn
_symmetry_space_group_name_H-M   'P 1'
_cell_length_a   18.69725938
_cell_length_b   34.33021232
_cell_length_c   42.45661000
_cell_angle_alpha   111.77815539
_cell_angle_beta   132.93920242
_cell_angle_gamma   75.36012680
_symmetry_Int_Tables_number   1
_chemical_formula_structural   Ni3Sn
_chemical_formula_sum   'Ni432 Sn144'
_cell_volume   18526.69580953
_cell_formula_units_Z   144
loop_
 _symmetry_equiv_pos_site_id
 _symmetry_equiv_pos_as_xyz
  1  'x, y, z'
loop_
 _atom_site_type_symbol
 _atom_site_label
 _atom_site_symmetry_multiplicity
 _atom_site_fract_x
 _atom_site_fract_y
 _atom_site_fract_z
 _atom_site_occupancy
  Ni  Ni0  1  0.27849067  0.12448017  0.06464892  1.0
  Ni  Ni1  1  0.27849067  0.45781350  0.06464892  1.0
  Ni  Ni2  1  0.27849067  0.79114683  0.06464892  1.0
  Ni  Ni3  1  0.61182400  0.12448017  0.06464892  1.0
  Ni  Ni4  1  0.61182400  0.45781350  0.06464893  1.0
  Ni  Ni5  1  0.61182400  0.79114683  0.06464892  1.0
  Ni  Ni6  1  0.94515733  0.12448017  0.06464892  1.0
  Ni  Ni7  1  0.94515733  0.45781350  0.06464892  1.0
  Ni  Ni8  1  0.94515733  0.79114683  0.06464893  1.0
  Ni  Ni9  1  0.27849067  0.29114683  0.01464893  1.0
  Ni  Ni10  1  0.27849067  0.62448017  0.01464892  1.0
  Ni  Ni11  1  0.27849067  0.95781350  0.01464892  1.0
  Ni  Ni12  1  0.61182400  0.29114683  0.01464892  1.0
  Ni  Ni13  1  0.61182400  0.62448017  0.01464893  1.0
  Ni  Ni14  1  0.61182400  0.95781350  0.01464892  1.0
  Ni  Ni15  1  0.94515733  0.29114683  0.01464893  1.0
  Ni  Ni16  1  0.94515733  0.62448017  0.01464892  1.0
  Ni  Ni17  1  0.94515733  0.95781350  0.01464893  1.0
  Ni  Ni18  1  0.27849067  0.04218650  0.03996083  1.0
  Ni  Ni19  1  0.27849067  0.37551983  0.03996083  1.0
  Ni  Ni20  1  0.27849067  0.70885317  0.03996082  1.0
  Ni  Ni21  1  0.61182400  0.04218650  0.03996083  1.0
  Ni  Ni22  1  0.61182400  0.37551983  0.03996083  1.0
  Ni  Ni23  1  0.61182400  0.70885317  0.03996082  1.0
  Ni  Ni24  1  0.94515733  0.04218650  0.03996082  1.0
  Ni  Ni25  1  0.94515733  0.37551983  0.03996082  1.0
  Ni  Ni26  1  0.94515733  0.70885317  0.03996082  1.0
  Ni  Ni27  1  0.27849067  0.20885317  0.08996082  1.0
  Ni  Ni28  1  0.27849067  0.54218650  0.08996082  1.0
  Ni  Ni29  1  0.27849067  0.87551983  0.08996082  1.0
  Ni  Ni30  1  0.61182400  0.20885317  0.08996082  1.0
  Ni  Ni31  1  0.61182400  0.54218650  0.08996082  1.0
  Ni  Ni32  1  0.61182400  0.87551983  0.08996082  1.0
  Ni  Ni33  1  0.94515733  0.20885317  0.08996082  1.0
  Ni  Ni34  1  0.94515733  0.54218650  0.08996082  1.0
  Ni  Ni35  1  0.94515733  0.87551983  0.08996082  1.0
  Ni  Ni36  1  0.05484267  0.12551983  0.04786642  1.0
  Ni  Ni37  1  0.05484267  0.45885317  0.04786642  1.0
  Ni  Ni38  1  0.05484267  0.79218650  0.04786642  1.0
  Ni  Ni39  1  0.38817600  0.12551983  0.04786642  1.0
  Ni  Ni40  1  0.38817600  0.45885317  0.04786642  1.0
  Ni  Ni41  1  0.38817600  0.79218650  0.04786642  1.0
  Ni  Ni42  1  0.72150933  0.12551983  0.04786642  1.0
  Ni  Ni43  1  0.72150933  0.45885317  0.04786642  1.0
  Ni  Ni44  1  0.72150933  0.79218650  0.04786642  1.0
  Ni  Ni45  1  0.05484267  0.29218650  0.09786643  1.0
  Ni  Ni46  1  0.05484267  0.62551983  0.09786643  1.0
  Ni  Ni47  1  0.05484267  0.95885317  0.09786642  1.0
  Ni  Ni48  1  0.38817600  0.29218650  0.09786643  1.0
  Ni  Ni49  1  0.38817600  0.62551983  0.09786642  1.0
  Ni  Ni50  1  0.38817600  0.95885317  0.09786642  1.0
  Ni  Ni51  1  0.72150933  0.29218650  0.09786643  1.0
  Ni  Ni52  1  0.72150933  0.62551983  0.09786642  1.0
  Ni  Ni53  1  0.72150933  0.95885317  0.09786642  1.0
  Ni  Ni54  1  0.05484267  0.04114683  0.02255452  1.0
  Ni  Ni55  1  0.05484267  0.37448017  0.02255452  1.0
  Ni  Ni56  1  0.05484267  0.70781350  0.02255452  1.0
  Ni  Ni57  1  0.38817600  0.04114683  0.02255452  1.0
  Ni  Ni58  1  0.38817600  0.37448017  0.02255452  1.0
  Ni  Ni59  1  0.38817600  0.70781350  0.02255452  1.0
  Ni  Ni60  1  0.72150933  0.04114683  0.02255452  1.0
  Ni  Ni61  1  0.72150933  0.37448017  0.02255452  1.0
  Ni  Ni62  1  0.72150933  0.70781350  0.02255452  1.0
  Ni  Ni63  1  0.05484267  0.20781350  0.07255452  1.0
  Ni  Ni64  1  0.05484267  0.54114683  0.07255452  1.0
  Ni  Ni65  1  0.05484267  0.87448017  0.07255453  1.0
  Ni  Ni66  1  0.38817600  0.20781350  0.07255452  1.0
  Ni  Ni67  1  0.38817600  0.54114683  0.07255452  1.0
  Ni  Ni68  1  0.38817600  0.87448017  0.07255452  1.0
  Ni  Ni69  1  0.72150933  0.20781350  0.07255453  1.0
  Ni  Ni70  1  0.72150933  0.54114683  0.07255452  1.0
  Ni  Ni71  1  0.72150933  0.87448017  0.07255453  1.0
  Ni  Ni72  1  0.23071700  0.08333333  0.08797277  1.0
  Ni  Ni73  1  0.23071700  0.41666667  0.08797277  1.0
  Ni  Ni74  1  0.23071700  0.75000000  0.08797277  1.0
  Ni  Ni75  1  0.56405033  0.08333333  0.08797277  1.0
  Ni  Ni76  1  0.56405033  0.41666667  0.08797278  1.0
  Ni  Ni77  1  0.56405033  0.75000000  0.08797277  1.0
  Ni  Ni78  1  0.89738367  0.08333333  0.08797278  1.0
  Ni  Ni79  1  0.89738367  0.41666667  0.08797277  1.0
  Ni  Ni80  1  0.89738367  0.75000000  0.08797278  1.0
  Ni  Ni81  1  0.23071700  0.25000000  0.03797278  1.0
  Ni  Ni82  1  0.23071700  0.58333333  0.03797278  1.0
  Ni  Ni83  1  0.23071700  0.91666667  0.03797278  1.0
  Ni  Ni84  1  0.56405033  0.25000000  0.03797278  1.0
  Ni  Ni85  1  0.56405033  0.58333333  0.03797278  1.0
  Ni  Ni86  1  0.56405033  0.91666667  0.03797278  1.0
  Ni  Ni87  1  0.89738367  0.25000000  0.03797278  1.0
  Ni  Ni88  1  0.89738367  0.58333333  0.03797277  1.0
  Ni  Ni89  1  0.89738367  0.91666667  0.03797277  1.0
  Ni  Ni90  1  0.10261633  0.00000000  0.07454257  1.0
  Ni  Ni91  1  0.10261633  0.33333333  0.07454257  1.0
  Ni  Ni92  1  0.10261633  0.66666667  0.07454257  1.0
  Ni  Ni93  1  0.43594967  0.00000000  0.07454257  1.0
  Ni  Ni94  1  0.43594967  0.33333333  0.07454257  1.0
  Ni  Ni95  1  0.43594967  0.66666667  0.07454257  1.0
  Ni  Ni96  1  0.76928300  0.00000000  0.07454258  1.0
  Ni  Ni97  1  0.76928300  0.33333333  0.07454258  1.0
  Ni  Ni98  1  0.76928300  0.66666667  0.07454257  1.0
  Ni  Ni99  1  0.10261633  0.16666667  0.02454257  1.0
  Ni  Ni100  1  0.10261633  0.50000000  0.02454257  1.0
  Ni  Ni101  1  0.10261633  0.83333333  0.02454257  1.0
  Ni  Ni102  1  0.43594967  0.16666667  0.02454257  1.0
  Ni  Ni103  1  0.43594967  0.50000000  0.02454257  1.0
  Ni  Ni104  1  0.43594967  0.83333333  0.02454257  1.0
  Ni  Ni105  1  0.76928300  0.16666667  0.02454257  1.0
  Ni  Ni106  1  0.76928300  0.50000000  0.02454257  1.0
  Ni  Ni107  1  0.76928300  0.83333333  0.02454258  1.0
  Sn  Sn108  1  0.11125300  0.08333333  0.00213358  1.0
  Sn  Sn109  1  0.11125300  0.41666667  0.00213357  1.0
  Sn  Sn110  1  0.11125300  0.75000000  0.00213357  1.0
  Sn  Sn111  1  0.44458633  0.08333333  0.00213358  1.0
  Sn  Sn112  1  0.44458633  0.41666667  0.00213358  1.0
  Sn  Sn113  1  0.44458633  0.75000000  0.00213357  1.0
  Sn  Sn114  1  0.77791967  0.08333333  0.00213357  1.0
  Sn  Sn115  1  0.77791967  0.41666667  0.00213357  1.0
  Sn  Sn116  1  0.77791967  0.75000000  0.00213357  1.0
  Sn  Sn117  1  0.11125300  0.25000000  0.05213358  1.0
  Sn  Sn118  1  0.11125300  0.58333333  0.05213357  1.0
  Sn  Sn119  1  0.11125300  0.91666667  0.05213357  1.0
  Sn  Sn120  1  0.44458633  0.25000000  0.05213358  1.0
  Sn  Sn121  1  0.44458633  0.58333333  0.05213357  1.0
  Sn  Sn122  1  0.44458633  0.91666667  0.05213357  1.0
  Sn  Sn123  1  0.77791967  0.25000000  0.05213358  1.0
  Sn  Sn124  1  0.77791967  0.58333333  0.05213357  1.0
  Sn  Sn125  1  0.77791967  0.91666667  0.05213358  1.0
  Sn  Sn126  1  0.22208033  0.00000000  0.06038177  1.0
  Sn  Sn127  1  0.22208033  0.33333333  0.06038177  1.0
  Sn  Sn128  1  0.22208033  0.66666667  0.06038177  1.0
  Sn  Sn129  1  0.55541367  0.00000000  0.06038177  1.0
  Sn  Sn130  1  0.55541367  0.33333333  0.06038177  1.0
  Sn  Sn131  1  0.55541367  0.66666667  0.06038178  1.0
  Sn  Sn132  1  0.88874700  0.00000000  0.06038177  1.0
  Sn  Sn133  1  0.88874700  0.33333333  0.06038177  1.0
  Sn  Sn134  1  0.88874700  0.66666667  0.06038177  1.0
  Sn  Sn135  1  0.22208033  0.16666667  0.01038177  1.0
  Sn  Sn136  1  0.22208033  0.50000000  0.01038177  1.0
  Sn  Sn137  1  0.22208033  0.83333333  0.01038177  1.0
  Sn  Sn138  1  0.55541367  0.16666667  0.01038177  1.0
  Sn  Sn139  1  0.55541367  0.50000000  0.01038177  1.0
  Sn  Sn140  1  0.55541367  0.83333333  0.01038177  1.0
  Sn  Sn141  1  0.88874700  0.16666667  0.01038177  1.0
  Sn  Sn142  1  0.88874700  0.50000000  0.01038177  1.0
  Sn  Sn143  1  0.88874700  0.83333333  0.01038177  1.0
  Ni  Ni144  1  0.27849067  0.12448017  0.16464893  1.0
  Ni  Ni145  1  0.27849067  0.45781350  0.16464893  1.0
  Ni  Ni146  1  0.27849067  0.79114683  0.16464893  1.0
  Ni  Ni147  1  0.61182400  0.12448017  0.16464892  1.0
  Ni  Ni148  1  0.61182400  0.45781350  0.16464893  1.0
  Ni  Ni149  1  0.61182400  0.79114683  0.16464892  1.0
  Ni  Ni150  1  0.94515733  0.12448017  0.16464892  1.0
  Ni  Ni151  1  0.94515733  0.45781350  0.16464893  1.0
  Ni  Ni152  1  0.94515733  0.79114683  0.16464893  1.0
  Ni  Ni153  1  0.27849067  0.29114683  0.11464893  1.0
  Ni  Ni154  1  0.27849067  0.62448017  0.11464893  1.0
  Ni  Ni155  1  0.27849067  0.95781350  0.11464892  1.0
  Ni  Ni156  1  0.61182400  0.29114683  0.11464892  1.0
  Ni  Ni157  1  0.61182400  0.62448017  0.11464893  1.0
  Ni  Ni158  1  0.61182400  0.95781350  0.11464893  1.0
  Ni  Ni159  1  0.94515733  0.29114683  0.11464893  1.0
  Ni  Ni160  1  0.94515733  0.62448017  0.11464893  1.0
  Ni  Ni161  1  0.94515733  0.95781350  0.11464893  1.0
  Ni  Ni162  1  0.27849067  0.04218650  0.13996083  1.0
  Ni  Ni163  1  0.27849067  0.37551983  0.13996083  1.0
  Ni  Ni164  1  0.27849067  0.70885317  0.13996083  1.0
  Ni  Ni165  1  0.61182400  0.04218650  0.13996083  1.0
  Ni  Ni166  1  0.61182400  0.37551983  0.13996083  1.0
  Ni  Ni167  1  0.61182400  0.70885317  0.13996082  1.0
  Ni  Ni168  1  0.94515733  0.04218650  0.13996083  1.0
  Ni  Ni169  1  0.94515733  0.37551983  0.13996083  1.0
  Ni  Ni170  1  0.94515733  0.70885317  0.13996083  1.0
  Ni  Ni171  1  0.27849067  0.20885317  0.18996082  1.0
  Ni  Ni172  1  0.27849067  0.54218650  0.18996082  1.0
  Ni  Ni173  1  0.27849067  0.87551983  0.18996082  1.0
  Ni  Ni174  1  0.61182400  0.20885317  0.18996082  1.0
  Ni  Ni175  1  0.61182400  0.54218650  0.18996083  1.0
  Ni  Ni176  1  0.61182400  0.87551983  0.18996082  1.0
  Ni  Ni177  1  0.94515733  0.20885317  0.18996082  1.0
  Ni  Ni178  1  0.94515733  0.54218650  0.18996082  1.0
  Ni  Ni179  1  0.94515733  0.87551983  0.18996082  1.0
  Ni  Ni180  1  0.05484267  0.12551983  0.14786642  1.0
  Ni  Ni181  1  0.05484267  0.45885317  0.14786642  1.0
  Ni  Ni182  1  0.05484267  0.79218650  0.14786642  1.0
  Ni  Ni183  1  0.38817600  0.12551983  0.14786642  1.0
  Ni  Ni184  1  0.38817600  0.45885317  0.14786642  1.0
  Ni  Ni185  1  0.38817600  0.79218650  0.14786642  1.0
  Ni  Ni186  1  0.72150933  0.12551983  0.14786642  1.0
  Ni  Ni187  1  0.72150933  0.45885317  0.14786642  1.0
  Ni  Ni188  1  0.72150933  0.79218650  0.14786642  1.0
  Ni  Ni189  1  0.05484267  0.29218650  0.19786643  1.0
  Ni  Ni190  1  0.05484267  0.62551983  0.19786642  1.0
  Ni  Ni191  1  0.05484267  0.95885317  0.19786642  1.0
  Ni  Ni192  1  0.38817600  0.29218650  0.19786642  1.0
  Ni  Ni193  1  0.38817600  0.62551983  0.19786642  1.0
  Ni  Ni194  1  0.38817600  0.95885317  0.19786642  1.0
  Ni  Ni195  1  0.72150933  0.29218650  0.19786642  1.0
  Ni  Ni196  1  0.72150933  0.62551983  0.19786642  1.0
  Ni  Ni197  1  0.72150933  0.95885317  0.19786642  1.0
  Ni  Ni198  1  0.05484267  0.04114683  0.12255452  1.0
  Ni  Ni199  1  0.05484267  0.37448017  0.12255452  1.0
  Ni  Ni200  1  0.05484267  0.70781350  0.12255452  1.0
  Ni  Ni201  1  0.38817600  0.04114683  0.12255452  1.0
  Ni  Ni202  1  0.38817600  0.37448017  0.12255452  1.0
  Ni  Ni203  1  0.38817600  0.70781350  0.12255452  1.0
  Ni  Ni204  1  0.72150933  0.04114683  0.12255452  1.0
  Ni  Ni205  1  0.72150933  0.37448017  0.12255452  1.0
  Ni  Ni206  1  0.72150933  0.70781350  0.12255453  1.0
  Ni  Ni207  1  0.05484267  0.20781350  0.17255453  1.0
  Ni  Ni208  1  0.05484267  0.54114683  0.17255453  1.0
  Ni  Ni209  1  0.05484267  0.87448017  0.17255453  1.0
  Ni  Ni210  1  0.38817600  0.20781350  0.17255453  1.0
  Ni  Ni211  1  0.38817600  0.54114683  0.17255453  1.0
  Ni  Ni212  1  0.38817600  0.87448017  0.17255453  1.0
  Ni  Ni213  1  0.72150933  0.20781350  0.17255453  1.0
  Ni  Ni214  1  0.72150933  0.54114683  0.17255453  1.0
  Ni  Ni215  1  0.72150933  0.87448017  0.17255453  1.0
  Ni  Ni216  1  0.23071700  0.08333333  0.18797277  1.0
  Ni  Ni217  1  0.23071700  0.41666667  0.18797277  1.0
  Ni  Ni218  1  0.23071700  0.75000000  0.18797277  1.0
  Ni  Ni219  1  0.56405033  0.08333333  0.18797277  1.0
  Ni  Ni220  1  0.56405033  0.41666667  0.18797278  1.0
  Ni  Ni221  1  0.56405033  0.75000000  0.18797277  1.0
  Ni  Ni222  1  0.89738367  0.08333333  0.18797278  1.0
  Ni  Ni223  1  0.89738367  0.41666667  0.18797277  1.0
  Ni  Ni224  1  0.89738367  0.75000000  0.18797277  1.0
  Ni  Ni225  1  0.23071700  0.25000000  0.13797277  1.0
  Ni  Ni226  1  0.23071700  0.58333333  0.13797277  1.0
  Ni  Ni227  1  0.23071700  0.91666667  0.13797277  1.0
  Ni  Ni228  1  0.56405033  0.25000000  0.13797277  1.0
  Ni  Ni229  1  0.56405033  0.58333333  0.13797277  1.0
  Ni  Ni230  1  0.56405033  0.91666667  0.13797278  1.0
  Ni  Ni231  1  0.89738367  0.25000000  0.13797277  1.0
  Ni  Ni232  1  0.89738367  0.58333333  0.13797277  1.0
  Ni  Ni233  1  0.89738367  0.91666667  0.13797277  1.0
  Ni  Ni234  1  0.10261633  0.00000000  0.17454257  1.0
  Ni  Ni235  1  0.10261633  0.33333333  0.17454257  1.0
  Ni  Ni236  1  0.10261633  0.66666667  0.17454257  1.0
  Ni  Ni237  1  0.43594967  0.00000000  0.17454257  1.0
  Ni  Ni238  1  0.43594967  0.33333333  0.17454257  1.0
  Ni  Ni239  1  0.43594967  0.66666667  0.17454257  1.0
  Ni  Ni240  1  0.76928300  0.00000000  0.17454257  1.0
  Ni  Ni241  1  0.76928300  0.33333333  0.17454258  1.0
  Ni  Ni242  1  0.76928300  0.66666667  0.17454257  1.0
  Ni  Ni243  1  0.10261633  0.16666667  0.12454258  1.0
  Ni  Ni244  1  0.10261633  0.50000000  0.12454257  1.0
  Ni  Ni245  1  0.10261633  0.83333333  0.12454257  1.0
  Ni  Ni246  1  0.43594967  0.16666667  0.12454257  1.0
  Ni  Ni247  1  0.43594967  0.50000000  0.12454257  1.0
  Ni  Ni248  1  0.43594967  0.83333333  0.12454257  1.0
  Ni  Ni249  1  0.76928300  0.16666667  0.12454257  1.0
  Ni  Ni250  1  0.76928300  0.50000000  0.12454257  1.0
  Ni  Ni251  1  0.76928300  0.83333333  0.12454257  1.0
  Sn  Sn252  1  0.11125300  0.08333333  0.10213358  1.0
  Sn  Sn253  1  0.11125300  0.41666667  0.10213358  1.0
  Sn  Sn254  1  0.11125300  0.75000000  0.10213358  1.0
  Sn  Sn255  1  0.44458633  0.08333333  0.10213358  1.0
  Sn  Sn256  1  0.44458633  0.41666667  0.10213358  1.0
  Sn  Sn257  1  0.44458633  0.75000000  0.10213357  1.0
  Sn  Sn258  1  0.77791967  0.08333333  0.10213358  1.0
  Sn  Sn259  1  0.77791967  0.41666667  0.10213358  1.0
  Sn  Sn260  1  0.77791967  0.75000000  0.10213357  1.0
  Sn  Sn261  1  0.11125300  0.25000000  0.15213358  1.0
  Sn  Sn262  1  0.11125300  0.58333333  0.15213358  1.0
  Sn  Sn263  1  0.11125300  0.91666667  0.15213357  1.0
  Sn  Sn264  1  0.44458633  0.25000000  0.15213358  1.0
  Sn  Sn265  1  0.44458633  0.58333333  0.15213358  1.0
  Sn  Sn266  1  0.44458633  0.91666667  0.15213357  1.0
  Sn  Sn267  1  0.77791967  0.25000000  0.15213358  1.0
  Sn  Sn268  1  0.77791967  0.58333333  0.15213357  1.0
  Sn  Sn269  1  0.77791967  0.91666667  0.15213358  1.0
  Sn  Sn270  1  0.22208033  0.00000000  0.16038178  1.0
  Sn  Sn271  1  0.22208033  0.33333333  0.16038178  1.0
  Sn  Sn272  1  0.22208033  0.66666667  0.16038178  1.0
  Sn  Sn273  1  0.55541367  0.00000000  0.16038178  1.0
  Sn  Sn274  1  0.55541367  0.33333333  0.16038178  1.0
  Sn  Sn275  1  0.55541367  0.66666667  0.16038178  1.0
  Sn  Sn276  1  0.88874700  0.00000000  0.16038178  1.0
  Sn  Sn277  1  0.88874700  0.33333333  0.16038177  1.0
  Sn  Sn278  1  0.88874700  0.66666667  0.16038178  1.0
  Sn  Sn279  1  0.22208033  0.16666667  0.11038177  1.0
  Sn  Sn280  1  0.22208033  0.50000000  0.11038177  1.0
  Sn  Sn281  1  0.22208033  0.83333333  0.11038177  1.0
  Sn  Sn282  1  0.55541367  0.16666667  0.11038177  1.0
  Sn  Sn283  1  0.55541367  0.50000000  0.11038178  1.0
  Sn  Sn284  1  0.55541367  0.83333333  0.11038177  1.0
  Sn  Sn285  1  0.88874700  0.16666667  0.11038177  1.0
  Sn  Sn286  1  0.88874700  0.50000000  0.11038177  1.0
  Sn  Sn287  1  0.88874700  0.83333333  0.11038178  1.0
  Ni  Ni288  1  0.27849067  0.12448017  0.26464893  1.0
  Ni  Ni289  1  0.27849067  0.45781350  0.26464893  1.0
  Ni  Ni290  1  0.27849067  0.79114683  0.26464893  1.0
  Ni  Ni291  1  0.61182400  0.12448017  0.26464893  1.0
  Ni  Ni292  1  0.61182400  0.45781350  0.26464893  1.0
  Ni  Ni293  1  0.61182400  0.79114683  0.26464893  1.0
  Ni  Ni294  1  0.94515733  0.12448017  0.26464892  1.0
  Ni  Ni295  1  0.94515733  0.45781350  0.26464893  1.0
  Ni  Ni296  1  0.94515733  0.79114683  0.26464893  1.0
  Ni  Ni297  1  0.27849067  0.29114683  0.21464893  1.0
  Ni  Ni298  1  0.27849067  0.62448017  0.21464893  1.0
  Ni  Ni299  1  0.27849067  0.95781350  0.21464892  1.0
  Ni  Ni300  1  0.61182400  0.29114683  0.21464892  1.0
  Ni  Ni301  1  0.61182400  0.62448017  0.21464893  1.0
  Ni  Ni302  1  0.61182400  0.95781350  0.21464892  1.0
  Ni  Ni303  1  0.94515733  0.29114683  0.21464893  1.0
  Ni  Ni304  1  0.94515733  0.62448017  0.21464892  1.0
  Ni  Ni305  1  0.94515733  0.95781350  0.21464892  1.0
  Ni  Ni306  1  0.27849067  0.04218650  0.23996082  1.0
  Ni  Ni307  1  0.27849067  0.37551983  0.23996082  1.0
  Ni  Ni308  1  0.27849067  0.70885317  0.23996082  1.0
  Ni  Ni309  1  0.61182400  0.04218650  0.23996082  1.0
  Ni  Ni310  1  0.61182400  0.37551983  0.23996083  1.0
  Ni  Ni311  1  0.61182400  0.70885317  0.23996082  1.0
  Ni  Ni312  1  0.94515733  0.04218650  0.23996082  1.0
  Ni  Ni313  1  0.94515733  0.37551983  0.23996082  1.0
  Ni  Ni314  1  0.94515733  0.70885317  0.23996082  1.0
  Ni  Ni315  1  0.27849067  0.20885317  0.28996082  1.0
  Ni  Ni316  1  0.27849067  0.54218650  0.28996082  1.0
  Ni  Ni317  1  0.27849067  0.87551983  0.28996082  1.0
  Ni  Ni318  1  0.61182400  0.20885317  0.28996082  1.0
  Ni  Ni319  1  0.61182400  0.54218650  0.28996082  1.0
  Ni  Ni320  1  0.61182400  0.87551983  0.28996082  1.0
  Ni  Ni321  1  0.94515733  0.20885317  0.28996082  1.0
  Ni  Ni322  1  0.94515733  0.54218650  0.28996082  1.0
  Ni  Ni323  1  0.94515733  0.87551983  0.28996082  1.0
  Ni  Ni324  1  0.05484267  0.12551983  0.24786643  1.0
  Ni  Ni325  1  0.05484267  0.45885317  0.24786643  1.0
  Ni  Ni326  1  0.05484267  0.79218650  0.24786643  1.0
  Ni  Ni327  1  0.38817600  0.12551983  0.24786643  1.0
  Ni  Ni328  1  0.38817600  0.45885317  0.24786643  1.0
  Ni  Ni329  1  0.38817600  0.79218650  0.24786643  1.0
  Ni  Ni330  1  0.72150933  0.12551983  0.24786643  1.0
  Ni  Ni331  1  0.72150933  0.45885317  0.24786642  1.0
  Ni  Ni332  1  0.72150933  0.79218650  0.24786642  1.0
  Ni  Ni333  1  0.05484267  0.29218650  0.29786643  1.0
  Ni  Ni334  1  0.05484267  0.62551983  0.29786643  1.0
  Ni  Ni335  1  0.05484267  0.95885317  0.29786642  1.0
  Ni  Ni336  1  0.38817600  0.29218650  0.29786643  1.0
  Ni  Ni337  1  0.38817600  0.62551983  0.29786643  1.0
  Ni  Ni338  1  0.38817600  0.95885317  0.29786643  1.0
  Ni  Ni339  1  0.72150933  0.29218650  0.29786643  1.0
  Ni  Ni340  1  0.72150933  0.62551983  0.29786643  1.0
  Ni  Ni341  1  0.72150933  0.95885317  0.29786642  1.0
  Ni  Ni342  1  0.05484267  0.04114683  0.22255453  1.0
  Ni  Ni343  1  0.05484267  0.37448017  0.22255453  1.0
  Ni  Ni344  1  0.05484267  0.70781350  0.22255452  1.0
  Ni  Ni345  1  0.38817600  0.04114683  0.22255453  1.0
  Ni  Ni346  1  0.38817600  0.37448017  0.22255453  1.0
  Ni  Ni347  1  0.38817600  0.70781350  0.22255453  1.0
  Ni  Ni348  1  0.72150933  0.04114683  0.22255453  1.0
  Ni  Ni349  1  0.72150933  0.37448017  0.22255453  1.0
  Ni  Ni350  1  0.72150933  0.70781350  0.22255453  1.0
  Ni  Ni351  1  0.05484267  0.20781350  0.27255452  1.0
  Ni  Ni352  1  0.05484267  0.54114683  0.27255452  1.0
  Ni  Ni353  1  0.05484267  0.87448017  0.27255453  1.0
  Ni  Ni354  1  0.38817600  0.20781350  0.27255452  1.0
  Ni  Ni355  1  0.38817600  0.54114683  0.27255452  1.0
  Ni  Ni356  1  0.38817600  0.87448017  0.27255452  1.0
  Ni  Ni357  1  0.72150933  0.20781350  0.27255453  1.0
  Ni  Ni358  1  0.72150933  0.54114683  0.27255452  1.0
  Ni  Ni359  1  0.72150933  0.87448017  0.27255452  1.0
  Ni  Ni360  1  0.23071700  0.08333333  0.28797278  1.0
  Ni  Ni361  1  0.23071700  0.41666667  0.28797278  1.0
  Ni  Ni362  1  0.23071700  0.75000000  0.28797277  1.0
  Ni  Ni363  1  0.56405033  0.08333333  0.28797278  1.0
  Ni  Ni364  1  0.56405033  0.41666667  0.28797278  1.0
  Ni  Ni365  1  0.56405033  0.75000000  0.28797278  1.0
  Ni  Ni366  1  0.89738367  0.08333333  0.28797278  1.0
  Ni  Ni367  1  0.89738367  0.41666667  0.28797278  1.0
  Ni  Ni368  1  0.89738367  0.75000000  0.28797278  1.0
  Ni  Ni369  1  0.23071700  0.25000000  0.23797278  1.0
  Ni  Ni370  1  0.23071700  0.58333333  0.23797278  1.0
  Ni  Ni371  1  0.23071700  0.91666667  0.23797278  1.0
  Ni  Ni372  1  0.56405033  0.25000000  0.23797278  1.0
  Ni  Ni373  1  0.56405033  0.58333333  0.23797278  1.0
  Ni  Ni374  1  0.56405033  0.91666667  0.23797278  1.0
  Ni  Ni375  1  0.89738367  0.25000000  0.23797278  1.0
  Ni  Ni376  1  0.89738367  0.58333333  0.23797278  1.0
  Ni  Ni377  1  0.89738367  0.91666667  0.23797278  1.0
  Ni  Ni378  1  0.10261633  0.00000000  0.27454258  1.0
  Ni  Ni379  1  0.10261633  0.33333333  0.27454258  1.0
  Ni  Ni380  1  0.10261633  0.66666667  0.27454258  1.0
  Ni  Ni381  1  0.43594967  0.00000000  0.27454258  1.0
  Ni  Ni382  1  0.43594967  0.33333333  0.27454258  1.0
  Ni  Ni383  1  0.43594967  0.66666667  0.27454257  1.0
  Ni  Ni384  1  0.76928300  0.00000000  0.27454258  1.0
  Ni  Ni385  1  0.76928300  0.33333333  0.27454258  1.0
  Ni  Ni386  1  0.76928300  0.66666667  0.27454258  1.0
  Ni  Ni387  1  0.10261633  0.16666667  0.22454258  1.0
  Ni  Ni388  1  0.10261633  0.50000000  0.22454258  1.0
  Ni  Ni389  1  0.10261633  0.83333333  0.22454257  1.0
  Ni  Ni390  1  0.43594967  0.16666667  0.22454258  1.0
  Ni  Ni391  1  0.43594967  0.50000000  0.22454257  1.0
  Ni  Ni392  1  0.43594967  0.83333333  0.22454257  1.0
  Ni  Ni393  1  0.76928300  0.16666667  0.22454257  1.0
  Ni  Ni394  1  0.76928300  0.50000000  0.22454257  1.0
  Ni  Ni395  1  0.76928300  0.83333333  0.22454257  1.0
  Sn  Sn396  1  0.11125300  0.08333333  0.20213358  1.0
  Sn  Sn397  1  0.11125300  0.41666667  0.20213358  1.0
  Sn  Sn398  1  0.11125300  0.75000000  0.20213357  1.0
  Sn  Sn399  1  0.44458633  0.08333333  0.20213358  1.0
  Sn  Sn400  1  0.44458633  0.41666667  0.20213358  1.0
  Sn  Sn401  1  0.44458633  0.75000000  0.20213357  1.0
  Sn  Sn402  1  0.77791967  0.08333333  0.20213357  1.0
  Sn  Sn403  1  0.77791967  0.41666667  0.20213358  1.0
  Sn  Sn404  1  0.77791967  0.75000000  0.20213357  1.0
  Sn  Sn405  1  0.11125300  0.25000000  0.25213357  1.0
  Sn  Sn406  1  0.11125300  0.58333333  0.25213357  1.0
  Sn  Sn407  1  0.11125300  0.91666667  0.25213357  1.0
  Sn  Sn408  1  0.44458633  0.25000000  0.25213357  1.0
  Sn  Sn409  1  0.44458633  0.58333333  0.25213357  1.0
  Sn  Sn410  1  0.44458633  0.91666667  0.25213357  1.0
  Sn  Sn411  1  0.77791967  0.25000000  0.25213357  1.0
  Sn  Sn412  1  0.77791967  0.58333333  0.25213357  1.0
  Sn  Sn413  1  0.77791967  0.91666667  0.25213358  1.0
  Sn  Sn414  1  0.22208033  0.00000000  0.26038178  1.0
  Sn  Sn415  1  0.22208033  0.33333333  0.26038178  1.0
  Sn  Sn416  1  0.22208033  0.66666667  0.26038177  1.0
  Sn  Sn417  1  0.55541367  0.00000000  0.26038178  1.0
  Sn  Sn418  1  0.55541367  0.33333333  0.26038178  1.0
  Sn  Sn419  1  0.55541367  0.66666667  0.26038178  1.0
  Sn  Sn420  1  0.88874700  0.00000000  0.26038177  1.0
  Sn  Sn421  1  0.88874700  0.33333333  0.26038177  1.0
  Sn  Sn422  1  0.88874700  0.66666667  0.26038177  1.0
  Sn  Sn423  1  0.22208033  0.16666667  0.21038177  1.0
  Sn  Sn424  1  0.22208033  0.50000000  0.21038177  1.0
  Sn  Sn425  1  0.22208033  0.83333333  0.21038177  1.0
  Sn  Sn426  1  0.55541367  0.16666667  0.21038177  1.0
  Sn  Sn427  1  0.55541367  0.50000000  0.21038178  1.0
  Sn  Sn428  1  0.55541367  0.83333333  0.21038177  1.0
  Sn  Sn429  1  0.88874700  0.16666667  0.21038177  1.0
  Sn  Sn430  1  0.88874700  0.50000000  0.21038177  1.0
  Sn  Sn431  1  0.88874700  0.83333333  0.21038177  1.0
  Ni  Ni432  1  0.27849067  0.12448017  0.36464893  1.0
  Ni  Ni433  1  0.27849067  0.45781350  0.36464893  1.0
  Ni  Ni434  1  0.27849067  0.79114683  0.36464893  1.0
  Ni  Ni435  1  0.61182400  0.12448017  0.36464893  1.0
  Ni  Ni436  1  0.61182400  0.45781350  0.36464893  1.0
  Ni  Ni437  1  0.61182400  0.79114683  0.36464893  1.0
  Ni  Ni438  1  0.94515733  0.12448017  0.36464892  1.0
  Ni  Ni439  1  0.94515733  0.45781350  0.36464893  1.0
  Ni  Ni440  1  0.94515733  0.79114683  0.36464893  1.0
  Ni  Ni441  1  0.27849067  0.29114683  0.31464893  1.0
  Ni  Ni442  1  0.27849067  0.62448017  0.31464893  1.0
  Ni  Ni443  1  0.27849067  0.95781350  0.31464892  1.0
  Ni  Ni444  1  0.61182400  0.29114683  0.31464892  1.0
  Ni  Ni445  1  0.61182400  0.62448017  0.31464893  1.0
  Ni  Ni446  1  0.61182400  0.95781350  0.31464892  1.0
  Ni  Ni447  1  0.94515733  0.29114683  0.31464893  1.0
  Ni  Ni448  1  0.94515733  0.62448017  0.31464893  1.0
  Ni  Ni449  1  0.94515733  0.95781350  0.31464893  1.0
  Ni  Ni450  1  0.27849067  0.04218650  0.33996083  1.0
  Ni  Ni451  1  0.27849067  0.37551983  0.33996083  1.0
  Ni  Ni452  1  0.27849067  0.70885317  0.33996082  1.0
  Ni  Ni453  1  0.61182400  0.04218650  0.33996083  1.0
  Ni  Ni454  1  0.61182400  0.37551983  0.33996083  1.0
  Ni  Ni455  1  0.61182400  0.70885317  0.33996082  1.0
  Ni  Ni456  1  0.94515733  0.04218650  0.33996082  1.0
  Ni  Ni457  1  0.94515733  0.37551983  0.33996082  1.0
  Ni  Ni458  1  0.94515733  0.70885317  0.33996082  1.0
  Ni  Ni459  1  0.27849067  0.20885317  0.38996082  1.0
  Ni  Ni460  1  0.27849067  0.54218650  0.38996082  1.0
  Ni  Ni461  1  0.27849067  0.87551983  0.38996082  1.0
  Ni  Ni462  1  0.61182400  0.20885317  0.38996082  1.0
  Ni  Ni463  1  0.61182400  0.54218650  0.38996082  1.0
  Ni  Ni464  1  0.61182400  0.87551983  0.38996082  1.0
  Ni  Ni465  1  0.94515733  0.20885317  0.38996082  1.0
  Ni  Ni466  1  0.94515733  0.54218650  0.38996082  1.0
  Ni  Ni467  1  0.94515733  0.87551983  0.38996082  1.0
  Ni  Ni468  1  0.05484267  0.12551983  0.34786642  1.0
  Ni  Ni469  1  0.05484267  0.45885317  0.34786642  1.0
  Ni  Ni470  1  0.05484267  0.79218650  0.34786642  1.0
  Ni  Ni471  1  0.38817600  0.12551983  0.34786642  1.0
  Ni  Ni472  1  0.38817600  0.45885317  0.34786642  1.0
  Ni  Ni473  1  0.38817600  0.79218650  0.34786642  1.0
  Ni  Ni474  1  0.72150933  0.12551983  0.34786642  1.0
  Ni  Ni475  1  0.72150933  0.45885317  0.34786642  1.0
  Ni  Ni476  1  0.72150933  0.79218650  0.34786642  1.0
  Ni  Ni477  1  0.05484267  0.29218650  0.39786643  1.0
  Ni  Ni478  1  0.05484267  0.62551983  0.39786643  1.0
  Ni  Ni479  1  0.05484267  0.95885317  0.39786642  1.0
  Ni  Ni480  1  0.38817600  0.29218650  0.39786643  1.0
  Ni  Ni481  1  0.38817600  0.62551983  0.39786643  1.0
  Ni  Ni482  1  0.38817600  0.95885317  0.39786643  1.0
  Ni  Ni483  1  0.72150933  0.29218650  0.39786643  1.0
  Ni  Ni484  1  0.72150933  0.62551983  0.39786643  1.0
  Ni  Ni485  1  0.72150933  0.95885317  0.39786642  1.0
  Ni  Ni486  1  0.05484267  0.04114683  0.32255453  1.0
  Ni  Ni487  1  0.05484267  0.37448017  0.32255453  1.0
  Ni  Ni488  1  0.05484267  0.70781350  0.32255452  1.0
  Ni  Ni489  1  0.38817600  0.04114683  0.32255453  1.0
  Ni  Ni490  1  0.38817600  0.37448017  0.32255453  1.0
  Ni  Ni491  1  0.38817600  0.70781350  0.32255452  1.0
  Ni  Ni492  1  0.72150933  0.04114683  0.32255453  1.0
  Ni  Ni493  1  0.72150933  0.37448017  0.32255453  1.0
  Ni  Ni494  1  0.72150933  0.70781350  0.32255453  1.0
  Ni  Ni495  1  0.05484267  0.20781350  0.37255452  1.0
  Ni  Ni496  1  0.05484267  0.54114683  0.37255452  1.0
  Ni  Ni497  1  0.05484267  0.87448017  0.37255452  1.0
  Ni  Ni498  1  0.38817600  0.20781350  0.37255452  1.0
  Ni  Ni499  1  0.38817600  0.54114683  0.37255452  1.0
  Ni  Ni500  1  0.38817600  0.87448017  0.37255452  1.0
  Ni  Ni501  1  0.72150933  0.20781350  0.37255452  1.0
  Ni  Ni502  1  0.72150933  0.54114683  0.37255452  1.0
  Ni  Ni503  1  0.72150933  0.87448017  0.37255452  1.0
  Ni  Ni504  1  0.23071700  0.08333333  0.38797277  1.0
  Ni  Ni505  1  0.23071700  0.41666667  0.38797277  1.0
  Ni  Ni506  1  0.23071700  0.75000000  0.38797277  1.0
  Ni  Ni507  1  0.56405033  0.08333333  0.38797277  1.0
  Ni  Ni508  1  0.56405033  0.41666667  0.38797278  1.0
  Ni  Ni509  1  0.56405033  0.75000000  0.38797277  1.0
  Ni  Ni510  1  0.89738367  0.08333333  0.38797278  1.0
  Ni  Ni511  1  0.89738367  0.41666667  0.38797277  1.0
  Ni  Ni512  1  0.89738367  0.75000000  0.38797277  1.0
  Ni  Ni513  1  0.23071700  0.25000000  0.33797278  1.0
  Ni  Ni514  1  0.23071700  0.58333333  0.33797278  1.0
  Ni  Ni515  1  0.23071700  0.91666667  0.33797278  1.0
  Ni  Ni516  1  0.56405033  0.25000000  0.33797278  1.0
  Ni  Ni517  1  0.56405033  0.58333333  0.33797278  1.0
  Ni  Ni518  1  0.56405033  0.91666667  0.33797278  1.0
  Ni  Ni519  1  0.89738367  0.25000000  0.33797278  1.0
  Ni  Ni520  1  0.89738367  0.58333333  0.33797278  1.0
  Ni  Ni521  1  0.89738367  0.91666667  0.33797278  1.0
  Ni  Ni522  1  0.10261633  0.00000000  0.37454257  1.0
  Ni  Ni523  1  0.10261633  0.33333333  0.37454257  1.0
  Ni  Ni524  1  0.10261633  0.66666667  0.37454257  1.0
  Ni  Ni525  1  0.43594967  0.00000000  0.37454257  1.0
  Ni  Ni526  1  0.43594967  0.33333333  0.37454257  1.0
  Ni  Ni527  1  0.43594967  0.66666667  0.37454257  1.0
  Ni  Ni528  1  0.76928300  0.00000000  0.37454257  1.0
  Ni  Ni529  1  0.76928300  0.33333333  0.37454258  1.0
  Ni  Ni530  1  0.76928300  0.66666667  0.37454257  1.0
  Ni  Ni531  1  0.10261633  0.16666667  0.32454258  1.0
  Ni  Ni532  1  0.10261633  0.50000000  0.32454258  1.0
  Ni  Ni533  1  0.10261633  0.83333333  0.32454257  1.0
  Ni  Ni534  1  0.43594967  0.16666667  0.32454258  1.0
  Ni  Ni535  1  0.43594967  0.50000000  0.32454257  1.0
  Ni  Ni536  1  0.43594967  0.83333333  0.32454257  1.0
  Ni  Ni537  1  0.76928300  0.16666667  0.32454257  1.0
  Ni  Ni538  1  0.76928300  0.50000000  0.32454257  1.0
  Ni  Ni539  1  0.76928300  0.83333333  0.32454257  1.0
  Sn  Sn540  1  0.11125300  0.08333333  0.30213358  1.0
  Sn  Sn541  1  0.11125300  0.41666667  0.30213358  1.0
  Sn  Sn542  1  0.11125300  0.75000000  0.30213357  1.0
  Sn  Sn543  1  0.44458633  0.08333333  0.30213358  1.0
  Sn  Sn544  1  0.44458633  0.41666667  0.30213358  1.0
  Sn  Sn545  1  0.44458633  0.75000000  0.30213357  1.0
  Sn  Sn546  1  0.77791967  0.08333333  0.30213357  1.0
  Sn  Sn547  1  0.77791967  0.41666667  0.30213358  1.0
  Sn  Sn548  1  0.77791967  0.75000000  0.30213357  1.0
  Sn  Sn549  1  0.11125300  0.25000000  0.35213357  1.0
  Sn  Sn550  1  0.11125300  0.58333333  0.35213357  1.0
  Sn  Sn551  1  0.11125300  0.91666667  0.35213357  1.0
  Sn  Sn552  1  0.44458633  0.25000000  0.35213357  1.0
  Sn  Sn553  1  0.44458633  0.58333333  0.35213357  1.0
  Sn  Sn554  1  0.44458633  0.91666667  0.35213357  1.0
  Sn  Sn555  1  0.77791967  0.25000000  0.35213358  1.0
  Sn  Sn556  1  0.77791967  0.58333333  0.35213357  1.0
  Sn  Sn557  1  0.77791967  0.91666667  0.35213357  1.0
  Sn  Sn558  1  0.22208033  0.00000000  0.36038177  1.0
  Sn  Sn559  1  0.22208033  0.33333333  0.36038177  1.0
  Sn  Sn560  1  0.22208033  0.66666667  0.36038177  1.0
  Sn  Sn561  1  0.55541367  0.00000000  0.36038177  1.0
  Sn  Sn562  1  0.55541367  0.33333333  0.36038178  1.0
  Sn  Sn563  1  0.55541367  0.66666667  0.36038178  1.0
  Sn  Sn564  1  0.88874700  0.00000000  0.36038177  1.0
  Sn  Sn565  1  0.88874700  0.33333333  0.36038177  1.0
  Sn  Sn566  1  0.88874700  0.66666667  0.36038177  1.0
  Sn  Sn567  1  0.22208033  0.16666667  0.31038177  1.0
  Sn  Sn568  1  0.22208033  0.50000000  0.31038177  1.0
  Sn  Sn569  1  0.22208033  0.83333333  0.31038177  1.0
  Sn  Sn570  1  0.55541367  0.16666667  0.31038177  1.0
  Sn  Sn571  1  0.55541367  0.50000000  0.31038177  1.0
  Sn  Sn572  1  0.55541367  0.83333333  0.31038177  1.0
  Sn  Sn573  1  0.88874700  0.16666667  0.31038177  1.0
  Sn  Sn574  1  0.88874700  0.50000000  0.31038177  1.0
  Sn  Sn575  1  0.88874700  0.83333333  0.31038177  1.0
