# generated using pymatgen
data_Ni3Sb
_symmetry_space_group_name_H-M   'P 1'
_cell_length_a   13.59590100
_cell_length_b   20.45748299
_cell_length_c   38.32112700
_cell_angle_alpha   128.63836561
_cell_angle_beta   90.00000000
_cell_angle_gamma   90.00000000
_symmetry_Int_Tables_number   1
_chemical_formula_structural   Ni3Sb
_chemical_formula_sum   'Ni216 Sb72'
_cell_volume   8325.42700320
_cell_formula_units_Z   72
loop_
 _symmetry_equiv_pos_site_id
 _symmetry_equiv_pos_as_xyz
  1  'x, y, z'
loop_
 _atom_site_type_symbol
 _atom_site_label
 _atom_site_symmetry_multiplicity
 _atom_site_fract_x
 _atom_site_fract_y
 _atom_site_fract_z
 _atom_site_occupancy
  Ni  Ni0  1  0.27665700  0.25003767  0.01389517  1.0
  Ni  Ni1  1  0.27665700  0.58337100  0.01389517  1.0
  Ni  Ni2  1  0.27665700  0.91670433  0.01389517  1.0
  Ni  Ni3  1  0.60999033  0.25003767  0.01389517  1.0
  Ni  Ni4  1  0.60999033  0.58337100  0.01389517  1.0
  Ni  Ni5  1  0.60999033  0.91670433  0.01389517  1.0
  Ni  Ni6  1  0.94332367  0.25003767  0.01389517  1.0
  Ni  Ni7  1  0.94332367  0.58337100  0.01389517  1.0
  Ni  Ni8  1  0.94332367  0.91670433  0.01389517  1.0
  Ni  Ni9  1  0.27665700  0.08329567  0.06942561  1.0
  Ni  Ni10  1  0.27665700  0.41662900  0.06942561  1.0
  Ni  Ni11  1  0.27665700  0.74996233  0.06942561  1.0
  Ni  Ni12  1  0.60999033  0.08329567  0.06942561  1.0
  Ni  Ni13  1  0.60999033  0.41662900  0.06942561  1.0
  Ni  Ni14  1  0.60999033  0.74996233  0.06942561  1.0
  Ni  Ni15  1  0.94332367  0.08329567  0.06942561  1.0
  Ni  Ni16  1  0.94332367  0.41662900  0.06942561  1.0
  Ni  Ni17  1  0.94332367  0.74996233  0.06942561  1.0
  Ni  Ni18  1  0.05667633  0.24996233  0.06942561  1.0
  Ni  Ni19  1  0.05667633  0.58329567  0.06942561  1.0
  Ni  Ni20  1  0.05667633  0.91662900  0.06942561  1.0
  Ni  Ni21  1  0.39000967  0.24996233  0.06942561  1.0
  Ni  Ni22  1  0.39000967  0.58329567  0.06942561  1.0
  Ni  Ni23  1  0.39000967  0.91662900  0.06942561  1.0
  Ni  Ni24  1  0.72334300  0.24996233  0.06942561  1.0
  Ni  Ni25  1  0.72334300  0.58329567  0.06942561  1.0
  Ni  Ni26  1  0.72334300  0.91662900  0.06942561  1.0
  Ni  Ni27  1  0.05667633  0.08337100  0.01389517  1.0
  Ni  Ni28  1  0.05667633  0.41670433  0.01389517  1.0
  Ni  Ni29  1  0.05667633  0.75003767  0.01389517  1.0
  Ni  Ni30  1  0.39000967  0.08337100  0.01389517  1.0
  Ni  Ni31  1  0.39000967  0.41670433  0.01389517  1.0
  Ni  Ni32  1  0.39000967  0.75003767  0.01389517  1.0
  Ni  Ni33  1  0.72334300  0.08337100  0.01389517  1.0
  Ni  Ni34  1  0.72334300  0.41670433  0.01389517  1.0
  Ni  Ni35  1  0.72334300  0.75003767  0.01389517  1.0
  Ni  Ni36  1  0.22682800  0.16666667  0.04166039  1.0
  Ni  Ni37  1  0.22682800  0.50000000  0.04166039  1.0
  Ni  Ni38  1  0.22682800  0.83333333  0.04166039  1.0
  Ni  Ni39  1  0.56016133  0.16666667  0.04166039  1.0
  Ni  Ni40  1  0.56016133  0.50000000  0.04166039  1.0
  Ni  Ni41  1  0.56016133  0.83333333  0.04166039  1.0
  Ni  Ni42  1  0.89349467  0.16666667  0.04166039  1.0
  Ni  Ni43  1  0.89349467  0.50000000  0.04166039  1.0
  Ni  Ni44  1  0.89349467  0.83333333  0.04166039  1.0
  Ni  Ni45  1  0.10650533  0.00000000  0.04166039  1.0
  Ni  Ni46  1  0.10650533  0.33333333  0.04166039  1.0
  Ni  Ni47  1  0.10650533  0.66666667  0.04166039  1.0
  Ni  Ni48  1  0.43983867  0.00000000  0.04166039  1.0
  Ni  Ni49  1  0.43983867  0.33333333  0.04166039  1.0
  Ni  Ni50  1  0.43983867  0.66666667  0.04166039  1.0
  Ni  Ni51  1  0.77317200  0.00000000  0.04166039  1.0
  Ni  Ni52  1  0.77317200  0.33333333  0.04166039  1.0
  Ni  Ni53  1  0.77317200  0.66666667  0.04166039  1.0
  Sb  Sb54  1  0.10745600  0.16666667  0.09721594  1.0
  Sb  Sb55  1  0.10745600  0.50000000  0.09721594  1.0
  Sb  Sb56  1  0.10745600  0.83333333  0.09721594  1.0
  Sb  Sb57  1  0.44078933  0.16666667  0.09721594  1.0
  Sb  Sb58  1  0.44078933  0.50000000  0.09721594  1.0
  Sb  Sb59  1  0.44078933  0.83333333  0.09721594  1.0
  Sb  Sb60  1  0.77412267  0.16666667  0.09721594  1.0
  Sb  Sb61  1  0.77412267  0.50000000  0.09721594  1.0
  Sb  Sb62  1  0.77412267  0.83333333  0.09721594  1.0
  Sb  Sb63  1  0.22587733  0.00000000  0.09721594  1.0
  Sb  Sb64  1  0.22587733  0.33333333  0.09721594  1.0
  Sb  Sb65  1  0.22587733  0.66666667  0.09721594  1.0
  Sb  Sb66  1  0.55921067  0.00000000  0.09721594  1.0
  Sb  Sb67  1  0.55921067  0.33333333  0.09721594  1.0
  Sb  Sb68  1  0.55921067  0.66666667  0.09721594  1.0
  Sb  Sb69  1  0.89254400  0.00000000  0.09721594  1.0
  Sb  Sb70  1  0.89254400  0.33333333  0.09721594  1.0
  Sb  Sb71  1  0.89254400  0.66666667  0.09721594  1.0
  Ni  Ni72  1  0.27665700  0.25003767  0.12500628  1.0
  Ni  Ni73  1  0.27665700  0.58337100  0.12500628  1.0
  Ni  Ni74  1  0.27665700  0.91670433  0.12500628  1.0
  Ni  Ni75  1  0.60999033  0.25003767  0.12500628  1.0
  Ni  Ni76  1  0.60999033  0.58337100  0.12500628  1.0
  Ni  Ni77  1  0.60999033  0.91670433  0.12500628  1.0
  Ni  Ni78  1  0.94332367  0.25003767  0.12500628  1.0
  Ni  Ni79  1  0.94332367  0.58337100  0.12500628  1.0
  Ni  Ni80  1  0.94332367  0.91670433  0.12500628  1.0
  Ni  Ni81  1  0.27665700  0.08329567  0.18053672  1.0
  Ni  Ni82  1  0.27665700  0.41662900  0.18053672  1.0
  Ni  Ni83  1  0.27665700  0.74996233  0.18053672  1.0
  Ni  Ni84  1  0.60999033  0.08329567  0.18053672  1.0
  Ni  Ni85  1  0.60999033  0.41662900  0.18053672  1.0
  Ni  Ni86  1  0.60999033  0.74996233  0.18053672  1.0
  Ni  Ni87  1  0.94332367  0.08329567  0.18053672  1.0
  Ni  Ni88  1  0.94332367  0.41662900  0.18053672  1.0
  Ni  Ni89  1  0.94332367  0.74996233  0.18053672  1.0
  Ni  Ni90  1  0.05667633  0.24996233  0.18053672  1.0
  Ni  Ni91  1  0.05667633  0.58329567  0.18053672  1.0
  Ni  Ni92  1  0.05667633  0.91662900  0.18053672  1.0
  Ni  Ni93  1  0.39000967  0.24996233  0.18053672  1.0
  Ni  Ni94  1  0.39000967  0.58329567  0.18053672  1.0
  Ni  Ni95  1  0.39000967  0.91662900  0.18053672  1.0
  Ni  Ni96  1  0.72334300  0.24996233  0.18053672  1.0
  Ni  Ni97  1  0.72334300  0.58329567  0.18053672  1.0
  Ni  Ni98  1  0.72334300  0.91662900  0.18053672  1.0
  Ni  Ni99  1  0.05667633  0.08337100  0.12500628  1.0
  Ni  Ni100  1  0.05667633  0.41670433  0.12500628  1.0
  Ni  Ni101  1  0.05667633  0.75003767  0.12500628  1.0
  Ni  Ni102  1  0.39000967  0.08337100  0.12500628  1.0
  Ni  Ni103  1  0.39000967  0.41670433  0.12500628  1.0
  Ni  Ni104  1  0.39000967  0.75003767  0.12500628  1.0
  Ni  Ni105  1  0.72334300  0.08337100  0.12500628  1.0
  Ni  Ni106  1  0.72334300  0.41670433  0.12500628  1.0
  Ni  Ni107  1  0.72334300  0.75003767  0.12500628  1.0
  Ni  Ni108  1  0.22682800  0.16666667  0.15277150  1.0
  Ni  Ni109  1  0.22682800  0.50000000  0.15277150  1.0
  Ni  Ni110  1  0.22682800  0.83333333  0.15277150  1.0
  Ni  Ni111  1  0.56016133  0.16666667  0.15277150  1.0
  Ni  Ni112  1  0.56016133  0.50000000  0.15277150  1.0
  Ni  Ni113  1  0.56016133  0.83333333  0.15277150  1.0
  Ni  Ni114  1  0.89349467  0.16666667  0.15277150  1.0
  Ni  Ni115  1  0.89349467  0.50000000  0.15277150  1.0
  Ni  Ni116  1  0.89349467  0.83333333  0.15277150  1.0
  Ni  Ni117  1  0.10650533  0.00000000  0.15277150  1.0
  Ni  Ni118  1  0.10650533  0.33333333  0.15277150  1.0
  Ni  Ni119  1  0.10650533  0.66666667  0.15277150  1.0
  Ni  Ni120  1  0.43983867  0.00000000  0.15277150  1.0
  Ni  Ni121  1  0.43983867  0.33333333  0.15277150  1.0
  Ni  Ni122  1  0.43983867  0.66666667  0.15277150  1.0
  Ni  Ni123  1  0.77317200  0.00000000  0.15277150  1.0
  Ni  Ni124  1  0.77317200  0.33333333  0.15277150  1.0
  Ni  Ni125  1  0.77317200  0.66666667  0.15277150  1.0
  Sb  Sb126  1  0.10745600  0.16666667  0.20832706  1.0
  Sb  Sb127  1  0.10745600  0.50000000  0.20832706  1.0
  Sb  Sb128  1  0.10745600  0.83333333  0.20832706  1.0
  Sb  Sb129  1  0.44078933  0.16666667  0.20832706  1.0
  Sb  Sb130  1  0.44078933  0.50000000  0.20832706  1.0
  Sb  Sb131  1  0.44078933  0.83333333  0.20832706  1.0
  Sb  Sb132  1  0.77412267  0.16666667  0.20832706  1.0
  Sb  Sb133  1  0.77412267  0.50000000  0.20832706  1.0
  Sb  Sb134  1  0.77412267  0.83333333  0.20832706  1.0
  Sb  Sb135  1  0.22587733  0.00000000  0.20832706  1.0
  Sb  Sb136  1  0.22587733  0.33333333  0.20832706  1.0
  Sb  Sb137  1  0.22587733  0.66666667  0.20832706  1.0
  Sb  Sb138  1  0.55921067  0.00000000  0.20832706  1.0
  Sb  Sb139  1  0.55921067  0.33333333  0.20832706  1.0
  Sb  Sb140  1  0.55921067  0.66666667  0.20832706  1.0
  Sb  Sb141  1  0.89254400  0.00000000  0.20832706  1.0
  Sb  Sb142  1  0.89254400  0.33333333  0.20832706  1.0
  Sb  Sb143  1  0.89254400  0.66666667  0.20832706  1.0
  Ni  Ni144  1  0.27665700  0.25003767  0.23611739  1.0
  Ni  Ni145  1  0.27665700  0.58337100  0.23611739  1.0
  Ni  Ni146  1  0.27665700  0.91670433  0.23611739  1.0
  Ni  Ni147  1  0.60999033  0.25003767  0.23611739  1.0
  Ni  Ni148  1  0.60999033  0.58337100  0.23611739  1.0
  Ni  Ni149  1  0.60999033  0.91670433  0.23611739  1.0
  Ni  Ni150  1  0.94332367  0.25003767  0.23611739  1.0
  Ni  Ni151  1  0.94332367  0.58337100  0.23611739  1.0
  Ni  Ni152  1  0.94332367  0.91670433  0.23611739  1.0
  Ni  Ni153  1  0.27665700  0.08329567  0.29164783  1.0
  Ni  Ni154  1  0.27665700  0.41662900  0.29164783  1.0
  Ni  Ni155  1  0.27665700  0.74996233  0.29164783  1.0
  Ni  Ni156  1  0.60999033  0.08329567  0.29164783  1.0
  Ni  Ni157  1  0.60999033  0.41662900  0.29164783  1.0
  Ni  Ni158  1  0.60999033  0.74996233  0.29164783  1.0
  Ni  Ni159  1  0.94332367  0.08329567  0.29164783  1.0
  Ni  Ni160  1  0.94332367  0.41662900  0.29164783  1.0
  Ni  Ni161  1  0.94332367  0.74996233  0.29164783  1.0
  Ni  Ni162  1  0.05667633  0.24996233  0.29164783  1.0
  Ni  Ni163  1  0.05667633  0.58329567  0.29164783  1.0
  Ni  Ni164  1  0.05667633  0.91662900  0.29164783  1.0
  Ni  Ni165  1  0.39000967  0.24996233  0.29164783  1.0
  Ni  Ni166  1  0.39000967  0.58329567  0.29164783  1.0
  Ni  Ni167  1  0.39000967  0.91662900  0.29164783  1.0
  Ni  Ni168  1  0.72334300  0.24996233  0.29164783  1.0
  Ni  Ni169  1  0.72334300  0.58329567  0.29164783  1.0
  Ni  Ni170  1  0.72334300  0.91662900  0.29164783  1.0
  Ni  Ni171  1  0.05667633  0.08337100  0.23611739  1.0
  Ni  Ni172  1  0.05667633  0.41670433  0.23611739  1.0
  Ni  Ni173  1  0.05667633  0.75003767  0.23611739  1.0
  Ni  Ni174  1  0.39000967  0.08337100  0.23611739  1.0
  Ni  Ni175  1  0.39000967  0.41670433  0.23611739  1.0
  Ni  Ni176  1  0.39000967  0.75003767  0.23611739  1.0
  Ni  Ni177  1  0.72334300  0.08337100  0.23611739  1.0
  Ni  Ni178  1  0.72334300  0.41670433  0.23611739  1.0
  Ni  Ni179  1  0.72334300  0.75003767  0.23611739  1.0
  Ni  Ni180  1  0.22682800  0.16666667  0.26388261  1.0
  Ni  Ni181  1  0.22682800  0.50000000  0.26388261  1.0
  Ni  Ni182  1  0.22682800  0.83333333  0.26388261  1.0
  Ni  Ni183  1  0.56016133  0.16666667  0.26388261  1.0
  Ni  Ni184  1  0.56016133  0.50000000  0.26388261  1.0
  Ni  Ni185  1  0.56016133  0.83333333  0.26388261  1.0
  Ni  Ni186  1  0.89349467  0.16666667  0.26388261  1.0
  Ni  Ni187  1  0.89349467  0.50000000  0.26388261  1.0
  Ni  Ni188  1  0.89349467  0.83333333  0.26388261  1.0
  Ni  Ni189  1  0.10650533  0.00000000  0.26388261  1.0
  Ni  Ni190  1  0.10650533  0.33333333  0.26388261  1.0
  Ni  Ni191  1  0.10650533  0.66666667  0.26388261  1.0
  Ni  Ni192  1  0.43983867  0.00000000  0.26388261  1.0
  Ni  Ni193  1  0.43983867  0.33333333  0.26388261  1.0
  Ni  Ni194  1  0.43983867  0.66666667  0.26388261  1.0
  Ni  Ni195  1  0.77317200  0.00000000  0.26388261  1.0
  Ni  Ni196  1  0.77317200  0.33333333  0.26388261  1.0
  Ni  Ni197  1  0.77317200  0.66666667  0.26388261  1.0
  Sb  Sb198  1  0.10745600  0.16666667  0.31943817  1.0
  Sb  Sb199  1  0.10745600  0.50000000  0.31943817  1.0
  Sb  Sb200  1  0.10745600  0.83333333  0.31943817  1.0
  Sb  Sb201  1  0.44078933  0.16666667  0.31943817  1.0
  Sb  Sb202  1  0.44078933  0.50000000  0.31943817  1.0
  Sb  Sb203  1  0.44078933  0.83333333  0.31943817  1.0
  Sb  Sb204  1  0.77412267  0.16666667  0.31943817  1.0
  Sb  Sb205  1  0.77412267  0.50000000  0.31943817  1.0
  Sb  Sb206  1  0.77412267  0.83333333  0.31943817  1.0
  Sb  Sb207  1  0.22587733  0.00000000  0.31943817  1.0
  Sb  Sb208  1  0.22587733  0.33333333  0.31943817  1.0
  Sb  Sb209  1  0.22587733  0.66666667  0.31943817  1.0
  Sb  Sb210  1  0.55921067  0.00000000  0.31943817  1.0
  Sb  Sb211  1  0.55921067  0.33333333  0.31943817  1.0
  Sb  Sb212  1  0.55921067  0.66666667  0.31943817  1.0
  Sb  Sb213  1  0.89254400  0.00000000  0.31943817  1.0
  Sb  Sb214  1  0.89254400  0.33333333  0.31943817  1.0
  Sb  Sb215  1  0.89254400  0.66666667  0.31943817  1.0
  Ni  Ni216  1  0.27665700  0.25003767  0.34722850  1.0
  Ni  Ni217  1  0.27665700  0.58337100  0.34722850  1.0
  Ni  Ni218  1  0.27665700  0.91670433  0.34722850  1.0
  Ni  Ni219  1  0.60999033  0.25003767  0.34722850  1.0
  Ni  Ni220  1  0.60999033  0.58337100  0.34722850  1.0
  Ni  Ni221  1  0.60999033  0.91670433  0.34722850  1.0
  Ni  Ni222  1  0.94332367  0.25003767  0.34722850  1.0
  Ni  Ni223  1  0.94332367  0.58337100  0.34722850  1.0
  Ni  Ni224  1  0.94332367  0.91670433  0.34722850  1.0
  Ni  Ni225  1  0.27665700  0.08329567  0.40275894  1.0
  Ni  Ni226  1  0.27665700  0.41662900  0.40275894  1.0
  Ni  Ni227  1  0.27665700  0.74996233  0.40275894  1.0
  Ni  Ni228  1  0.60999033  0.08329567  0.40275894  1.0
  Ni  Ni229  1  0.60999033  0.41662900  0.40275894  1.0
  Ni  Ni230  1  0.60999033  0.74996233  0.40275894  1.0
  Ni  Ni231  1  0.94332367  0.08329567  0.40275894  1.0
  Ni  Ni232  1  0.94332367  0.41662900  0.40275894  1.0
  Ni  Ni233  1  0.94332367  0.74996233  0.40275894  1.0
  Ni  Ni234  1  0.05667633  0.24996233  0.40275894  1.0
  Ni  Ni235  1  0.05667633  0.58329567  0.40275894  1.0
  Ni  Ni236  1  0.05667633  0.91662900  0.40275894  1.0
  Ni  Ni237  1  0.39000967  0.24996233  0.40275894  1.0
  Ni  Ni238  1  0.39000967  0.58329567  0.40275894  1.0
  Ni  Ni239  1  0.39000967  0.91662900  0.40275894  1.0
  Ni  Ni240  1  0.72334300  0.24996233  0.40275894  1.0
  Ni  Ni241  1  0.72334300  0.58329567  0.40275894  1.0
  Ni  Ni242  1  0.72334300  0.91662900  0.40275894  1.0
  Ni  Ni243  1  0.05667633  0.08337100  0.34722850  1.0
  Ni  Ni244  1  0.05667633  0.41670433  0.34722850  1.0
  Ni  Ni245  1  0.05667633  0.75003767  0.34722850  1.0
  Ni  Ni246  1  0.39000967  0.08337100  0.34722850  1.0
  Ni  Ni247  1  0.39000967  0.41670433  0.34722850  1.0
  Ni  Ni248  1  0.39000967  0.75003767  0.34722850  1.0
  Ni  Ni249  1  0.72334300  0.08337100  0.34722850  1.0
  Ni  Ni250  1  0.72334300  0.41670433  0.34722850  1.0
  Ni  Ni251  1  0.72334300  0.75003767  0.34722850  1.0
  Ni  Ni252  1  0.22682800  0.16666667  0.37499372  1.0
  Ni  Ni253  1  0.22682800  0.50000000  0.37499372  1.0
  Ni  Ni254  1  0.22682800  0.83333333  0.37499372  1.0
  Ni  Ni255  1  0.56016133  0.16666667  0.37499372  1.0
  Ni  Ni256  1  0.56016133  0.50000000  0.37499372  1.0
  Ni  Ni257  1  0.56016133  0.83333333  0.37499372  1.0
  Ni  Ni258  1  0.89349467  0.16666667  0.37499372  1.0
  Ni  Ni259  1  0.89349467  0.50000000  0.37499372  1.0
  Ni  Ni260  1  0.89349467  0.83333333  0.37499372  1.0
  Ni  Ni261  1  0.10650533  0.00000000  0.37499372  1.0
  Ni  Ni262  1  0.10650533  0.33333333  0.37499372  1.0
  Ni  Ni263  1  0.10650533  0.66666667  0.37499372  1.0
  Ni  Ni264  1  0.43983867  0.00000000  0.37499372  1.0
  Ni  Ni265  1  0.43983867  0.33333333  0.37499372  1.0
  Ni  Ni266  1  0.43983867  0.66666667  0.37499372  1.0
  Ni  Ni267  1  0.77317200  0.00000000  0.37499372  1.0
  Ni  Ni268  1  0.77317200  0.33333333  0.37499372  1.0
  Ni  Ni269  1  0.77317200  0.66666667  0.37499372  1.0
  Sb  Sb270  1  0.10745600  0.16666667  0.43054928  1.0
  Sb  Sb271  1  0.10745600  0.50000000  0.43054928  1.0
  Sb  Sb272  1  0.10745600  0.83333333  0.43054928  1.0
  Sb  Sb273  1  0.44078933  0.16666667  0.43054928  1.0
  Sb  Sb274  1  0.44078933  0.50000000  0.43054928  1.0
  Sb  Sb275  1  0.44078933  0.83333333  0.43054928  1.0
  Sb  Sb276  1  0.77412267  0.16666667  0.43054928  1.0
  Sb  Sb277  1  0.77412267  0.50000000  0.43054928  1.0
  Sb  Sb278  1  0.77412267  0.83333333  0.43054928  1.0
  Sb  Sb279  1  0.22587733  0.00000000  0.43054928  1.0
  Sb  Sb280  1  0.22587733  0.33333333  0.43054928  1.0
  Sb  Sb281  1  0.22587733  0.66666667  0.43054928  1.0
  Sb  Sb282  1  0.55921067  0.00000000  0.43054928  1.0
  Sb  Sb283  1  0.55921067  0.33333333  0.43054928  1.0
  Sb  Sb284  1  0.55921067  0.66666667  0.43054928  1.0
  Sb  Sb285  1  0.89254400  0.00000000  0.43054928  1.0
  Sb  Sb286  1  0.89254400  0.33333333  0.43054928  1.0
  Sb  Sb287  1  0.89254400  0.66666667  0.43054928  1.0
