# generated using pymatgen
data_Ni3Sn
_symmetry_space_group_name_H-M   'P 1'
_cell_length_a   27.56433072
_cell_length_b   30.01593456
_cell_length_c   53.04757920
_cell_angle_alpha   122.01857561
_cell_angle_beta   150.00000000
_cell_angle_gamma   62.66697793
_symmetry_Int_Tables_number   1
_chemical_formula_structural   Ni3Sn
_chemical_formula_sum   'Ni432 Sn144'
_cell_volume   18606.61475512
_cell_formula_units_Z   144
loop_
 _symmetry_equiv_pos_site_id
 _symmetry_equiv_pos_as_xyz
  1  'x, y, z'
loop_
 _atom_site_type_symbol
 _atom_site_label
 _atom_site_symmetry_multiplicity
 _atom_site_fract_x
 _atom_site_fract_y
 _atom_site_fract_z
 _atom_site_occupancy
  Ni  Ni0  1  0.28012767  0.12500000  0.08961490  1.0
  Ni  Ni1  1  0.28012767  0.45833333  0.08961490  1.0
  Ni  Ni2  1  0.28012767  0.79166667  0.08961490  1.0
  Ni  Ni3  1  0.61346100  0.12500000  0.08961490  1.0
  Ni  Ni4  1  0.61346100  0.45833333  0.08961490  1.0
  Ni  Ni5  1  0.61346100  0.79166667  0.08961490  1.0
  Ni  Ni6  1  0.94679433  0.12500000  0.08961490  1.0
  Ni  Ni7  1  0.94679433  0.45833333  0.08961490  1.0
  Ni  Ni8  1  0.94679433  0.79166667  0.08961490  1.0
  Ni  Ni9  1  0.28012767  0.29166667  0.03961490  1.0
  Ni  Ni10  1  0.28012767  0.62500000  0.03961490  1.0
  Ni  Ni11  1  0.28012767  0.95833333  0.03961490  1.0
  Ni  Ni12  1  0.61346100  0.29166667  0.03961490  1.0
  Ni  Ni13  1  0.61346100  0.62500000  0.03961490  1.0
  Ni  Ni14  1  0.61346100  0.95833333  0.03961490  1.0
  Ni  Ni15  1  0.94679433  0.29166667  0.03961490  1.0
  Ni  Ni16  1  0.94679433  0.62500000  0.03961490  1.0
  Ni  Ni17  1  0.94679433  0.95833333  0.03961490  1.0
  Ni  Ni18  1  0.22692200  0.04166667  0.06461490  1.0
  Ni  Ni19  1  0.22692200  0.37500000  0.06461490  1.0
  Ni  Ni20  1  0.22692200  0.70833333  0.06461490  1.0
  Ni  Ni21  1  0.56025533  0.04166667  0.06461490  1.0
  Ni  Ni22  1  0.56025533  0.37500000  0.06461490  1.0
  Ni  Ni23  1  0.56025533  0.70833333  0.06461490  1.0
  Ni  Ni24  1  0.89358867  0.04166667  0.06461490  1.0
  Ni  Ni25  1  0.89358867  0.37500000  0.06461490  1.0
  Ni  Ni26  1  0.89358867  0.70833333  0.06461490  1.0
  Ni  Ni27  1  0.22692200  0.20833333  0.01461490  1.0
  Ni  Ni28  1  0.22692200  0.54166667  0.01461490  1.0
  Ni  Ni29  1  0.22692200  0.87500000  0.01461490  1.0
  Ni  Ni30  1  0.56025533  0.20833333  0.01461490  1.0
  Ni  Ni31  1  0.56025533  0.54166667  0.01461490  1.0
  Ni  Ni32  1  0.56025533  0.87500000  0.01461490  1.0
  Ni  Ni33  1  0.89358867  0.20833333  0.01461490  1.0
  Ni  Ni34  1  0.89358867  0.54166667  0.01461490  1.0
  Ni  Ni35  1  0.89358867  0.87500000  0.01461490  1.0
  Ni  Ni36  1  0.05320567  0.04166667  0.01250000  1.0
  Ni  Ni37  1  0.05320567  0.37500000  0.01250000  1.0
  Ni  Ni38  1  0.05320567  0.70833333  0.01250000  1.0
  Ni  Ni39  1  0.38653900  0.04166667  0.01250000  1.0
  Ni  Ni40  1  0.38653900  0.37500000  0.01250000  1.0
  Ni  Ni41  1  0.38653900  0.70833333  0.01250000  1.0
  Ni  Ni42  1  0.71987233  0.04166667  0.01250000  1.0
  Ni  Ni43  1  0.71987233  0.37500000  0.01250000  1.0
  Ni  Ni44  1  0.71987233  0.70833333  0.01250000  1.0
  Ni  Ni45  1  0.05320567  0.20833333  0.06250000  1.0
  Ni  Ni46  1  0.05320567  0.54166667  0.06250000  1.0
  Ni  Ni47  1  0.05320567  0.87500000  0.06250000  1.0
  Ni  Ni48  1  0.38653900  0.20833333  0.06250000  1.0
  Ni  Ni49  1  0.38653900  0.54166667  0.06250000  1.0
  Ni  Ni50  1  0.38653900  0.87500000  0.06250000  1.0
  Ni  Ni51  1  0.71987233  0.20833333  0.06250000  1.0
  Ni  Ni52  1  0.71987233  0.54166667  0.06250000  1.0
  Ni  Ni53  1  0.71987233  0.87500000  0.06250000  1.0
  Ni  Ni54  1  0.28012767  0.12500000  0.03750000  1.0
  Ni  Ni55  1  0.28012767  0.45833333  0.03750000  1.0
  Ni  Ni56  1  0.28012767  0.79166667  0.03750000  1.0
  Ni  Ni57  1  0.61346100  0.12500000  0.03750000  1.0
  Ni  Ni58  1  0.61346100  0.45833333  0.03750000  1.0
  Ni  Ni59  1  0.61346100  0.79166667  0.03750000  1.0
  Ni  Ni60  1  0.94679433  0.12500000  0.03750000  1.0
  Ni  Ni61  1  0.94679433  0.45833333  0.03750000  1.0
  Ni  Ni62  1  0.94679433  0.79166667  0.03750000  1.0
  Ni  Ni63  1  0.28012767  0.29166667  0.08750000  1.0
  Ni  Ni64  1  0.28012767  0.62500000  0.08750000  1.0
  Ni  Ni65  1  0.28012767  0.95833333  0.08750000  1.0
  Ni  Ni66  1  0.61346100  0.29166667  0.08750000  1.0
  Ni  Ni67  1  0.61346100  0.62500000  0.08750000  1.0
  Ni  Ni68  1  0.61346100  0.95833333  0.08750000  1.0
  Ni  Ni69  1  0.94679433  0.29166667  0.08750000  1.0
  Ni  Ni70  1  0.94679433  0.62500000  0.08750000  1.0
  Ni  Ni71  1  0.94679433  0.95833333  0.08750000  1.0
  Ni  Ni72  1  0.10641133  0.12500000  0.08538510  1.0
  Ni  Ni73  1  0.10641133  0.45833333  0.08538510  1.0
  Ni  Ni74  1  0.10641133  0.79166667  0.08538510  1.0
  Ni  Ni75  1  0.43974467  0.12500000  0.08538510  1.0
  Ni  Ni76  1  0.43974467  0.45833333  0.08538510  1.0
  Ni  Ni77  1  0.43974467  0.79166667  0.08538510  1.0
  Ni  Ni78  1  0.77307800  0.12500000  0.08538510  1.0
  Ni  Ni79  1  0.77307800  0.45833333  0.08538510  1.0
  Ni  Ni80  1  0.77307800  0.79166667  0.08538510  1.0
  Ni  Ni81  1  0.10641133  0.29166667  0.03538510  1.0
  Ni  Ni82  1  0.10641133  0.62500000  0.03538510  1.0
  Ni  Ni83  1  0.10641133  0.95833333  0.03538510  1.0
  Ni  Ni84  1  0.43974467  0.29166667  0.03538510  1.0
  Ni  Ni85  1  0.43974467  0.62500000  0.03538510  1.0
  Ni  Ni86  1  0.43974467  0.95833333  0.03538510  1.0
  Ni  Ni87  1  0.77307800  0.29166667  0.03538510  1.0
  Ni  Ni88  1  0.77307800  0.62500000  0.03538510  1.0
  Ni  Ni89  1  0.77307800  0.95833333  0.03538510  1.0
  Ni  Ni90  1  0.05320567  0.04166667  0.06038510  1.0
  Ni  Ni91  1  0.05320567  0.37500000  0.06038510  1.0
  Ni  Ni92  1  0.05320567  0.70833333  0.06038510  1.0
  Ni  Ni93  1  0.38653900  0.04166667  0.06038510  1.0
  Ni  Ni94  1  0.38653900  0.37500000  0.06038510  1.0
  Ni  Ni95  1  0.38653900  0.70833333  0.06038510  1.0
  Ni  Ni96  1  0.71987233  0.04166667  0.06038510  1.0
  Ni  Ni97  1  0.71987233  0.37500000  0.06038510  1.0
  Ni  Ni98  1  0.71987233  0.70833333  0.06038510  1.0
  Ni  Ni99  1  0.05320567  0.20833333  0.01038510  1.0
  Ni  Ni100  1  0.05320567  0.54166667  0.01038510  1.0
  Ni  Ni101  1  0.05320567  0.87500000  0.01038510  1.0
  Ni  Ni102  1  0.38653900  0.20833333  0.01038510  1.0
  Ni  Ni103  1  0.38653900  0.54166667  0.01038510  1.0
  Ni  Ni104  1  0.38653900  0.87500000  0.01038510  1.0
  Ni  Ni105  1  0.71987233  0.20833333  0.01038510  1.0
  Ni  Ni106  1  0.71987233  0.54166667  0.01038510  1.0
  Ni  Ni107  1  0.71987233  0.87500000  0.01038510  1.0
  Sn  Sn108  1  0.11111111  0.12500000  0.03750000  1.0
  Sn  Sn109  1  0.11111111  0.45833333  0.03750000  1.0
  Sn  Sn110  1  0.11111111  0.79166667  0.03750000  1.0
  Sn  Sn111  1  0.44444444  0.12500000  0.03750000  1.0
  Sn  Sn112  1  0.44444444  0.45833333  0.03750000  1.0
  Sn  Sn113  1  0.44444444  0.79166667  0.03750000  1.0
  Sn  Sn114  1  0.77777778  0.12500000  0.03750000  1.0
  Sn  Sn115  1  0.77777778  0.45833333  0.03750000  1.0
  Sn  Sn116  1  0.77777778  0.79166667  0.03750000  1.0
  Sn  Sn117  1  0.11111111  0.29166667  0.08750000  1.0
  Sn  Sn118  1  0.11111111  0.62500000  0.08750000  1.0
  Sn  Sn119  1  0.11111111  0.95833333  0.08750000  1.0
  Sn  Sn120  1  0.44444444  0.29166667  0.08750000  1.0
  Sn  Sn121  1  0.44444444  0.62500000  0.08750000  1.0
  Sn  Sn122  1  0.44444444  0.95833333  0.08750000  1.0
  Sn  Sn123  1  0.77777778  0.29166667  0.08750000  1.0
  Sn  Sn124  1  0.77777778  0.62500000  0.08750000  1.0
  Sn  Sn125  1  0.77777778  0.95833333  0.08750000  1.0
  Sn  Sn126  1  0.22222222  0.04166667  0.01250000  1.0
  Sn  Sn127  1  0.22222222  0.37500000  0.01250000  1.0
  Sn  Sn128  1  0.22222222  0.70833333  0.01250000  1.0
  Sn  Sn129  1  0.55555556  0.04166667  0.01250000  1.0
  Sn  Sn130  1  0.55555556  0.37500000  0.01250000  1.0
  Sn  Sn131  1  0.55555556  0.70833333  0.01250000  1.0
  Sn  Sn132  1  0.88888889  0.04166667  0.01250000  1.0
  Sn  Sn133  1  0.88888889  0.37500000  0.01250000  1.0
  Sn  Sn134  1  0.88888889  0.70833333  0.01250000  1.0
  Sn  Sn135  1  0.22222222  0.20833333  0.06250000  1.0
  Sn  Sn136  1  0.22222222  0.54166667  0.06250000  1.0
  Sn  Sn137  1  0.22222222  0.87500000  0.06250000  1.0
  Sn  Sn138  1  0.55555556  0.20833333  0.06250000  1.0
  Sn  Sn139  1  0.55555556  0.54166667  0.06250000  1.0
  Sn  Sn140  1  0.55555556  0.87500000  0.06250000  1.0
  Sn  Sn141  1  0.88888889  0.20833333  0.06250000  1.0
  Sn  Sn142  1  0.88888889  0.54166667  0.06250000  1.0
  Sn  Sn143  1  0.88888889  0.87500000  0.06250000  1.0
  Ni  Ni144  1  0.28012767  0.12500000  0.18961490  1.0
  Ni  Ni145  1  0.28012767  0.45833333  0.18961490  1.0
  Ni  Ni146  1  0.28012767  0.79166667  0.18961490  1.0
  Ni  Ni147  1  0.61346100  0.12500000  0.18961490  1.0
  Ni  Ni148  1  0.61346100  0.45833333  0.18961490  1.0
  Ni  Ni149  1  0.61346100  0.79166667  0.18961490  1.0
  Ni  Ni150  1  0.94679433  0.12500000  0.18961490  1.0
  Ni  Ni151  1  0.94679433  0.45833333  0.18961490  1.0
  Ni  Ni152  1  0.94679433  0.79166667  0.18961490  1.0
  Ni  Ni153  1  0.28012767  0.29166667  0.13961490  1.0
  Ni  Ni154  1  0.28012767  0.62500000  0.13961490  1.0
  Ni  Ni155  1  0.28012767  0.95833333  0.13961490  1.0
  Ni  Ni156  1  0.61346100  0.29166667  0.13961490  1.0
  Ni  Ni157  1  0.61346100  0.62500000  0.13961490  1.0
  Ni  Ni158  1  0.61346100  0.95833333  0.13961490  1.0
  Ni  Ni159  1  0.94679433  0.29166667  0.13961490  1.0
  Ni  Ni160  1  0.94679433  0.62500000  0.13961490  1.0
  Ni  Ni161  1  0.94679433  0.95833333  0.13961490  1.0
  Ni  Ni162  1  0.22692200  0.04166667  0.16461490  1.0
  Ni  Ni163  1  0.22692200  0.37500000  0.16461490  1.0
  Ni  Ni164  1  0.22692200  0.70833333  0.16461490  1.0
  Ni  Ni165  1  0.56025533  0.04166667  0.16461490  1.0
  Ni  Ni166  1  0.56025533  0.37500000  0.16461490  1.0
  Ni  Ni167  1  0.56025533  0.70833333  0.16461490  1.0
  Ni  Ni168  1  0.89358867  0.04166667  0.16461490  1.0
  Ni  Ni169  1  0.89358867  0.37500000  0.16461490  1.0
  Ni  Ni170  1  0.89358867  0.70833333  0.16461490  1.0
  Ni  Ni171  1  0.22692200  0.20833333  0.11461490  1.0
  Ni  Ni172  1  0.22692200  0.54166667  0.11461490  1.0
  Ni  Ni173  1  0.22692200  0.87500000  0.11461490  1.0
  Ni  Ni174  1  0.56025533  0.20833333  0.11461490  1.0
  Ni  Ni175  1  0.56025533  0.54166667  0.11461490  1.0
  Ni  Ni176  1  0.56025533  0.87500000  0.11461490  1.0
  Ni  Ni177  1  0.89358867  0.20833333  0.11461490  1.0
  Ni  Ni178  1  0.89358867  0.54166667  0.11461490  1.0
  Ni  Ni179  1  0.89358867  0.87500000  0.11461490  1.0
  Ni  Ni180  1  0.05320567  0.04166667  0.11250000  1.0
  Ni  Ni181  1  0.05320567  0.37500000  0.11250000  1.0
  Ni  Ni182  1  0.05320567  0.70833333  0.11250000  1.0
  Ni  Ni183  1  0.38653900  0.04166667  0.11250000  1.0
  Ni  Ni184  1  0.38653900  0.37500000  0.11250000  1.0
  Ni  Ni185  1  0.38653900  0.70833333  0.11250000  1.0
  Ni  Ni186  1  0.71987233  0.04166667  0.11250000  1.0
  Ni  Ni187  1  0.71987233  0.37500000  0.11250000  1.0
  Ni  Ni188  1  0.71987233  0.70833333  0.11250000  1.0
  Ni  Ni189  1  0.05320567  0.20833333  0.16250000  1.0
  Ni  Ni190  1  0.05320567  0.54166667  0.16250000  1.0
  Ni  Ni191  1  0.05320567  0.87500000  0.16250000  1.0
  Ni  Ni192  1  0.38653900  0.20833333  0.16250000  1.0
  Ni  Ni193  1  0.38653900  0.54166667  0.16250000  1.0
  Ni  Ni194  1  0.38653900  0.87500000  0.16250000  1.0
  Ni  Ni195  1  0.71987233  0.20833333  0.16250000  1.0
  Ni  Ni196  1  0.71987233  0.54166667  0.16250000  1.0
  Ni  Ni197  1  0.71987233  0.87500000  0.16250000  1.0
  Ni  Ni198  1  0.28012767  0.12500000  0.13750000  1.0
  Ni  Ni199  1  0.28012767  0.45833333  0.13750000  1.0
  Ni  Ni200  1  0.28012767  0.79166667  0.13750000  1.0
  Ni  Ni201  1  0.61346100  0.12500000  0.13750000  1.0
  Ni  Ni202  1  0.61346100  0.45833333  0.13750000  1.0
  Ni  Ni203  1  0.61346100  0.79166667  0.13750000  1.0
  Ni  Ni204  1  0.94679433  0.12500000  0.13750000  1.0
  Ni  Ni205  1  0.94679433  0.45833333  0.13750000  1.0
  Ni  Ni206  1  0.94679433  0.79166667  0.13750000  1.0
  Ni  Ni207  1  0.28012767  0.29166667  0.18750000  1.0
  Ni  Ni208  1  0.28012767  0.62500000  0.18750000  1.0
  Ni  Ni209  1  0.28012767  0.95833333  0.18750000  1.0
  Ni  Ni210  1  0.61346100  0.29166667  0.18750000  1.0
  Ni  Ni211  1  0.61346100  0.62500000  0.18750000  1.0
  Ni  Ni212  1  0.61346100  0.95833333  0.18750000  1.0
  Ni  Ni213  1  0.94679433  0.29166667  0.18750000  1.0
  Ni  Ni214  1  0.94679433  0.62500000  0.18750000  1.0
  Ni  Ni215  1  0.94679433  0.95833333  0.18750000  1.0
  Ni  Ni216  1  0.10641133  0.12500000  0.18538510  1.0
  Ni  Ni217  1  0.10641133  0.45833333  0.18538510  1.0
  Ni  Ni218  1  0.10641133  0.79166667  0.18538510  1.0
  Ni  Ni219  1  0.43974467  0.12500000  0.18538510  1.0
  Ni  Ni220  1  0.43974467  0.45833333  0.18538510  1.0
  Ni  Ni221  1  0.43974467  0.79166667  0.18538510  1.0
  Ni  Ni222  1  0.77307800  0.12500000  0.18538510  1.0
  Ni  Ni223  1  0.77307800  0.45833333  0.18538510  1.0
  Ni  Ni224  1  0.77307800  0.79166667  0.18538510  1.0
  Ni  Ni225  1  0.10641133  0.29166667  0.13538510  1.0
  Ni  Ni226  1  0.10641133  0.62500000  0.13538510  1.0
  Ni  Ni227  1  0.10641133  0.95833333  0.13538510  1.0
  Ni  Ni228  1  0.43974467  0.29166667  0.13538510  1.0
  Ni  Ni229  1  0.43974467  0.62500000  0.13538510  1.0
  Ni  Ni230  1  0.43974467  0.95833333  0.13538510  1.0
  Ni  Ni231  1  0.77307800  0.29166667  0.13538510  1.0
  Ni  Ni232  1  0.77307800  0.62500000  0.13538510  1.0
  Ni  Ni233  1  0.77307800  0.95833333  0.13538510  1.0
  Ni  Ni234  1  0.05320567  0.04166667  0.16038510  1.0
  Ni  Ni235  1  0.05320567  0.37500000  0.16038510  1.0
  Ni  Ni236  1  0.05320567  0.70833333  0.16038510  1.0
  Ni  Ni237  1  0.38653900  0.04166667  0.16038510  1.0
  Ni  Ni238  1  0.38653900  0.37500000  0.16038510  1.0
  Ni  Ni239  1  0.38653900  0.70833333  0.16038510  1.0
  Ni  Ni240  1  0.71987233  0.04166667  0.16038510  1.0
  Ni  Ni241  1  0.71987233  0.37500000  0.16038510  1.0
  Ni  Ni242  1  0.71987233  0.70833333  0.16038510  1.0
  Ni  Ni243  1  0.05320567  0.20833333  0.11038510  1.0
  Ni  Ni244  1  0.05320567  0.54166667  0.11038510  1.0
  Ni  Ni245  1  0.05320567  0.87500000  0.11038510  1.0
  Ni  Ni246  1  0.38653900  0.20833333  0.11038510  1.0
  Ni  Ni247  1  0.38653900  0.54166667  0.11038510  1.0
  Ni  Ni248  1  0.38653900  0.87500000  0.11038510  1.0
  Ni  Ni249  1  0.71987233  0.20833333  0.11038510  1.0
  Ni  Ni250  1  0.71987233  0.54166667  0.11038510  1.0
  Ni  Ni251  1  0.71987233  0.87500000  0.11038510  1.0
  Sn  Sn252  1  0.11111111  0.12500000  0.13750000  1.0
  Sn  Sn253  1  0.11111111  0.45833333  0.13750000  1.0
  Sn  Sn254  1  0.11111111  0.79166667  0.13750000  1.0
  Sn  Sn255  1  0.44444444  0.12500000  0.13750000  1.0
  Sn  Sn256  1  0.44444444  0.45833333  0.13750000  1.0
  Sn  Sn257  1  0.44444444  0.79166667  0.13750000  1.0
  Sn  Sn258  1  0.77777778  0.12500000  0.13750000  1.0
  Sn  Sn259  1  0.77777778  0.45833333  0.13750000  1.0
  Sn  Sn260  1  0.77777778  0.79166667  0.13750000  1.0
  Sn  Sn261  1  0.11111111  0.29166667  0.18750000  1.0
  Sn  Sn262  1  0.11111111  0.62500000  0.18750000  1.0
  Sn  Sn263  1  0.11111111  0.95833333  0.18750000  1.0
  Sn  Sn264  1  0.44444444  0.29166667  0.18750000  1.0
  Sn  Sn265  1  0.44444444  0.62500000  0.18750000  1.0
  Sn  Sn266  1  0.44444444  0.95833333  0.18750000  1.0
  Sn  Sn267  1  0.77777778  0.29166667  0.18750000  1.0
  Sn  Sn268  1  0.77777778  0.62500000  0.18750000  1.0
  Sn  Sn269  1  0.77777778  0.95833333  0.18750000  1.0
  Sn  Sn270  1  0.22222222  0.04166667  0.11250000  1.0
  Sn  Sn271  1  0.22222222  0.37500000  0.11250000  1.0
  Sn  Sn272  1  0.22222222  0.70833333  0.11250000  1.0
  Sn  Sn273  1  0.55555556  0.04166667  0.11250000  1.0
  Sn  Sn274  1  0.55555556  0.37500000  0.11250000  1.0
  Sn  Sn275  1  0.55555556  0.70833333  0.11250000  1.0
  Sn  Sn276  1  0.88888889  0.04166667  0.11250000  1.0
  Sn  Sn277  1  0.88888889  0.37500000  0.11250000  1.0
  Sn  Sn278  1  0.88888889  0.70833333  0.11250000  1.0
  Sn  Sn279  1  0.22222222  0.20833333  0.16250000  1.0
  Sn  Sn280  1  0.22222222  0.54166667  0.16250000  1.0
  Sn  Sn281  1  0.22222222  0.87500000  0.16250000  1.0
  Sn  Sn282  1  0.55555556  0.20833333  0.16250000  1.0
  Sn  Sn283  1  0.55555556  0.54166667  0.16250000  1.0
  Sn  Sn284  1  0.55555556  0.87500000  0.16250000  1.0
  Sn  Sn285  1  0.88888889  0.20833333  0.16250000  1.0
  Sn  Sn286  1  0.88888889  0.54166667  0.16250000  1.0
  Sn  Sn287  1  0.88888889  0.87500000  0.16250000  1.0
  Ni  Ni288  1  0.28012767  0.12500000  0.28961490  1.0
  Ni  Ni289  1  0.28012767  0.45833333  0.28961490  1.0
  Ni  Ni290  1  0.28012767  0.79166667  0.28961490  1.0
  Ni  Ni291  1  0.61346100  0.12500000  0.28961490  1.0
  Ni  Ni292  1  0.61346100  0.45833333  0.28961490  1.0
  Ni  Ni293  1  0.61346100  0.79166667  0.28961490  1.0
  Ni  Ni294  1  0.94679433  0.12500000  0.28961490  1.0
  Ni  Ni295  1  0.94679433  0.45833333  0.28961490  1.0
  Ni  Ni296  1  0.94679433  0.79166667  0.28961490  1.0
  Ni  Ni297  1  0.28012767  0.29166667  0.23961490  1.0
  Ni  Ni298  1  0.28012767  0.62500000  0.23961490  1.0
  Ni  Ni299  1  0.28012767  0.95833333  0.23961490  1.0
  Ni  Ni300  1  0.61346100  0.29166667  0.23961490  1.0
  Ni  Ni301  1  0.61346100  0.62500000  0.23961490  1.0
  Ni  Ni302  1  0.61346100  0.95833333  0.23961490  1.0
  Ni  Ni303  1  0.94679433  0.29166667  0.23961490  1.0
  Ni  Ni304  1  0.94679433  0.62500000  0.23961490  1.0
  Ni  Ni305  1  0.94679433  0.95833333  0.23961490  1.0
  Ni  Ni306  1  0.22692200  0.04166667  0.26461490  1.0
  Ni  Ni307  1  0.22692200  0.37500000  0.26461490  1.0
  Ni  Ni308  1  0.22692200  0.70833333  0.26461490  1.0
  Ni  Ni309  1  0.56025533  0.04166667  0.26461490  1.0
  Ni  Ni310  1  0.56025533  0.37500000  0.26461490  1.0
  Ni  Ni311  1  0.56025533  0.70833333  0.26461490  1.0
  Ni  Ni312  1  0.89358867  0.04166667  0.26461490  1.0
  Ni  Ni313  1  0.89358867  0.37500000  0.26461490  1.0
  Ni  Ni314  1  0.89358867  0.70833333  0.26461490  1.0
  Ni  Ni315  1  0.22692200  0.20833333  0.21461490  1.0
  Ni  Ni316  1  0.22692200  0.54166667  0.21461490  1.0
  Ni  Ni317  1  0.22692200  0.87500000  0.21461490  1.0
  Ni  Ni318  1  0.56025533  0.20833333  0.21461490  1.0
  Ni  Ni319  1  0.56025533  0.54166667  0.21461490  1.0
  Ni  Ni320  1  0.56025533  0.87500000  0.21461490  1.0
  Ni  Ni321  1  0.89358867  0.20833333  0.21461490  1.0
  Ni  Ni322  1  0.89358867  0.54166667  0.21461490  1.0
  Ni  Ni323  1  0.89358867  0.87500000  0.21461490  1.0
  Ni  Ni324  1  0.05320567  0.04166667  0.21250000  1.0
  Ni  Ni325  1  0.05320567  0.37500000  0.21250000  1.0
  Ni  Ni326  1  0.05320567  0.70833333  0.21250000  1.0
  Ni  Ni327  1  0.38653900  0.04166667  0.21250000  1.0
  Ni  Ni328  1  0.38653900  0.37500000  0.21250000  1.0
  Ni  Ni329  1  0.38653900  0.70833333  0.21250000  1.0
  Ni  Ni330  1  0.71987233  0.04166667  0.21250000  1.0
  Ni  Ni331  1  0.71987233  0.37500000  0.21250000  1.0
  Ni  Ni332  1  0.71987233  0.70833333  0.21250000  1.0
  Ni  Ni333  1  0.05320567  0.20833333  0.26250000  1.0
  Ni  Ni334  1  0.05320567  0.54166667  0.26250000  1.0
  Ni  Ni335  1  0.05320567  0.87500000  0.26250000  1.0
  Ni  Ni336  1  0.38653900  0.20833333  0.26250000  1.0
  Ni  Ni337  1  0.38653900  0.54166667  0.26250000  1.0
  Ni  Ni338  1  0.38653900  0.87500000  0.26250000  1.0
  Ni  Ni339  1  0.71987233  0.20833333  0.26250000  1.0
  Ni  Ni340  1  0.71987233  0.54166667  0.26250000  1.0
  Ni  Ni341  1  0.71987233  0.87500000  0.26250000  1.0
  Ni  Ni342  1  0.28012767  0.12500000  0.23750000  1.0
  Ni  Ni343  1  0.28012767  0.45833333  0.23750000  1.0
  Ni  Ni344  1  0.28012767  0.79166667  0.23750000  1.0
  Ni  Ni345  1  0.61346100  0.12500000  0.23750000  1.0
  Ni  Ni346  1  0.61346100  0.45833333  0.23750000  1.0
  Ni  Ni347  1  0.61346100  0.79166667  0.23750000  1.0
  Ni  Ni348  1  0.94679433  0.12500000  0.23750000  1.0
  Ni  Ni349  1  0.94679433  0.45833333  0.23750000  1.0
  Ni  Ni350  1  0.94679433  0.79166667  0.23750000  1.0
  Ni  Ni351  1  0.28012767  0.29166667  0.28750000  1.0
  Ni  Ni352  1  0.28012767  0.62500000  0.28750000  1.0
  Ni  Ni353  1  0.28012767  0.95833333  0.28750000  1.0
  Ni  Ni354  1  0.61346100  0.29166667  0.28750000  1.0
  Ni  Ni355  1  0.61346100  0.62500000  0.28750000  1.0
  Ni  Ni356  1  0.61346100  0.95833333  0.28750000  1.0
  Ni  Ni357  1  0.94679433  0.29166667  0.28750000  1.0
  Ni  Ni358  1  0.94679433  0.62500000  0.28750000  1.0
  Ni  Ni359  1  0.94679433  0.95833333  0.28750000  1.0
  Ni  Ni360  1  0.10641133  0.12500000  0.28538510  1.0
  Ni  Ni361  1  0.10641133  0.45833333  0.28538510  1.0
  Ni  Ni362  1  0.10641133  0.79166667  0.28538510  1.0
  Ni  Ni363  1  0.43974467  0.12500000  0.28538510  1.0
  Ni  Ni364  1  0.43974467  0.45833333  0.28538510  1.0
  Ni  Ni365  1  0.43974467  0.79166667  0.28538510  1.0
  Ni  Ni366  1  0.77307800  0.12500000  0.28538510  1.0
  Ni  Ni367  1  0.77307800  0.45833333  0.28538510  1.0
  Ni  Ni368  1  0.77307800  0.79166667  0.28538510  1.0
  Ni  Ni369  1  0.10641133  0.29166667  0.23538510  1.0
  Ni  Ni370  1  0.10641133  0.62500000  0.23538510  1.0
  Ni  Ni371  1  0.10641133  0.95833333  0.23538510  1.0
  Ni  Ni372  1  0.43974467  0.29166667  0.23538510  1.0
  Ni  Ni373  1  0.43974467  0.62500000  0.23538510  1.0
  Ni  Ni374  1  0.43974467  0.95833333  0.23538510  1.0
  Ni  Ni375  1  0.77307800  0.29166667  0.23538510  1.0
  Ni  Ni376  1  0.77307800  0.62500000  0.23538510  1.0
  Ni  Ni377  1  0.77307800  0.95833333  0.23538510  1.0
  Ni  Ni378  1  0.05320567  0.04166667  0.26038510  1.0
  Ni  Ni379  1  0.05320567  0.37500000  0.26038510  1.0
  Ni  Ni380  1  0.05320567  0.70833333  0.26038510  1.0
  Ni  Ni381  1  0.38653900  0.04166667  0.26038510  1.0
  Ni  Ni382  1  0.38653900  0.37500000  0.26038510  1.0
  Ni  Ni383  1  0.38653900  0.70833333  0.26038510  1.0
  Ni  Ni384  1  0.71987233  0.04166667  0.26038510  1.0
  Ni  Ni385  1  0.71987233  0.37500000  0.26038510  1.0
  Ni  Ni386  1  0.71987233  0.70833333  0.26038510  1.0
  Ni  Ni387  1  0.05320567  0.20833333  0.21038510  1.0
  Ni  Ni388  1  0.05320567  0.54166667  0.21038510  1.0
  Ni  Ni389  1  0.05320567  0.87500000  0.21038510  1.0
  Ni  Ni390  1  0.38653900  0.20833333  0.21038510  1.0
  Ni  Ni391  1  0.38653900  0.54166667  0.21038510  1.0
  Ni  Ni392  1  0.38653900  0.87500000  0.21038510  1.0
  Ni  Ni393  1  0.71987233  0.20833333  0.21038510  1.0
  Ni  Ni394  1  0.71987233  0.54166667  0.21038510  1.0
  Ni  Ni395  1  0.71987233  0.87500000  0.21038510  1.0
  Sn  Sn396  1  0.11111111  0.12500000  0.23750000  1.0
  Sn  Sn397  1  0.11111111  0.45833333  0.23750000  1.0
  Sn  Sn398  1  0.11111111  0.79166667  0.23750000  1.0
  Sn  Sn399  1  0.44444444  0.12500000  0.23750000  1.0
  Sn  Sn400  1  0.44444444  0.45833333  0.23750000  1.0
  Sn  Sn401  1  0.44444444  0.79166667  0.23750000  1.0
  Sn  Sn402  1  0.77777778  0.12500000  0.23750000  1.0
  Sn  Sn403  1  0.77777778  0.45833333  0.23750000  1.0
  Sn  Sn404  1  0.77777778  0.79166667  0.23750000  1.0
  Sn  Sn405  1  0.11111111  0.29166667  0.28750000  1.0
  Sn  Sn406  1  0.11111111  0.62500000  0.28750000  1.0
  Sn  Sn407  1  0.11111111  0.95833333  0.28750000  1.0
  Sn  Sn408  1  0.44444444  0.29166667  0.28750000  1.0
  Sn  Sn409  1  0.44444444  0.62500000  0.28750000  1.0
  Sn  Sn410  1  0.44444444  0.95833333  0.28750000  1.0
  Sn  Sn411  1  0.77777778  0.29166667  0.28750000  1.0
  Sn  Sn412  1  0.77777778  0.62500000  0.28750000  1.0
  Sn  Sn413  1  0.77777778  0.95833333  0.28750000  1.0
  Sn  Sn414  1  0.22222222  0.04166667  0.21250000  1.0
  Sn  Sn415  1  0.22222222  0.37500000  0.21250000  1.0
  Sn  Sn416  1  0.22222222  0.70833333  0.21250000  1.0
  Sn  Sn417  1  0.55555556  0.04166667  0.21250000  1.0
  Sn  Sn418  1  0.55555556  0.37500000  0.21250000  1.0
  Sn  Sn419  1  0.55555556  0.70833333  0.21250000  1.0
  Sn  Sn420  1  0.88888889  0.04166667  0.21250000  1.0
  Sn  Sn421  1  0.88888889  0.37500000  0.21250000  1.0
  Sn  Sn422  1  0.88888889  0.70833333  0.21250000  1.0
  Sn  Sn423  1  0.22222222  0.20833333  0.26250000  1.0
  Sn  Sn424  1  0.22222222  0.54166667  0.26250000  1.0
  Sn  Sn425  1  0.22222222  0.87500000  0.26250000  1.0
  Sn  Sn426  1  0.55555556  0.20833333  0.26250000  1.0
  Sn  Sn427  1  0.55555556  0.54166667  0.26250000  1.0
  Sn  Sn428  1  0.55555556  0.87500000  0.26250000  1.0
  Sn  Sn429  1  0.88888889  0.20833333  0.26250000  1.0
  Sn  Sn430  1  0.88888889  0.54166667  0.26250000  1.0
  Sn  Sn431  1  0.88888889  0.87500000  0.26250000  1.0
  Ni  Ni432  1  0.28012767  0.12500000  0.38961490  1.0
  Ni  Ni433  1  0.28012767  0.45833333  0.38961490  1.0
  Ni  Ni434  1  0.28012767  0.79166667  0.38961490  1.0
  Ni  Ni435  1  0.61346100  0.12500000  0.38961490  1.0
  Ni  Ni436  1  0.61346100  0.45833333  0.38961490  1.0
  Ni  Ni437  1  0.61346100  0.79166667  0.38961490  1.0
  Ni  Ni438  1  0.94679433  0.12500000  0.38961490  1.0
  Ni  Ni439  1  0.94679433  0.45833333  0.38961490  1.0
  Ni  Ni440  1  0.94679433  0.79166667  0.38961490  1.0
  Ni  Ni441  1  0.28012767  0.29166667  0.33961490  1.0
  Ni  Ni442  1  0.28012767  0.62500000  0.33961490  1.0
  Ni  Ni443  1  0.28012767  0.95833333  0.33961490  1.0
  Ni  Ni444  1  0.61346100  0.29166667  0.33961490  1.0
  Ni  Ni445  1  0.61346100  0.62500000  0.33961490  1.0
  Ni  Ni446  1  0.61346100  0.95833333  0.33961490  1.0
  Ni  Ni447  1  0.94679433  0.29166667  0.33961490  1.0
  Ni  Ni448  1  0.94679433  0.62500000  0.33961490  1.0
  Ni  Ni449  1  0.94679433  0.95833333  0.33961490  1.0
  Ni  Ni450  1  0.22692200  0.04166667  0.36461490  1.0
  Ni  Ni451  1  0.22692200  0.37500000  0.36461490  1.0
  Ni  Ni452  1  0.22692200  0.70833333  0.36461490  1.0
  Ni  Ni453  1  0.56025533  0.04166667  0.36461490  1.0
  Ni  Ni454  1  0.56025533  0.37500000  0.36461490  1.0
  Ni  Ni455  1  0.56025533  0.70833333  0.36461490  1.0
  Ni  Ni456  1  0.89358867  0.04166667  0.36461490  1.0
  Ni  Ni457  1  0.89358867  0.37500000  0.36461490  1.0
  Ni  Ni458  1  0.89358867  0.70833333  0.36461490  1.0
  Ni  Ni459  1  0.22692200  0.20833333  0.31461490  1.0
  Ni  Ni460  1  0.22692200  0.54166667  0.31461490  1.0
  Ni  Ni461  1  0.22692200  0.87500000  0.31461490  1.0
  Ni  Ni462  1  0.56025533  0.20833333  0.31461490  1.0
  Ni  Ni463  1  0.56025533  0.54166667  0.31461490  1.0
  Ni  Ni464  1  0.56025533  0.87500000  0.31461490  1.0
  Ni  Ni465  1  0.89358867  0.20833333  0.31461490  1.0
  Ni  Ni466  1  0.89358867  0.54166667  0.31461490  1.0
  Ni  Ni467  1  0.89358867  0.87500000  0.31461490  1.0
  Ni  Ni468  1  0.05320567  0.04166667  0.31250000  1.0
  Ni  Ni469  1  0.05320567  0.37500000  0.31250000  1.0
  Ni  Ni470  1  0.05320567  0.70833333  0.31250000  1.0
  Ni  Ni471  1  0.38653900  0.04166667  0.31250000  1.0
  Ni  Ni472  1  0.38653900  0.37500000  0.31250000  1.0
  Ni  Ni473  1  0.38653900  0.70833333  0.31250000  1.0
  Ni  Ni474  1  0.71987233  0.04166667  0.31250000  1.0
  Ni  Ni475  1  0.71987233  0.37500000  0.31250000  1.0
  Ni  Ni476  1  0.71987233  0.70833333  0.31250000  1.0
  Ni  Ni477  1  0.05320567  0.20833333  0.36250000  1.0
  Ni  Ni478  1  0.05320567  0.54166667  0.36250000  1.0
  Ni  Ni479  1  0.05320567  0.87500000  0.36250000  1.0
  Ni  Ni480  1  0.38653900  0.20833333  0.36250000  1.0
  Ni  Ni481  1  0.38653900  0.54166667  0.36250000  1.0
  Ni  Ni482  1  0.38653900  0.87500000  0.36250000  1.0
  Ni  Ni483  1  0.71987233  0.20833333  0.36250000  1.0
  Ni  Ni484  1  0.71987233  0.54166667  0.36250000  1.0
  Ni  Ni485  1  0.71987233  0.87500000  0.36250000  1.0
  Ni  Ni486  1  0.28012767  0.12500000  0.33750000  1.0
  Ni  Ni487  1  0.28012767  0.45833333  0.33750000  1.0
  Ni  Ni488  1  0.28012767  0.79166667  0.33750000  1.0
  Ni  Ni489  1  0.61346100  0.12500000  0.33750000  1.0
  Ni  Ni490  1  0.61346100  0.45833333  0.33750000  1.0
  Ni  Ni491  1  0.61346100  0.79166667  0.33750000  1.0
  Ni  Ni492  1  0.94679433  0.12500000  0.33750000  1.0
  Ni  Ni493  1  0.94679433  0.45833333  0.33750000  1.0
  Ni  Ni494  1  0.94679433  0.79166667  0.33750000  1.0
  Ni  Ni495  1  0.28012767  0.29166667  0.38750000  1.0
  Ni  Ni496  1  0.28012767  0.62500000  0.38750000  1.0
  Ni  Ni497  1  0.28012767  0.95833333  0.38750000  1.0
  Ni  Ni498  1  0.61346100  0.29166667  0.38750000  1.0
  Ni  Ni499  1  0.61346100  0.62500000  0.38750000  1.0
  Ni  Ni500  1  0.61346100  0.95833333  0.38750000  1.0
  Ni  Ni501  1  0.94679433  0.29166667  0.38750000  1.0
  Ni  Ni502  1  0.94679433  0.62500000  0.38750000  1.0
  Ni  Ni503  1  0.94679433  0.95833333  0.38750000  1.0
  Ni  Ni504  1  0.10641133  0.12500000  0.38538510  1.0
  Ni  Ni505  1  0.10641133  0.45833333  0.38538510  1.0
  Ni  Ni506  1  0.10641133  0.79166667  0.38538510  1.0
  Ni  Ni507  1  0.43974467  0.12500000  0.38538510  1.0
  Ni  Ni508  1  0.43974467  0.45833333  0.38538510  1.0
  Ni  Ni509  1  0.43974467  0.79166667  0.38538510  1.0
  Ni  Ni510  1  0.77307800  0.12500000  0.38538510  1.0
  Ni  Ni511  1  0.77307800  0.45833333  0.38538510  1.0
  Ni  Ni512  1  0.77307800  0.79166667  0.38538510  1.0
  Ni  Ni513  1  0.10641133  0.29166667  0.33538510  1.0
  Ni  Ni514  1  0.10641133  0.62500000  0.33538510  1.0
  Ni  Ni515  1  0.10641133  0.95833333  0.33538510  1.0
  Ni  Ni516  1  0.43974467  0.29166667  0.33538510  1.0
  Ni  Ni517  1  0.43974467  0.62500000  0.33538510  1.0
  Ni  Ni518  1  0.43974467  0.95833333  0.33538510  1.0
  Ni  Ni519  1  0.77307800  0.29166667  0.33538510  1.0
  Ni  Ni520  1  0.77307800  0.62500000  0.33538510  1.0
  Ni  Ni521  1  0.77307800  0.95833333  0.33538510  1.0
  Ni  Ni522  1  0.05320567  0.04166667  0.36038510  1.0
  Ni  Ni523  1  0.05320567  0.37500000  0.36038510  1.0
  Ni  Ni524  1  0.05320567  0.70833333  0.36038510  1.0
  Ni  Ni525  1  0.38653900  0.04166667  0.36038510  1.0
  Ni  Ni526  1  0.38653900  0.37500000  0.36038510  1.0
  Ni  Ni527  1  0.38653900  0.70833333  0.36038510  1.0
  Ni  Ni528  1  0.71987233  0.04166667  0.36038510  1.0
  Ni  Ni529  1  0.71987233  0.37500000  0.36038510  1.0
  Ni  Ni530  1  0.71987233  0.70833333  0.36038510  1.0
  Ni  Ni531  1  0.05320567  0.20833333  0.31038510  1.0
  Ni  Ni532  1  0.05320567  0.54166667  0.31038510  1.0
  Ni  Ni533  1  0.05320567  0.87500000  0.31038510  1.0
  Ni  Ni534  1  0.38653900  0.20833333  0.31038510  1.0
  Ni  Ni535  1  0.38653900  0.54166667  0.31038510  1.0
  Ni  Ni536  1  0.38653900  0.87500000  0.31038510  1.0
  Ni  Ni537  1  0.71987233  0.20833333  0.31038510  1.0
  Ni  Ni538  1  0.71987233  0.54166667  0.31038510  1.0
  Ni  Ni539  1  0.71987233  0.87500000  0.31038510  1.0
  Sn  Sn540  1  0.11111111  0.12500000  0.33750000  1.0
  Sn  Sn541  1  0.11111111  0.45833333  0.33750000  1.0
  Sn  Sn542  1  0.11111111  0.79166667  0.33750000  1.0
  Sn  Sn543  1  0.44444444  0.12500000  0.33750000  1.0
  Sn  Sn544  1  0.44444444  0.45833333  0.33750000  1.0
  Sn  Sn545  1  0.44444444  0.79166667  0.33750000  1.0
  Sn  Sn546  1  0.77777778  0.12500000  0.33750000  1.0
  Sn  Sn547  1  0.77777778  0.45833333  0.33750000  1.0
  Sn  Sn548  1  0.77777778  0.79166667  0.33750000  1.0
  Sn  Sn549  1  0.11111111  0.29166667  0.38750000  1.0
  Sn  Sn550  1  0.11111111  0.62500000  0.38750000  1.0
  Sn  Sn551  1  0.11111111  0.95833333  0.38750000  1.0
  Sn  Sn552  1  0.44444444  0.29166667  0.38750000  1.0
  Sn  Sn553  1  0.44444444  0.62500000  0.38750000  1.0
  Sn  Sn554  1  0.44444444  0.95833333  0.38750000  1.0
  Sn  Sn555  1  0.77777778  0.29166667  0.38750000  1.0
  Sn  Sn556  1  0.77777778  0.62500000  0.38750000  1.0
  Sn  Sn557  1  0.77777778  0.95833333  0.38750000  1.0
  Sn  Sn558  1  0.22222222  0.04166667  0.31250000  1.0
  Sn  Sn559  1  0.22222222  0.37500000  0.31250000  1.0
  Sn  Sn560  1  0.22222222  0.70833333  0.31250000  1.0
  Sn  Sn561  1  0.55555556  0.04166667  0.31250000  1.0
  Sn  Sn562  1  0.55555556  0.37500000  0.31250000  1.0
  Sn  Sn563  1  0.55555556  0.70833333  0.31250000  1.0
  Sn  Sn564  1  0.88888889  0.04166667  0.31250000  1.0
  Sn  Sn565  1  0.88888889  0.37500000  0.31250000  1.0
  Sn  Sn566  1  0.88888889  0.70833333  0.31250000  1.0
  Sn  Sn567  1  0.22222222  0.20833333  0.36250000  1.0
  Sn  Sn568  1  0.22222222  0.54166667  0.36250000  1.0
  Sn  Sn569  1  0.22222222  0.87500000  0.36250000  1.0
  Sn  Sn570  1  0.55555556  0.20833333  0.36250000  1.0
  Sn  Sn571  1  0.55555556  0.54166667  0.36250000  1.0
  Sn  Sn572  1  0.55555556  0.87500000  0.36250000  1.0
  Sn  Sn573  1  0.88888889  0.20833333  0.36250000  1.0
  Sn  Sn574  1  0.88888889  0.54166667  0.36250000  1.0
  Sn  Sn575  1  0.88888889  0.87500000  0.36250000  1.0
