# generated using pymatgen
data_Ni3Sn4
_symmetry_space_group_name_H-M   'P 1'
_cell_length_a   27.92291896
_cell_length_b   32.73732475
_cell_length_c   26.72971869
_cell_angle_alpha   81.35004410
_cell_angle_beta   84.87225333
_cell_angle_gamma   72.51152073
_symmetry_Int_Tables_number   1
_chemical_formula_structural   Ni3Sn4
_chemical_formula_sum   'Ni216 Sn288'
_cell_volume   23014.42083770
_cell_formula_units_Z   72
loop_
 _symmetry_equiv_pos_site_id
 _symmetry_equiv_pos_as_xyz
  1  'x, y, z'
loop_
 _atom_site_type_symbol
 _atom_site_label
 _atom_site_symmetry_multiplicity
 _atom_site_fract_x
 _atom_site_fract_y
 _atom_site_fract_z
 _atom_site_occupancy
  Ni  Ni0  1  0.23936513  0.22931213  0.95301590  1.0
  Ni  Ni1  1  0.23936513  0.56264547  0.95301590  1.0
  Ni  Ni2  1  0.23936513  0.89597880  0.95301590  1.0
  Ni  Ni3  1  0.57269847  0.22931213  0.95301590  1.0
  Ni  Ni4  1  0.57269847  0.56264547  0.95301590  1.0
  Ni  Ni5  1  0.57269847  0.89597880  0.95301590  1.0
  Ni  Ni6  1  0.90603180  0.22931213  0.95301590  1.0
  Ni  Ni7  1  0.90603180  0.56264547  0.95301590  1.0
  Ni  Ni8  1  0.90603180  0.89597880  0.95301590  1.0
  Ni  Ni9  1  0.13936513  0.12931213  0.90301590  1.0
  Ni  Ni10  1  0.13936513  0.46264547  0.90301590  1.0
  Ni  Ni11  1  0.13936513  0.79597880  0.90301590  1.0
  Ni  Ni12  1  0.47269847  0.12931213  0.90301590  1.0
  Ni  Ni13  1  0.47269847  0.46264547  0.90301590  1.0
  Ni  Ni14  1  0.47269847  0.79597880  0.90301590  1.0
  Ni  Ni15  1  0.80603180  0.12931213  0.90301590  1.0
  Ni  Ni16  1  0.80603180  0.46264547  0.90301590  1.0
  Ni  Ni17  1  0.80603180  0.79597880  0.90301590  1.0
  Ni  Ni18  1  0.07947407  0.21333040  0.90904770  1.0
  Ni  Ni19  1  0.07947407  0.54666373  0.90904770  1.0
  Ni  Ni20  1  0.07947407  0.87999707  0.90904770  1.0
  Ni  Ni21  1  0.41280740  0.21333040  0.90904770  1.0
  Ni  Ni22  1  0.41280740  0.54666373  0.90904770  1.0
  Ni  Ni23  1  0.41280740  0.87999707  0.90904770  1.0
  Ni  Ni24  1  0.74614073  0.21333040  0.90904770  1.0
  Ni  Ni25  1  0.74614073  0.54666373  0.90904770  1.0
  Ni  Ni26  1  0.74614073  0.87999707  0.90904770  1.0
  Ni  Ni27  1  0.17947407  0.31333040  0.95904770  1.0
  Ni  Ni28  1  0.17947407  0.64666373  0.95904770  1.0
  Ni  Ni29  1  0.17947407  0.97999707  0.95904770  1.0
  Ni  Ni30  1  0.51280740  0.31333040  0.95904770  1.0
  Ni  Ni31  1  0.51280740  0.64666373  0.95904770  1.0
  Ni  Ni32  1  0.51280740  0.97999707  0.95904770  1.0
  Ni  Ni33  1  0.84614073  0.31333040  0.95904770  1.0
  Ni  Ni34  1  0.84614073  0.64666373  0.95904770  1.0
  Ni  Ni35  1  0.84614073  0.97999707  0.95904770  1.0
  Ni  Ni36  1  0.06592287  0.24529387  0.99698410  1.0
  Ni  Ni37  1  0.06592287  0.57862720  0.99698410  1.0
  Ni  Ni38  1  0.06592287  0.91196053  0.99698410  1.0
  Ni  Ni39  1  0.39925620  0.24529387  0.99698410  1.0
  Ni  Ni40  1  0.39925620  0.57862720  0.99698410  1.0
  Ni  Ni41  1  0.39925620  0.91196053  0.99698410  1.0
  Ni  Ni42  1  0.73258953  0.24529387  0.99698410  1.0
  Ni  Ni43  1  0.73258953  0.57862720  0.99698410  1.0
  Ni  Ni44  1  0.73258953  0.91196053  0.99698410  1.0
  Ni  Ni45  1  0.29925620  0.14529387  0.94698410  1.0
  Ni  Ni46  1  0.29925620  0.47862720  0.94698410  1.0
  Ni  Ni47  1  0.29925620  0.81196053  0.94698410  1.0
  Ni  Ni48  1  0.63258953  0.14529387  0.94698410  1.0
  Ni  Ni49  1  0.63258953  0.47862720  0.94698410  1.0
  Ni  Ni50  1  0.63258953  0.81196053  0.94698410  1.0
  Ni  Ni51  1  0.96592287  0.14529387  0.94698410  1.0
  Ni  Ni52  1  0.96592287  0.47862720  0.94698410  1.0
  Ni  Ni53  1  0.96592287  0.81196053  0.94698410  1.0
  Ni  Ni54  1  0.03936513  0.02931213  0.85301590  1.0
  Ni  Ni55  1  0.03936513  0.36264547  0.85301590  1.0
  Ni  Ni56  1  0.03936513  0.69597880  0.85301590  1.0
  Ni  Ni57  1  0.37269847  0.02931213  0.85301590  1.0
  Ni  Ni58  1  0.37269847  0.36264547  0.85301590  1.0
  Ni  Ni59  1  0.37269847  0.69597880  0.85301590  1.0
  Ni  Ni60  1  0.70603180  0.02931213  0.85301590  1.0
  Ni  Ni61  1  0.70603180  0.36264547  0.85301590  1.0
  Ni  Ni62  1  0.70603180  0.69597880  0.85301590  1.0
  Ni  Ni63  1  0.27269847  0.26264547  0.80301590  1.0
  Ni  Ni64  1  0.27269847  0.59597880  0.80301590  1.0
  Ni  Ni65  1  0.27269847  0.92931213  0.80301590  1.0
  Ni  Ni66  1  0.60603180  0.26264547  0.80301590  1.0
  Ni  Ni67  1  0.60603180  0.59597880  0.80301590  1.0
  Ni  Ni68  1  0.60603180  0.92931213  0.80301590  1.0
  Ni  Ni69  1  0.93936513  0.26264547  0.80301590  1.0
  Ni  Ni70  1  0.93936513  0.59597880  0.80301590  1.0
  Ni  Ni71  1  0.93936513  0.92931213  0.80301590  1.0
  Ni  Ni72  1  0.21280740  0.01333040  0.80904770  1.0
  Ni  Ni73  1  0.21280740  0.34666373  0.80904770  1.0
  Ni  Ni74  1  0.21280740  0.67999707  0.80904770  1.0
  Ni  Ni75  1  0.54614073  0.01333040  0.80904770  1.0
  Ni  Ni76  1  0.54614073  0.34666373  0.80904770  1.0
  Ni  Ni77  1  0.54614073  0.67999707  0.80904770  1.0
  Ni  Ni78  1  0.87947407  0.01333040  0.80904770  1.0
  Ni  Ni79  1  0.87947407  0.34666373  0.80904770  1.0
  Ni  Ni80  1  0.87947407  0.67999707  0.80904770  1.0
  Ni  Ni81  1  0.31280740  0.11333040  0.85904770  1.0
  Ni  Ni82  1  0.31280740  0.44666373  0.85904770  1.0
  Ni  Ni83  1  0.31280740  0.77999707  0.85904770  1.0
  Ni  Ni84  1  0.64614073  0.11333040  0.85904770  1.0
  Ni  Ni85  1  0.64614073  0.44666373  0.85904770  1.0
  Ni  Ni86  1  0.64614073  0.77999707  0.85904770  1.0
  Ni  Ni87  1  0.97947407  0.11333040  0.85904770  1.0
  Ni  Ni88  1  0.97947407  0.44666373  0.85904770  1.0
  Ni  Ni89  1  0.97947407  0.77999707  0.85904770  1.0
  Ni  Ni90  1  0.19925620  0.04529387  0.89698410  1.0
  Ni  Ni91  1  0.19925620  0.37862720  0.89698410  1.0
  Ni  Ni92  1  0.19925620  0.71196053  0.89698410  1.0
  Ni  Ni93  1  0.53258953  0.04529387  0.89698410  1.0
  Ni  Ni94  1  0.53258953  0.37862720  0.89698410  1.0
  Ni  Ni95  1  0.53258953  0.71196053  0.89698410  1.0
  Ni  Ni96  1  0.86592287  0.04529387  0.89698410  1.0
  Ni  Ni97  1  0.86592287  0.37862720  0.89698410  1.0
  Ni  Ni98  1  0.86592287  0.71196053  0.89698410  1.0
  Ni  Ni99  1  0.09925620  0.27862720  0.84698410  1.0
  Ni  Ni100  1  0.09925620  0.61196053  0.84698410  1.0
  Ni  Ni101  1  0.09925620  0.94529387  0.84698410  1.0
  Ni  Ni102  1  0.43258953  0.27862720  0.84698410  1.0
  Ni  Ni103  1  0.43258953  0.61196053  0.84698410  1.0
  Ni  Ni104  1  0.43258953  0.94529387  0.84698410  1.0
  Ni  Ni105  1  0.76592287  0.27862720  0.84698410  1.0
  Ni  Ni106  1  0.76592287  0.61196053  0.84698410  1.0
  Ni  Ni107  1  0.76592287  0.94529387  0.84698410  1.0
  Ni  Ni108  1  0.17269847  0.16264547  0.75301590  1.0
  Ni  Ni109  1  0.17269847  0.49597880  0.75301590  1.0
  Ni  Ni110  1  0.17269847  0.82931213  0.75301590  1.0
  Ni  Ni111  1  0.50603180  0.16264547  0.75301590  1.0
  Ni  Ni112  1  0.50603180  0.49597880  0.75301590  1.0
  Ni  Ni113  1  0.50603180  0.82931213  0.75301590  1.0
  Ni  Ni114  1  0.83936513  0.16264547  0.75301590  1.0
  Ni  Ni115  1  0.83936513  0.49597880  0.75301590  1.0
  Ni  Ni116  1  0.83936513  0.82931213  0.75301590  1.0
  Ni  Ni117  1  0.07269847  0.06264547  0.70301590  1.0
  Ni  Ni118  1  0.07269847  0.39597880  0.70301590  1.0
  Ni  Ni119  1  0.07269847  0.72931213  0.70301590  1.0
  Ni  Ni120  1  0.40603180  0.06264547  0.70301590  1.0
  Ni  Ni121  1  0.40603180  0.39597880  0.70301590  1.0
  Ni  Ni122  1  0.40603180  0.72931213  0.70301590  1.0
  Ni  Ni123  1  0.73936513  0.06264547  0.70301590  1.0
  Ni  Ni124  1  0.73936513  0.39597880  0.70301590  1.0
  Ni  Ni125  1  0.73936513  0.72931213  0.70301590  1.0
  Ni  Ni126  1  0.01280740  0.14666373  0.70904770  1.0
  Ni  Ni127  1  0.01280740  0.47999707  0.70904770  1.0
  Ni  Ni128  1  0.01280740  0.81333040  0.70904770  1.0
  Ni  Ni129  1  0.34614073  0.14666373  0.70904770  1.0
  Ni  Ni130  1  0.34614073  0.47999707  0.70904770  1.0
  Ni  Ni131  1  0.34614073  0.81333040  0.70904770  1.0
  Ni  Ni132  1  0.67947407  0.14666373  0.70904770  1.0
  Ni  Ni133  1  0.67947407  0.47999707  0.70904770  1.0
  Ni  Ni134  1  0.67947407  0.81333040  0.70904770  1.0
  Ni  Ni135  1  0.11280740  0.24666373  0.75904770  1.0
  Ni  Ni136  1  0.11280740  0.57999707  0.75904770  1.0
  Ni  Ni137  1  0.11280740  0.91333040  0.75904770  1.0
  Ni  Ni138  1  0.44614073  0.24666373  0.75904770  1.0
  Ni  Ni139  1  0.44614073  0.57999707  0.75904770  1.0
  Ni  Ni140  1  0.44614073  0.91333040  0.75904770  1.0
  Ni  Ni141  1  0.77947407  0.24666373  0.75904770  1.0
  Ni  Ni142  1  0.77947407  0.57999707  0.75904770  1.0
  Ni  Ni143  1  0.77947407  0.91333040  0.75904770  1.0
  Ni  Ni144  1  0.33258953  0.17862720  0.79698410  1.0
  Ni  Ni145  1  0.33258953  0.51196053  0.79698410  1.0
  Ni  Ni146  1  0.33258953  0.84529387  0.79698410  1.0
  Ni  Ni147  1  0.66592287  0.17862720  0.79698410  1.0
  Ni  Ni148  1  0.66592287  0.51196053  0.79698410  1.0
  Ni  Ni149  1  0.66592287  0.84529387  0.79698410  1.0
  Ni  Ni150  1  0.99925620  0.17862720  0.79698410  1.0
  Ni  Ni151  1  0.99925620  0.51196053  0.79698410  1.0
  Ni  Ni152  1  0.99925620  0.84529387  0.79698410  1.0
  Ni  Ni153  1  0.23258953  0.07862720  0.74698410  1.0
  Ni  Ni154  1  0.23258953  0.41196053  0.74698410  1.0
  Ni  Ni155  1  0.23258953  0.74529387  0.74698410  1.0
  Ni  Ni156  1  0.56592287  0.07862720  0.74698410  1.0
  Ni  Ni157  1  0.56592287  0.41196053  0.74698410  1.0
  Ni  Ni158  1  0.56592287  0.74529387  0.74698410  1.0
  Ni  Ni159  1  0.89925620  0.07862720  0.74698410  1.0
  Ni  Ni160  1  0.89925620  0.41196053  0.74698410  1.0
  Ni  Ni161  1  0.89925620  0.74529387  0.74698410  1.0
  Ni  Ni162  1  0.30603180  0.29597880  0.65301590  1.0
  Ni  Ni163  1  0.30603180  0.62931213  0.65301590  1.0
  Ni  Ni164  1  0.30603180  0.96264547  0.65301590  1.0
  Ni  Ni165  1  0.63936513  0.29597880  0.65301590  1.0
  Ni  Ni166  1  0.63936513  0.62931213  0.65301590  1.0
  Ni  Ni167  1  0.63936513  0.96264547  0.65301590  1.0
  Ni  Ni168  1  0.97269847  0.29597880  0.65301590  1.0
  Ni  Ni169  1  0.97269847  0.62931213  0.65301590  1.0
  Ni  Ni170  1  0.97269847  0.96264547  0.65301590  1.0
  Ni  Ni171  1  0.20603180  0.19597880  0.60301590  1.0
  Ni  Ni172  1  0.20603180  0.52931213  0.60301590  1.0
  Ni  Ni173  1  0.20603180  0.86264547  0.60301590  1.0
  Ni  Ni174  1  0.53936513  0.19597880  0.60301590  1.0
  Ni  Ni175  1  0.53936513  0.52931213  0.60301590  1.0
  Ni  Ni176  1  0.53936513  0.86264547  0.60301590  1.0
  Ni  Ni177  1  0.87269847  0.19597880  0.60301590  1.0
  Ni  Ni178  1  0.87269847  0.52931213  0.60301590  1.0
  Ni  Ni179  1  0.87269847  0.86264547  0.60301590  1.0
  Ni  Ni180  1  0.14614073  0.27999707  0.60904770  1.0
  Ni  Ni181  1  0.14614073  0.61333040  0.60904770  1.0
  Ni  Ni182  1  0.14614073  0.94666373  0.60904770  1.0
  Ni  Ni183  1  0.47947407  0.27999707  0.60904770  1.0
  Ni  Ni184  1  0.47947407  0.61333040  0.60904770  1.0
  Ni  Ni185  1  0.47947407  0.94666373  0.60904770  1.0
  Ni  Ni186  1  0.81280740  0.27999707  0.60904770  1.0
  Ni  Ni187  1  0.81280740  0.61333040  0.60904770  1.0
  Ni  Ni188  1  0.81280740  0.94666373  0.60904770  1.0
  Ni  Ni189  1  0.24614073  0.04666373  0.65904770  1.0
  Ni  Ni190  1  0.24614073  0.37999707  0.65904770  1.0
  Ni  Ni191  1  0.24614073  0.71333040  0.65904770  1.0
  Ni  Ni192  1  0.57947407  0.04666373  0.65904770  1.0
  Ni  Ni193  1  0.57947407  0.37999707  0.65904770  1.0
  Ni  Ni194  1  0.57947407  0.71333040  0.65904770  1.0
  Ni  Ni195  1  0.91280740  0.04666373  0.65904770  1.0
  Ni  Ni196  1  0.91280740  0.37999707  0.65904770  1.0
  Ni  Ni197  1  0.91280740  0.71333040  0.65904770  1.0
  Ni  Ni198  1  0.13258953  0.31196053  0.69698410  1.0
  Ni  Ni199  1  0.13258953  0.64529387  0.69698410  1.0
  Ni  Ni200  1  0.13258953  0.97862720  0.69698410  1.0
  Ni  Ni201  1  0.46592287  0.31196053  0.69698410  1.0
  Ni  Ni202  1  0.46592287  0.64529387  0.69698410  1.0
  Ni  Ni203  1  0.46592287  0.97862720  0.69698410  1.0
  Ni  Ni204  1  0.79925620  0.31196053  0.69698410  1.0
  Ni  Ni205  1  0.79925620  0.64529387  0.69698410  1.0
  Ni  Ni206  1  0.79925620  0.97862720  0.69698410  1.0
  Ni  Ni207  1  0.03258953  0.21196053  0.64698410  1.0
  Ni  Ni208  1  0.03258953  0.54529387  0.64698410  1.0
  Ni  Ni209  1  0.03258953  0.87862720  0.64698410  1.0
  Ni  Ni210  1  0.36592287  0.21196053  0.64698410  1.0
  Ni  Ni211  1  0.36592287  0.54529387  0.64698410  1.0
  Ni  Ni212  1  0.36592287  0.87862720  0.64698410  1.0
  Ni  Ni213  1  0.69925620  0.21196053  0.64698410  1.0
  Ni  Ni214  1  0.69925620  0.54529387  0.64698410  1.0
  Ni  Ni215  1  0.69925620  0.87862720  0.64698410  1.0
  Sn  Sn216  1  0.02252533  0.29798633  0.91597450  1.0
  Sn  Sn217  1  0.02252533  0.63131967  0.91597450  1.0
  Sn  Sn218  1  0.02252533  0.96465300  0.91597450  1.0
  Sn  Sn219  1  0.35585867  0.29798633  0.91597450  1.0
  Sn  Sn220  1  0.35585867  0.63131967  0.91597450  1.0
  Sn  Sn221  1  0.35585867  0.96465300  0.91597450  1.0
  Sn  Sn222  1  0.68919200  0.29798633  0.91597450  1.0
  Sn  Sn223  1  0.68919200  0.63131967  0.91597450  1.0
  Sn  Sn224  1  0.68919200  0.96465300  0.91597450  1.0
  Sn  Sn225  1  0.12252533  0.06465300  0.96597450  1.0
  Sn  Sn226  1  0.12252533  0.39798633  0.96597450  1.0
  Sn  Sn227  1  0.12252533  0.73131967  0.96597450  1.0
  Sn  Sn228  1  0.45585867  0.06465300  0.96597450  1.0
  Sn  Sn229  1  0.45585867  0.39798633  0.96597450  1.0
  Sn  Sn230  1  0.45585867  0.73131967  0.96597450  1.0
  Sn  Sn231  1  0.78919200  0.06465300  0.96597450  1.0
  Sn  Sn232  1  0.78919200  0.39798633  0.96597450  1.0
  Sn  Sn233  1  0.78919200  0.73131967  0.96597450  1.0
  Sn  Sn234  1  0.12287160  0.16063793  0.99005730  1.0
  Sn  Sn235  1  0.12287160  0.49397127  0.99005730  1.0
  Sn  Sn236  1  0.12287160  0.82730460  0.99005730  1.0
  Sn  Sn237  1  0.45620493  0.16063793  0.99005730  1.0
  Sn  Sn238  1  0.45620493  0.49397127  0.99005730  1.0
  Sn  Sn239  1  0.45620493  0.82730460  0.99005730  1.0
  Sn  Sn240  1  0.78953827  0.16063793  0.99005730  1.0
  Sn  Sn241  1  0.78953827  0.49397127  0.99005730  1.0
  Sn  Sn242  1  0.78953827  0.82730460  0.99005730  1.0
  Sn  Sn243  1  0.02287160  0.06063793  0.94005730  1.0
  Sn  Sn244  1  0.02287160  0.39397127  0.94005730  1.0
  Sn  Sn245  1  0.02287160  0.72730460  0.94005730  1.0
  Sn  Sn246  1  0.35620493  0.06063793  0.94005730  1.0
  Sn  Sn247  1  0.35620493  0.39397127  0.94005730  1.0
  Sn  Sn248  1  0.35620493  0.72730460  0.94005730  1.0
  Sn  Sn249  1  0.68953827  0.06063793  0.94005730  1.0
  Sn  Sn250  1  0.68953827  0.39397127  0.94005730  1.0
  Sn  Sn251  1  0.68953827  0.72730460  0.94005730  1.0
  Sn  Sn252  1  0.14612793  0.25062693  0.93503530  1.0
  Sn  Sn253  1  0.14612793  0.58396027  0.93503530  1.0
  Sn  Sn254  1  0.14612793  0.91729360  0.93503530  1.0
  Sn  Sn255  1  0.47946127  0.25062693  0.93503530  1.0
  Sn  Sn256  1  0.47946127  0.58396027  0.93503530  1.0
  Sn  Sn257  1  0.47946127  0.91729360  0.93503530  1.0
  Sn  Sn258  1  0.81279460  0.25062693  0.93503530  1.0
  Sn  Sn259  1  0.81279460  0.58396027  0.93503530  1.0
  Sn  Sn260  1  0.81279460  0.91729360  0.93503530  1.0
  Sn  Sn261  1  0.24612793  0.01729360  0.98503530  1.0
  Sn  Sn262  1  0.24612793  0.35062693  0.98503530  1.0
  Sn  Sn263  1  0.24612793  0.68396027  0.98503530  1.0
  Sn  Sn264  1  0.57946127  0.01729360  0.98503530  1.0
  Sn  Sn265  1  0.57946127  0.35062693  0.98503530  1.0
  Sn  Sn266  1  0.57946127  0.68396027  0.98503530  1.0
  Sn  Sn267  1  0.91279460  0.01729360  0.98503530  1.0
  Sn  Sn268  1  0.91279460  0.35062693  0.98503530  1.0
  Sn  Sn269  1  0.91279460  0.68396027  0.98503530  1.0
  Sn  Sn270  1  0.33260233  0.20799733  0.97099650  1.0
  Sn  Sn271  1  0.33260233  0.54133067  0.97099650  1.0
  Sn  Sn272  1  0.33260233  0.87466400  0.97099650  1.0
  Sn  Sn273  1  0.66593567  0.20799733  0.97099650  1.0
  Sn  Sn274  1  0.66593567  0.54133067  0.97099650  1.0
  Sn  Sn275  1  0.66593567  0.87466400  0.97099650  1.0
  Sn  Sn276  1  0.99926900  0.20799733  0.97099650  1.0
  Sn  Sn277  1  0.99926900  0.54133067  0.97099650  1.0
  Sn  Sn278  1  0.99926900  0.87466400  0.97099650  1.0
  Sn  Sn279  1  0.23260233  0.10799733  0.92099650  1.0
  Sn  Sn280  1  0.23260233  0.44133067  0.92099650  1.0
  Sn  Sn281  1  0.23260233  0.77466400  0.92099650  1.0
  Sn  Sn282  1  0.56593567  0.10799733  0.92099650  1.0
  Sn  Sn283  1  0.56593567  0.44133067  0.92099650  1.0
  Sn  Sn284  1  0.56593567  0.77466400  0.92099650  1.0
  Sn  Sn285  1  0.89926900  0.10799733  0.92099650  1.0
  Sn  Sn286  1  0.89926900  0.44133067  0.92099650  1.0
  Sn  Sn287  1  0.89926900  0.77466400  0.92099650  1.0
  Sn  Sn288  1  0.15585867  0.09798633  0.81597450  1.0
  Sn  Sn289  1  0.15585867  0.43131967  0.81597450  1.0
  Sn  Sn290  1  0.15585867  0.76465300  0.81597450  1.0
  Sn  Sn291  1  0.48919200  0.09798633  0.81597450  1.0
  Sn  Sn292  1  0.48919200  0.43131967  0.81597450  1.0
  Sn  Sn293  1  0.48919200  0.76465300  0.81597450  1.0
  Sn  Sn294  1  0.82252533  0.09798633  0.81597450  1.0
  Sn  Sn295  1  0.82252533  0.43131967  0.81597450  1.0
  Sn  Sn296  1  0.82252533  0.76465300  0.81597450  1.0
  Sn  Sn297  1  0.25585867  0.19798633  0.86597450  1.0
  Sn  Sn298  1  0.25585867  0.53131967  0.86597450  1.0
  Sn  Sn299  1  0.25585867  0.86465300  0.86597450  1.0
  Sn  Sn300  1  0.58919200  0.19798633  0.86597450  1.0
  Sn  Sn301  1  0.58919200  0.53131967  0.86597450  1.0
  Sn  Sn302  1  0.58919200  0.86465300  0.86597450  1.0
  Sn  Sn303  1  0.92252533  0.19798633  0.86597450  1.0
  Sn  Sn304  1  0.92252533  0.53131967  0.86597450  1.0
  Sn  Sn305  1  0.92252533  0.86465300  0.86597450  1.0
  Sn  Sn306  1  0.25620493  0.29397127  0.89005730  1.0
  Sn  Sn307  1  0.25620493  0.62730460  0.89005730  1.0
  Sn  Sn308  1  0.25620493  0.96063793  0.89005730  1.0
  Sn  Sn309  1  0.58953827  0.29397127  0.89005730  1.0
  Sn  Sn310  1  0.58953827  0.62730460  0.89005730  1.0
  Sn  Sn311  1  0.58953827  0.96063793  0.89005730  1.0
  Sn  Sn312  1  0.92287160  0.29397127  0.89005730  1.0
  Sn  Sn313  1  0.92287160  0.62730460  0.89005730  1.0
  Sn  Sn314  1  0.92287160  0.96063793  0.89005730  1.0
  Sn  Sn315  1  0.15620493  0.19397127  0.84005730  1.0
  Sn  Sn316  1  0.15620493  0.52730460  0.84005730  1.0
  Sn  Sn317  1  0.15620493  0.86063793  0.84005730  1.0
  Sn  Sn318  1  0.48953827  0.19397127  0.84005730  1.0
  Sn  Sn319  1  0.48953827  0.52730460  0.84005730  1.0
  Sn  Sn320  1  0.48953827  0.86063793  0.84005730  1.0
  Sn  Sn321  1  0.82287160  0.19397127  0.84005730  1.0
  Sn  Sn322  1  0.82287160  0.52730460  0.84005730  1.0
  Sn  Sn323  1  0.82287160  0.86063793  0.84005730  1.0
  Sn  Sn324  1  0.27946127  0.05062693  0.83503530  1.0
  Sn  Sn325  1  0.27946127  0.38396027  0.83503530  1.0
  Sn  Sn326  1  0.27946127  0.71729360  0.83503530  1.0
  Sn  Sn327  1  0.61279460  0.05062693  0.83503530  1.0
  Sn  Sn328  1  0.61279460  0.38396027  0.83503530  1.0
  Sn  Sn329  1  0.61279460  0.71729360  0.83503530  1.0
  Sn  Sn330  1  0.94612793  0.05062693  0.83503530  1.0
  Sn  Sn331  1  0.94612793  0.38396027  0.83503530  1.0
  Sn  Sn332  1  0.94612793  0.71729360  0.83503530  1.0
  Sn  Sn333  1  0.04612793  0.15062693  0.88503530  1.0
  Sn  Sn334  1  0.04612793  0.48396027  0.88503530  1.0
  Sn  Sn335  1  0.04612793  0.81729360  0.88503530  1.0
  Sn  Sn336  1  0.37946127  0.15062693  0.88503530  1.0
  Sn  Sn337  1  0.37946127  0.48396027  0.88503530  1.0
  Sn  Sn338  1  0.37946127  0.81729360  0.88503530  1.0
  Sn  Sn339  1  0.71279460  0.15062693  0.88503530  1.0
  Sn  Sn340  1  0.71279460  0.48396027  0.88503530  1.0
  Sn  Sn341  1  0.71279460  0.81729360  0.88503530  1.0
  Sn  Sn342  1  0.13260233  0.00799733  0.87099650  1.0
  Sn  Sn343  1  0.13260233  0.34133067  0.87099650  1.0
  Sn  Sn344  1  0.13260233  0.67466400  0.87099650  1.0
  Sn  Sn345  1  0.46593567  0.00799733  0.87099650  1.0
  Sn  Sn346  1  0.46593567  0.34133067  0.87099650  1.0
  Sn  Sn347  1  0.46593567  0.67466400  0.87099650  1.0
  Sn  Sn348  1  0.79926900  0.00799733  0.87099650  1.0
  Sn  Sn349  1  0.79926900  0.34133067  0.87099650  1.0
  Sn  Sn350  1  0.79926900  0.67466400  0.87099650  1.0
  Sn  Sn351  1  0.03260233  0.24133067  0.82099650  1.0
  Sn  Sn352  1  0.03260233  0.57466400  0.82099650  1.0
  Sn  Sn353  1  0.03260233  0.90799733  0.82099650  1.0
  Sn  Sn354  1  0.36593567  0.24133067  0.82099650  1.0
  Sn  Sn355  1  0.36593567  0.57466400  0.82099650  1.0
  Sn  Sn356  1  0.36593567  0.90799733  0.82099650  1.0
  Sn  Sn357  1  0.69926900  0.24133067  0.82099650  1.0
  Sn  Sn358  1  0.69926900  0.57466400  0.82099650  1.0
  Sn  Sn359  1  0.69926900  0.90799733  0.82099650  1.0
  Sn  Sn360  1  0.28919200  0.23131967  0.71597450  1.0
  Sn  Sn361  1  0.28919200  0.56465300  0.71597450  1.0
  Sn  Sn362  1  0.28919200  0.89798633  0.71597450  1.0
  Sn  Sn363  1  0.62252533  0.23131967  0.71597450  1.0
  Sn  Sn364  1  0.62252533  0.56465300  0.71597450  1.0
  Sn  Sn365  1  0.62252533  0.89798633  0.71597450  1.0
  Sn  Sn366  1  0.95585867  0.23131967  0.71597450  1.0
  Sn  Sn367  1  0.95585867  0.56465300  0.71597450  1.0
  Sn  Sn368  1  0.95585867  0.89798633  0.71597450  1.0
  Sn  Sn369  1  0.05585867  0.33131967  0.76597450  1.0
  Sn  Sn370  1  0.05585867  0.66465300  0.76597450  1.0
  Sn  Sn371  1  0.05585867  0.99798633  0.76597450  1.0
  Sn  Sn372  1  0.38919200  0.33131967  0.76597450  1.0
  Sn  Sn373  1  0.38919200  0.66465300  0.76597450  1.0
  Sn  Sn374  1  0.38919200  0.99798633  0.76597450  1.0
  Sn  Sn375  1  0.72252533  0.33131967  0.76597450  1.0
  Sn  Sn376  1  0.72252533  0.66465300  0.76597450  1.0
  Sn  Sn377  1  0.72252533  0.99798633  0.76597450  1.0
  Sn  Sn378  1  0.05620493  0.09397127  0.79005730  1.0
  Sn  Sn379  1  0.05620493  0.42730460  0.79005730  1.0
  Sn  Sn380  1  0.05620493  0.76063793  0.79005730  1.0
  Sn  Sn381  1  0.38953827  0.09397127  0.79005730  1.0
  Sn  Sn382  1  0.38953827  0.42730460  0.79005730  1.0
  Sn  Sn383  1  0.38953827  0.76063793  0.79005730  1.0
  Sn  Sn384  1  0.72287160  0.09397127  0.79005730  1.0
  Sn  Sn385  1  0.72287160  0.42730460  0.79005730  1.0
  Sn  Sn386  1  0.72287160  0.76063793  0.79005730  1.0
  Sn  Sn387  1  0.28953827  0.32730460  0.74005730  1.0
  Sn  Sn388  1  0.28953827  0.66063793  0.74005730  1.0
  Sn  Sn389  1  0.28953827  0.99397127  0.74005730  1.0
  Sn  Sn390  1  0.62287160  0.32730460  0.74005730  1.0
  Sn  Sn391  1  0.62287160  0.66063793  0.74005730  1.0
  Sn  Sn392  1  0.62287160  0.99397127  0.74005730  1.0
  Sn  Sn393  1  0.95620493  0.32730460  0.74005730  1.0
  Sn  Sn394  1  0.95620493  0.66063793  0.74005730  1.0
  Sn  Sn395  1  0.95620493  0.99397127  0.74005730  1.0
  Sn  Sn396  1  0.07946127  0.18396027  0.73503530  1.0
  Sn  Sn397  1  0.07946127  0.51729360  0.73503530  1.0
  Sn  Sn398  1  0.07946127  0.85062693  0.73503530  1.0
  Sn  Sn399  1  0.41279460  0.18396027  0.73503530  1.0
  Sn  Sn400  1  0.41279460  0.51729360  0.73503530  1.0
  Sn  Sn401  1  0.41279460  0.85062693  0.73503530  1.0
  Sn  Sn402  1  0.74612793  0.18396027  0.73503530  1.0
  Sn  Sn403  1  0.74612793  0.51729360  0.73503530  1.0
  Sn  Sn404  1  0.74612793  0.85062693  0.73503530  1.0
  Sn  Sn405  1  0.17946127  0.28396027  0.78503530  1.0
  Sn  Sn406  1  0.17946127  0.61729360  0.78503530  1.0
  Sn  Sn407  1  0.17946127  0.95062693  0.78503530  1.0
  Sn  Sn408  1  0.51279460  0.28396027  0.78503530  1.0
  Sn  Sn409  1  0.51279460  0.61729360  0.78503530  1.0
  Sn  Sn410  1  0.51279460  0.95062693  0.78503530  1.0
  Sn  Sn411  1  0.84612793  0.28396027  0.78503530  1.0
  Sn  Sn412  1  0.84612793  0.61729360  0.78503530  1.0
  Sn  Sn413  1  0.84612793  0.95062693  0.78503530  1.0
  Sn  Sn414  1  0.26593567  0.14133067  0.77099650  1.0
  Sn  Sn415  1  0.26593567  0.47466400  0.77099650  1.0
  Sn  Sn416  1  0.26593567  0.80799733  0.77099650  1.0
  Sn  Sn417  1  0.59926900  0.14133067  0.77099650  1.0
  Sn  Sn418  1  0.59926900  0.47466400  0.77099650  1.0
  Sn  Sn419  1  0.59926900  0.80799733  0.77099650  1.0
  Sn  Sn420  1  0.93260233  0.14133067  0.77099650  1.0
  Sn  Sn421  1  0.93260233  0.47466400  0.77099650  1.0
  Sn  Sn422  1  0.93260233  0.80799733  0.77099650  1.0
  Sn  Sn423  1  0.16593567  0.04133067  0.72099650  1.0
  Sn  Sn424  1  0.16593567  0.37466400  0.72099650  1.0
  Sn  Sn425  1  0.16593567  0.70799733  0.72099650  1.0
  Sn  Sn426  1  0.49926900  0.04133067  0.72099650  1.0
  Sn  Sn427  1  0.49926900  0.37466400  0.72099650  1.0
  Sn  Sn428  1  0.49926900  0.70799733  0.72099650  1.0
  Sn  Sn429  1  0.83260233  0.04133067  0.72099650  1.0
  Sn  Sn430  1  0.83260233  0.37466400  0.72099650  1.0
  Sn  Sn431  1  0.83260233  0.70799733  0.72099650  1.0
  Sn  Sn432  1  0.08919200  0.03131967  0.61597450  1.0
  Sn  Sn433  1  0.08919200  0.36465300  0.61597450  1.0
  Sn  Sn434  1  0.08919200  0.69798633  0.61597450  1.0
  Sn  Sn435  1  0.42252533  0.03131967  0.61597450  1.0
  Sn  Sn436  1  0.42252533  0.36465300  0.61597450  1.0
  Sn  Sn437  1  0.42252533  0.69798633  0.61597450  1.0
  Sn  Sn438  1  0.75585867  0.03131967  0.61597450  1.0
  Sn  Sn439  1  0.75585867  0.36465300  0.61597450  1.0
  Sn  Sn440  1  0.75585867  0.69798633  0.61597450  1.0
  Sn  Sn441  1  0.18919200  0.13131967  0.66597450  1.0
  Sn  Sn442  1  0.18919200  0.46465300  0.66597450  1.0
  Sn  Sn443  1  0.18919200  0.79798633  0.66597450  1.0
  Sn  Sn444  1  0.52252533  0.13131967  0.66597450  1.0
  Sn  Sn445  1  0.52252533  0.46465300  0.66597450  1.0
  Sn  Sn446  1  0.52252533  0.79798633  0.66597450  1.0
  Sn  Sn447  1  0.85585867  0.13131967  0.66597450  1.0
  Sn  Sn448  1  0.85585867  0.46465300  0.66597450  1.0
  Sn  Sn449  1  0.85585867  0.79798633  0.66597450  1.0
  Sn  Sn450  1  0.18953827  0.22730460  0.69005730  1.0
  Sn  Sn451  1  0.18953827  0.56063793  0.69005730  1.0
  Sn  Sn452  1  0.18953827  0.89397127  0.69005730  1.0
  Sn  Sn453  1  0.52287160  0.22730460  0.69005730  1.0
  Sn  Sn454  1  0.52287160  0.56063793  0.69005730  1.0
  Sn  Sn455  1  0.52287160  0.89397127  0.69005730  1.0
  Sn  Sn456  1  0.85620493  0.22730460  0.69005730  1.0
  Sn  Sn457  1  0.85620493  0.56063793  0.69005730  1.0
  Sn  Sn458  1  0.85620493  0.89397127  0.69005730  1.0
  Sn  Sn459  1  0.08953827  0.12730460  0.64005730  1.0
  Sn  Sn460  1  0.08953827  0.46063793  0.64005730  1.0
  Sn  Sn461  1  0.08953827  0.79397127  0.64005730  1.0
  Sn  Sn462  1  0.42287160  0.12730460  0.64005730  1.0
  Sn  Sn463  1  0.42287160  0.46063793  0.64005730  1.0
  Sn  Sn464  1  0.42287160  0.79397127  0.64005730  1.0
  Sn  Sn465  1  0.75620493  0.12730460  0.64005730  1.0
  Sn  Sn466  1  0.75620493  0.46063793  0.64005730  1.0
  Sn  Sn467  1  0.75620493  0.79397127  0.64005730  1.0
  Sn  Sn468  1  0.21279460  0.31729360  0.63503530  1.0
  Sn  Sn469  1  0.21279460  0.65062693  0.63503530  1.0
  Sn  Sn470  1  0.21279460  0.98396027  0.63503530  1.0
  Sn  Sn471  1  0.54612793  0.31729360  0.63503530  1.0
  Sn  Sn472  1  0.54612793  0.65062693  0.63503530  1.0
  Sn  Sn473  1  0.54612793  0.98396027  0.63503530  1.0
  Sn  Sn474  1  0.87946127  0.31729360  0.63503530  1.0
  Sn  Sn475  1  0.87946127  0.65062693  0.63503530  1.0
  Sn  Sn476  1  0.87946127  0.98396027  0.63503530  1.0
  Sn  Sn477  1  0.31279460  0.08396027  0.68503530  1.0
  Sn  Sn478  1  0.31279460  0.41729360  0.68503530  1.0
  Sn  Sn479  1  0.31279460  0.75062693  0.68503530  1.0
  Sn  Sn480  1  0.64612793  0.08396027  0.68503530  1.0
  Sn  Sn481  1  0.64612793  0.41729360  0.68503530  1.0
  Sn  Sn482  1  0.64612793  0.75062693  0.68503530  1.0
  Sn  Sn483  1  0.97946127  0.08396027  0.68503530  1.0
  Sn  Sn484  1  0.97946127  0.41729360  0.68503530  1.0
  Sn  Sn485  1  0.97946127  0.75062693  0.68503530  1.0
  Sn  Sn486  1  0.06593567  0.27466400  0.67099650  1.0
  Sn  Sn487  1  0.06593567  0.60799733  0.67099650  1.0
  Sn  Sn488  1  0.06593567  0.94133067  0.67099650  1.0
  Sn  Sn489  1  0.39926900  0.27466400  0.67099650  1.0
  Sn  Sn490  1  0.39926900  0.60799733  0.67099650  1.0
  Sn  Sn491  1  0.39926900  0.94133067  0.67099650  1.0
  Sn  Sn492  1  0.73260233  0.27466400  0.67099650  1.0
  Sn  Sn493  1  0.73260233  0.60799733  0.67099650  1.0
  Sn  Sn494  1  0.73260233  0.94133067  0.67099650  1.0
  Sn  Sn495  1  0.29926900  0.17466400  0.62099650  1.0
  Sn  Sn496  1  0.29926900  0.50799733  0.62099650  1.0
  Sn  Sn497  1  0.29926900  0.84133067  0.62099650  1.0
  Sn  Sn498  1  0.63260233  0.17466400  0.62099650  1.0
  Sn  Sn499  1  0.63260233  0.50799733  0.62099650  1.0
  Sn  Sn500  1  0.63260233  0.84133067  0.62099650  1.0
  Sn  Sn501  1  0.96593567  0.17466400  0.62099650  1.0
  Sn  Sn502  1  0.96593567  0.50799733  0.62099650  1.0
  Sn  Sn503  1  0.96593567  0.84133067  0.62099650  1.0
