# generated using pymatgen
data_Ni3Sn4
_symmetry_space_group_name_H-M   'P 1'
_cell_length_a   19.41748374
_cell_length_b   21.78041209
_cell_length_c   47.43408924
_cell_angle_alpha   59.71440824
_cell_angle_beta   75.60505407
_cell_angle_gamma   122.18840364
_symmetry_Int_Tables_number   1
_chemical_formula_structural   Ni3Sn4
_chemical_formula_sum   'Ni108 Sn144'
_cell_volume   10356.48937697
_cell_formula_units_Z   36
loop_
 _symmetry_equiv_pos_site_id
 _symmetry_equiv_pos_as_xyz
  1  'x, y, z'
loop_
 _atom_site_type_symbol
 _atom_site_label
 _atom_site_symmetry_multiplicity
 _atom_site_fract_x
 _atom_site_fract_y
 _atom_site_fract_z
 _atom_site_occupancy
  Ni  Ni0  1  0.00000000  0.00000000  0.10440911  1.0
  Ni  Ni1  1  0.00000000  0.33333333  0.10440911  1.0
  Ni  Ni2  1  0.00000000  0.66666667  0.10440911  1.0
  Ni  Ni3  1  0.33333333  0.00000000  0.10440911  1.0
  Ni  Ni4  1  0.33333333  0.33333333  0.10440911  1.0
  Ni  Ni5  1  0.33333333  0.66666667  0.10440911  1.0
  Ni  Ni6  1  0.66666667  0.00000000  0.10440911  1.0
  Ni  Ni7  1  0.66666667  0.33333333  0.10440911  1.0
  Ni  Ni8  1  0.66666667  0.66666667  0.10440911  1.0
  Ni  Ni9  1  0.26137867  0.07195467  0.00670200  1.0
  Ni  Ni10  1  0.26137867  0.40528800  0.00670200  1.0
  Ni  Ni11  1  0.26137867  0.73862133  0.00670200  1.0
  Ni  Ni12  1  0.59471200  0.07195467  0.00670200  1.0
  Ni  Ni13  1  0.59471200  0.40528800  0.00670200  1.0
  Ni  Ni14  1  0.59471200  0.73862133  0.00670200  1.0
  Ni  Ni15  1  0.92804533  0.07195467  0.00670200  1.0
  Ni  Ni16  1  0.92804533  0.40528800  0.00670200  1.0
  Ni  Ni17  1  0.92804533  0.73862133  0.00670200  1.0
  Ni  Ni18  1  0.07195467  0.26137867  0.09100511  1.0
  Ni  Ni19  1  0.07195467  0.59471200  0.09100511  1.0
  Ni  Ni20  1  0.07195467  0.92804533  0.09100511  1.0
  Ni  Ni21  1  0.40528800  0.26137867  0.09100511  1.0
  Ni  Ni22  1  0.40528800  0.59471200  0.09100511  1.0
  Ni  Ni23  1  0.40528800  0.92804533  0.09100511  1.0
  Ni  Ni24  1  0.73862133  0.26137867  0.09100511  1.0
  Ni  Ni25  1  0.73862133  0.59471200  0.09100511  1.0
  Ni  Ni26  1  0.73862133  0.92804533  0.09100511  1.0
  Sn  Sn27  1  0.19057633  0.14275700  0.02209489  1.0
  Sn  Sn28  1  0.19057633  0.47609033  0.02209489  1.0
  Sn  Sn29  1  0.19057633  0.80942367  0.02209489  1.0
  Sn  Sn30  1  0.52390967  0.14275700  0.02209489  1.0
  Sn  Sn31  1  0.52390967  0.47609033  0.02209489  1.0
  Sn  Sn32  1  0.52390967  0.80942367  0.02209489  1.0
  Sn  Sn33  1  0.85724300  0.14275700  0.02209489  1.0
  Sn  Sn34  1  0.85724300  0.47609033  0.02209489  1.0
  Sn  Sn35  1  0.85724300  0.80942367  0.02209489  1.0
  Sn  Sn36  1  0.14275700  0.19057633  0.07561222  1.0
  Sn  Sn37  1  0.14275700  0.52390967  0.07561222  1.0
  Sn  Sn38  1  0.14275700  0.85724300  0.07561222  1.0
  Sn  Sn39  1  0.47609033  0.19057633  0.07561222  1.0
  Sn  Sn40  1  0.47609033  0.52390967  0.07561222  1.0
  Sn  Sn41  1  0.47609033  0.85724300  0.07561222  1.0
  Sn  Sn42  1  0.80942367  0.19057633  0.07561222  1.0
  Sn  Sn43  1  0.80942367  0.52390967  0.07561222  1.0
  Sn  Sn44  1  0.80942367  0.85724300  0.07561222  1.0
  Sn  Sn45  1  0.27605733  0.05727600  0.06445222  1.0
  Sn  Sn46  1  0.27605733  0.39060933  0.06445222  1.0
  Sn  Sn47  1  0.27605733  0.72394267  0.06445222  1.0
  Sn  Sn48  1  0.60939067  0.05727600  0.06445222  1.0
  Sn  Sn49  1  0.60939067  0.39060933  0.06445222  1.0
  Sn  Sn50  1  0.60939067  0.72394267  0.06445222  1.0
  Sn  Sn51  1  0.94272400  0.05727600  0.06445222  1.0
  Sn  Sn52  1  0.94272400  0.39060933  0.06445222  1.0
  Sn  Sn53  1  0.94272400  0.72394267  0.06445222  1.0
  Sn  Sn54  1  0.05727600  0.27605733  0.03325489  1.0
  Sn  Sn55  1  0.05727600  0.60939067  0.03325489  1.0
  Sn  Sn56  1  0.05727600  0.94272400  0.03325489  1.0
  Sn  Sn57  1  0.39060933  0.27605733  0.03325489  1.0
  Sn  Sn58  1  0.39060933  0.60939067  0.03325489  1.0
  Sn  Sn59  1  0.39060933  0.94272400  0.03325489  1.0
  Sn  Sn60  1  0.72394267  0.27605733  0.03325489  1.0
  Sn  Sn61  1  0.72394267  0.60939067  0.03325489  1.0
  Sn  Sn62  1  0.72394267  0.94272400  0.03325489  1.0
  Ni  Ni63  1  0.00000000  0.00000000  0.21552022  1.0
  Ni  Ni64  1  0.00000000  0.33333333  0.21552022  1.0
  Ni  Ni65  1  0.00000000  0.66666667  0.21552022  1.0
  Ni  Ni66  1  0.33333333  0.00000000  0.21552022  1.0
  Ni  Ni67  1  0.33333333  0.33333333  0.21552022  1.0
  Ni  Ni68  1  0.33333333  0.66666667  0.21552022  1.0
  Ni  Ni69  1  0.66666667  0.00000000  0.21552022  1.0
  Ni  Ni70  1  0.66666667  0.33333333  0.21552022  1.0
  Ni  Ni71  1  0.66666667  0.66666667  0.21552022  1.0
  Ni  Ni72  1  0.26137867  0.07195467  0.11781311  1.0
  Ni  Ni73  1  0.26137867  0.40528800  0.11781311  1.0
  Ni  Ni74  1  0.26137867  0.73862133  0.11781311  1.0
  Ni  Ni75  1  0.59471200  0.07195467  0.11781311  1.0
  Ni  Ni76  1  0.59471200  0.40528800  0.11781311  1.0
  Ni  Ni77  1  0.59471200  0.73862133  0.11781311  1.0
  Ni  Ni78  1  0.92804533  0.07195467  0.11781311  1.0
  Ni  Ni79  1  0.92804533  0.40528800  0.11781311  1.0
  Ni  Ni80  1  0.92804533  0.73862133  0.11781311  1.0
  Ni  Ni81  1  0.07195467  0.26137867  0.20211622  1.0
  Ni  Ni82  1  0.07195467  0.59471200  0.20211622  1.0
  Ni  Ni83  1  0.07195467  0.92804533  0.20211622  1.0
  Ni  Ni84  1  0.40528800  0.26137867  0.20211622  1.0
  Ni  Ni85  1  0.40528800  0.59471200  0.20211622  1.0
  Ni  Ni86  1  0.40528800  0.92804533  0.20211622  1.0
  Ni  Ni87  1  0.73862133  0.26137867  0.20211622  1.0
  Ni  Ni88  1  0.73862133  0.59471200  0.20211622  1.0
  Ni  Ni89  1  0.73862133  0.92804533  0.20211622  1.0
  Sn  Sn90  1  0.19057633  0.14275700  0.13320600  1.0
  Sn  Sn91  1  0.19057633  0.47609033  0.13320600  1.0
  Sn  Sn92  1  0.19057633  0.80942367  0.13320600  1.0
  Sn  Sn93  1  0.52390967  0.14275700  0.13320600  1.0
  Sn  Sn94  1  0.52390967  0.47609033  0.13320600  1.0
  Sn  Sn95  1  0.52390967  0.80942367  0.13320600  1.0
  Sn  Sn96  1  0.85724300  0.14275700  0.13320600  1.0
  Sn  Sn97  1  0.85724300  0.47609033  0.13320600  1.0
  Sn  Sn98  1  0.85724300  0.80942367  0.13320600  1.0
  Sn  Sn99  1  0.14275700  0.19057633  0.18672333  1.0
  Sn  Sn100  1  0.14275700  0.52390967  0.18672333  1.0
  Sn  Sn101  1  0.14275700  0.85724300  0.18672333  1.0
  Sn  Sn102  1  0.47609033  0.19057633  0.18672333  1.0
  Sn  Sn103  1  0.47609033  0.52390967  0.18672333  1.0
  Sn  Sn104  1  0.47609033  0.85724300  0.18672333  1.0
  Sn  Sn105  1  0.80942367  0.19057633  0.18672333  1.0
  Sn  Sn106  1  0.80942367  0.52390967  0.18672333  1.0
  Sn  Sn107  1  0.80942367  0.85724300  0.18672333  1.0
  Sn  Sn108  1  0.27605733  0.05727600  0.17556333  1.0
  Sn  Sn109  1  0.27605733  0.39060933  0.17556333  1.0
  Sn  Sn110  1  0.27605733  0.72394267  0.17556333  1.0
  Sn  Sn111  1  0.60939067  0.05727600  0.17556333  1.0
  Sn  Sn112  1  0.60939067  0.39060933  0.17556333  1.0
  Sn  Sn113  1  0.60939067  0.72394267  0.17556333  1.0
  Sn  Sn114  1  0.94272400  0.05727600  0.17556333  1.0
  Sn  Sn115  1  0.94272400  0.39060933  0.17556333  1.0
  Sn  Sn116  1  0.94272400  0.72394267  0.17556333  1.0
  Sn  Sn117  1  0.05727600  0.27605733  0.14436600  1.0
  Sn  Sn118  1  0.05727600  0.60939067  0.14436600  1.0
  Sn  Sn119  1  0.05727600  0.94272400  0.14436600  1.0
  Sn  Sn120  1  0.39060933  0.27605733  0.14436600  1.0
  Sn  Sn121  1  0.39060933  0.60939067  0.14436600  1.0
  Sn  Sn122  1  0.39060933  0.94272400  0.14436600  1.0
  Sn  Sn123  1  0.72394267  0.27605733  0.14436600  1.0
  Sn  Sn124  1  0.72394267  0.60939067  0.14436600  1.0
  Sn  Sn125  1  0.72394267  0.94272400  0.14436600  1.0
  Ni  Ni126  1  0.00000000  0.00000000  0.32663133  1.0
  Ni  Ni127  1  0.00000000  0.33333333  0.32663133  1.0
  Ni  Ni128  1  0.00000000  0.66666667  0.32663133  1.0
  Ni  Ni129  1  0.33333333  0.00000000  0.32663133  1.0
  Ni  Ni130  1  0.33333333  0.33333333  0.32663133  1.0
  Ni  Ni131  1  0.33333333  0.66666667  0.32663133  1.0
  Ni  Ni132  1  0.66666667  0.00000000  0.32663133  1.0
  Ni  Ni133  1  0.66666667  0.33333333  0.32663133  1.0
  Ni  Ni134  1  0.66666667  0.66666667  0.32663133  1.0
  Ni  Ni135  1  0.26137867  0.07195467  0.22892422  1.0
  Ni  Ni136  1  0.26137867  0.40528800  0.22892422  1.0
  Ni  Ni137  1  0.26137867  0.73862133  0.22892422  1.0
  Ni  Ni138  1  0.59471200  0.07195467  0.22892422  1.0
  Ni  Ni139  1  0.59471200  0.40528800  0.22892422  1.0
  Ni  Ni140  1  0.59471200  0.73862133  0.22892422  1.0
  Ni  Ni141  1  0.92804533  0.07195467  0.22892422  1.0
  Ni  Ni142  1  0.92804533  0.40528800  0.22892422  1.0
  Ni  Ni143  1  0.92804533  0.73862133  0.22892422  1.0
  Ni  Ni144  1  0.07195467  0.26137867  0.31322733  1.0
  Ni  Ni145  1  0.07195467  0.59471200  0.31322733  1.0
  Ni  Ni146  1  0.07195467  0.92804533  0.31322733  1.0
  Ni  Ni147  1  0.40528800  0.26137867  0.31322733  1.0
  Ni  Ni148  1  0.40528800  0.59471200  0.31322733  1.0
  Ni  Ni149  1  0.40528800  0.92804533  0.31322733  1.0
  Ni  Ni150  1  0.73862133  0.26137867  0.31322733  1.0
  Ni  Ni151  1  0.73862133  0.59471200  0.31322733  1.0
  Ni  Ni152  1  0.73862133  0.92804533  0.31322733  1.0
  Sn  Sn153  1  0.19057633  0.14275700  0.24431711  1.0
  Sn  Sn154  1  0.19057633  0.47609033  0.24431711  1.0
  Sn  Sn155  1  0.19057633  0.80942367  0.24431711  1.0
  Sn  Sn156  1  0.52390967  0.14275700  0.24431711  1.0
  Sn  Sn157  1  0.52390967  0.47609033  0.24431711  1.0
  Sn  Sn158  1  0.52390967  0.80942367  0.24431711  1.0
  Sn  Sn159  1  0.85724300  0.14275700  0.24431711  1.0
  Sn  Sn160  1  0.85724300  0.47609033  0.24431711  1.0
  Sn  Sn161  1  0.85724300  0.80942367  0.24431711  1.0
  Sn  Sn162  1  0.14275700  0.19057633  0.29783444  1.0
  Sn  Sn163  1  0.14275700  0.52390967  0.29783444  1.0
  Sn  Sn164  1  0.14275700  0.85724300  0.29783444  1.0
  Sn  Sn165  1  0.47609033  0.19057633  0.29783444  1.0
  Sn  Sn166  1  0.47609033  0.52390967  0.29783444  1.0
  Sn  Sn167  1  0.47609033  0.85724300  0.29783444  1.0
  Sn  Sn168  1  0.80942367  0.19057633  0.29783444  1.0
  Sn  Sn169  1  0.80942367  0.52390967  0.29783444  1.0
  Sn  Sn170  1  0.80942367  0.85724300  0.29783444  1.0
  Sn  Sn171  1  0.27605733  0.05727600  0.28667444  1.0
  Sn  Sn172  1  0.27605733  0.39060933  0.28667444  1.0
  Sn  Sn173  1  0.27605733  0.72394267  0.28667444  1.0
  Sn  Sn174  1  0.60939067  0.05727600  0.28667444  1.0
  Sn  Sn175  1  0.60939067  0.39060933  0.28667444  1.0
  Sn  Sn176  1  0.60939067  0.72394267  0.28667444  1.0
  Sn  Sn177  1  0.94272400  0.05727600  0.28667444  1.0
  Sn  Sn178  1  0.94272400  0.39060933  0.28667444  1.0
  Sn  Sn179  1  0.94272400  0.72394267  0.28667444  1.0
  Sn  Sn180  1  0.05727600  0.27605733  0.25547711  1.0
  Sn  Sn181  1  0.05727600  0.60939067  0.25547711  1.0
  Sn  Sn182  1  0.05727600  0.94272400  0.25547711  1.0
  Sn  Sn183  1  0.39060933  0.27605733  0.25547711  1.0
  Sn  Sn184  1  0.39060933  0.60939067  0.25547711  1.0
  Sn  Sn185  1  0.39060933  0.94272400  0.25547711  1.0
  Sn  Sn186  1  0.72394267  0.27605733  0.25547711  1.0
  Sn  Sn187  1  0.72394267  0.60939067  0.25547711  1.0
  Sn  Sn188  1  0.72394267  0.94272400  0.25547711  1.0
  Ni  Ni189  1  0.00000000  0.00000000  0.43774244  1.0
  Ni  Ni190  1  0.00000000  0.33333333  0.43774244  1.0
  Ni  Ni191  1  0.00000000  0.66666667  0.43774244  1.0
  Ni  Ni192  1  0.33333333  0.00000000  0.43774244  1.0
  Ni  Ni193  1  0.33333333  0.33333333  0.43774244  1.0
  Ni  Ni194  1  0.33333333  0.66666667  0.43774244  1.0
  Ni  Ni195  1  0.66666667  0.00000000  0.43774244  1.0
  Ni  Ni196  1  0.66666667  0.33333333  0.43774244  1.0
  Ni  Ni197  1  0.66666667  0.66666667  0.43774244  1.0
  Ni  Ni198  1  0.26137867  0.07195467  0.34003533  1.0
  Ni  Ni199  1  0.26137867  0.40528800  0.34003533  1.0
  Ni  Ni200  1  0.26137867  0.73862133  0.34003533  1.0
  Ni  Ni201  1  0.59471200  0.07195467  0.34003533  1.0
  Ni  Ni202  1  0.59471200  0.40528800  0.34003533  1.0
  Ni  Ni203  1  0.59471200  0.73862133  0.34003533  1.0
  Ni  Ni204  1  0.92804533  0.07195467  0.34003533  1.0
  Ni  Ni205  1  0.92804533  0.40528800  0.34003533  1.0
  Ni  Ni206  1  0.92804533  0.73862133  0.34003533  1.0
  Ni  Ni207  1  0.07195467  0.26137867  0.42433844  1.0
  Ni  Ni208  1  0.07195467  0.59471200  0.42433844  1.0
  Ni  Ni209  1  0.07195467  0.92804533  0.42433844  1.0
  Ni  Ni210  1  0.40528800  0.26137867  0.42433844  1.0
  Ni  Ni211  1  0.40528800  0.59471200  0.42433844  1.0
  Ni  Ni212  1  0.40528800  0.92804533  0.42433844  1.0
  Ni  Ni213  1  0.73862133  0.26137867  0.42433844  1.0
  Ni  Ni214  1  0.73862133  0.59471200  0.42433844  1.0
  Ni  Ni215  1  0.73862133  0.92804533  0.42433844  1.0
  Sn  Sn216  1  0.19057633  0.14275700  0.35542822  1.0
  Sn  Sn217  1  0.19057633  0.47609033  0.35542822  1.0
  Sn  Sn218  1  0.19057633  0.80942367  0.35542822  1.0
  Sn  Sn219  1  0.52390967  0.14275700  0.35542822  1.0
  Sn  Sn220  1  0.52390967  0.47609033  0.35542822  1.0
  Sn  Sn221  1  0.52390967  0.80942367  0.35542822  1.0
  Sn  Sn222  1  0.85724300  0.14275700  0.35542822  1.0
  Sn  Sn223  1  0.85724300  0.47609033  0.35542822  1.0
  Sn  Sn224  1  0.85724300  0.80942367  0.35542822  1.0
  Sn  Sn225  1  0.14275700  0.19057633  0.40894556  1.0
  Sn  Sn226  1  0.14275700  0.52390967  0.40894556  1.0
  Sn  Sn227  1  0.14275700  0.85724300  0.40894556  1.0
  Sn  Sn228  1  0.47609033  0.19057633  0.40894556  1.0
  Sn  Sn229  1  0.47609033  0.52390967  0.40894556  1.0
  Sn  Sn230  1  0.47609033  0.85724300  0.40894556  1.0
  Sn  Sn231  1  0.80942367  0.19057633  0.40894556  1.0
  Sn  Sn232  1  0.80942367  0.52390967  0.40894556  1.0
  Sn  Sn233  1  0.80942367  0.85724300  0.40894556  1.0
  Sn  Sn234  1  0.27605733  0.05727600  0.39778556  1.0
  Sn  Sn235  1  0.27605733  0.39060933  0.39778556  1.0
  Sn  Sn236  1  0.27605733  0.72394267  0.39778556  1.0
  Sn  Sn237  1  0.60939067  0.05727600  0.39778556  1.0
  Sn  Sn238  1  0.60939067  0.39060933  0.39778556  1.0
  Sn  Sn239  1  0.60939067  0.72394267  0.39778556  1.0
  Sn  Sn240  1  0.94272400  0.05727600  0.39778556  1.0
  Sn  Sn241  1  0.94272400  0.39060933  0.39778556  1.0
  Sn  Sn242  1  0.94272400  0.72394267  0.39778556  1.0
  Sn  Sn243  1  0.05727600  0.27605733  0.36658822  1.0
  Sn  Sn244  1  0.05727600  0.60939067  0.36658822  1.0
  Sn  Sn245  1  0.05727600  0.94272400  0.36658822  1.0
  Sn  Sn246  1  0.39060933  0.27605733  0.36658822  1.0
  Sn  Sn247  1  0.39060933  0.60939067  0.36658822  1.0
  Sn  Sn248  1  0.39060933  0.94272400  0.36658822  1.0
  Sn  Sn249  1  0.72394267  0.27605733  0.36658822  1.0
  Sn  Sn250  1  0.72394267  0.60939067  0.36658822  1.0
  Sn  Sn251  1  0.72394267  0.94272400  0.36658822  1.0
