# generated using pymatgen
data_Ni3Sb
_symmetry_space_group_name_H-M   'P 1'
_cell_length_a   18.65519139
_cell_length_b   34.41702364
_cell_length_c   42.57903000
_cell_angle_alpha   111.78625469
_cell_angle_beta   133.21412320
_cell_angle_gamma   75.27778418
_symmetry_Int_Tables_number   1
_chemical_formula_structural   Ni3Sb
_chemical_formula_sum   'Ni432 Sb144'
_cell_volume   18500.94889599
_cell_formula_units_Z   144
loop_
 _symmetry_equiv_pos_site_id
 _symmetry_equiv_pos_as_xyz
  1  'x, y, z'
loop_
 _atom_site_type_symbol
 _atom_site_label
 _atom_site_symmetry_multiplicity
 _atom_site_fract_x
 _atom_site_fract_y
 _atom_site_fract_z
 _atom_site_occupancy
  Ni  Ni0  1  0.27665700  0.12501883  0.07036015  1.0
  Ni  Ni1  1  0.27665700  0.45835217  0.07036015  1.0
  Ni  Ni2  1  0.27665700  0.79168550  0.07036015  1.0
  Ni  Ni3  1  0.60999033  0.12501883  0.07036015  1.0
  Ni  Ni4  1  0.60999033  0.45835217  0.07036015  1.0
  Ni  Ni5  1  0.60999033  0.79168550  0.07036015  1.0
  Ni  Ni6  1  0.94332367  0.12501883  0.07036015  1.0
  Ni  Ni7  1  0.94332367  0.45835217  0.07036015  1.0
  Ni  Ni8  1  0.94332367  0.79168550  0.07036015  1.0
  Ni  Ni9  1  0.27665700  0.29168550  0.02036015  1.0
  Ni  Ni10  1  0.27665700  0.62501883  0.02036015  1.0
  Ni  Ni11  1  0.27665700  0.95835217  0.02036015  1.0
  Ni  Ni12  1  0.60999033  0.29168550  0.02036015  1.0
  Ni  Ni13  1  0.60999033  0.62501883  0.02036015  1.0
  Ni  Ni14  1  0.60999033  0.95835217  0.02036015  1.0
  Ni  Ni15  1  0.94332367  0.29168550  0.02036015  1.0
  Ni  Ni16  1  0.94332367  0.62501883  0.02036015  1.0
  Ni  Ni17  1  0.94332367  0.95835217  0.02036015  1.0
  Ni  Ni18  1  0.27665700  0.04164783  0.04534885  1.0
  Ni  Ni19  1  0.27665700  0.37498117  0.04534885  1.0
  Ni  Ni20  1  0.27665700  0.70831450  0.04534885  1.0
  Ni  Ni21  1  0.60999033  0.04164783  0.04534885  1.0
  Ni  Ni22  1  0.60999033  0.37498117  0.04534885  1.0
  Ni  Ni23  1  0.60999033  0.70831450  0.04534885  1.0
  Ni  Ni24  1  0.94332367  0.04164783  0.04534885  1.0
  Ni  Ni25  1  0.94332367  0.37498117  0.04534885  1.0
  Ni  Ni26  1  0.94332367  0.70831450  0.04534885  1.0
  Ni  Ni27  1  0.27665700  0.20831450  0.09534885  1.0
  Ni  Ni28  1  0.27665700  0.54164783  0.09534885  1.0
  Ni  Ni29  1  0.27665700  0.87498117  0.09534885  1.0
  Ni  Ni30  1  0.60999033  0.20831450  0.09534885  1.0
  Ni  Ni31  1  0.60999033  0.54164783  0.09534885  1.0
  Ni  Ni32  1  0.60999033  0.87498117  0.09534885  1.0
  Ni  Ni33  1  0.94332367  0.20831450  0.09534885  1.0
  Ni  Ni34  1  0.94332367  0.54164783  0.09534885  1.0
  Ni  Ni35  1  0.94332367  0.87498117  0.09534885  1.0
  Ni  Ni36  1  0.05667633  0.12498117  0.05435465  1.0
  Ni  Ni37  1  0.05667633  0.45831450  0.05435465  1.0
  Ni  Ni38  1  0.05667633  0.79164783  0.05435465  1.0
  Ni  Ni39  1  0.39000967  0.12498117  0.05435465  1.0
  Ni  Ni40  1  0.39000967  0.45831450  0.05435465  1.0
  Ni  Ni41  1  0.39000967  0.79164783  0.05435465  1.0
  Ni  Ni42  1  0.72334300  0.12498117  0.05435465  1.0
  Ni  Ni43  1  0.72334300  0.45831450  0.05435465  1.0
  Ni  Ni44  1  0.72334300  0.79164783  0.05435465  1.0
  Ni  Ni45  1  0.05667633  0.29164783  0.00435465  1.0
  Ni  Ni46  1  0.05667633  0.62498117  0.00435465  1.0
  Ni  Ni47  1  0.05667633  0.95831450  0.00435465  1.0
  Ni  Ni48  1  0.39000967  0.29164783  0.00435465  1.0
  Ni  Ni49  1  0.39000967  0.62498117  0.00435465  1.0
  Ni  Ni50  1  0.39000967  0.95831450  0.00435465  1.0
  Ni  Ni51  1  0.72334300  0.29164783  0.00435465  1.0
  Ni  Ni52  1  0.72334300  0.62498117  0.00435465  1.0
  Ni  Ni53  1  0.72334300  0.95831450  0.00435465  1.0
  Ni  Ni54  1  0.05667633  0.04168550  0.02936595  1.0
  Ni  Ni55  1  0.05667633  0.37501883  0.02936595  1.0
  Ni  Ni56  1  0.05667633  0.70835217  0.02936595  1.0
  Ni  Ni57  1  0.39000967  0.04168550  0.02936595  1.0
  Ni  Ni58  1  0.39000967  0.37501883  0.02936595  1.0
  Ni  Ni59  1  0.39000967  0.70835217  0.02936595  1.0
  Ni  Ni60  1  0.72334300  0.04168550  0.02936595  1.0
  Ni  Ni61  1  0.72334300  0.37501883  0.02936595  1.0
  Ni  Ni62  1  0.72334300  0.70835217  0.02936595  1.0
  Ni  Ni63  1  0.05667633  0.20835217  0.07936595  1.0
  Ni  Ni64  1  0.05667633  0.54168550  0.07936595  1.0
  Ni  Ni65  1  0.05667633  0.87501883  0.07936595  1.0
  Ni  Ni66  1  0.39000967  0.20835217  0.07936595  1.0
  Ni  Ni67  1  0.39000967  0.54168550  0.07936595  1.0
  Ni  Ni68  1  0.39000967  0.87501883  0.07936595  1.0
  Ni  Ni69  1  0.72334300  0.20835217  0.07936595  1.0
  Ni  Ni70  1  0.72334300  0.54168550  0.07936595  1.0
  Ni  Ni71  1  0.72334300  0.87501883  0.07936595  1.0
  Ni  Ni72  1  0.22682800  0.08333333  0.09290580  1.0
  Ni  Ni73  1  0.22682800  0.41666667  0.09290580  1.0
  Ni  Ni74  1  0.22682800  0.75000000  0.09290580  1.0
  Ni  Ni75  1  0.56016133  0.08333333  0.09290580  1.0
  Ni  Ni76  1  0.56016133  0.41666667  0.09290580  1.0
  Ni  Ni77  1  0.56016133  0.75000000  0.09290580  1.0
  Ni  Ni78  1  0.89349467  0.08333333  0.09290580  1.0
  Ni  Ni79  1  0.89349467  0.41666667  0.09290580  1.0
  Ni  Ni80  1  0.89349467  0.75000000  0.09290580  1.0
  Ni  Ni81  1  0.22682800  0.25000000  0.04290580  1.0
  Ni  Ni82  1  0.22682800  0.58333333  0.04290580  1.0
  Ni  Ni83  1  0.22682800  0.91666667  0.04290580  1.0
  Ni  Ni84  1  0.56016133  0.25000000  0.04290580  1.0
  Ni  Ni85  1  0.56016133  0.58333333  0.04290580  1.0
  Ni  Ni86  1  0.56016133  0.91666667  0.04290580  1.0
  Ni  Ni87  1  0.89349467  0.25000000  0.04290580  1.0
  Ni  Ni88  1  0.89349467  0.58333333  0.04290580  1.0
  Ni  Ni89  1  0.89349467  0.91666667  0.04290580  1.0
  Ni  Ni90  1  0.10650533  0.00000000  0.08180900  1.0
  Ni  Ni91  1  0.10650533  0.33333333  0.08180900  1.0
  Ni  Ni92  1  0.10650533  0.66666667  0.08180900  1.0
  Ni  Ni93  1  0.43983867  0.00000000  0.08180900  1.0
  Ni  Ni94  1  0.43983867  0.33333333  0.08180900  1.0
  Ni  Ni95  1  0.43983867  0.66666667  0.08180900  1.0
  Ni  Ni96  1  0.77317200  0.00000000  0.08180900  1.0
  Ni  Ni97  1  0.77317200  0.33333333  0.08180900  1.0
  Ni  Ni98  1  0.77317200  0.66666667  0.08180900  1.0
  Ni  Ni99  1  0.10650533  0.16666667  0.03180900  1.0
  Ni  Ni100  1  0.10650533  0.50000000  0.03180900  1.0
  Ni  Ni101  1  0.10650533  0.83333333  0.03180900  1.0
  Ni  Ni102  1  0.43983867  0.16666667  0.03180900  1.0
  Ni  Ni103  1  0.43983867  0.50000000  0.03180900  1.0
  Ni  Ni104  1  0.43983867  0.83333333  0.03180900  1.0
  Ni  Ni105  1  0.77317200  0.16666667  0.03180900  1.0
  Ni  Ni106  1  0.77317200  0.50000000  0.03180900  1.0
  Ni  Ni107  1  0.77317200  0.83333333  0.03180900  1.0
  Sb  Sb108  1  0.10745600  0.08333333  0.00709420  1.0
  Sb  Sb109  1  0.10745600  0.41666667  0.00709420  1.0
  Sb  Sb110  1  0.10745600  0.75000000  0.00709420  1.0
  Sb  Sb111  1  0.44078933  0.08333333  0.00709420  1.0
  Sb  Sb112  1  0.44078933  0.41666667  0.00709420  1.0
  Sb  Sb113  1  0.44078933  0.75000000  0.00709420  1.0
  Sb  Sb114  1  0.77412267  0.08333333  0.00709420  1.0
  Sb  Sb115  1  0.77412267  0.41666667  0.00709420  1.0
  Sb  Sb116  1  0.77412267  0.75000000  0.00709420  1.0
  Sb  Sb117  1  0.10745600  0.25000000  0.05709420  1.0
  Sb  Sb118  1  0.10745600  0.58333333  0.05709420  1.0
  Sb  Sb119  1  0.10745600  0.91666667  0.05709420  1.0
  Sb  Sb120  1  0.44078933  0.25000000  0.05709420  1.0
  Sb  Sb121  1  0.44078933  0.58333333  0.05709420  1.0
  Sb  Sb122  1  0.44078933  0.91666667  0.05709420  1.0
  Sb  Sb123  1  0.77412267  0.25000000  0.05709420  1.0
  Sb  Sb124  1  0.77412267  0.58333333  0.05709420  1.0
  Sb  Sb125  1  0.77412267  0.91666667  0.05709420  1.0
  Sb  Sb126  1  0.22587733  0.00000000  0.06762060  1.0
  Sb  Sb127  1  0.22587733  0.33333333  0.06762060  1.0
  Sb  Sb128  1  0.22587733  0.66666667  0.06762060  1.0
  Sb  Sb129  1  0.55921067  0.00000000  0.06762060  1.0
  Sb  Sb130  1  0.55921067  0.33333333  0.06762060  1.0
  Sb  Sb131  1  0.55921067  0.66666667  0.06762060  1.0
  Sb  Sb132  1  0.89254400  0.00000000  0.06762060  1.0
  Sb  Sb133  1  0.89254400  0.33333333  0.06762060  1.0
  Sb  Sb134  1  0.89254400  0.66666667  0.06762060  1.0
  Sb  Sb135  1  0.22587733  0.16666667  0.01762060  1.0
  Sb  Sb136  1  0.22587733  0.50000000  0.01762060  1.0
  Sb  Sb137  1  0.22587733  0.83333333  0.01762060  1.0
  Sb  Sb138  1  0.55921067  0.16666667  0.01762060  1.0
  Sb  Sb139  1  0.55921067  0.50000000  0.01762060  1.0
  Sb  Sb140  1  0.55921067  0.83333333  0.01762060  1.0
  Sb  Sb141  1  0.89254400  0.16666667  0.01762060  1.0
  Sb  Sb142  1  0.89254400  0.50000000  0.01762060  1.0
  Sb  Sb143  1  0.89254400  0.83333333  0.01762060  1.0
  Ni  Ni144  1  0.27665700  0.12501883  0.17036015  1.0
  Ni  Ni145  1  0.27665700  0.45835217  0.17036015  1.0
  Ni  Ni146  1  0.27665700  0.79168550  0.17036015  1.0
  Ni  Ni147  1  0.60999033  0.12501883  0.17036015  1.0
  Ni  Ni148  1  0.60999033  0.45835217  0.17036015  1.0
  Ni  Ni149  1  0.60999033  0.79168550  0.17036015  1.0
  Ni  Ni150  1  0.94332367  0.12501883  0.17036015  1.0
  Ni  Ni151  1  0.94332367  0.45835217  0.17036015  1.0
  Ni  Ni152  1  0.94332367  0.79168550  0.17036015  1.0
  Ni  Ni153  1  0.27665700  0.29168550  0.12036015  1.0
  Ni  Ni154  1  0.27665700  0.62501883  0.12036015  1.0
  Ni  Ni155  1  0.27665700  0.95835217  0.12036015  1.0
  Ni  Ni156  1  0.60999033  0.29168550  0.12036015  1.0
  Ni  Ni157  1  0.60999033  0.62501883  0.12036015  1.0
  Ni  Ni158  1  0.60999033  0.95835217  0.12036015  1.0
  Ni  Ni159  1  0.94332367  0.29168550  0.12036015  1.0
  Ni  Ni160  1  0.94332367  0.62501883  0.12036015  1.0
  Ni  Ni161  1  0.94332367  0.95835217  0.12036015  1.0
  Ni  Ni162  1  0.27665700  0.04164783  0.14534885  1.0
  Ni  Ni163  1  0.27665700  0.37498117  0.14534885  1.0
  Ni  Ni164  1  0.27665700  0.70831450  0.14534885  1.0
  Ni  Ni165  1  0.60999033  0.04164783  0.14534885  1.0
  Ni  Ni166  1  0.60999033  0.37498117  0.14534885  1.0
  Ni  Ni167  1  0.60999033  0.70831450  0.14534885  1.0
  Ni  Ni168  1  0.94332367  0.04164783  0.14534885  1.0
  Ni  Ni169  1  0.94332367  0.37498117  0.14534885  1.0
  Ni  Ni170  1  0.94332367  0.70831450  0.14534885  1.0
  Ni  Ni171  1  0.27665700  0.20831450  0.19534885  1.0
  Ni  Ni172  1  0.27665700  0.54164783  0.19534885  1.0
  Ni  Ni173  1  0.27665700  0.87498117  0.19534885  1.0
  Ni  Ni174  1  0.60999033  0.20831450  0.19534885  1.0
  Ni  Ni175  1  0.60999033  0.54164783  0.19534885  1.0
  Ni  Ni176  1  0.60999033  0.87498117  0.19534885  1.0
  Ni  Ni177  1  0.94332367  0.20831450  0.19534885  1.0
  Ni  Ni178  1  0.94332367  0.54164783  0.19534885  1.0
  Ni  Ni179  1  0.94332367  0.87498117  0.19534885  1.0
  Ni  Ni180  1  0.05667633  0.12498117  0.15435465  1.0
  Ni  Ni181  1  0.05667633  0.45831450  0.15435465  1.0
  Ni  Ni182  1  0.05667633  0.79164783  0.15435465  1.0
  Ni  Ni183  1  0.39000967  0.12498117  0.15435465  1.0
  Ni  Ni184  1  0.39000967  0.45831450  0.15435465  1.0
  Ni  Ni185  1  0.39000967  0.79164783  0.15435465  1.0
  Ni  Ni186  1  0.72334300  0.12498117  0.15435465  1.0
  Ni  Ni187  1  0.72334300  0.45831450  0.15435465  1.0
  Ni  Ni188  1  0.72334300  0.79164783  0.15435465  1.0
  Ni  Ni189  1  0.05667633  0.29164783  0.10435465  1.0
  Ni  Ni190  1  0.05667633  0.62498117  0.10435465  1.0
  Ni  Ni191  1  0.05667633  0.95831450  0.10435465  1.0
  Ni  Ni192  1  0.39000967  0.29164783  0.10435465  1.0
  Ni  Ni193  1  0.39000967  0.62498117  0.10435465  1.0
  Ni  Ni194  1  0.39000967  0.95831450  0.10435465  1.0
  Ni  Ni195  1  0.72334300  0.29164783  0.10435465  1.0
  Ni  Ni196  1  0.72334300  0.62498117  0.10435465  1.0
  Ni  Ni197  1  0.72334300  0.95831450  0.10435465  1.0
  Ni  Ni198  1  0.05667633  0.04168550  0.12936595  1.0
  Ni  Ni199  1  0.05667633  0.37501883  0.12936595  1.0
  Ni  Ni200  1  0.05667633  0.70835217  0.12936595  1.0
  Ni  Ni201  1  0.39000967  0.04168550  0.12936595  1.0
  Ni  Ni202  1  0.39000967  0.37501883  0.12936595  1.0
  Ni  Ni203  1  0.39000967  0.70835217  0.12936595  1.0
  Ni  Ni204  1  0.72334300  0.04168550  0.12936595  1.0
  Ni  Ni205  1  0.72334300  0.37501883  0.12936595  1.0
  Ni  Ni206  1  0.72334300  0.70835217  0.12936595  1.0
  Ni  Ni207  1  0.05667633  0.20835217  0.17936595  1.0
  Ni  Ni208  1  0.05667633  0.54168550  0.17936595  1.0
  Ni  Ni209  1  0.05667633  0.87501883  0.17936595  1.0
  Ni  Ni210  1  0.39000967  0.20835217  0.17936595  1.0
  Ni  Ni211  1  0.39000967  0.54168550  0.17936595  1.0
  Ni  Ni212  1  0.39000967  0.87501883  0.17936595  1.0
  Ni  Ni213  1  0.72334300  0.20835217  0.17936595  1.0
  Ni  Ni214  1  0.72334300  0.54168550  0.17936595  1.0
  Ni  Ni215  1  0.72334300  0.87501883  0.17936595  1.0
  Ni  Ni216  1  0.22682800  0.08333333  0.19290580  1.0
  Ni  Ni217  1  0.22682800  0.41666667  0.19290580  1.0
  Ni  Ni218  1  0.22682800  0.75000000  0.19290580  1.0
  Ni  Ni219  1  0.56016133  0.08333333  0.19290580  1.0
  Ni  Ni220  1  0.56016133  0.41666667  0.19290580  1.0
  Ni  Ni221  1  0.56016133  0.75000000  0.19290580  1.0
  Ni  Ni222  1  0.89349467  0.08333333  0.19290580  1.0
  Ni  Ni223  1  0.89349467  0.41666667  0.19290580  1.0
  Ni  Ni224  1  0.89349467  0.75000000  0.19290580  1.0
  Ni  Ni225  1  0.22682800  0.25000000  0.14290580  1.0
  Ni  Ni226  1  0.22682800  0.58333333  0.14290580  1.0
  Ni  Ni227  1  0.22682800  0.91666667  0.14290580  1.0
  Ni  Ni228  1  0.56016133  0.25000000  0.14290580  1.0
  Ni  Ni229  1  0.56016133  0.58333333  0.14290580  1.0
  Ni  Ni230  1  0.56016133  0.91666667  0.14290580  1.0
  Ni  Ni231  1  0.89349467  0.25000000  0.14290580  1.0
  Ni  Ni232  1  0.89349467  0.58333333  0.14290580  1.0
  Ni  Ni233  1  0.89349467  0.91666667  0.14290580  1.0
  Ni  Ni234  1  0.10650533  0.00000000  0.18180900  1.0
  Ni  Ni235  1  0.10650533  0.33333333  0.18180900  1.0
  Ni  Ni236  1  0.10650533  0.66666667  0.18180900  1.0
  Ni  Ni237  1  0.43983867  0.00000000  0.18180900  1.0
  Ni  Ni238  1  0.43983867  0.33333333  0.18180900  1.0
  Ni  Ni239  1  0.43983867  0.66666667  0.18180900  1.0
  Ni  Ni240  1  0.77317200  0.00000000  0.18180900  1.0
  Ni  Ni241  1  0.77317200  0.33333333  0.18180900  1.0
  Ni  Ni242  1  0.77317200  0.66666667  0.18180900  1.0
  Ni  Ni243  1  0.10650533  0.16666667  0.13180900  1.0
  Ni  Ni244  1  0.10650533  0.50000000  0.13180900  1.0
  Ni  Ni245  1  0.10650533  0.83333333  0.13180900  1.0
  Ni  Ni246  1  0.43983867  0.16666667  0.13180900  1.0
  Ni  Ni247  1  0.43983867  0.50000000  0.13180900  1.0
  Ni  Ni248  1  0.43983867  0.83333333  0.13180900  1.0
  Ni  Ni249  1  0.77317200  0.16666667  0.13180900  1.0
  Ni  Ni250  1  0.77317200  0.50000000  0.13180900  1.0
  Ni  Ni251  1  0.77317200  0.83333333  0.13180900  1.0
  Sb  Sb252  1  0.10745600  0.08333333  0.10709420  1.0
  Sb  Sb253  1  0.10745600  0.41666667  0.10709420  1.0
  Sb  Sb254  1  0.10745600  0.75000000  0.10709420  1.0
  Sb  Sb255  1  0.44078933  0.08333333  0.10709420  1.0
  Sb  Sb256  1  0.44078933  0.41666667  0.10709420  1.0
  Sb  Sb257  1  0.44078933  0.75000000  0.10709420  1.0
  Sb  Sb258  1  0.77412267  0.08333333  0.10709420  1.0
  Sb  Sb259  1  0.77412267  0.41666667  0.10709420  1.0
  Sb  Sb260  1  0.77412267  0.75000000  0.10709420  1.0
  Sb  Sb261  1  0.10745600  0.25000000  0.15709420  1.0
  Sb  Sb262  1  0.10745600  0.58333333  0.15709420  1.0
  Sb  Sb263  1  0.10745600  0.91666667  0.15709420  1.0
  Sb  Sb264  1  0.44078933  0.25000000  0.15709420  1.0
  Sb  Sb265  1  0.44078933  0.58333333  0.15709420  1.0
  Sb  Sb266  1  0.44078933  0.91666667  0.15709420  1.0
  Sb  Sb267  1  0.77412267  0.25000000  0.15709420  1.0
  Sb  Sb268  1  0.77412267  0.58333333  0.15709420  1.0
  Sb  Sb269  1  0.77412267  0.91666667  0.15709420  1.0
  Sb  Sb270  1  0.22587733  0.00000000  0.16762060  1.0
  Sb  Sb271  1  0.22587733  0.33333333  0.16762060  1.0
  Sb  Sb272  1  0.22587733  0.66666667  0.16762060  1.0
  Sb  Sb273  1  0.55921067  0.00000000  0.16762060  1.0
  Sb  Sb274  1  0.55921067  0.33333333  0.16762060  1.0
  Sb  Sb275  1  0.55921067  0.66666667  0.16762060  1.0
  Sb  Sb276  1  0.89254400  0.00000000  0.16762060  1.0
  Sb  Sb277  1  0.89254400  0.33333333  0.16762060  1.0
  Sb  Sb278  1  0.89254400  0.66666667  0.16762060  1.0
  Sb  Sb279  1  0.22587733  0.16666667  0.11762060  1.0
  Sb  Sb280  1  0.22587733  0.50000000  0.11762060  1.0
  Sb  Sb281  1  0.22587733  0.83333333  0.11762060  1.0
  Sb  Sb282  1  0.55921067  0.16666667  0.11762060  1.0
  Sb  Sb283  1  0.55921067  0.50000000  0.11762060  1.0
  Sb  Sb284  1  0.55921067  0.83333333  0.11762060  1.0
  Sb  Sb285  1  0.89254400  0.16666667  0.11762060  1.0
  Sb  Sb286  1  0.89254400  0.50000000  0.11762060  1.0
  Sb  Sb287  1  0.89254400  0.83333333  0.11762060  1.0
  Ni  Ni288  1  0.27665700  0.12501883  0.27036015  1.0
  Ni  Ni289  1  0.27665700  0.45835217  0.27036015  1.0
  Ni  Ni290  1  0.27665700  0.79168550  0.27036015  1.0
  Ni  Ni291  1  0.60999033  0.12501883  0.27036015  1.0
  Ni  Ni292  1  0.60999033  0.45835217  0.27036015  1.0
  Ni  Ni293  1  0.60999033  0.79168550  0.27036015  1.0
  Ni  Ni294  1  0.94332367  0.12501883  0.27036015  1.0
  Ni  Ni295  1  0.94332367  0.45835217  0.27036015  1.0
  Ni  Ni296  1  0.94332367  0.79168550  0.27036015  1.0
  Ni  Ni297  1  0.27665700  0.29168550  0.22036015  1.0
  Ni  Ni298  1  0.27665700  0.62501883  0.22036015  1.0
  Ni  Ni299  1  0.27665700  0.95835217  0.22036015  1.0
  Ni  Ni300  1  0.60999033  0.29168550  0.22036015  1.0
  Ni  Ni301  1  0.60999033  0.62501883  0.22036015  1.0
  Ni  Ni302  1  0.60999033  0.95835217  0.22036015  1.0
  Ni  Ni303  1  0.94332367  0.29168550  0.22036015  1.0
  Ni  Ni304  1  0.94332367  0.62501883  0.22036015  1.0
  Ni  Ni305  1  0.94332367  0.95835217  0.22036015  1.0
  Ni  Ni306  1  0.27665700  0.04164783  0.24534885  1.0
  Ni  Ni307  1  0.27665700  0.37498117  0.24534885  1.0
  Ni  Ni308  1  0.27665700  0.70831450  0.24534885  1.0
  Ni  Ni309  1  0.60999033  0.04164783  0.24534885  1.0
  Ni  Ni310  1  0.60999033  0.37498117  0.24534885  1.0
  Ni  Ni311  1  0.60999033  0.70831450  0.24534885  1.0
  Ni  Ni312  1  0.94332367  0.04164783  0.24534885  1.0
  Ni  Ni313  1  0.94332367  0.37498117  0.24534885  1.0
  Ni  Ni314  1  0.94332367  0.70831450  0.24534885  1.0
  Ni  Ni315  1  0.27665700  0.20831450  0.29534885  1.0
  Ni  Ni316  1  0.27665700  0.54164783  0.29534885  1.0
  Ni  Ni317  1  0.27665700  0.87498117  0.29534885  1.0
  Ni  Ni318  1  0.60999033  0.20831450  0.29534885  1.0
  Ni  Ni319  1  0.60999033  0.54164783  0.29534885  1.0
  Ni  Ni320  1  0.60999033  0.87498117  0.29534885  1.0
  Ni  Ni321  1  0.94332367  0.20831450  0.29534885  1.0
  Ni  Ni322  1  0.94332367  0.54164783  0.29534885  1.0
  Ni  Ni323  1  0.94332367  0.87498117  0.29534885  1.0
  Ni  Ni324  1  0.05667633  0.12498117  0.25435465  1.0
  Ni  Ni325  1  0.05667633  0.45831450  0.25435465  1.0
  Ni  Ni326  1  0.05667633  0.79164783  0.25435465  1.0
  Ni  Ni327  1  0.39000967  0.12498117  0.25435465  1.0
  Ni  Ni328  1  0.39000967  0.45831450  0.25435465  1.0
  Ni  Ni329  1  0.39000967  0.79164783  0.25435465  1.0
  Ni  Ni330  1  0.72334300  0.12498117  0.25435465  1.0
  Ni  Ni331  1  0.72334300  0.45831450  0.25435465  1.0
  Ni  Ni332  1  0.72334300  0.79164783  0.25435465  1.0
  Ni  Ni333  1  0.05667633  0.29164783  0.20435465  1.0
  Ni  Ni334  1  0.05667633  0.62498117  0.20435465  1.0
  Ni  Ni335  1  0.05667633  0.95831450  0.20435465  1.0
  Ni  Ni336  1  0.39000967  0.29164783  0.20435465  1.0
  Ni  Ni337  1  0.39000967  0.62498117  0.20435465  1.0
  Ni  Ni338  1  0.39000967  0.95831450  0.20435465  1.0
  Ni  Ni339  1  0.72334300  0.29164783  0.20435465  1.0
  Ni  Ni340  1  0.72334300  0.62498117  0.20435465  1.0
  Ni  Ni341  1  0.72334300  0.95831450  0.20435465  1.0
  Ni  Ni342  1  0.05667633  0.04168550  0.22936595  1.0
  Ni  Ni343  1  0.05667633  0.37501883  0.22936595  1.0
  Ni  Ni344  1  0.05667633  0.70835217  0.22936595  1.0
  Ni  Ni345  1  0.39000967  0.04168550  0.22936595  1.0
  Ni  Ni346  1  0.39000967  0.37501883  0.22936595  1.0
  Ni  Ni347  1  0.39000967  0.70835217  0.22936595  1.0
  Ni  Ni348  1  0.72334300  0.04168550  0.22936595  1.0
  Ni  Ni349  1  0.72334300  0.37501883  0.22936595  1.0
  Ni  Ni350  1  0.72334300  0.70835217  0.22936595  1.0
  Ni  Ni351  1  0.05667633  0.20835217  0.27936595  1.0
  Ni  Ni352  1  0.05667633  0.54168550  0.27936595  1.0
  Ni  Ni353  1  0.05667633  0.87501883  0.27936595  1.0
  Ni  Ni354  1  0.39000967  0.20835217  0.27936595  1.0
  Ni  Ni355  1  0.39000967  0.54168550  0.27936595  1.0
  Ni  Ni356  1  0.39000967  0.87501883  0.27936595  1.0
  Ni  Ni357  1  0.72334300  0.20835217  0.27936595  1.0
  Ni  Ni358  1  0.72334300  0.54168550  0.27936595  1.0
  Ni  Ni359  1  0.72334300  0.87501883  0.27936595  1.0
  Ni  Ni360  1  0.22682800  0.08333333  0.29290580  1.0
  Ni  Ni361  1  0.22682800  0.41666667  0.29290580  1.0
  Ni  Ni362  1  0.22682800  0.75000000  0.29290580  1.0
  Ni  Ni363  1  0.56016133  0.08333333  0.29290580  1.0
  Ni  Ni364  1  0.56016133  0.41666667  0.29290580  1.0
  Ni  Ni365  1  0.56016133  0.75000000  0.29290580  1.0
  Ni  Ni366  1  0.89349467  0.08333333  0.29290580  1.0
  Ni  Ni367  1  0.89349467  0.41666667  0.29290580  1.0
  Ni  Ni368  1  0.89349467  0.75000000  0.29290580  1.0
  Ni  Ni369  1  0.22682800  0.25000000  0.24290580  1.0
  Ni  Ni370  1  0.22682800  0.58333333  0.24290580  1.0
  Ni  Ni371  1  0.22682800  0.91666667  0.24290580  1.0
  Ni  Ni372  1  0.56016133  0.25000000  0.24290580  1.0
  Ni  Ni373  1  0.56016133  0.58333333  0.24290580  1.0
  Ni  Ni374  1  0.56016133  0.91666667  0.24290580  1.0
  Ni  Ni375  1  0.89349467  0.25000000  0.24290580  1.0
  Ni  Ni376  1  0.89349467  0.58333333  0.24290580  1.0
  Ni  Ni377  1  0.89349467  0.91666667  0.24290580  1.0
  Ni  Ni378  1  0.10650533  0.00000000  0.28180900  1.0
  Ni  Ni379  1  0.10650533  0.33333333  0.28180900  1.0
  Ni  Ni380  1  0.10650533  0.66666667  0.28180900  1.0
  Ni  Ni381  1  0.43983867  0.00000000  0.28180900  1.0
  Ni  Ni382  1  0.43983867  0.33333333  0.28180900  1.0
  Ni  Ni383  1  0.43983867  0.66666667  0.28180900  1.0
  Ni  Ni384  1  0.77317200  0.00000000  0.28180900  1.0
  Ni  Ni385  1  0.77317200  0.33333333  0.28180900  1.0
  Ni  Ni386  1  0.77317200  0.66666667  0.28180900  1.0
  Ni  Ni387  1  0.10650533  0.16666667  0.23180900  1.0
  Ni  Ni388  1  0.10650533  0.50000000  0.23180900  1.0
  Ni  Ni389  1  0.10650533  0.83333333  0.23180900  1.0
  Ni  Ni390  1  0.43983867  0.16666667  0.23180900  1.0
  Ni  Ni391  1  0.43983867  0.50000000  0.23180900  1.0
  Ni  Ni392  1  0.43983867  0.83333333  0.23180900  1.0
  Ni  Ni393  1  0.77317200  0.16666667  0.23180900  1.0
  Ni  Ni394  1  0.77317200  0.50000000  0.23180900  1.0
  Ni  Ni395  1  0.77317200  0.83333333  0.23180900  1.0
  Sb  Sb396  1  0.10745600  0.08333333  0.20709420  1.0
  Sb  Sb397  1  0.10745600  0.41666667  0.20709420  1.0
  Sb  Sb398  1  0.10745600  0.75000000  0.20709420  1.0
  Sb  Sb399  1  0.44078933  0.08333333  0.20709420  1.0
  Sb  Sb400  1  0.44078933  0.41666667  0.20709420  1.0
  Sb  Sb401  1  0.44078933  0.75000000  0.20709420  1.0
  Sb  Sb402  1  0.77412267  0.08333333  0.20709420  1.0
  Sb  Sb403  1  0.77412267  0.41666667  0.20709420  1.0
  Sb  Sb404  1  0.77412267  0.75000000  0.20709420  1.0
  Sb  Sb405  1  0.10745600  0.25000000  0.25709420  1.0
  Sb  Sb406  1  0.10745600  0.58333333  0.25709420  1.0
  Sb  Sb407  1  0.10745600  0.91666667  0.25709420  1.0
  Sb  Sb408  1  0.44078933  0.25000000  0.25709420  1.0
  Sb  Sb409  1  0.44078933  0.58333333  0.25709420  1.0
  Sb  Sb410  1  0.44078933  0.91666667  0.25709420  1.0
  Sb  Sb411  1  0.77412267  0.25000000  0.25709420  1.0
  Sb  Sb412  1  0.77412267  0.58333333  0.25709420  1.0
  Sb  Sb413  1  0.77412267  0.91666667  0.25709420  1.0
  Sb  Sb414  1  0.22587733  0.00000000  0.26762060  1.0
  Sb  Sb415  1  0.22587733  0.33333333  0.26762060  1.0
  Sb  Sb416  1  0.22587733  0.66666667  0.26762060  1.0
  Sb  Sb417  1  0.55921067  0.00000000  0.26762060  1.0
  Sb  Sb418  1  0.55921067  0.33333333  0.26762060  1.0
  Sb  Sb419  1  0.55921067  0.66666667  0.26762060  1.0
  Sb  Sb420  1  0.89254400  0.00000000  0.26762060  1.0
  Sb  Sb421  1  0.89254400  0.33333333  0.26762060  1.0
  Sb  Sb422  1  0.89254400  0.66666667  0.26762060  1.0
  Sb  Sb423  1  0.22587733  0.16666667  0.21762060  1.0
  Sb  Sb424  1  0.22587733  0.50000000  0.21762060  1.0
  Sb  Sb425  1  0.22587733  0.83333333  0.21762060  1.0
  Sb  Sb426  1  0.55921067  0.16666667  0.21762060  1.0
  Sb  Sb427  1  0.55921067  0.50000000  0.21762060  1.0
  Sb  Sb428  1  0.55921067  0.83333333  0.21762060  1.0
  Sb  Sb429  1  0.89254400  0.16666667  0.21762060  1.0
  Sb  Sb430  1  0.89254400  0.50000000  0.21762060  1.0
  Sb  Sb431  1  0.89254400  0.83333333  0.21762060  1.0
  Ni  Ni432  1  0.27665700  0.12501883  0.37036015  1.0
  Ni  Ni433  1  0.27665700  0.45835217  0.37036015  1.0
  Ni  Ni434  1  0.27665700  0.79168550  0.37036015  1.0
  Ni  Ni435  1  0.60999033  0.12501883  0.37036015  1.0
  Ni  Ni436  1  0.60999033  0.45835217  0.37036015  1.0
  Ni  Ni437  1  0.60999033  0.79168550  0.37036015  1.0
  Ni  Ni438  1  0.94332367  0.12501883  0.37036015  1.0
  Ni  Ni439  1  0.94332367  0.45835217  0.37036015  1.0
  Ni  Ni440  1  0.94332367  0.79168550  0.37036015  1.0
  Ni  Ni441  1  0.27665700  0.29168550  0.32036015  1.0
  Ni  Ni442  1  0.27665700  0.62501883  0.32036015  1.0
  Ni  Ni443  1  0.27665700  0.95835217  0.32036015  1.0
  Ni  Ni444  1  0.60999033  0.29168550  0.32036015  1.0
  Ni  Ni445  1  0.60999033  0.62501883  0.32036015  1.0
  Ni  Ni446  1  0.60999033  0.95835217  0.32036015  1.0
  Ni  Ni447  1  0.94332367  0.29168550  0.32036015  1.0
  Ni  Ni448  1  0.94332367  0.62501883  0.32036015  1.0
  Ni  Ni449  1  0.94332367  0.95835217  0.32036015  1.0
  Ni  Ni450  1  0.27665700  0.04164783  0.34534885  1.0
  Ni  Ni451  1  0.27665700  0.37498117  0.34534885  1.0
  Ni  Ni452  1  0.27665700  0.70831450  0.34534885  1.0
  Ni  Ni453  1  0.60999033  0.04164783  0.34534885  1.0
  Ni  Ni454  1  0.60999033  0.37498117  0.34534885  1.0
  Ni  Ni455  1  0.60999033  0.70831450  0.34534885  1.0
  Ni  Ni456  1  0.94332367  0.04164783  0.34534885  1.0
  Ni  Ni457  1  0.94332367  0.37498117  0.34534885  1.0
  Ni  Ni458  1  0.94332367  0.70831450  0.34534885  1.0
  Ni  Ni459  1  0.27665700  0.20831450  0.39534885  1.0
  Ni  Ni460  1  0.27665700  0.54164783  0.39534885  1.0
  Ni  Ni461  1  0.27665700  0.87498117  0.39534885  1.0
  Ni  Ni462  1  0.60999033  0.20831450  0.39534885  1.0
  Ni  Ni463  1  0.60999033  0.54164783  0.39534885  1.0
  Ni  Ni464  1  0.60999033  0.87498117  0.39534885  1.0
  Ni  Ni465  1  0.94332367  0.20831450  0.39534885  1.0
  Ni  Ni466  1  0.94332367  0.54164783  0.39534885  1.0
  Ni  Ni467  1  0.94332367  0.87498117  0.39534885  1.0
  Ni  Ni468  1  0.05667633  0.12498117  0.35435465  1.0
  Ni  Ni469  1  0.05667633  0.45831450  0.35435465  1.0
  Ni  Ni470  1  0.05667633  0.79164783  0.35435465  1.0
  Ni  Ni471  1  0.39000967  0.12498117  0.35435465  1.0
  Ni  Ni472  1  0.39000967  0.45831450  0.35435465  1.0
  Ni  Ni473  1  0.39000967  0.79164783  0.35435465  1.0
  Ni  Ni474  1  0.72334300  0.12498117  0.35435465  1.0
  Ni  Ni475  1  0.72334300  0.45831450  0.35435465  1.0
  Ni  Ni476  1  0.72334300  0.79164783  0.35435465  1.0
  Ni  Ni477  1  0.05667633  0.29164783  0.30435465  1.0
  Ni  Ni478  1  0.05667633  0.62498117  0.30435465  1.0
  Ni  Ni479  1  0.05667633  0.95831450  0.30435465  1.0
  Ni  Ni480  1  0.39000967  0.29164783  0.30435465  1.0
  Ni  Ni481  1  0.39000967  0.62498117  0.30435465  1.0
  Ni  Ni482  1  0.39000967  0.95831450  0.30435465  1.0
  Ni  Ni483  1  0.72334300  0.29164783  0.30435465  1.0
  Ni  Ni484  1  0.72334300  0.62498117  0.30435465  1.0
  Ni  Ni485  1  0.72334300  0.95831450  0.30435465  1.0
  Ni  Ni486  1  0.05667633  0.04168550  0.32936595  1.0
  Ni  Ni487  1  0.05667633  0.37501883  0.32936595  1.0
  Ni  Ni488  1  0.05667633  0.70835217  0.32936595  1.0
  Ni  Ni489  1  0.39000967  0.04168550  0.32936595  1.0
  Ni  Ni490  1  0.39000967  0.37501883  0.32936595  1.0
  Ni  Ni491  1  0.39000967  0.70835217  0.32936595  1.0
  Ni  Ni492  1  0.72334300  0.04168550  0.32936595  1.0
  Ni  Ni493  1  0.72334300  0.37501883  0.32936595  1.0
  Ni  Ni494  1  0.72334300  0.70835217  0.32936595  1.0
  Ni  Ni495  1  0.05667633  0.20835217  0.37936595  1.0
  Ni  Ni496  1  0.05667633  0.54168550  0.37936595  1.0
  Ni  Ni497  1  0.05667633  0.87501883  0.37936595  1.0
  Ni  Ni498  1  0.39000967  0.20835217  0.37936595  1.0
  Ni  Ni499  1  0.39000967  0.54168550  0.37936595  1.0
  Ni  Ni500  1  0.39000967  0.87501883  0.37936595  1.0
  Ni  Ni501  1  0.72334300  0.20835217  0.37936595  1.0
  Ni  Ni502  1  0.72334300  0.54168550  0.37936595  1.0
  Ni  Ni503  1  0.72334300  0.87501883  0.37936595  1.0
  Ni  Ni504  1  0.22682800  0.08333333  0.39290580  1.0
  Ni  Ni505  1  0.22682800  0.41666667  0.39290580  1.0
  Ni  Ni506  1  0.22682800  0.75000000  0.39290580  1.0
  Ni  Ni507  1  0.56016133  0.08333333  0.39290580  1.0
  Ni  Ni508  1  0.56016133  0.41666667  0.39290580  1.0
  Ni  Ni509  1  0.56016133  0.75000000  0.39290580  1.0
  Ni  Ni510  1  0.89349467  0.08333333  0.39290580  1.0
  Ni  Ni511  1  0.89349467  0.41666667  0.39290580  1.0
  Ni  Ni512  1  0.89349467  0.75000000  0.39290580  1.0
  Ni  Ni513  1  0.22682800  0.25000000  0.34290580  1.0
  Ni  Ni514  1  0.22682800  0.58333333  0.34290580  1.0
  Ni  Ni515  1  0.22682800  0.91666667  0.34290580  1.0
  Ni  Ni516  1  0.56016133  0.25000000  0.34290580  1.0
  Ni  Ni517  1  0.56016133  0.58333333  0.34290580  1.0
  Ni  Ni518  1  0.56016133  0.91666667  0.34290580  1.0
  Ni  Ni519  1  0.89349467  0.25000000  0.34290580  1.0
  Ni  Ni520  1  0.89349467  0.58333333  0.34290580  1.0
  Ni  Ni521  1  0.89349467  0.91666667  0.34290580  1.0
  Ni  Ni522  1  0.10650533  0.00000000  0.38180900  1.0
  Ni  Ni523  1  0.10650533  0.33333333  0.38180900  1.0
  Ni  Ni524  1  0.10650533  0.66666667  0.38180900  1.0
  Ni  Ni525  1  0.43983867  0.00000000  0.38180900  1.0
  Ni  Ni526  1  0.43983867  0.33333333  0.38180900  1.0
  Ni  Ni527  1  0.43983867  0.66666667  0.38180900  1.0
  Ni  Ni528  1  0.77317200  0.00000000  0.38180900  1.0
  Ni  Ni529  1  0.77317200  0.33333333  0.38180900  1.0
  Ni  Ni530  1  0.77317200  0.66666667  0.38180900  1.0
  Ni  Ni531  1  0.10650533  0.16666667  0.33180900  1.0
  Ni  Ni532  1  0.10650533  0.50000000  0.33180900  1.0
  Ni  Ni533  1  0.10650533  0.83333333  0.33180900  1.0
  Ni  Ni534  1  0.43983867  0.16666667  0.33180900  1.0
  Ni  Ni535  1  0.43983867  0.50000000  0.33180900  1.0
  Ni  Ni536  1  0.43983867  0.83333333  0.33180900  1.0
  Ni  Ni537  1  0.77317200  0.16666667  0.33180900  1.0
  Ni  Ni538  1  0.77317200  0.50000000  0.33180900  1.0
  Ni  Ni539  1  0.77317200  0.83333333  0.33180900  1.0
  Sb  Sb540  1  0.10745600  0.08333333  0.30709420  1.0
  Sb  Sb541  1  0.10745600  0.41666667  0.30709420  1.0
  Sb  Sb542  1  0.10745600  0.75000000  0.30709420  1.0
  Sb  Sb543  1  0.44078933  0.08333333  0.30709420  1.0
  Sb  Sb544  1  0.44078933  0.41666667  0.30709420  1.0
  Sb  Sb545  1  0.44078933  0.75000000  0.30709420  1.0
  Sb  Sb546  1  0.77412267  0.08333333  0.30709420  1.0
  Sb  Sb547  1  0.77412267  0.41666667  0.30709420  1.0
  Sb  Sb548  1  0.77412267  0.75000000  0.30709420  1.0
  Sb  Sb549  1  0.10745600  0.25000000  0.35709420  1.0
  Sb  Sb550  1  0.10745600  0.58333333  0.35709420  1.0
  Sb  Sb551  1  0.10745600  0.91666667  0.35709420  1.0
  Sb  Sb552  1  0.44078933  0.25000000  0.35709420  1.0
  Sb  Sb553  1  0.44078933  0.58333333  0.35709420  1.0
  Sb  Sb554  1  0.44078933  0.91666667  0.35709420  1.0
  Sb  Sb555  1  0.77412267  0.25000000  0.35709420  1.0
  Sb  Sb556  1  0.77412267  0.58333333  0.35709420  1.0
  Sb  Sb557  1  0.77412267  0.91666667  0.35709420  1.0
  Sb  Sb558  1  0.22587733  0.00000000  0.36762060  1.0
  Sb  Sb559  1  0.22587733  0.33333333  0.36762060  1.0
  Sb  Sb560  1  0.22587733  0.66666667  0.36762060  1.0
  Sb  Sb561  1  0.55921067  0.00000000  0.36762060  1.0
  Sb  Sb562  1  0.55921067  0.33333333  0.36762060  1.0
  Sb  Sb563  1  0.55921067  0.66666667  0.36762060  1.0
  Sb  Sb564  1  0.89254400  0.00000000  0.36762060  1.0
  Sb  Sb565  1  0.89254400  0.33333333  0.36762060  1.0
  Sb  Sb566  1  0.89254400  0.66666667  0.36762060  1.0
  Sb  Sb567  1  0.22587733  0.16666667  0.31762060  1.0
  Sb  Sb568  1  0.22587733  0.50000000  0.31762060  1.0
  Sb  Sb569  1  0.22587733  0.83333333  0.31762060  1.0
  Sb  Sb570  1  0.55921067  0.16666667  0.31762060  1.0
  Sb  Sb571  1  0.55921067  0.50000000  0.31762060  1.0
  Sb  Sb572  1  0.55921067  0.83333333  0.31762060  1.0
  Sb  Sb573  1  0.89254400  0.16666667  0.31762060  1.0
  Sb  Sb574  1  0.89254400  0.50000000  0.31762060  1.0
  Sb  Sb575  1  0.89254400  0.83333333  0.31762060  1.0
