# generated using pymatgen
data_Ni3Sn4
_symmetry_space_group_name_H-M   'P 1'
_cell_length_a   12.28176600
_cell_length_b   45.42528981
_cell_length_c   36.89318052
_cell_angle_alpha   124.09805015
_cell_angle_beta   90.00000000
_cell_angle_gamma   74.31354398
_symmetry_Int_Tables_number   1
_chemical_formula_structural   Ni3Sn4
_chemical_formula_sum   'Ni162 Sn216'
_cell_volume   16110.09458639
_cell_formula_units_Z   54
loop_
 _symmetry_equiv_pos_site_id
 _symmetry_equiv_pos_as_xyz
  1  'x, y, z'
loop_
 _atom_site_type_symbol
 _atom_site_label
 _atom_site_symmetry_multiplicity
 _atom_site_fract_x
 _atom_site_fract_y
 _atom_site_fract_z
 _atom_site_occupancy
  Ni  Ni0  1  0.00000000  0.16666667  0.06654857  1.0
  Ni  Ni1  1  0.00000000  0.50000000  0.06654857  1.0
  Ni  Ni2  1  0.00000000  0.83333333  0.06654857  1.0
  Ni  Ni3  1  0.33333333  0.16666667  0.06654857  1.0
  Ni  Ni4  1  0.33333333  0.50000000  0.06654857  1.0
  Ni  Ni5  1  0.33333333  0.83333333  0.06654857  1.0
  Ni  Ni6  1  0.66666667  0.16666667  0.06654857  1.0
  Ni  Ni7  1  0.66666667  0.50000000  0.06654857  1.0
  Ni  Ni8  1  0.66666667  0.83333333  0.06654857  1.0
  Ni  Ni9  1  0.00000000  0.00000000  0.13797714  1.0
  Ni  Ni10  1  0.00000000  0.33333333  0.13797714  1.0
  Ni  Ni11  1  0.00000000  0.66666667  0.13797714  1.0
  Ni  Ni12  1  0.33333333  0.00000000  0.13797714  1.0
  Ni  Ni13  1  0.33333333  0.33333333  0.13797714  1.0
  Ni  Ni14  1  0.33333333  0.66666667  0.13797714  1.0
  Ni  Ni15  1  0.66666667  0.00000000  0.13797714  1.0
  Ni  Ni16  1  0.66666667  0.33333333  0.13797714  1.0
  Ni  Ni17  1  0.66666667  0.66666667  0.13797714  1.0
  Ni  Ni18  1  0.26137867  0.07195467  0.07402914  1.0
  Ni  Ni19  1  0.26137867  0.40528800  0.07402914  1.0
  Ni  Ni20  1  0.26137867  0.73862133  0.07402914  1.0
  Ni  Ni21  1  0.59471200  0.07195467  0.07402914  1.0
  Ni  Ni22  1  0.59471200  0.40528800  0.07402914  1.0
  Ni  Ni23  1  0.59471200  0.73862133  0.07402914  1.0
  Ni  Ni24  1  0.92804533  0.07195467  0.07402914  1.0
  Ni  Ni25  1  0.92804533  0.40528800  0.07402914  1.0
  Ni  Ni26  1  0.92804533  0.73862133  0.07402914  1.0
  Ni  Ni27  1  0.26137867  0.23862133  0.00260057  1.0
  Ni  Ni28  1  0.26137867  0.57195467  0.00260057  1.0
  Ni  Ni29  1  0.26137867  0.90528800  0.00260057  1.0
  Ni  Ni30  1  0.59471200  0.23862133  0.00260057  1.0
  Ni  Ni31  1  0.59471200  0.57195467  0.00260057  1.0
  Ni  Ni32  1  0.59471200  0.90528800  0.00260057  1.0
  Ni  Ni33  1  0.92804533  0.23862133  0.00260057  1.0
  Ni  Ni34  1  0.92804533  0.57195467  0.00260057  1.0
  Ni  Ni35  1  0.92804533  0.90528800  0.00260057  1.0
  Ni  Ni36  1  0.07195467  0.26137867  0.05906800  1.0
  Ni  Ni37  1  0.07195467  0.59471200  0.05906800  1.0
  Ni  Ni38  1  0.07195467  0.92804533  0.05906800  1.0
  Ni  Ni39  1  0.40528800  0.26137867  0.05906800  1.0
  Ni  Ni40  1  0.40528800  0.59471200  0.05906800  1.0
  Ni  Ni41  1  0.40528800  0.92804533  0.05906800  1.0
  Ni  Ni42  1  0.73862133  0.26137867  0.05906800  1.0
  Ni  Ni43  1  0.73862133  0.59471200  0.05906800  1.0
  Ni  Ni44  1  0.73862133  0.92804533  0.05906800  1.0
  Ni  Ni45  1  0.07195467  0.09471200  0.13049657  1.0
  Ni  Ni46  1  0.07195467  0.42804533  0.13049657  1.0
  Ni  Ni47  1  0.07195467  0.76137867  0.13049657  1.0
  Ni  Ni48  1  0.40528800  0.09471200  0.13049657  1.0
  Ni  Ni49  1  0.40528800  0.42804533  0.13049657  1.0
  Ni  Ni50  1  0.40528800  0.76137867  0.13049657  1.0
  Ni  Ni51  1  0.73862133  0.09471200  0.13049657  1.0
  Ni  Ni52  1  0.73862133  0.42804533  0.13049657  1.0
  Ni  Ni53  1  0.73862133  0.76137867  0.13049657  1.0
  Sn  Sn54  1  0.19057633  0.14275700  0.01165057  1.0
  Sn  Sn55  1  0.19057633  0.47609033  0.01165057  1.0
  Sn  Sn56  1  0.19057633  0.80942367  0.01165057  1.0
  Sn  Sn57  1  0.52390967  0.14275700  0.01165057  1.0
  Sn  Sn58  1  0.52390967  0.47609033  0.01165057  1.0
  Sn  Sn59  1  0.52390967  0.80942367  0.01165057  1.0
  Sn  Sn60  1  0.85724300  0.14275700  0.01165057  1.0
  Sn  Sn61  1  0.85724300  0.47609033  0.01165057  1.0
  Sn  Sn62  1  0.85724300  0.80942367  0.01165057  1.0
  Sn  Sn63  1  0.19057633  0.30942367  0.08307914  1.0
  Sn  Sn64  1  0.19057633  0.64275700  0.08307914  1.0
  Sn  Sn65  1  0.19057633  0.97609033  0.08307914  1.0
  Sn  Sn66  1  0.52390967  0.30942367  0.08307914  1.0
  Sn  Sn67  1  0.52390967  0.64275700  0.08307914  1.0
  Sn  Sn68  1  0.52390967  0.97609033  0.08307914  1.0
  Sn  Sn69  1  0.85724300  0.30942367  0.08307914  1.0
  Sn  Sn70  1  0.85724300  0.64275700  0.08307914  1.0
  Sn  Sn71  1  0.85724300  0.97609033  0.08307914  1.0
  Sn  Sn72  1  0.14275700  0.19057633  0.12144657  1.0
  Sn  Sn73  1  0.14275700  0.52390967  0.12144657  1.0
  Sn  Sn74  1  0.14275700  0.85724300  0.12144657  1.0
  Sn  Sn75  1  0.47609033  0.19057633  0.12144657  1.0
  Sn  Sn76  1  0.47609033  0.52390967  0.12144657  1.0
  Sn  Sn77  1  0.47609033  0.85724300  0.12144657  1.0
  Sn  Sn78  1  0.80942367  0.19057633  0.12144657  1.0
  Sn  Sn79  1  0.80942367  0.52390967  0.12144657  1.0
  Sn  Sn80  1  0.80942367  0.85724300  0.12144657  1.0
  Sn  Sn81  1  0.14275700  0.02390967  0.05001800  1.0
  Sn  Sn82  1  0.14275700  0.35724300  0.05001800  1.0
  Sn  Sn83  1  0.14275700  0.69057633  0.05001800  1.0
  Sn  Sn84  1  0.47609033  0.02390967  0.05001800  1.0
  Sn  Sn85  1  0.47609033  0.35724300  0.05001800  1.0
  Sn  Sn86  1  0.47609033  0.69057633  0.05001800  1.0
  Sn  Sn87  1  0.80942367  0.02390967  0.05001800  1.0
  Sn  Sn88  1  0.80942367  0.35724300  0.05001800  1.0
  Sn  Sn89  1  0.80942367  0.69057633  0.05001800  1.0
  Sn  Sn90  1  0.27605733  0.05727600  0.13569771  1.0
  Sn  Sn91  1  0.27605733  0.39060933  0.13569771  1.0
  Sn  Sn92  1  0.27605733  0.72394267  0.13569771  1.0
  Sn  Sn93  1  0.60939067  0.05727600  0.13569771  1.0
  Sn  Sn94  1  0.60939067  0.39060933  0.13569771  1.0
  Sn  Sn95  1  0.60939067  0.72394267  0.13569771  1.0
  Sn  Sn96  1  0.94272400  0.05727600  0.13569771  1.0
  Sn  Sn97  1  0.94272400  0.39060933  0.13569771  1.0
  Sn  Sn98  1  0.94272400  0.72394267  0.13569771  1.0
  Sn  Sn99  1  0.27605733  0.22394267  0.06426914  1.0
  Sn  Sn100  1  0.27605733  0.55727600  0.06426914  1.0
  Sn  Sn101  1  0.27605733  0.89060933  0.06426914  1.0
  Sn  Sn102  1  0.60939067  0.22394267  0.06426914  1.0
  Sn  Sn103  1  0.60939067  0.55727600  0.06426914  1.0
  Sn  Sn104  1  0.60939067  0.89060933  0.06426914  1.0
  Sn  Sn105  1  0.94272400  0.22394267  0.06426914  1.0
  Sn  Sn106  1  0.94272400  0.55727600  0.06426914  1.0
  Sn  Sn107  1  0.94272400  0.89060933  0.06426914  1.0
  Sn  Sn108  1  0.05727600  0.27605733  0.14025657  1.0
  Sn  Sn109  1  0.05727600  0.60939067  0.14025657  1.0
  Sn  Sn110  1  0.05727600  0.94272400  0.14025657  1.0
  Sn  Sn111  1  0.39060933  0.27605733  0.14025657  1.0
  Sn  Sn112  1  0.39060933  0.60939067  0.14025657  1.0
  Sn  Sn113  1  0.39060933  0.94272400  0.14025657  1.0
  Sn  Sn114  1  0.72394267  0.27605733  0.14025657  1.0
  Sn  Sn115  1  0.72394267  0.60939067  0.14025657  1.0
  Sn  Sn116  1  0.72394267  0.94272400  0.14025657  1.0
  Sn  Sn117  1  0.05727600  0.10939067  0.06882800  1.0
  Sn  Sn118  1  0.05727600  0.44272400  0.06882800  1.0
  Sn  Sn119  1  0.05727600  0.77605733  0.06882800  1.0
  Sn  Sn120  1  0.39060933  0.10939067  0.06882800  1.0
  Sn  Sn121  1  0.39060933  0.44272400  0.06882800  1.0
  Sn  Sn122  1  0.39060933  0.77605733  0.06882800  1.0
  Sn  Sn123  1  0.72394267  0.10939067  0.06882800  1.0
  Sn  Sn124  1  0.72394267  0.44272400  0.06882800  1.0
  Sn  Sn125  1  0.72394267  0.77605733  0.06882800  1.0
  Ni  Ni126  1  0.00000000  0.16666667  0.20940571  1.0
  Ni  Ni127  1  0.00000000  0.50000000  0.20940571  1.0
  Ni  Ni128  1  0.00000000  0.83333333  0.20940571  1.0
  Ni  Ni129  1  0.33333333  0.16666667  0.20940571  1.0
  Ni  Ni130  1  0.33333333  0.50000000  0.20940571  1.0
  Ni  Ni131  1  0.33333333  0.83333333  0.20940571  1.0
  Ni  Ni132  1  0.66666667  0.16666667  0.20940571  1.0
  Ni  Ni133  1  0.66666667  0.50000000  0.20940571  1.0
  Ni  Ni134  1  0.66666667  0.83333333  0.20940571  1.0
  Ni  Ni135  1  0.00000000  0.00000000  0.28083429  1.0
  Ni  Ni136  1  0.00000000  0.33333333  0.28083429  1.0
  Ni  Ni137  1  0.00000000  0.66666667  0.28083429  1.0
  Ni  Ni138  1  0.33333333  0.00000000  0.28083429  1.0
  Ni  Ni139  1  0.33333333  0.33333333  0.28083429  1.0
  Ni  Ni140  1  0.33333333  0.66666667  0.28083429  1.0
  Ni  Ni141  1  0.66666667  0.00000000  0.28083429  1.0
  Ni  Ni142  1  0.66666667  0.33333333  0.28083429  1.0
  Ni  Ni143  1  0.66666667  0.66666667  0.28083429  1.0
  Ni  Ni144  1  0.26137867  0.07195467  0.21688629  1.0
  Ni  Ni145  1  0.26137867  0.40528800  0.21688629  1.0
  Ni  Ni146  1  0.26137867  0.73862133  0.21688629  1.0
  Ni  Ni147  1  0.59471200  0.07195467  0.21688629  1.0
  Ni  Ni148  1  0.59471200  0.40528800  0.21688629  1.0
  Ni  Ni149  1  0.59471200  0.73862133  0.21688629  1.0
  Ni  Ni150  1  0.92804533  0.07195467  0.21688629  1.0
  Ni  Ni151  1  0.92804533  0.40528800  0.21688629  1.0
  Ni  Ni152  1  0.92804533  0.73862133  0.21688629  1.0
  Ni  Ni153  1  0.26137867  0.23862133  0.14545771  1.0
  Ni  Ni154  1  0.26137867  0.57195467  0.14545771  1.0
  Ni  Ni155  1  0.26137867  0.90528800  0.14545771  1.0
  Ni  Ni156  1  0.59471200  0.23862133  0.14545771  1.0
  Ni  Ni157  1  0.59471200  0.57195467  0.14545771  1.0
  Ni  Ni158  1  0.59471200  0.90528800  0.14545771  1.0
  Ni  Ni159  1  0.92804533  0.23862133  0.14545771  1.0
  Ni  Ni160  1  0.92804533  0.57195467  0.14545771  1.0
  Ni  Ni161  1  0.92804533  0.90528800  0.14545771  1.0
  Ni  Ni162  1  0.07195467  0.26137867  0.20192514  1.0
  Ni  Ni163  1  0.07195467  0.59471200  0.20192514  1.0
  Ni  Ni164  1  0.07195467  0.92804533  0.20192514  1.0
  Ni  Ni165  1  0.40528800  0.26137867  0.20192514  1.0
  Ni  Ni166  1  0.40528800  0.59471200  0.20192514  1.0
  Ni  Ni167  1  0.40528800  0.92804533  0.20192514  1.0
  Ni  Ni168  1  0.73862133  0.26137867  0.20192514  1.0
  Ni  Ni169  1  0.73862133  0.59471200  0.20192514  1.0
  Ni  Ni170  1  0.73862133  0.92804533  0.20192514  1.0
  Ni  Ni171  1  0.07195467  0.09471200  0.27335371  1.0
  Ni  Ni172  1  0.07195467  0.42804533  0.27335371  1.0
  Ni  Ni173  1  0.07195467  0.76137867  0.27335371  1.0
  Ni  Ni174  1  0.40528800  0.09471200  0.27335371  1.0
  Ni  Ni175  1  0.40528800  0.42804533  0.27335371  1.0
  Ni  Ni176  1  0.40528800  0.76137867  0.27335371  1.0
  Ni  Ni177  1  0.73862133  0.09471200  0.27335371  1.0
  Ni  Ni178  1  0.73862133  0.42804533  0.27335371  1.0
  Ni  Ni179  1  0.73862133  0.76137867  0.27335371  1.0
  Sn  Sn180  1  0.19057633  0.14275700  0.15450771  1.0
  Sn  Sn181  1  0.19057633  0.47609033  0.15450771  1.0
  Sn  Sn182  1  0.19057633  0.80942367  0.15450771  1.0
  Sn  Sn183  1  0.52390967  0.14275700  0.15450771  1.0
  Sn  Sn184  1  0.52390967  0.47609033  0.15450771  1.0
  Sn  Sn185  1  0.52390967  0.80942367  0.15450771  1.0
  Sn  Sn186  1  0.85724300  0.14275700  0.15450771  1.0
  Sn  Sn187  1  0.85724300  0.47609033  0.15450771  1.0
  Sn  Sn188  1  0.85724300  0.80942367  0.15450771  1.0
  Sn  Sn189  1  0.19057633  0.30942367  0.22593629  1.0
  Sn  Sn190  1  0.19057633  0.64275700  0.22593629  1.0
  Sn  Sn191  1  0.19057633  0.97609033  0.22593629  1.0
  Sn  Sn192  1  0.52390967  0.30942367  0.22593629  1.0
  Sn  Sn193  1  0.52390967  0.64275700  0.22593629  1.0
  Sn  Sn194  1  0.52390967  0.97609033  0.22593629  1.0
  Sn  Sn195  1  0.85724300  0.30942367  0.22593629  1.0
  Sn  Sn196  1  0.85724300  0.64275700  0.22593629  1.0
  Sn  Sn197  1  0.85724300  0.97609033  0.22593629  1.0
  Sn  Sn198  1  0.14275700  0.19057633  0.26430371  1.0
  Sn  Sn199  1  0.14275700  0.52390967  0.26430371  1.0
  Sn  Sn200  1  0.14275700  0.85724300  0.26430371  1.0
  Sn  Sn201  1  0.47609033  0.19057633  0.26430371  1.0
  Sn  Sn202  1  0.47609033  0.52390967  0.26430371  1.0
  Sn  Sn203  1  0.47609033  0.85724300  0.26430371  1.0
  Sn  Sn204  1  0.80942367  0.19057633  0.26430371  1.0
  Sn  Sn205  1  0.80942367  0.52390967  0.26430371  1.0
  Sn  Sn206  1  0.80942367  0.85724300  0.26430371  1.0
  Sn  Sn207  1  0.14275700  0.02390967  0.19287514  1.0
  Sn  Sn208  1  0.14275700  0.35724300  0.19287514  1.0
  Sn  Sn209  1  0.14275700  0.69057633  0.19287514  1.0
  Sn  Sn210  1  0.47609033  0.02390967  0.19287514  1.0
  Sn  Sn211  1  0.47609033  0.35724300  0.19287514  1.0
  Sn  Sn212  1  0.47609033  0.69057633  0.19287514  1.0
  Sn  Sn213  1  0.80942367  0.02390967  0.19287514  1.0
  Sn  Sn214  1  0.80942367  0.35724300  0.19287514  1.0
  Sn  Sn215  1  0.80942367  0.69057633  0.19287514  1.0
  Sn  Sn216  1  0.27605733  0.05727600  0.27855486  1.0
  Sn  Sn217  1  0.27605733  0.39060933  0.27855486  1.0
  Sn  Sn218  1  0.27605733  0.72394267  0.27855486  1.0
  Sn  Sn219  1  0.60939067  0.05727600  0.27855486  1.0
  Sn  Sn220  1  0.60939067  0.39060933  0.27855486  1.0
  Sn  Sn221  1  0.60939067  0.72394267  0.27855486  1.0
  Sn  Sn222  1  0.94272400  0.05727600  0.27855486  1.0
  Sn  Sn223  1  0.94272400  0.39060933  0.27855486  1.0
  Sn  Sn224  1  0.94272400  0.72394267  0.27855486  1.0
  Sn  Sn225  1  0.27605733  0.22394267  0.20712629  1.0
  Sn  Sn226  1  0.27605733  0.55727600  0.20712629  1.0
  Sn  Sn227  1  0.27605733  0.89060933  0.20712629  1.0
  Sn  Sn228  1  0.60939067  0.22394267  0.20712629  1.0
  Sn  Sn229  1  0.60939067  0.55727600  0.20712629  1.0
  Sn  Sn230  1  0.60939067  0.89060933  0.20712629  1.0
  Sn  Sn231  1  0.94272400  0.22394267  0.20712629  1.0
  Sn  Sn232  1  0.94272400  0.55727600  0.20712629  1.0
  Sn  Sn233  1  0.94272400  0.89060933  0.20712629  1.0
  Sn  Sn234  1  0.05727600  0.27605733  0.28311371  1.0
  Sn  Sn235  1  0.05727600  0.60939067  0.28311371  1.0
  Sn  Sn236  1  0.05727600  0.94272400  0.28311371  1.0
  Sn  Sn237  1  0.39060933  0.27605733  0.28311371  1.0
  Sn  Sn238  1  0.39060933  0.60939067  0.28311371  1.0
  Sn  Sn239  1  0.39060933  0.94272400  0.28311371  1.0
  Sn  Sn240  1  0.72394267  0.27605733  0.28311371  1.0
  Sn  Sn241  1  0.72394267  0.60939067  0.28311371  1.0
  Sn  Sn242  1  0.72394267  0.94272400  0.28311371  1.0
  Sn  Sn243  1  0.05727600  0.10939067  0.21168514  1.0
  Sn  Sn244  1  0.05727600  0.44272400  0.21168514  1.0
  Sn  Sn245  1  0.05727600  0.77605733  0.21168514  1.0
  Sn  Sn246  1  0.39060933  0.10939067  0.21168514  1.0
  Sn  Sn247  1  0.39060933  0.44272400  0.21168514  1.0
  Sn  Sn248  1  0.39060933  0.77605733  0.21168514  1.0
  Sn  Sn249  1  0.72394267  0.10939067  0.21168514  1.0
  Sn  Sn250  1  0.72394267  0.44272400  0.21168514  1.0
  Sn  Sn251  1  0.72394267  0.77605733  0.21168514  1.0
  Ni  Ni252  1  0.00000000  0.16666667  0.35226286  1.0
  Ni  Ni253  1  0.00000000  0.50000000  0.35226286  1.0
  Ni  Ni254  1  0.00000000  0.83333333  0.35226286  1.0
  Ni  Ni255  1  0.33333333  0.16666667  0.35226286  1.0
  Ni  Ni256  1  0.33333333  0.50000000  0.35226286  1.0
  Ni  Ni257  1  0.33333333  0.83333333  0.35226286  1.0
  Ni  Ni258  1  0.66666667  0.16666667  0.35226286  1.0
  Ni  Ni259  1  0.66666667  0.50000000  0.35226286  1.0
  Ni  Ni260  1  0.66666667  0.83333333  0.35226286  1.0
  Ni  Ni261  1  0.00000000  0.00000000  0.42369143  1.0
  Ni  Ni262  1  0.00000000  0.33333333  0.42369143  1.0
  Ni  Ni263  1  0.00000000  0.66666667  0.42369143  1.0
  Ni  Ni264  1  0.33333333  0.00000000  0.42369143  1.0
  Ni  Ni265  1  0.33333333  0.33333333  0.42369143  1.0
  Ni  Ni266  1  0.33333333  0.66666667  0.42369143  1.0
  Ni  Ni267  1  0.66666667  0.00000000  0.42369143  1.0
  Ni  Ni268  1  0.66666667  0.33333333  0.42369143  1.0
  Ni  Ni269  1  0.66666667  0.66666667  0.42369143  1.0
  Ni  Ni270  1  0.26137867  0.07195467  0.35974343  1.0
  Ni  Ni271  1  0.26137867  0.40528800  0.35974343  1.0
  Ni  Ni272  1  0.26137867  0.73862133  0.35974343  1.0
  Ni  Ni273  1  0.59471200  0.07195467  0.35974343  1.0
  Ni  Ni274  1  0.59471200  0.40528800  0.35974343  1.0
  Ni  Ni275  1  0.59471200  0.73862133  0.35974343  1.0
  Ni  Ni276  1  0.92804533  0.07195467  0.35974343  1.0
  Ni  Ni277  1  0.92804533  0.40528800  0.35974343  1.0
  Ni  Ni278  1  0.92804533  0.73862133  0.35974343  1.0
  Ni  Ni279  1  0.26137867  0.23862133  0.28831486  1.0
  Ni  Ni280  1  0.26137867  0.57195467  0.28831486  1.0
  Ni  Ni281  1  0.26137867  0.90528800  0.28831486  1.0
  Ni  Ni282  1  0.59471200  0.23862133  0.28831486  1.0
  Ni  Ni283  1  0.59471200  0.57195467  0.28831486  1.0
  Ni  Ni284  1  0.59471200  0.90528800  0.28831486  1.0
  Ni  Ni285  1  0.92804533  0.23862133  0.28831486  1.0
  Ni  Ni286  1  0.92804533  0.57195467  0.28831486  1.0
  Ni  Ni287  1  0.92804533  0.90528800  0.28831486  1.0
  Ni  Ni288  1  0.07195467  0.26137867  0.34478229  1.0
  Ni  Ni289  1  0.07195467  0.59471200  0.34478229  1.0
  Ni  Ni290  1  0.07195467  0.92804533  0.34478229  1.0
  Ni  Ni291  1  0.40528800  0.26137867  0.34478229  1.0
  Ni  Ni292  1  0.40528800  0.59471200  0.34478229  1.0
  Ni  Ni293  1  0.40528800  0.92804533  0.34478229  1.0
  Ni  Ni294  1  0.73862133  0.26137867  0.34478229  1.0
  Ni  Ni295  1  0.73862133  0.59471200  0.34478229  1.0
  Ni  Ni296  1  0.73862133  0.92804533  0.34478229  1.0
  Ni  Ni297  1  0.07195467  0.09471200  0.41621086  1.0
  Ni  Ni298  1  0.07195467  0.42804533  0.41621086  1.0
  Ni  Ni299  1  0.07195467  0.76137867  0.41621086  1.0
  Ni  Ni300  1  0.40528800  0.09471200  0.41621086  1.0
  Ni  Ni301  1  0.40528800  0.42804533  0.41621086  1.0
  Ni  Ni302  1  0.40528800  0.76137867  0.41621086  1.0
  Ni  Ni303  1  0.73862133  0.09471200  0.41621086  1.0
  Ni  Ni304  1  0.73862133  0.42804533  0.41621086  1.0
  Ni  Ni305  1  0.73862133  0.76137867  0.41621086  1.0
  Sn  Sn306  1  0.19057633  0.14275700  0.29736486  1.0
  Sn  Sn307  1  0.19057633  0.47609033  0.29736486  1.0
  Sn  Sn308  1  0.19057633  0.80942367  0.29736486  1.0
  Sn  Sn309  1  0.52390967  0.14275700  0.29736486  1.0
  Sn  Sn310  1  0.52390967  0.47609033  0.29736486  1.0
  Sn  Sn311  1  0.52390967  0.80942367  0.29736486  1.0
  Sn  Sn312  1  0.85724300  0.14275700  0.29736486  1.0
  Sn  Sn313  1  0.85724300  0.47609033  0.29736486  1.0
  Sn  Sn314  1  0.85724300  0.80942367  0.29736486  1.0
  Sn  Sn315  1  0.19057633  0.30942367  0.36879343  1.0
  Sn  Sn316  1  0.19057633  0.64275700  0.36879343  1.0
  Sn  Sn317  1  0.19057633  0.97609033  0.36879343  1.0
  Sn  Sn318  1  0.52390967  0.30942367  0.36879343  1.0
  Sn  Sn319  1  0.52390967  0.64275700  0.36879343  1.0
  Sn  Sn320  1  0.52390967  0.97609033  0.36879343  1.0
  Sn  Sn321  1  0.85724300  0.30942367  0.36879343  1.0
  Sn  Sn322  1  0.85724300  0.64275700  0.36879343  1.0
  Sn  Sn323  1  0.85724300  0.97609033  0.36879343  1.0
  Sn  Sn324  1  0.14275700  0.19057633  0.40716086  1.0
  Sn  Sn325  1  0.14275700  0.52390967  0.40716086  1.0
  Sn  Sn326  1  0.14275700  0.85724300  0.40716086  1.0
  Sn  Sn327  1  0.47609033  0.19057633  0.40716086  1.0
  Sn  Sn328  1  0.47609033  0.52390967  0.40716086  1.0
  Sn  Sn329  1  0.47609033  0.85724300  0.40716086  1.0
  Sn  Sn330  1  0.80942367  0.19057633  0.40716086  1.0
  Sn  Sn331  1  0.80942367  0.52390967  0.40716086  1.0
  Sn  Sn332  1  0.80942367  0.85724300  0.40716086  1.0
  Sn  Sn333  1  0.14275700  0.02390967  0.33573229  1.0
  Sn  Sn334  1  0.14275700  0.35724300  0.33573229  1.0
  Sn  Sn335  1  0.14275700  0.69057633  0.33573229  1.0
  Sn  Sn336  1  0.47609033  0.02390967  0.33573229  1.0
  Sn  Sn337  1  0.47609033  0.35724300  0.33573229  1.0
  Sn  Sn338  1  0.47609033  0.69057633  0.33573229  1.0
  Sn  Sn339  1  0.80942367  0.02390967  0.33573229  1.0
  Sn  Sn340  1  0.80942367  0.35724300  0.33573229  1.0
  Sn  Sn341  1  0.80942367  0.69057633  0.33573229  1.0
  Sn  Sn342  1  0.27605733  0.05727600  0.42141200  1.0
  Sn  Sn343  1  0.27605733  0.39060933  0.42141200  1.0
  Sn  Sn344  1  0.27605733  0.72394267  0.42141200  1.0
  Sn  Sn345  1  0.60939067  0.05727600  0.42141200  1.0
  Sn  Sn346  1  0.60939067  0.39060933  0.42141200  1.0
  Sn  Sn347  1  0.60939067  0.72394267  0.42141200  1.0
  Sn  Sn348  1  0.94272400  0.05727600  0.42141200  1.0
  Sn  Sn349  1  0.94272400  0.39060933  0.42141200  1.0
  Sn  Sn350  1  0.94272400  0.72394267  0.42141200  1.0
  Sn  Sn351  1  0.27605733  0.22394267  0.34998343  1.0
  Sn  Sn352  1  0.27605733  0.55727600  0.34998343  1.0
  Sn  Sn353  1  0.27605733  0.89060933  0.34998343  1.0
  Sn  Sn354  1  0.60939067  0.22394267  0.34998343  1.0
  Sn  Sn355  1  0.60939067  0.55727600  0.34998343  1.0
  Sn  Sn356  1  0.60939067  0.89060933  0.34998343  1.0
  Sn  Sn357  1  0.94272400  0.22394267  0.34998343  1.0
  Sn  Sn358  1  0.94272400  0.55727600  0.34998343  1.0
  Sn  Sn359  1  0.94272400  0.89060933  0.34998343  1.0
  Sn  Sn360  1  0.05727600  0.27605733  0.42597086  1.0
  Sn  Sn361  1  0.05727600  0.60939067  0.42597086  1.0
  Sn  Sn362  1  0.05727600  0.94272400  0.42597086  1.0
  Sn  Sn363  1  0.39060933  0.27605733  0.42597086  1.0
  Sn  Sn364  1  0.39060933  0.60939067  0.42597086  1.0
  Sn  Sn365  1  0.39060933  0.94272400  0.42597086  1.0
  Sn  Sn366  1  0.72394267  0.27605733  0.42597086  1.0
  Sn  Sn367  1  0.72394267  0.60939067  0.42597086  1.0
  Sn  Sn368  1  0.72394267  0.94272400  0.42597086  1.0
  Sn  Sn369  1  0.05727600  0.10939067  0.35454229  1.0
  Sn  Sn370  1  0.05727600  0.44272400  0.35454229  1.0
  Sn  Sn371  1  0.05727600  0.77605733  0.35454229  1.0
  Sn  Sn372  1  0.39060933  0.10939067  0.35454229  1.0
  Sn  Sn373  1  0.39060933  0.44272400  0.35454229  1.0
  Sn  Sn374  1  0.39060933  0.77605733  0.35454229  1.0
  Sn  Sn375  1  0.72394267  0.10939067  0.35454229  1.0
  Sn  Sn376  1  0.72394267  0.44272400  0.35454229  1.0
  Sn  Sn377  1  0.72394267  0.77605733  0.35454229  1.0
