# generated using pymatgen
data_Ni3Sb
_symmetry_space_group_name_H-M   'P 1'
_cell_length_a   15.79372092
_cell_length_b   15.79372092
_cell_length_c   29.91387000
_cell_angle_alpha   90.00000000
_cell_angle_beta   90.00000000
_cell_angle_gamma   120.00000000
_symmetry_Int_Tables_number   1
_chemical_formula_structural   Ni3Sb
_chemical_formula_sum   'Ni162 Sb54'
_cell_volume   6462.07736134
_cell_formula_units_Z   54
loop_
 _symmetry_equiv_pos_site_id
 _symmetry_equiv_pos_as_xyz
  1  'x, y, z'
loop_
 _atom_site_type_symbol
 _atom_site_label
 _atom_site_symmetry_multiplicity
 _atom_site_fract_x
 _atom_site_fract_y
 _atom_site_fract_z
 _atom_site_occupancy
  Ni  Ni0  1  0.27921767  0.05411567  0.10714286  1.0
  Ni  Ni1  1  0.27921767  0.38744900  0.10714286  1.0
  Ni  Ni2  1  0.27921767  0.72078233  0.10714286  1.0
  Ni  Ni3  1  0.61255100  0.05411567  0.10714286  1.0
  Ni  Ni4  1  0.61255100  0.38744900  0.10714286  1.0
  Ni  Ni5  1  0.61255100  0.72078233  0.10714286  1.0
  Ni  Ni6  1  0.94588433  0.05411567  0.10714286  1.0
  Ni  Ni7  1  0.94588433  0.38744900  0.10714286  1.0
  Ni  Ni8  1  0.94588433  0.72078233  0.10714286  1.0
  Ni  Ni9  1  0.27921767  0.22510200  0.10714286  1.0
  Ni  Ni10  1  0.27921767  0.55843533  0.10714286  1.0
  Ni  Ni11  1  0.27921767  0.89176867  0.10714286  1.0
  Ni  Ni12  1  0.61255100  0.22510200  0.10714286  1.0
  Ni  Ni13  1  0.61255100  0.55843533  0.10714286  1.0
  Ni  Ni14  1  0.61255100  0.89176867  0.10714286  1.0
  Ni  Ni15  1  0.94588433  0.22510200  0.10714286  1.0
  Ni  Ni16  1  0.94588433  0.55843533  0.10714286  1.0
  Ni  Ni17  1  0.94588433  0.89176867  0.10714286  1.0
  Ni  Ni18  1  0.22510200  0.27921767  0.03571429  1.0
  Ni  Ni19  1  0.22510200  0.61255100  0.03571429  1.0
  Ni  Ni20  1  0.22510200  0.94588433  0.03571429  1.0
  Ni  Ni21  1  0.55843533  0.27921767  0.03571429  1.0
  Ni  Ni22  1  0.55843533  0.61255100  0.03571429  1.0
  Ni  Ni23  1  0.55843533  0.94588433  0.03571429  1.0
  Ni  Ni24  1  0.89176867  0.27921767  0.03571429  1.0
  Ni  Ni25  1  0.89176867  0.61255100  0.03571429  1.0
  Ni  Ni26  1  0.89176867  0.94588433  0.03571429  1.0
  Ni  Ni27  1  0.05411567  0.27921767  0.03571429  1.0
  Ni  Ni28  1  0.05411567  0.61255100  0.03571429  1.0
  Ni  Ni29  1  0.05411567  0.94588433  0.03571429  1.0
  Ni  Ni30  1  0.38744900  0.27921767  0.03571429  1.0
  Ni  Ni31  1  0.38744900  0.61255100  0.03571429  1.0
  Ni  Ni32  1  0.38744900  0.94588433  0.03571429  1.0
  Ni  Ni33  1  0.72078233  0.27921767  0.03571429  1.0
  Ni  Ni34  1  0.72078233  0.61255100  0.03571429  1.0
  Ni  Ni35  1  0.72078233  0.94588433  0.03571429  1.0
  Ni  Ni36  1  0.05411567  0.10823133  0.03571429  1.0
  Ni  Ni37  1  0.05411567  0.44156467  0.03571429  1.0
  Ni  Ni38  1  0.05411567  0.77489800  0.03571429  1.0
  Ni  Ni39  1  0.38744900  0.10823133  0.03571429  1.0
  Ni  Ni40  1  0.38744900  0.44156467  0.03571429  1.0
  Ni  Ni41  1  0.38744900  0.77489800  0.03571429  1.0
  Ni  Ni42  1  0.72078233  0.10823133  0.03571429  1.0
  Ni  Ni43  1  0.72078233  0.44156467  0.03571429  1.0
  Ni  Ni44  1  0.72078233  0.77489800  0.03571429  1.0
  Ni  Ni45  1  0.10823133  0.05411567  0.10714286  1.0
  Ni  Ni46  1  0.10823133  0.38744900  0.10714286  1.0
  Ni  Ni47  1  0.10823133  0.72078233  0.10714286  1.0
  Ni  Ni48  1  0.44156467  0.05411567  0.10714286  1.0
  Ni  Ni49  1  0.44156467  0.38744900  0.10714286  1.0
  Ni  Ni50  1  0.44156467  0.72078233  0.10714286  1.0
  Ni  Ni51  1  0.77489800  0.05411567  0.10714286  1.0
  Ni  Ni52  1  0.77489800  0.38744900  0.10714286  1.0
  Ni  Ni53  1  0.77489800  0.72078233  0.10714286  1.0
  Sb  Sb54  1  0.22222222  0.11111111  0.03571429  1.0
  Sb  Sb55  1  0.22222222  0.44444444  0.03571429  1.0
  Sb  Sb56  1  0.22222222  0.77777778  0.03571429  1.0
  Sb  Sb57  1  0.55555556  0.11111111  0.03571429  1.0
  Sb  Sb58  1  0.55555556  0.44444444  0.03571429  1.0
  Sb  Sb59  1  0.55555556  0.77777778  0.03571429  1.0
  Sb  Sb60  1  0.88888889  0.11111111  0.03571429  1.0
  Sb  Sb61  1  0.88888889  0.44444444  0.03571429  1.0
  Sb  Sb62  1  0.88888889  0.77777778  0.03571429  1.0
  Sb  Sb63  1  0.11111111  0.22222222  0.10714286  1.0
  Sb  Sb64  1  0.11111111  0.55555556  0.10714286  1.0
  Sb  Sb65  1  0.11111111  0.88888889  0.10714286  1.0
  Sb  Sb66  1  0.44444444  0.22222222  0.10714286  1.0
  Sb  Sb67  1  0.44444444  0.55555556  0.10714286  1.0
  Sb  Sb68  1  0.44444444  0.88888889  0.10714286  1.0
  Sb  Sb69  1  0.77777778  0.22222222  0.10714286  1.0
  Sb  Sb70  1  0.77777778  0.55555556  0.10714286  1.0
  Sb  Sb71  1  0.77777778  0.88888889  0.10714286  1.0
  Ni  Ni72  1  0.27921767  0.05411567  0.25000000  1.0
  Ni  Ni73  1  0.27921767  0.38744900  0.25000000  1.0
  Ni  Ni74  1  0.27921767  0.72078233  0.25000000  1.0
  Ni  Ni75  1  0.61255100  0.05411567  0.25000000  1.0
  Ni  Ni76  1  0.61255100  0.38744900  0.25000000  1.0
  Ni  Ni77  1  0.61255100  0.72078233  0.25000000  1.0
  Ni  Ni78  1  0.94588433  0.05411567  0.25000000  1.0
  Ni  Ni79  1  0.94588433  0.38744900  0.25000000  1.0
  Ni  Ni80  1  0.94588433  0.72078233  0.25000000  1.0
  Ni  Ni81  1  0.27921767  0.22510200  0.25000000  1.0
  Ni  Ni82  1  0.27921767  0.55843533  0.25000000  1.0
  Ni  Ni83  1  0.27921767  0.89176867  0.25000000  1.0
  Ni  Ni84  1  0.61255100  0.22510200  0.25000000  1.0
  Ni  Ni85  1  0.61255100  0.55843533  0.25000000  1.0
  Ni  Ni86  1  0.61255100  0.89176867  0.25000000  1.0
  Ni  Ni87  1  0.94588433  0.22510200  0.25000000  1.0
  Ni  Ni88  1  0.94588433  0.55843533  0.25000000  1.0
  Ni  Ni89  1  0.94588433  0.89176867  0.25000000  1.0
  Ni  Ni90  1  0.22510200  0.27921767  0.17857143  1.0
  Ni  Ni91  1  0.22510200  0.61255100  0.17857143  1.0
  Ni  Ni92  1  0.22510200  0.94588433  0.17857143  1.0
  Ni  Ni93  1  0.55843533  0.27921767  0.17857143  1.0
  Ni  Ni94  1  0.55843533  0.61255100  0.17857143  1.0
  Ni  Ni95  1  0.55843533  0.94588433  0.17857143  1.0
  Ni  Ni96  1  0.89176867  0.27921767  0.17857143  1.0
  Ni  Ni97  1  0.89176867  0.61255100  0.17857143  1.0
  Ni  Ni98  1  0.89176867  0.94588433  0.17857143  1.0
  Ni  Ni99  1  0.05411567  0.27921767  0.17857143  1.0
  Ni  Ni100  1  0.05411567  0.61255100  0.17857143  1.0
  Ni  Ni101  1  0.05411567  0.94588433  0.17857143  1.0
  Ni  Ni102  1  0.38744900  0.27921767  0.17857143  1.0
  Ni  Ni103  1  0.38744900  0.61255100  0.17857143  1.0
  Ni  Ni104  1  0.38744900  0.94588433  0.17857143  1.0
  Ni  Ni105  1  0.72078233  0.27921767  0.17857143  1.0
  Ni  Ni106  1  0.72078233  0.61255100  0.17857143  1.0
  Ni  Ni107  1  0.72078233  0.94588433  0.17857143  1.0
  Ni  Ni108  1  0.05411567  0.10823133  0.17857143  1.0
  Ni  Ni109  1  0.05411567  0.44156467  0.17857143  1.0
  Ni  Ni110  1  0.05411567  0.77489800  0.17857143  1.0
  Ni  Ni111  1  0.38744900  0.10823133  0.17857143  1.0
  Ni  Ni112  1  0.38744900  0.44156467  0.17857143  1.0
  Ni  Ni113  1  0.38744900  0.77489800  0.17857143  1.0
  Ni  Ni114  1  0.72078233  0.10823133  0.17857143  1.0
  Ni  Ni115  1  0.72078233  0.44156467  0.17857143  1.0
  Ni  Ni116  1  0.72078233  0.77489800  0.17857143  1.0
  Ni  Ni117  1  0.10823133  0.05411567  0.25000000  1.0
  Ni  Ni118  1  0.10823133  0.38744900  0.25000000  1.0
  Ni  Ni119  1  0.10823133  0.72078233  0.25000000  1.0
  Ni  Ni120  1  0.44156467  0.05411567  0.25000000  1.0
  Ni  Ni121  1  0.44156467  0.38744900  0.25000000  1.0
  Ni  Ni122  1  0.44156467  0.72078233  0.25000000  1.0
  Ni  Ni123  1  0.77489800  0.05411567  0.25000000  1.0
  Ni  Ni124  1  0.77489800  0.38744900  0.25000000  1.0
  Ni  Ni125  1  0.77489800  0.72078233  0.25000000  1.0
  Sb  Sb126  1  0.22222222  0.11111111  0.17857143  1.0
  Sb  Sb127  1  0.22222222  0.44444444  0.17857143  1.0
  Sb  Sb128  1  0.22222222  0.77777778  0.17857143  1.0
  Sb  Sb129  1  0.55555556  0.11111111  0.17857143  1.0
  Sb  Sb130  1  0.55555556  0.44444444  0.17857143  1.0
  Sb  Sb131  1  0.55555556  0.77777778  0.17857143  1.0
  Sb  Sb132  1  0.88888889  0.11111111  0.17857143  1.0
  Sb  Sb133  1  0.88888889  0.44444444  0.17857143  1.0
  Sb  Sb134  1  0.88888889  0.77777778  0.17857143  1.0
  Sb  Sb135  1  0.11111111  0.22222222  0.25000000  1.0
  Sb  Sb136  1  0.11111111  0.55555556  0.25000000  1.0
  Sb  Sb137  1  0.11111111  0.88888889  0.25000000  1.0
  Sb  Sb138  1  0.44444444  0.22222222  0.25000000  1.0
  Sb  Sb139  1  0.44444444  0.55555556  0.25000000  1.0
  Sb  Sb140  1  0.44444444  0.88888889  0.25000000  1.0
  Sb  Sb141  1  0.77777778  0.22222222  0.25000000  1.0
  Sb  Sb142  1  0.77777778  0.55555556  0.25000000  1.0
  Sb  Sb143  1  0.77777778  0.88888889  0.25000000  1.0
  Ni  Ni144  1  0.27921767  0.05411567  0.39285714  1.0
  Ni  Ni145  1  0.27921767  0.38744900  0.39285714  1.0
  Ni  Ni146  1  0.27921767  0.72078233  0.39285714  1.0
  Ni  Ni147  1  0.61255100  0.05411567  0.39285714  1.0
  Ni  Ni148  1  0.61255100  0.38744900  0.39285714  1.0
  Ni  Ni149  1  0.61255100  0.72078233  0.39285714  1.0
  Ni  Ni150  1  0.94588433  0.05411567  0.39285714  1.0
  Ni  Ni151  1  0.94588433  0.38744900  0.39285714  1.0
  Ni  Ni152  1  0.94588433  0.72078233  0.39285714  1.0
  Ni  Ni153  1  0.27921767  0.22510200  0.39285714  1.0
  Ni  Ni154  1  0.27921767  0.55843533  0.39285714  1.0
  Ni  Ni155  1  0.27921767  0.89176867  0.39285714  1.0
  Ni  Ni156  1  0.61255100  0.22510200  0.39285714  1.0
  Ni  Ni157  1  0.61255100  0.55843533  0.39285714  1.0
  Ni  Ni158  1  0.61255100  0.89176867  0.39285714  1.0
  Ni  Ni159  1  0.94588433  0.22510200  0.39285714  1.0
  Ni  Ni160  1  0.94588433  0.55843533  0.39285714  1.0
  Ni  Ni161  1  0.94588433  0.89176867  0.39285714  1.0
  Ni  Ni162  1  0.22510200  0.27921767  0.32142857  1.0
  Ni  Ni163  1  0.22510200  0.61255100  0.32142857  1.0
  Ni  Ni164  1  0.22510200  0.94588433  0.32142857  1.0
  Ni  Ni165  1  0.55843533  0.27921767  0.32142857  1.0
  Ni  Ni166  1  0.55843533  0.61255100  0.32142857  1.0
  Ni  Ni167  1  0.55843533  0.94588433  0.32142857  1.0
  Ni  Ni168  1  0.89176867  0.27921767  0.32142857  1.0
  Ni  Ni169  1  0.89176867  0.61255100  0.32142857  1.0
  Ni  Ni170  1  0.89176867  0.94588433  0.32142857  1.0
  Ni  Ni171  1  0.05411567  0.27921767  0.32142857  1.0
  Ni  Ni172  1  0.05411567  0.61255100  0.32142857  1.0
  Ni  Ni173  1  0.05411567  0.94588433  0.32142857  1.0
  Ni  Ni174  1  0.38744900  0.27921767  0.32142857  1.0
  Ni  Ni175  1  0.38744900  0.61255100  0.32142857  1.0
  Ni  Ni176  1  0.38744900  0.94588433  0.32142857  1.0
  Ni  Ni177  1  0.72078233  0.27921767  0.32142857  1.0
  Ni  Ni178  1  0.72078233  0.61255100  0.32142857  1.0
  Ni  Ni179  1  0.72078233  0.94588433  0.32142857  1.0
  Ni  Ni180  1  0.05411567  0.10823133  0.32142857  1.0
  Ni  Ni181  1  0.05411567  0.44156467  0.32142857  1.0
  Ni  Ni182  1  0.05411567  0.77489800  0.32142857  1.0
  Ni  Ni183  1  0.38744900  0.10823133  0.32142857  1.0
  Ni  Ni184  1  0.38744900  0.44156467  0.32142857  1.0
  Ni  Ni185  1  0.38744900  0.77489800  0.32142857  1.0
  Ni  Ni186  1  0.72078233  0.10823133  0.32142857  1.0
  Ni  Ni187  1  0.72078233  0.44156467  0.32142857  1.0
  Ni  Ni188  1  0.72078233  0.77489800  0.32142857  1.0
  Ni  Ni189  1  0.10823133  0.05411567  0.39285714  1.0
  Ni  Ni190  1  0.10823133  0.38744900  0.39285714  1.0
  Ni  Ni191  1  0.10823133  0.72078233  0.39285714  1.0
  Ni  Ni192  1  0.44156467  0.05411567  0.39285714  1.0
  Ni  Ni193  1  0.44156467  0.38744900  0.39285714  1.0
  Ni  Ni194  1  0.44156467  0.72078233  0.39285714  1.0
  Ni  Ni195  1  0.77489800  0.05411567  0.39285714  1.0
  Ni  Ni196  1  0.77489800  0.38744900  0.39285714  1.0
  Ni  Ni197  1  0.77489800  0.72078233  0.39285714  1.0
  Sb  Sb198  1  0.22222222  0.11111111  0.32142857  1.0
  Sb  Sb199  1  0.22222222  0.44444444  0.32142857  1.0
  Sb  Sb200  1  0.22222222  0.77777778  0.32142857  1.0
  Sb  Sb201  1  0.55555556  0.11111111  0.32142857  1.0
  Sb  Sb202  1  0.55555556  0.44444444  0.32142857  1.0
  Sb  Sb203  1  0.55555556  0.77777778  0.32142857  1.0
  Sb  Sb204  1  0.88888889  0.11111111  0.32142857  1.0
  Sb  Sb205  1  0.88888889  0.44444444  0.32142857  1.0
  Sb  Sb206  1  0.88888889  0.77777778  0.32142857  1.0
  Sb  Sb207  1  0.11111111  0.22222222  0.39285714  1.0
  Sb  Sb208  1  0.11111111  0.55555556  0.39285714  1.0
  Sb  Sb209  1  0.11111111  0.88888889  0.39285714  1.0
  Sb  Sb210  1  0.44444444  0.22222222  0.39285714  1.0
  Sb  Sb211  1  0.44444444  0.55555556  0.39285714  1.0
  Sb  Sb212  1  0.44444444  0.88888889  0.39285714  1.0
  Sb  Sb213  1  0.77777778  0.22222222  0.39285714  1.0
  Sb  Sb214  1  0.77777778  0.55555556  0.39285714  1.0
  Sb  Sb215  1  0.77777778  0.88888889  0.39285714  1.0
