# generated using pymatgen
data_Ni3Sn
_symmetry_space_group_name_H-M   'P 1'
_cell_length_a   12.56413491
_cell_length_b   30.77571959
_cell_length_c   29.01562669
_cell_angle_alpha   90.00000000
_cell_angle_beta   90.00000000
_cell_angle_gamma   90.00000000
_symmetry_Int_Tables_number   1
_chemical_formula_structural   Ni3Sn
_chemical_formula_sum   'Ni270 Sn90'
_cell_volume   11219.48086986
_cell_formula_units_Z   90
loop_
 _symmetry_equiv_pos_site_id
 _symmetry_equiv_pos_as_xyz
  1  'x, y, z'
loop_
 _atom_site_type_symbol
 _atom_site_label
 _atom_site_symmetry_multiplicity
 _atom_site_fract_x
 _atom_site_fract_y
 _atom_site_fract_z
 _atom_site_occupancy
  Ni  Ni0  1  0.00000000  0.25000000  0.06250000  1.0
  Ni  Ni1  1  0.00000000  0.58333333  0.06250000  1.0
  Ni  Ni2  1  0.00000000  0.91666667  0.06250000  1.0
  Ni  Ni3  1  0.33333333  0.25000000  0.06250000  1.0
  Ni  Ni4  1  0.33333333  0.58333333  0.06250000  1.0
  Ni  Ni5  1  0.33333333  0.91666667  0.06250000  1.0
  Ni  Ni6  1  0.66666667  0.25000000  0.06250000  1.0
  Ni  Ni7  1  0.66666667  0.58333333  0.06250000  1.0
  Ni  Ni8  1  0.66666667  0.91666667  0.06250000  1.0
  Ni  Ni9  1  0.16666667  0.02777778  0.02083333  1.0
  Ni  Ni10  1  0.16666667  0.36111111  0.02083333  1.0
  Ni  Ni11  1  0.16666667  0.69444444  0.02083333  1.0
  Ni  Ni12  1  0.50000000  0.02777778  0.02083333  1.0
  Ni  Ni13  1  0.50000000  0.36111111  0.02083333  1.0
  Ni  Ni14  1  0.50000000  0.69444444  0.02083333  1.0
  Ni  Ni15  1  0.83333333  0.02777778  0.02083333  1.0
  Ni  Ni16  1  0.83333333  0.36111111  0.02083333  1.0
  Ni  Ni17  1  0.83333333  0.69444444  0.02083333  1.0
  Ni  Ni18  1  0.00000000  0.00000000  0.06250000  1.0
  Ni  Ni19  1  0.00000000  0.33333333  0.06250000  1.0
  Ni  Ni20  1  0.00000000  0.66666667  0.06250000  1.0
  Ni  Ni21  1  0.33333333  0.00000000  0.06250000  1.0
  Ni  Ni22  1  0.33333333  0.33333333  0.06250000  1.0
  Ni  Ni23  1  0.33333333  0.66666667  0.06250000  1.0
  Ni  Ni24  1  0.66666667  0.00000000  0.06250000  1.0
  Ni  Ni25  1  0.66666667  0.33333333  0.06250000  1.0
  Ni  Ni26  1  0.66666667  0.66666667  0.06250000  1.0
  Ni  Ni27  1  0.16666667  0.11111111  0.02083333  1.0
  Ni  Ni28  1  0.16666667  0.44444444  0.02083333  1.0
  Ni  Ni29  1  0.16666667  0.77777778  0.02083333  1.0
  Ni  Ni30  1  0.50000000  0.11111111  0.02083333  1.0
  Ni  Ni31  1  0.50000000  0.44444444  0.02083333  1.0
  Ni  Ni32  1  0.50000000  0.77777778  0.02083333  1.0
  Ni  Ni33  1  0.83333333  0.11111111  0.02083333  1.0
  Ni  Ni34  1  0.83333333  0.44444444  0.02083333  1.0
  Ni  Ni35  1  0.83333333  0.77777778  0.02083333  1.0
  Ni  Ni36  1  0.00000000  0.16666667  0.06250000  1.0
  Ni  Ni37  1  0.00000000  0.50000000  0.06250000  1.0
  Ni  Ni38  1  0.00000000  0.83333333  0.06250000  1.0
  Ni  Ni39  1  0.33333333  0.16666667  0.06250000  1.0
  Ni  Ni40  1  0.33333333  0.50000000  0.06250000  1.0
  Ni  Ni41  1  0.33333333  0.83333333  0.06250000  1.0
  Ni  Ni42  1  0.66666667  0.16666667  0.06250000  1.0
  Ni  Ni43  1  0.66666667  0.50000000  0.06250000  1.0
  Ni  Ni44  1  0.66666667  0.83333333  0.06250000  1.0
  Ni  Ni45  1  0.16666667  0.27777778  0.02083333  1.0
  Ni  Ni46  1  0.16666667  0.61111111  0.02083333  1.0
  Ni  Ni47  1  0.16666667  0.94444444  0.02083333  1.0
  Ni  Ni48  1  0.50000000  0.27777778  0.02083333  1.0
  Ni  Ni49  1  0.50000000  0.61111111  0.02083333  1.0
  Ni  Ni50  1  0.50000000  0.94444444  0.02083333  1.0
  Ni  Ni51  1  0.83333333  0.27777778  0.02083333  1.0
  Ni  Ni52  1  0.83333333  0.61111111  0.02083333  1.0
  Ni  Ni53  1  0.83333333  0.94444444  0.02083333  1.0
  Ni  Ni54  1  0.00000000  0.02777778  0.14583333  1.0
  Ni  Ni55  1  0.00000000  0.36111111  0.14583333  1.0
  Ni  Ni56  1  0.00000000  0.69444444  0.14583333  1.0
  Ni  Ni57  1  0.33333333  0.02777778  0.14583333  1.0
  Ni  Ni58  1  0.33333333  0.36111111  0.14583333  1.0
  Ni  Ni59  1  0.33333333  0.69444444  0.14583333  1.0
  Ni  Ni60  1  0.66666667  0.02777778  0.14583333  1.0
  Ni  Ni61  1  0.66666667  0.36111111  0.14583333  1.0
  Ni  Ni62  1  0.66666667  0.69444444  0.14583333  1.0
  Ni  Ni63  1  0.16666667  0.13888889  0.10416667  1.0
  Ni  Ni64  1  0.16666667  0.47222222  0.10416667  1.0
  Ni  Ni65  1  0.16666667  0.80555556  0.10416667  1.0
  Ni  Ni66  1  0.50000000  0.13888889  0.10416667  1.0
  Ni  Ni67  1  0.50000000  0.47222222  0.10416667  1.0
  Ni  Ni68  1  0.50000000  0.80555556  0.10416667  1.0
  Ni  Ni69  1  0.83333333  0.13888889  0.10416667  1.0
  Ni  Ni70  1  0.83333333  0.47222222  0.10416667  1.0
  Ni  Ni71  1  0.83333333  0.80555556  0.10416667  1.0
  Ni  Ni72  1  0.00000000  0.11111111  0.14583333  1.0
  Ni  Ni73  1  0.00000000  0.44444444  0.14583333  1.0
  Ni  Ni74  1  0.00000000  0.77777778  0.14583333  1.0
  Ni  Ni75  1  0.33333333  0.11111111  0.14583333  1.0
  Ni  Ni76  1  0.33333333  0.44444444  0.14583333  1.0
  Ni  Ni77  1  0.33333333  0.77777778  0.14583333  1.0
  Ni  Ni78  1  0.66666667  0.11111111  0.14583333  1.0
  Ni  Ni79  1  0.66666667  0.44444444  0.14583333  1.0
  Ni  Ni80  1  0.66666667  0.77777778  0.14583333  1.0
  Ni  Ni81  1  0.16666667  0.22222222  0.10416667  1.0
  Ni  Ni82  1  0.16666667  0.55555556  0.10416667  1.0
  Ni  Ni83  1  0.16666667  0.88888889  0.10416667  1.0
  Ni  Ni84  1  0.50000000  0.22222222  0.10416667  1.0
  Ni  Ni85  1  0.50000000  0.55555556  0.10416667  1.0
  Ni  Ni86  1  0.50000000  0.88888889  0.10416667  1.0
  Ni  Ni87  1  0.83333333  0.22222222  0.10416667  1.0
  Ni  Ni88  1  0.83333333  0.55555556  0.10416667  1.0
  Ni  Ni89  1  0.83333333  0.88888889  0.10416667  1.0
  Ni  Ni90  1  0.00000000  0.27777778  0.14583333  1.0
  Ni  Ni91  1  0.00000000  0.61111111  0.14583333  1.0
  Ni  Ni92  1  0.00000000  0.94444444  0.14583333  1.0
  Ni  Ni93  1  0.33333333  0.27777778  0.14583333  1.0
  Ni  Ni94  1  0.33333333  0.61111111  0.14583333  1.0
  Ni  Ni95  1  0.33333333  0.94444444  0.14583333  1.0
  Ni  Ni96  1  0.66666667  0.27777778  0.14583333  1.0
  Ni  Ni97  1  0.66666667  0.61111111  0.14583333  1.0
  Ni  Ni98  1  0.66666667  0.94444444  0.14583333  1.0
  Ni  Ni99  1  0.16666667  0.05555556  0.10416667  1.0
  Ni  Ni100  1  0.16666667  0.38888889  0.10416667  1.0
  Ni  Ni101  1  0.16666667  0.72222222  0.10416667  1.0
  Ni  Ni102  1  0.50000000  0.05555556  0.10416667  1.0
  Ni  Ni103  1  0.50000000  0.38888889  0.10416667  1.0
  Ni  Ni104  1  0.50000000  0.72222222  0.10416667  1.0
  Ni  Ni105  1  0.83333333  0.05555556  0.10416667  1.0
  Ni  Ni106  1  0.83333333  0.38888889  0.10416667  1.0
  Ni  Ni107  1  0.83333333  0.72222222  0.10416667  1.0
  Ni  Ni108  1  0.00000000  0.13888889  0.22916667  1.0
  Ni  Ni109  1  0.00000000  0.47222222  0.22916667  1.0
  Ni  Ni110  1  0.00000000  0.80555556  0.22916667  1.0
  Ni  Ni111  1  0.33333333  0.13888889  0.22916667  1.0
  Ni  Ni112  1  0.33333333  0.47222222  0.22916667  1.0
  Ni  Ni113  1  0.33333333  0.80555556  0.22916667  1.0
  Ni  Ni114  1  0.66666667  0.13888889  0.22916667  1.0
  Ni  Ni115  1  0.66666667  0.47222222  0.22916667  1.0
  Ni  Ni116  1  0.66666667  0.80555556  0.22916667  1.0
  Ni  Ni117  1  0.16666667  0.25000000  0.18750000  1.0
  Ni  Ni118  1  0.16666667  0.58333333  0.18750000  1.0
  Ni  Ni119  1  0.16666667  0.91666667  0.18750000  1.0
  Ni  Ni120  1  0.50000000  0.25000000  0.18750000  1.0
  Ni  Ni121  1  0.50000000  0.58333333  0.18750000  1.0
  Ni  Ni122  1  0.50000000  0.91666667  0.18750000  1.0
  Ni  Ni123  1  0.83333333  0.25000000  0.18750000  1.0
  Ni  Ni124  1  0.83333333  0.58333333  0.18750000  1.0
  Ni  Ni125  1  0.83333333  0.91666667  0.18750000  1.0
  Ni  Ni126  1  0.00000000  0.22222222  0.22916667  1.0
  Ni  Ni127  1  0.00000000  0.55555556  0.22916667  1.0
  Ni  Ni128  1  0.00000000  0.88888889  0.22916667  1.0
  Ni  Ni129  1  0.33333333  0.22222222  0.22916667  1.0
  Ni  Ni130  1  0.33333333  0.55555556  0.22916667  1.0
  Ni  Ni131  1  0.33333333  0.88888889  0.22916667  1.0
  Ni  Ni132  1  0.66666667  0.22222222  0.22916667  1.0
  Ni  Ni133  1  0.66666667  0.55555556  0.22916667  1.0
  Ni  Ni134  1  0.66666667  0.88888889  0.22916667  1.0
  Ni  Ni135  1  0.16666667  0.33333333  0.18750000  1.0
  Ni  Ni136  1  0.16666667  0.66666667  0.18750000  1.0
  Ni  Ni137  1  0.16666667  1.00000000  0.18750000  1.0
  Ni  Ni138  1  0.50000000  0.33333333  0.18750000  1.0
  Ni  Ni139  1  0.50000000  0.66666667  0.18750000  1.0
  Ni  Ni140  1  0.50000000  1.00000000  0.18750000  1.0
  Ni  Ni141  1  0.83333333  0.33333333  0.18750000  1.0
  Ni  Ni142  1  0.83333333  0.66666667  0.18750000  1.0
  Ni  Ni143  1  0.83333333  1.00000000  0.18750000  1.0
  Ni  Ni144  1  0.00000000  0.05555556  0.22916667  1.0
  Ni  Ni145  1  0.00000000  0.38888889  0.22916667  1.0
  Ni  Ni146  1  0.00000000  0.72222222  0.22916667  1.0
  Ni  Ni147  1  0.33333333  0.05555556  0.22916667  1.0
  Ni  Ni148  1  0.33333333  0.38888889  0.22916667  1.0
  Ni  Ni149  1  0.33333333  0.72222222  0.22916667  1.0
  Ni  Ni150  1  0.66666667  0.05555556  0.22916667  1.0
  Ni  Ni151  1  0.66666667  0.38888889  0.22916667  1.0
  Ni  Ni152  1  0.66666667  0.72222222  0.22916667  1.0
  Ni  Ni153  1  0.16666667  0.16666667  0.18750000  1.0
  Ni  Ni154  1  0.16666667  0.50000000  0.18750000  1.0
  Ni  Ni155  1  0.16666667  0.83333333  0.18750000  1.0
  Ni  Ni156  1  0.50000000  0.16666667  0.18750000  1.0
  Ni  Ni157  1  0.50000000  0.50000000  0.18750000  1.0
  Ni  Ni158  1  0.50000000  0.83333333  0.18750000  1.0
  Ni  Ni159  1  0.83333333  0.16666667  0.18750000  1.0
  Ni  Ni160  1  0.83333333  0.50000000  0.18750000  1.0
  Ni  Ni161  1  0.83333333  0.83333333  0.18750000  1.0
  Ni  Ni162  1  0.00000000  0.25000000  0.31250000  1.0
  Ni  Ni163  1  0.00000000  0.58333333  0.31250000  1.0
  Ni  Ni164  1  0.00000000  0.91666667  0.31250000  1.0
  Ni  Ni165  1  0.33333333  0.25000000  0.31250000  1.0
  Ni  Ni166  1  0.33333333  0.58333333  0.31250000  1.0
  Ni  Ni167  1  0.33333333  0.91666667  0.31250000  1.0
  Ni  Ni168  1  0.66666667  0.25000000  0.31250000  1.0
  Ni  Ni169  1  0.66666667  0.58333333  0.31250000  1.0
  Ni  Ni170  1  0.66666667  0.91666667  0.31250000  1.0
  Ni  Ni171  1  0.16666667  0.02777778  0.27083333  1.0
  Ni  Ni172  1  0.16666667  0.36111111  0.27083333  1.0
  Ni  Ni173  1  0.16666667  0.69444444  0.27083333  1.0
  Ni  Ni174  1  0.50000000  0.02777778  0.27083333  1.0
  Ni  Ni175  1  0.50000000  0.36111111  0.27083333  1.0
  Ni  Ni176  1  0.50000000  0.69444444  0.27083333  1.0
  Ni  Ni177  1  0.83333333  0.02777778  0.27083333  1.0
  Ni  Ni178  1  0.83333333  0.36111111  0.27083333  1.0
  Ni  Ni179  1  0.83333333  0.69444444  0.27083333  1.0
  Ni  Ni180  1  0.00000000  0.00000000  0.31250000  1.0
  Ni  Ni181  1  0.00000000  0.33333333  0.31250000  1.0
  Ni  Ni182  1  0.00000000  0.66666667  0.31250000  1.0
  Ni  Ni183  1  0.33333333  0.00000000  0.31250000  1.0
  Ni  Ni184  1  0.33333333  0.33333333  0.31250000  1.0
  Ni  Ni185  1  0.33333333  0.66666667  0.31250000  1.0
  Ni  Ni186  1  0.66666667  0.00000000  0.31250000  1.0
  Ni  Ni187  1  0.66666667  0.33333333  0.31250000  1.0
  Ni  Ni188  1  0.66666667  0.66666667  0.31250000  1.0
  Ni  Ni189  1  0.16666667  0.11111111  0.27083333  1.0
  Ni  Ni190  1  0.16666667  0.44444444  0.27083333  1.0
  Ni  Ni191  1  0.16666667  0.77777778  0.27083333  1.0
  Ni  Ni192  1  0.50000000  0.11111111  0.27083333  1.0
  Ni  Ni193  1  0.50000000  0.44444444  0.27083333  1.0
  Ni  Ni194  1  0.50000000  0.77777778  0.27083333  1.0
  Ni  Ni195  1  0.83333333  0.11111111  0.27083333  1.0
  Ni  Ni196  1  0.83333333  0.44444444  0.27083333  1.0
  Ni  Ni197  1  0.83333333  0.77777778  0.27083333  1.0
  Ni  Ni198  1  0.00000000  0.16666667  0.31250000  1.0
  Ni  Ni199  1  0.00000000  0.50000000  0.31250000  1.0
  Ni  Ni200  1  0.00000000  0.83333333  0.31250000  1.0
  Ni  Ni201  1  0.33333333  0.16666667  0.31250000  1.0
  Ni  Ni202  1  0.33333333  0.50000000  0.31250000  1.0
  Ni  Ni203  1  0.33333333  0.83333333  0.31250000  1.0
  Ni  Ni204  1  0.66666667  0.16666667  0.31250000  1.0
  Ni  Ni205  1  0.66666667  0.50000000  0.31250000  1.0
  Ni  Ni206  1  0.66666667  0.83333333  0.31250000  1.0
  Ni  Ni207  1  0.16666667  0.27777778  0.27083333  1.0
  Ni  Ni208  1  0.16666667  0.61111111  0.27083333  1.0
  Ni  Ni209  1  0.16666667  0.94444444  0.27083333  1.0
  Ni  Ni210  1  0.50000000  0.27777778  0.27083333  1.0
  Ni  Ni211  1  0.50000000  0.61111111  0.27083333  1.0
  Ni  Ni212  1  0.50000000  0.94444444  0.27083333  1.0
  Ni  Ni213  1  0.83333333  0.27777778  0.27083333  1.0
  Ni  Ni214  1  0.83333333  0.61111111  0.27083333  1.0
  Ni  Ni215  1  0.83333333  0.94444444  0.27083333  1.0
  Ni  Ni216  1  0.33333333  0.02777778  0.39583333  1.0
  Ni  Ni217  1  0.33333333  0.36111111  0.39583333  1.0
  Ni  Ni218  1  0.33333333  0.69444444  0.39583333  1.0
  Ni  Ni219  1  0.66666667  0.02777778  0.39583333  1.0
  Ni  Ni220  1  0.66666667  0.36111111  0.39583333  1.0
  Ni  Ni221  1  0.66666667  0.69444444  0.39583333  1.0
  Ni  Ni222  1  1.00000000  0.02777778  0.39583333  1.0
  Ni  Ni223  1  1.00000000  0.36111111  0.39583333  1.0
  Ni  Ni224  1  1.00000000  0.69444444  0.39583333  1.0
  Ni  Ni225  1  0.16666667  0.13888889  0.35416667  1.0
  Ni  Ni226  1  0.16666667  0.47222222  0.35416667  1.0
  Ni  Ni227  1  0.16666667  0.80555556  0.35416667  1.0
  Ni  Ni228  1  0.50000000  0.13888889  0.35416667  1.0
  Ni  Ni229  1  0.50000000  0.47222222  0.35416667  1.0
  Ni  Ni230  1  0.50000000  0.80555556  0.35416667  1.0
  Ni  Ni231  1  0.83333333  0.13888889  0.35416667  1.0
  Ni  Ni232  1  0.83333333  0.47222222  0.35416667  1.0
  Ni  Ni233  1  0.83333333  0.80555556  0.35416667  1.0
  Ni  Ni234  1  0.00000000  0.11111111  0.39583333  1.0
  Ni  Ni235  1  0.00000000  0.44444444  0.39583333  1.0
  Ni  Ni236  1  0.00000000  0.77777778  0.39583333  1.0
  Ni  Ni237  1  0.33333333  0.11111111  0.39583333  1.0
  Ni  Ni238  1  0.33333333  0.44444444  0.39583333  1.0
  Ni  Ni239  1  0.33333333  0.77777778  0.39583333  1.0
  Ni  Ni240  1  0.66666667  0.11111111  0.39583333  1.0
  Ni  Ni241  1  0.66666667  0.44444444  0.39583333  1.0
  Ni  Ni242  1  0.66666667  0.77777778  0.39583333  1.0
  Ni  Ni243  1  0.16666667  0.22222222  0.35416667  1.0
  Ni  Ni244  1  0.16666667  0.55555556  0.35416667  1.0
  Ni  Ni245  1  0.16666667  0.88888889  0.35416667  1.0
  Ni  Ni246  1  0.50000000  0.22222222  0.35416667  1.0
  Ni  Ni247  1  0.50000000  0.55555556  0.35416667  1.0
  Ni  Ni248  1  0.50000000  0.88888889  0.35416667  1.0
  Ni  Ni249  1  0.83333333  0.22222222  0.35416667  1.0
  Ni  Ni250  1  0.83333333  0.55555556  0.35416667  1.0
  Ni  Ni251  1  0.83333333  0.88888889  0.35416667  1.0
  Ni  Ni252  1  0.00000000  0.27777778  0.39583333  1.0
  Ni  Ni253  1  0.00000000  0.61111111  0.39583333  1.0
  Ni  Ni254  1  0.00000000  0.94444444  0.39583333  1.0
  Ni  Ni255  1  0.33333333  0.27777778  0.39583333  1.0
  Ni  Ni256  1  0.33333333  0.61111111  0.39583333  1.0
  Ni  Ni257  1  0.33333333  0.94444444  0.39583333  1.0
  Ni  Ni258  1  0.66666667  0.27777778  0.39583333  1.0
  Ni  Ni259  1  0.66666667  0.61111111  0.39583333  1.0
  Ni  Ni260  1  0.66666667  0.94444444  0.39583333  1.0
  Ni  Ni261  1  0.16666667  0.05555556  0.35416667  1.0
  Ni  Ni262  1  0.16666667  0.38888889  0.35416667  1.0
  Ni  Ni263  1  0.16666667  0.72222222  0.35416667  1.0
  Ni  Ni264  1  0.50000000  0.05555556  0.35416667  1.0
  Ni  Ni265  1  0.50000000  0.38888889  0.35416667  1.0
  Ni  Ni266  1  0.50000000  0.72222222  0.35416667  1.0
  Ni  Ni267  1  0.83333333  0.05555556  0.35416667  1.0
  Ni  Ni268  1  0.83333333  0.38888889  0.35416667  1.0
  Ni  Ni269  1  0.83333333  0.72222222  0.35416667  1.0
  Sn  Sn270  1  0.00000000  0.08333333  0.06250000  1.0
  Sn  Sn271  1  0.00000000  0.41666667  0.06250000  1.0
  Sn  Sn272  1  0.00000000  0.75000000  0.06250000  1.0
  Sn  Sn273  1  0.33333333  0.08333333  0.06250000  1.0
  Sn  Sn274  1  0.33333333  0.41666667  0.06250000  1.0
  Sn  Sn275  1  0.33333333  0.75000000  0.06250000  1.0
  Sn  Sn276  1  0.66666667  0.08333333  0.06250000  1.0
  Sn  Sn277  1  0.66666667  0.41666667  0.06250000  1.0
  Sn  Sn278  1  0.66666667  0.75000000  0.06250000  1.0
  Sn  Sn279  1  0.16666667  0.19444444  0.02083333  1.0
  Sn  Sn280  1  0.16666667  0.52777778  0.02083333  1.0
  Sn  Sn281  1  0.16666667  0.86111111  0.02083333  1.0
  Sn  Sn282  1  0.50000000  0.19444444  0.02083333  1.0
  Sn  Sn283  1  0.50000000  0.52777778  0.02083333  1.0
  Sn  Sn284  1  0.50000000  0.86111111  0.02083333  1.0
  Sn  Sn285  1  0.83333333  0.19444444  0.02083333  1.0
  Sn  Sn286  1  0.83333333  0.52777778  0.02083333  1.0
  Sn  Sn287  1  0.83333333  0.86111111  0.02083333  1.0
  Sn  Sn288  1  0.00000000  0.19444444  0.14583333  1.0
  Sn  Sn289  1  0.00000000  0.52777778  0.14583333  1.0
  Sn  Sn290  1  0.00000000  0.86111111  0.14583333  1.0
  Sn  Sn291  1  0.33333333  0.19444444  0.14583333  1.0
  Sn  Sn292  1  0.33333333  0.52777778  0.14583333  1.0
  Sn  Sn293  1  0.33333333  0.86111111  0.14583333  1.0
  Sn  Sn294  1  0.66666667  0.19444444  0.14583333  1.0
  Sn  Sn295  1  0.66666667  0.52777778  0.14583333  1.0
  Sn  Sn296  1  0.66666667  0.86111111  0.14583333  1.0
  Sn  Sn297  1  0.16666667  0.30555556  0.10416667  1.0
  Sn  Sn298  1  0.16666667  0.63888889  0.10416667  1.0
  Sn  Sn299  1  0.16666667  0.97222222  0.10416667  1.0
  Sn  Sn300  1  0.50000000  0.30555556  0.10416667  1.0
  Sn  Sn301  1  0.50000000  0.63888889  0.10416667  1.0
  Sn  Sn302  1  0.50000000  0.97222222  0.10416667  1.0
  Sn  Sn303  1  0.83333333  0.30555556  0.10416667  1.0
  Sn  Sn304  1  0.83333333  0.63888889  0.10416667  1.0
  Sn  Sn305  1  0.83333333  0.97222222  0.10416667  1.0
  Sn  Sn306  1  0.00000000  0.30555556  0.22916667  1.0
  Sn  Sn307  1  0.00000000  0.63888889  0.22916667  1.0
  Sn  Sn308  1  0.00000000  0.97222222  0.22916667  1.0
  Sn  Sn309  1  0.33333333  0.30555556  0.22916667  1.0
  Sn  Sn310  1  0.33333333  0.63888889  0.22916667  1.0
  Sn  Sn311  1  0.33333333  0.97222222  0.22916667  1.0
  Sn  Sn312  1  0.66666667  0.30555556  0.22916667  1.0
  Sn  Sn313  1  0.66666667  0.63888889  0.22916667  1.0
  Sn  Sn314  1  0.66666667  0.97222222  0.22916667  1.0
  Sn  Sn315  1  0.16666667  0.08333333  0.18750000  1.0
  Sn  Sn316  1  0.16666667  0.41666667  0.18750000  1.0
  Sn  Sn317  1  0.16666667  0.75000000  0.18750000  1.0
  Sn  Sn318  1  0.50000000  0.08333333  0.18750000  1.0
  Sn  Sn319  1  0.50000000  0.41666667  0.18750000  1.0
  Sn  Sn320  1  0.50000000  0.75000000  0.18750000  1.0
  Sn  Sn321  1  0.83333333  0.08333333  0.18750000  1.0
  Sn  Sn322  1  0.83333333  0.41666667  0.18750000  1.0
  Sn  Sn323  1  0.83333333  0.75000000  0.18750000  1.0
  Sn  Sn324  1  0.33333333  0.08333333  0.31250000  1.0
  Sn  Sn325  1  0.33333333  0.41666667  0.31250000  1.0
  Sn  Sn326  1  0.33333333  0.75000000  0.31250000  1.0
  Sn  Sn327  1  0.66666667  0.08333333  0.31250000  1.0
  Sn  Sn328  1  0.66666667  0.41666667  0.31250000  1.0
  Sn  Sn329  1  0.66666667  0.75000000  0.31250000  1.0
  Sn  Sn330  1  1.00000000  0.08333333  0.31250000  1.0
  Sn  Sn331  1  1.00000000  0.41666667  0.31250000  1.0
  Sn  Sn332  1  1.00000000  0.75000000  0.31250000  1.0
  Sn  Sn333  1  0.16666667  0.19444444  0.27083333  1.0
  Sn  Sn334  1  0.16666667  0.52777778  0.27083333  1.0
  Sn  Sn335  1  0.16666667  0.86111111  0.27083333  1.0
  Sn  Sn336  1  0.50000000  0.19444444  0.27083333  1.0
  Sn  Sn337  1  0.50000000  0.52777778  0.27083333  1.0
  Sn  Sn338  1  0.50000000  0.86111111  0.27083333  1.0
  Sn  Sn339  1  0.83333333  0.19444444  0.27083333  1.0
  Sn  Sn340  1  0.83333333  0.52777778  0.27083333  1.0
  Sn  Sn341  1  0.83333333  0.86111111  0.27083333  1.0
  Sn  Sn342  1  0.33333333  0.19444444  0.39583333  1.0
  Sn  Sn343  1  0.33333333  0.52777778  0.39583333  1.0
  Sn  Sn344  1  0.33333333  0.86111111  0.39583333  1.0
  Sn  Sn345  1  0.66666667  0.19444444  0.39583333  1.0
  Sn  Sn346  1  0.66666667  0.52777778  0.39583333  1.0
  Sn  Sn347  1  0.66666667  0.86111111  0.39583333  1.0
  Sn  Sn348  1  1.00000000  0.19444444  0.39583333  1.0
  Sn  Sn349  1  1.00000000  0.52777778  0.39583333  1.0
  Sn  Sn350  1  1.00000000  0.86111111  0.39583333  1.0
  Sn  Sn351  1  0.16666667  0.30555556  0.35416667  1.0
  Sn  Sn352  1  0.16666667  0.63888889  0.35416667  1.0
  Sn  Sn353  1  0.16666667  0.97222222  0.35416667  1.0
  Sn  Sn354  1  0.50000000  0.30555556  0.35416667  1.0
  Sn  Sn355  1  0.50000000  0.63888889  0.35416667  1.0
  Sn  Sn356  1  0.50000000  0.97222222  0.35416667  1.0
  Sn  Sn357  1  0.83333333  0.30555556  0.35416667  1.0
  Sn  Sn358  1  0.83333333  0.63888889  0.35416667  1.0
  Sn  Sn359  1  0.83333333  0.97222222  0.35416667  1.0
