# generated using pymatgen
data_Ni3Sn4
_symmetry_space_group_name_H-M   'P 1'
_cell_length_a   15.81136308
_cell_length_b   55.60273843
_cell_length_c   64.72494580
_cell_angle_alpha   155.22258448
_cell_angle_beta   104.39494593
_cell_angle_gamma   74.90314383
_symmetry_Int_Tables_number   1
_chemical_formula_structural   Ni3Sn4
_chemical_formula_sum   'Ni216 Sn288'
_cell_volume   23014.42083770
_cell_formula_units_Z   72
loop_
 _symmetry_equiv_pos_site_id
 _symmetry_equiv_pos_as_xyz
  1  'x, y, z'
loop_
 _atom_site_type_symbol
 _atom_site_label
 _atom_site_symmetry_multiplicity
 _atom_site_fract_x
 _atom_site_fract_y
 _atom_site_fract_z
 _atom_site_occupancy
  Ni  Ni0  1  0.00000000  0.16666667  0.04570430  1.0
  Ni  Ni1  1  0.00000000  0.50000000  0.04570430  1.0
  Ni  Ni2  1  0.00000000  0.83333333  0.04570430  1.0
  Ni  Ni3  1  0.33333333  0.16666667  0.04570430  1.0
  Ni  Ni4  1  0.33333333  0.50000000  0.04570430  1.0
  Ni  Ni5  1  0.33333333  0.83333333  0.04570430  1.0
  Ni  Ni6  1  0.66666667  0.16666667  0.04570430  1.0
  Ni  Ni7  1  0.66666667  0.50000000  0.04570430  1.0
  Ni  Ni8  1  0.66666667  0.83333333  0.04570430  1.0
  Ni  Ni9  1  0.00000000  0.00000000  0.09570430  1.0
  Ni  Ni10  1  0.00000000  0.33333333  0.09570430  1.0
  Ni  Ni11  1  0.00000000  0.66666667  0.09570430  1.0
  Ni  Ni12  1  0.33333333  0.00000000  0.09570430  1.0
  Ni  Ni13  1  0.33333333  0.33333333  0.09570430  1.0
  Ni  Ni14  1  0.33333333  0.66666667  0.09570430  1.0
  Ni  Ni15  1  0.66666667  0.00000000  0.09570430  1.0
  Ni  Ni16  1  0.66666667  0.33333333  0.09570430  1.0
  Ni  Ni17  1  0.66666667  0.66666667  0.09570430  1.0
  Ni  Ni18  1  0.11216667  0.13068933  0.05649750  1.0
  Ni  Ni19  1  0.11216667  0.46402267  0.05649750  1.0
  Ni  Ni20  1  0.11216667  0.79735600  0.05649750  1.0
  Ni  Ni21  1  0.44550000  0.13068933  0.05649750  1.0
  Ni  Ni22  1  0.44550000  0.46402267  0.05649750  1.0
  Ni  Ni23  1  0.44550000  0.79735600  0.05649750  1.0
  Ni  Ni24  1  0.77883333  0.13068933  0.05649750  1.0
  Ni  Ni25  1  0.77883333  0.46402267  0.05649750  1.0
  Ni  Ni26  1  0.77883333  0.79735600  0.05649750  1.0
  Ni  Ni27  1  0.11216667  0.29735600  0.00649750  1.0
  Ni  Ni28  1  0.11216667  0.63068933  0.00649750  1.0
  Ni  Ni29  1  0.11216667  0.96402267  0.00649750  1.0
  Ni  Ni30  1  0.44550000  0.29735600  0.00649750  1.0
  Ni  Ni31  1  0.44550000  0.63068933  0.00649750  1.0
  Ni  Ni32  1  0.44550000  0.96402267  0.00649750  1.0
  Ni  Ni33  1  0.77883333  0.29735600  0.00649750  1.0
  Ni  Ni34  1  0.77883333  0.63068933  0.00649750  1.0
  Ni  Ni35  1  0.77883333  0.96402267  0.00649750  1.0
  Ni  Ni36  1  0.22116667  0.03597733  0.08491110  1.0
  Ni  Ni37  1  0.22116667  0.36931067  0.08491110  1.0
  Ni  Ni38  1  0.22116667  0.70264400  0.08491110  1.0
  Ni  Ni39  1  0.55450000  0.03597733  0.08491110  1.0
  Ni  Ni40  1  0.55450000  0.36931067  0.08491110  1.0
  Ni  Ni41  1  0.55450000  0.70264400  0.08491110  1.0
  Ni  Ni42  1  0.88783333  0.03597733  0.08491110  1.0
  Ni  Ni43  1  0.88783333  0.36931067  0.08491110  1.0
  Ni  Ni44  1  0.88783333  0.70264400  0.08491110  1.0
  Ni  Ni45  1  0.22116667  0.20264400  0.03491110  1.0
  Ni  Ni46  1  0.22116667  0.53597733  0.03491110  1.0
  Ni  Ni47  1  0.22116667  0.86931067  0.03491110  1.0
  Ni  Ni48  1  0.55450000  0.20264400  0.03491110  1.0
  Ni  Ni49  1  0.55450000  0.53597733  0.03491110  1.0
  Ni  Ni50  1  0.55450000  0.86931067  0.03491110  1.0
  Ni  Ni51  1  0.88783333  0.20264400  0.03491110  1.0
  Ni  Ni52  1  0.88783333  0.53597733  0.03491110  1.0
  Ni  Ni53  1  0.88783333  0.86931067  0.03491110  1.0
  Sn  Sn54  1  0.22914767  0.09528817  0.06711785  1.0
  Sn  Sn55  1  0.22914767  0.42862150  0.06711785  1.0
  Sn  Sn56  1  0.22914767  0.76195483  0.06711785  1.0
  Sn  Sn57  1  0.56248100  0.09528817  0.06711785  1.0
  Sn  Sn58  1  0.56248100  0.42862150  0.06711785  1.0
  Sn  Sn59  1  0.56248100  0.76195483  0.06711785  1.0
  Sn  Sn60  1  0.89581433  0.09528817  0.06711785  1.0
  Sn  Sn61  1  0.89581433  0.42862150  0.06711785  1.0
  Sn  Sn62  1  0.89581433  0.76195483  0.06711785  1.0
  Sn  Sn63  1  0.22914767  0.26195483  0.01711785  1.0
  Sn  Sn64  1  0.22914767  0.59528817  0.01711785  1.0
  Sn  Sn65  1  0.22914767  0.92862150  0.01711785  1.0
  Sn  Sn66  1  0.56248100  0.26195483  0.01711785  1.0
  Sn  Sn67  1  0.56248100  0.59528817  0.01711785  1.0
  Sn  Sn68  1  0.56248100  0.92862150  0.01711785  1.0
  Sn  Sn69  1  0.89581433  0.26195483  0.01711785  1.0
  Sn  Sn70  1  0.89581433  0.59528817  0.01711785  1.0
  Sn  Sn71  1  0.89581433  0.92862150  0.01711785  1.0
  Sn  Sn72  1  0.10418567  0.07137850  0.07429075  1.0
  Sn  Sn73  1  0.10418567  0.40471183  0.07429075  1.0
  Sn  Sn74  1  0.10418567  0.73804517  0.07429075  1.0
  Sn  Sn75  1  0.43751900  0.07137850  0.07429075  1.0
  Sn  Sn76  1  0.43751900  0.40471183  0.07429075  1.0
  Sn  Sn77  1  0.43751900  0.73804517  0.07429075  1.0
  Sn  Sn78  1  0.77085233  0.07137850  0.07429075  1.0
  Sn  Sn79  1  0.77085233  0.40471183  0.07429075  1.0
  Sn  Sn80  1  0.77085233  0.73804517  0.07429075  1.0
  Sn  Sn81  1  0.10418567  0.23804517  0.02429075  1.0
  Sn  Sn82  1  0.10418567  0.57137850  0.02429075  1.0
  Sn  Sn83  1  0.10418567  0.90471183  0.02429075  1.0
  Sn  Sn84  1  0.43751900  0.23804517  0.02429075  1.0
  Sn  Sn85  1  0.43751900  0.57137850  0.02429075  1.0
  Sn  Sn86  1  0.43751900  0.90471183  0.02429075  1.0
  Sn  Sn87  1  0.77085233  0.23804517  0.02429075  1.0
  Sn  Sn88  1  0.77085233  0.57137850  0.02429075  1.0
  Sn  Sn89  1  0.77085233  0.90471183  0.02429075  1.0
  Sn  Sn90  1  0.27073867  0.13802867  0.05429570  1.0
  Sn  Sn91  1  0.27073867  0.47136200  0.05429570  1.0
  Sn  Sn92  1  0.27073867  0.80469533  0.05429570  1.0
  Sn  Sn93  1  0.60407200  0.13802867  0.05429570  1.0
  Sn  Sn94  1  0.60407200  0.47136200  0.05429570  1.0
  Sn  Sn95  1  0.60407200  0.80469533  0.05429570  1.0
  Sn  Sn96  1  0.93740533  0.13802867  0.05429570  1.0
  Sn  Sn97  1  0.93740533  0.47136200  0.05429570  1.0
  Sn  Sn98  1  0.93740533  0.80469533  0.05429570  1.0
  Sn  Sn99  1  0.27073867  0.30469533  0.00429570  1.0
  Sn  Sn100  1  0.27073867  0.63802867  0.00429570  1.0
  Sn  Sn101  1  0.27073867  0.97136200  0.00429570  1.0
  Sn  Sn102  1  0.60407200  0.30469533  0.00429570  1.0
  Sn  Sn103  1  0.60407200  0.63802867  0.00429570  1.0
  Sn  Sn104  1  0.60407200  0.97136200  0.00429570  1.0
  Sn  Sn105  1  0.93740533  0.30469533  0.00429570  1.0
  Sn  Sn106  1  0.93740533  0.63802867  0.00429570  1.0
  Sn  Sn107  1  0.93740533  0.97136200  0.00429570  1.0
  Sn  Sn108  1  0.06259467  0.02863800  0.08711290  1.0
  Sn  Sn109  1  0.06259467  0.36197133  0.08711290  1.0
  Sn  Sn110  1  0.06259467  0.69530467  0.08711290  1.0
  Sn  Sn111  1  0.39592800  0.02863800  0.08711290  1.0
  Sn  Sn112  1  0.39592800  0.36197133  0.08711290  1.0
  Sn  Sn113  1  0.39592800  0.69530467  0.08711290  1.0
  Sn  Sn114  1  0.72926133  0.02863800  0.08711290  1.0
  Sn  Sn115  1  0.72926133  0.36197133  0.08711290  1.0
  Sn  Sn116  1  0.72926133  0.69530467  0.08711290  1.0
  Sn  Sn117  1  0.06259467  0.19530467  0.03711290  1.0
  Sn  Sn118  1  0.06259467  0.52863800  0.03711290  1.0
  Sn  Sn119  1  0.06259467  0.86197133  0.03711290  1.0
  Sn  Sn120  1  0.39592800  0.19530467  0.03711290  1.0
  Sn  Sn121  1  0.39592800  0.52863800  0.03711290  1.0
  Sn  Sn122  1  0.39592800  0.86197133  0.03711290  1.0
  Sn  Sn123  1  0.72926133  0.19530467  0.03711290  1.0
  Sn  Sn124  1  0.72926133  0.52863800  0.03711290  1.0
  Sn  Sn125  1  0.72926133  0.86197133  0.03711290  1.0
  Ni  Ni126  1  0.00000000  0.16666667  0.14570430  1.0
  Ni  Ni127  1  0.00000000  0.50000000  0.14570430  1.0
  Ni  Ni128  1  0.00000000  0.83333333  0.14570430  1.0
  Ni  Ni129  1  0.33333333  0.16666667  0.14570430  1.0
  Ni  Ni130  1  0.33333333  0.50000000  0.14570430  1.0
  Ni  Ni131  1  0.33333333  0.83333333  0.14570430  1.0
  Ni  Ni132  1  0.66666667  0.16666667  0.14570430  1.0
  Ni  Ni133  1  0.66666667  0.50000000  0.14570430  1.0
  Ni  Ni134  1  0.66666667  0.83333333  0.14570430  1.0
  Ni  Ni135  1  0.00000000  0.00000000  0.19570430  1.0
  Ni  Ni136  1  0.00000000  0.33333333  0.19570430  1.0
  Ni  Ni137  1  0.00000000  0.66666667  0.19570430  1.0
  Ni  Ni138  1  0.33333333  0.00000000  0.19570430  1.0
  Ni  Ni139  1  0.33333333  0.33333333  0.19570430  1.0
  Ni  Ni140  1  0.33333333  0.66666667  0.19570430  1.0
  Ni  Ni141  1  0.66666667  0.00000000  0.19570430  1.0
  Ni  Ni142  1  0.66666667  0.33333333  0.19570430  1.0
  Ni  Ni143  1  0.66666667  0.66666667  0.19570430  1.0
  Ni  Ni144  1  0.11216667  0.13068933  0.15649750  1.0
  Ni  Ni145  1  0.11216667  0.46402267  0.15649750  1.0
  Ni  Ni146  1  0.11216667  0.79735600  0.15649750  1.0
  Ni  Ni147  1  0.44550000  0.13068933  0.15649750  1.0
  Ni  Ni148  1  0.44550000  0.46402267  0.15649750  1.0
  Ni  Ni149  1  0.44550000  0.79735600  0.15649750  1.0
  Ni  Ni150  1  0.77883333  0.13068933  0.15649750  1.0
  Ni  Ni151  1  0.77883333  0.46402267  0.15649750  1.0
  Ni  Ni152  1  0.77883333  0.79735600  0.15649750  1.0
  Ni  Ni153  1  0.11216667  0.29735600  0.10649750  1.0
  Ni  Ni154  1  0.11216667  0.63068933  0.10649750  1.0
  Ni  Ni155  1  0.11216667  0.96402267  0.10649750  1.0
  Ni  Ni156  1  0.44550000  0.29735600  0.10649750  1.0
  Ni  Ni157  1  0.44550000  0.63068933  0.10649750  1.0
  Ni  Ni158  1  0.44550000  0.96402267  0.10649750  1.0
  Ni  Ni159  1  0.77883333  0.29735600  0.10649750  1.0
  Ni  Ni160  1  0.77883333  0.63068933  0.10649750  1.0
  Ni  Ni161  1  0.77883333  0.96402267  0.10649750  1.0
  Ni  Ni162  1  0.22116667  0.03597733  0.18491110  1.0
  Ni  Ni163  1  0.22116667  0.36931067  0.18491110  1.0
  Ni  Ni164  1  0.22116667  0.70264400  0.18491110  1.0
  Ni  Ni165  1  0.55450000  0.03597733  0.18491110  1.0
  Ni  Ni166  1  0.55450000  0.36931067  0.18491110  1.0
  Ni  Ni167  1  0.55450000  0.70264400  0.18491110  1.0
  Ni  Ni168  1  0.88783333  0.03597733  0.18491110  1.0
  Ni  Ni169  1  0.88783333  0.36931067  0.18491110  1.0
  Ni  Ni170  1  0.88783333  0.70264400  0.18491110  1.0
  Ni  Ni171  1  0.22116667  0.20264400  0.13491110  1.0
  Ni  Ni172  1  0.22116667  0.53597733  0.13491110  1.0
  Ni  Ni173  1  0.22116667  0.86931067  0.13491110  1.0
  Ni  Ni174  1  0.55450000  0.20264400  0.13491110  1.0
  Ni  Ni175  1  0.55450000  0.53597733  0.13491110  1.0
  Ni  Ni176  1  0.55450000  0.86931067  0.13491110  1.0
  Ni  Ni177  1  0.88783333  0.20264400  0.13491110  1.0
  Ni  Ni178  1  0.88783333  0.53597733  0.13491110  1.0
  Ni  Ni179  1  0.88783333  0.86931067  0.13491110  1.0
  Sn  Sn180  1  0.22914767  0.09528817  0.16711785  1.0
  Sn  Sn181  1  0.22914767  0.42862150  0.16711785  1.0
  Sn  Sn182  1  0.22914767  0.76195483  0.16711785  1.0
  Sn  Sn183  1  0.56248100  0.09528817  0.16711785  1.0
  Sn  Sn184  1  0.56248100  0.42862150  0.16711785  1.0
  Sn  Sn185  1  0.56248100  0.76195483  0.16711785  1.0
  Sn  Sn186  1  0.89581433  0.09528817  0.16711785  1.0
  Sn  Sn187  1  0.89581433  0.42862150  0.16711785  1.0
  Sn  Sn188  1  0.89581433  0.76195483  0.16711785  1.0
  Sn  Sn189  1  0.22914767  0.26195483  0.11711785  1.0
  Sn  Sn190  1  0.22914767  0.59528817  0.11711785  1.0
  Sn  Sn191  1  0.22914767  0.92862150  0.11711785  1.0
  Sn  Sn192  1  0.56248100  0.26195483  0.11711785  1.0
  Sn  Sn193  1  0.56248100  0.59528817  0.11711785  1.0
  Sn  Sn194  1  0.56248100  0.92862150  0.11711785  1.0
  Sn  Sn195  1  0.89581433  0.26195483  0.11711785  1.0
  Sn  Sn196  1  0.89581433  0.59528817  0.11711785  1.0
  Sn  Sn197  1  0.89581433  0.92862150  0.11711785  1.0
  Sn  Sn198  1  0.10418567  0.07137850  0.17429075  1.0
  Sn  Sn199  1  0.10418567  0.40471183  0.17429075  1.0
  Sn  Sn200  1  0.10418567  0.73804517  0.17429075  1.0
  Sn  Sn201  1  0.43751900  0.07137850  0.17429075  1.0
  Sn  Sn202  1  0.43751900  0.40471183  0.17429075  1.0
  Sn  Sn203  1  0.43751900  0.73804517  0.17429075  1.0
  Sn  Sn204  1  0.77085233  0.07137850  0.17429075  1.0
  Sn  Sn205  1  0.77085233  0.40471183  0.17429075  1.0
  Sn  Sn206  1  0.77085233  0.73804517  0.17429075  1.0
  Sn  Sn207  1  0.10418567  0.23804517  0.12429075  1.0
  Sn  Sn208  1  0.10418567  0.57137850  0.12429075  1.0
  Sn  Sn209  1  0.10418567  0.90471183  0.12429075  1.0
  Sn  Sn210  1  0.43751900  0.23804517  0.12429075  1.0
  Sn  Sn211  1  0.43751900  0.57137850  0.12429075  1.0
  Sn  Sn212  1  0.43751900  0.90471183  0.12429075  1.0
  Sn  Sn213  1  0.77085233  0.23804517  0.12429075  1.0
  Sn  Sn214  1  0.77085233  0.57137850  0.12429075  1.0
  Sn  Sn215  1  0.77085233  0.90471183  0.12429075  1.0
  Sn  Sn216  1  0.27073867  0.13802867  0.15429570  1.0
  Sn  Sn217  1  0.27073867  0.47136200  0.15429570  1.0
  Sn  Sn218  1  0.27073867  0.80469533  0.15429570  1.0
  Sn  Sn219  1  0.60407200  0.13802867  0.15429570  1.0
  Sn  Sn220  1  0.60407200  0.47136200  0.15429570  1.0
  Sn  Sn221  1  0.60407200  0.80469533  0.15429570  1.0
  Sn  Sn222  1  0.93740533  0.13802867  0.15429570  1.0
  Sn  Sn223  1  0.93740533  0.47136200  0.15429570  1.0
  Sn  Sn224  1  0.93740533  0.80469533  0.15429570  1.0
  Sn  Sn225  1  0.27073867  0.30469533  0.10429570  1.0
  Sn  Sn226  1  0.27073867  0.63802867  0.10429570  1.0
  Sn  Sn227  1  0.27073867  0.97136200  0.10429570  1.0
  Sn  Sn228  1  0.60407200  0.30469533  0.10429570  1.0
  Sn  Sn229  1  0.60407200  0.63802867  0.10429570  1.0
  Sn  Sn230  1  0.60407200  0.97136200  0.10429570  1.0
  Sn  Sn231  1  0.93740533  0.30469533  0.10429570  1.0
  Sn  Sn232  1  0.93740533  0.63802867  0.10429570  1.0
  Sn  Sn233  1  0.93740533  0.97136200  0.10429570  1.0
  Sn  Sn234  1  0.06259467  0.02863800  0.18711290  1.0
  Sn  Sn235  1  0.06259467  0.36197133  0.18711290  1.0
  Sn  Sn236  1  0.06259467  0.69530467  0.18711290  1.0
  Sn  Sn237  1  0.39592800  0.02863800  0.18711290  1.0
  Sn  Sn238  1  0.39592800  0.36197133  0.18711290  1.0
  Sn  Sn239  1  0.39592800  0.69530467  0.18711290  1.0
  Sn  Sn240  1  0.72926133  0.02863800  0.18711290  1.0
  Sn  Sn241  1  0.72926133  0.36197133  0.18711290  1.0
  Sn  Sn242  1  0.72926133  0.69530467  0.18711290  1.0
  Sn  Sn243  1  0.06259467  0.19530467  0.13711290  1.0
  Sn  Sn244  1  0.06259467  0.52863800  0.13711290  1.0
  Sn  Sn245  1  0.06259467  0.86197133  0.13711290  1.0
  Sn  Sn246  1  0.39592800  0.19530467  0.13711290  1.0
  Sn  Sn247  1  0.39592800  0.52863800  0.13711290  1.0
  Sn  Sn248  1  0.39592800  0.86197133  0.13711290  1.0
  Sn  Sn249  1  0.72926133  0.19530467  0.13711290  1.0
  Sn  Sn250  1  0.72926133  0.52863800  0.13711290  1.0
  Sn  Sn251  1  0.72926133  0.86197133  0.13711290  1.0
  Ni  Ni252  1  0.00000000  0.16666667  0.24570430  1.0
  Ni  Ni253  1  0.00000000  0.50000000  0.24570430  1.0
  Ni  Ni254  1  0.00000000  0.83333333  0.24570430  1.0
  Ni  Ni255  1  0.33333333  0.16666667  0.24570430  1.0
  Ni  Ni256  1  0.33333333  0.50000000  0.24570430  1.0
  Ni  Ni257  1  0.33333333  0.83333333  0.24570430  1.0
  Ni  Ni258  1  0.66666667  0.16666667  0.24570430  1.0
  Ni  Ni259  1  0.66666667  0.50000000  0.24570430  1.0
  Ni  Ni260  1  0.66666667  0.83333333  0.24570430  1.0
  Ni  Ni261  1  0.00000000  0.00000000  0.29570430  1.0
  Ni  Ni262  1  0.00000000  0.33333333  0.29570430  1.0
  Ni  Ni263  1  0.00000000  0.66666667  0.29570430  1.0
  Ni  Ni264  1  0.33333333  0.00000000  0.29570430  1.0
  Ni  Ni265  1  0.33333333  0.33333333  0.29570430  1.0
  Ni  Ni266  1  0.33333333  0.66666667  0.29570430  1.0
  Ni  Ni267  1  0.66666667  0.00000000  0.29570430  1.0
  Ni  Ni268  1  0.66666667  0.33333333  0.29570430  1.0
  Ni  Ni269  1  0.66666667  0.66666667  0.29570430  1.0
  Ni  Ni270  1  0.11216667  0.13068933  0.25649750  1.0
  Ni  Ni271  1  0.11216667  0.46402267  0.25649750  1.0
  Ni  Ni272  1  0.11216667  0.79735600  0.25649750  1.0
  Ni  Ni273  1  0.44550000  0.13068933  0.25649750  1.0
  Ni  Ni274  1  0.44550000  0.46402267  0.25649750  1.0
  Ni  Ni275  1  0.44550000  0.79735600  0.25649750  1.0
  Ni  Ni276  1  0.77883333  0.13068933  0.25649750  1.0
  Ni  Ni277  1  0.77883333  0.46402267  0.25649750  1.0
  Ni  Ni278  1  0.77883333  0.79735600  0.25649750  1.0
  Ni  Ni279  1  0.11216667  0.29735600  0.20649750  1.0
  Ni  Ni280  1  0.11216667  0.63068933  0.20649750  1.0
  Ni  Ni281  1  0.11216667  0.96402267  0.20649750  1.0
  Ni  Ni282  1  0.44550000  0.29735600  0.20649750  1.0
  Ni  Ni283  1  0.44550000  0.63068933  0.20649750  1.0
  Ni  Ni284  1  0.44550000  0.96402267  0.20649750  1.0
  Ni  Ni285  1  0.77883333  0.29735600  0.20649750  1.0
  Ni  Ni286  1  0.77883333  0.63068933  0.20649750  1.0
  Ni  Ni287  1  0.77883333  0.96402267  0.20649750  1.0
  Ni  Ni288  1  0.22116667  0.03597733  0.28491110  1.0
  Ni  Ni289  1  0.22116667  0.36931067  0.28491110  1.0
  Ni  Ni290  1  0.22116667  0.70264400  0.28491110  1.0
  Ni  Ni291  1  0.55450000  0.03597733  0.28491110  1.0
  Ni  Ni292  1  0.55450000  0.36931067  0.28491110  1.0
  Ni  Ni293  1  0.55450000  0.70264400  0.28491110  1.0
  Ni  Ni294  1  0.88783333  0.03597733  0.28491110  1.0
  Ni  Ni295  1  0.88783333  0.36931067  0.28491110  1.0
  Ni  Ni296  1  0.88783333  0.70264400  0.28491110  1.0
  Ni  Ni297  1  0.22116667  0.20264400  0.23491110  1.0
  Ni  Ni298  1  0.22116667  0.53597733  0.23491110  1.0
  Ni  Ni299  1  0.22116667  0.86931067  0.23491110  1.0
  Ni  Ni300  1  0.55450000  0.20264400  0.23491110  1.0
  Ni  Ni301  1  0.55450000  0.53597733  0.23491110  1.0
  Ni  Ni302  1  0.55450000  0.86931067  0.23491110  1.0
  Ni  Ni303  1  0.88783333  0.20264400  0.23491110  1.0
  Ni  Ni304  1  0.88783333  0.53597733  0.23491110  1.0
  Ni  Ni305  1  0.88783333  0.86931067  0.23491110  1.0
  Sn  Sn306  1  0.22914767  0.09528817  0.26711785  1.0
  Sn  Sn307  1  0.22914767  0.42862150  0.26711785  1.0
  Sn  Sn308  1  0.22914767  0.76195483  0.26711785  1.0
  Sn  Sn309  1  0.56248100  0.09528817  0.26711785  1.0
  Sn  Sn310  1  0.56248100  0.42862150  0.26711785  1.0
  Sn  Sn311  1  0.56248100  0.76195483  0.26711785  1.0
  Sn  Sn312  1  0.89581433  0.09528817  0.26711785  1.0
  Sn  Sn313  1  0.89581433  0.42862150  0.26711785  1.0
  Sn  Sn314  1  0.89581433  0.76195483  0.26711785  1.0
  Sn  Sn315  1  0.22914767  0.26195483  0.21711785  1.0
  Sn  Sn316  1  0.22914767  0.59528817  0.21711785  1.0
  Sn  Sn317  1  0.22914767  0.92862150  0.21711785  1.0
  Sn  Sn318  1  0.56248100  0.26195483  0.21711785  1.0
  Sn  Sn319  1  0.56248100  0.59528817  0.21711785  1.0
  Sn  Sn320  1  0.56248100  0.92862150  0.21711785  1.0
  Sn  Sn321  1  0.89581433  0.26195483  0.21711785  1.0
  Sn  Sn322  1  0.89581433  0.59528817  0.21711785  1.0
  Sn  Sn323  1  0.89581433  0.92862150  0.21711785  1.0
  Sn  Sn324  1  0.10418567  0.07137850  0.27429075  1.0
  Sn  Sn325  1  0.10418567  0.40471183  0.27429075  1.0
  Sn  Sn326  1  0.10418567  0.73804517  0.27429075  1.0
  Sn  Sn327  1  0.43751900  0.07137850  0.27429075  1.0
  Sn  Sn328  1  0.43751900  0.40471183  0.27429075  1.0
  Sn  Sn329  1  0.43751900  0.73804517  0.27429075  1.0
  Sn  Sn330  1  0.77085233  0.07137850  0.27429075  1.0
  Sn  Sn331  1  0.77085233  0.40471183  0.27429075  1.0
  Sn  Sn332  1  0.77085233  0.73804517  0.27429075  1.0
  Sn  Sn333  1  0.10418567  0.23804517  0.22429075  1.0
  Sn  Sn334  1  0.10418567  0.57137850  0.22429075  1.0
  Sn  Sn335  1  0.10418567  0.90471183  0.22429075  1.0
  Sn  Sn336  1  0.43751900  0.23804517  0.22429075  1.0
  Sn  Sn337  1  0.43751900  0.57137850  0.22429075  1.0
  Sn  Sn338  1  0.43751900  0.90471183  0.22429075  1.0
  Sn  Sn339  1  0.77085233  0.23804517  0.22429075  1.0
  Sn  Sn340  1  0.77085233  0.57137850  0.22429075  1.0
  Sn  Sn341  1  0.77085233  0.90471183  0.22429075  1.0
  Sn  Sn342  1  0.27073867  0.13802867  0.25429570  1.0
  Sn  Sn343  1  0.27073867  0.47136200  0.25429570  1.0
  Sn  Sn344  1  0.27073867  0.80469533  0.25429570  1.0
  Sn  Sn345  1  0.60407200  0.13802867  0.25429570  1.0
  Sn  Sn346  1  0.60407200  0.47136200  0.25429570  1.0
  Sn  Sn347  1  0.60407200  0.80469533  0.25429570  1.0
  Sn  Sn348  1  0.93740533  0.13802867  0.25429570  1.0
  Sn  Sn349  1  0.93740533  0.47136200  0.25429570  1.0
  Sn  Sn350  1  0.93740533  0.80469533  0.25429570  1.0
  Sn  Sn351  1  0.27073867  0.30469533  0.20429570  1.0
  Sn  Sn352  1  0.27073867  0.63802867  0.20429570  1.0
  Sn  Sn353  1  0.27073867  0.97136200  0.20429570  1.0
  Sn  Sn354  1  0.60407200  0.30469533  0.20429570  1.0
  Sn  Sn355  1  0.60407200  0.63802867  0.20429570  1.0
  Sn  Sn356  1  0.60407200  0.97136200  0.20429570  1.0
  Sn  Sn357  1  0.93740533  0.30469533  0.20429570  1.0
  Sn  Sn358  1  0.93740533  0.63802867  0.20429570  1.0
  Sn  Sn359  1  0.93740533  0.97136200  0.20429570  1.0
  Sn  Sn360  1  0.06259467  0.02863800  0.28711290  1.0
  Sn  Sn361  1  0.06259467  0.36197133  0.28711290  1.0
  Sn  Sn362  1  0.06259467  0.69530467  0.28711290  1.0
  Sn  Sn363  1  0.39592800  0.02863800  0.28711290  1.0
  Sn  Sn364  1  0.39592800  0.36197133  0.28711290  1.0
  Sn  Sn365  1  0.39592800  0.69530467  0.28711290  1.0
  Sn  Sn366  1  0.72926133  0.02863800  0.28711290  1.0
  Sn  Sn367  1  0.72926133  0.36197133  0.28711290  1.0
  Sn  Sn368  1  0.72926133  0.69530467  0.28711290  1.0
  Sn  Sn369  1  0.06259467  0.19530467  0.23711290  1.0
  Sn  Sn370  1  0.06259467  0.52863800  0.23711290  1.0
  Sn  Sn371  1  0.06259467  0.86197133  0.23711290  1.0
  Sn  Sn372  1  0.39592800  0.19530467  0.23711290  1.0
  Sn  Sn373  1  0.39592800  0.52863800  0.23711290  1.0
  Sn  Sn374  1  0.39592800  0.86197133  0.23711290  1.0
  Sn  Sn375  1  0.72926133  0.19530467  0.23711290  1.0
  Sn  Sn376  1  0.72926133  0.52863800  0.23711290  1.0
  Sn  Sn377  1  0.72926133  0.86197133  0.23711290  1.0
  Ni  Ni378  1  0.00000000  0.16666667  0.34570430  1.0
  Ni  Ni379  1  0.00000000  0.50000000  0.34570430  1.0
  Ni  Ni380  1  0.00000000  0.83333333  0.34570430  1.0
  Ni  Ni381  1  0.33333333  0.16666667  0.34570430  1.0
  Ni  Ni382  1  0.33333333  0.50000000  0.34570430  1.0
  Ni  Ni383  1  0.33333333  0.83333333  0.34570430  1.0
  Ni  Ni384  1  0.66666667  0.16666667  0.34570430  1.0
  Ni  Ni385  1  0.66666667  0.50000000  0.34570430  1.0
  Ni  Ni386  1  0.66666667  0.83333333  0.34570430  1.0
  Ni  Ni387  1  0.00000000  0.00000000  0.39570430  1.0
  Ni  Ni388  1  0.00000000  0.33333333  0.39570430  1.0
  Ni  Ni389  1  0.00000000  0.66666667  0.39570430  1.0
  Ni  Ni390  1  0.33333333  0.00000000  0.39570430  1.0
  Ni  Ni391  1  0.33333333  0.33333333  0.39570430  1.0
  Ni  Ni392  1  0.33333333  0.66666667  0.39570430  1.0
  Ni  Ni393  1  0.66666667  0.00000000  0.39570430  1.0
  Ni  Ni394  1  0.66666667  0.33333333  0.39570430  1.0
  Ni  Ni395  1  0.66666667  0.66666667  0.39570430  1.0
  Ni  Ni396  1  0.11216667  0.13068933  0.35649750  1.0
  Ni  Ni397  1  0.11216667  0.46402267  0.35649750  1.0
  Ni  Ni398  1  0.11216667  0.79735600  0.35649750  1.0
  Ni  Ni399  1  0.44550000  0.13068933  0.35649750  1.0
  Ni  Ni400  1  0.44550000  0.46402267  0.35649750  1.0
  Ni  Ni401  1  0.44550000  0.79735600  0.35649750  1.0
  Ni  Ni402  1  0.77883333  0.13068933  0.35649750  1.0
  Ni  Ni403  1  0.77883333  0.46402267  0.35649750  1.0
  Ni  Ni404  1  0.77883333  0.79735600  0.35649750  1.0
  Ni  Ni405  1  0.11216667  0.29735600  0.30649750  1.0
  Ni  Ni406  1  0.11216667  0.63068933  0.30649750  1.0
  Ni  Ni407  1  0.11216667  0.96402267  0.30649750  1.0
  Ni  Ni408  1  0.44550000  0.29735600  0.30649750  1.0
  Ni  Ni409  1  0.44550000  0.63068933  0.30649750  1.0
  Ni  Ni410  1  0.44550000  0.96402267  0.30649750  1.0
  Ni  Ni411  1  0.77883333  0.29735600  0.30649750  1.0
  Ni  Ni412  1  0.77883333  0.63068933  0.30649750  1.0
  Ni  Ni413  1  0.77883333  0.96402267  0.30649750  1.0
  Ni  Ni414  1  0.22116667  0.03597733  0.38491110  1.0
  Ni  Ni415  1  0.22116667  0.36931067  0.38491110  1.0
  Ni  Ni416  1  0.22116667  0.70264400  0.38491110  1.0
  Ni  Ni417  1  0.55450000  0.03597733  0.38491110  1.0
  Ni  Ni418  1  0.55450000  0.36931067  0.38491110  1.0
  Ni  Ni419  1  0.55450000  0.70264400  0.38491110  1.0
  Ni  Ni420  1  0.88783333  0.03597733  0.38491110  1.0
  Ni  Ni421  1  0.88783333  0.36931067  0.38491110  1.0
  Ni  Ni422  1  0.88783333  0.70264400  0.38491110  1.0
  Ni  Ni423  1  0.22116667  0.20264400  0.33491110  1.0
  Ni  Ni424  1  0.22116667  0.53597733  0.33491110  1.0
  Ni  Ni425  1  0.22116667  0.86931067  0.33491110  1.0
  Ni  Ni426  1  0.55450000  0.20264400  0.33491110  1.0
  Ni  Ni427  1  0.55450000  0.53597733  0.33491110  1.0
  Ni  Ni428  1  0.55450000  0.86931067  0.33491110  1.0
  Ni  Ni429  1  0.88783333  0.20264400  0.33491110  1.0
  Ni  Ni430  1  0.88783333  0.53597733  0.33491110  1.0
  Ni  Ni431  1  0.88783333  0.86931067  0.33491110  1.0
  Sn  Sn432  1  0.22914767  0.09528817  0.36711785  1.0
  Sn  Sn433  1  0.22914767  0.42862150  0.36711785  1.0
  Sn  Sn434  1  0.22914767  0.76195483  0.36711785  1.0
  Sn  Sn435  1  0.56248100  0.09528817  0.36711785  1.0
  Sn  Sn436  1  0.56248100  0.42862150  0.36711785  1.0
  Sn  Sn437  1  0.56248100  0.76195483  0.36711785  1.0
  Sn  Sn438  1  0.89581433  0.09528817  0.36711785  1.0
  Sn  Sn439  1  0.89581433  0.42862150  0.36711785  1.0
  Sn  Sn440  1  0.89581433  0.76195483  0.36711785  1.0
  Sn  Sn441  1  0.22914767  0.26195483  0.31711785  1.0
  Sn  Sn442  1  0.22914767  0.59528817  0.31711785  1.0
  Sn  Sn443  1  0.22914767  0.92862150  0.31711785  1.0
  Sn  Sn444  1  0.56248100  0.26195483  0.31711785  1.0
  Sn  Sn445  1  0.56248100  0.59528817  0.31711785  1.0
  Sn  Sn446  1  0.56248100  0.92862150  0.31711785  1.0
  Sn  Sn447  1  0.89581433  0.26195483  0.31711785  1.0
  Sn  Sn448  1  0.89581433  0.59528817  0.31711785  1.0
  Sn  Sn449  1  0.89581433  0.92862150  0.31711785  1.0
  Sn  Sn450  1  0.10418567  0.07137850  0.37429075  1.0
  Sn  Sn451  1  0.10418567  0.40471183  0.37429075  1.0
  Sn  Sn452  1  0.10418567  0.73804517  0.37429075  1.0
  Sn  Sn453  1  0.43751900  0.07137850  0.37429075  1.0
  Sn  Sn454  1  0.43751900  0.40471183  0.37429075  1.0
  Sn  Sn455  1  0.43751900  0.73804517  0.37429075  1.0
  Sn  Sn456  1  0.77085233  0.07137850  0.37429075  1.0
  Sn  Sn457  1  0.77085233  0.40471183  0.37429075  1.0
  Sn  Sn458  1  0.77085233  0.73804517  0.37429075  1.0
  Sn  Sn459  1  0.10418567  0.23804517  0.32429075  1.0
  Sn  Sn460  1  0.10418567  0.57137850  0.32429075  1.0
  Sn  Sn461  1  0.10418567  0.90471183  0.32429075  1.0
  Sn  Sn462  1  0.43751900  0.23804517  0.32429075  1.0
  Sn  Sn463  1  0.43751900  0.57137850  0.32429075  1.0
  Sn  Sn464  1  0.43751900  0.90471183  0.32429075  1.0
  Sn  Sn465  1  0.77085233  0.23804517  0.32429075  1.0
  Sn  Sn466  1  0.77085233  0.57137850  0.32429075  1.0
  Sn  Sn467  1  0.77085233  0.90471183  0.32429075  1.0
  Sn  Sn468  1  0.27073867  0.13802867  0.35429570  1.0
  Sn  Sn469  1  0.27073867  0.47136200  0.35429570  1.0
  Sn  Sn470  1  0.27073867  0.80469533  0.35429570  1.0
  Sn  Sn471  1  0.60407200  0.13802867  0.35429570  1.0
  Sn  Sn472  1  0.60407200  0.47136200  0.35429570  1.0
  Sn  Sn473  1  0.60407200  0.80469533  0.35429570  1.0
  Sn  Sn474  1  0.93740533  0.13802867  0.35429570  1.0
  Sn  Sn475  1  0.93740533  0.47136200  0.35429570  1.0
  Sn  Sn476  1  0.93740533  0.80469533  0.35429570  1.0
  Sn  Sn477  1  0.27073867  0.30469533  0.30429570  1.0
  Sn  Sn478  1  0.27073867  0.63802867  0.30429570  1.0
  Sn  Sn479  1  0.27073867  0.97136200  0.30429570  1.0
  Sn  Sn480  1  0.60407200  0.30469533  0.30429570  1.0
  Sn  Sn481  1  0.60407200  0.63802867  0.30429570  1.0
  Sn  Sn482  1  0.60407200  0.97136200  0.30429570  1.0
  Sn  Sn483  1  0.93740533  0.30469533  0.30429570  1.0
  Sn  Sn484  1  0.93740533  0.63802867  0.30429570  1.0
  Sn  Sn485  1  0.93740533  0.97136200  0.30429570  1.0
  Sn  Sn486  1  0.06259467  0.02863800  0.38711290  1.0
  Sn  Sn487  1  0.06259467  0.36197133  0.38711290  1.0
  Sn  Sn488  1  0.06259467  0.69530467  0.38711290  1.0
  Sn  Sn489  1  0.39592800  0.02863800  0.38711290  1.0
  Sn  Sn490  1  0.39592800  0.36197133  0.38711290  1.0
  Sn  Sn491  1  0.39592800  0.69530467  0.38711290  1.0
  Sn  Sn492  1  0.72926133  0.02863800  0.38711290  1.0
  Sn  Sn493  1  0.72926133  0.36197133  0.38711290  1.0
  Sn  Sn494  1  0.72926133  0.69530467  0.38711290  1.0
  Sn  Sn495  1  0.06259467  0.19530467  0.33711290  1.0
  Sn  Sn496  1  0.06259467  0.52863800  0.33711290  1.0
  Sn  Sn497  1  0.06259467  0.86197133  0.33711290  1.0
  Sn  Sn498  1  0.39592800  0.19530467  0.33711290  1.0
  Sn  Sn499  1  0.39592800  0.52863800  0.33711290  1.0
  Sn  Sn500  1  0.39592800  0.86197133  0.33711290  1.0
  Sn  Sn501  1  0.72926133  0.19530467  0.33711290  1.0
  Sn  Sn502  1  0.72926133  0.52863800  0.33711290  1.0
  Sn  Sn503  1  0.72926133  0.86197133  0.33711290  1.0
