# generated using pymatgen
data_Ni3Sn4
_symmetry_space_group_name_H-M   'P 1'
_cell_length_a   12.28176600
_cell_length_b   27.92291896
_cell_length_c   42.16363488
_cell_angle_alpha   137.65726251
_cell_angle_beta   90.00000000
_cell_angle_gamma   77.29550870
_symmetry_Int_Tables_number   1
_chemical_formula_structural   Ni3Sn4
_chemical_formula_sum   'Ni81 Sn108'
_cell_volume   9205.76833508
_cell_formula_units_Z   27
loop_
 _symmetry_equiv_pos_site_id
 _symmetry_equiv_pos_as_xyz
  1  'x, y, z'
loop_
 _atom_site_type_symbol
 _atom_site_label
 _atom_site_symmetry_multiplicity
 _atom_site_fract_x
 _atom_site_fract_y
 _atom_site_fract_z
 _atom_site_occupancy
  Ni  Ni0  1  0.00000000  0.00000000  0.11525800  1.0
  Ni  Ni1  1  0.00000000  0.33333333  0.11525800  1.0
  Ni  Ni2  1  0.00000000  0.66666667  0.11525800  1.0
  Ni  Ni3  1  0.33333333  0.00000000  0.11525800  1.0
  Ni  Ni4  1  0.33333333  0.33333333  0.11525800  1.0
  Ni  Ni5  1  0.33333333  0.66666667  0.11525800  1.0
  Ni  Ni6  1  0.66666667  0.00000000  0.11525800  1.0
  Ni  Ni7  1  0.66666667  0.33333333  0.11525800  1.0
  Ni  Ni8  1  0.66666667  0.66666667  0.11525800  1.0
  Ni  Ni9  1  0.26137867  0.14390933  0.08628650  1.0
  Ni  Ni10  1  0.26137867  0.47724267  0.08628650  1.0
  Ni  Ni11  1  0.26137867  0.81057600  0.08628650  1.0
  Ni  Ni12  1  0.59471200  0.14390933  0.08628650  1.0
  Ni  Ni13  1  0.59471200  0.47724267  0.08628650  1.0
  Ni  Ni14  1  0.59471200  0.81057600  0.08628650  1.0
  Ni  Ni15  1  0.92804533  0.14390933  0.08628650  1.0
  Ni  Ni16  1  0.92804533  0.47724267  0.08628650  1.0
  Ni  Ni17  1  0.92804533  0.81057600  0.08628650  1.0
  Ni  Ni18  1  0.07195467  0.18942400  0.01922950  1.0
  Ni  Ni19  1  0.07195467  0.52275733  0.01922950  1.0
  Ni  Ni20  1  0.07195467  0.85609067  0.01922950  1.0
  Ni  Ni21  1  0.40528800  0.18942400  0.01922950  1.0
  Ni  Ni22  1  0.40528800  0.52275733  0.01922950  1.0
  Ni  Ni23  1  0.40528800  0.85609067  0.01922950  1.0
  Ni  Ni24  1  0.73862133  0.18942400  0.01922950  1.0
  Ni  Ni25  1  0.73862133  0.52275733  0.01922950  1.0
  Ni  Ni26  1  0.73862133  0.85609067  0.01922950  1.0
  Sn  Sn27  1  0.19057633  0.28551400  0.05825612  1.0
  Sn  Sn28  1  0.19057633  0.61884733  0.05825612  1.0
  Sn  Sn29  1  0.19057633  0.95218067  0.05825612  1.0
  Sn  Sn30  1  0.52390967  0.28551400  0.05825612  1.0
  Sn  Sn31  1  0.52390967  0.61884733  0.05825613  1.0
  Sn  Sn32  1  0.52390967  0.95218067  0.05825613  1.0
  Sn  Sn33  1  0.85724300  0.28551400  0.05825612  1.0
  Sn  Sn34  1  0.85724300  0.61884733  0.05825612  1.0
  Sn  Sn35  1  0.85724300  0.95218067  0.05825613  1.0
  Sn  Sn36  1  0.14275700  0.04781933  0.04725987  1.0
  Sn  Sn37  1  0.14275700  0.38115267  0.04725987  1.0
  Sn  Sn38  1  0.14275700  0.71448600  0.04725988  1.0
  Sn  Sn39  1  0.47609033  0.04781933  0.04725987  1.0
  Sn  Sn40  1  0.47609033  0.38115267  0.04725987  1.0
  Sn  Sn41  1  0.47609033  0.71448600  0.04725988  1.0
  Sn  Sn42  1  0.80942367  0.04781933  0.04725987  1.0
  Sn  Sn43  1  0.80942367  0.38115267  0.04725988  1.0
  Sn  Sn44  1  0.80942367  0.71448600  0.04725988  1.0
  Sn  Sn45  1  0.27605733  0.11455200  0.00974200  1.0
  Sn  Sn46  1  0.27605733  0.44788533  0.00974200  1.0
  Sn  Sn47  1  0.27605733  0.78121867  0.00974200  1.0
  Sn  Sn48  1  0.60939067  0.11455200  0.00974200  1.0
  Sn  Sn49  1  0.60939067  0.44788533  0.00974200  1.0
  Sn  Sn50  1  0.60939067  0.78121867  0.00974200  1.0
  Sn  Sn51  1  0.94272400  0.11455200  0.00974200  1.0
  Sn  Sn52  1  0.94272400  0.44788533  0.00974200  1.0
  Sn  Sn53  1  0.94272400  0.78121867  0.00974200  1.0
  Sn  Sn54  1  0.05727600  0.21878133  0.09577400  1.0
  Sn  Sn55  1  0.05727600  0.55211467  0.09577400  1.0
  Sn  Sn56  1  0.05727600  0.88544800  0.09577400  1.0
  Sn  Sn57  1  0.39060933  0.21878133  0.09577400  1.0
  Sn  Sn58  1  0.39060933  0.55211467  0.09577400  1.0
  Sn  Sn59  1  0.39060933  0.88544800  0.09577400  1.0
  Sn  Sn60  1  0.72394267  0.21878133  0.09577400  1.0
  Sn  Sn61  1  0.72394267  0.55211467  0.09577400  1.0
  Sn  Sn62  1  0.72394267  0.88544800  0.09577400  1.0
  Ni  Ni63  1  0.00000000  0.00000000  0.24025800  1.0
  Ni  Ni64  1  0.00000000  0.33333333  0.24025800  1.0
  Ni  Ni65  1  0.00000000  0.66666667  0.24025800  1.0
  Ni  Ni66  1  0.33333333  0.00000000  0.24025800  1.0
  Ni  Ni67  1  0.33333333  0.33333333  0.24025800  1.0
  Ni  Ni68  1  0.33333333  0.66666667  0.24025800  1.0
  Ni  Ni69  1  0.66666667  0.00000000  0.24025800  1.0
  Ni  Ni70  1  0.66666667  0.33333333  0.24025800  1.0
  Ni  Ni71  1  0.66666667  0.66666667  0.24025800  1.0
  Ni  Ni72  1  0.26137867  0.14390933  0.21128650  1.0
  Ni  Ni73  1  0.26137867  0.47724267  0.21128650  1.0
  Ni  Ni74  1  0.26137867  0.81057600  0.21128650  1.0
  Ni  Ni75  1  0.59471200  0.14390933  0.21128650  1.0
  Ni  Ni76  1  0.59471200  0.47724267  0.21128650  1.0
  Ni  Ni77  1  0.59471200  0.81057600  0.21128650  1.0
  Ni  Ni78  1  0.92804533  0.14390933  0.21128650  1.0
  Ni  Ni79  1  0.92804533  0.47724267  0.21128650  1.0
  Ni  Ni80  1  0.92804533  0.81057600  0.21128650  1.0
  Ni  Ni81  1  0.07195467  0.18942400  0.14422950  1.0
  Ni  Ni82  1  0.07195467  0.52275733  0.14422950  1.0
  Ni  Ni83  1  0.07195467  0.85609067  0.14422950  1.0
  Ni  Ni84  1  0.40528800  0.18942400  0.14422950  1.0
  Ni  Ni85  1  0.40528800  0.52275733  0.14422950  1.0
  Ni  Ni86  1  0.40528800  0.85609067  0.14422950  1.0
  Ni  Ni87  1  0.73862133  0.18942400  0.14422950  1.0
  Ni  Ni88  1  0.73862133  0.52275733  0.14422950  1.0
  Ni  Ni89  1  0.73862133  0.85609067  0.14422950  1.0
  Sn  Sn90  1  0.19057633  0.28551400  0.18325612  1.0
  Sn  Sn91  1  0.19057633  0.61884733  0.18325612  1.0
  Sn  Sn92  1  0.19057633  0.95218067  0.18325613  1.0
  Sn  Sn93  1  0.52390967  0.28551400  0.18325612  1.0
  Sn  Sn94  1  0.52390967  0.61884733  0.18325612  1.0
  Sn  Sn95  1  0.52390967  0.95218067  0.18325613  1.0
  Sn  Sn96  1  0.85724300  0.28551400  0.18325612  1.0
  Sn  Sn97  1  0.85724300  0.61884733  0.18325612  1.0
  Sn  Sn98  1  0.85724300  0.95218067  0.18325612  1.0
  Sn  Sn99  1  0.14275700  0.04781933  0.17225988  1.0
  Sn  Sn100  1  0.14275700  0.38115267  0.17225988  1.0
  Sn  Sn101  1  0.14275700  0.71448600  0.17225987  1.0
  Sn  Sn102  1  0.47609033  0.04781933  0.17225988  1.0
  Sn  Sn103  1  0.47609033  0.38115267  0.17225988  1.0
  Sn  Sn104  1  0.47609033  0.71448600  0.17225988  1.0
  Sn  Sn105  1  0.80942367  0.04781933  0.17225988  1.0
  Sn  Sn106  1  0.80942367  0.38115267  0.17225988  1.0
  Sn  Sn107  1  0.80942367  0.71448600  0.17225987  1.0
  Sn  Sn108  1  0.27605733  0.11455200  0.13474200  1.0
  Sn  Sn109  1  0.27605733  0.44788533  0.13474200  1.0
  Sn  Sn110  1  0.27605733  0.78121867  0.13474200  1.0
  Sn  Sn111  1  0.60939067  0.11455200  0.13474200  1.0
  Sn  Sn112  1  0.60939067  0.44788533  0.13474200  1.0
  Sn  Sn113  1  0.60939067  0.78121867  0.13474200  1.0
  Sn  Sn114  1  0.94272400  0.11455200  0.13474200  1.0
  Sn  Sn115  1  0.94272400  0.44788533  0.13474200  1.0
  Sn  Sn116  1  0.94272400  0.78121867  0.13474200  1.0
  Sn  Sn117  1  0.05727600  0.21878133  0.22077400  1.0
  Sn  Sn118  1  0.05727600  0.55211467  0.22077400  1.0
  Sn  Sn119  1  0.05727600  0.88544800  0.22077400  1.0
  Sn  Sn120  1  0.39060933  0.21878133  0.22077400  1.0
  Sn  Sn121  1  0.39060933  0.55211467  0.22077400  1.0
  Sn  Sn122  1  0.39060933  0.88544800  0.22077400  1.0
  Sn  Sn123  1  0.72394267  0.21878133  0.22077400  1.0
  Sn  Sn124  1  0.72394267  0.55211467  0.22077400  1.0
  Sn  Sn125  1  0.72394267  0.88544800  0.22077400  1.0
  Ni  Ni126  1  0.00000000  0.00000000  0.36525800  1.0
  Ni  Ni127  1  0.00000000  0.33333333  0.36525800  1.0
  Ni  Ni128  1  0.00000000  0.66666667  0.36525800  1.0
  Ni  Ni129  1  0.33333333  0.00000000  0.36525800  1.0
  Ni  Ni130  1  0.33333333  0.33333333  0.36525800  1.0
  Ni  Ni131  1  0.33333333  0.66666667  0.36525800  1.0
  Ni  Ni132  1  0.66666667  0.00000000  0.36525800  1.0
  Ni  Ni133  1  0.66666667  0.33333333  0.36525800  1.0
  Ni  Ni134  1  0.66666667  0.66666667  0.36525800  1.0
  Ni  Ni135  1  0.26137867  0.14390933  0.33628650  1.0
  Ni  Ni136  1  0.26137867  0.47724267  0.33628650  1.0
  Ni  Ni137  1  0.26137867  0.81057600  0.33628650  1.0
  Ni  Ni138  1  0.59471200  0.14390933  0.33628650  1.0
  Ni  Ni139  1  0.59471200  0.47724267  0.33628650  1.0
  Ni  Ni140  1  0.59471200  0.81057600  0.33628650  1.0
  Ni  Ni141  1  0.92804533  0.14390933  0.33628650  1.0
  Ni  Ni142  1  0.92804533  0.47724267  0.33628650  1.0
  Ni  Ni143  1  0.92804533  0.81057600  0.33628650  1.0
  Ni  Ni144  1  0.07195467  0.18942400  0.26922950  1.0
  Ni  Ni145  1  0.07195467  0.52275733  0.26922950  1.0
  Ni  Ni146  1  0.07195467  0.85609067  0.26922950  1.0
  Ni  Ni147  1  0.40528800  0.18942400  0.26922950  1.0
  Ni  Ni148  1  0.40528800  0.52275733  0.26922950  1.0
  Ni  Ni149  1  0.40528800  0.85609067  0.26922950  1.0
  Ni  Ni150  1  0.73862133  0.18942400  0.26922950  1.0
  Ni  Ni151  1  0.73862133  0.52275733  0.26922950  1.0
  Ni  Ni152  1  0.73862133  0.85609067  0.26922950  1.0
  Sn  Sn153  1  0.19057633  0.28551400  0.30825612  1.0
  Sn  Sn154  1  0.19057633  0.61884733  0.30825612  1.0
  Sn  Sn155  1  0.19057633  0.95218067  0.30825612  1.0
  Sn  Sn156  1  0.52390967  0.28551400  0.30825612  1.0
  Sn  Sn157  1  0.52390967  0.61884733  0.30825612  1.0
  Sn  Sn158  1  0.52390967  0.95218067  0.30825613  1.0
  Sn  Sn159  1  0.85724300  0.28551400  0.30825612  1.0
  Sn  Sn160  1  0.85724300  0.61884733  0.30825612  1.0
  Sn  Sn161  1  0.85724300  0.95218067  0.30825612  1.0
  Sn  Sn162  1  0.14275700  0.04781933  0.29725987  1.0
  Sn  Sn163  1  0.14275700  0.38115267  0.29725987  1.0
  Sn  Sn164  1  0.14275700  0.71448600  0.29725987  1.0
  Sn  Sn165  1  0.47609033  0.04781933  0.29725987  1.0
  Sn  Sn166  1  0.47609033  0.38115267  0.29725987  1.0
  Sn  Sn167  1  0.47609033  0.71448600  0.29725988  1.0
  Sn  Sn168  1  0.80942367  0.04781933  0.29725987  1.0
  Sn  Sn169  1  0.80942367  0.38115267  0.29725987  1.0
  Sn  Sn170  1  0.80942367  0.71448600  0.29725987  1.0
  Sn  Sn171  1  0.27605733  0.11455200  0.25974200  1.0
  Sn  Sn172  1  0.27605733  0.44788533  0.25974200  1.0
  Sn  Sn173  1  0.27605733  0.78121867  0.25974200  1.0
  Sn  Sn174  1  0.60939067  0.11455200  0.25974200  1.0
  Sn  Sn175  1  0.60939067  0.44788533  0.25974200  1.0
  Sn  Sn176  1  0.60939067  0.78121867  0.25974200  1.0
  Sn  Sn177  1  0.94272400  0.11455200  0.25974200  1.0
  Sn  Sn178  1  0.94272400  0.44788533  0.25974200  1.0
  Sn  Sn179  1  0.94272400  0.78121867  0.25974200  1.0
  Sn  Sn180  1  0.05727600  0.21878133  0.34577400  1.0
  Sn  Sn181  1  0.05727600  0.55211467  0.34577400  1.0
  Sn  Sn182  1  0.05727600  0.88544800  0.34577400  1.0
  Sn  Sn183  1  0.39060933  0.21878133  0.34577400  1.0
  Sn  Sn184  1  0.39060933  0.55211467  0.34577400  1.0
  Sn  Sn185  1  0.39060933  0.88544800  0.34577400  1.0
  Sn  Sn186  1  0.72394267  0.21878133  0.34577400  1.0
  Sn  Sn187  1  0.72394267  0.55211467  0.34577400  1.0
  Sn  Sn188  1  0.72394267  0.88544800  0.34577400  1.0
