# generated using pymatgen
data_Ni3Sn
_symmetry_space_group_name_H-M   'P 1'
_cell_length_a   27.56433072
_cell_length_b   20.37614203
_cell_length_c   50.89959600
_cell_angle_alpha   51.35450792
_cell_angle_beta   90.00000000
_cell_angle_gamma   47.43801874
_symmetry_Int_Tables_number   1
_chemical_formula_structural   Ni3Sn
_chemical_formula_sum   'Ni270 Sn90'
_cell_volume   11163.96885307
_cell_formula_units_Z   90
loop_
 _symmetry_equiv_pos_site_id
 _symmetry_equiv_pos_as_xyz
  1  'x, y, z'
loop_
 _atom_site_type_symbol
 _atom_site_label
 _atom_site_symmetry_multiplicity
 _atom_site_fract_x
 _atom_site_fract_y
 _atom_site_fract_z
 _atom_site_occupancy
  Ni  Ni0  1  0.28012767  0.15961700  0.02259575  1.0
  Ni  Ni1  1  0.28012767  0.49295033  0.02259575  1.0
  Ni  Ni2  1  0.28012767  0.82628367  0.02259575  1.0
  Ni  Ni3  1  0.61346100  0.15961700  0.02259575  1.0
  Ni  Ni4  1  0.61346100  0.49295033  0.02259575  1.0
  Ni  Ni5  1  0.61346100  0.82628367  0.02259575  1.0
  Ni  Ni6  1  0.94679433  0.15961700  0.02259575  1.0
  Ni  Ni7  1  0.94679433  0.49295033  0.02259575  1.0
  Ni  Ni8  1  0.94679433  0.82628367  0.02259575  1.0
  Ni  Ni9  1  0.22692200  0.15961700  0.06426242  1.0
  Ni  Ni10  1  0.22692200  0.49295033  0.06426242  1.0
  Ni  Ni11  1  0.22692200  0.82628367  0.06426242  1.0
  Ni  Ni12  1  0.56025533  0.15961700  0.06426242  1.0
  Ni  Ni13  1  0.56025533  0.49295033  0.06426242  1.0
  Ni  Ni14  1  0.56025533  0.82628367  0.06426242  1.0
  Ni  Ni15  1  0.89358867  0.15961700  0.06426242  1.0
  Ni  Ni16  1  0.89358867  0.49295033  0.06426242  1.0
  Ni  Ni17  1  0.89358867  0.82628367  0.06426242  1.0
  Ni  Ni18  1  0.05320567  0.00000000  0.02083333  1.0
  Ni  Ni19  1  0.05320567  0.33333333  0.02083333  1.0
  Ni  Ni20  1  0.05320567  0.66666667  0.02083333  1.0
  Ni  Ni21  1  0.38653900  0.00000000  0.02083333  1.0
  Ni  Ni22  1  0.38653900  0.33333333  0.02083333  1.0
  Ni  Ni23  1  0.38653900  0.66666667  0.02083333  1.0
  Ni  Ni24  1  0.71987233  0.00000000  0.02083333  1.0
  Ni  Ni25  1  0.71987233  0.33333333  0.02083333  1.0
  Ni  Ni26  1  0.71987233  0.66666667  0.02083333  1.0
  Ni  Ni27  1  0.28012767  0.00000000  0.06250000  1.0
  Ni  Ni28  1  0.28012767  0.33333333  0.06250000  1.0
  Ni  Ni29  1  0.28012767  0.66666667  0.06250000  1.0
  Ni  Ni30  1  0.61346100  0.00000000  0.06250000  1.0
  Ni  Ni31  1  0.61346100  0.33333333  0.06250000  1.0
  Ni  Ni32  1  0.61346100  0.66666667  0.06250000  1.0
  Ni  Ni33  1  0.94679433  0.00000000  0.06250000  1.0
  Ni  Ni34  1  0.94679433  0.33333333  0.06250000  1.0
  Ni  Ni35  1  0.94679433  0.66666667  0.06250000  1.0
  Ni  Ni36  1  0.10641133  0.17371633  0.01907092  1.0
  Ni  Ni37  1  0.10641133  0.50704967  0.01907092  1.0
  Ni  Ni38  1  0.10641133  0.84038300  0.01907092  1.0
  Ni  Ni39  1  0.43974467  0.17371633  0.01907092  1.0
  Ni  Ni40  1  0.43974467  0.50704967  0.01907092  1.0
  Ni  Ni41  1  0.43974467  0.84038300  0.01907092  1.0
  Ni  Ni42  1  0.77307800  0.17371633  0.01907092  1.0
  Ni  Ni43  1  0.77307800  0.50704967  0.01907092  1.0
  Ni  Ni44  1  0.77307800  0.84038300  0.01907092  1.0
  Ni  Ni45  1  0.05320567  0.17371633  0.06073758  1.0
  Ni  Ni46  1  0.05320567  0.50704967  0.06073758  1.0
  Ni  Ni47  1  0.05320567  0.84038300  0.06073758  1.0
  Ni  Ni48  1  0.38653900  0.17371633  0.06073758  1.0
  Ni  Ni49  1  0.38653900  0.50704967  0.06073758  1.0
  Ni  Ni50  1  0.38653900  0.84038300  0.06073758  1.0
  Ni  Ni51  1  0.71987233  0.17371633  0.06073758  1.0
  Ni  Ni52  1  0.71987233  0.50704967  0.06073758  1.0
  Ni  Ni53  1  0.71987233  0.84038300  0.06073758  1.0
  Sn  Sn54  1  0.11111111  0.00000000  0.06250000  1.0
  Sn  Sn55  1  0.11111111  0.33333333  0.06250000  1.0
  Sn  Sn56  1  0.11111111  0.66666667  0.06250000  1.0
  Sn  Sn57  1  0.44444444  0.00000000  0.06250000  1.0
  Sn  Sn58  1  0.44444444  0.33333333  0.06250000  1.0
  Sn  Sn59  1  0.44444444  0.66666667  0.06250000  1.0
  Sn  Sn60  1  0.77777778  0.00000000  0.06250000  1.0
  Sn  Sn61  1  0.77777778  0.33333333  0.06250000  1.0
  Sn  Sn62  1  0.77777778  0.66666667  0.06250000  1.0
  Sn  Sn63  1  0.22222222  0.00000000  0.02083333  1.0
  Sn  Sn64  1  0.22222222  0.33333333  0.02083333  1.0
  Sn  Sn65  1  0.22222222  0.66666667  0.02083333  1.0
  Sn  Sn66  1  0.55555556  0.00000000  0.02083333  1.0
  Sn  Sn67  1  0.55555556  0.33333333  0.02083333  1.0
  Sn  Sn68  1  0.55555556  0.66666667  0.02083333  1.0
  Sn  Sn69  1  0.88888889  0.00000000  0.02083333  1.0
  Sn  Sn70  1  0.88888889  0.33333333  0.02083333  1.0
  Sn  Sn71  1  0.88888889  0.66666667  0.02083333  1.0
  Ni  Ni72  1  0.28012767  0.15961700  0.10592908  1.0
  Ni  Ni73  1  0.28012767  0.49295033  0.10592908  1.0
  Ni  Ni74  1  0.28012767  0.82628367  0.10592908  1.0
  Ni  Ni75  1  0.61346100  0.15961700  0.10592908  1.0
  Ni  Ni76  1  0.61346100  0.49295033  0.10592908  1.0
  Ni  Ni77  1  0.61346100  0.82628367  0.10592908  1.0
  Ni  Ni78  1  0.94679433  0.15961700  0.10592908  1.0
  Ni  Ni79  1  0.94679433  0.49295033  0.10592908  1.0
  Ni  Ni80  1  0.94679433  0.82628367  0.10592908  1.0
  Ni  Ni81  1  0.22692200  0.15961700  0.14759575  1.0
  Ni  Ni82  1  0.22692200  0.49295033  0.14759575  1.0
  Ni  Ni83  1  0.22692200  0.82628367  0.14759575  1.0
  Ni  Ni84  1  0.56025533  0.15961700  0.14759575  1.0
  Ni  Ni85  1  0.56025533  0.49295033  0.14759575  1.0
  Ni  Ni86  1  0.56025533  0.82628367  0.14759575  1.0
  Ni  Ni87  1  0.89358867  0.15961700  0.14759575  1.0
  Ni  Ni88  1  0.89358867  0.49295033  0.14759575  1.0
  Ni  Ni89  1  0.89358867  0.82628367  0.14759575  1.0
  Ni  Ni90  1  0.05320567  0.00000000  0.10416667  1.0
  Ni  Ni91  1  0.05320567  0.33333333  0.10416667  1.0
  Ni  Ni92  1  0.05320567  0.66666667  0.10416667  1.0
  Ni  Ni93  1  0.38653900  0.00000000  0.10416667  1.0
  Ni  Ni94  1  0.38653900  0.33333333  0.10416667  1.0
  Ni  Ni95  1  0.38653900  0.66666667  0.10416667  1.0
  Ni  Ni96  1  0.71987233  0.00000000  0.10416667  1.0
  Ni  Ni97  1  0.71987233  0.33333333  0.10416667  1.0
  Ni  Ni98  1  0.71987233  0.66666667  0.10416667  1.0
  Ni  Ni99  1  0.28012767  0.00000000  0.14583333  1.0
  Ni  Ni100  1  0.28012767  0.33333333  0.14583333  1.0
  Ni  Ni101  1  0.28012767  0.66666667  0.14583333  1.0
  Ni  Ni102  1  0.61346100  0.00000000  0.14583333  1.0
  Ni  Ni103  1  0.61346100  0.33333333  0.14583333  1.0
  Ni  Ni104  1  0.61346100  0.66666667  0.14583333  1.0
  Ni  Ni105  1  0.94679433  0.00000000  0.14583333  1.0
  Ni  Ni106  1  0.94679433  0.33333333  0.14583333  1.0
  Ni  Ni107  1  0.94679433  0.66666667  0.14583333  1.0
  Ni  Ni108  1  0.10641133  0.17371633  0.10240425  1.0
  Ni  Ni109  1  0.10641133  0.50704967  0.10240425  1.0
  Ni  Ni110  1  0.10641133  0.84038300  0.10240425  1.0
  Ni  Ni111  1  0.43974467  0.17371633  0.10240425  1.0
  Ni  Ni112  1  0.43974467  0.50704967  0.10240425  1.0
  Ni  Ni113  1  0.43974467  0.84038300  0.10240425  1.0
  Ni  Ni114  1  0.77307800  0.17371633  0.10240425  1.0
  Ni  Ni115  1  0.77307800  0.50704967  0.10240425  1.0
  Ni  Ni116  1  0.77307800  0.84038300  0.10240425  1.0
  Ni  Ni117  1  0.05320567  0.17371633  0.14407092  1.0
  Ni  Ni118  1  0.05320567  0.50704967  0.14407092  1.0
  Ni  Ni119  1  0.05320567  0.84038300  0.14407092  1.0
  Ni  Ni120  1  0.38653900  0.17371633  0.14407092  1.0
  Ni  Ni121  1  0.38653900  0.50704967  0.14407092  1.0
  Ni  Ni122  1  0.38653900  0.84038300  0.14407092  1.0
  Ni  Ni123  1  0.71987233  0.17371633  0.14407092  1.0
  Ni  Ni124  1  0.71987233  0.50704967  0.14407092  1.0
  Ni  Ni125  1  0.71987233  0.84038300  0.14407092  1.0
  Sn  Sn126  1  0.11111111  0.00000000  0.14583333  1.0
  Sn  Sn127  1  0.11111111  0.33333333  0.14583333  1.0
  Sn  Sn128  1  0.11111111  0.66666667  0.14583333  1.0
  Sn  Sn129  1  0.44444444  0.00000000  0.14583333  1.0
  Sn  Sn130  1  0.44444444  0.33333333  0.14583333  1.0
  Sn  Sn131  1  0.44444444  0.66666667  0.14583333  1.0
  Sn  Sn132  1  0.77777778  0.00000000  0.14583333  1.0
  Sn  Sn133  1  0.77777778  0.33333333  0.14583333  1.0
  Sn  Sn134  1  0.77777778  0.66666667  0.14583333  1.0
  Sn  Sn135  1  0.22222222  0.00000000  0.10416667  1.0
  Sn  Sn136  1  0.22222222  0.33333333  0.10416667  1.0
  Sn  Sn137  1  0.22222222  0.66666667  0.10416667  1.0
  Sn  Sn138  1  0.55555556  0.00000000  0.10416667  1.0
  Sn  Sn139  1  0.55555556  0.33333333  0.10416667  1.0
  Sn  Sn140  1  0.55555556  0.66666667  0.10416667  1.0
  Sn  Sn141  1  0.88888889  0.00000000  0.10416667  1.0
  Sn  Sn142  1  0.88888889  0.33333333  0.10416667  1.0
  Sn  Sn143  1  0.88888889  0.66666667  0.10416667  1.0
  Ni  Ni144  1  0.28012767  0.15961700  0.18926242  1.0
  Ni  Ni145  1  0.28012767  0.49295033  0.18926242  1.0
  Ni  Ni146  1  0.28012767  0.82628367  0.18926242  1.0
  Ni  Ni147  1  0.61346100  0.15961700  0.18926242  1.0
  Ni  Ni148  1  0.61346100  0.49295033  0.18926242  1.0
  Ni  Ni149  1  0.61346100  0.82628367  0.18926242  1.0
  Ni  Ni150  1  0.94679433  0.15961700  0.18926242  1.0
  Ni  Ni151  1  0.94679433  0.49295033  0.18926242  1.0
  Ni  Ni152  1  0.94679433  0.82628367  0.18926242  1.0
  Ni  Ni153  1  0.22692200  0.15961700  0.23092908  1.0
  Ni  Ni154  1  0.22692200  0.49295033  0.23092908  1.0
  Ni  Ni155  1  0.22692200  0.82628367  0.23092908  1.0
  Ni  Ni156  1  0.56025533  0.15961700  0.23092908  1.0
  Ni  Ni157  1  0.56025533  0.49295033  0.23092908  1.0
  Ni  Ni158  1  0.56025533  0.82628367  0.23092908  1.0
  Ni  Ni159  1  0.89358867  0.15961700  0.23092908  1.0
  Ni  Ni160  1  0.89358867  0.49295033  0.23092908  1.0
  Ni  Ni161  1  0.89358867  0.82628367  0.23092908  1.0
  Ni  Ni162  1  0.05320567  0.00000000  0.18750000  1.0
  Ni  Ni163  1  0.05320567  0.33333333  0.18750000  1.0
  Ni  Ni164  1  0.05320567  0.66666667  0.18750000  1.0
  Ni  Ni165  1  0.38653900  0.00000000  0.18750000  1.0
  Ni  Ni166  1  0.38653900  0.33333333  0.18750000  1.0
  Ni  Ni167  1  0.38653900  0.66666667  0.18750000  1.0
  Ni  Ni168  1  0.71987233  0.00000000  0.18750000  1.0
  Ni  Ni169  1  0.71987233  0.33333333  0.18750000  1.0
  Ni  Ni170  1  0.71987233  0.66666667  0.18750000  1.0
  Ni  Ni171  1  0.28012767  0.00000000  0.22916667  1.0
  Ni  Ni172  1  0.28012767  0.33333333  0.22916667  1.0
  Ni  Ni173  1  0.28012767  0.66666667  0.22916667  1.0
  Ni  Ni174  1  0.61346100  0.00000000  0.22916667  1.0
  Ni  Ni175  1  0.61346100  0.33333333  0.22916667  1.0
  Ni  Ni176  1  0.61346100  0.66666667  0.22916667  1.0
  Ni  Ni177  1  0.94679433  0.00000000  0.22916667  1.0
  Ni  Ni178  1  0.94679433  0.33333333  0.22916667  1.0
  Ni  Ni179  1  0.94679433  0.66666667  0.22916667  1.0
  Ni  Ni180  1  0.10641133  0.17371633  0.18573758  1.0
  Ni  Ni181  1  0.10641133  0.50704967  0.18573758  1.0
  Ni  Ni182  1  0.10641133  0.84038300  0.18573758  1.0
  Ni  Ni183  1  0.43974467  0.17371633  0.18573758  1.0
  Ni  Ni184  1  0.43974467  0.50704967  0.18573758  1.0
  Ni  Ni185  1  0.43974467  0.84038300  0.18573758  1.0
  Ni  Ni186  1  0.77307800  0.17371633  0.18573758  1.0
  Ni  Ni187  1  0.77307800  0.50704967  0.18573758  1.0
  Ni  Ni188  1  0.77307800  0.84038300  0.18573758  1.0
  Ni  Ni189  1  0.05320567  0.17371633  0.22740425  1.0
  Ni  Ni190  1  0.05320567  0.50704967  0.22740425  1.0
  Ni  Ni191  1  0.05320567  0.84038300  0.22740425  1.0
  Ni  Ni192  1  0.38653900  0.17371633  0.22740425  1.0
  Ni  Ni193  1  0.38653900  0.50704967  0.22740425  1.0
  Ni  Ni194  1  0.38653900  0.84038300  0.22740425  1.0
  Ni  Ni195  1  0.71987233  0.17371633  0.22740425  1.0
  Ni  Ni196  1  0.71987233  0.50704967  0.22740425  1.0
  Ni  Ni197  1  0.71987233  0.84038300  0.22740425  1.0
  Sn  Sn198  1  0.11111111  0.00000000  0.22916667  1.0
  Sn  Sn199  1  0.11111111  0.33333333  0.22916667  1.0
  Sn  Sn200  1  0.11111111  0.66666667  0.22916667  1.0
  Sn  Sn201  1  0.44444444  0.00000000  0.22916667  1.0
  Sn  Sn202  1  0.44444444  0.33333333  0.22916667  1.0
  Sn  Sn203  1  0.44444444  0.66666667  0.22916667  1.0
  Sn  Sn204  1  0.77777778  0.00000000  0.22916667  1.0
  Sn  Sn205  1  0.77777778  0.33333333  0.22916667  1.0
  Sn  Sn206  1  0.77777778  0.66666667  0.22916667  1.0
  Sn  Sn207  1  0.22222222  0.00000000  0.18750000  1.0
  Sn  Sn208  1  0.22222222  0.33333333  0.18750000  1.0
  Sn  Sn209  1  0.22222222  0.66666667  0.18750000  1.0
  Sn  Sn210  1  0.55555556  0.00000000  0.18750000  1.0
  Sn  Sn211  1  0.55555556  0.33333333  0.18750000  1.0
  Sn  Sn212  1  0.55555556  0.66666667  0.18750000  1.0
  Sn  Sn213  1  0.88888889  0.00000000  0.18750000  1.0
  Sn  Sn214  1  0.88888889  0.33333333  0.18750000  1.0
  Sn  Sn215  1  0.88888889  0.66666667  0.18750000  1.0
  Ni  Ni216  1  0.28012767  0.15961700  0.27259575  1.0
  Ni  Ni217  1  0.28012767  0.49295033  0.27259575  1.0
  Ni  Ni218  1  0.28012767  0.82628367  0.27259575  1.0
  Ni  Ni219  1  0.61346100  0.15961700  0.27259575  1.0
  Ni  Ni220  1  0.61346100  0.49295033  0.27259575  1.0
  Ni  Ni221  1  0.61346100  0.82628367  0.27259575  1.0
  Ni  Ni222  1  0.94679433  0.15961700  0.27259575  1.0
  Ni  Ni223  1  0.94679433  0.49295033  0.27259575  1.0
  Ni  Ni224  1  0.94679433  0.82628367  0.27259575  1.0
  Ni  Ni225  1  0.22692200  0.15961700  0.31426242  1.0
  Ni  Ni226  1  0.22692200  0.49295033  0.31426242  1.0
  Ni  Ni227  1  0.22692200  0.82628367  0.31426242  1.0
  Ni  Ni228  1  0.56025533  0.15961700  0.31426242  1.0
  Ni  Ni229  1  0.56025533  0.49295033  0.31426242  1.0
  Ni  Ni230  1  0.56025533  0.82628367  0.31426242  1.0
  Ni  Ni231  1  0.89358867  0.15961700  0.31426242  1.0
  Ni  Ni232  1  0.89358867  0.49295033  0.31426242  1.0
  Ni  Ni233  1  0.89358867  0.82628367  0.31426242  1.0
  Ni  Ni234  1  0.05320567  0.00000000  0.27083333  1.0
  Ni  Ni235  1  0.05320567  0.33333333  0.27083333  1.0
  Ni  Ni236  1  0.05320567  0.66666667  0.27083333  1.0
  Ni  Ni237  1  0.38653900  0.00000000  0.27083333  1.0
  Ni  Ni238  1  0.38653900  0.33333333  0.27083333  1.0
  Ni  Ni239  1  0.38653900  0.66666667  0.27083333  1.0
  Ni  Ni240  1  0.71987233  0.00000000  0.27083333  1.0
  Ni  Ni241  1  0.71987233  0.33333333  0.27083333  1.0
  Ni  Ni242  1  0.71987233  0.66666667  0.27083333  1.0
  Ni  Ni243  1  0.28012767  0.00000000  0.31250000  1.0
  Ni  Ni244  1  0.28012767  0.33333333  0.31250000  1.0
  Ni  Ni245  1  0.28012767  0.66666667  0.31250000  1.0
  Ni  Ni246  1  0.61346100  0.00000000  0.31250000  1.0
  Ni  Ni247  1  0.61346100  0.33333333  0.31250000  1.0
  Ni  Ni248  1  0.61346100  0.66666667  0.31250000  1.0
  Ni  Ni249  1  0.94679433  0.00000000  0.31250000  1.0
  Ni  Ni250  1  0.94679433  0.33333333  0.31250000  1.0
  Ni  Ni251  1  0.94679433  0.66666667  0.31250000  1.0
  Ni  Ni252  1  0.10641133  0.17371633  0.26907092  1.0
  Ni  Ni253  1  0.10641133  0.50704967  0.26907092  1.0
  Ni  Ni254  1  0.10641133  0.84038300  0.26907092  1.0
  Ni  Ni255  1  0.43974467  0.17371633  0.26907092  1.0
  Ni  Ni256  1  0.43974467  0.50704967  0.26907092  1.0
  Ni  Ni257  1  0.43974467  0.84038300  0.26907092  1.0
  Ni  Ni258  1  0.77307800  0.17371633  0.26907092  1.0
  Ni  Ni259  1  0.77307800  0.50704967  0.26907092  1.0
  Ni  Ni260  1  0.77307800  0.84038300  0.26907092  1.0
  Ni  Ni261  1  0.05320567  0.17371633  0.31073758  1.0
  Ni  Ni262  1  0.05320567  0.50704967  0.31073758  1.0
  Ni  Ni263  1  0.05320567  0.84038300  0.31073758  1.0
  Ni  Ni264  1  0.38653900  0.17371633  0.31073758  1.0
  Ni  Ni265  1  0.38653900  0.50704967  0.31073758  1.0
  Ni  Ni266  1  0.38653900  0.84038300  0.31073758  1.0
  Ni  Ni267  1  0.71987233  0.17371633  0.31073758  1.0
  Ni  Ni268  1  0.71987233  0.50704967  0.31073758  1.0
  Ni  Ni269  1  0.71987233  0.84038300  0.31073758  1.0
  Sn  Sn270  1  0.11111111  0.00000000  0.31250000  1.0
  Sn  Sn271  1  0.11111111  0.33333333  0.31250000  1.0
  Sn  Sn272  1  0.11111111  0.66666667  0.31250000  1.0
  Sn  Sn273  1  0.44444444  0.00000000  0.31250000  1.0
  Sn  Sn274  1  0.44444444  0.33333333  0.31250000  1.0
  Sn  Sn275  1  0.44444444  0.66666667  0.31250000  1.0
  Sn  Sn276  1  0.77777778  0.00000000  0.31250000  1.0
  Sn  Sn277  1  0.77777778  0.33333333  0.31250000  1.0
  Sn  Sn278  1  0.77777778  0.66666667  0.31250000  1.0
  Sn  Sn279  1  0.22222222  0.00000000  0.27083333  1.0
  Sn  Sn280  1  0.22222222  0.33333333  0.27083333  1.0
  Sn  Sn281  1  0.22222222  0.66666667  0.27083333  1.0
  Sn  Sn282  1  0.55555556  0.00000000  0.27083333  1.0
  Sn  Sn283  1  0.55555556  0.33333333  0.27083333  1.0
  Sn  Sn284  1  0.55555556  0.66666667  0.27083333  1.0
  Sn  Sn285  1  0.88888889  0.00000000  0.27083333  1.0
  Sn  Sn286  1  0.88888889  0.33333333  0.27083333  1.0
  Sn  Sn287  1  0.88888889  0.66666667  0.27083333  1.0
  Ni  Ni288  1  0.28012767  0.15961700  0.35592908  1.0
  Ni  Ni289  1  0.28012767  0.49295033  0.35592908  1.0
  Ni  Ni290  1  0.28012767  0.82628367  0.35592908  1.0
  Ni  Ni291  1  0.61346100  0.15961700  0.35592908  1.0
  Ni  Ni292  1  0.61346100  0.49295033  0.35592908  1.0
  Ni  Ni293  1  0.61346100  0.82628367  0.35592908  1.0
  Ni  Ni294  1  0.94679433  0.15961700  0.35592908  1.0
  Ni  Ni295  1  0.94679433  0.49295033  0.35592908  1.0
  Ni  Ni296  1  0.94679433  0.82628367  0.35592908  1.0
  Ni  Ni297  1  0.22692200  0.15961700  0.39759575  1.0
  Ni  Ni298  1  0.22692200  0.49295033  0.39759575  1.0
  Ni  Ni299  1  0.22692200  0.82628367  0.39759575  1.0
  Ni  Ni300  1  0.56025533  0.15961700  0.39759575  1.0
  Ni  Ni301  1  0.56025533  0.49295033  0.39759575  1.0
  Ni  Ni302  1  0.56025533  0.82628367  0.39759575  1.0
  Ni  Ni303  1  0.89358867  0.15961700  0.39759575  1.0
  Ni  Ni304  1  0.89358867  0.49295033  0.39759575  1.0
  Ni  Ni305  1  0.89358867  0.82628367  0.39759575  1.0
  Ni  Ni306  1  0.05320567  0.00000000  0.35416667  1.0
  Ni  Ni307  1  0.05320567  0.33333333  0.35416667  1.0
  Ni  Ni308  1  0.05320567  0.66666667  0.35416667  1.0
  Ni  Ni309  1  0.38653900  0.00000000  0.35416667  1.0
  Ni  Ni310  1  0.38653900  0.33333333  0.35416667  1.0
  Ni  Ni311  1  0.38653900  0.66666667  0.35416667  1.0
  Ni  Ni312  1  0.71987233  0.00000000  0.35416667  1.0
  Ni  Ni313  1  0.71987233  0.33333333  0.35416667  1.0
  Ni  Ni314  1  0.71987233  0.66666667  0.35416667  1.0
  Ni  Ni315  1  0.28012767  0.00000000  0.39583333  1.0
  Ni  Ni316  1  0.28012767  0.33333333  0.39583333  1.0
  Ni  Ni317  1  0.28012767  0.66666667  0.39583333  1.0
  Ni  Ni318  1  0.61346100  0.00000000  0.39583333  1.0
  Ni  Ni319  1  0.61346100  0.33333333  0.39583333  1.0
  Ni  Ni320  1  0.61346100  0.66666667  0.39583333  1.0
  Ni  Ni321  1  0.94679433  0.00000000  0.39583333  1.0
  Ni  Ni322  1  0.94679433  0.33333333  0.39583333  1.0
  Ni  Ni323  1  0.94679433  0.66666667  0.39583333  1.0
  Ni  Ni324  1  0.10641133  0.17371633  0.35240425  1.0
  Ni  Ni325  1  0.10641133  0.50704967  0.35240425  1.0
  Ni  Ni326  1  0.10641133  0.84038300  0.35240425  1.0
  Ni  Ni327  1  0.43974467  0.17371633  0.35240425  1.0
  Ni  Ni328  1  0.43974467  0.50704967  0.35240425  1.0
  Ni  Ni329  1  0.43974467  0.84038300  0.35240425  1.0
  Ni  Ni330  1  0.77307800  0.17371633  0.35240425  1.0
  Ni  Ni331  1  0.77307800  0.50704967  0.35240425  1.0
  Ni  Ni332  1  0.77307800  0.84038300  0.35240425  1.0
  Ni  Ni333  1  0.05320567  0.17371633  0.39407092  1.0
  Ni  Ni334  1  0.05320567  0.50704967  0.39407092  1.0
  Ni  Ni335  1  0.05320567  0.84038300  0.39407092  1.0
  Ni  Ni336  1  0.38653900  0.17371633  0.39407092  1.0
  Ni  Ni337  1  0.38653900  0.50704967  0.39407092  1.0
  Ni  Ni338  1  0.38653900  0.84038300  0.39407092  1.0
  Ni  Ni339  1  0.71987233  0.17371633  0.39407092  1.0
  Ni  Ni340  1  0.71987233  0.50704967  0.39407092  1.0
  Ni  Ni341  1  0.71987233  0.84038300  0.39407092  1.0
  Sn  Sn342  1  0.11111111  0.00000000  0.39583333  1.0
  Sn  Sn343  1  0.11111111  0.33333333  0.39583333  1.0
  Sn  Sn344  1  0.11111111  0.66666667  0.39583333  1.0
  Sn  Sn345  1  0.44444444  0.00000000  0.39583333  1.0
  Sn  Sn346  1  0.44444444  0.33333333  0.39583333  1.0
  Sn  Sn347  1  0.44444444  0.66666667  0.39583333  1.0
  Sn  Sn348  1  0.77777778  0.00000000  0.39583333  1.0
  Sn  Sn349  1  0.77777778  0.33333333  0.39583333  1.0
  Sn  Sn350  1  0.77777778  0.66666667  0.39583333  1.0
  Sn  Sn351  1  0.22222222  0.00000000  0.35416667  1.0
  Sn  Sn352  1  0.22222222  0.33333333  0.35416667  1.0
  Sn  Sn353  1  0.22222222  0.66666667  0.35416667  1.0
  Sn  Sn354  1  0.55555556  0.00000000  0.35416667  1.0
  Sn  Sn355  1  0.55555556  0.33333333  0.35416667  1.0
  Sn  Sn356  1  0.55555556  0.66666667  0.35416667  1.0
  Sn  Sn357  1  0.88888889  0.00000000  0.35416667  1.0
  Sn  Sn358  1  0.88888889  0.33333333  0.35416667  1.0
  Sn  Sn359  1  0.88888889  0.66666667  0.35416667  1.0
