# generated using pymatgen
data_Ni3Sb
_symmetry_space_group_name_H-M   'P 1'
_cell_length_a   12.82023000
_cell_length_b   41.78625783
_cell_length_c   42.11658912
_cell_angle_alpha   139.10660535
_cell_angle_beta   90.00000000
_cell_angle_gamma   90.00000000
_symmetry_Int_Tables_number   1
_chemical_formula_structural   Ni3Sb
_chemical_formula_sum   'Ni324 Sb108'
_cell_volume   14770.46254021
_cell_formula_units_Z   108
loop_
 _symmetry_equiv_pos_site_id
 _symmetry_equiv_pos_as_xyz
  1  'x, y, z'
loop_
 _atom_site_type_symbol
 _atom_site_label
 _atom_site_symmetry_multiplicity
 _atom_site_fract_x
 _atom_site_fract_y
 _atom_site_fract_z
 _atom_site_occupancy
  Ni  Ni0  1  0.08333333  0.13960883  0.07183675  1.0
  Ni  Ni1  1  0.08333333  0.47294217  0.07183675  1.0
  Ni  Ni2  1  0.08333333  0.80627550  0.07183675  1.0
  Ni  Ni3  1  0.41666667  0.13960883  0.07183675  1.0
  Ni  Ni4  1  0.41666667  0.47294217  0.07183675  1.0
  Ni  Ni5  1  0.41666667  0.80627550  0.07183675  1.0
  Ni  Ni6  1  0.75000000  0.13960883  0.07183675  1.0
  Ni  Ni7  1  0.75000000  0.47294217  0.07183675  1.0
  Ni  Ni8  1  0.75000000  0.80627550  0.07183675  1.0
  Ni  Ni9  1  0.08333333  0.30627550  0.00933675  1.0
  Ni  Ni10  1  0.08333333  0.63960883  0.00933675  1.0
  Ni  Ni11  1  0.08333333  0.97294217  0.00933675  1.0
  Ni  Ni12  1  0.41666667  0.30627550  0.00933675  1.0
  Ni  Ni13  1  0.41666667  0.63960883  0.00933675  1.0
  Ni  Ni14  1  0.41666667  0.97294217  0.00933675  1.0
  Ni  Ni15  1  0.75000000  0.30627550  0.00933675  1.0
  Ni  Ni16  1  0.75000000  0.63960883  0.00933675  1.0
  Ni  Ni17  1  0.75000000  0.97294217  0.00933675  1.0
  Ni  Ni18  1  0.08333333  0.05411567  0.03977681  1.0
  Ni  Ni19  1  0.08333333  0.38744900  0.03977681  1.0
  Ni  Ni20  1  0.08333333  0.72078233  0.03977681  1.0
  Ni  Ni21  1  0.41666667  0.05411567  0.03977681  1.0
  Ni  Ni22  1  0.41666667  0.38744900  0.03977681  1.0
  Ni  Ni23  1  0.41666667  0.72078233  0.03977681  1.0
  Ni  Ni24  1  0.75000000  0.05411567  0.03977681  1.0
  Ni  Ni25  1  0.75000000  0.38744900  0.03977681  1.0
  Ni  Ni26  1  0.75000000  0.72078233  0.03977681  1.0
  Ni  Ni27  1  0.08333333  0.22078233  0.10227681  1.0
  Ni  Ni28  1  0.08333333  0.55411567  0.10227681  1.0
  Ni  Ni29  1  0.08333333  0.88744900  0.10227681  1.0
  Ni  Ni30  1  0.41666667  0.22078233  0.10227681  1.0
  Ni  Ni31  1  0.41666667  0.55411567  0.10227681  1.0
  Ni  Ni32  1  0.41666667  0.88744900  0.10227681  1.0
  Ni  Ni33  1  0.75000000  0.22078233  0.10227681  1.0
  Ni  Ni34  1  0.75000000  0.55411567  0.10227681  1.0
  Ni  Ni35  1  0.75000000  0.88744900  0.10227681  1.0
  Ni  Ni36  1  0.25000000  0.02705783  0.04992350  1.0
  Ni  Ni37  1  0.25000000  0.36039117  0.04992350  1.0
  Ni  Ni38  1  0.25000000  0.69372450  0.04992350  1.0
  Ni  Ni39  1  0.58333333  0.02705783  0.04992350  1.0
  Ni  Ni40  1  0.58333333  0.36039117  0.04992350  1.0
  Ni  Ni41  1  0.58333333  0.69372450  0.04992350  1.0
  Ni  Ni42  1  0.91666667  0.02705783  0.04992350  1.0
  Ni  Ni43  1  0.91666667  0.36039117  0.04992350  1.0
  Ni  Ni44  1  0.91666667  0.69372450  0.04992350  1.0
  Ni  Ni45  1  0.25000000  0.19372450  0.11242350  1.0
  Ni  Ni46  1  0.25000000  0.52705783  0.11242350  1.0
  Ni  Ni47  1  0.25000000  0.86039117  0.11242350  1.0
  Ni  Ni48  1  0.58333333  0.19372450  0.11242350  1.0
  Ni  Ni49  1  0.58333333  0.52705783  0.11242350  1.0
  Ni  Ni50  1  0.58333333  0.86039117  0.11242350  1.0
  Ni  Ni51  1  0.91666667  0.19372450  0.11242350  1.0
  Ni  Ni52  1  0.91666667  0.52705783  0.11242350  1.0
  Ni  Ni53  1  0.91666667  0.86039117  0.11242350  1.0
  Ni  Ni54  1  0.25000000  0.02705783  0.11404337  1.0
  Ni  Ni55  1  0.25000000  0.36039117  0.11404338  1.0
  Ni  Ni56  1  0.25000000  0.69372450  0.11404338  1.0
  Ni  Ni57  1  0.58333333  0.02705783  0.11404338  1.0
  Ni  Ni58  1  0.58333333  0.36039117  0.11404338  1.0
  Ni  Ni59  1  0.58333333  0.69372450  0.11404338  1.0
  Ni  Ni60  1  0.91666667  0.02705783  0.11404337  1.0
  Ni  Ni61  1  0.91666667  0.36039117  0.11404338  1.0
  Ni  Ni62  1  0.91666667  0.69372450  0.11404338  1.0
  Ni  Ni63  1  0.25000000  0.19372450  0.05154337  1.0
  Ni  Ni64  1  0.25000000  0.52705783  0.05154338  1.0
  Ni  Ni65  1  0.25000000  0.86039117  0.05154338  1.0
  Ni  Ni66  1  0.58333333  0.19372450  0.05154337  1.0
  Ni  Ni67  1  0.58333333  0.52705783  0.05154338  1.0
  Ni  Ni68  1  0.58333333  0.86039117  0.05154338  1.0
  Ni  Ni69  1  0.91666667  0.19372450  0.05154337  1.0
  Ni  Ni70  1  0.91666667  0.52705783  0.05154338  1.0
  Ni  Ni71  1  0.91666667  0.86039117  0.05154338  1.0
  Ni  Ni72  1  0.25000000  0.11255100  0.02110331  1.0
  Ni  Ni73  1  0.25000000  0.44588433  0.02110331  1.0
  Ni  Ni74  1  0.25000000  0.77921767  0.02110331  1.0
  Ni  Ni75  1  0.58333333  0.11255100  0.02110331  1.0
  Ni  Ni76  1  0.58333333  0.44588433  0.02110331  1.0
  Ni  Ni77  1  0.58333333  0.77921767  0.02110331  1.0
  Ni  Ni78  1  0.91666667  0.11255100  0.02110331  1.0
  Ni  Ni79  1  0.91666667  0.44588433  0.02110331  1.0
  Ni  Ni80  1  0.91666667  0.77921767  0.02110331  1.0
  Ni  Ni81  1  0.25000000  0.27921767  0.08360331  1.0
  Ni  Ni82  1  0.25000000  0.61255100  0.08360331  1.0
  Ni  Ni83  1  0.25000000  0.94588433  0.08360331  1.0
  Ni  Ni84  1  0.58333333  0.27921767  0.08360331  1.0
  Ni  Ni85  1  0.58333333  0.61255100  0.08360331  1.0
  Ni  Ni86  1  0.58333333  0.94588433  0.08360331  1.0
  Ni  Ni87  1  0.91666667  0.27921767  0.08360331  1.0
  Ni  Ni88  1  0.91666667  0.61255100  0.08360331  1.0
  Ni  Ni89  1  0.91666667  0.94588433  0.08360331  1.0
  Ni  Ni90  1  0.08333333  0.13960883  0.01095662  1.0
  Ni  Ni91  1  0.08333333  0.47294217  0.01095662  1.0
  Ni  Ni92  1  0.08333333  0.80627550  0.01095663  1.0
  Ni  Ni93  1  0.41666667  0.13960883  0.01095662  1.0
  Ni  Ni94  1  0.41666667  0.47294217  0.01095662  1.0
  Ni  Ni95  1  0.41666667  0.80627550  0.01095663  1.0
  Ni  Ni96  1  0.75000000  0.13960883  0.01095662  1.0
  Ni  Ni97  1  0.75000000  0.47294217  0.01095662  1.0
  Ni  Ni98  1  0.75000000  0.80627550  0.01095663  1.0
  Ni  Ni99  1  0.08333333  0.30627550  0.07345662  1.0
  Ni  Ni100  1  0.08333333  0.63960883  0.07345663  1.0
  Ni  Ni101  1  0.08333333  0.97294217  0.07345662  1.0
  Ni  Ni102  1  0.41666667  0.30627550  0.07345662  1.0
  Ni  Ni103  1  0.41666667  0.63960883  0.07345663  1.0
  Ni  Ni104  1  0.41666667  0.97294217  0.07345662  1.0
  Ni  Ni105  1  0.75000000  0.30627550  0.07345662  1.0
  Ni  Ni106  1  0.75000000  0.63960883  0.07345663  1.0
  Ni  Ni107  1  0.75000000  0.97294217  0.07345662  1.0
  Sb  Sb108  1  0.25000000  0.11111111  0.08252340  1.0
  Sb  Sb109  1  0.25000000  0.44444444  0.08252340  1.0
  Sb  Sb110  1  0.25000000  0.77777778  0.08252340  1.0
  Sb  Sb111  1  0.58333333  0.11111111  0.08252340  1.0
  Sb  Sb112  1  0.58333333  0.44444444  0.08252340  1.0
  Sb  Sb113  1  0.58333333  0.77777778  0.08252340  1.0
  Sb  Sb114  1  0.91666667  0.11111111  0.08252340  1.0
  Sb  Sb115  1  0.91666667  0.44444444  0.08252340  1.0
  Sb  Sb116  1  0.91666667  0.77777778  0.08252340  1.0
  Sb  Sb117  1  0.25000000  0.27777778  0.02002340  1.0
  Sb  Sb118  1  0.25000000  0.61111111  0.02002340  1.0
  Sb  Sb119  1  0.25000000  0.94444444  0.02002340  1.0
  Sb  Sb120  1  0.58333333  0.27777778  0.02002340  1.0
  Sb  Sb121  1  0.58333333  0.61111111  0.02002340  1.0
  Sb  Sb122  1  0.58333333  0.94444444  0.02002340  1.0
  Sb  Sb123  1  0.91666667  0.27777778  0.02002340  1.0
  Sb  Sb124  1  0.91666667  0.61111111  0.02002340  1.0
  Sb  Sb125  1  0.91666667  0.94444444  0.02002340  1.0
  Sb  Sb126  1  0.08333333  0.05555556  0.10335673  1.0
  Sb  Sb127  1  0.08333333  0.38888889  0.10335673  1.0
  Sb  Sb128  1  0.08333333  0.72222222  0.10335673  1.0
  Sb  Sb129  1  0.41666667  0.05555556  0.10335673  1.0
  Sb  Sb130  1  0.41666667  0.38888889  0.10335673  1.0
  Sb  Sb131  1  0.41666667  0.72222222  0.10335673  1.0
  Sb  Sb132  1  0.75000000  0.05555556  0.10335673  1.0
  Sb  Sb133  1  0.75000000  0.38888889  0.10335673  1.0
  Sb  Sb134  1  0.75000000  0.72222222  0.10335673  1.0
  Sb  Sb135  1  0.08333333  0.22222222  0.04085673  1.0
  Sb  Sb136  1  0.08333333  0.55555556  0.04085673  1.0
  Sb  Sb137  1  0.08333333  0.88888889  0.04085673  1.0
  Sb  Sb138  1  0.41666667  0.22222222  0.04085673  1.0
  Sb  Sb139  1  0.41666667  0.55555556  0.04085673  1.0
  Sb  Sb140  1  0.41666667  0.88888889  0.04085673  1.0
  Sb  Sb141  1  0.75000000  0.22222222  0.04085673  1.0
  Sb  Sb142  1  0.75000000  0.55555556  0.04085673  1.0
  Sb  Sb143  1  0.75000000  0.88888889  0.04085673  1.0
  Ni  Ni144  1  0.08333333  0.13960883  0.19683675  1.0
  Ni  Ni145  1  0.08333333  0.47294217  0.19683675  1.0
  Ni  Ni146  1  0.08333333  0.80627550  0.19683675  1.0
  Ni  Ni147  1  0.41666667  0.13960883  0.19683675  1.0
  Ni  Ni148  1  0.41666667  0.47294217  0.19683675  1.0
  Ni  Ni149  1  0.41666667  0.80627550  0.19683675  1.0
  Ni  Ni150  1  0.75000000  0.13960883  0.19683675  1.0
  Ni  Ni151  1  0.75000000  0.47294217  0.19683675  1.0
  Ni  Ni152  1  0.75000000  0.80627550  0.19683675  1.0
  Ni  Ni153  1  0.08333333  0.30627550  0.13433675  1.0
  Ni  Ni154  1  0.08333333  0.63960883  0.13433675  1.0
  Ni  Ni155  1  0.08333333  0.97294217  0.13433675  1.0
  Ni  Ni156  1  0.41666667  0.30627550  0.13433675  1.0
  Ni  Ni157  1  0.41666667  0.63960883  0.13433675  1.0
  Ni  Ni158  1  0.41666667  0.97294217  0.13433675  1.0
  Ni  Ni159  1  0.75000000  0.30627550  0.13433675  1.0
  Ni  Ni160  1  0.75000000  0.63960883  0.13433675  1.0
  Ni  Ni161  1  0.75000000  0.97294217  0.13433675  1.0
  Ni  Ni162  1  0.08333333  0.05411567  0.16477681  1.0
  Ni  Ni163  1  0.08333333  0.38744900  0.16477681  1.0
  Ni  Ni164  1  0.08333333  0.72078233  0.16477681  1.0
  Ni  Ni165  1  0.41666667  0.05411567  0.16477681  1.0
  Ni  Ni166  1  0.41666667  0.38744900  0.16477681  1.0
  Ni  Ni167  1  0.41666667  0.72078233  0.16477681  1.0
  Ni  Ni168  1  0.75000000  0.05411567  0.16477681  1.0
  Ni  Ni169  1  0.75000000  0.38744900  0.16477681  1.0
  Ni  Ni170  1  0.75000000  0.72078233  0.16477681  1.0
  Ni  Ni171  1  0.08333333  0.22078233  0.22727681  1.0
  Ni  Ni172  1  0.08333333  0.55411567  0.22727681  1.0
  Ni  Ni173  1  0.08333333  0.88744900  0.22727681  1.0
  Ni  Ni174  1  0.41666667  0.22078233  0.22727681  1.0
  Ni  Ni175  1  0.41666667  0.55411567  0.22727681  1.0
  Ni  Ni176  1  0.41666667  0.88744900  0.22727681  1.0
  Ni  Ni177  1  0.75000000  0.22078233  0.22727681  1.0
  Ni  Ni178  1  0.75000000  0.55411567  0.22727681  1.0
  Ni  Ni179  1  0.75000000  0.88744900  0.22727681  1.0
  Ni  Ni180  1  0.25000000  0.02705783  0.17492350  1.0
  Ni  Ni181  1  0.25000000  0.36039117  0.17492350  1.0
  Ni  Ni182  1  0.25000000  0.69372450  0.17492350  1.0
  Ni  Ni183  1  0.58333333  0.02705783  0.17492350  1.0
  Ni  Ni184  1  0.58333333  0.36039117  0.17492350  1.0
  Ni  Ni185  1  0.58333333  0.69372450  0.17492350  1.0
  Ni  Ni186  1  0.91666667  0.02705783  0.17492350  1.0
  Ni  Ni187  1  0.91666667  0.36039117  0.17492350  1.0
  Ni  Ni188  1  0.91666667  0.69372450  0.17492350  1.0
  Ni  Ni189  1  0.25000000  0.19372450  0.23742350  1.0
  Ni  Ni190  1  0.25000000  0.52705783  0.23742350  1.0
  Ni  Ni191  1  0.25000000  0.86039117  0.23742350  1.0
  Ni  Ni192  1  0.58333333  0.19372450  0.23742350  1.0
  Ni  Ni193  1  0.58333333  0.52705783  0.23742350  1.0
  Ni  Ni194  1  0.58333333  0.86039117  0.23742350  1.0
  Ni  Ni195  1  0.91666667  0.19372450  0.23742350  1.0
  Ni  Ni196  1  0.91666667  0.52705783  0.23742350  1.0
  Ni  Ni197  1  0.91666667  0.86039117  0.23742350  1.0
  Ni  Ni198  1  0.25000000  0.02705783  0.23904338  1.0
  Ni  Ni199  1  0.25000000  0.36039117  0.23904338  1.0
  Ni  Ni200  1  0.25000000  0.69372450  0.23904338  1.0
  Ni  Ni201  1  0.58333333  0.02705783  0.23904338  1.0
  Ni  Ni202  1  0.58333333  0.36039117  0.23904338  1.0
  Ni  Ni203  1  0.58333333  0.69372450  0.23904338  1.0
  Ni  Ni204  1  0.91666667  0.02705783  0.23904338  1.0
  Ni  Ni205  1  0.91666667  0.36039117  0.23904338  1.0
  Ni  Ni206  1  0.91666667  0.69372450  0.23904338  1.0
  Ni  Ni207  1  0.25000000  0.19372450  0.17654338  1.0
  Ni  Ni208  1  0.25000000  0.52705783  0.17654338  1.0
  Ni  Ni209  1  0.25000000  0.86039117  0.17654338  1.0
  Ni  Ni210  1  0.58333333  0.19372450  0.17654338  1.0
  Ni  Ni211  1  0.58333333  0.52705783  0.17654338  1.0
  Ni  Ni212  1  0.58333333  0.86039117  0.17654338  1.0
  Ni  Ni213  1  0.91666667  0.19372450  0.17654337  1.0
  Ni  Ni214  1  0.91666667  0.52705783  0.17654338  1.0
  Ni  Ni215  1  0.91666667  0.86039117  0.17654338  1.0
  Ni  Ni216  1  0.25000000  0.11255100  0.14610331  1.0
  Ni  Ni217  1  0.25000000  0.44588433  0.14610331  1.0
  Ni  Ni218  1  0.25000000  0.77921767  0.14610331  1.0
  Ni  Ni219  1  0.58333333  0.11255100  0.14610331  1.0
  Ni  Ni220  1  0.58333333  0.44588433  0.14610331  1.0
  Ni  Ni221  1  0.58333333  0.77921767  0.14610331  1.0
  Ni  Ni222  1  0.91666667  0.11255100  0.14610331  1.0
  Ni  Ni223  1  0.91666667  0.44588433  0.14610331  1.0
  Ni  Ni224  1  0.91666667  0.77921767  0.14610331  1.0
  Ni  Ni225  1  0.25000000  0.27921767  0.20860331  1.0
  Ni  Ni226  1  0.25000000  0.61255100  0.20860331  1.0
  Ni  Ni227  1  0.25000000  0.94588433  0.20860331  1.0
  Ni  Ni228  1  0.58333333  0.27921767  0.20860331  1.0
  Ni  Ni229  1  0.58333333  0.61255100  0.20860331  1.0
  Ni  Ni230  1  0.58333333  0.94588433  0.20860331  1.0
  Ni  Ni231  1  0.91666667  0.27921767  0.20860331  1.0
  Ni  Ni232  1  0.91666667  0.61255100  0.20860331  1.0
  Ni  Ni233  1  0.91666667  0.94588433  0.20860331  1.0
  Ni  Ni234  1  0.08333333  0.13960883  0.13595662  1.0
  Ni  Ni235  1  0.08333333  0.47294217  0.13595663  1.0
  Ni  Ni236  1  0.08333333  0.80627550  0.13595662  1.0
  Ni  Ni237  1  0.41666667  0.13960883  0.13595662  1.0
  Ni  Ni238  1  0.41666667  0.47294217  0.13595663  1.0
  Ni  Ni239  1  0.41666667  0.80627550  0.13595662  1.0
  Ni  Ni240  1  0.75000000  0.13960883  0.13595662  1.0
  Ni  Ni241  1  0.75000000  0.47294217  0.13595663  1.0
  Ni  Ni242  1  0.75000000  0.80627550  0.13595662  1.0
  Ni  Ni243  1  0.08333333  0.30627550  0.19845662  1.0
  Ni  Ni244  1  0.08333333  0.63960883  0.19845662  1.0
  Ni  Ni245  1  0.08333333  0.97294217  0.19845662  1.0
  Ni  Ni246  1  0.41666667  0.30627550  0.19845662  1.0
  Ni  Ni247  1  0.41666667  0.63960883  0.19845662  1.0
  Ni  Ni248  1  0.41666667  0.97294217  0.19845662  1.0
  Ni  Ni249  1  0.75000000  0.30627550  0.19845662  1.0
  Ni  Ni250  1  0.75000000  0.63960883  0.19845662  1.0
  Ni  Ni251  1  0.75000000  0.97294217  0.19845662  1.0
  Sb  Sb252  1  0.25000000  0.11111111  0.20752340  1.0
  Sb  Sb253  1  0.25000000  0.44444444  0.20752340  1.0
  Sb  Sb254  1  0.25000000  0.77777778  0.20752340  1.0
  Sb  Sb255  1  0.58333333  0.11111111  0.20752340  1.0
  Sb  Sb256  1  0.58333333  0.44444444  0.20752340  1.0
  Sb  Sb257  1  0.58333333  0.77777778  0.20752340  1.0
  Sb  Sb258  1  0.91666667  0.11111111  0.20752340  1.0
  Sb  Sb259  1  0.91666667  0.44444444  0.20752340  1.0
  Sb  Sb260  1  0.91666667  0.77777778  0.20752340  1.0
  Sb  Sb261  1  0.25000000  0.27777778  0.14502340  1.0
  Sb  Sb262  1  0.25000000  0.61111111  0.14502340  1.0
  Sb  Sb263  1  0.25000000  0.94444444  0.14502340  1.0
  Sb  Sb264  1  0.58333333  0.27777778  0.14502340  1.0
  Sb  Sb265  1  0.58333333  0.61111111  0.14502340  1.0
  Sb  Sb266  1  0.58333333  0.94444444  0.14502340  1.0
  Sb  Sb267  1  0.91666667  0.27777778  0.14502340  1.0
  Sb  Sb268  1  0.91666667  0.61111111  0.14502340  1.0
  Sb  Sb269  1  0.91666667  0.94444444  0.14502340  1.0
  Sb  Sb270  1  0.08333333  0.05555556  0.22835673  1.0
  Sb  Sb271  1  0.08333333  0.38888889  0.22835673  1.0
  Sb  Sb272  1  0.08333333  0.72222222  0.22835673  1.0
  Sb  Sb273  1  0.41666667  0.05555556  0.22835673  1.0
  Sb  Sb274  1  0.41666667  0.38888889  0.22835673  1.0
  Sb  Sb275  1  0.41666667  0.72222222  0.22835673  1.0
  Sb  Sb276  1  0.75000000  0.05555556  0.22835673  1.0
  Sb  Sb277  1  0.75000000  0.38888889  0.22835673  1.0
  Sb  Sb278  1  0.75000000  0.72222222  0.22835673  1.0
  Sb  Sb279  1  0.08333333  0.22222222  0.16585673  1.0
  Sb  Sb280  1  0.08333333  0.55555556  0.16585673  1.0
  Sb  Sb281  1  0.08333333  0.88888889  0.16585673  1.0
  Sb  Sb282  1  0.41666667  0.22222222  0.16585673  1.0
  Sb  Sb283  1  0.41666667  0.55555556  0.16585673  1.0
  Sb  Sb284  1  0.41666667  0.88888889  0.16585673  1.0
  Sb  Sb285  1  0.75000000  0.22222222  0.16585673  1.0
  Sb  Sb286  1  0.75000000  0.55555556  0.16585673  1.0
  Sb  Sb287  1  0.75000000  0.88888889  0.16585673  1.0
  Ni  Ni288  1  0.08333333  0.13960883  0.32183675  1.0
  Ni  Ni289  1  0.08333333  0.47294217  0.32183675  1.0
  Ni  Ni290  1  0.08333333  0.80627550  0.32183675  1.0
  Ni  Ni291  1  0.41666667  0.13960883  0.32183675  1.0
  Ni  Ni292  1  0.41666667  0.47294217  0.32183675  1.0
  Ni  Ni293  1  0.41666667  0.80627550  0.32183675  1.0
  Ni  Ni294  1  0.75000000  0.13960883  0.32183675  1.0
  Ni  Ni295  1  0.75000000  0.47294217  0.32183675  1.0
  Ni  Ni296  1  0.75000000  0.80627550  0.32183675  1.0
  Ni  Ni297  1  0.08333333  0.30627550  0.25933675  1.0
  Ni  Ni298  1  0.08333333  0.63960883  0.25933675  1.0
  Ni  Ni299  1  0.08333333  0.97294217  0.25933675  1.0
  Ni  Ni300  1  0.41666667  0.30627550  0.25933675  1.0
  Ni  Ni301  1  0.41666667  0.63960883  0.25933675  1.0
  Ni  Ni302  1  0.41666667  0.97294217  0.25933675  1.0
  Ni  Ni303  1  0.75000000  0.30627550  0.25933675  1.0
  Ni  Ni304  1  0.75000000  0.63960883  0.25933675  1.0
  Ni  Ni305  1  0.75000000  0.97294217  0.25933675  1.0
  Ni  Ni306  1  0.08333333  0.05411567  0.28977681  1.0
  Ni  Ni307  1  0.08333333  0.38744900  0.28977681  1.0
  Ni  Ni308  1  0.08333333  0.72078233  0.28977681  1.0
  Ni  Ni309  1  0.41666667  0.05411567  0.28977681  1.0
  Ni  Ni310  1  0.41666667  0.38744900  0.28977681  1.0
  Ni  Ni311  1  0.41666667  0.72078233  0.28977681  1.0
  Ni  Ni312  1  0.75000000  0.05411567  0.28977681  1.0
  Ni  Ni313  1  0.75000000  0.38744900  0.28977681  1.0
  Ni  Ni314  1  0.75000000  0.72078233  0.28977681  1.0
  Ni  Ni315  1  0.08333333  0.22078233  0.35227681  1.0
  Ni  Ni316  1  0.08333333  0.55411567  0.35227681  1.0
  Ni  Ni317  1  0.08333333  0.88744900  0.35227681  1.0
  Ni  Ni318  1  0.41666667  0.22078233  0.35227681  1.0
  Ni  Ni319  1  0.41666667  0.55411567  0.35227681  1.0
  Ni  Ni320  1  0.41666667  0.88744900  0.35227681  1.0
  Ni  Ni321  1  0.75000000  0.22078233  0.35227681  1.0
  Ni  Ni322  1  0.75000000  0.55411567  0.35227681  1.0
  Ni  Ni323  1  0.75000000  0.88744900  0.35227681  1.0
  Ni  Ni324  1  0.25000000  0.02705783  0.29992350  1.0
  Ni  Ni325  1  0.25000000  0.36039117  0.29992350  1.0
  Ni  Ni326  1  0.25000000  0.69372450  0.29992350  1.0
  Ni  Ni327  1  0.58333333  0.02705783  0.29992350  1.0
  Ni  Ni328  1  0.58333333  0.36039117  0.29992350  1.0
  Ni  Ni329  1  0.58333333  0.69372450  0.29992350  1.0
  Ni  Ni330  1  0.91666667  0.02705783  0.29992350  1.0
  Ni  Ni331  1  0.91666667  0.36039117  0.29992350  1.0
  Ni  Ni332  1  0.91666667  0.69372450  0.29992350  1.0
  Ni  Ni333  1  0.25000000  0.19372450  0.36242350  1.0
  Ni  Ni334  1  0.25000000  0.52705783  0.36242350  1.0
  Ni  Ni335  1  0.25000000  0.86039117  0.36242350  1.0
  Ni  Ni336  1  0.58333333  0.19372450  0.36242350  1.0
  Ni  Ni337  1  0.58333333  0.52705783  0.36242350  1.0
  Ni  Ni338  1  0.58333333  0.86039117  0.36242350  1.0
  Ni  Ni339  1  0.91666667  0.19372450  0.36242350  1.0
  Ni  Ni340  1  0.91666667  0.52705783  0.36242350  1.0
  Ni  Ni341  1  0.91666667  0.86039117  0.36242350  1.0
  Ni  Ni342  1  0.25000000  0.02705783  0.36404338  1.0
  Ni  Ni343  1  0.25000000  0.36039117  0.36404338  1.0
  Ni  Ni344  1  0.25000000  0.69372450  0.36404338  1.0
  Ni  Ni345  1  0.58333333  0.02705783  0.36404338  1.0
  Ni  Ni346  1  0.58333333  0.36039117  0.36404338  1.0
  Ni  Ni347  1  0.58333333  0.69372450  0.36404338  1.0
  Ni  Ni348  1  0.91666667  0.02705783  0.36404338  1.0
  Ni  Ni349  1  0.91666667  0.36039117  0.36404338  1.0
  Ni  Ni350  1  0.91666667  0.69372450  0.36404338  1.0
  Ni  Ni351  1  0.25000000  0.19372450  0.30154338  1.0
  Ni  Ni352  1  0.25000000  0.52705783  0.30154338  1.0
  Ni  Ni353  1  0.25000000  0.86039117  0.30154338  1.0
  Ni  Ni354  1  0.58333333  0.19372450  0.30154338  1.0
  Ni  Ni355  1  0.58333333  0.52705783  0.30154338  1.0
  Ni  Ni356  1  0.58333333  0.86039117  0.30154338  1.0
  Ni  Ni357  1  0.91666667  0.19372450  0.30154337  1.0
  Ni  Ni358  1  0.91666667  0.52705783  0.30154338  1.0
  Ni  Ni359  1  0.91666667  0.86039117  0.30154338  1.0
  Ni  Ni360  1  0.25000000  0.11255100  0.27110331  1.0
  Ni  Ni361  1  0.25000000  0.44588433  0.27110331  1.0
  Ni  Ni362  1  0.25000000  0.77921767  0.27110331  1.0
  Ni  Ni363  1  0.58333333  0.11255100  0.27110331  1.0
  Ni  Ni364  1  0.58333333  0.44588433  0.27110331  1.0
  Ni  Ni365  1  0.58333333  0.77921767  0.27110331  1.0
  Ni  Ni366  1  0.91666667  0.11255100  0.27110331  1.0
  Ni  Ni367  1  0.91666667  0.44588433  0.27110331  1.0
  Ni  Ni368  1  0.91666667  0.77921767  0.27110331  1.0
  Ni  Ni369  1  0.25000000  0.27921767  0.33360331  1.0
  Ni  Ni370  1  0.25000000  0.61255100  0.33360331  1.0
  Ni  Ni371  1  0.25000000  0.94588433  0.33360331  1.0
  Ni  Ni372  1  0.58333333  0.27921767  0.33360331  1.0
  Ni  Ni373  1  0.58333333  0.61255100  0.33360331  1.0
  Ni  Ni374  1  0.58333333  0.94588433  0.33360331  1.0
  Ni  Ni375  1  0.91666667  0.27921767  0.33360331  1.0
  Ni  Ni376  1  0.91666667  0.61255100  0.33360331  1.0
  Ni  Ni377  1  0.91666667  0.94588433  0.33360331  1.0
  Ni  Ni378  1  0.08333333  0.13960883  0.26095662  1.0
  Ni  Ni379  1  0.08333333  0.47294217  0.26095663  1.0
  Ni  Ni380  1  0.08333333  0.80627550  0.26095663  1.0
  Ni  Ni381  1  0.41666667  0.13960883  0.26095662  1.0
  Ni  Ni382  1  0.41666667  0.47294217  0.26095663  1.0
  Ni  Ni383  1  0.41666667  0.80627550  0.26095663  1.0
  Ni  Ni384  1  0.75000000  0.13960883  0.26095662  1.0
  Ni  Ni385  1  0.75000000  0.47294217  0.26095663  1.0
  Ni  Ni386  1  0.75000000  0.80627550  0.26095663  1.0
  Ni  Ni387  1  0.08333333  0.30627550  0.32345662  1.0
  Ni  Ni388  1  0.08333333  0.63960883  0.32345662  1.0
  Ni  Ni389  1  0.08333333  0.97294217  0.32345663  1.0
  Ni  Ni390  1  0.41666667  0.30627550  0.32345662  1.0
  Ni  Ni391  1  0.41666667  0.63960883  0.32345662  1.0
  Ni  Ni392  1  0.41666667  0.97294217  0.32345663  1.0
  Ni  Ni393  1  0.75000000  0.30627550  0.32345662  1.0
  Ni  Ni394  1  0.75000000  0.63960883  0.32345662  1.0
  Ni  Ni395  1  0.75000000  0.97294217  0.32345663  1.0
  Sb  Sb396  1  0.25000000  0.11111111  0.33252340  1.0
  Sb  Sb397  1  0.25000000  0.44444444  0.33252340  1.0
  Sb  Sb398  1  0.25000000  0.77777778  0.33252340  1.0
  Sb  Sb399  1  0.58333333  0.11111111  0.33252340  1.0
  Sb  Sb400  1  0.58333333  0.44444444  0.33252340  1.0
  Sb  Sb401  1  0.58333333  0.77777778  0.33252340  1.0
  Sb  Sb402  1  0.91666667  0.11111111  0.33252340  1.0
  Sb  Sb403  1  0.91666667  0.44444444  0.33252340  1.0
  Sb  Sb404  1  0.91666667  0.77777778  0.33252340  1.0
  Sb  Sb405  1  0.25000000  0.27777778  0.27002340  1.0
  Sb  Sb406  1  0.25000000  0.61111111  0.27002340  1.0
  Sb  Sb407  1  0.25000000  0.94444444  0.27002340  1.0
  Sb  Sb408  1  0.58333333  0.27777778  0.27002340  1.0
  Sb  Sb409  1  0.58333333  0.61111111  0.27002340  1.0
  Sb  Sb410  1  0.58333333  0.94444444  0.27002340  1.0
  Sb  Sb411  1  0.91666667  0.27777778  0.27002340  1.0
  Sb  Sb412  1  0.91666667  0.61111111  0.27002340  1.0
  Sb  Sb413  1  0.91666667  0.94444444  0.27002340  1.0
  Sb  Sb414  1  0.08333333  0.05555556  0.35335673  1.0
  Sb  Sb415  1  0.08333333  0.38888889  0.35335673  1.0
  Sb  Sb416  1  0.08333333  0.72222222  0.35335673  1.0
  Sb  Sb417  1  0.41666667  0.05555556  0.35335673  1.0
  Sb  Sb418  1  0.41666667  0.38888889  0.35335673  1.0
  Sb  Sb419  1  0.41666667  0.72222222  0.35335673  1.0
  Sb  Sb420  1  0.75000000  0.05555556  0.35335673  1.0
  Sb  Sb421  1  0.75000000  0.38888889  0.35335673  1.0
  Sb  Sb422  1  0.75000000  0.72222222  0.35335673  1.0
  Sb  Sb423  1  0.08333333  0.22222222  0.29085673  1.0
  Sb  Sb424  1  0.08333333  0.55555556  0.29085673  1.0
  Sb  Sb425  1  0.08333333  0.88888889  0.29085673  1.0
  Sb  Sb426  1  0.41666667  0.22222222  0.29085673  1.0
  Sb  Sb427  1  0.41666667  0.55555556  0.29085673  1.0
  Sb  Sb428  1  0.41666667  0.88888889  0.29085673  1.0
  Sb  Sb429  1  0.75000000  0.22222222  0.29085673  1.0
  Sb  Sb430  1  0.75000000  0.55555556  0.29085673  1.0
  Sb  Sb431  1  0.75000000  0.88888889  0.29085673  1.0
