# generated using pymatgen
data_Ni3Sb
_symmetry_space_group_name_H-M   'P 1'
_cell_length_a   20.98069333
_cell_length_b   24.56332906
_cell_length_c   29.12576765
_cell_angle_alpha   92.63381314
_cell_angle_beta   94.41068209
_cell_angle_gamma   97.86179647
_symmetry_Int_Tables_number   1
_chemical_formula_structural   Ni3Sb
_chemical_formula_sum   'Ni324 Sb108'
_cell_volume   14800.75911680
_cell_formula_units_Z   108
loop_
 _symmetry_equiv_pos_site_id
 _symmetry_equiv_pos_as_xyz
  1  'x, y, z'
loop_
 _atom_site_type_symbol
 _atom_site_label
 _atom_site_symmetry_multiplicity
 _atom_site_fract_x
 _atom_site_fract_y
 _atom_site_fract_z
 _atom_site_occupancy
  Ni  Ni0  1  0.01330967  0.24460096  0.02811956  1.0
  Ni  Ni1  1  0.01330967  0.57793429  0.02811956  1.0
  Ni  Ni2  1  0.01330967  0.91126762  0.02811956  1.0
  Ni  Ni3  1  0.34664300  0.24460096  0.02811956  1.0
  Ni  Ni4  1  0.34664300  0.57793429  0.02811956  1.0
  Ni  Ni5  1  0.34664300  0.91126762  0.02811956  1.0
  Ni  Ni6  1  0.67997633  0.24460096  0.02811956  1.0
  Ni  Ni7  1  0.67997633  0.57793429  0.02811956  1.0
  Ni  Ni8  1  0.67997633  0.91126762  0.02811956  1.0
  Ni  Ni9  1  0.17997633  0.03626763  0.09061956  1.0
  Ni  Ni10  1  0.17997633  0.36960096  0.09061956  1.0
  Ni  Ni11  1  0.17997633  0.70293429  0.09061956  1.0
  Ni  Ni12  1  0.51330967  0.03626763  0.09061956  1.0
  Ni  Ni13  1  0.51330967  0.36960096  0.09061956  1.0
  Ni  Ni14  1  0.51330967  0.70293429  0.09061956  1.0
  Ni  Ni15  1  0.84664300  0.03626763  0.09061956  1.0
  Ni  Ni16  1  0.84664300  0.36960096  0.09061956  1.0
  Ni  Ni17  1  0.84664300  0.70293429  0.09061956  1.0
  Ni  Ni18  1  0.09668067  0.09873937  0.12185544  1.0
  Ni  Ni19  1  0.09668067  0.43207271  0.12185544  1.0
  Ni  Ni20  1  0.09668067  0.76540604  0.12185544  1.0
  Ni  Ni21  1  0.43001400  0.09873937  0.12185544  1.0
  Ni  Ni22  1  0.43001400  0.43207271  0.12185544  1.0
  Ni  Ni23  1  0.43001400  0.76540604  0.12185544  1.0
  Ni  Ni24  1  0.76334733  0.09873937  0.12185544  1.0
  Ni  Ni25  1  0.76334733  0.43207271  0.12185544  1.0
  Ni  Ni26  1  0.76334733  0.76540604  0.12185544  1.0
  Ni  Ni27  1  0.26334733  0.30707271  0.05935544  1.0
  Ni  Ni28  1  0.26334733  0.64040604  0.05935544  1.0
  Ni  Ni29  1  0.26334733  0.97373937  0.05935544  1.0
  Ni  Ni30  1  0.59668067  0.30707271  0.05935544  1.0
  Ni  Ni31  1  0.59668067  0.64040604  0.05935544  1.0
  Ni  Ni32  1  0.59668067  0.97373937  0.05935544  1.0
  Ni  Ni33  1  0.93001400  0.30707271  0.05935544  1.0
  Ni  Ni34  1  0.93001400  0.64040604  0.05935544  1.0
  Ni  Ni35  1  0.93001400  0.97373937  0.05935544  1.0
  Ni  Ni36  1  0.23669033  0.12041329  0.04935906  1.0
  Ni  Ni37  1  0.23669033  0.45374663  0.04935906  1.0
  Ni  Ni38  1  0.23669033  0.78707996  0.04935906  1.0
  Ni  Ni39  1  0.57002367  0.12041329  0.04935906  1.0
  Ni  Ni40  1  0.57002367  0.45374663  0.04935906  1.0
  Ni  Ni41  1  0.57002367  0.78707996  0.04935906  1.0
  Ni  Ni42  1  0.90335700  0.12041329  0.04935906  1.0
  Ni  Ni43  1  0.90335700  0.45374663  0.04935906  1.0
  Ni  Ni44  1  0.90335700  0.78707996  0.04935906  1.0
  Ni  Ni45  1  0.07002367  0.24541329  0.11185906  1.0
  Ni  Ni46  1  0.07002367  0.57874663  0.11185906  1.0
  Ni  Ni47  1  0.07002367  0.91207996  0.11185906  1.0
  Ni  Ni48  1  0.40335700  0.24541329  0.11185906  1.0
  Ni  Ni49  1  0.40335700  0.57874663  0.11185906  1.0
  Ni  Ni50  1  0.40335700  0.91207996  0.11185906  1.0
  Ni  Ni51  1  0.73669033  0.24541329  0.11185906  1.0
  Ni  Ni52  1  0.73669033  0.57874663  0.11185906  1.0
  Ni  Ni53  1  0.73669033  0.91207996  0.11185906  1.0
  Ni  Ni54  1  0.31998600  0.05794154  0.01812319  1.0
  Ni  Ni55  1  0.31998600  0.39127487  0.01812319  1.0
  Ni  Ni56  1  0.31998600  0.72460821  0.01812319  1.0
  Ni  Ni57  1  0.65331933  0.05794154  0.01812319  1.0
  Ni  Ni58  1  0.65331933  0.39127487  0.01812319  1.0
  Ni  Ni59  1  0.65331933  0.72460821  0.01812319  1.0
  Ni  Ni60  1  0.98665267  0.05794154  0.01812319  1.0
  Ni  Ni61  1  0.98665267  0.39127487  0.01812319  1.0
  Ni  Ni62  1  0.98665267  0.72460821  0.01812319  1.0
  Ni  Ni63  1  0.15331933  0.18294154  0.08062319  1.0
  Ni  Ni64  1  0.15331933  0.51627488  0.08062319  1.0
  Ni  Ni65  1  0.15331933  0.84960821  0.08062319  1.0
  Ni  Ni66  1  0.48665267  0.18294154  0.08062319  1.0
  Ni  Ni67  1  0.48665267  0.51627488  0.08062319  1.0
  Ni  Ni68  1  0.48665267  0.84960821  0.08062319  1.0
  Ni  Ni69  1  0.81998600  0.18294154  0.08062319  1.0
  Ni  Ni70  1  0.81998600  0.51627488  0.08062319  1.0
  Ni  Ni71  1  0.81998600  0.84960821  0.08062319  1.0
  Ni  Ni72  1  0.03008067  0.15298429  0.06564456  1.0
  Ni  Ni73  1  0.03008067  0.48631762  0.06564456  1.0
  Ni  Ni74  1  0.03008067  0.81965096  0.06564456  1.0
  Ni  Ni75  1  0.36341400  0.15298429  0.06564456  1.0
  Ni  Ni76  1  0.36341400  0.48631762  0.06564456  1.0
  Ni  Ni77  1  0.36341400  0.81965096  0.06564456  1.0
  Ni  Ni78  1  0.69674733  0.15298429  0.06564456  1.0
  Ni  Ni79  1  0.69674733  0.48631762  0.06564456  1.0
  Ni  Ni80  1  0.69674733  0.81965096  0.06564456  1.0
  Ni  Ni81  1  0.19674733  0.02798429  0.00314456  1.0
  Ni  Ni82  1  0.19674733  0.36131762  0.00314456  1.0
  Ni  Ni83  1  0.19674733  0.69465096  0.00314456  1.0
  Ni  Ni84  1  0.53008067  0.02798429  0.00314456  1.0
  Ni  Ni85  1  0.53008067  0.36131762  0.00314456  1.0
  Ni  Ni86  1  0.53008067  0.69465096  0.00314456  1.0
  Ni  Ni87  1  0.86341400  0.02798429  0.00314456  1.0
  Ni  Ni88  1  0.86341400  0.36131762  0.00314456  1.0
  Ni  Ni89  1  0.86341400  0.69465096  0.00314456  1.0
  Ni  Ni90  1  0.05325267  0.00369662  0.07433406  1.0
  Ni  Ni91  1  0.05325267  0.33702996  0.07433406  1.0
  Ni  Ni92  1  0.05325267  0.67036329  0.07433406  1.0
  Ni  Ni93  1  0.38658600  0.00369662  0.07433406  1.0
  Ni  Ni94  1  0.38658600  0.33702996  0.07433406  1.0
  Ni  Ni95  1  0.38658600  0.67036329  0.07433406  1.0
  Ni  Ni96  1  0.71991933  0.00369662  0.07433406  1.0
  Ni  Ni97  1  0.71991933  0.33702996  0.07433406  1.0
  Ni  Ni98  1  0.71991933  0.67036329  0.07433406  1.0
  Ni  Ni99  1  0.21991933  0.21202996  0.01183406  1.0
  Ni  Ni100  1  0.21991933  0.54536329  0.01183406  1.0
  Ni  Ni101  1  0.21991933  0.87869663  0.01183406  1.0
  Ni  Ni102  1  0.55325267  0.21202996  0.01183406  1.0
  Ni  Ni103  1  0.55325267  0.54536329  0.01183406  1.0
  Ni  Ni104  1  0.55325267  0.87869663  0.01183406  1.0
  Ni  Ni105  1  0.88658600  0.21202996  0.01183406  1.0
  Ni  Ni106  1  0.88658600  0.54536329  0.01183406  1.0
  Ni  Ni107  1  0.88658600  0.87869663  0.01183406  1.0
  Ni  Ni108  1  0.01330967  0.16126762  0.15311956  1.0
  Ni  Ni109  1  0.01330967  0.49460096  0.15311956  1.0
  Ni  Ni110  1  0.01330967  0.82793429  0.15311956  1.0
  Ni  Ni111  1  0.34664300  0.16126762  0.15311956  1.0
  Ni  Ni112  1  0.34664300  0.49460096  0.15311956  1.0
  Ni  Ni113  1  0.34664300  0.82793429  0.15311956  1.0
  Ni  Ni114  1  0.67997633  0.16126762  0.15311956  1.0
  Ni  Ni115  1  0.67997633  0.49460096  0.15311956  1.0
  Ni  Ni116  1  0.67997633  0.82793429  0.15311956  1.0
  Ni  Ni117  1  0.17997633  0.28626763  0.21561956  1.0
  Ni  Ni118  1  0.17997633  0.61960096  0.21561956  1.0
  Ni  Ni119  1  0.17997633  0.95293429  0.21561956  1.0
  Ni  Ni120  1  0.51330967  0.28626763  0.21561956  1.0
  Ni  Ni121  1  0.51330967  0.61960096  0.21561956  1.0
  Ni  Ni122  1  0.51330967  0.95293429  0.21561956  1.0
  Ni  Ni123  1  0.84664300  0.28626763  0.21561956  1.0
  Ni  Ni124  1  0.84664300  0.61960096  0.21561956  1.0
  Ni  Ni125  1  0.84664300  0.95293429  0.21561956  1.0
  Ni  Ni126  1  0.09668067  0.01540604  0.24685544  1.0
  Ni  Ni127  1  0.09668067  0.34873937  0.24685544  1.0
  Ni  Ni128  1  0.09668067  0.68207271  0.24685544  1.0
  Ni  Ni129  1  0.43001400  0.01540604  0.24685544  1.0
  Ni  Ni130  1  0.43001400  0.34873937  0.24685544  1.0
  Ni  Ni131  1  0.43001400  0.68207271  0.24685544  1.0
  Ni  Ni132  1  0.76334733  0.01540604  0.24685544  1.0
  Ni  Ni133  1  0.76334733  0.34873937  0.24685544  1.0
  Ni  Ni134  1  0.76334733  0.68207271  0.24685544  1.0
  Ni  Ni135  1  0.26334733  0.22373937  0.18435544  1.0
  Ni  Ni136  1  0.26334733  0.55707271  0.18435544  1.0
  Ni  Ni137  1  0.26334733  0.89040604  0.18435544  1.0
  Ni  Ni138  1  0.59668067  0.22373937  0.18435544  1.0
  Ni  Ni139  1  0.59668067  0.55707271  0.18435544  1.0
  Ni  Ni140  1  0.59668067  0.89040604  0.18435544  1.0
  Ni  Ni141  1  0.93001400  0.22373937  0.18435544  1.0
  Ni  Ni142  1  0.93001400  0.55707271  0.18435544  1.0
  Ni  Ni143  1  0.93001400  0.89040604  0.18435544  1.0
  Ni  Ni144  1  0.23669033  0.03707996  0.17435906  1.0
  Ni  Ni145  1  0.23669033  0.37041329  0.17435906  1.0
  Ni  Ni146  1  0.23669033  0.70374663  0.17435906  1.0
  Ni  Ni147  1  0.57002367  0.03707996  0.17435906  1.0
  Ni  Ni148  1  0.57002367  0.37041329  0.17435906  1.0
  Ni  Ni149  1  0.57002367  0.70374663  0.17435906  1.0
  Ni  Ni150  1  0.90335700  0.03707996  0.17435906  1.0
  Ni  Ni151  1  0.90335700  0.37041329  0.17435906  1.0
  Ni  Ni152  1  0.90335700  0.70374663  0.17435906  1.0
  Ni  Ni153  1  0.07002367  0.16207996  0.23685906  1.0
  Ni  Ni154  1  0.07002367  0.49541329  0.23685906  1.0
  Ni  Ni155  1  0.07002367  0.82874663  0.23685906  1.0
  Ni  Ni156  1  0.40335700  0.16207996  0.23685906  1.0
  Ni  Ni157  1  0.40335700  0.49541329  0.23685906  1.0
  Ni  Ni158  1  0.40335700  0.82874663  0.23685906  1.0
  Ni  Ni159  1  0.73669033  0.16207996  0.23685906  1.0
  Ni  Ni160  1  0.73669033  0.49541329  0.23685906  1.0
  Ni  Ni161  1  0.73669033  0.82874663  0.23685906  1.0
  Ni  Ni162  1  0.31998600  0.30794154  0.14312319  1.0
  Ni  Ni163  1  0.31998600  0.64127488  0.14312319  1.0
  Ni  Ni164  1  0.31998600  0.97460821  0.14312319  1.0
  Ni  Ni165  1  0.65331933  0.30794154  0.14312319  1.0
  Ni  Ni166  1  0.65331933  0.64127488  0.14312319  1.0
  Ni  Ni167  1  0.65331933  0.97460821  0.14312319  1.0
  Ni  Ni168  1  0.98665267  0.30794154  0.14312319  1.0
  Ni  Ni169  1  0.98665267  0.64127488  0.14312319  1.0
  Ni  Ni170  1  0.98665267  0.97460821  0.14312319  1.0
  Ni  Ni171  1  0.15331933  0.09960821  0.20562319  1.0
  Ni  Ni172  1  0.15331933  0.43294154  0.20562319  1.0
  Ni  Ni173  1  0.15331933  0.76627487  0.20562319  1.0
  Ni  Ni174  1  0.48665267  0.09960821  0.20562319  1.0
  Ni  Ni175  1  0.48665267  0.43294154  0.20562319  1.0
  Ni  Ni176  1  0.48665267  0.76627487  0.20562319  1.0
  Ni  Ni177  1  0.81998600  0.09960821  0.20562319  1.0
  Ni  Ni178  1  0.81998600  0.43294154  0.20562319  1.0
  Ni  Ni179  1  0.81998600  0.76627487  0.20562319  1.0
  Ni  Ni180  1  0.03008067  0.06965096  0.19064456  1.0
  Ni  Ni181  1  0.03008067  0.40298429  0.19064456  1.0
  Ni  Ni182  1  0.03008067  0.73631762  0.19064456  1.0
  Ni  Ni183  1  0.36341400  0.06965096  0.19064456  1.0
  Ni  Ni184  1  0.36341400  0.40298429  0.19064456  1.0
  Ni  Ni185  1  0.36341400  0.73631762  0.19064456  1.0
  Ni  Ni186  1  0.69674733  0.06965096  0.19064456  1.0
  Ni  Ni187  1  0.69674733  0.40298429  0.19064456  1.0
  Ni  Ni188  1  0.69674733  0.73631762  0.19064456  1.0
  Ni  Ni189  1  0.19674733  0.27798429  0.12814456  1.0
  Ni  Ni190  1  0.19674733  0.61131762  0.12814456  1.0
  Ni  Ni191  1  0.19674733  0.94465096  0.12814456  1.0
  Ni  Ni192  1  0.53008067  0.27798429  0.12814456  1.0
  Ni  Ni193  1  0.53008067  0.61131762  0.12814456  1.0
  Ni  Ni194  1  0.53008067  0.94465096  0.12814456  1.0
  Ni  Ni195  1  0.86341400  0.27798429  0.12814456  1.0
  Ni  Ni196  1  0.86341400  0.61131762  0.12814456  1.0
  Ni  Ni197  1  0.86341400  0.94465096  0.12814456  1.0
  Ni  Ni198  1  0.05325267  0.25369663  0.19933406  1.0
  Ni  Ni199  1  0.05325267  0.58702996  0.19933406  1.0
  Ni  Ni200  1  0.05325267  0.92036329  0.19933406  1.0
  Ni  Ni201  1  0.38658600  0.25369663  0.19933406  1.0
  Ni  Ni202  1  0.38658600  0.58702996  0.19933406  1.0
  Ni  Ni203  1  0.38658600  0.92036329  0.19933406  1.0
  Ni  Ni204  1  0.71991933  0.25369663  0.19933406  1.0
  Ni  Ni205  1  0.71991933  0.58702996  0.19933406  1.0
  Ni  Ni206  1  0.71991933  0.92036329  0.19933406  1.0
  Ni  Ni207  1  0.21991933  0.12869663  0.13683406  1.0
  Ni  Ni208  1  0.21991933  0.46202996  0.13683406  1.0
  Ni  Ni209  1  0.21991933  0.79536329  0.13683406  1.0
  Ni  Ni210  1  0.55325267  0.12869663  0.13683406  1.0
  Ni  Ni211  1  0.55325267  0.46202996  0.13683406  1.0
  Ni  Ni212  1  0.55325267  0.79536329  0.13683406  1.0
  Ni  Ni213  1  0.88658600  0.12869663  0.13683406  1.0
  Ni  Ni214  1  0.88658600  0.46202996  0.13683406  1.0
  Ni  Ni215  1  0.88658600  0.79536329  0.13683406  1.0
  Ni  Ni216  1  0.01330967  0.07793429  0.27811956  1.0
  Ni  Ni217  1  0.01330967  0.41126762  0.27811956  1.0
  Ni  Ni218  1  0.01330967  0.74460096  0.27811956  1.0
  Ni  Ni219  1  0.34664300  0.07793429  0.27811956  1.0
  Ni  Ni220  1  0.34664300  0.41126762  0.27811956  1.0
  Ni  Ni221  1  0.34664300  0.74460096  0.27811956  1.0
  Ni  Ni222  1  0.67997633  0.07793429  0.27811956  1.0
  Ni  Ni223  1  0.67997633  0.41126762  0.27811956  1.0
  Ni  Ni224  1  0.67997633  0.74460096  0.27811956  1.0
  Ni  Ni225  1  0.17997633  0.20293429  0.34061956  1.0
  Ni  Ni226  1  0.17997633  0.53626763  0.34061956  1.0
  Ni  Ni227  1  0.17997633  0.86960096  0.34061956  1.0
  Ni  Ni228  1  0.51330967  0.20293429  0.34061956  1.0
  Ni  Ni229  1  0.51330967  0.53626763  0.34061956  1.0
  Ni  Ni230  1  0.51330967  0.86960096  0.34061956  1.0
  Ni  Ni231  1  0.84664300  0.20293429  0.34061956  1.0
  Ni  Ni232  1  0.84664300  0.53626763  0.34061956  1.0
  Ni  Ni233  1  0.84664300  0.86960096  0.34061956  1.0
  Ni  Ni234  1  0.09668067  0.26540604  0.37185544  1.0
  Ni  Ni235  1  0.09668067  0.59873937  0.37185544  1.0
  Ni  Ni236  1  0.09668067  0.93207271  0.37185544  1.0
  Ni  Ni237  1  0.43001400  0.26540604  0.37185544  1.0
  Ni  Ni238  1  0.43001400  0.59873937  0.37185544  1.0
  Ni  Ni239  1  0.43001400  0.93207271  0.37185544  1.0
  Ni  Ni240  1  0.76334733  0.26540604  0.37185544  1.0
  Ni  Ni241  1  0.76334733  0.59873937  0.37185544  1.0
  Ni  Ni242  1  0.76334733  0.93207271  0.37185544  1.0
  Ni  Ni243  1  0.26334733  0.14040604  0.30935544  1.0
  Ni  Ni244  1  0.26334733  0.47373938  0.30935544  1.0
  Ni  Ni245  1  0.26334733  0.80707271  0.30935544  1.0
  Ni  Ni246  1  0.59668067  0.14040604  0.30935544  1.0
  Ni  Ni247  1  0.59668067  0.47373938  0.30935544  1.0
  Ni  Ni248  1  0.59668067  0.80707271  0.30935544  1.0
  Ni  Ni249  1  0.93001400  0.14040604  0.30935544  1.0
  Ni  Ni250  1  0.93001400  0.47373938  0.30935544  1.0
  Ni  Ni251  1  0.93001400  0.80707271  0.30935544  1.0
  Ni  Ni252  1  0.23669033  0.28707996  0.29935906  1.0
  Ni  Ni253  1  0.23669033  0.62041329  0.29935906  1.0
  Ni  Ni254  1  0.23669033  0.95374663  0.29935906  1.0
  Ni  Ni255  1  0.57002367  0.28707996  0.29935906  1.0
  Ni  Ni256  1  0.57002367  0.62041329  0.29935906  1.0
  Ni  Ni257  1  0.57002367  0.95374663  0.29935906  1.0
  Ni  Ni258  1  0.90335700  0.28707996  0.29935906  1.0
  Ni  Ni259  1  0.90335700  0.62041329  0.29935906  1.0
  Ni  Ni260  1  0.90335700  0.95374663  0.29935906  1.0
  Ni  Ni261  1  0.07002367  0.07874663  0.36185906  1.0
  Ni  Ni262  1  0.07002367  0.41207996  0.36185906  1.0
  Ni  Ni263  1  0.07002367  0.74541329  0.36185906  1.0
  Ni  Ni264  1  0.40335700  0.07874663  0.36185906  1.0
  Ni  Ni265  1  0.40335700  0.41207996  0.36185906  1.0
  Ni  Ni266  1  0.40335700  0.74541329  0.36185906  1.0
  Ni  Ni267  1  0.73669033  0.07874663  0.36185906  1.0
  Ni  Ni268  1  0.73669033  0.41207996  0.36185906  1.0
  Ni  Ni269  1  0.73669033  0.74541329  0.36185906  1.0
  Ni  Ni270  1  0.31998600  0.22460821  0.26812319  1.0
  Ni  Ni271  1  0.31998600  0.55794154  0.26812319  1.0
  Ni  Ni272  1  0.31998600  0.89127488  0.26812319  1.0
  Ni  Ni273  1  0.65331933  0.22460821  0.26812319  1.0
  Ni  Ni274  1  0.65331933  0.55794154  0.26812319  1.0
  Ni  Ni275  1  0.65331933  0.89127488  0.26812319  1.0
  Ni  Ni276  1  0.98665267  0.22460821  0.26812319  1.0
  Ni  Ni277  1  0.98665267  0.55794154  0.26812319  1.0
  Ni  Ni278  1  0.98665267  0.89127488  0.26812319  1.0
  Ni  Ni279  1  0.15331933  0.01627488  0.33062319  1.0
  Ni  Ni280  1  0.15331933  0.34960821  0.33062319  1.0
  Ni  Ni281  1  0.15331933  0.68294154  0.33062319  1.0
  Ni  Ni282  1  0.48665267  0.01627488  0.33062319  1.0
  Ni  Ni283  1  0.48665267  0.34960821  0.33062319  1.0
  Ni  Ni284  1  0.48665267  0.68294154  0.33062319  1.0
  Ni  Ni285  1  0.81998600  0.01627488  0.33062319  1.0
  Ni  Ni286  1  0.81998600  0.34960821  0.33062319  1.0
  Ni  Ni287  1  0.81998600  0.68294154  0.33062319  1.0
  Ni  Ni288  1  0.03008067  0.31965096  0.31564456  1.0
  Ni  Ni289  1  0.03008067  0.65298429  0.31564456  1.0
  Ni  Ni290  1  0.03008067  0.98631762  0.31564456  1.0
  Ni  Ni291  1  0.36341400  0.31965096  0.31564456  1.0
  Ni  Ni292  1  0.36341400  0.65298429  0.31564456  1.0
  Ni  Ni293  1  0.36341400  0.98631762  0.31564456  1.0
  Ni  Ni294  1  0.69674733  0.31965096  0.31564456  1.0
  Ni  Ni295  1  0.69674733  0.65298429  0.31564456  1.0
  Ni  Ni296  1  0.69674733  0.98631762  0.31564456  1.0
  Ni  Ni297  1  0.19674733  0.19465096  0.25314456  1.0
  Ni  Ni298  1  0.19674733  0.52798429  0.25314456  1.0
  Ni  Ni299  1  0.19674733  0.86131763  0.25314456  1.0
  Ni  Ni300  1  0.53008067  0.19465096  0.25314456  1.0
  Ni  Ni301  1  0.53008067  0.52798429  0.25314456  1.0
  Ni  Ni302  1  0.53008067  0.86131763  0.25314456  1.0
  Ni  Ni303  1  0.86341400  0.19465096  0.25314456  1.0
  Ni  Ni304  1  0.86341400  0.52798429  0.25314456  1.0
  Ni  Ni305  1  0.86341400  0.86131763  0.25314456  1.0
  Ni  Ni306  1  0.05325267  0.17036329  0.32433406  1.0
  Ni  Ni307  1  0.05325267  0.50369663  0.32433406  1.0
  Ni  Ni308  1  0.05325267  0.83702996  0.32433406  1.0
  Ni  Ni309  1  0.38658600  0.17036329  0.32433406  1.0
  Ni  Ni310  1  0.38658600  0.50369663  0.32433406  1.0
  Ni  Ni311  1  0.38658600  0.83702996  0.32433406  1.0
  Ni  Ni312  1  0.71991933  0.17036329  0.32433406  1.0
  Ni  Ni313  1  0.71991933  0.50369663  0.32433406  1.0
  Ni  Ni314  1  0.71991933  0.83702996  0.32433406  1.0
  Ni  Ni315  1  0.21991933  0.04536329  0.26183406  1.0
  Ni  Ni316  1  0.21991933  0.37869663  0.26183406  1.0
  Ni  Ni317  1  0.21991933  0.71202996  0.26183406  1.0
  Ni  Ni318  1  0.55325267  0.04536329  0.26183406  1.0
  Ni  Ni319  1  0.55325267  0.37869663  0.26183406  1.0
  Ni  Ni320  1  0.55325267  0.71202996  0.26183406  1.0
  Ni  Ni321  1  0.88658600  0.04536329  0.26183406  1.0
  Ni  Ni322  1  0.88658600  0.37869663  0.26183406  1.0
  Ni  Ni323  1  0.88658600  0.71202996  0.26183406  1.0
  Sb  Sb324  1  0.30372800  0.06655312  0.10576231  1.0
  Sb  Sb325  1  0.30372800  0.39988646  0.10576231  1.0
  Sb  Sb326  1  0.30372800  0.73321979  0.10576231  1.0
  Sb  Sb327  1  0.63706133  0.06655312  0.10576231  1.0
  Sb  Sb328  1  0.63706133  0.39988646  0.10576231  1.0
  Sb  Sb329  1  0.63706133  0.73321979  0.10576231  1.0
  Sb  Sb330  1  0.97039467  0.06655312  0.10576231  1.0
  Sb  Sb331  1  0.97039467  0.39988646  0.10576231  1.0
  Sb  Sb332  1  0.97039467  0.73321979  0.10576231  1.0
  Sb  Sb333  1  0.13706133  0.27488646  0.04326231  1.0
  Sb  Sb334  1  0.13706133  0.60821979  0.04326231  1.0
  Sb  Sb335  1  0.13706133  0.94155312  0.04326231  1.0
  Sb  Sb336  1  0.47039467  0.27488646  0.04326231  1.0
  Sb  Sb337  1  0.47039467  0.60821979  0.04326231  1.0
  Sb  Sb338  1  0.47039467  0.94155312  0.04326231  1.0
  Sb  Sb339  1  0.80372800  0.27488646  0.04326231  1.0
  Sb  Sb340  1  0.80372800  0.60821979  0.04326231  1.0
  Sb  Sb341  1  0.80372800  0.94155312  0.04326231  1.0
  Sb  Sb342  1  0.11293867  0.09012779  0.03421631  1.0
  Sb  Sb343  1  0.11293867  0.42346113  0.03421631  1.0
  Sb  Sb344  1  0.11293867  0.75679446  0.03421631  1.0
  Sb  Sb345  1  0.44627200  0.09012779  0.03421631  1.0
  Sb  Sb346  1  0.44627200  0.42346113  0.03421631  1.0
  Sb  Sb347  1  0.44627200  0.75679446  0.03421631  1.0
  Sb  Sb348  1  0.77960533  0.09012779  0.03421631  1.0
  Sb  Sb349  1  0.77960533  0.42346113  0.03421631  1.0
  Sb  Sb350  1  0.77960533  0.75679446  0.03421631  1.0
  Sb  Sb351  1  0.27960533  0.21512779  0.09671631  1.0
  Sb  Sb352  1  0.27960533  0.54846112  0.09671631  1.0
  Sb  Sb353  1  0.27960533  0.88179446  0.09671631  1.0
  Sb  Sb354  1  0.61293867  0.21512779  0.09671631  1.0
  Sb  Sb355  1  0.61293867  0.54846112  0.09671631  1.0
  Sb  Sb356  1  0.61293867  0.88179446  0.09671631  1.0
  Sb  Sb357  1  0.94627200  0.21512779  0.09671631  1.0
  Sb  Sb358  1  0.94627200  0.54846112  0.09671631  1.0
  Sb  Sb359  1  0.94627200  0.88179446  0.09671631  1.0
  Sb  Sb360  1  0.30372800  0.31655313  0.23076231  1.0
  Sb  Sb361  1  0.30372800  0.64988646  0.23076231  1.0
  Sb  Sb362  1  0.30372800  0.98321979  0.23076231  1.0
  Sb  Sb363  1  0.63706133  0.31655313  0.23076231  1.0
  Sb  Sb364  1  0.63706133  0.64988646  0.23076231  1.0
  Sb  Sb365  1  0.63706133  0.98321979  0.23076231  1.0
  Sb  Sb366  1  0.97039467  0.31655313  0.23076231  1.0
  Sb  Sb367  1  0.97039467  0.64988646  0.23076231  1.0
  Sb  Sb368  1  0.97039467  0.98321979  0.23076231  1.0
  Sb  Sb369  1  0.13706133  0.19155312  0.16826231  1.0
  Sb  Sb370  1  0.13706133  0.52488646  0.16826231  1.0
  Sb  Sb371  1  0.13706133  0.85821979  0.16826231  1.0
  Sb  Sb372  1  0.47039467  0.19155312  0.16826231  1.0
  Sb  Sb373  1  0.47039467  0.52488646  0.16826231  1.0
  Sb  Sb374  1  0.47039467  0.85821979  0.16826231  1.0
  Sb  Sb375  1  0.80372800  0.19155312  0.16826231  1.0
  Sb  Sb376  1  0.80372800  0.52488646  0.16826231  1.0
  Sb  Sb377  1  0.80372800  0.85821979  0.16826231  1.0
  Sb  Sb378  1  0.11293867  0.00679446  0.15921631  1.0
  Sb  Sb379  1  0.11293867  0.34012779  0.15921631  1.0
  Sb  Sb380  1  0.11293867  0.67346112  0.15921631  1.0
  Sb  Sb381  1  0.44627200  0.00679446  0.15921631  1.0
  Sb  Sb382  1  0.44627200  0.34012779  0.15921631  1.0
  Sb  Sb383  1  0.44627200  0.67346112  0.15921631  1.0
  Sb  Sb384  1  0.77960533  0.00679446  0.15921631  1.0
  Sb  Sb385  1  0.77960533  0.34012779  0.15921631  1.0
  Sb  Sb386  1  0.77960533  0.67346112  0.15921631  1.0
  Sb  Sb387  1  0.27960533  0.13179446  0.22171631  1.0
  Sb  Sb388  1  0.27960533  0.46512779  0.22171631  1.0
  Sb  Sb389  1  0.27960533  0.79846113  0.22171631  1.0
  Sb  Sb390  1  0.61293867  0.13179446  0.22171631  1.0
  Sb  Sb391  1  0.61293867  0.46512779  0.22171631  1.0
  Sb  Sb392  1  0.61293867  0.79846113  0.22171631  1.0
  Sb  Sb393  1  0.94627200  0.13179446  0.22171631  1.0
  Sb  Sb394  1  0.94627200  0.46512779  0.22171631  1.0
  Sb  Sb395  1  0.94627200  0.79846113  0.22171631  1.0
  Sb  Sb396  1  0.30372800  0.23321979  0.35576231  1.0
  Sb  Sb397  1  0.30372800  0.56655313  0.35576231  1.0
  Sb  Sb398  1  0.30372800  0.89988646  0.35576231  1.0
  Sb  Sb399  1  0.63706133  0.23321979  0.35576231  1.0
  Sb  Sb400  1  0.63706133  0.56655313  0.35576231  1.0
  Sb  Sb401  1  0.63706133  0.89988646  0.35576231  1.0
  Sb  Sb402  1  0.97039467  0.23321979  0.35576231  1.0
  Sb  Sb403  1  0.97039467  0.56655313  0.35576231  1.0
  Sb  Sb404  1  0.97039467  0.89988646  0.35576231  1.0
  Sb  Sb405  1  0.13706133  0.10821979  0.29326231  1.0
  Sb  Sb406  1  0.13706133  0.44155312  0.29326231  1.0
  Sb  Sb407  1  0.13706133  0.77488646  0.29326231  1.0
  Sb  Sb408  1  0.47039467  0.10821979  0.29326231  1.0
  Sb  Sb409  1  0.47039467  0.44155312  0.29326231  1.0
  Sb  Sb410  1  0.47039467  0.77488646  0.29326231  1.0
  Sb  Sb411  1  0.80372800  0.10821979  0.29326231  1.0
  Sb  Sb412  1  0.80372800  0.44155312  0.29326231  1.0
  Sb  Sb413  1  0.80372800  0.77488646  0.29326231  1.0
  Sb  Sb414  1  0.11293867  0.25679446  0.28421631  1.0
  Sb  Sb415  1  0.11293867  0.59012779  0.28421631  1.0
  Sb  Sb416  1  0.11293867  0.92346113  0.28421631  1.0
  Sb  Sb417  1  0.44627200  0.25679446  0.28421631  1.0
  Sb  Sb418  1  0.44627200  0.59012779  0.28421631  1.0
  Sb  Sb419  1  0.44627200  0.92346113  0.28421631  1.0
  Sb  Sb420  1  0.77960533  0.25679446  0.28421631  1.0
  Sb  Sb421  1  0.77960533  0.59012779  0.28421631  1.0
  Sb  Sb422  1  0.77960533  0.92346113  0.28421631  1.0
  Sb  Sb423  1  0.27960533  0.04846113  0.34671631  1.0
  Sb  Sb424  1  0.27960533  0.38179446  0.34671631  1.0
  Sb  Sb425  1  0.27960533  0.71512779  0.34671631  1.0
  Sb  Sb426  1  0.61293867  0.04846113  0.34671631  1.0
  Sb  Sb427  1  0.61293867  0.38179446  0.34671631  1.0
  Sb  Sb428  1  0.61293867  0.71512779  0.34671631  1.0
  Sb  Sb429  1  0.94627200  0.04846113  0.34671631  1.0
  Sb  Sb430  1  0.94627200  0.38179446  0.34671631  1.0
  Sb  Sb431  1  0.94627200  0.71512779  0.34671631  1.0
