# generated using pymatgen
data_Ni3Sb
_symmetry_space_group_name_H-M   'P 1'
_cell_length_a   27.35552707
_cell_length_b   20.34207260
_cell_length_c   51.28092000
_cell_angle_alpha   50.93274107
_cell_angle_beta   90.00000000
_cell_angle_gamma   47.74836711
_symmetry_Int_Tables_number   1
_chemical_formula_structural   Ni3Sb
_chemical_formula_sum   'Ni270 Sb90'
_cell_volume   11077.84690516
_cell_formula_units_Z   90
loop_
 _symmetry_equiv_pos_site_id
 _symmetry_equiv_pos_as_xyz
  1  'x, y, z'
loop_
 _atom_site_type_symbol
 _atom_site_label
 _atom_site_symmetry_multiplicity
 _atom_site_fract_x
 _atom_site_fract_y
 _atom_site_fract_z
 _atom_site_occupancy
  Ni  Ni0  1  0.05411567  0.00000000  0.06250000  1.0
  Ni  Ni1  1  0.05411567  0.33333333  0.06250000  1.0
  Ni  Ni2  1  0.05411567  0.66666667  0.06250000  1.0
  Ni  Ni3  1  0.38744900  0.00000000  0.06250000  1.0
  Ni  Ni4  1  0.38744900  0.33333333  0.06250000  1.0
  Ni  Ni5  1  0.38744900  0.66666667  0.06250000  1.0
  Ni  Ni6  1  0.72078233  0.00000000  0.06250000  1.0
  Ni  Ni7  1  0.72078233  0.33333333  0.06250000  1.0
  Ni  Ni8  1  0.72078233  0.66666667  0.06250000  1.0
  Ni  Ni9  1  0.22510200  0.16234700  0.02191325  1.0
  Ni  Ni10  1  0.22510200  0.49568033  0.02191325  1.0
  Ni  Ni11  1  0.22510200  0.82901367  0.02191325  1.0
  Ni  Ni12  1  0.55843533  0.16234700  0.02191325  1.0
  Ni  Ni13  1  0.55843533  0.49568033  0.02191325  1.0
  Ni  Ni14  1  0.55843533  0.82901367  0.02191325  1.0
  Ni  Ni15  1  0.89176867  0.16234700  0.02191325  1.0
  Ni  Ni16  1  0.89176867  0.49568033  0.02191325  1.0
  Ni  Ni17  1  0.89176867  0.82901367  0.02191325  1.0
  Ni  Ni18  1  0.27921767  0.16234700  0.06357992  1.0
  Ni  Ni19  1  0.27921767  0.49568033  0.06357992  1.0
  Ni  Ni20  1  0.27921767  0.82901367  0.06357992  1.0
  Ni  Ni21  1  0.61255100  0.16234700  0.06357992  1.0
  Ni  Ni22  1  0.61255100  0.49568033  0.06357992  1.0
  Ni  Ni23  1  0.61255100  0.82901367  0.06357992  1.0
  Ni  Ni24  1  0.94588433  0.16234700  0.06357992  1.0
  Ni  Ni25  1  0.94588433  0.49568033  0.06357992  1.0
  Ni  Ni26  1  0.94588433  0.82901367  0.06357992  1.0
  Ni  Ni27  1  0.27921767  0.00000000  0.02083333  1.0
  Ni  Ni28  1  0.27921767  0.33333333  0.02083333  1.0
  Ni  Ni29  1  0.27921767  0.66666667  0.02083333  1.0
  Ni  Ni30  1  0.61255100  0.00000000  0.02083333  1.0
  Ni  Ni31  1  0.61255100  0.33333333  0.02083333  1.0
  Ni  Ni32  1  0.61255100  0.66666667  0.02083333  1.0
  Ni  Ni33  1  0.94588433  0.00000000  0.02083333  1.0
  Ni  Ni34  1  0.94588433  0.33333333  0.02083333  1.0
  Ni  Ni35  1  0.94588433  0.66666667  0.02083333  1.0
  Ni  Ni36  1  0.10823133  0.17098633  0.06142008  1.0
  Ni  Ni37  1  0.10823133  0.50431967  0.06142008  1.0
  Ni  Ni38  1  0.10823133  0.83765300  0.06142008  1.0
  Ni  Ni39  1  0.44156467  0.17098633  0.06142008  1.0
  Ni  Ni40  1  0.44156467  0.50431967  0.06142008  1.0
  Ni  Ni41  1  0.44156467  0.83765300  0.06142008  1.0
  Ni  Ni42  1  0.77489800  0.17098633  0.06142008  1.0
  Ni  Ni43  1  0.77489800  0.50431967  0.06142008  1.0
  Ni  Ni44  1  0.77489800  0.83765300  0.06142008  1.0
  Ni  Ni45  1  0.05411567  0.17098633  0.01975342  1.0
  Ni  Ni46  1  0.05411567  0.50431967  0.01975342  1.0
  Ni  Ni47  1  0.05411567  0.83765300  0.01975342  1.0
  Ni  Ni48  1  0.38744900  0.17098633  0.01975342  1.0
  Ni  Ni49  1  0.38744900  0.50431967  0.01975342  1.0
  Ni  Ni50  1  0.38744900  0.83765300  0.01975342  1.0
  Ni  Ni51  1  0.72078233  0.17098633  0.01975342  1.0
  Ni  Ni52  1  0.72078233  0.50431967  0.01975342  1.0
  Ni  Ni53  1  0.72078233  0.83765300  0.01975342  1.0
  Sb  Sb54  1  0.11111111  0.00000000  0.02083333  1.0
  Sb  Sb55  1  0.11111111  0.33333333  0.02083333  1.0
  Sb  Sb56  1  0.11111111  0.66666667  0.02083333  1.0
  Sb  Sb57  1  0.44444444  0.00000000  0.02083333  1.0
  Sb  Sb58  1  0.44444444  0.33333333  0.02083333  1.0
  Sb  Sb59  1  0.44444444  0.66666667  0.02083333  1.0
  Sb  Sb60  1  0.77777778  0.00000000  0.02083333  1.0
  Sb  Sb61  1  0.77777778  0.33333333  0.02083333  1.0
  Sb  Sb62  1  0.77777778  0.66666667  0.02083333  1.0
  Sb  Sb63  1  0.22222222  0.00000000  0.06250000  1.0
  Sb  Sb64  1  0.22222222  0.33333333  0.06250000  1.0
  Sb  Sb65  1  0.22222222  0.66666667  0.06250000  1.0
  Sb  Sb66  1  0.55555556  0.00000000  0.06250000  1.0
  Sb  Sb67  1  0.55555556  0.33333333  0.06250000  1.0
  Sb  Sb68  1  0.55555556  0.66666667  0.06250000  1.0
  Sb  Sb69  1  0.88888889  0.00000000  0.06250000  1.0
  Sb  Sb70  1  0.88888889  0.33333333  0.06250000  1.0
  Sb  Sb71  1  0.88888889  0.66666667  0.06250000  1.0
  Ni  Ni72  1  0.05411567  0.00000000  0.14583333  1.0
  Ni  Ni73  1  0.05411567  0.33333333  0.14583333  1.0
  Ni  Ni74  1  0.05411567  0.66666667  0.14583333  1.0
  Ni  Ni75  1  0.38744900  0.00000000  0.14583333  1.0
  Ni  Ni76  1  0.38744900  0.33333333  0.14583333  1.0
  Ni  Ni77  1  0.38744900  0.66666667  0.14583333  1.0
  Ni  Ni78  1  0.72078233  0.00000000  0.14583333  1.0
  Ni  Ni79  1  0.72078233  0.33333333  0.14583333  1.0
  Ni  Ni80  1  0.72078233  0.66666667  0.14583333  1.0
  Ni  Ni81  1  0.22510200  0.16234700  0.10524658  1.0
  Ni  Ni82  1  0.22510200  0.49568033  0.10524658  1.0
  Ni  Ni83  1  0.22510200  0.82901367  0.10524658  1.0
  Ni  Ni84  1  0.55843533  0.16234700  0.10524658  1.0
  Ni  Ni85  1  0.55843533  0.49568033  0.10524658  1.0
  Ni  Ni86  1  0.55843533  0.82901367  0.10524658  1.0
  Ni  Ni87  1  0.89176867  0.16234700  0.10524658  1.0
  Ni  Ni88  1  0.89176867  0.49568033  0.10524658  1.0
  Ni  Ni89  1  0.89176867  0.82901367  0.10524658  1.0
  Ni  Ni90  1  0.27921767  0.16234700  0.14691325  1.0
  Ni  Ni91  1  0.27921767  0.49568033  0.14691325  1.0
  Ni  Ni92  1  0.27921767  0.82901367  0.14691325  1.0
  Ni  Ni93  1  0.61255100  0.16234700  0.14691325  1.0
  Ni  Ni94  1  0.61255100  0.49568033  0.14691325  1.0
  Ni  Ni95  1  0.61255100  0.82901367  0.14691325  1.0
  Ni  Ni96  1  0.94588433  0.16234700  0.14691325  1.0
  Ni  Ni97  1  0.94588433  0.49568033  0.14691325  1.0
  Ni  Ni98  1  0.94588433  0.82901367  0.14691325  1.0
  Ni  Ni99  1  0.27921767  0.00000000  0.10416667  1.0
  Ni  Ni100  1  0.27921767  0.33333333  0.10416667  1.0
  Ni  Ni101  1  0.27921767  0.66666667  0.10416667  1.0
  Ni  Ni102  1  0.61255100  0.00000000  0.10416667  1.0
  Ni  Ni103  1  0.61255100  0.33333333  0.10416667  1.0
  Ni  Ni104  1  0.61255100  0.66666667  0.10416667  1.0
  Ni  Ni105  1  0.94588433  0.00000000  0.10416667  1.0
  Ni  Ni106  1  0.94588433  0.33333333  0.10416667  1.0
  Ni  Ni107  1  0.94588433  0.66666667  0.10416667  1.0
  Ni  Ni108  1  0.10823133  0.17098633  0.14475342  1.0
  Ni  Ni109  1  0.10823133  0.50431967  0.14475342  1.0
  Ni  Ni110  1  0.10823133  0.83765300  0.14475342  1.0
  Ni  Ni111  1  0.44156467  0.17098633  0.14475342  1.0
  Ni  Ni112  1  0.44156467  0.50431967  0.14475342  1.0
  Ni  Ni113  1  0.44156467  0.83765300  0.14475342  1.0
  Ni  Ni114  1  0.77489800  0.17098633  0.14475342  1.0
  Ni  Ni115  1  0.77489800  0.50431967  0.14475342  1.0
  Ni  Ni116  1  0.77489800  0.83765300  0.14475342  1.0
  Ni  Ni117  1  0.05411567  0.17098633  0.10308675  1.0
  Ni  Ni118  1  0.05411567  0.50431967  0.10308675  1.0
  Ni  Ni119  1  0.05411567  0.83765300  0.10308675  1.0
  Ni  Ni120  1  0.38744900  0.17098633  0.10308675  1.0
  Ni  Ni121  1  0.38744900  0.50431967  0.10308675  1.0
  Ni  Ni122  1  0.38744900  0.83765300  0.10308675  1.0
  Ni  Ni123  1  0.72078233  0.17098633  0.10308675  1.0
  Ni  Ni124  1  0.72078233  0.50431967  0.10308675  1.0
  Ni  Ni125  1  0.72078233  0.83765300  0.10308675  1.0
  Sb  Sb126  1  0.11111111  0.00000000  0.10416667  1.0
  Sb  Sb127  1  0.11111111  0.33333333  0.10416667  1.0
  Sb  Sb128  1  0.11111111  0.66666667  0.10416667  1.0
  Sb  Sb129  1  0.44444444  0.00000000  0.10416667  1.0
  Sb  Sb130  1  0.44444444  0.33333333  0.10416667  1.0
  Sb  Sb131  1  0.44444444  0.66666667  0.10416667  1.0
  Sb  Sb132  1  0.77777778  0.00000000  0.10416667  1.0
  Sb  Sb133  1  0.77777778  0.33333333  0.10416667  1.0
  Sb  Sb134  1  0.77777778  0.66666667  0.10416667  1.0
  Sb  Sb135  1  0.22222222  0.00000000  0.14583333  1.0
  Sb  Sb136  1  0.22222222  0.33333333  0.14583333  1.0
  Sb  Sb137  1  0.22222222  0.66666667  0.14583333  1.0
  Sb  Sb138  1  0.55555556  0.00000000  0.14583333  1.0
  Sb  Sb139  1  0.55555556  0.33333333  0.14583333  1.0
  Sb  Sb140  1  0.55555556  0.66666667  0.14583333  1.0
  Sb  Sb141  1  0.88888889  0.00000000  0.14583333  1.0
  Sb  Sb142  1  0.88888889  0.33333333  0.14583333  1.0
  Sb  Sb143  1  0.88888889  0.66666667  0.14583333  1.0
  Ni  Ni144  1  0.05411567  0.00000000  0.22916667  1.0
  Ni  Ni145  1  0.05411567  0.33333333  0.22916667  1.0
  Ni  Ni146  1  0.05411567  0.66666667  0.22916667  1.0
  Ni  Ni147  1  0.38744900  0.00000000  0.22916667  1.0
  Ni  Ni148  1  0.38744900  0.33333333  0.22916667  1.0
  Ni  Ni149  1  0.38744900  0.66666667  0.22916667  1.0
  Ni  Ni150  1  0.72078233  0.00000000  0.22916667  1.0
  Ni  Ni151  1  0.72078233  0.33333333  0.22916667  1.0
  Ni  Ni152  1  0.72078233  0.66666667  0.22916667  1.0
  Ni  Ni153  1  0.22510200  0.16234700  0.18857992  1.0
  Ni  Ni154  1  0.22510200  0.49568033  0.18857992  1.0
  Ni  Ni155  1  0.22510200  0.82901367  0.18857992  1.0
  Ni  Ni156  1  0.55843533  0.16234700  0.18857992  1.0
  Ni  Ni157  1  0.55843533  0.49568033  0.18857992  1.0
  Ni  Ni158  1  0.55843533  0.82901367  0.18857992  1.0
  Ni  Ni159  1  0.89176867  0.16234700  0.18857992  1.0
  Ni  Ni160  1  0.89176867  0.49568033  0.18857992  1.0
  Ni  Ni161  1  0.89176867  0.82901367  0.18857992  1.0
  Ni  Ni162  1  0.27921767  0.16234700  0.23024658  1.0
  Ni  Ni163  1  0.27921767  0.49568033  0.23024658  1.0
  Ni  Ni164  1  0.27921767  0.82901367  0.23024658  1.0
  Ni  Ni165  1  0.61255100  0.16234700  0.23024658  1.0
  Ni  Ni166  1  0.61255100  0.49568033  0.23024658  1.0
  Ni  Ni167  1  0.61255100  0.82901367  0.23024658  1.0
  Ni  Ni168  1  0.94588433  0.16234700  0.23024658  1.0
  Ni  Ni169  1  0.94588433  0.49568033  0.23024658  1.0
  Ni  Ni170  1  0.94588433  0.82901367  0.23024658  1.0
  Ni  Ni171  1  0.27921767  0.00000000  0.18750000  1.0
  Ni  Ni172  1  0.27921767  0.33333333  0.18750000  1.0
  Ni  Ni173  1  0.27921767  0.66666667  0.18750000  1.0
  Ni  Ni174  1  0.61255100  0.00000000  0.18750000  1.0
  Ni  Ni175  1  0.61255100  0.33333333  0.18750000  1.0
  Ni  Ni176  1  0.61255100  0.66666667  0.18750000  1.0
  Ni  Ni177  1  0.94588433  0.00000000  0.18750000  1.0
  Ni  Ni178  1  0.94588433  0.33333333  0.18750000  1.0
  Ni  Ni179  1  0.94588433  0.66666667  0.18750000  1.0
  Ni  Ni180  1  0.10823133  0.17098633  0.22808675  1.0
  Ni  Ni181  1  0.10823133  0.50431967  0.22808675  1.0
  Ni  Ni182  1  0.10823133  0.83765300  0.22808675  1.0
  Ni  Ni183  1  0.44156467  0.17098633  0.22808675  1.0
  Ni  Ni184  1  0.44156467  0.50431967  0.22808675  1.0
  Ni  Ni185  1  0.44156467  0.83765300  0.22808675  1.0
  Ni  Ni186  1  0.77489800  0.17098633  0.22808675  1.0
  Ni  Ni187  1  0.77489800  0.50431967  0.22808675  1.0
  Ni  Ni188  1  0.77489800  0.83765300  0.22808675  1.0
  Ni  Ni189  1  0.05411567  0.17098633  0.18642008  1.0
  Ni  Ni190  1  0.05411567  0.50431967  0.18642008  1.0
  Ni  Ni191  1  0.05411567  0.83765300  0.18642008  1.0
  Ni  Ni192  1  0.38744900  0.17098633  0.18642008  1.0
  Ni  Ni193  1  0.38744900  0.50431967  0.18642008  1.0
  Ni  Ni194  1  0.38744900  0.83765300  0.18642008  1.0
  Ni  Ni195  1  0.72078233  0.17098633  0.18642008  1.0
  Ni  Ni196  1  0.72078233  0.50431967  0.18642008  1.0
  Ni  Ni197  1  0.72078233  0.83765300  0.18642008  1.0
  Sb  Sb198  1  0.11111111  0.00000000  0.18750000  1.0
  Sb  Sb199  1  0.11111111  0.33333333  0.18750000  1.0
  Sb  Sb200  1  0.11111111  0.66666667  0.18750000  1.0
  Sb  Sb201  1  0.44444444  0.00000000  0.18750000  1.0
  Sb  Sb202  1  0.44444444  0.33333333  0.18750000  1.0
  Sb  Sb203  1  0.44444444  0.66666667  0.18750000  1.0
  Sb  Sb204  1  0.77777778  0.00000000  0.18750000  1.0
  Sb  Sb205  1  0.77777778  0.33333333  0.18750000  1.0
  Sb  Sb206  1  0.77777778  0.66666667  0.18750000  1.0
  Sb  Sb207  1  0.22222222  0.00000000  0.22916667  1.0
  Sb  Sb208  1  0.22222222  0.33333333  0.22916667  1.0
  Sb  Sb209  1  0.22222222  0.66666667  0.22916667  1.0
  Sb  Sb210  1  0.55555556  0.00000000  0.22916667  1.0
  Sb  Sb211  1  0.55555556  0.33333333  0.22916667  1.0
  Sb  Sb212  1  0.55555556  0.66666667  0.22916667  1.0
  Sb  Sb213  1  0.88888889  0.00000000  0.22916667  1.0
  Sb  Sb214  1  0.88888889  0.33333333  0.22916667  1.0
  Sb  Sb215  1  0.88888889  0.66666667  0.22916667  1.0
  Ni  Ni216  1  0.05411567  0.00000000  0.31250000  1.0
  Ni  Ni217  1  0.05411567  0.33333333  0.31250000  1.0
  Ni  Ni218  1  0.05411567  0.66666667  0.31250000  1.0
  Ni  Ni219  1  0.38744900  0.00000000  0.31250000  1.0
  Ni  Ni220  1  0.38744900  0.33333333  0.31250000  1.0
  Ni  Ni221  1  0.38744900  0.66666667  0.31250000  1.0
  Ni  Ni222  1  0.72078233  0.00000000  0.31250000  1.0
  Ni  Ni223  1  0.72078233  0.33333333  0.31250000  1.0
  Ni  Ni224  1  0.72078233  0.66666667  0.31250000  1.0
  Ni  Ni225  1  0.22510200  0.16234700  0.27191325  1.0
  Ni  Ni226  1  0.22510200  0.49568033  0.27191325  1.0
  Ni  Ni227  1  0.22510200  0.82901367  0.27191325  1.0
  Ni  Ni228  1  0.55843533  0.16234700  0.27191325  1.0
  Ni  Ni229  1  0.55843533  0.49568033  0.27191325  1.0
  Ni  Ni230  1  0.55843533  0.82901367  0.27191325  1.0
  Ni  Ni231  1  0.89176867  0.16234700  0.27191325  1.0
  Ni  Ni232  1  0.89176867  0.49568033  0.27191325  1.0
  Ni  Ni233  1  0.89176867  0.82901367  0.27191325  1.0
  Ni  Ni234  1  0.27921767  0.16234700  0.31357992  1.0
  Ni  Ni235  1  0.27921767  0.49568033  0.31357992  1.0
  Ni  Ni236  1  0.27921767  0.82901367  0.31357992  1.0
  Ni  Ni237  1  0.61255100  0.16234700  0.31357992  1.0
  Ni  Ni238  1  0.61255100  0.49568033  0.31357992  1.0
  Ni  Ni239  1  0.61255100  0.82901367  0.31357992  1.0
  Ni  Ni240  1  0.94588433  0.16234700  0.31357992  1.0
  Ni  Ni241  1  0.94588433  0.49568033  0.31357992  1.0
  Ni  Ni242  1  0.94588433  0.82901367  0.31357992  1.0
  Ni  Ni243  1  0.27921767  0.00000000  0.27083333  1.0
  Ni  Ni244  1  0.27921767  0.33333333  0.27083333  1.0
  Ni  Ni245  1  0.27921767  0.66666667  0.27083333  1.0
  Ni  Ni246  1  0.61255100  0.00000000  0.27083333  1.0
  Ni  Ni247  1  0.61255100  0.33333333  0.27083333  1.0
  Ni  Ni248  1  0.61255100  0.66666667  0.27083333  1.0
  Ni  Ni249  1  0.94588433  0.00000000  0.27083333  1.0
  Ni  Ni250  1  0.94588433  0.33333333  0.27083333  1.0
  Ni  Ni251  1  0.94588433  0.66666667  0.27083333  1.0
  Ni  Ni252  1  0.10823133  0.17098633  0.31142008  1.0
  Ni  Ni253  1  0.10823133  0.50431967  0.31142008  1.0
  Ni  Ni254  1  0.10823133  0.83765300  0.31142008  1.0
  Ni  Ni255  1  0.44156467  0.17098633  0.31142008  1.0
  Ni  Ni256  1  0.44156467  0.50431967  0.31142008  1.0
  Ni  Ni257  1  0.44156467  0.83765300  0.31142008  1.0
  Ni  Ni258  1  0.77489800  0.17098633  0.31142008  1.0
  Ni  Ni259  1  0.77489800  0.50431967  0.31142008  1.0
  Ni  Ni260  1  0.77489800  0.83765300  0.31142008  1.0
  Ni  Ni261  1  0.05411567  0.17098633  0.26975342  1.0
  Ni  Ni262  1  0.05411567  0.50431967  0.26975342  1.0
  Ni  Ni263  1  0.05411567  0.83765300  0.26975342  1.0
  Ni  Ni264  1  0.38744900  0.17098633  0.26975342  1.0
  Ni  Ni265  1  0.38744900  0.50431967  0.26975342  1.0
  Ni  Ni266  1  0.38744900  0.83765300  0.26975342  1.0
  Ni  Ni267  1  0.72078233  0.17098633  0.26975342  1.0
  Ni  Ni268  1  0.72078233  0.50431967  0.26975342  1.0
  Ni  Ni269  1  0.72078233  0.83765300  0.26975342  1.0
  Sb  Sb270  1  0.11111111  0.00000000  0.27083333  1.0
  Sb  Sb271  1  0.11111111  0.33333333  0.27083333  1.0
  Sb  Sb272  1  0.11111111  0.66666667  0.27083333  1.0
  Sb  Sb273  1  0.44444444  0.00000000  0.27083333  1.0
  Sb  Sb274  1  0.44444444  0.33333333  0.27083333  1.0
  Sb  Sb275  1  0.44444444  0.66666667  0.27083333  1.0
  Sb  Sb276  1  0.77777778  0.00000000  0.27083333  1.0
  Sb  Sb277  1  0.77777778  0.33333333  0.27083333  1.0
  Sb  Sb278  1  0.77777778  0.66666667  0.27083333  1.0
  Sb  Sb279  1  0.22222222  0.00000000  0.31250000  1.0
  Sb  Sb280  1  0.22222222  0.33333333  0.31250000  1.0
  Sb  Sb281  1  0.22222222  0.66666667  0.31250000  1.0
  Sb  Sb282  1  0.55555556  0.00000000  0.31250000  1.0
  Sb  Sb283  1  0.55555556  0.33333333  0.31250000  1.0
  Sb  Sb284  1  0.55555556  0.66666667  0.31250000  1.0
  Sb  Sb285  1  0.88888889  0.00000000  0.31250000  1.0
  Sb  Sb286  1  0.88888889  0.33333333  0.31250000  1.0
  Sb  Sb287  1  0.88888889  0.66666667  0.31250000  1.0
  Ni  Ni288  1  0.05411567  0.00000000  0.39583333  1.0
  Ni  Ni289  1  0.05411567  0.33333333  0.39583333  1.0
  Ni  Ni290  1  0.05411567  0.66666667  0.39583333  1.0
  Ni  Ni291  1  0.38744900  0.00000000  0.39583333  1.0
  Ni  Ni292  1  0.38744900  0.33333333  0.39583333  1.0
  Ni  Ni293  1  0.38744900  0.66666667  0.39583333  1.0
  Ni  Ni294  1  0.72078233  0.00000000  0.39583333  1.0
  Ni  Ni295  1  0.72078233  0.33333333  0.39583333  1.0
  Ni  Ni296  1  0.72078233  0.66666667  0.39583333  1.0
  Ni  Ni297  1  0.22510200  0.16234700  0.35524658  1.0
  Ni  Ni298  1  0.22510200  0.49568033  0.35524658  1.0
  Ni  Ni299  1  0.22510200  0.82901367  0.35524658  1.0
  Ni  Ni300  1  0.55843533  0.16234700  0.35524658  1.0
  Ni  Ni301  1  0.55843533  0.49568033  0.35524658  1.0
  Ni  Ni302  1  0.55843533  0.82901367  0.35524658  1.0
  Ni  Ni303  1  0.89176867  0.16234700  0.35524658  1.0
  Ni  Ni304  1  0.89176867  0.49568033  0.35524658  1.0
  Ni  Ni305  1  0.89176867  0.82901367  0.35524658  1.0
  Ni  Ni306  1  0.27921767  0.16234700  0.39691325  1.0
  Ni  Ni307  1  0.27921767  0.49568033  0.39691325  1.0
  Ni  Ni308  1  0.27921767  0.82901367  0.39691325  1.0
  Ni  Ni309  1  0.61255100  0.16234700  0.39691325  1.0
  Ni  Ni310  1  0.61255100  0.49568033  0.39691325  1.0
  Ni  Ni311  1  0.61255100  0.82901367  0.39691325  1.0
  Ni  Ni312  1  0.94588433  0.16234700  0.39691325  1.0
  Ni  Ni313  1  0.94588433  0.49568033  0.39691325  1.0
  Ni  Ni314  1  0.94588433  0.82901367  0.39691325  1.0
  Ni  Ni315  1  0.27921767  0.00000000  0.35416667  1.0
  Ni  Ni316  1  0.27921767  0.33333333  0.35416667  1.0
  Ni  Ni317  1  0.27921767  0.66666667  0.35416667  1.0
  Ni  Ni318  1  0.61255100  0.00000000  0.35416667  1.0
  Ni  Ni319  1  0.61255100  0.33333333  0.35416667  1.0
  Ni  Ni320  1  0.61255100  0.66666667  0.35416667  1.0
  Ni  Ni321  1  0.94588433  0.00000000  0.35416667  1.0
  Ni  Ni322  1  0.94588433  0.33333333  0.35416667  1.0
  Ni  Ni323  1  0.94588433  0.66666667  0.35416667  1.0
  Ni  Ni324  1  0.10823133  0.17098633  0.39475342  1.0
  Ni  Ni325  1  0.10823133  0.50431967  0.39475342  1.0
  Ni  Ni326  1  0.10823133  0.83765300  0.39475342  1.0
  Ni  Ni327  1  0.44156467  0.17098633  0.39475342  1.0
  Ni  Ni328  1  0.44156467  0.50431967  0.39475342  1.0
  Ni  Ni329  1  0.44156467  0.83765300  0.39475342  1.0
  Ni  Ni330  1  0.77489800  0.17098633  0.39475342  1.0
  Ni  Ni331  1  0.77489800  0.50431967  0.39475342  1.0
  Ni  Ni332  1  0.77489800  0.83765300  0.39475342  1.0
  Ni  Ni333  1  0.05411567  0.17098633  0.35308675  1.0
  Ni  Ni334  1  0.05411567  0.50431967  0.35308675  1.0
  Ni  Ni335  1  0.05411567  0.83765300  0.35308675  1.0
  Ni  Ni336  1  0.38744900  0.17098633  0.35308675  1.0
  Ni  Ni337  1  0.38744900  0.50431967  0.35308675  1.0
  Ni  Ni338  1  0.38744900  0.83765300  0.35308675  1.0
  Ni  Ni339  1  0.72078233  0.17098633  0.35308675  1.0
  Ni  Ni340  1  0.72078233  0.50431967  0.35308675  1.0
  Ni  Ni341  1  0.72078233  0.83765300  0.35308675  1.0
  Sb  Sb342  1  0.11111111  0.00000000  0.35416667  1.0
  Sb  Sb343  1  0.11111111  0.33333333  0.35416667  1.0
  Sb  Sb344  1  0.11111111  0.66666667  0.35416667  1.0
  Sb  Sb345  1  0.44444444  0.00000000  0.35416667  1.0
  Sb  Sb346  1  0.44444444  0.33333333  0.35416667  1.0
  Sb  Sb347  1  0.44444444  0.66666667  0.35416667  1.0
  Sb  Sb348  1  0.77777778  0.00000000  0.35416667  1.0
  Sb  Sb349  1  0.77777778  0.33333333  0.35416667  1.0
  Sb  Sb350  1  0.77777778  0.66666667  0.35416667  1.0
  Sb  Sb351  1  0.22222222  0.00000000  0.39583333  1.0
  Sb  Sb352  1  0.22222222  0.33333333  0.39583333  1.0
  Sb  Sb353  1  0.22222222  0.66666667  0.39583333  1.0
  Sb  Sb354  1  0.55555556  0.00000000  0.39583333  1.0
  Sb  Sb355  1  0.55555556  0.33333333  0.39583333  1.0
  Sb  Sb356  1  0.55555556  0.66666667  0.39583333  1.0
  Sb  Sb357  1  0.88888889  0.00000000  0.39583333  1.0
  Sb  Sb358  1  0.88888889  0.33333333  0.39583333  1.0
  Sb  Sb359  1  0.88888889  0.66666667  0.39583333  1.0
