# generated using pymatgen
data_Ni3Sn
_symmetry_space_group_name_H-M   'P 1'
_cell_length_a   15.80096429
_cell_length_b   19.35214998
_cell_length_c   27.36807296
_cell_angle_alpha   90.00000000
_cell_angle_beta   90.00000000
_cell_angle_gamma   90.00000000
_symmetry_Int_Tables_number   1
_chemical_formula_structural   Ni3Sn
_chemical_formula_sum   'Ni216 Sn72'
_cell_volume   8368.68135005
_cell_formula_units_Z   72
loop_
 _symmetry_equiv_pos_site_id
 _symmetry_equiv_pos_as_xyz
  1  'x, y, z'
loop_
 _atom_site_type_symbol
 _atom_site_label
 _atom_site_symmetry_multiplicity
 _atom_site_fract_x
 _atom_site_fract_y
 _atom_site_fract_z
 _atom_site_occupancy
  Ni  Ni0  1  0.33333333  0.12500000  0.95833333  1.0
  Ni  Ni1  1  0.33333333  0.45833333  0.95833333  1.0
  Ni  Ni2  1  0.33333333  0.79166667  0.95833333  1.0
  Ni  Ni3  1  0.66666667  0.12500000  0.95833333  1.0
  Ni  Ni4  1  0.66666667  0.45833333  0.95833333  1.0
  Ni  Ni5  1  0.66666667  0.79166667  0.95833333  1.0
  Ni  Ni6  1  0.00000000  0.12500000  0.95833333  1.0
  Ni  Ni7  1  1.00000000  0.45833333  0.95833333  1.0
  Ni  Ni8  1  1.00000000  0.79166667  0.95833333  1.0
  Ni  Ni9  1  0.16666667  0.23611111  0.90277778  1.0
  Ni  Ni10  1  0.16666667  0.56944444  0.90277778  1.0
  Ni  Ni11  1  0.16666667  0.90277778  0.90277778  1.0
  Ni  Ni12  1  0.50000000  0.23611111  0.90277778  1.0
  Ni  Ni13  1  0.50000000  0.56944444  0.90277778  1.0
  Ni  Ni14  1  0.50000000  0.90277778  0.90277778  1.0
  Ni  Ni15  1  0.83333333  0.23611111  0.90277778  1.0
  Ni  Ni16  1  0.83333333  0.56944444  0.90277778  1.0
  Ni  Ni17  1  0.83333333  0.90277778  0.90277778  1.0
  Ni  Ni18  1  0.25000000  0.01388889  0.93055556  1.0
  Ni  Ni19  1  0.25000000  0.34722222  0.93055556  1.0
  Ni  Ni20  1  0.25000000  0.68055556  0.93055556  1.0
  Ni  Ni21  1  0.58333333  0.01388889  0.93055556  1.0
  Ni  Ni22  1  0.58333333  0.34722222  0.93055556  1.0
  Ni  Ni23  1  0.58333333  0.68055556  0.93055556  1.0
  Ni  Ni24  1  0.91666667  0.01388889  0.93055556  1.0
  Ni  Ni25  1  0.91666667  0.34722222  0.93055556  1.0
  Ni  Ni26  1  0.91666667  0.68055556  0.93055556  1.0
  Ni  Ni27  1  0.08333333  0.23611111  0.98611111  1.0
  Ni  Ni28  1  0.08333333  0.56944444  0.98611111  1.0
  Ni  Ni29  1  0.08333333  0.90277778  0.98611111  1.0
  Ni  Ni30  1  0.41666667  0.23611111  0.98611111  1.0
  Ni  Ni31  1  0.41666667  0.56944444  0.98611111  1.0
  Ni  Ni32  1  0.41666667  0.90277778  0.98611111  1.0
  Ni  Ni33  1  0.75000000  0.23611111  0.98611111  1.0
  Ni  Ni34  1  0.75000000  0.56944444  0.98611111  1.0
  Ni  Ni35  1  0.75000000  0.90277778  0.98611111  1.0
  Ni  Ni36  1  0.08333333  0.01388889  0.93055556  1.0
  Ni  Ni37  1  0.08333333  0.34722222  0.93055556  1.0
  Ni  Ni38  1  0.08333333  0.68055556  0.93055556  1.0
  Ni  Ni39  1  0.41666667  0.01388889  0.93055556  1.0
  Ni  Ni40  1  0.41666667  0.34722222  0.93055556  1.0
  Ni  Ni41  1  0.41666667  0.68055556  0.93055556  1.0
  Ni  Ni42  1  0.75000000  0.01388889  0.93055556  1.0
  Ni  Ni43  1  0.75000000  0.34722222  0.93055556  1.0
  Ni  Ni44  1  0.75000000  0.68055556  0.93055556  1.0
  Ni  Ni45  1  0.25000000  0.23611111  0.98611111  1.0
  Ni  Ni46  1  0.25000000  0.56944444  0.98611111  1.0
  Ni  Ni47  1  0.25000000  0.90277778  0.98611111  1.0
  Ni  Ni48  1  0.58333333  0.23611111  0.98611111  1.0
  Ni  Ni49  1  0.58333333  0.56944444  0.98611111  1.0
  Ni  Ni50  1  0.58333333  0.90277778  0.98611111  1.0
  Ni  Ni51  1  0.91666667  0.23611111  0.98611111  1.0
  Ni  Ni52  1  0.91666667  0.56944444  0.98611111  1.0
  Ni  Ni53  1  0.91666667  0.90277778  0.98611111  1.0
  Ni  Ni54  1  0.00000000  0.01388889  0.84722222  1.0
  Ni  Ni55  1  0.00000000  0.34722222  0.84722222  1.0
  Ni  Ni56  1  0.00000000  0.68055556  0.84722222  1.0
  Ni  Ni57  1  0.33333333  0.01388889  0.84722222  1.0
  Ni  Ni58  1  0.33333333  0.34722222  0.84722222  1.0
  Ni  Ni59  1  0.33333333  0.68055556  0.84722222  1.0
  Ni  Ni60  1  0.66666667  0.01388889  0.84722222  1.0
  Ni  Ni61  1  0.66666667  0.34722222  0.84722222  1.0
  Ni  Ni62  1  0.66666667  0.68055556  0.84722222  1.0
  Ni  Ni63  1  0.16666667  0.12500000  0.79166667  1.0
  Ni  Ni64  1  0.16666667  0.45833333  0.79166667  1.0
  Ni  Ni65  1  0.16666667  0.79166667  0.79166667  1.0
  Ni  Ni66  1  0.50000000  0.12500000  0.79166667  1.0
  Ni  Ni67  1  0.50000000  0.45833333  0.79166667  1.0
  Ni  Ni68  1  0.50000000  0.79166667  0.79166667  1.0
  Ni  Ni69  1  0.83333333  0.12500000  0.79166667  1.0
  Ni  Ni70  1  0.83333333  0.45833333  0.79166667  1.0
  Ni  Ni71  1  0.83333333  0.79166667  0.79166667  1.0
  Ni  Ni72  1  0.25000000  0.23611111  0.81944444  1.0
  Ni  Ni73  1  0.25000000  0.56944444  0.81944444  1.0
  Ni  Ni74  1  0.25000000  0.90277778  0.81944444  1.0
  Ni  Ni75  1  0.58333333  0.23611111  0.81944444  1.0
  Ni  Ni76  1  0.58333333  0.56944444  0.81944444  1.0
  Ni  Ni77  1  0.58333333  0.90277778  0.81944444  1.0
  Ni  Ni78  1  0.91666667  0.23611111  0.81944444  1.0
  Ni  Ni79  1  0.91666667  0.56944444  0.81944444  1.0
  Ni  Ni80  1  0.91666667  0.90277778  0.81944444  1.0
  Ni  Ni81  1  0.08333333  0.12500000  0.87500000  1.0
  Ni  Ni82  1  0.08333333  0.45833333  0.87500000  1.0
  Ni  Ni83  1  0.08333333  0.79166667  0.87500000  1.0
  Ni  Ni84  1  0.41666667  0.12500000  0.87500000  1.0
  Ni  Ni85  1  0.41666667  0.45833333  0.87500000  1.0
  Ni  Ni86  1  0.41666667  0.79166667  0.87500000  1.0
  Ni  Ni87  1  0.75000000  0.12500000  0.87500000  1.0
  Ni  Ni88  1  0.75000000  0.45833333  0.87500000  1.0
  Ni  Ni89  1  0.75000000  0.79166667  0.87500000  1.0
  Ni  Ni90  1  0.08333333  0.23611111  0.81944444  1.0
  Ni  Ni91  1  0.08333333  0.56944444  0.81944444  1.0
  Ni  Ni92  1  0.08333333  0.90277778  0.81944444  1.0
  Ni  Ni93  1  0.41666667  0.23611111  0.81944444  1.0
  Ni  Ni94  1  0.41666667  0.56944444  0.81944444  1.0
  Ni  Ni95  1  0.41666667  0.90277778  0.81944444  1.0
  Ni  Ni96  1  0.75000000  0.23611111  0.81944444  1.0
  Ni  Ni97  1  0.75000000  0.56944444  0.81944444  1.0
  Ni  Ni98  1  0.75000000  0.90277778  0.81944444  1.0
  Ni  Ni99  1  0.25000000  0.12500000  0.87500000  1.0
  Ni  Ni100  1  0.25000000  0.45833333  0.87500000  1.0
  Ni  Ni101  1  0.25000000  0.79166667  0.87500000  1.0
  Ni  Ni102  1  0.58333333  0.12500000  0.87500000  1.0
  Ni  Ni103  1  0.58333333  0.45833333  0.87500000  1.0
  Ni  Ni104  1  0.58333333  0.79166667  0.87500000  1.0
  Ni  Ni105  1  0.91666667  0.12500000  0.87500000  1.0
  Ni  Ni106  1  0.91666667  0.45833333  0.87500000  1.0
  Ni  Ni107  1  0.91666667  0.79166667  0.87500000  1.0
  Ni  Ni108  1  0.00000000  0.23611111  0.73611111  1.0
  Ni  Ni109  1  0.00000000  0.56944444  0.73611111  1.0
  Ni  Ni110  1  0.00000000  0.90277778  0.73611111  1.0
  Ni  Ni111  1  0.33333333  0.23611111  0.73611111  1.0
  Ni  Ni112  1  0.33333333  0.56944444  0.73611111  1.0
  Ni  Ni113  1  0.33333333  0.90277778  0.73611111  1.0
  Ni  Ni114  1  0.66666667  0.23611111  0.73611111  1.0
  Ni  Ni115  1  0.66666667  0.56944444  0.73611111  1.0
  Ni  Ni116  1  0.66666667  0.90277778  0.73611111  1.0
  Ni  Ni117  1  0.16666667  0.01388889  0.68055556  1.0
  Ni  Ni118  1  0.16666667  0.34722222  0.68055556  1.0
  Ni  Ni119  1  0.16666667  0.68055556  0.68055556  1.0
  Ni  Ni120  1  0.50000000  0.01388889  0.68055556  1.0
  Ni  Ni121  1  0.50000000  0.34722222  0.68055556  1.0
  Ni  Ni122  1  0.50000000  0.68055556  0.68055556  1.0
  Ni  Ni123  1  0.83333333  0.01388889  0.68055556  1.0
  Ni  Ni124  1  0.83333333  0.34722222  0.68055556  1.0
  Ni  Ni125  1  0.83333333  0.68055556  0.68055556  1.0
  Ni  Ni126  1  0.25000000  0.12500000  0.70833333  1.0
  Ni  Ni127  1  0.25000000  0.45833333  0.70833333  1.0
  Ni  Ni128  1  0.25000000  0.79166667  0.70833333  1.0
  Ni  Ni129  1  0.58333333  0.12500000  0.70833333  1.0
  Ni  Ni130  1  0.58333333  0.45833333  0.70833333  1.0
  Ni  Ni131  1  0.58333333  0.79166667  0.70833333  1.0
  Ni  Ni132  1  0.91666667  0.12500000  0.70833333  1.0
  Ni  Ni133  1  0.91666667  0.45833333  0.70833333  1.0
  Ni  Ni134  1  0.91666667  0.79166667  0.70833333  1.0
  Ni  Ni135  1  0.08333333  0.01388889  0.76388889  1.0
  Ni  Ni136  1  0.08333333  0.34722222  0.76388889  1.0
  Ni  Ni137  1  0.08333333  0.68055556  0.76388889  1.0
  Ni  Ni138  1  0.41666667  0.01388889  0.76388889  1.0
  Ni  Ni139  1  0.41666667  0.34722222  0.76388889  1.0
  Ni  Ni140  1  0.41666667  0.68055556  0.76388889  1.0
  Ni  Ni141  1  0.75000000  0.01388889  0.76388889  1.0
  Ni  Ni142  1  0.75000000  0.34722222  0.76388889  1.0
  Ni  Ni143  1  0.75000000  0.68055556  0.76388889  1.0
  Ni  Ni144  1  0.08333333  0.12500000  0.70833333  1.0
  Ni  Ni145  1  0.08333333  0.45833333  0.70833333  1.0
  Ni  Ni146  1  0.08333333  0.79166667  0.70833333  1.0
  Ni  Ni147  1  0.41666667  0.12500000  0.70833333  1.0
  Ni  Ni148  1  0.41666667  0.45833333  0.70833333  1.0
  Ni  Ni149  1  0.41666667  0.79166667  0.70833333  1.0
  Ni  Ni150  1  0.75000000  0.12500000  0.70833333  1.0
  Ni  Ni151  1  0.75000000  0.45833333  0.70833333  1.0
  Ni  Ni152  1  0.75000000  0.79166667  0.70833333  1.0
  Ni  Ni153  1  0.25000000  0.01388889  0.76388889  1.0
  Ni  Ni154  1  0.25000000  0.34722222  0.76388889  1.0
  Ni  Ni155  1  0.25000000  0.68055556  0.76388889  1.0
  Ni  Ni156  1  0.58333333  0.01388889  0.76388889  1.0
  Ni  Ni157  1  0.58333333  0.34722222  0.76388889  1.0
  Ni  Ni158  1  0.58333333  0.68055556  0.76388889  1.0
  Ni  Ni159  1  0.91666667  0.01388889  0.76388889  1.0
  Ni  Ni160  1  0.91666667  0.34722222  0.76388889  1.0
  Ni  Ni161  1  0.91666667  0.68055556  0.76388889  1.0
  Ni  Ni162  1  0.00000000  0.12500000  0.62500000  1.0
  Ni  Ni163  1  0.00000000  0.45833333  0.62500000  1.0
  Ni  Ni164  1  0.00000000  0.79166667  0.62500000  1.0
  Ni  Ni165  1  0.33333333  0.12500000  0.62500000  1.0
  Ni  Ni166  1  0.33333333  0.45833333  0.62500000  1.0
  Ni  Ni167  1  0.33333333  0.79166667  0.62500000  1.0
  Ni  Ni168  1  0.66666667  0.12500000  0.62500000  1.0
  Ni  Ni169  1  0.66666667  0.45833333  0.62500000  1.0
  Ni  Ni170  1  0.66666667  0.79166667  0.62500000  1.0
  Ni  Ni171  1  0.16666667  0.23611111  0.56944444  1.0
  Ni  Ni172  1  0.16666667  0.56944444  0.56944444  1.0
  Ni  Ni173  1  0.16666667  0.90277778  0.56944444  1.0
  Ni  Ni174  1  0.50000000  0.23611111  0.56944444  1.0
  Ni  Ni175  1  0.50000000  0.56944444  0.56944444  1.0
  Ni  Ni176  1  0.50000000  0.90277778  0.56944444  1.0
  Ni  Ni177  1  0.83333333  0.23611111  0.56944444  1.0
  Ni  Ni178  1  0.83333333  0.56944444  0.56944444  1.0
  Ni  Ni179  1  0.83333333  0.90277778  0.56944444  1.0
  Ni  Ni180  1  0.25000000  0.01388889  0.59722222  1.0
  Ni  Ni181  1  0.25000000  0.34722222  0.59722222  1.0
  Ni  Ni182  1  0.25000000  0.68055556  0.59722222  1.0
  Ni  Ni183  1  0.58333333  0.01388889  0.59722222  1.0
  Ni  Ni184  1  0.58333333  0.34722222  0.59722222  1.0
  Ni  Ni185  1  0.58333333  0.68055556  0.59722222  1.0
  Ni  Ni186  1  0.91666667  0.01388889  0.59722222  1.0
  Ni  Ni187  1  0.91666667  0.34722222  0.59722222  1.0
  Ni  Ni188  1  0.91666667  0.68055556  0.59722222  1.0
  Ni  Ni189  1  0.08333333  0.23611111  0.65277778  1.0
  Ni  Ni190  1  0.08333333  0.56944444  0.65277778  1.0
  Ni  Ni191  1  0.08333333  0.90277778  0.65277778  1.0
  Ni  Ni192  1  0.41666667  0.23611111  0.65277778  1.0
  Ni  Ni193  1  0.41666667  0.56944444  0.65277778  1.0
  Ni  Ni194  1  0.41666667  0.90277778  0.65277778  1.0
  Ni  Ni195  1  0.75000000  0.23611111  0.65277778  1.0
  Ni  Ni196  1  0.75000000  0.56944444  0.65277778  1.0
  Ni  Ni197  1  0.75000000  0.90277778  0.65277778  1.0
  Ni  Ni198  1  0.08333333  0.01388889  0.59722222  1.0
  Ni  Ni199  1  0.08333333  0.34722222  0.59722222  1.0
  Ni  Ni200  1  0.08333333  0.68055556  0.59722222  1.0
  Ni  Ni201  1  0.41666667  0.01388889  0.59722222  1.0
  Ni  Ni202  1  0.41666667  0.34722222  0.59722222  1.0
  Ni  Ni203  1  0.41666667  0.68055556  0.59722222  1.0
  Ni  Ni204  1  0.75000000  0.01388889  0.59722222  1.0
  Ni  Ni205  1  0.75000000  0.34722222  0.59722222  1.0
  Ni  Ni206  1  0.75000000  0.68055556  0.59722222  1.0
  Ni  Ni207  1  0.25000000  0.23611111  0.65277778  1.0
  Ni  Ni208  1  0.25000000  0.56944444  0.65277778  1.0
  Ni  Ni209  1  0.25000000  0.90277778  0.65277778  1.0
  Ni  Ni210  1  0.58333333  0.23611111  0.65277778  1.0
  Ni  Ni211  1  0.58333333  0.56944444  0.65277778  1.0
  Ni  Ni212  1  0.58333333  0.90277778  0.65277778  1.0
  Ni  Ni213  1  0.91666667  0.23611111  0.65277778  1.0
  Ni  Ni214  1  0.91666667  0.56944444  0.65277778  1.0
  Ni  Ni215  1  0.91666667  0.90277778  0.65277778  1.0
  Sn  Sn216  1  0.00000000  0.23611111  0.90277778  1.0
  Sn  Sn217  1  0.00000000  0.56944444  0.90277778  1.0
  Sn  Sn218  1  0.00000000  0.90277778  0.90277778  1.0
  Sn  Sn219  1  0.33333333  0.23611111  0.90277778  1.0
  Sn  Sn220  1  0.33333333  0.56944444  0.90277778  1.0
  Sn  Sn221  1  0.33333333  0.90277778  0.90277778  1.0
  Sn  Sn222  1  0.66666667  0.23611111  0.90277778  1.0
  Sn  Sn223  1  0.66666667  0.56944444  0.90277778  1.0
  Sn  Sn224  1  0.66666667  0.90277778  0.90277778  1.0
  Sn  Sn225  1  0.16666667  0.12500000  0.95833333  1.0
  Sn  Sn226  1  0.16666667  0.45833333  0.95833333  1.0
  Sn  Sn227  1  0.16666667  0.79166667  0.95833333  1.0
  Sn  Sn228  1  0.50000000  0.12500000  0.95833333  1.0
  Sn  Sn229  1  0.50000000  0.45833333  0.95833333  1.0
  Sn  Sn230  1  0.50000000  0.79166667  0.95833333  1.0
  Sn  Sn231  1  0.83333333  0.12500000  0.95833333  1.0
  Sn  Sn232  1  0.83333333  0.45833333  0.95833333  1.0
  Sn  Sn233  1  0.83333333  0.79166667  0.95833333  1.0
  Sn  Sn234  1  0.00000000  0.12500000  0.79166667  1.0
  Sn  Sn235  1  0.00000000  0.45833333  0.79166667  1.0
  Sn  Sn236  1  0.00000000  0.79166667  0.79166667  1.0
  Sn  Sn237  1  0.33333333  0.12500000  0.79166667  1.0
  Sn  Sn238  1  0.33333333  0.45833333  0.79166667  1.0
  Sn  Sn239  1  0.33333333  0.79166667  0.79166667  1.0
  Sn  Sn240  1  0.66666667  0.12500000  0.79166667  1.0
  Sn  Sn241  1  0.66666667  0.45833333  0.79166667  1.0
  Sn  Sn242  1  0.66666667  0.79166667  0.79166667  1.0
  Sn  Sn243  1  0.16666667  0.01388889  0.84722222  1.0
  Sn  Sn244  1  0.16666667  0.34722222  0.84722222  1.0
  Sn  Sn245  1  0.16666667  0.68055556  0.84722222  1.0
  Sn  Sn246  1  0.50000000  0.01388889  0.84722222  1.0
  Sn  Sn247  1  0.50000000  0.34722222  0.84722222  1.0
  Sn  Sn248  1  0.50000000  0.68055556  0.84722222  1.0
  Sn  Sn249  1  0.83333333  0.01388889  0.84722222  1.0
  Sn  Sn250  1  0.83333333  0.34722222  0.84722222  1.0
  Sn  Sn251  1  0.83333333  0.68055556  0.84722222  1.0
  Sn  Sn252  1  0.00000000  0.01388889  0.68055556  1.0
  Sn  Sn253  1  0.00000000  0.34722222  0.68055556  1.0
  Sn  Sn254  1  0.00000000  0.68055556  0.68055556  1.0
  Sn  Sn255  1  0.33333333  0.01388889  0.68055556  1.0
  Sn  Sn256  1  0.33333333  0.34722222  0.68055556  1.0
  Sn  Sn257  1  0.33333333  0.68055556  0.68055556  1.0
  Sn  Sn258  1  0.66666667  0.01388889  0.68055556  1.0
  Sn  Sn259  1  0.66666667  0.34722222  0.68055556  1.0
  Sn  Sn260  1  0.66666667  0.68055556  0.68055556  1.0
  Sn  Sn261  1  0.16666667  0.23611111  0.73611111  1.0
  Sn  Sn262  1  0.16666667  0.56944444  0.73611111  1.0
  Sn  Sn263  1  0.16666667  0.90277778  0.73611111  1.0
  Sn  Sn264  1  0.50000000  0.23611111  0.73611111  1.0
  Sn  Sn265  1  0.50000000  0.56944444  0.73611111  1.0
  Sn  Sn266  1  0.50000000  0.90277778  0.73611111  1.0
  Sn  Sn267  1  0.83333333  0.23611111  0.73611111  1.0
  Sn  Sn268  1  0.83333333  0.56944444  0.73611111  1.0
  Sn  Sn269  1  0.83333333  0.90277778  0.73611111  1.0
  Sn  Sn270  1  0.00000000  0.23611111  0.56944444  1.0
  Sn  Sn271  1  0.00000000  0.56944444  0.56944444  1.0
  Sn  Sn272  1  0.00000000  0.90277778  0.56944444  1.0
  Sn  Sn273  1  0.33333333  0.23611111  0.56944444  1.0
  Sn  Sn274  1  0.33333333  0.56944444  0.56944444  1.0
  Sn  Sn275  1  0.33333333  0.90277778  0.56944444  1.0
  Sn  Sn276  1  0.66666667  0.23611111  0.56944444  1.0
  Sn  Sn277  1  0.66666667  0.56944444  0.56944444  1.0
  Sn  Sn278  1  0.66666667  0.90277778  0.56944444  1.0
  Sn  Sn279  1  0.16666667  0.12500000  0.62500000  1.0
  Sn  Sn280  1  0.16666667  0.45833333  0.62500000  1.0
  Sn  Sn281  1  0.16666667  0.79166667  0.62500000  1.0
  Sn  Sn282  1  0.50000000  0.12500000  0.62500000  1.0
  Sn  Sn283  1  0.50000000  0.45833333  0.62500000  1.0
  Sn  Sn284  1  0.50000000  0.79166667  0.62500000  1.0
  Sn  Sn285  1  0.83333333  0.12500000  0.62500000  1.0
  Sn  Sn286  1  0.83333333  0.45833333  0.62500000  1.0
  Sn  Sn287  1  0.83333333  0.79166667  0.62500000  1.0
