# generated using pymatgen
data_Ni3Sn4
_symmetry_space_group_name_H-M   'P 1'
_cell_length_a   12.28176600
_cell_length_b   32.73732475
_cell_length_c   32.36247290
_cell_angle_alpha   110.67027847
_cell_angle_beta   108.43661441
_cell_angle_gamma   79.18838283
_symmetry_Int_Tables_number   1
_chemical_formula_structural   Ni3Sn4
_chemical_formula_sum   'Ni108 Sn144'
_cell_volume   11507.21041885
_cell_formula_units_Z   36
loop_
 _symmetry_equiv_pos_site_id
 _symmetry_equiv_pos_as_xyz
  1  'x, y, z'
loop_
 _atom_site_type_symbol
 _atom_site_label
 _atom_site_symmetry_multiplicity
 _atom_site_fract_x
 _atom_site_fract_y
 _atom_site_fract_z
 _atom_site_occupancy
  Ni  Ni0  1  0.00000000  0.16666667  0.09247275  1.0
  Ni  Ni1  1  0.00000000  0.50000000  0.09247275  1.0
  Ni  Ni2  1  0.00000000  0.83333333  0.09247275  1.0
  Ni  Ni3  1  0.33333333  0.16666667  0.09247275  1.0
  Ni  Ni4  1  0.33333333  0.50000000  0.09247275  1.0
  Ni  Ni5  1  0.33333333  0.83333333  0.09247275  1.0
  Ni  Ni6  1  0.66666667  0.16666667  0.09247275  1.0
  Ni  Ni7  1  0.66666667  0.50000000  0.09247275  1.0
  Ni  Ni8  1  0.66666667  0.83333333  0.09247275  1.0
  Ni  Ni9  1  0.00000000  0.00000000  0.19247275  1.0
  Ni  Ni10  1  0.00000000  0.33333333  0.19247275  1.0
  Ni  Ni11  1  0.00000000  0.66666667  0.19247275  1.0
  Ni  Ni12  1  0.33333333  0.00000000  0.19247275  1.0
  Ni  Ni13  1  0.33333333  0.33333333  0.19247275  1.0
  Ni  Ni14  1  0.33333333  0.66666667  0.19247275  1.0
  Ni  Ni15  1  0.66666667  0.00000000  0.19247275  1.0
  Ni  Ni16  1  0.66666667  0.33333333  0.19247275  1.0
  Ni  Ni17  1  0.66666667  0.66666667  0.19247275  1.0
  Ni  Ni18  1  0.26137867  0.05608333  0.13977715  1.0
  Ni  Ni19  1  0.26137867  0.38941667  0.13977715  1.0
  Ni  Ni20  1  0.26137867  0.72275000  0.13977715  1.0
  Ni  Ni21  1  0.59471200  0.05608333  0.13977715  1.0
  Ni  Ni22  1  0.59471200  0.38941667  0.13977715  1.0
  Ni  Ni23  1  0.59471200  0.72275000  0.13977715  1.0
  Ni  Ni24  1  0.92804533  0.05608333  0.13977715  1.0
  Ni  Ni25  1  0.92804533  0.38941667  0.13977715  1.0
  Ni  Ni26  1  0.92804533  0.72275000  0.13977715  1.0
  Ni  Ni27  1  0.26137867  0.22275000  0.03977715  1.0
  Ni  Ni28  1  0.26137867  0.55608333  0.03977715  1.0
  Ni  Ni29  1  0.26137867  0.88941667  0.03977715  1.0
  Ni  Ni30  1  0.59471200  0.22275000  0.03977715  1.0
  Ni  Ni31  1  0.59471200  0.55608333  0.03977715  1.0
  Ni  Ni32  1  0.59471200  0.88941667  0.03977715  1.0
  Ni  Ni33  1  0.92804533  0.22275000  0.03977715  1.0
  Ni  Ni34  1  0.92804533  0.55608333  0.03977715  1.0
  Ni  Ni35  1  0.92804533  0.88941667  0.03977715  1.0
  Ni  Ni36  1  0.07195467  0.11058333  0.14516835  1.0
  Ni  Ni37  1  0.07195467  0.44391667  0.14516835  1.0
  Ni  Ni38  1  0.07195467  0.77725000  0.14516835  1.0
  Ni  Ni39  1  0.40528800  0.11058333  0.14516835  1.0
  Ni  Ni40  1  0.40528800  0.44391667  0.14516835  1.0
  Ni  Ni41  1  0.40528800  0.77725000  0.14516835  1.0
  Ni  Ni42  1  0.73862133  0.11058333  0.14516835  1.0
  Ni  Ni43  1  0.73862133  0.44391667  0.14516835  1.0
  Ni  Ni44  1  0.73862133  0.77725000  0.14516835  1.0
  Ni  Ni45  1  0.07195467  0.27725000  0.04516835  1.0
  Ni  Ni46  1  0.07195467  0.61058333  0.04516835  1.0
  Ni  Ni47  1  0.07195467  0.94391667  0.04516835  1.0
  Ni  Ni48  1  0.40528800  0.27725000  0.04516835  1.0
  Ni  Ni49  1  0.40528800  0.61058333  0.04516835  1.0
  Ni  Ni50  1  0.40528800  0.94391667  0.04516835  1.0
  Ni  Ni51  1  0.73862133  0.27725000  0.04516835  1.0
  Ni  Ni52  1  0.73862133  0.61058333  0.04516835  1.0
  Ni  Ni53  1  0.73862133  0.94391667  0.04516835  1.0
  Sn  Sn54  1  0.19057633  0.11457383  0.08990865  1.0
  Sn  Sn55  1  0.19057633  0.44790717  0.08990865  1.0
  Sn  Sn56  1  0.19057633  0.78124050  0.08990865  1.0
  Sn  Sn57  1  0.52390967  0.11457383  0.08990865  1.0
  Sn  Sn58  1  0.52390967  0.44790717  0.08990865  1.0
  Sn  Sn59  1  0.52390967  0.78124050  0.08990865  1.0
  Sn  Sn60  1  0.85724300  0.11457383  0.08990865  1.0
  Sn  Sn61  1  0.85724300  0.44790717  0.08990865  1.0
  Sn  Sn62  1  0.85724300  0.78124050  0.08990865  1.0
  Sn  Sn63  1  0.19057633  0.28124050  0.18990865  1.0
  Sn  Sn64  1  0.19057633  0.61457383  0.18990865  1.0
  Sn  Sn65  1  0.19057633  0.94790717  0.18990865  1.0
  Sn  Sn66  1  0.52390967  0.28124050  0.18990865  1.0
  Sn  Sn67  1  0.52390967  0.61457383  0.18990865  1.0
  Sn  Sn68  1  0.52390967  0.94790717  0.18990865  1.0
  Sn  Sn69  1  0.85724300  0.28124050  0.18990865  1.0
  Sn  Sn70  1  0.85724300  0.61457383  0.18990865  1.0
  Sn  Sn71  1  0.85724300  0.94790717  0.18990865  1.0
  Sn  Sn72  1  0.14275700  0.05209283  0.19503685  1.0
  Sn  Sn73  1  0.14275700  0.38542617  0.19503685  1.0
  Sn  Sn74  1  0.14275700  0.71875950  0.19503685  1.0
  Sn  Sn75  1  0.47609033  0.05209283  0.19503685  1.0
  Sn  Sn76  1  0.47609033  0.38542617  0.19503685  1.0
  Sn  Sn77  1  0.47609033  0.71875950  0.19503685  1.0
  Sn  Sn78  1  0.80942367  0.05209283  0.19503685  1.0
  Sn  Sn79  1  0.80942367  0.38542617  0.19503685  1.0
  Sn  Sn80  1  0.80942367  0.71875950  0.19503685  1.0
  Sn  Sn81  1  0.14275700  0.21875950  0.09503685  1.0
  Sn  Sn82  1  0.14275700  0.55209283  0.09503685  1.0
  Sn  Sn83  1  0.14275700  0.88542617  0.09503685  1.0
  Sn  Sn84  1  0.47609033  0.21875950  0.09503685  1.0
  Sn  Sn85  1  0.47609033  0.55209283  0.09503685  1.0
  Sn  Sn86  1  0.47609033  0.88542617  0.09503685  1.0
  Sn  Sn87  1  0.80942367  0.21875950  0.09503685  1.0
  Sn  Sn88  1  0.80942367  0.55209283  0.09503685  1.0
  Sn  Sn89  1  0.80942367  0.88542617  0.09503685  1.0
  Sn  Sn90  1  0.27605733  0.13536933  0.00496315  1.0
  Sn  Sn91  1  0.27605733  0.46870267  0.00496315  1.0
  Sn  Sn92  1  0.27605733  0.80203600  0.00496315  1.0
  Sn  Sn93  1  0.60939067  0.13536933  0.00496315  1.0
  Sn  Sn94  1  0.60939067  0.46870267  0.00496315  1.0
  Sn  Sn95  1  0.60939067  0.80203600  0.00496315  1.0
  Sn  Sn96  1  0.94272400  0.13536933  0.00496315  1.0
  Sn  Sn97  1  0.94272400  0.46870267  0.00496315  1.0
  Sn  Sn98  1  0.94272400  0.80203600  0.00496315  1.0
  Sn  Sn99  1  0.27605733  0.30203600  0.10496315  1.0
  Sn  Sn100  1  0.27605733  0.63536933  0.10496315  1.0
  Sn  Sn101  1  0.27605733  0.96870267  0.10496315  1.0
  Sn  Sn102  1  0.60939067  0.30203600  0.10496315  1.0
  Sn  Sn103  1  0.60939067  0.63536933  0.10496315  1.0
  Sn  Sn104  1  0.60939067  0.96870267  0.10496315  1.0
  Sn  Sn105  1  0.94272400  0.30203600  0.10496315  1.0
  Sn  Sn106  1  0.94272400  0.63536933  0.10496315  1.0
  Sn  Sn107  1  0.94272400  0.96870267  0.10496315  1.0
  Sn  Sn108  1  0.05727600  0.03129733  0.07998235  1.0
  Sn  Sn109  1  0.05727600  0.36463067  0.07998235  1.0
  Sn  Sn110  1  0.05727600  0.69796400  0.07998235  1.0
  Sn  Sn111  1  0.39060933  0.03129733  0.07998235  1.0
  Sn  Sn112  1  0.39060933  0.36463067  0.07998235  1.0
  Sn  Sn113  1  0.39060933  0.69796400  0.07998235  1.0
  Sn  Sn114  1  0.72394267  0.03129733  0.07998235  1.0
  Sn  Sn115  1  0.72394267  0.36463067  0.07998235  1.0
  Sn  Sn116  1  0.72394267  0.69796400  0.07998235  1.0
  Sn  Sn117  1  0.05727600  0.19796400  0.17998235  1.0
  Sn  Sn118  1  0.05727600  0.53129733  0.17998235  1.0
  Sn  Sn119  1  0.05727600  0.86463067  0.17998235  1.0
  Sn  Sn120  1  0.39060933  0.19796400  0.17998235  1.0
  Sn  Sn121  1  0.39060933  0.53129733  0.17998235  1.0
  Sn  Sn122  1  0.39060933  0.86463067  0.17998235  1.0
  Sn  Sn123  1  0.72394267  0.19796400  0.17998235  1.0
  Sn  Sn124  1  0.72394267  0.53129733  0.17998235  1.0
  Sn  Sn125  1  0.72394267  0.86463067  0.17998235  1.0
  Ni  Ni126  1  0.00000000  0.16666667  0.29247275  1.0
  Ni  Ni127  1  0.00000000  0.50000000  0.29247275  1.0
  Ni  Ni128  1  0.00000000  0.83333333  0.29247275  1.0
  Ni  Ni129  1  0.33333333  0.16666667  0.29247275  1.0
  Ni  Ni130  1  0.33333333  0.50000000  0.29247275  1.0
  Ni  Ni131  1  0.33333333  0.83333333  0.29247275  1.0
  Ni  Ni132  1  0.66666667  0.16666667  0.29247275  1.0
  Ni  Ni133  1  0.66666667  0.50000000  0.29247275  1.0
  Ni  Ni134  1  0.66666667  0.83333333  0.29247275  1.0
  Ni  Ni135  1  0.00000000  0.00000000  0.39247275  1.0
  Ni  Ni136  1  0.00000000  0.33333333  0.39247275  1.0
  Ni  Ni137  1  0.00000000  0.66666667  0.39247275  1.0
  Ni  Ni138  1  0.33333333  0.00000000  0.39247275  1.0
  Ni  Ni139  1  0.33333333  0.33333333  0.39247275  1.0
  Ni  Ni140  1  0.33333333  0.66666667  0.39247275  1.0
  Ni  Ni141  1  0.66666667  0.00000000  0.39247275  1.0
  Ni  Ni142  1  0.66666667  0.33333333  0.39247275  1.0
  Ni  Ni143  1  0.66666667  0.66666667  0.39247275  1.0
  Ni  Ni144  1  0.26137867  0.05608333  0.33977715  1.0
  Ni  Ni145  1  0.26137867  0.38941667  0.33977715  1.0
  Ni  Ni146  1  0.26137867  0.72275000  0.33977715  1.0
  Ni  Ni147  1  0.59471200  0.05608333  0.33977715  1.0
  Ni  Ni148  1  0.59471200  0.38941667  0.33977715  1.0
  Ni  Ni149  1  0.59471200  0.72275000  0.33977715  1.0
  Ni  Ni150  1  0.92804533  0.05608333  0.33977715  1.0
  Ni  Ni151  1  0.92804533  0.38941667  0.33977715  1.0
  Ni  Ni152  1  0.92804533  0.72275000  0.33977715  1.0
  Ni  Ni153  1  0.26137867  0.22275000  0.23977715  1.0
  Ni  Ni154  1  0.26137867  0.55608333  0.23977715  1.0
  Ni  Ni155  1  0.26137867  0.88941667  0.23977715  1.0
  Ni  Ni156  1  0.59471200  0.22275000  0.23977715  1.0
  Ni  Ni157  1  0.59471200  0.55608333  0.23977715  1.0
  Ni  Ni158  1  0.59471200  0.88941667  0.23977715  1.0
  Ni  Ni159  1  0.92804533  0.22275000  0.23977715  1.0
  Ni  Ni160  1  0.92804533  0.55608333  0.23977715  1.0
  Ni  Ni161  1  0.92804533  0.88941667  0.23977715  1.0
  Ni  Ni162  1  0.07195467  0.11058333  0.34516835  1.0
  Ni  Ni163  1  0.07195467  0.44391667  0.34516835  1.0
  Ni  Ni164  1  0.07195467  0.77725000  0.34516835  1.0
  Ni  Ni165  1  0.40528800  0.11058333  0.34516835  1.0
  Ni  Ni166  1  0.40528800  0.44391667  0.34516835  1.0
  Ni  Ni167  1  0.40528800  0.77725000  0.34516835  1.0
  Ni  Ni168  1  0.73862133  0.11058333  0.34516835  1.0
  Ni  Ni169  1  0.73862133  0.44391667  0.34516835  1.0
  Ni  Ni170  1  0.73862133  0.77725000  0.34516835  1.0
  Ni  Ni171  1  0.07195467  0.27725000  0.24516835  1.0
  Ni  Ni172  1  0.07195467  0.61058333  0.24516835  1.0
  Ni  Ni173  1  0.07195467  0.94391667  0.24516835  1.0
  Ni  Ni174  1  0.40528800  0.27725000  0.24516835  1.0
  Ni  Ni175  1  0.40528800  0.61058333  0.24516835  1.0
  Ni  Ni176  1  0.40528800  0.94391667  0.24516835  1.0
  Ni  Ni177  1  0.73862133  0.27725000  0.24516835  1.0
  Ni  Ni178  1  0.73862133  0.61058333  0.24516835  1.0
  Ni  Ni179  1  0.73862133  0.94391667  0.24516835  1.0
  Sn  Sn180  1  0.19057633  0.11457383  0.28990865  1.0
  Sn  Sn181  1  0.19057633  0.44790717  0.28990865  1.0
  Sn  Sn182  1  0.19057633  0.78124050  0.28990865  1.0
  Sn  Sn183  1  0.52390967  0.11457383  0.28990865  1.0
  Sn  Sn184  1  0.52390967  0.44790717  0.28990865  1.0
  Sn  Sn185  1  0.52390967  0.78124050  0.28990865  1.0
  Sn  Sn186  1  0.85724300  0.11457383  0.28990865  1.0
  Sn  Sn187  1  0.85724300  0.44790717  0.28990865  1.0
  Sn  Sn188  1  0.85724300  0.78124050  0.28990865  1.0
  Sn  Sn189  1  0.19057633  0.28124050  0.38990865  1.0
  Sn  Sn190  1  0.19057633  0.61457383  0.38990865  1.0
  Sn  Sn191  1  0.19057633  0.94790717  0.38990865  1.0
  Sn  Sn192  1  0.52390967  0.28124050  0.38990865  1.0
  Sn  Sn193  1  0.52390967  0.61457383  0.38990865  1.0
  Sn  Sn194  1  0.52390967  0.94790717  0.38990865  1.0
  Sn  Sn195  1  0.85724300  0.28124050  0.38990865  1.0
  Sn  Sn196  1  0.85724300  0.61457383  0.38990865  1.0
  Sn  Sn197  1  0.85724300  0.94790717  0.38990865  1.0
  Sn  Sn198  1  0.14275700  0.05209283  0.39503685  1.0
  Sn  Sn199  1  0.14275700  0.38542617  0.39503685  1.0
  Sn  Sn200  1  0.14275700  0.71875950  0.39503685  1.0
  Sn  Sn201  1  0.47609033  0.05209283  0.39503685  1.0
  Sn  Sn202  1  0.47609033  0.38542617  0.39503685  1.0
  Sn  Sn203  1  0.47609033  0.71875950  0.39503685  1.0
  Sn  Sn204  1  0.80942367  0.05209283  0.39503685  1.0
  Sn  Sn205  1  0.80942367  0.38542617  0.39503685  1.0
  Sn  Sn206  1  0.80942367  0.71875950  0.39503685  1.0
  Sn  Sn207  1  0.14275700  0.21875950  0.29503685  1.0
  Sn  Sn208  1  0.14275700  0.55209283  0.29503685  1.0
  Sn  Sn209  1  0.14275700  0.88542617  0.29503685  1.0
  Sn  Sn210  1  0.47609033  0.21875950  0.29503685  1.0
  Sn  Sn211  1  0.47609033  0.55209283  0.29503685  1.0
  Sn  Sn212  1  0.47609033  0.88542617  0.29503685  1.0
  Sn  Sn213  1  0.80942367  0.21875950  0.29503685  1.0
  Sn  Sn214  1  0.80942367  0.55209283  0.29503685  1.0
  Sn  Sn215  1  0.80942367  0.88542617  0.29503685  1.0
  Sn  Sn216  1  0.27605733  0.13536933  0.20496315  1.0
  Sn  Sn217  1  0.27605733  0.46870267  0.20496315  1.0
  Sn  Sn218  1  0.27605733  0.80203600  0.20496315  1.0
  Sn  Sn219  1  0.60939067  0.13536933  0.20496315  1.0
  Sn  Sn220  1  0.60939067  0.46870267  0.20496315  1.0
  Sn  Sn221  1  0.60939067  0.80203600  0.20496315  1.0
  Sn  Sn222  1  0.94272400  0.13536933  0.20496315  1.0
  Sn  Sn223  1  0.94272400  0.46870267  0.20496315  1.0
  Sn  Sn224  1  0.94272400  0.80203600  0.20496315  1.0
  Sn  Sn225  1  0.27605733  0.30203600  0.30496315  1.0
  Sn  Sn226  1  0.27605733  0.63536933  0.30496315  1.0
  Sn  Sn227  1  0.27605733  0.96870267  0.30496315  1.0
  Sn  Sn228  1  0.60939067  0.30203600  0.30496315  1.0
  Sn  Sn229  1  0.60939067  0.63536933  0.30496315  1.0
  Sn  Sn230  1  0.60939067  0.96870267  0.30496315  1.0
  Sn  Sn231  1  0.94272400  0.30203600  0.30496315  1.0
  Sn  Sn232  1  0.94272400  0.63536933  0.30496315  1.0
  Sn  Sn233  1  0.94272400  0.96870267  0.30496315  1.0
  Sn  Sn234  1  0.05727600  0.03129733  0.27998235  1.0
  Sn  Sn235  1  0.05727600  0.36463067  0.27998235  1.0
  Sn  Sn236  1  0.05727600  0.69796400  0.27998235  1.0
  Sn  Sn237  1  0.39060933  0.03129733  0.27998235  1.0
  Sn  Sn238  1  0.39060933  0.36463067  0.27998235  1.0
  Sn  Sn239  1  0.39060933  0.69796400  0.27998235  1.0
  Sn  Sn240  1  0.72394267  0.03129733  0.27998235  1.0
  Sn  Sn241  1  0.72394267  0.36463067  0.27998235  1.0
  Sn  Sn242  1  0.72394267  0.69796400  0.27998235  1.0
  Sn  Sn243  1  0.05727600  0.19796400  0.37998235  1.0
  Sn  Sn244  1  0.05727600  0.53129733  0.37998235  1.0
  Sn  Sn245  1  0.05727600  0.86463067  0.37998235  1.0
  Sn  Sn246  1  0.39060933  0.19796400  0.37998235  1.0
  Sn  Sn247  1  0.39060933  0.53129733  0.37998235  1.0
  Sn  Sn248  1  0.39060933  0.86463067  0.37998235  1.0
  Sn  Sn249  1  0.72394267  0.19796400  0.37998235  1.0
  Sn  Sn250  1  0.72394267  0.53129733  0.37998235  1.0
  Sn  Sn251  1  0.72394267  0.86463067  0.37998235  1.0
