# generated using pymatgen
data_Ni3Sn4
_symmetry_space_group_name_H-M   'P 1'
_cell_length_a   19.41748374
_cell_length_b   41.01632038
_cell_length_c   51.77995664
_cell_angle_alpha   131.68827553
_cell_angle_beta   143.12677118
_cell_angle_gamma   55.22332050
_symmetry_Int_Tables_number   1
_chemical_formula_structural   Ni3Sn4
_chemical_formula_sum   'Ni162 Sn216'
_cell_volume   18411.53667016
_cell_formula_units_Z   54
loop_
 _symmetry_equiv_pos_site_id
 _symmetry_equiv_pos_as_xyz
  1  'x, y, z'
loop_
 _atom_site_type_symbol
 _atom_site_label
 _atom_site_symmetry_multiplicity
 _atom_site_fract_x
 _atom_site_fract_y
 _atom_site_fract_z
 _atom_site_occupancy
  Ni  Ni0  1  0.00000000  0.00000000  0.12012900  1.0
  Ni  Ni1  1  0.00000000  0.33333333  0.12012900  1.0
  Ni  Ni2  1  0.00000000  0.66666667  0.12012900  1.0
  Ni  Ni3  1  0.33333333  0.00000000  0.12012900  1.0
  Ni  Ni4  1  0.33333333  0.33333333  0.12012900  1.0
  Ni  Ni5  1  0.33333333  0.66666667  0.12012900  1.0
  Ni  Ni6  1  0.66666667  0.00000000  0.12012900  1.0
  Ni  Ni7  1  0.66666667  0.33333333  0.12012900  1.0
  Ni  Ni8  1  0.66666667  0.66666667  0.12012900  1.0
  Ni  Ni9  1  0.00000000  0.16666667  0.05762900  1.0
  Ni  Ni10  1  0.00000000  0.50000000  0.05762900  1.0
  Ni  Ni11  1  0.00000000  0.83333333  0.05762900  1.0
  Ni  Ni12  1  0.33333333  0.16666667  0.05762900  1.0
  Ni  Ni13  1  0.33333333  0.50000000  0.05762900  1.0
  Ni  Ni14  1  0.33333333  0.83333333  0.05762900  1.0
  Ni  Ni15  1  0.66666667  0.16666667  0.05762900  1.0
  Ni  Ni16  1  0.66666667  0.50000000  0.05762900  1.0
  Ni  Ni17  1  0.66666667  0.83333333  0.05762900  1.0
  Ni  Ni18  1  0.07195467  0.11058333  0.00961475  1.0
  Ni  Ni19  1  0.07195467  0.44391667  0.00961475  1.0
  Ni  Ni20  1  0.07195467  0.77725000  0.00961475  1.0
  Ni  Ni21  1  0.40528800  0.11058333  0.00961475  1.0
  Ni  Ni22  1  0.40528800  0.44391667  0.00961475  1.0
  Ni  Ni23  1  0.40528800  0.77725000  0.00961475  1.0
  Ni  Ni24  1  0.73862133  0.11058333  0.00961475  1.0
  Ni  Ni25  1  0.73862133  0.44391667  0.00961475  1.0
  Ni  Ni26  1  0.73862133  0.77725000  0.00961475  1.0
  Ni  Ni27  1  0.07195467  0.27725000  0.07211475  1.0
  Ni  Ni28  1  0.07195467  0.61058333  0.07211475  1.0
  Ni  Ni29  1  0.07195467  0.94391667  0.07211475  1.0
  Ni  Ni30  1  0.40528800  0.27725000  0.07211475  1.0
  Ni  Ni31  1  0.40528800  0.61058333  0.07211475  1.0
  Ni  Ni32  1  0.40528800  0.94391667  0.07211475  1.0
  Ni  Ni33  1  0.73862133  0.27725000  0.07211475  1.0
  Ni  Ni34  1  0.73862133  0.61058333  0.07211475  1.0
  Ni  Ni35  1  0.73862133  0.94391667  0.07211475  1.0
  Ni  Ni36  1  0.26137867  0.05608333  0.04314325  1.0
  Ni  Ni37  1  0.26137867  0.38941667  0.04314325  1.0
  Ni  Ni38  1  0.26137867  0.72275000  0.04314325  1.0
  Ni  Ni39  1  0.59471200  0.05608333  0.04314325  1.0
  Ni  Ni40  1  0.59471200  0.38941667  0.04314325  1.0
  Ni  Ni41  1  0.59471200  0.72275000  0.04314325  1.0
  Ni  Ni42  1  0.92804533  0.05608333  0.04314325  1.0
  Ni  Ni43  1  0.92804533  0.38941667  0.04314325  1.0
  Ni  Ni44  1  0.92804533  0.72275000  0.04314325  1.0
  Ni  Ni45  1  0.26137867  0.22275000  0.10564325  1.0
  Ni  Ni46  1  0.26137867  0.55608333  0.10564325  1.0
  Ni  Ni47  1  0.26137867  0.88941667  0.10564325  1.0
  Ni  Ni48  1  0.59471200  0.22275000  0.10564325  1.0
  Ni  Ni49  1  0.59471200  0.55608333  0.10564325  1.0
  Ni  Ni50  1  0.59471200  0.88941667  0.10564325  1.0
  Ni  Ni51  1  0.92804533  0.22275000  0.10564325  1.0
  Ni  Ni52  1  0.92804533  0.55608333  0.10564325  1.0
  Ni  Ni53  1  0.92804533  0.88941667  0.10564325  1.0
  Sn  Sn54  1  0.14275700  0.05209283  0.08612994  1.0
  Sn  Sn55  1  0.14275700  0.38542617  0.08612994  1.0
  Sn  Sn56  1  0.14275700  0.71875950  0.08612994  1.0
  Sn  Sn57  1  0.47609033  0.05209283  0.08612994  1.0
  Sn  Sn58  1  0.47609033  0.38542617  0.08612994  1.0
  Sn  Sn59  1  0.47609033  0.71875950  0.08612994  1.0
  Sn  Sn60  1  0.80942367  0.05209283  0.08612994  1.0
  Sn  Sn61  1  0.80942367  0.38542617  0.08612994  1.0
  Sn  Sn62  1  0.80942367  0.71875950  0.08612994  1.0
  Sn  Sn63  1  0.14275700  0.21875950  0.02362994  1.0
  Sn  Sn64  1  0.14275700  0.55209283  0.02362994  1.0
  Sn  Sn65  1  0.14275700  0.88542617  0.02362994  1.0
  Sn  Sn66  1  0.47609033  0.21875950  0.02362994  1.0
  Sn  Sn67  1  0.47609033  0.55209283  0.02362994  1.0
  Sn  Sn68  1  0.47609033  0.88542617  0.02362994  1.0
  Sn  Sn69  1  0.80942367  0.21875950  0.02362994  1.0
  Sn  Sn70  1  0.80942367  0.55209283  0.02362994  1.0
  Sn  Sn71  1  0.80942367  0.88542617  0.02362994  1.0
  Sn  Sn72  1  0.19057633  0.11457383  0.09162806  1.0
  Sn  Sn73  1  0.19057633  0.44790717  0.09162806  1.0
  Sn  Sn74  1  0.19057633  0.78124050  0.09162806  1.0
  Sn  Sn75  1  0.52390967  0.11457383  0.09162806  1.0
  Sn  Sn76  1  0.52390967  0.44790717  0.09162806  1.0
  Sn  Sn77  1  0.52390967  0.78124050  0.09162806  1.0
  Sn  Sn78  1  0.85724300  0.11457383  0.09162806  1.0
  Sn  Sn79  1  0.85724300  0.44790717  0.09162806  1.0
  Sn  Sn80  1  0.85724300  0.78124050  0.09162806  1.0
  Sn  Sn81  1  0.19057633  0.28124050  0.02912806  1.0
  Sn  Sn82  1  0.19057633  0.61457383  0.02912806  1.0
  Sn  Sn83  1  0.19057633  0.94790717  0.02912806  1.0
  Sn  Sn84  1  0.52390967  0.28124050  0.02912806  1.0
  Sn  Sn85  1  0.52390967  0.61457383  0.02912806  1.0
  Sn  Sn86  1  0.52390967  0.94790717  0.02912806  1.0
  Sn  Sn87  1  0.85724300  0.28124050  0.02912806  1.0
  Sn  Sn88  1  0.85724300  0.61457383  0.02912806  1.0
  Sn  Sn89  1  0.85724300  0.94790717  0.02912806  1.0
  Sn  Sn90  1  0.05727600  0.03129733  0.11038700  1.0
  Sn  Sn91  1  0.05727600  0.36463067  0.11038700  1.0
  Sn  Sn92  1  0.05727600  0.69796400  0.11038700  1.0
  Sn  Sn93  1  0.39060933  0.03129733  0.11038700  1.0
  Sn  Sn94  1  0.39060933  0.36463067  0.11038700  1.0
  Sn  Sn95  1  0.39060933  0.69796400  0.11038700  1.0
  Sn  Sn96  1  0.72394267  0.03129733  0.11038700  1.0
  Sn  Sn97  1  0.72394267  0.36463067  0.11038700  1.0
  Sn  Sn98  1  0.72394267  0.69796400  0.11038700  1.0
  Sn  Sn99  1  0.05727600  0.19796400  0.04788700  1.0
  Sn  Sn100  1  0.05727600  0.53129733  0.04788700  1.0
  Sn  Sn101  1  0.05727600  0.86463067  0.04788700  1.0
  Sn  Sn102  1  0.39060933  0.19796400  0.04788700  1.0
  Sn  Sn103  1  0.39060933  0.53129733  0.04788700  1.0
  Sn  Sn104  1  0.39060933  0.86463067  0.04788700  1.0
  Sn  Sn105  1  0.72394267  0.19796400  0.04788700  1.0
  Sn  Sn106  1  0.72394267  0.53129733  0.04788700  1.0
  Sn  Sn107  1  0.72394267  0.86463067  0.04788700  1.0
  Sn  Sn108  1  0.27605733  0.13536933  0.06737100  1.0
  Sn  Sn109  1  0.27605733  0.46870267  0.06737100  1.0
  Sn  Sn110  1  0.27605733  0.80203600  0.06737100  1.0
  Sn  Sn111  1  0.60939067  0.13536933  0.06737100  1.0
  Sn  Sn112  1  0.60939067  0.46870267  0.06737100  1.0
  Sn  Sn113  1  0.60939067  0.80203600  0.06737100  1.0
  Sn  Sn114  1  0.94272400  0.13536933  0.06737100  1.0
  Sn  Sn115  1  0.94272400  0.46870267  0.06737100  1.0
  Sn  Sn116  1  0.94272400  0.80203600  0.06737100  1.0
  Sn  Sn117  1  0.27605733  0.30203600  0.00487100  1.0
  Sn  Sn118  1  0.27605733  0.63536933  0.00487100  1.0
  Sn  Sn119  1  0.27605733  0.96870267  0.00487100  1.0
  Sn  Sn120  1  0.60939067  0.30203600  0.00487100  1.0
  Sn  Sn121  1  0.60939067  0.63536933  0.00487100  1.0
  Sn  Sn122  1  0.60939067  0.96870267  0.00487100  1.0
  Sn  Sn123  1  0.94272400  0.30203600  0.00487100  1.0
  Sn  Sn124  1  0.94272400  0.63536933  0.00487100  1.0
  Sn  Sn125  1  0.94272400  0.96870267  0.00487100  1.0
  Ni  Ni126  1  0.00000000  0.00000000  0.24512900  1.0
  Ni  Ni127  1  0.00000000  0.33333333  0.24512900  1.0
  Ni  Ni128  1  0.00000000  0.66666667  0.24512900  1.0
  Ni  Ni129  1  0.33333333  0.00000000  0.24512900  1.0
  Ni  Ni130  1  0.33333333  0.33333333  0.24512900  1.0
  Ni  Ni131  1  0.33333333  0.66666667  0.24512900  1.0
  Ni  Ni132  1  0.66666667  0.00000000  0.24512900  1.0
  Ni  Ni133  1  0.66666667  0.33333333  0.24512900  1.0
  Ni  Ni134  1  0.66666667  0.66666667  0.24512900  1.0
  Ni  Ni135  1  0.00000000  0.16666667  0.18262900  1.0
  Ni  Ni136  1  0.00000000  0.50000000  0.18262900  1.0
  Ni  Ni137  1  0.00000000  0.83333333  0.18262900  1.0
  Ni  Ni138  1  0.33333333  0.16666667  0.18262900  1.0
  Ni  Ni139  1  0.33333333  0.50000000  0.18262900  1.0
  Ni  Ni140  1  0.33333333  0.83333333  0.18262900  1.0
  Ni  Ni141  1  0.66666667  0.16666667  0.18262900  1.0
  Ni  Ni142  1  0.66666667  0.50000000  0.18262900  1.0
  Ni  Ni143  1  0.66666667  0.83333333  0.18262900  1.0
  Ni  Ni144  1  0.07195467  0.11058333  0.13461475  1.0
  Ni  Ni145  1  0.07195467  0.44391667  0.13461475  1.0
  Ni  Ni146  1  0.07195467  0.77725000  0.13461475  1.0
  Ni  Ni147  1  0.40528800  0.11058333  0.13461475  1.0
  Ni  Ni148  1  0.40528800  0.44391667  0.13461475  1.0
  Ni  Ni149  1  0.40528800  0.77725000  0.13461475  1.0
  Ni  Ni150  1  0.73862133  0.11058333  0.13461475  1.0
  Ni  Ni151  1  0.73862133  0.44391667  0.13461475  1.0
  Ni  Ni152  1  0.73862133  0.77725000  0.13461475  1.0
  Ni  Ni153  1  0.07195467  0.27725000  0.19711475  1.0
  Ni  Ni154  1  0.07195467  0.61058333  0.19711475  1.0
  Ni  Ni155  1  0.07195467  0.94391667  0.19711475  1.0
  Ni  Ni156  1  0.40528800  0.27725000  0.19711475  1.0
  Ni  Ni157  1  0.40528800  0.61058333  0.19711475  1.0
  Ni  Ni158  1  0.40528800  0.94391667  0.19711475  1.0
  Ni  Ni159  1  0.73862133  0.27725000  0.19711475  1.0
  Ni  Ni160  1  0.73862133  0.61058333  0.19711475  1.0
  Ni  Ni161  1  0.73862133  0.94391667  0.19711475  1.0
  Ni  Ni162  1  0.26137867  0.05608333  0.16814325  1.0
  Ni  Ni163  1  0.26137867  0.38941667  0.16814325  1.0
  Ni  Ni164  1  0.26137867  0.72275000  0.16814325  1.0
  Ni  Ni165  1  0.59471200  0.05608333  0.16814325  1.0
  Ni  Ni166  1  0.59471200  0.38941667  0.16814325  1.0
  Ni  Ni167  1  0.59471200  0.72275000  0.16814325  1.0
  Ni  Ni168  1  0.92804533  0.05608333  0.16814325  1.0
  Ni  Ni169  1  0.92804533  0.38941667  0.16814325  1.0
  Ni  Ni170  1  0.92804533  0.72275000  0.16814325  1.0
  Ni  Ni171  1  0.26137867  0.22275000  0.23064325  1.0
  Ni  Ni172  1  0.26137867  0.55608333  0.23064325  1.0
  Ni  Ni173  1  0.26137867  0.88941667  0.23064325  1.0
  Ni  Ni174  1  0.59471200  0.22275000  0.23064325  1.0
  Ni  Ni175  1  0.59471200  0.55608333  0.23064325  1.0
  Ni  Ni176  1  0.59471200  0.88941667  0.23064325  1.0
  Ni  Ni177  1  0.92804533  0.22275000  0.23064325  1.0
  Ni  Ni178  1  0.92804533  0.55608333  0.23064325  1.0
  Ni  Ni179  1  0.92804533  0.88941667  0.23064325  1.0
  Sn  Sn180  1  0.14275700  0.05209283  0.21112994  1.0
  Sn  Sn181  1  0.14275700  0.38542617  0.21112994  1.0
  Sn  Sn182  1  0.14275700  0.71875950  0.21112994  1.0
  Sn  Sn183  1  0.47609033  0.05209283  0.21112994  1.0
  Sn  Sn184  1  0.47609033  0.38542617  0.21112994  1.0
  Sn  Sn185  1  0.47609033  0.71875950  0.21112994  1.0
  Sn  Sn186  1  0.80942367  0.05209283  0.21112994  1.0
  Sn  Sn187  1  0.80942367  0.38542617  0.21112994  1.0
  Sn  Sn188  1  0.80942367  0.71875950  0.21112994  1.0
  Sn  Sn189  1  0.14275700  0.21875950  0.14862994  1.0
  Sn  Sn190  1  0.14275700  0.55209283  0.14862994  1.0
  Sn  Sn191  1  0.14275700  0.88542617  0.14862994  1.0
  Sn  Sn192  1  0.47609033  0.21875950  0.14862994  1.0
  Sn  Sn193  1  0.47609033  0.55209283  0.14862994  1.0
  Sn  Sn194  1  0.47609033  0.88542617  0.14862994  1.0
  Sn  Sn195  1  0.80942367  0.21875950  0.14862994  1.0
  Sn  Sn196  1  0.80942367  0.55209283  0.14862994  1.0
  Sn  Sn197  1  0.80942367  0.88542617  0.14862994  1.0
  Sn  Sn198  1  0.19057633  0.11457383  0.21662806  1.0
  Sn  Sn199  1  0.19057633  0.44790717  0.21662806  1.0
  Sn  Sn200  1  0.19057633  0.78124050  0.21662806  1.0
  Sn  Sn201  1  0.52390967  0.11457383  0.21662806  1.0
  Sn  Sn202  1  0.52390967  0.44790717  0.21662806  1.0
  Sn  Sn203  1  0.52390967  0.78124050  0.21662806  1.0
  Sn  Sn204  1  0.85724300  0.11457383  0.21662806  1.0
  Sn  Sn205  1  0.85724300  0.44790717  0.21662806  1.0
  Sn  Sn206  1  0.85724300  0.78124050  0.21662806  1.0
  Sn  Sn207  1  0.19057633  0.28124050  0.15412806  1.0
  Sn  Sn208  1  0.19057633  0.61457383  0.15412806  1.0
  Sn  Sn209  1  0.19057633  0.94790717  0.15412806  1.0
  Sn  Sn210  1  0.52390967  0.28124050  0.15412806  1.0
  Sn  Sn211  1  0.52390967  0.61457383  0.15412806  1.0
  Sn  Sn212  1  0.52390967  0.94790717  0.15412806  1.0
  Sn  Sn213  1  0.85724300  0.28124050  0.15412806  1.0
  Sn  Sn214  1  0.85724300  0.61457383  0.15412806  1.0
  Sn  Sn215  1  0.85724300  0.94790717  0.15412806  1.0
  Sn  Sn216  1  0.05727600  0.03129733  0.23538700  1.0
  Sn  Sn217  1  0.05727600  0.36463067  0.23538700  1.0
  Sn  Sn218  1  0.05727600  0.69796400  0.23538700  1.0
  Sn  Sn219  1  0.39060933  0.03129733  0.23538700  1.0
  Sn  Sn220  1  0.39060933  0.36463067  0.23538700  1.0
  Sn  Sn221  1  0.39060933  0.69796400  0.23538700  1.0
  Sn  Sn222  1  0.72394267  0.03129733  0.23538700  1.0
  Sn  Sn223  1  0.72394267  0.36463067  0.23538700  1.0
  Sn  Sn224  1  0.72394267  0.69796400  0.23538700  1.0
  Sn  Sn225  1  0.05727600  0.19796400  0.17288700  1.0
  Sn  Sn226  1  0.05727600  0.53129733  0.17288700  1.0
  Sn  Sn227  1  0.05727600  0.86463067  0.17288700  1.0
  Sn  Sn228  1  0.39060933  0.19796400  0.17288700  1.0
  Sn  Sn229  1  0.39060933  0.53129733  0.17288700  1.0
  Sn  Sn230  1  0.39060933  0.86463067  0.17288700  1.0
  Sn  Sn231  1  0.72394267  0.19796400  0.17288700  1.0
  Sn  Sn232  1  0.72394267  0.53129733  0.17288700  1.0
  Sn  Sn233  1  0.72394267  0.86463067  0.17288700  1.0
  Sn  Sn234  1  0.27605733  0.13536933  0.19237100  1.0
  Sn  Sn235  1  0.27605733  0.46870267  0.19237100  1.0
  Sn  Sn236  1  0.27605733  0.80203600  0.19237100  1.0
  Sn  Sn237  1  0.60939067  0.13536933  0.19237100  1.0
  Sn  Sn238  1  0.60939067  0.46870267  0.19237100  1.0
  Sn  Sn239  1  0.60939067  0.80203600  0.19237100  1.0
  Sn  Sn240  1  0.94272400  0.13536933  0.19237100  1.0
  Sn  Sn241  1  0.94272400  0.46870267  0.19237100  1.0
  Sn  Sn242  1  0.94272400  0.80203600  0.19237100  1.0
  Sn  Sn243  1  0.27605733  0.30203600  0.12987100  1.0
  Sn  Sn244  1  0.27605733  0.63536933  0.12987100  1.0
  Sn  Sn245  1  0.27605733  0.96870267  0.12987100  1.0
  Sn  Sn246  1  0.60939067  0.30203600  0.12987100  1.0
  Sn  Sn247  1  0.60939067  0.63536933  0.12987100  1.0
  Sn  Sn248  1  0.60939067  0.96870267  0.12987100  1.0
  Sn  Sn249  1  0.94272400  0.30203600  0.12987100  1.0
  Sn  Sn250  1  0.94272400  0.63536933  0.12987100  1.0
  Sn  Sn251  1  0.94272400  0.96870267  0.12987100  1.0
  Ni  Ni252  1  0.00000000  0.00000000  0.37012900  1.0
  Ni  Ni253  1  0.00000000  0.33333333  0.37012900  1.0
  Ni  Ni254  1  0.00000000  0.66666667  0.37012900  1.0
  Ni  Ni255  1  0.33333333  0.00000000  0.37012900  1.0
  Ni  Ni256  1  0.33333333  0.33333333  0.37012900  1.0
  Ni  Ni257  1  0.33333333  0.66666667  0.37012900  1.0
  Ni  Ni258  1  0.66666667  0.00000000  0.37012900  1.0
  Ni  Ni259  1  0.66666667  0.33333333  0.37012900  1.0
  Ni  Ni260  1  0.66666667  0.66666667  0.37012900  1.0
  Ni  Ni261  1  0.00000000  0.16666667  0.30762900  1.0
  Ni  Ni262  1  0.00000000  0.50000000  0.30762900  1.0
  Ni  Ni263  1  0.00000000  0.83333333  0.30762900  1.0
  Ni  Ni264  1  0.33333333  0.16666667  0.30762900  1.0
  Ni  Ni265  1  0.33333333  0.50000000  0.30762900  1.0
  Ni  Ni266  1  0.33333333  0.83333333  0.30762900  1.0
  Ni  Ni267  1  0.66666667  0.16666667  0.30762900  1.0
  Ni  Ni268  1  0.66666667  0.50000000  0.30762900  1.0
  Ni  Ni269  1  0.66666667  0.83333333  0.30762900  1.0
  Ni  Ni270  1  0.07195467  0.11058333  0.25961475  1.0
  Ni  Ni271  1  0.07195467  0.44391667  0.25961475  1.0
  Ni  Ni272  1  0.07195467  0.77725000  0.25961475  1.0
  Ni  Ni273  1  0.40528800  0.11058333  0.25961475  1.0
  Ni  Ni274  1  0.40528800  0.44391667  0.25961475  1.0
  Ni  Ni275  1  0.40528800  0.77725000  0.25961475  1.0
  Ni  Ni276  1  0.73862133  0.11058333  0.25961475  1.0
  Ni  Ni277  1  0.73862133  0.44391667  0.25961475  1.0
  Ni  Ni278  1  0.73862133  0.77725000  0.25961475  1.0
  Ni  Ni279  1  0.07195467  0.27725000  0.32211475  1.0
  Ni  Ni280  1  0.07195467  0.61058333  0.32211475  1.0
  Ni  Ni281  1  0.07195467  0.94391667  0.32211475  1.0
  Ni  Ni282  1  0.40528800  0.27725000  0.32211475  1.0
  Ni  Ni283  1  0.40528800  0.61058333  0.32211475  1.0
  Ni  Ni284  1  0.40528800  0.94391667  0.32211475  1.0
  Ni  Ni285  1  0.73862133  0.27725000  0.32211475  1.0
  Ni  Ni286  1  0.73862133  0.61058333  0.32211475  1.0
  Ni  Ni287  1  0.73862133  0.94391667  0.32211475  1.0
  Ni  Ni288  1  0.26137867  0.05608333  0.29314325  1.0
  Ni  Ni289  1  0.26137867  0.38941667  0.29314325  1.0
  Ni  Ni290  1  0.26137867  0.72275000  0.29314325  1.0
  Ni  Ni291  1  0.59471200  0.05608333  0.29314325  1.0
  Ni  Ni292  1  0.59471200  0.38941667  0.29314325  1.0
  Ni  Ni293  1  0.59471200  0.72275000  0.29314325  1.0
  Ni  Ni294  1  0.92804533  0.05608333  0.29314325  1.0
  Ni  Ni295  1  0.92804533  0.38941667  0.29314325  1.0
  Ni  Ni296  1  0.92804533  0.72275000  0.29314325  1.0
  Ni  Ni297  1  0.26137867  0.22275000  0.35564325  1.0
  Ni  Ni298  1  0.26137867  0.55608333  0.35564325  1.0
  Ni  Ni299  1  0.26137867  0.88941667  0.35564325  1.0
  Ni  Ni300  1  0.59471200  0.22275000  0.35564325  1.0
  Ni  Ni301  1  0.59471200  0.55608333  0.35564325  1.0
  Ni  Ni302  1  0.59471200  0.88941667  0.35564325  1.0
  Ni  Ni303  1  0.92804533  0.22275000  0.35564325  1.0
  Ni  Ni304  1  0.92804533  0.55608333  0.35564325  1.0
  Ni  Ni305  1  0.92804533  0.88941667  0.35564325  1.0
  Sn  Sn306  1  0.14275700  0.05209283  0.33612994  1.0
  Sn  Sn307  1  0.14275700  0.38542617  0.33612994  1.0
  Sn  Sn308  1  0.14275700  0.71875950  0.33612994  1.0
  Sn  Sn309  1  0.47609033  0.05209283  0.33612994  1.0
  Sn  Sn310  1  0.47609033  0.38542617  0.33612994  1.0
  Sn  Sn311  1  0.47609033  0.71875950  0.33612994  1.0
  Sn  Sn312  1  0.80942367  0.05209283  0.33612994  1.0
  Sn  Sn313  1  0.80942367  0.38542617  0.33612994  1.0
  Sn  Sn314  1  0.80942367  0.71875950  0.33612994  1.0
  Sn  Sn315  1  0.14275700  0.21875950  0.27362994  1.0
  Sn  Sn316  1  0.14275700  0.55209283  0.27362994  1.0
  Sn  Sn317  1  0.14275700  0.88542617  0.27362994  1.0
  Sn  Sn318  1  0.47609033  0.21875950  0.27362994  1.0
  Sn  Sn319  1  0.47609033  0.55209283  0.27362994  1.0
  Sn  Sn320  1  0.47609033  0.88542617  0.27362994  1.0
  Sn  Sn321  1  0.80942367  0.21875950  0.27362994  1.0
  Sn  Sn322  1  0.80942367  0.55209283  0.27362994  1.0
  Sn  Sn323  1  0.80942367  0.88542617  0.27362994  1.0
  Sn  Sn324  1  0.19057633  0.11457383  0.34162806  1.0
  Sn  Sn325  1  0.19057633  0.44790717  0.34162806  1.0
  Sn  Sn326  1  0.19057633  0.78124050  0.34162806  1.0
  Sn  Sn327  1  0.52390967  0.11457383  0.34162806  1.0
  Sn  Sn328  1  0.52390967  0.44790717  0.34162806  1.0
  Sn  Sn329  1  0.52390967  0.78124050  0.34162806  1.0
  Sn  Sn330  1  0.85724300  0.11457383  0.34162806  1.0
  Sn  Sn331  1  0.85724300  0.44790717  0.34162806  1.0
  Sn  Sn332  1  0.85724300  0.78124050  0.34162806  1.0
  Sn  Sn333  1  0.19057633  0.28124050  0.27912806  1.0
  Sn  Sn334  1  0.19057633  0.61457383  0.27912806  1.0
  Sn  Sn335  1  0.19057633  0.94790717  0.27912806  1.0
  Sn  Sn336  1  0.52390967  0.28124050  0.27912806  1.0
  Sn  Sn337  1  0.52390967  0.61457383  0.27912806  1.0
  Sn  Sn338  1  0.52390967  0.94790717  0.27912806  1.0
  Sn  Sn339  1  0.85724300  0.28124050  0.27912806  1.0
  Sn  Sn340  1  0.85724300  0.61457383  0.27912806  1.0
  Sn  Sn341  1  0.85724300  0.94790717  0.27912806  1.0
  Sn  Sn342  1  0.05727600  0.03129733  0.36038700  1.0
  Sn  Sn343  1  0.05727600  0.36463067  0.36038700  1.0
  Sn  Sn344  1  0.05727600  0.69796400  0.36038700  1.0
  Sn  Sn345  1  0.39060933  0.03129733  0.36038700  1.0
  Sn  Sn346  1  0.39060933  0.36463067  0.36038700  1.0
  Sn  Sn347  1  0.39060933  0.69796400  0.36038700  1.0
  Sn  Sn348  1  0.72394267  0.03129733  0.36038700  1.0
  Sn  Sn349  1  0.72394267  0.36463067  0.36038700  1.0
  Sn  Sn350  1  0.72394267  0.69796400  0.36038700  1.0
  Sn  Sn351  1  0.05727600  0.19796400  0.29788700  1.0
  Sn  Sn352  1  0.05727600  0.53129733  0.29788700  1.0
  Sn  Sn353  1  0.05727600  0.86463067  0.29788700  1.0
  Sn  Sn354  1  0.39060933  0.19796400  0.29788700  1.0
  Sn  Sn355  1  0.39060933  0.53129733  0.29788700  1.0
  Sn  Sn356  1  0.39060933  0.86463067  0.29788700  1.0
  Sn  Sn357  1  0.72394267  0.19796400  0.29788700  1.0
  Sn  Sn358  1  0.72394267  0.53129733  0.29788700  1.0
  Sn  Sn359  1  0.72394267  0.86463067  0.29788700  1.0
  Sn  Sn360  1  0.27605733  0.13536933  0.31737100  1.0
  Sn  Sn361  1  0.27605733  0.46870267  0.31737100  1.0
  Sn  Sn362  1  0.27605733  0.80203600  0.31737100  1.0
  Sn  Sn363  1  0.60939067  0.13536933  0.31737100  1.0
  Sn  Sn364  1  0.60939067  0.46870267  0.31737100  1.0
  Sn  Sn365  1  0.60939067  0.80203600  0.31737100  1.0
  Sn  Sn366  1  0.94272400  0.13536933  0.31737100  1.0
  Sn  Sn367  1  0.94272400  0.46870267  0.31737100  1.0
  Sn  Sn368  1  0.94272400  0.80203600  0.31737100  1.0
  Sn  Sn369  1  0.27605733  0.30203600  0.25487100  1.0
  Sn  Sn370  1  0.27605733  0.63536933  0.25487100  1.0
  Sn  Sn371  1  0.27605733  0.96870267  0.25487100  1.0
  Sn  Sn372  1  0.60939067  0.30203600  0.25487100  1.0
  Sn  Sn373  1  0.60939067  0.63536933  0.25487100  1.0
  Sn  Sn374  1  0.60939067  0.96870267  0.25487100  1.0
  Sn  Sn375  1  0.94272400  0.30203600  0.25487100  1.0
  Sn  Sn376  1  0.94272400  0.63536933  0.25487100  1.0
  Sn  Sn377  1  0.94272400  0.96870267  0.25487100  1.0
