# generated using pymatgen
data_Ni3Sn4
_symmetry_space_group_name_H-M   'P 1'
_cell_length_a   19.41748374
_cell_length_b   19.41748374
_cell_length_c   26.35227180
_cell_angle_alpha   75.60505407
_cell_angle_beta   104.39494593
_cell_angle_gamma   143.12677118
_symmetry_Int_Tables_number   1
_chemical_formula_structural   Ni3Sn4
_chemical_formula_sum   'Ni54 Sn72'
_cell_volume   5753.60520943
_cell_formula_units_Z   18
loop_
 _symmetry_equiv_pos_site_id
 _symmetry_equiv_pos_as_xyz
  1  'x, y, z'
loop_
 _atom_site_type_symbol
 _atom_site_label
 _atom_site_symmetry_multiplicity
 _atom_site_fract_x
 _atom_site_fract_y
 _atom_site_fract_z
 _atom_site_occupancy
  Ni  Ni0  1  0.00000000  0.00000000  0.18122160  1.0
  Ni  Ni1  1  0.00000000  0.33333333  0.18122160  1.0
  Ni  Ni2  1  0.00000000  0.66666667  0.18122160  1.0
  Ni  Ni3  1  0.33333333  0.00000000  0.18122160  1.0
  Ni  Ni4  1  0.33333333  0.33333333  0.18122160  1.0
  Ni  Ni5  1  0.33333333  0.66666667  0.18122160  1.0
  Ni  Ni6  1  0.66666667  0.00000000  0.18122160  1.0
  Ni  Ni7  1  0.66666667  0.33333333  0.18122160  1.0
  Ni  Ni8  1  0.66666667  0.66666667  0.18122160  1.0
  Ni  Ni9  1  0.26137867  0.07195467  0.11392160  1.0
  Ni  Ni10  1  0.26137867  0.40528800  0.11392160  1.0
  Ni  Ni11  1  0.26137867  0.73862133  0.11392160  1.0
  Ni  Ni12  1  0.59471200  0.07195467  0.11392160  1.0
  Ni  Ni13  1  0.59471200  0.40528800  0.11392160  1.0
  Ni  Ni14  1  0.59471200  0.73862133  0.11392160  1.0
  Ni  Ni15  1  0.92804533  0.07195467  0.11392160  1.0
  Ni  Ni16  1  0.92804533  0.40528800  0.11392160  1.0
  Ni  Ni17  1  0.92804533  0.73862133  0.11392160  1.0
  Ni  Ni18  1  0.07195467  0.26137867  0.04852160  1.0
  Ni  Ni19  1  0.07195467  0.59471200  0.04852160  1.0
  Ni  Ni20  1  0.07195467  0.92804533  0.04852160  1.0
  Ni  Ni21  1  0.40528800  0.26137867  0.04852160  1.0
  Ni  Ni22  1  0.40528800  0.59471200  0.04852160  1.0
  Ni  Ni23  1  0.40528800  0.92804533  0.04852160  1.0
  Ni  Ni24  1  0.73862133  0.26137867  0.04852160  1.0
  Ni  Ni25  1  0.73862133  0.59471200  0.04852160  1.0
  Ni  Ni26  1  0.73862133  0.92804533  0.04852160  1.0
  Sn  Sn27  1  0.19057633  0.14275700  0.04373300  1.0
  Sn  Sn28  1  0.19057633  0.47609033  0.04373300  1.0
  Sn  Sn29  1  0.19057633  0.80942367  0.04373300  1.0
  Sn  Sn30  1  0.52390967  0.14275700  0.04373300  1.0
  Sn  Sn31  1  0.52390967  0.47609033  0.04373300  1.0
  Sn  Sn32  1  0.52390967  0.80942367  0.04373300  1.0
  Sn  Sn33  1  0.85724300  0.14275700  0.04373300  1.0
  Sn  Sn34  1  0.85724300  0.47609033  0.04373300  1.0
  Sn  Sn35  1  0.85724300  0.80942367  0.04373300  1.0
  Sn  Sn36  1  0.14275700  0.19057633  0.11871020  1.0
  Sn  Sn37  1  0.14275700  0.52390967  0.11871020  1.0
  Sn  Sn38  1  0.14275700  0.85724300  0.11871020  1.0
  Sn  Sn39  1  0.47609033  0.19057633  0.11871020  1.0
  Sn  Sn40  1  0.47609033  0.52390967  0.11871020  1.0
  Sn  Sn41  1  0.47609033  0.85724300  0.11871020  1.0
  Sn  Sn42  1  0.80942367  0.19057633  0.11871020  1.0
  Sn  Sn43  1  0.80942367  0.52390967  0.11871020  1.0
  Sn  Sn44  1  0.80942367  0.85724300  0.11871020  1.0
  Sn  Sn45  1  0.27605733  0.05727600  0.01877840  1.0
  Sn  Sn46  1  0.27605733  0.39060933  0.01877840  1.0
  Sn  Sn47  1  0.27605733  0.72394267  0.01877840  1.0
  Sn  Sn48  1  0.60939067  0.05727600  0.01877840  1.0
  Sn  Sn49  1  0.60939067  0.39060933  0.01877840  1.0
  Sn  Sn50  1  0.60939067  0.72394267  0.01877840  1.0
  Sn  Sn51  1  0.94272400  0.05727600  0.01877840  1.0
  Sn  Sn52  1  0.94272400  0.39060933  0.01877840  1.0
  Sn  Sn53  1  0.94272400  0.72394267  0.01877840  1.0
  Sn  Sn54  1  0.05727600  0.27605733  0.14366480  1.0
  Sn  Sn55  1  0.05727600  0.60939067  0.14366480  1.0
  Sn  Sn56  1  0.05727600  0.94272400  0.14366480  1.0
  Sn  Sn57  1  0.39060933  0.27605733  0.14366480  1.0
  Sn  Sn58  1  0.39060933  0.60939067  0.14366480  1.0
  Sn  Sn59  1  0.39060933  0.94272400  0.14366480  1.0
  Sn  Sn60  1  0.72394267  0.27605733  0.14366480  1.0
  Sn  Sn61  1  0.72394267  0.60939067  0.14366480  1.0
  Sn  Sn62  1  0.72394267  0.94272400  0.14366480  1.0
  Ni  Ni63  1  0.00000000  0.00000000  0.38122160  1.0
  Ni  Ni64  1  0.00000000  0.33333333  0.38122160  1.0
  Ni  Ni65  1  0.00000000  0.66666667  0.38122160  1.0
  Ni  Ni66  1  0.33333333  0.00000000  0.38122160  1.0
  Ni  Ni67  1  0.33333333  0.33333333  0.38122160  1.0
  Ni  Ni68  1  0.33333333  0.66666667  0.38122160  1.0
  Ni  Ni69  1  0.66666667  0.00000000  0.38122160  1.0
  Ni  Ni70  1  0.66666667  0.33333333  0.38122160  1.0
  Ni  Ni71  1  0.66666667  0.66666667  0.38122160  1.0
  Ni  Ni72  1  0.26137867  0.07195467  0.31392160  1.0
  Ni  Ni73  1  0.26137867  0.40528800  0.31392160  1.0
  Ni  Ni74  1  0.26137867  0.73862133  0.31392160  1.0
  Ni  Ni75  1  0.59471200  0.07195467  0.31392160  1.0
  Ni  Ni76  1  0.59471200  0.40528800  0.31392160  1.0
  Ni  Ni77  1  0.59471200  0.73862133  0.31392160  1.0
  Ni  Ni78  1  0.92804533  0.07195467  0.31392160  1.0
  Ni  Ni79  1  0.92804533  0.40528800  0.31392160  1.0
  Ni  Ni80  1  0.92804533  0.73862133  0.31392160  1.0
  Ni  Ni81  1  0.07195467  0.26137867  0.24852160  1.0
  Ni  Ni82  1  0.07195467  0.59471200  0.24852160  1.0
  Ni  Ni83  1  0.07195467  0.92804533  0.24852160  1.0
  Ni  Ni84  1  0.40528800  0.26137867  0.24852160  1.0
  Ni  Ni85  1  0.40528800  0.59471200  0.24852160  1.0
  Ni  Ni86  1  0.40528800  0.92804533  0.24852160  1.0
  Ni  Ni87  1  0.73862133  0.26137867  0.24852160  1.0
  Ni  Ni88  1  0.73862133  0.59471200  0.24852160  1.0
  Ni  Ni89  1  0.73862133  0.92804533  0.24852160  1.0
  Sn  Sn90  1  0.19057633  0.14275700  0.24373300  1.0
  Sn  Sn91  1  0.19057633  0.47609033  0.24373300  1.0
  Sn  Sn92  1  0.19057633  0.80942367  0.24373300  1.0
  Sn  Sn93  1  0.52390967  0.14275700  0.24373300  1.0
  Sn  Sn94  1  0.52390967  0.47609033  0.24373300  1.0
  Sn  Sn95  1  0.52390967  0.80942367  0.24373300  1.0
  Sn  Sn96  1  0.85724300  0.14275700  0.24373300  1.0
  Sn  Sn97  1  0.85724300  0.47609033  0.24373300  1.0
  Sn  Sn98  1  0.85724300  0.80942367  0.24373300  1.0
  Sn  Sn99  1  0.14275700  0.19057633  0.31871020  1.0
  Sn  Sn100  1  0.14275700  0.52390967  0.31871020  1.0
  Sn  Sn101  1  0.14275700  0.85724300  0.31871020  1.0
  Sn  Sn102  1  0.47609033  0.19057633  0.31871020  1.0
  Sn  Sn103  1  0.47609033  0.52390967  0.31871020  1.0
  Sn  Sn104  1  0.47609033  0.85724300  0.31871020  1.0
  Sn  Sn105  1  0.80942367  0.19057633  0.31871020  1.0
  Sn  Sn106  1  0.80942367  0.52390967  0.31871020  1.0
  Sn  Sn107  1  0.80942367  0.85724300  0.31871020  1.0
  Sn  Sn108  1  0.27605733  0.05727600  0.21877840  1.0
  Sn  Sn109  1  0.27605733  0.39060933  0.21877840  1.0
  Sn  Sn110  1  0.27605733  0.72394267  0.21877840  1.0
  Sn  Sn111  1  0.60939067  0.05727600  0.21877840  1.0
  Sn  Sn112  1  0.60939067  0.39060933  0.21877840  1.0
  Sn  Sn113  1  0.60939067  0.72394267  0.21877840  1.0
  Sn  Sn114  1  0.94272400  0.05727600  0.21877840  1.0
  Sn  Sn115  1  0.94272400  0.39060933  0.21877840  1.0
  Sn  Sn116  1  0.94272400  0.72394267  0.21877840  1.0
  Sn  Sn117  1  0.05727600  0.27605733  0.34366480  1.0
  Sn  Sn118  1  0.05727600  0.60939067  0.34366480  1.0
  Sn  Sn119  1  0.05727600  0.94272400  0.34366480  1.0
  Sn  Sn120  1  0.39060933  0.27605733  0.34366480  1.0
  Sn  Sn121  1  0.39060933  0.60939067  0.34366480  1.0
  Sn  Sn122  1  0.39060933  0.94272400  0.34366480  1.0
  Sn  Sn123  1  0.72394267  0.27605733  0.34366480  1.0
  Sn  Sn124  1  0.72394267  0.60939067  0.34366480  1.0
  Sn  Sn125  1  0.72394267  0.94272400  0.34366480  1.0
