# generated using pymatgen
data_Ni3Sn
_symmetry_space_group_name_H-M   'P 1'
_cell_length_a   21.01047257
_cell_length_b   24.56971090
_cell_length_c   29.07092156
_cell_angle_alpha   92.42070527
_cell_angle_beta   94.17656474
_cell_angle_gamma   97.42679417
_symmetry_Int_Tables_number   1
_chemical_formula_structural   Ni3Sn
_chemical_formula_sum   'Ni324 Sn108'
_cell_volume   14821.35664763
_cell_formula_units_Z   108
loop_
 _symmetry_equiv_pos_site_id
 _symmetry_equiv_pos_as_xyz
  1  'x, y, z'
loop_
 _atom_site_type_symbol
 _atom_site_label
 _atom_site_symmetry_multiplicity
 _atom_site_fract_x
 _atom_site_fract_y
 _atom_site_fract_z
 _atom_site_occupancy
  Ni  Ni0  1  0.01476517  0.23959075  0.03620213  1.0
  Ni  Ni1  1  0.01476517  0.57292408  0.03620213  1.0
  Ni  Ni2  1  0.01476517  0.90625742  0.03620213  1.0
  Ni  Ni3  1  0.34809850  0.23959075  0.03620213  1.0
  Ni  Ni4  1  0.34809850  0.57292408  0.03620213  1.0
  Ni  Ni5  1  0.34809850  0.90625742  0.03620213  1.0
  Ni  Ni6  1  0.68143183  0.23959075  0.03620213  1.0
  Ni  Ni7  1  0.68143183  0.57292408  0.03620213  1.0
  Ni  Ni8  1  0.68143183  0.90625742  0.03620213  1.0
  Ni  Ni9  1  0.18143183  0.03125742  0.09870213  1.0
  Ni  Ni10  1  0.18143183  0.36459075  0.09870213  1.0
  Ni  Ni11  1  0.18143183  0.69792408  0.09870213  1.0
  Ni  Ni12  1  0.51476517  0.03125742  0.09870212  1.0
  Ni  Ni13  1  0.51476517  0.36459075  0.09870213  1.0
  Ni  Ni14  1  0.51476517  0.69792408  0.09870213  1.0
  Ni  Ni15  1  0.84809850  0.03125742  0.09870213  1.0
  Ni  Ni16  1  0.84809850  0.36459075  0.09870213  1.0
  Ni  Ni17  1  0.84809850  0.69792408  0.09870212  1.0
  Ni  Ni18  1  0.09705883  0.17787050  0.00534200  1.0
  Ni  Ni19  1  0.09705883  0.51120383  0.00534200  1.0
  Ni  Ni20  1  0.09705883  0.84453717  0.00534200  1.0
  Ni  Ni21  1  0.43039217  0.17787050  0.00534200  1.0
  Ni  Ni22  1  0.43039217  0.51120383  0.00534200  1.0
  Ni  Ni23  1  0.43039217  0.84453717  0.00534200  1.0
  Ni  Ni24  1  0.76372550  0.17787050  0.00534200  1.0
  Ni  Ni25  1  0.76372550  0.51120383  0.00534200  1.0
  Ni  Ni26  1  0.76372550  0.84453717  0.00534200  1.0
  Ni  Ni27  1  0.26372550  0.30287050  0.06784200  1.0
  Ni  Ni28  1  0.26372550  0.63620383  0.06784200  1.0
  Ni  Ni29  1  0.26372550  0.96953717  0.06784200  1.0
  Ni  Ni30  1  0.59705883  0.30287050  0.06784200  1.0
  Ni  Ni31  1  0.59705883  0.63620383  0.06784200  1.0
  Ni  Ni32  1  0.59705883  0.96953717  0.06784200  1.0
  Ni  Ni33  1  0.93039217  0.30287050  0.06784200  1.0
  Ni  Ni34  1  0.93039217  0.63620383  0.06784200  1.0
  Ni  Ni35  1  0.93039217  0.96953717  0.06784200  1.0
  Ni  Ni36  1  0.23523483  0.11483583  0.05715800  1.0
  Ni  Ni37  1  0.23523483  0.44816917  0.05715800  1.0
  Ni  Ni38  1  0.23523483  0.78150250  0.05715800  1.0
  Ni  Ni39  1  0.56856817  0.11483583  0.05715800  1.0
  Ni  Ni40  1  0.56856817  0.44816917  0.05715800  1.0
  Ni  Ni41  1  0.56856817  0.78150250  0.05715800  1.0
  Ni  Ni42  1  0.90190150  0.11483583  0.05715800  1.0
  Ni  Ni43  1  0.90190150  0.44816917  0.05715800  1.0
  Ni  Ni44  1  0.90190150  0.78150250  0.05715800  1.0
  Ni  Ni45  1  0.06856817  0.23983583  0.11965800  1.0
  Ni  Ni46  1  0.06856817  0.57316917  0.11965800  1.0
  Ni  Ni47  1  0.06856817  0.90650250  0.11965800  1.0
  Ni  Ni48  1  0.40190150  0.23983583  0.11965800  1.0
  Ni  Ni49  1  0.40190150  0.57316917  0.11965800  1.0
  Ni  Ni50  1  0.40190150  0.90650250  0.11965800  1.0
  Ni  Ni51  1  0.73523483  0.23983583  0.11965800  1.0
  Ni  Ni52  1  0.73523483  0.57316917  0.11965800  1.0
  Ni  Ni53  1  0.73523483  0.90650250  0.11965800  1.0
  Ni  Ni54  1  0.31960783  0.05155608  0.02551812  1.0
  Ni  Ni55  1  0.31960783  0.38488942  0.02551812  1.0
  Ni  Ni56  1  0.31960783  0.71822275  0.02551813  1.0
  Ni  Ni57  1  0.65294117  0.05155608  0.02551813  1.0
  Ni  Ni58  1  0.65294117  0.38488942  0.02551812  1.0
  Ni  Ni59  1  0.65294117  0.71822275  0.02551813  1.0
  Ni  Ni60  1  0.98627450  0.05155608  0.02551812  1.0
  Ni  Ni61  1  0.98627450  0.38488942  0.02551813  1.0
  Ni  Ni62  1  0.98627450  0.71822275  0.02551813  1.0
  Ni  Ni63  1  0.15294117  0.17655608  0.08801813  1.0
  Ni  Ni64  1  0.15294117  0.50988942  0.08801813  1.0
  Ni  Ni65  1  0.15294117  0.84322275  0.08801813  1.0
  Ni  Ni66  1  0.48627450  0.17655608  0.08801813  1.0
  Ni  Ni67  1  0.48627450  0.50988942  0.08801813  1.0
  Ni  Ni68  1  0.48627450  0.84322275  0.08801813  1.0
  Ni  Ni69  1  0.81960783  0.17655608  0.08801813  1.0
  Ni  Ni70  1  0.81960783  0.50988942  0.08801813  1.0
  Ni  Ni71  1  0.81960783  0.84322275  0.08801813  1.0
  Ni  Ni72  1  0.03202517  0.14914883  0.07431450  1.0
  Ni  Ni73  1  0.03202517  0.48248217  0.07431450  1.0
  Ni  Ni74  1  0.03202517  0.81581550  0.07431450  1.0
  Ni  Ni75  1  0.36535850  0.14914883  0.07431450  1.0
  Ni  Ni76  1  0.36535850  0.48248217  0.07431450  1.0
  Ni  Ni77  1  0.36535850  0.81581550  0.07431450  1.0
  Ni  Ni78  1  0.69869183  0.14914883  0.07431450  1.0
  Ni  Ni79  1  0.69869183  0.48248217  0.07431450  1.0
  Ni  Ni80  1  0.69869183  0.81581550  0.07431450  1.0
  Ni  Ni81  1  0.19869183  0.02414883  0.01181450  1.0
  Ni  Ni82  1  0.19869183  0.35748217  0.01181450  1.0
  Ni  Ni83  1  0.19869183  0.69081550  0.01181450  1.0
  Ni  Ni84  1  0.53202517  0.02414883  0.01181450  1.0
  Ni  Ni85  1  0.53202517  0.35748217  0.01181450  1.0
  Ni  Ni86  1  0.53202517  0.69081550  0.01181450  1.0
  Ni  Ni87  1  0.86535850  0.02414883  0.01181450  1.0
  Ni  Ni88  1  0.86535850  0.35748217  0.01181450  1.0
  Ni  Ni89  1  0.86535850  0.69081550  0.01181450  1.0
  Ni  Ni90  1  0.05130817  0.33027775  0.08154562  1.0
  Ni  Ni91  1  0.05130817  0.66361108  0.08154562  1.0
  Ni  Ni92  1  0.05130817  0.99694442  0.08154562  1.0
  Ni  Ni93  1  0.38464150  0.33027775  0.08154562  1.0
  Ni  Ni94  1  0.38464150  0.66361108  0.08154562  1.0
  Ni  Ni95  1  0.38464150  0.99694442  0.08154562  1.0
  Ni  Ni96  1  0.71797483  0.33027775  0.08154562  1.0
  Ni  Ni97  1  0.71797483  0.66361108  0.08154562  1.0
  Ni  Ni98  1  0.71797483  0.99694442  0.08154562  1.0
  Ni  Ni99  1  0.21797483  0.20527775  0.01904563  1.0
  Ni  Ni100  1  0.21797483  0.53861108  0.01904563  1.0
  Ni  Ni101  1  0.21797483  0.87194442  0.01904563  1.0
  Ni  Ni102  1  0.55130817  0.20527775  0.01904563  1.0
  Ni  Ni103  1  0.55130817  0.53861108  0.01904562  1.0
  Ni  Ni104  1  0.55130817  0.87194442  0.01904562  1.0
  Ni  Ni105  1  0.88464150  0.20527775  0.01904563  1.0
  Ni  Ni106  1  0.88464150  0.53861108  0.01904562  1.0
  Ni  Ni107  1  0.88464150  0.87194442  0.01904562  1.0
  Ni  Ni108  1  0.01476517  0.15625742  0.16120212  1.0
  Ni  Ni109  1  0.01476517  0.48959075  0.16120212  1.0
  Ni  Ni110  1  0.01476517  0.82292408  0.16120212  1.0
  Ni  Ni111  1  0.34809850  0.15625742  0.16120212  1.0
  Ni  Ni112  1  0.34809850  0.48959075  0.16120212  1.0
  Ni  Ni113  1  0.34809850  0.82292408  0.16120212  1.0
  Ni  Ni114  1  0.68143183  0.15625742  0.16120212  1.0
  Ni  Ni115  1  0.68143183  0.48959075  0.16120212  1.0
  Ni  Ni116  1  0.68143183  0.82292408  0.16120212  1.0
  Ni  Ni117  1  0.18143183  0.28125742  0.22370213  1.0
  Ni  Ni118  1  0.18143183  0.61459075  0.22370213  1.0
  Ni  Ni119  1  0.18143183  0.94792408  0.22370213  1.0
  Ni  Ni120  1  0.51476517  0.28125742  0.22370212  1.0
  Ni  Ni121  1  0.51476517  0.61459075  0.22370213  1.0
  Ni  Ni122  1  0.51476517  0.94792408  0.22370213  1.0
  Ni  Ni123  1  0.84809850  0.28125742  0.22370213  1.0
  Ni  Ni124  1  0.84809850  0.61459075  0.22370212  1.0
  Ni  Ni125  1  0.84809850  0.94792408  0.22370212  1.0
  Ni  Ni126  1  0.09705883  0.09453717  0.13034200  1.0
  Ni  Ni127  1  0.09705883  0.42787050  0.13034200  1.0
  Ni  Ni128  1  0.09705883  0.76120383  0.13034200  1.0
  Ni  Ni129  1  0.43039217  0.09453717  0.13034200  1.0
  Ni  Ni130  1  0.43039217  0.42787050  0.13034200  1.0
  Ni  Ni131  1  0.43039217  0.76120383  0.13034200  1.0
  Ni  Ni132  1  0.76372550  0.09453717  0.13034200  1.0
  Ni  Ni133  1  0.76372550  0.42787050  0.13034200  1.0
  Ni  Ni134  1  0.76372550  0.76120383  0.13034200  1.0
  Ni  Ni135  1  0.26372550  0.21953717  0.19284200  1.0
  Ni  Ni136  1  0.26372550  0.55287050  0.19284200  1.0
  Ni  Ni137  1  0.26372550  0.88620383  0.19284200  1.0
  Ni  Ni138  1  0.59705883  0.21953717  0.19284200  1.0
  Ni  Ni139  1  0.59705883  0.55287050  0.19284200  1.0
  Ni  Ni140  1  0.59705883  0.88620383  0.19284200  1.0
  Ni  Ni141  1  0.93039217  0.21953717  0.19284200  1.0
  Ni  Ni142  1  0.93039217  0.55287050  0.19284200  1.0
  Ni  Ni143  1  0.93039217  0.88620383  0.19284200  1.0
  Ni  Ni144  1  0.23523483  0.03150250  0.18215800  1.0
  Ni  Ni145  1  0.23523483  0.36483583  0.18215800  1.0
  Ni  Ni146  1  0.23523483  0.69816917  0.18215800  1.0
  Ni  Ni147  1  0.56856817  0.03150250  0.18215800  1.0
  Ni  Ni148  1  0.56856817  0.36483583  0.18215800  1.0
  Ni  Ni149  1  0.56856817  0.69816917  0.18215800  1.0
  Ni  Ni150  1  0.90190150  0.03150250  0.18215800  1.0
  Ni  Ni151  1  0.90190150  0.36483583  0.18215800  1.0
  Ni  Ni152  1  0.90190150  0.69816917  0.18215800  1.0
  Ni  Ni153  1  0.06856817  0.15650250  0.24465800  1.0
  Ni  Ni154  1  0.06856817  0.48983583  0.24465800  1.0
  Ni  Ni155  1  0.06856817  0.82316917  0.24465800  1.0
  Ni  Ni156  1  0.40190150  0.15650250  0.24465800  1.0
  Ni  Ni157  1  0.40190150  0.48983583  0.24465800  1.0
  Ni  Ni158  1  0.40190150  0.82316917  0.24465800  1.0
  Ni  Ni159  1  0.73523483  0.15650250  0.24465800  1.0
  Ni  Ni160  1  0.73523483  0.48983583  0.24465800  1.0
  Ni  Ni161  1  0.73523483  0.82316917  0.24465800  1.0
  Ni  Ni162  1  0.31960783  0.30155608  0.15051813  1.0
  Ni  Ni163  1  0.31960783  0.63488942  0.15051813  1.0
  Ni  Ni164  1  0.31960783  0.96822275  0.15051813  1.0
  Ni  Ni165  1  0.65294117  0.30155608  0.15051813  1.0
  Ni  Ni166  1  0.65294117  0.63488942  0.15051813  1.0
  Ni  Ni167  1  0.65294117  0.96822275  0.15051813  1.0
  Ni  Ni168  1  0.98627450  0.30155608  0.15051813  1.0
  Ni  Ni169  1  0.98627450  0.63488942  0.15051813  1.0
  Ni  Ni170  1  0.98627450  0.96822275  0.15051813  1.0
  Ni  Ni171  1  0.15294117  0.09322275  0.21301813  1.0
  Ni  Ni172  1  0.15294117  0.42655608  0.21301813  1.0
  Ni  Ni173  1  0.15294117  0.75988942  0.21301813  1.0
  Ni  Ni174  1  0.48627450  0.09322275  0.21301813  1.0
  Ni  Ni175  1  0.48627450  0.42655608  0.21301812  1.0
  Ni  Ni176  1  0.48627450  0.75988942  0.21301813  1.0
  Ni  Ni177  1  0.81960783  0.09322275  0.21301813  1.0
  Ni  Ni178  1  0.81960783  0.42655608  0.21301813  1.0
  Ni  Ni179  1  0.81960783  0.75988942  0.21301813  1.0
  Ni  Ni180  1  0.03202517  0.06581550  0.19931450  1.0
  Ni  Ni181  1  0.03202517  0.39914883  0.19931450  1.0
  Ni  Ni182  1  0.03202517  0.73248217  0.19931450  1.0
  Ni  Ni183  1  0.36535850  0.06581550  0.19931450  1.0
  Ni  Ni184  1  0.36535850  0.39914883  0.19931450  1.0
  Ni  Ni185  1  0.36535850  0.73248217  0.19931450  1.0
  Ni  Ni186  1  0.69869183  0.06581550  0.19931450  1.0
  Ni  Ni187  1  0.69869183  0.39914883  0.19931450  1.0
  Ni  Ni188  1  0.69869183  0.73248217  0.19931450  1.0
  Ni  Ni189  1  0.19869183  0.27414883  0.13681450  1.0
  Ni  Ni190  1  0.19869183  0.60748217  0.13681450  1.0
  Ni  Ni191  1  0.19869183  0.94081550  0.13681450  1.0
  Ni  Ni192  1  0.53202517  0.27414883  0.13681450  1.0
  Ni  Ni193  1  0.53202517  0.60748217  0.13681450  1.0
  Ni  Ni194  1  0.53202517  0.94081550  0.13681450  1.0
  Ni  Ni195  1  0.86535850  0.27414883  0.13681450  1.0
  Ni  Ni196  1  0.86535850  0.60748217  0.13681450  1.0
  Ni  Ni197  1  0.86535850  0.94081550  0.13681450  1.0
  Ni  Ni198  1  0.05130817  0.24694442  0.20654563  1.0
  Ni  Ni199  1  0.05130817  0.58027775  0.20654562  1.0
  Ni  Ni200  1  0.05130817  0.91361108  0.20654562  1.0
  Ni  Ni201  1  0.38464150  0.24694442  0.20654562  1.0
  Ni  Ni202  1  0.38464150  0.58027775  0.20654562  1.0
  Ni  Ni203  1  0.38464150  0.91361108  0.20654563  1.0
  Ni  Ni204  1  0.71797483  0.24694442  0.20654562  1.0
  Ni  Ni205  1  0.71797483  0.58027775  0.20654562  1.0
  Ni  Ni206  1  0.71797483  0.91361108  0.20654562  1.0
  Ni  Ni207  1  0.21797483  0.12194442  0.14404563  1.0
  Ni  Ni208  1  0.21797483  0.45527775  0.14404563  1.0
  Ni  Ni209  1  0.21797483  0.78861108  0.14404563  1.0
  Ni  Ni210  1  0.55130817  0.12194442  0.14404563  1.0
  Ni  Ni211  1  0.55130817  0.45527775  0.14404563  1.0
  Ni  Ni212  1  0.55130817  0.78861108  0.14404563  1.0
  Ni  Ni213  1  0.88464150  0.12194442  0.14404563  1.0
  Ni  Ni214  1  0.88464150  0.45527775  0.14404563  1.0
  Ni  Ni215  1  0.88464150  0.78861108  0.14404563  1.0
  Ni  Ni216  1  0.01476517  0.07292408  0.28620212  1.0
  Ni  Ni217  1  0.01476517  0.40625742  0.28620212  1.0
  Ni  Ni218  1  0.01476517  0.73959075  0.28620212  1.0
  Ni  Ni219  1  0.34809850  0.07292408  0.28620212  1.0
  Ni  Ni220  1  0.34809850  0.40625742  0.28620212  1.0
  Ni  Ni221  1  0.34809850  0.73959075  0.28620212  1.0
  Ni  Ni222  1  0.68143183  0.07292408  0.28620212  1.0
  Ni  Ni223  1  0.68143183  0.40625742  0.28620212  1.0
  Ni  Ni224  1  0.68143183  0.73959075  0.28620212  1.0
  Ni  Ni225  1  0.18143183  0.19792408  0.34870212  1.0
  Ni  Ni226  1  0.18143183  0.53125742  0.34870212  1.0
  Ni  Ni227  1  0.18143183  0.86459075  0.34870212  1.0
  Ni  Ni228  1  0.51476517  0.19792408  0.34870212  1.0
  Ni  Ni229  1  0.51476517  0.53125742  0.34870212  1.0
  Ni  Ni230  1  0.51476517  0.86459075  0.34870212  1.0
  Ni  Ni231  1  0.84809850  0.19792408  0.34870212  1.0
  Ni  Ni232  1  0.84809850  0.53125742  0.34870212  1.0
  Ni  Ni233  1  0.84809850  0.86459075  0.34870212  1.0
  Ni  Ni234  1  0.09705883  0.01120383  0.25534200  1.0
  Ni  Ni235  1  0.09705883  0.34453717  0.25534200  1.0
  Ni  Ni236  1  0.09705883  0.67787050  0.25534200  1.0
  Ni  Ni237  1  0.43039217  0.01120383  0.25534200  1.0
  Ni  Ni238  1  0.43039217  0.34453717  0.25534200  1.0
  Ni  Ni239  1  0.43039217  0.67787050  0.25534200  1.0
  Ni  Ni240  1  0.76372550  0.01120383  0.25534200  1.0
  Ni  Ni241  1  0.76372550  0.34453717  0.25534200  1.0
  Ni  Ni242  1  0.76372550  0.67787050  0.25534200  1.0
  Ni  Ni243  1  0.26372550  0.13620383  0.31784200  1.0
  Ni  Ni244  1  0.26372550  0.46953717  0.31784200  1.0
  Ni  Ni245  1  0.26372550  0.80287050  0.31784200  1.0
  Ni  Ni246  1  0.59705883  0.13620383  0.31784200  1.0
  Ni  Ni247  1  0.59705883  0.46953717  0.31784200  1.0
  Ni  Ni248  1  0.59705883  0.80287050  0.31784200  1.0
  Ni  Ni249  1  0.93039217  0.13620383  0.31784200  1.0
  Ni  Ni250  1  0.93039217  0.46953717  0.31784200  1.0
  Ni  Ni251  1  0.93039217  0.80287050  0.31784200  1.0
  Ni  Ni252  1  0.23523483  0.28150250  0.30715800  1.0
  Ni  Ni253  1  0.23523483  0.61483583  0.30715800  1.0
  Ni  Ni254  1  0.23523483  0.94816917  0.30715800  1.0
  Ni  Ni255  1  0.56856817  0.28150250  0.30715800  1.0
  Ni  Ni256  1  0.56856817  0.61483583  0.30715800  1.0
  Ni  Ni257  1  0.56856817  0.94816917  0.30715800  1.0
  Ni  Ni258  1  0.90190150  0.28150250  0.30715800  1.0
  Ni  Ni259  1  0.90190150  0.61483583  0.30715800  1.0
  Ni  Ni260  1  0.90190150  0.94816917  0.30715800  1.0
  Ni  Ni261  1  0.06856817  0.07316917  0.36965800  1.0
  Ni  Ni262  1  0.06856817  0.40650250  0.36965800  1.0
  Ni  Ni263  1  0.06856817  0.73983583  0.36965800  1.0
  Ni  Ni264  1  0.40190150  0.07316917  0.36965800  1.0
  Ni  Ni265  1  0.40190150  0.40650250  0.36965800  1.0
  Ni  Ni266  1  0.40190150  0.73983583  0.36965800  1.0
  Ni  Ni267  1  0.73523483  0.07316917  0.36965800  1.0
  Ni  Ni268  1  0.73523483  0.40650250  0.36965800  1.0
  Ni  Ni269  1  0.73523483  0.73983583  0.36965800  1.0
  Ni  Ni270  1  0.31960783  0.21822275  0.27551813  1.0
  Ni  Ni271  1  0.31960783  0.55155608  0.27551813  1.0
  Ni  Ni272  1  0.31960783  0.88488942  0.27551813  1.0
  Ni  Ni273  1  0.65294117  0.21822275  0.27551812  1.0
  Ni  Ni274  1  0.65294117  0.55155608  0.27551813  1.0
  Ni  Ni275  1  0.65294117  0.88488942  0.27551813  1.0
  Ni  Ni276  1  0.98627450  0.21822275  0.27551813  1.0
  Ni  Ni277  1  0.98627450  0.55155608  0.27551813  1.0
  Ni  Ni278  1  0.98627450  0.88488942  0.27551813  1.0
  Ni  Ni279  1  0.15294117  0.00988942  0.33801812  1.0
  Ni  Ni280  1  0.15294117  0.34322275  0.33801812  1.0
  Ni  Ni281  1  0.15294117  0.67655608  0.33801812  1.0
  Ni  Ni282  1  0.48627450  0.00988942  0.33801812  1.0
  Ni  Ni283  1  0.48627450  0.34322275  0.33801812  1.0
  Ni  Ni284  1  0.48627450  0.67655608  0.33801812  1.0
  Ni  Ni285  1  0.81960783  0.00988942  0.33801812  1.0
  Ni  Ni286  1  0.81960783  0.34322275  0.33801812  1.0
  Ni  Ni287  1  0.81960783  0.67655608  0.33801812  1.0
  Ni  Ni288  1  0.03202517  0.31581550  0.32431450  1.0
  Ni  Ni289  1  0.03202517  0.64914883  0.32431450  1.0
  Ni  Ni290  1  0.03202517  0.98248217  0.32431450  1.0
  Ni  Ni291  1  0.36535850  0.31581550  0.32431450  1.0
  Ni  Ni292  1  0.36535850  0.64914883  0.32431450  1.0
  Ni  Ni293  1  0.36535850  0.98248217  0.32431450  1.0
  Ni  Ni294  1  0.69869183  0.31581550  0.32431450  1.0
  Ni  Ni295  1  0.69869183  0.64914883  0.32431450  1.0
  Ni  Ni296  1  0.69869183  0.98248217  0.32431450  1.0
  Ni  Ni297  1  0.19869183  0.19081550  0.26181450  1.0
  Ni  Ni298  1  0.19869183  0.52414883  0.26181450  1.0
  Ni  Ni299  1  0.19869183  0.85748217  0.26181450  1.0
  Ni  Ni300  1  0.53202517  0.19081550  0.26181450  1.0
  Ni  Ni301  1  0.53202517  0.52414883  0.26181450  1.0
  Ni  Ni302  1  0.53202517  0.85748217  0.26181450  1.0
  Ni  Ni303  1  0.86535850  0.19081550  0.26181450  1.0
  Ni  Ni304  1  0.86535850  0.52414883  0.26181450  1.0
  Ni  Ni305  1  0.86535850  0.85748217  0.26181450  1.0
  Ni  Ni306  1  0.05130817  0.16361108  0.33154563  1.0
  Ni  Ni307  1  0.05130817  0.49694442  0.33154563  1.0
  Ni  Ni308  1  0.05130817  0.83027775  0.33154563  1.0
  Ni  Ni309  1  0.38464150  0.16361108  0.33154563  1.0
  Ni  Ni310  1  0.38464150  0.49694442  0.33154563  1.0
  Ni  Ni311  1  0.38464150  0.83027775  0.33154563  1.0
  Ni  Ni312  1  0.71797483  0.16361108  0.33154563  1.0
  Ni  Ni313  1  0.71797483  0.49694442  0.33154563  1.0
  Ni  Ni314  1  0.71797483  0.83027775  0.33154563  1.0
  Ni  Ni315  1  0.21797483  0.03861108  0.26904563  1.0
  Ni  Ni316  1  0.21797483  0.37194442  0.26904563  1.0
  Ni  Ni317  1  0.21797483  0.70527775  0.26904563  1.0
  Ni  Ni318  1  0.55130817  0.03861108  0.26904563  1.0
  Ni  Ni319  1  0.55130817  0.37194442  0.26904563  1.0
  Ni  Ni320  1  0.55130817  0.70527775  0.26904563  1.0
  Ni  Ni321  1  0.88464150  0.03861108  0.26904563  1.0
  Ni  Ni322  1  0.88464150  0.37194442  0.26904563  1.0
  Ni  Ni323  1  0.88464150  0.70527775  0.26904563  1.0
  Sn  Sn324  1  0.30562650  0.06268317  0.11441500  1.0
  Sn  Sn325  1  0.30562650  0.39601650  0.11441500  1.0
  Sn  Sn326  1  0.30562650  0.72934983  0.11441500  1.0
  Sn  Sn327  1  0.63895983  0.06268317  0.11441500  1.0
  Sn  Sn328  1  0.63895983  0.39601650  0.11441500  1.0
  Sn  Sn329  1  0.63895983  0.72934983  0.11441500  1.0
  Sn  Sn330  1  0.97229317  0.06268317  0.11441500  1.0
  Sn  Sn331  1  0.97229317  0.39601650  0.11441500  1.0
  Sn  Sn332  1  0.97229317  0.72934983  0.11441500  1.0
  Sn  Sn333  1  0.13895983  0.27101650  0.05191500  1.0
  Sn  Sn334  1  0.13895983  0.60434983  0.05191500  1.0
  Sn  Sn335  1  0.13895983  0.93768317  0.05191500  1.0
  Sn  Sn336  1  0.47229317  0.27101650  0.05191500  1.0
  Sn  Sn337  1  0.47229317  0.60434983  0.05191500  1.0
  Sn  Sn338  1  0.47229317  0.93768317  0.05191500  1.0
  Sn  Sn339  1  0.80562650  0.27101650  0.05191500  1.0
  Sn  Sn340  1  0.80562650  0.60434983  0.05191500  1.0
  Sn  Sn341  1  0.80562650  0.93768317  0.05191500  1.0
  Sn  Sn342  1  0.11104017  0.08341008  0.04144513  1.0
  Sn  Sn343  1  0.11104017  0.41674342  0.04144513  1.0
  Sn  Sn344  1  0.11104017  0.75007675  0.04144513  1.0
  Sn  Sn345  1  0.44437350  0.08341008  0.04144513  1.0
  Sn  Sn346  1  0.44437350  0.41674342  0.04144513  1.0
  Sn  Sn347  1  0.44437350  0.75007675  0.04144513  1.0
  Sn  Sn348  1  0.77770683  0.08341008  0.04144513  1.0
  Sn  Sn349  1  0.77770683  0.41674342  0.04144513  1.0
  Sn  Sn350  1  0.77770683  0.75007675  0.04144513  1.0
  Sn  Sn351  1  0.27770683  0.20841008  0.10394512  1.0
  Sn  Sn352  1  0.27770683  0.54174342  0.10394512  1.0
  Sn  Sn353  1  0.27770683  0.87507675  0.10394513  1.0
  Sn  Sn354  1  0.61104017  0.20841008  0.10394512  1.0
  Sn  Sn355  1  0.61104017  0.54174342  0.10394512  1.0
  Sn  Sn356  1  0.61104017  0.87507675  0.10394512  1.0
  Sn  Sn357  1  0.94437350  0.20841008  0.10394513  1.0
  Sn  Sn358  1  0.94437350  0.54174342  0.10394513  1.0
  Sn  Sn359  1  0.94437350  0.87507675  0.10394512  1.0
  Sn  Sn360  1  0.30562650  0.31268317  0.23941500  1.0
  Sn  Sn361  1  0.30562650  0.64601650  0.23941500  1.0
  Sn  Sn362  1  0.30562650  0.97934983  0.23941500  1.0
  Sn  Sn363  1  0.63895983  0.31268317  0.23941500  1.0
  Sn  Sn364  1  0.63895983  0.64601650  0.23941500  1.0
  Sn  Sn365  1  0.63895983  0.97934983  0.23941500  1.0
  Sn  Sn366  1  0.97229317  0.31268317  0.23941500  1.0
  Sn  Sn367  1  0.97229317  0.64601650  0.23941500  1.0
  Sn  Sn368  1  0.97229317  0.97934983  0.23941500  1.0
  Sn  Sn369  1  0.13895983  0.18768317  0.17691500  1.0
  Sn  Sn370  1  0.13895983  0.52101650  0.17691500  1.0
  Sn  Sn371  1  0.13895983  0.85434983  0.17691500  1.0
  Sn  Sn372  1  0.47229317  0.18768317  0.17691500  1.0
  Sn  Sn373  1  0.47229317  0.52101650  0.17691500  1.0
  Sn  Sn374  1  0.47229317  0.85434983  0.17691500  1.0
  Sn  Sn375  1  0.80562650  0.18768317  0.17691500  1.0
  Sn  Sn376  1  0.80562650  0.52101650  0.17691500  1.0
  Sn  Sn377  1  0.80562650  0.85434983  0.17691500  1.0
  Sn  Sn378  1  0.11104017  0.00007675  0.16644512  1.0
  Sn  Sn379  1  0.11104017  0.33341008  0.16644512  1.0
  Sn  Sn380  1  0.11104017  0.66674342  0.16644512  1.0
  Sn  Sn381  1  0.44437350  0.00007675  0.16644512  1.0
  Sn  Sn382  1  0.44437350  0.33341008  0.16644512  1.0
  Sn  Sn383  1  0.44437350  0.66674342  0.16644512  1.0
  Sn  Sn384  1  0.77770683  0.00007675  0.16644512  1.0
  Sn  Sn385  1  0.77770683  0.33341008  0.16644512  1.0
  Sn  Sn386  1  0.77770683  0.66674342  0.16644512  1.0
  Sn  Sn387  1  0.27770683  0.12507675  0.22894513  1.0
  Sn  Sn388  1  0.27770683  0.45841008  0.22894513  1.0
  Sn  Sn389  1  0.27770683  0.79174342  0.22894513  1.0
  Sn  Sn390  1  0.61104017  0.12507675  0.22894513  1.0
  Sn  Sn391  1  0.61104017  0.45841008  0.22894513  1.0
  Sn  Sn392  1  0.61104017  0.79174342  0.22894513  1.0
  Sn  Sn393  1  0.94437350  0.12507675  0.22894513  1.0
  Sn  Sn394  1  0.94437350  0.45841008  0.22894513  1.0
  Sn  Sn395  1  0.94437350  0.79174342  0.22894513  1.0
  Sn  Sn396  1  0.30562650  0.22934983  0.36441500  1.0
  Sn  Sn397  1  0.30562650  0.56268317  0.36441500  1.0
  Sn  Sn398  1  0.30562650  0.89601650  0.36441500  1.0
  Sn  Sn399  1  0.63895983  0.22934983  0.36441500  1.0
  Sn  Sn400  1  0.63895983  0.56268317  0.36441500  1.0
  Sn  Sn401  1  0.63895983  0.89601650  0.36441500  1.0
  Sn  Sn402  1  0.97229317  0.22934983  0.36441500  1.0
  Sn  Sn403  1  0.97229317  0.56268317  0.36441500  1.0
  Sn  Sn404  1  0.97229317  0.89601650  0.36441500  1.0
  Sn  Sn405  1  0.13895983  0.10434983  0.30191500  1.0
  Sn  Sn406  1  0.13895983  0.43768317  0.30191500  1.0
  Sn  Sn407  1  0.13895983  0.77101650  0.30191500  1.0
  Sn  Sn408  1  0.47229317  0.10434983  0.30191500  1.0
  Sn  Sn409  1  0.47229317  0.43768317  0.30191500  1.0
  Sn  Sn410  1  0.47229317  0.77101650  0.30191500  1.0
  Sn  Sn411  1  0.80562650  0.10434983  0.30191500  1.0
  Sn  Sn412  1  0.80562650  0.43768317  0.30191500  1.0
  Sn  Sn413  1  0.80562650  0.77101650  0.30191500  1.0
  Sn  Sn414  1  0.11104017  0.25007675  0.29144512  1.0
  Sn  Sn415  1  0.11104017  0.58341008  0.29144512  1.0
  Sn  Sn416  1  0.11104017  0.91674342  0.29144512  1.0
  Sn  Sn417  1  0.44437350  0.25007675  0.29144512  1.0
  Sn  Sn418  1  0.44437350  0.58341008  0.29144512  1.0
  Sn  Sn419  1  0.44437350  0.91674342  0.29144512  1.0
  Sn  Sn420  1  0.77770683  0.25007675  0.29144512  1.0
  Sn  Sn421  1  0.77770683  0.58341008  0.29144512  1.0
  Sn  Sn422  1  0.77770683  0.91674342  0.29144512  1.0
  Sn  Sn423  1  0.27770683  0.04174342  0.35394512  1.0
  Sn  Sn424  1  0.27770683  0.37507675  0.35394512  1.0
  Sn  Sn425  1  0.27770683  0.70841008  0.35394512  1.0
  Sn  Sn426  1  0.61104017  0.04174342  0.35394512  1.0
  Sn  Sn427  1  0.61104017  0.37507675  0.35394512  1.0
  Sn  Sn428  1  0.61104017  0.70841008  0.35394512  1.0
  Sn  Sn429  1  0.94437350  0.04174342  0.35394512  1.0
  Sn  Sn430  1  0.94437350  0.37507675  0.35394512  1.0
  Sn  Sn431  1  0.94437350  0.70841008  0.35394512  1.0
