# generated using pymatgen
data_Ni3Sn4
_symmetry_space_group_name_H-M   'P 1'
_cell_length_a   20.02101343
_cell_length_b   26.05229792
_cell_length_c   32.31835208
_cell_angle_alpha   86.66459732
_cell_angle_beta   87.30335360
_cell_angle_gamma   73.29408807
_symmetry_Int_Tables_number   1
_chemical_formula_structural   Ni3Sn4
_chemical_formula_sum   'Ni162 Sn216'
_cell_volume   16110.09458639
_cell_formula_units_Z   54
loop_
 _symmetry_equiv_pos_site_id
 _symmetry_equiv_pos_as_xyz
  1  'x, y, z'
loop_
 _atom_site_type_symbol
 _atom_site_label
 _atom_site_symmetry_multiplicity
 _atom_site_fract_x
 _atom_site_fract_y
 _atom_site_fract_z
 _atom_site_occupancy
  Ni  Ni0  1  0.07831219  0.10793252  0.94126586  1.0
  Ni  Ni1  1  0.07831219  0.44126586  0.94126586  1.0
  Ni  Ni2  1  0.07831219  0.77459919  0.94126586  1.0
  Ni  Ni3  1  0.41164552  0.10793252  0.94126586  1.0
  Ni  Ni4  1  0.41164552  0.44126586  0.94126586  1.0
  Ni  Ni5  1  0.41164552  0.77459919  0.94126586  1.0
  Ni  Ni6  1  0.74497886  0.10793252  0.94126586  1.0
  Ni  Ni7  1  0.74497886  0.44126586  0.94126586  1.0
  Ni  Ni8  1  0.74497886  0.77459919  0.94126586  1.0
  Ni  Ni9  1  0.17355029  0.20317062  0.86983729  1.0
  Ni  Ni10  1  0.17355029  0.53650395  0.86983729  1.0
  Ni  Ni11  1  0.17355029  0.86983729  0.86983729  1.0
  Ni  Ni12  1  0.50688362  0.20317062  0.86983729  1.0
  Ni  Ni13  1  0.50688362  0.53650395  0.86983729  1.0
  Ni  Ni14  1  0.50688362  0.86983729  0.86983729  1.0
  Ni  Ni15  1  0.84021695  0.20317062  0.86983729  1.0
  Ni  Ni16  1  0.84021695  0.53650395  0.86983729  1.0
  Ni  Ni17  1  0.84021695  0.86983729  0.86983729  1.0
  Ni  Ni18  1  0.29796381  0.29584148  0.94240214  1.0
  Ni  Ni19  1  0.29796381  0.62917481  0.94240214  1.0
  Ni  Ni20  1  0.29796381  0.96250814  0.94240214  1.0
  Ni  Ni21  1  0.63129714  0.29584148  0.94240214  1.0
  Ni  Ni22  1  0.63129714  0.62917481  0.94240214  1.0
  Ni  Ni23  1  0.63129714  0.96250814  0.94240214  1.0
  Ni  Ni24  1  0.96463048  0.29584148  0.94240214  1.0
  Ni  Ni25  1  0.96463048  0.62917481  0.94240214  1.0
  Ni  Ni26  1  0.96463048  0.96250814  0.94240214  1.0
  Ni  Ni27  1  0.05986857  0.05774624  0.87097357  1.0
  Ni  Ni28  1  0.05986857  0.39107957  0.87097357  1.0
  Ni  Ni29  1  0.05986857  0.72441290  0.87097357  1.0
  Ni  Ni30  1  0.39320190  0.05774624  0.87097357  1.0
  Ni  Ni31  1  0.39320190  0.39107957  0.87097357  1.0
  Ni  Ni32  1  0.39320190  0.72441290  0.87097357  1.0
  Ni  Ni33  1  0.72653524  0.05774624  0.87097357  1.0
  Ni  Ni34  1  0.72653524  0.39107957  0.87097357  1.0
  Ni  Ni35  1  0.72653524  0.72441290  0.87097357  1.0
  Ni  Ni36  1  0.19199390  0.25335690  0.94012957  1.0
  Ni  Ni37  1  0.19199390  0.58669024  0.94012957  1.0
  Ni  Ni38  1  0.19199390  0.92002357  0.94012957  1.0
  Ni  Ni39  1  0.52532724  0.25335690  0.94012957  1.0
  Ni  Ni40  1  0.52532724  0.58669024  0.94012957  1.0
  Ni  Ni41  1  0.52532724  0.92002357  0.94012957  1.0
  Ni  Ni42  1  0.85866057  0.25335690  0.94012957  1.0
  Ni  Ni43  1  0.85866057  0.58669024  0.94012957  1.0
  Ni  Ni44  1  0.85866057  0.92002357  0.94012957  1.0
  Ni  Ni45  1  0.28723200  0.01526167  0.86870100  1.0
  Ni  Ni46  1  0.28723200  0.34859500  0.86870100  1.0
  Ni  Ni47  1  0.28723200  0.68192833  0.86870100  1.0
  Ni  Ni48  1  0.62056533  0.01526167  0.86870100  1.0
  Ni  Ni49  1  0.62056533  0.34859500  0.86870100  1.0
  Ni  Ni50  1  0.62056533  0.68192833  0.86870100  1.0
  Ni  Ni51  1  0.95389867  0.01526167  0.86870100  1.0
  Ni  Ni52  1  0.95389867  0.34859500  0.86870100  1.0
  Ni  Ni53  1  0.95389867  0.68192833  0.86870100  1.0
  Ni  Ni54  1  0.26878838  0.29840871  0.79840871  1.0
  Ni  Ni55  1  0.26878838  0.63174205  0.79840871  1.0
  Ni  Ni56  1  0.26878838  0.96507538  0.79840871  1.0
  Ni  Ni57  1  0.60212171  0.29840871  0.79840871  1.0
  Ni  Ni58  1  0.60212171  0.63174205  0.79840871  1.0
  Ni  Ni59  1  0.60212171  0.96507538  0.79840871  1.0
  Ni  Ni60  1  0.93545505  0.29840871  0.79840871  1.0
  Ni  Ni61  1  0.93545505  0.63174205  0.79840871  1.0
  Ni  Ni62  1  0.93545505  0.96507538  0.79840871  1.0
  Ni  Ni63  1  0.03069314  0.06031348  0.72698014  1.0
  Ni  Ni64  1  0.03069314  0.39364681  0.72698014  1.0
  Ni  Ni65  1  0.03069314  0.72698014  0.72698014  1.0
  Ni  Ni66  1  0.36402648  0.06031348  0.72698014  1.0
  Ni  Ni67  1  0.36402648  0.39364681  0.72698014  1.0
  Ni  Ni68  1  0.36402648  0.72698014  0.72698014  1.0
  Ni  Ni69  1  0.69735981  0.06031348  0.72698014  1.0
  Ni  Ni70  1  0.69735981  0.39364681  0.72698014  1.0
  Ni  Ni71  1  0.69735981  0.72698014  0.72698014  1.0
  Ni  Ni72  1  0.15510667  0.15298433  0.79954500  1.0
  Ni  Ni73  1  0.15510667  0.48631767  0.79954500  1.0
  Ni  Ni74  1  0.15510667  0.81965100  0.79954500  1.0
  Ni  Ni75  1  0.48844000  0.15298433  0.79954500  1.0
  Ni  Ni76  1  0.48844000  0.48631767  0.79954500  1.0
  Ni  Ni77  1  0.48844000  0.81965100  0.79954500  1.0
  Ni  Ni78  1  0.82177333  0.15298433  0.79954500  1.0
  Ni  Ni79  1  0.82177333  0.48631767  0.79954500  1.0
  Ni  Ni80  1  0.82177333  0.81965100  0.79954500  1.0
  Ni  Ni81  1  0.25034476  0.24822243  0.72811643  1.0
  Ni  Ni82  1  0.25034476  0.58155576  0.72811643  1.0
  Ni  Ni83  1  0.25034476  0.91488910  0.72811643  1.0
  Ni  Ni84  1  0.58367810  0.24822243  0.72811643  1.0
  Ni  Ni85  1  0.58367810  0.58155576  0.72811643  1.0
  Ni  Ni86  1  0.58367810  0.91488910  0.72811643  1.0
  Ni  Ni87  1  0.91701143  0.24822243  0.72811643  1.0
  Ni  Ni88  1  0.91701143  0.58155576  0.72811643  1.0
  Ni  Ni89  1  0.91701143  0.91488910  0.72811643  1.0
  Ni  Ni90  1  0.04913676  0.11049976  0.79727243  1.0
  Ni  Ni91  1  0.04913676  0.44383310  0.79727243  1.0
  Ni  Ni92  1  0.04913676  0.77716643  0.79727243  1.0
  Ni  Ni93  1  0.38247010  0.11049976  0.79727243  1.0
  Ni  Ni94  1  0.38247010  0.44383310  0.79727243  1.0
  Ni  Ni95  1  0.38247010  0.77716643  0.79727243  1.0
  Ni  Ni96  1  0.71580343  0.11049976  0.79727243  1.0
  Ni  Ni97  1  0.71580343  0.44383310  0.79727243  1.0
  Ni  Ni98  1  0.71580343  0.77716643  0.79727243  1.0
  Ni  Ni99  1  0.14437486  0.20573786  0.72584386  1.0
  Ni  Ni100  1  0.14437486  0.53907119  0.72584386  1.0
  Ni  Ni101  1  0.14437486  0.87240452  0.72584386  1.0
  Ni  Ni102  1  0.47770819  0.20573786  0.72584386  1.0
  Ni  Ni103  1  0.47770819  0.53907119  0.72584386  1.0
  Ni  Ni104  1  0.47770819  0.87240452  0.72584386  1.0
  Ni  Ni105  1  0.81104152  0.20573786  0.72584386  1.0
  Ni  Ni106  1  0.81104152  0.53907119  0.72584386  1.0
  Ni  Ni107  1  0.81104152  0.87240452  0.72584386  1.0
  Ni  Ni108  1  0.12593124  0.15555157  0.65555157  1.0
  Ni  Ni109  1  0.12593124  0.48888490  0.65555157  1.0
  Ni  Ni110  1  0.12593124  0.82221824  0.65555157  1.0
  Ni  Ni111  1  0.45926457  0.15555157  0.65555157  1.0
  Ni  Ni112  1  0.45926457  0.48888490  0.65555157  1.0
  Ni  Ni113  1  0.45926457  0.82221824  0.65555157  1.0
  Ni  Ni114  1  0.79259790  0.15555157  0.65555157  1.0
  Ni  Ni115  1  0.79259790  0.48888490  0.65555157  1.0
  Ni  Ni116  1  0.79259790  0.82221824  0.65555157  1.0
  Ni  Ni117  1  0.22116933  0.25078967  0.58412300  1.0
  Ni  Ni118  1  0.22116933  0.58412300  0.58412300  1.0
  Ni  Ni119  1  0.22116933  0.91745633  0.58412300  1.0
  Ni  Ni120  1  0.55450267  0.25078967  0.58412300  1.0
  Ni  Ni121  1  0.55450267  0.58412300  0.58412300  1.0
  Ni  Ni122  1  0.55450267  0.91745633  0.58412300  1.0
  Ni  Ni123  1  0.88783600  0.25078967  0.58412300  1.0
  Ni  Ni124  1  0.88783600  0.58412300  0.58412300  1.0
  Ni  Ni125  1  0.88783600  0.91745633  0.58412300  1.0
  Ni  Ni126  1  0.01224952  0.01012719  0.65668786  1.0
  Ni  Ni127  1  0.01224952  0.34346052  0.65668786  1.0
  Ni  Ni128  1  0.01224952  0.67679386  0.65668786  1.0
  Ni  Ni129  1  0.34558286  0.01012719  0.65668786  1.0
  Ni  Ni130  1  0.34558286  0.34346052  0.65668786  1.0
  Ni  Ni131  1  0.34558286  0.67679386  0.65668786  1.0
  Ni  Ni132  1  0.67891619  0.01012719  0.65668786  1.0
  Ni  Ni133  1  0.67891619  0.34346052  0.65668786  1.0
  Ni  Ni134  1  0.67891619  0.67679386  0.65668786  1.0
  Ni  Ni135  1  0.10748762  0.10536529  0.58525929  1.0
  Ni  Ni136  1  0.10748762  0.43869862  0.58525929  1.0
  Ni  Ni137  1  0.10748762  0.77203195  0.58525929  1.0
  Ni  Ni138  1  0.44082095  0.10536529  0.58525929  1.0
  Ni  Ni139  1  0.44082095  0.43869862  0.58525929  1.0
  Ni  Ni140  1  0.44082095  0.77203195  0.58525929  1.0
  Ni  Ni141  1  0.77415429  0.10536529  0.58525929  1.0
  Ni  Ni142  1  0.77415429  0.43869862  0.58525929  1.0
  Ni  Ni143  1  0.77415429  0.77203195  0.58525929  1.0
  Ni  Ni144  1  0.23961295  0.30097595  0.65441529  1.0
  Ni  Ni145  1  0.23961295  0.63430929  0.65441529  1.0
  Ni  Ni146  1  0.23961295  0.96764262  0.65441529  1.0
  Ni  Ni147  1  0.57294629  0.30097595  0.65441529  1.0
  Ni  Ni148  1  0.57294629  0.63430929  0.65441529  1.0
  Ni  Ni149  1  0.57294629  0.96764262  0.65441529  1.0
  Ni  Ni150  1  0.90627962  0.30097595  0.65441529  1.0
  Ni  Ni151  1  0.90627962  0.63430929  0.65441529  1.0
  Ni  Ni152  1  0.90627962  0.96764262  0.65441529  1.0
  Ni  Ni153  1  0.00151771  0.06288071  0.58298671  1.0
  Ni  Ni154  1  0.00151771  0.39621405  0.58298671  1.0
  Ni  Ni155  1  0.00151771  0.72954738  0.58298671  1.0
  Ni  Ni156  1  0.33485105  0.06288071  0.58298671  1.0
  Ni  Ni157  1  0.33485105  0.39621405  0.58298671  1.0
  Ni  Ni158  1  0.33485105  0.72954738  0.58298671  1.0
  Ni  Ni159  1  0.66818438  0.06288071  0.58298671  1.0
  Ni  Ni160  1  0.66818438  0.39621405  0.58298671  1.0
  Ni  Ni161  1  0.66818438  0.72954738  0.58298671  1.0
  Sn  Sn162  1  0.27509367  0.24834767  0.87181900  1.0
  Sn  Sn163  1  0.27509367  0.58168100  0.87181900  1.0
  Sn  Sn164  1  0.27509367  0.91501433  0.87181900  1.0
  Sn  Sn165  1  0.60842700  0.24834767  0.87181900  1.0
  Sn  Sn166  1  0.60842700  0.58168100  0.87181900  1.0
  Sn  Sn167  1  0.60842700  0.91501433  0.87181900  1.0
  Sn  Sn168  1  0.94176033  0.24834767  0.87181900  1.0
  Sn  Sn169  1  0.94176033  0.58168100  0.87181900  1.0
  Sn  Sn170  1  0.94176033  0.91501433  0.87181900  1.0
  Sn  Sn171  1  0.17985557  0.15310957  0.94324757  1.0
  Sn  Sn172  1  0.17985557  0.48644290  0.94324757  1.0
  Sn  Sn173  1  0.17985557  0.81977624  0.94324757  1.0
  Sn  Sn174  1  0.51318890  0.15310957  0.94324757  1.0
  Sn  Sn175  1  0.51318890  0.48644290  0.94324757  1.0
  Sn  Sn176  1  0.51318890  0.81977624  0.94324757  1.0
  Sn  Sn177  1  0.84652224  0.15310957  0.94324757  1.0
  Sn  Sn178  1  0.84652224  0.48644290  0.94324757  1.0
  Sn  Sn179  1  0.84652224  0.81977624  0.94324757  1.0
  Sn  Sn180  1  0.07200690  0.15799357  0.86785557  1.0
  Sn  Sn181  1  0.07200690  0.49132690  0.86785557  1.0
  Sn  Sn182  1  0.07200690  0.82466024  0.86785557  1.0
  Sn  Sn183  1  0.40534024  0.15799357  0.86785557  1.0
  Sn  Sn184  1  0.40534024  0.49132690  0.86785557  1.0
  Sn  Sn185  1  0.40534024  0.82466024  0.86785557  1.0
  Sn  Sn186  1  0.73867357  0.15799357  0.86785557  1.0
  Sn  Sn187  1  0.73867357  0.49132690  0.86785557  1.0
  Sn  Sn188  1  0.73867357  0.82466024  0.86785557  1.0
  Sn  Sn189  1  0.31010214  0.06275548  0.93928414  1.0
  Sn  Sn190  1  0.31010214  0.39608881  0.93928414  1.0
  Sn  Sn191  1  0.31010214  0.72942214  0.93928414  1.0
  Sn  Sn192  1  0.64343548  0.06275548  0.93928414  1.0
  Sn  Sn193  1  0.64343548  0.39608881  0.93928414  1.0
  Sn  Sn194  1  0.64343548  0.72942214  0.93928414  1.0
  Sn  Sn195  1  0.97676881  0.06275548  0.93928414  1.0
  Sn  Sn196  1  0.97676881  0.39608881  0.93928414  1.0
  Sn  Sn197  1  0.97676881  0.72942214  0.93928414  1.0
  Sn  Sn198  1  0.17211638  0.02459005  0.91785871  1.0
  Sn  Sn199  1  0.17211638  0.35792338  0.91785871  1.0
  Sn  Sn200  1  0.17211638  0.69125671  0.91785871  1.0
  Sn  Sn201  1  0.50544971  0.02459005  0.91785871  1.0
  Sn  Sn202  1  0.50544971  0.35792338  0.91785871  1.0
  Sn  Sn203  1  0.50544971  0.69125671  0.91785871  1.0
  Sn  Sn204  1  0.83878305  0.02459005  0.91785871  1.0
  Sn  Sn205  1  0.83878305  0.35792338  0.91785871  1.0
  Sn  Sn206  1  0.83878305  0.69125671  0.91785871  1.0
  Sn  Sn207  1  0.07687829  0.26268529  0.98928729  1.0
  Sn  Sn208  1  0.07687829  0.59601862  0.98928729  1.0
  Sn  Sn209  1  0.07687829  0.92935195  0.98928729  1.0
  Sn  Sn210  1  0.41021162  0.26268529  0.98928729  1.0
  Sn  Sn211  1  0.41021162  0.59601862  0.98928729  1.0
  Sn  Sn212  1  0.41021162  0.92935195  0.98928729  1.0
  Sn  Sn213  1  0.74354495  0.26268529  0.98928729  1.0
  Sn  Sn214  1  0.74354495  0.59601862  0.98928729  1.0
  Sn  Sn215  1  0.74354495  0.92935195  0.98928729  1.0
  Sn  Sn216  1  0.31784133  0.19127500  0.96467300  1.0
  Sn  Sn217  1  0.31784133  0.52460833  0.96467300  1.0
  Sn  Sn218  1  0.31784133  0.85794167  0.96467300  1.0
  Sn  Sn219  1  0.65117467  0.19127500  0.96467300  1.0
  Sn  Sn220  1  0.65117467  0.52460833  0.96467300  1.0
  Sn  Sn221  1  0.65117467  0.85794167  0.96467300  1.0
  Sn  Sn222  1  0.98450800  0.19127500  0.96467300  1.0
  Sn  Sn223  1  0.98450800  0.52460833  0.96467300  1.0
  Sn  Sn224  1  0.98450800  0.85794167  0.96467300  1.0
  Sn  Sn225  1  0.07974610  0.28651310  0.89324443  1.0
  Sn  Sn226  1  0.07974610  0.61984643  0.89324443  1.0
  Sn  Sn227  1  0.07974610  0.95317976  0.89324443  1.0
  Sn  Sn228  1  0.41307943  0.28651310  0.89324443  1.0
  Sn  Sn229  1  0.41307943  0.61984643  0.89324443  1.0
  Sn  Sn230  1  0.41307943  0.95317976  0.89324443  1.0
  Sn  Sn231  1  0.74641276  0.28651310  0.89324443  1.0
  Sn  Sn232  1  0.74641276  0.61984643  0.89324443  1.0
  Sn  Sn233  1  0.74641276  0.95317976  0.89324443  1.0
  Sn  Sn234  1  0.13223652  0.10549052  0.72896186  1.0
  Sn  Sn235  1  0.13223652  0.43882386  0.72896186  1.0
  Sn  Sn236  1  0.13223652  0.77215719  0.72896186  1.0
  Sn  Sn237  1  0.46556986  0.10549052  0.72896186  1.0
  Sn  Sn238  1  0.46556986  0.43882386  0.72896186  1.0
  Sn  Sn239  1  0.46556986  0.77215719  0.72896186  1.0
  Sn  Sn240  1  0.79890319  0.10549052  0.72896186  1.0
  Sn  Sn241  1  0.79890319  0.43882386  0.72896186  1.0
  Sn  Sn242  1  0.79890319  0.77215719  0.72896186  1.0
  Sn  Sn243  1  0.03699843  0.01025243  0.80039043  1.0
  Sn  Sn244  1  0.03699843  0.34358576  0.80039043  1.0
  Sn  Sn245  1  0.03699843  0.67691910  0.80039043  1.0
  Sn  Sn246  1  0.37033176  0.01025243  0.80039043  1.0
  Sn  Sn247  1  0.37033176  0.34358576  0.80039043  1.0
  Sn  Sn248  1  0.37033176  0.67691910  0.80039043  1.0
  Sn  Sn249  1  0.70366510  0.01025243  0.80039043  1.0
  Sn  Sn250  1  0.70366510  0.34358576  0.80039043  1.0
  Sn  Sn251  1  0.70366510  0.67691910  0.80039043  1.0
  Sn  Sn252  1  0.26248310  0.01513643  0.72499843  1.0
  Sn  Sn253  1  0.26248310  0.34846976  0.72499843  1.0
  Sn  Sn254  1  0.26248310  0.68180310  0.72499843  1.0
  Sn  Sn255  1  0.59581643  0.01513643  0.72499843  1.0
  Sn  Sn256  1  0.59581643  0.34846976  0.72499843  1.0
  Sn  Sn257  1  0.59581643  0.68180310  0.72499843  1.0
  Sn  Sn258  1  0.92914976  0.01513643  0.72499843  1.0
  Sn  Sn259  1  0.92914976  0.34846976  0.72499843  1.0
  Sn  Sn260  1  0.92914976  0.68180310  0.72499843  1.0
  Sn  Sn261  1  0.16724500  0.25323167  0.79642700  1.0
  Sn  Sn262  1  0.16724500  0.58656500  0.79642700  1.0
  Sn  Sn263  1  0.16724500  0.91989833  0.79642700  1.0
  Sn  Sn264  1  0.50057833  0.25323167  0.79642700  1.0
  Sn  Sn265  1  0.50057833  0.58656500  0.79642700  1.0
  Sn  Sn266  1  0.50057833  0.91989833  0.79642700  1.0
  Sn  Sn267  1  0.83391167  0.25323167  0.79642700  1.0
  Sn  Sn268  1  0.83391167  0.58656500  0.79642700  1.0
  Sn  Sn269  1  0.83391167  0.91989833  0.79642700  1.0
  Sn  Sn270  1  0.02925924  0.21506624  0.77500157  1.0
  Sn  Sn271  1  0.02925924  0.54839957  0.77500157  1.0
  Sn  Sn272  1  0.02925924  0.88173290  0.77500157  1.0
  Sn  Sn273  1  0.36259257  0.21506624  0.77500157  1.0
  Sn  Sn274  1  0.36259257  0.54839957  0.77500157  1.0
  Sn  Sn275  1  0.36259257  0.88173290  0.77500157  1.0
  Sn  Sn276  1  0.69592590  0.21506624  0.77500157  1.0
  Sn  Sn277  1  0.69592590  0.54839957  0.77500157  1.0
  Sn  Sn278  1  0.69592590  0.88173290  0.77500157  1.0
  Sn  Sn279  1  0.26735448  0.11982814  0.84643014  1.0
  Sn  Sn280  1  0.26735448  0.45316148  0.84643014  1.0
  Sn  Sn281  1  0.26735448  0.78649481  0.84643014  1.0
  Sn  Sn282  1  0.60068781  0.11982814  0.84643014  1.0
  Sn  Sn283  1  0.60068781  0.45316148  0.84643014  1.0
  Sn  Sn284  1  0.60068781  0.78649481  0.84643014  1.0
  Sn  Sn285  1  0.93402114  0.11982814  0.84643014  1.0
  Sn  Sn286  1  0.93402114  0.45316148  0.84643014  1.0
  Sn  Sn287  1  0.93402114  0.78649481  0.84643014  1.0
  Sn  Sn288  1  0.17498419  0.04841786  0.82181586  1.0
  Sn  Sn289  1  0.17498419  0.38175119  0.82181586  1.0
  Sn  Sn290  1  0.17498419  0.71508452  0.82181586  1.0
  Sn  Sn291  1  0.50831752  0.04841786  0.82181586  1.0
  Sn  Sn292  1  0.50831752  0.38175119  0.82181586  1.0
  Sn  Sn293  1  0.50831752  0.71508452  0.82181586  1.0
  Sn  Sn294  1  0.84165086  0.04841786  0.82181586  1.0
  Sn  Sn295  1  0.84165086  0.38175119  0.82181586  1.0
  Sn  Sn296  1  0.84165086  0.71508452  0.82181586  1.0
  Sn  Sn297  1  0.27022229  0.14365595  0.75038729  1.0
  Sn  Sn298  1  0.27022229  0.47698929  0.75038729  1.0
  Sn  Sn299  1  0.27022229  0.81032262  0.75038729  1.0
  Sn  Sn300  1  0.60355562  0.14365595  0.75038729  1.0
  Sn  Sn301  1  0.60355562  0.47698929  0.75038729  1.0
  Sn  Sn302  1  0.60355562  0.81032262  0.75038729  1.0
  Sn  Sn303  1  0.93688895  0.14365595  0.75038729  1.0
  Sn  Sn304  1  0.93688895  0.47698929  0.75038729  1.0
  Sn  Sn305  1  0.93688895  0.81032262  0.75038729  1.0
  Sn  Sn306  1  0.32271271  0.29596671  0.58610471  1.0
  Sn  Sn307  1  0.32271271  0.62930005  0.58610471  1.0
  Sn  Sn308  1  0.32271271  0.96263338  0.58610471  1.0
  Sn  Sn309  1  0.65604605  0.29596671  0.58610471  1.0
  Sn  Sn310  1  0.65604605  0.62930005  0.58610471  1.0
  Sn  Sn311  1  0.65604605  0.96263338  0.58610471  1.0
  Sn  Sn312  1  0.98937938  0.29596671  0.58610471  1.0
  Sn  Sn313  1  0.98937938  0.62930005  0.58610471  1.0
  Sn  Sn314  1  0.98937938  0.96263338  0.58610471  1.0
  Sn  Sn315  1  0.22747462  0.20072862  0.65753329  1.0
  Sn  Sn316  1  0.22747462  0.53406195  0.65753329  1.0
  Sn  Sn317  1  0.22747462  0.86739529  0.65753329  1.0
  Sn  Sn318  1  0.56080795  0.20072862  0.65753329  1.0
  Sn  Sn319  1  0.56080795  0.53406195  0.65753329  1.0
  Sn  Sn320  1  0.56080795  0.86739529  0.65753329  1.0
  Sn  Sn321  1  0.89414129  0.20072862  0.65753329  1.0
  Sn  Sn322  1  0.89414129  0.53406195  0.65753329  1.0
  Sn  Sn323  1  0.89414129  0.86739529  0.65753329  1.0
  Sn  Sn324  1  0.11962595  0.20561262  0.58214129  1.0
  Sn  Sn325  1  0.11962595  0.53894595  0.58214129  1.0
  Sn  Sn326  1  0.11962595  0.87227929  0.58214129  1.0
  Sn  Sn327  1  0.45295929  0.20561262  0.58214129  1.0
  Sn  Sn328  1  0.45295929  0.53894595  0.58214129  1.0
  Sn  Sn329  1  0.45295929  0.87227929  0.58214129  1.0
  Sn  Sn330  1  0.78629262  0.20561262  0.58214129  1.0
  Sn  Sn331  1  0.78629262  0.53894595  0.58214129  1.0
  Sn  Sn332  1  0.78629262  0.87227929  0.58214129  1.0
  Sn  Sn333  1  0.02438786  0.11037452  0.65356986  1.0
  Sn  Sn334  1  0.02438786  0.44370786  0.65356986  1.0
  Sn  Sn335  1  0.02438786  0.77704119  0.65356986  1.0
  Sn  Sn336  1  0.35772119  0.11037452  0.65356986  1.0
  Sn  Sn337  1  0.35772119  0.44370786  0.65356986  1.0
  Sn  Sn338  1  0.35772119  0.77704119  0.65356986  1.0
  Sn  Sn339  1  0.69105452  0.11037452  0.65356986  1.0
  Sn  Sn340  1  0.69105452  0.44370786  0.65356986  1.0
  Sn  Sn341  1  0.69105452  0.77704119  0.65356986  1.0
  Sn  Sn342  1  0.21973543  0.07220910  0.63214443  1.0
  Sn  Sn343  1  0.21973543  0.40554243  0.63214443  1.0
  Sn  Sn344  1  0.21973543  0.73887576  0.63214443  1.0
  Sn  Sn345  1  0.55306876  0.07220910  0.63214443  1.0
  Sn  Sn346  1  0.55306876  0.40554243  0.63214443  1.0
  Sn  Sn347  1  0.55306876  0.73887576  0.63214443  1.0
  Sn  Sn348  1  0.88640210  0.07220910  0.63214443  1.0
  Sn  Sn349  1  0.88640210  0.40554243  0.63214443  1.0
  Sn  Sn350  1  0.88640210  0.73887576  0.63214443  1.0
  Sn  Sn351  1  0.12449733  0.31030433  0.70357300  1.0
  Sn  Sn352  1  0.12449733  0.64363767  0.70357300  1.0
  Sn  Sn353  1  0.12449733  0.97697100  0.70357300  1.0
  Sn  Sn354  1  0.45783067  0.31030433  0.70357300  1.0
  Sn  Sn355  1  0.45783067  0.64363767  0.70357300  1.0
  Sn  Sn356  1  0.45783067  0.97697100  0.70357300  1.0
  Sn  Sn357  1  0.79116400  0.31030433  0.70357300  1.0
  Sn  Sn358  1  0.79116400  0.64363767  0.70357300  1.0
  Sn  Sn359  1  0.79116400  0.97697100  0.70357300  1.0
  Sn  Sn360  1  0.03212705  0.23889405  0.67895871  1.0
  Sn  Sn361  1  0.03212705  0.57222738  0.67895871  1.0
  Sn  Sn362  1  0.03212705  0.90556071  0.67895871  1.0
  Sn  Sn363  1  0.36546038  0.23889405  0.67895871  1.0
  Sn  Sn364  1  0.36546038  0.57222738  0.67895871  1.0
  Sn  Sn365  1  0.36546038  0.90556071  0.67895871  1.0
  Sn  Sn366  1  0.69879371  0.23889405  0.67895871  1.0
  Sn  Sn367  1  0.69879371  0.57222738  0.67895871  1.0
  Sn  Sn368  1  0.69879371  0.90556071  0.67895871  1.0
  Sn  Sn369  1  0.12736514  0.00079881  0.60753014  1.0
  Sn  Sn370  1  0.12736514  0.33413214  0.60753014  1.0
  Sn  Sn371  1  0.12736514  0.66746548  0.60753014  1.0
  Sn  Sn372  1  0.46069848  0.00079881  0.60753014  1.0
  Sn  Sn373  1  0.46069848  0.33413214  0.60753014  1.0
  Sn  Sn374  1  0.46069848  0.66746548  0.60753014  1.0
  Sn  Sn375  1  0.79403181  0.00079881  0.60753014  1.0
  Sn  Sn376  1  0.79403181  0.33413214  0.60753014  1.0
  Sn  Sn377  1  0.79403181  0.66746548  0.60753014  1.0
