# generated using pymatgen
data_Ni3Sn4
_symmetry_space_group_name_H-M   'P 1'
_cell_length_a   15.81136308
_cell_length_b   26.05229792
_cell_length_c   32.36247290
_cell_angle_alpha   116.56060972
_cell_angle_beta   104.39494593
_cell_angle_gamma   79.32186432
_symmetry_Int_Tables_number   1
_chemical_formula_structural   Ni3Sn4
_chemical_formula_sum   'Ni108 Sn144'
_cell_volume   11507.21041885
_cell_formula_units_Z   36
loop_
 _symmetry_equiv_pos_site_id
 _symmetry_equiv_pos_as_xyz
  1  'x, y, z'
loop_
 _atom_site_type_symbol
 _atom_site_label
 _atom_site_symmetry_multiplicity
 _atom_site_fract_x
 _atom_site_fract_y
 _atom_site_fract_z
 _atom_site_occupancy
  Ni  Ni0  1  0.00000000  0.16666667  0.08575935  1.0
  Ni  Ni1  1  0.00000000  0.50000000  0.08575935  1.0
  Ni  Ni2  1  0.00000000  0.83333333  0.08575935  1.0
  Ni  Ni3  1  0.33333333  0.16666667  0.08575935  1.0
  Ni  Ni4  1  0.33333333  0.50000000  0.08575935  1.0
  Ni  Ni5  1  0.33333333  0.83333333  0.08575935  1.0
  Ni  Ni6  1  0.66666667  0.16666667  0.08575935  1.0
  Ni  Ni7  1  0.66666667  0.50000000  0.08575935  1.0
  Ni  Ni8  1  0.66666667  0.83333333  0.08575935  1.0
  Ni  Ni9  1  0.00000000  0.00000000  0.18575935  1.0
  Ni  Ni10  1  0.00000000  0.33333333  0.18575935  1.0
  Ni  Ni11  1  0.00000000  0.66666667  0.18575935  1.0
  Ni  Ni12  1  0.33333333  0.00000000  0.18575935  1.0
  Ni  Ni13  1  0.33333333  0.33333333  0.18575935  1.0
  Ni  Ni14  1  0.33333333  0.66666667  0.18575935  1.0
  Ni  Ni15  1  0.66666667  0.00000000  0.18575935  1.0
  Ni  Ni16  1  0.66666667  0.33333333  0.18575935  1.0
  Ni  Ni17  1  0.66666667  0.66666667  0.18575935  1.0
  Ni  Ni18  1  0.11216667  0.13068933  0.15051855  1.0
  Ni  Ni19  1  0.11216667  0.46402267  0.15051855  1.0
  Ni  Ni20  1  0.11216667  0.79735600  0.15051855  1.0
  Ni  Ni21  1  0.44550000  0.13068933  0.15051855  1.0
  Ni  Ni22  1  0.44550000  0.46402267  0.15051855  1.0
  Ni  Ni23  1  0.44550000  0.79735600  0.15051855  1.0
  Ni  Ni24  1  0.77883333  0.13068933  0.15051855  1.0
  Ni  Ni25  1  0.77883333  0.46402267  0.15051855  1.0
  Ni  Ni26  1  0.77883333  0.79735600  0.15051855  1.0
  Ni  Ni27  1  0.11216667  0.29735600  0.05051855  1.0
  Ni  Ni28  1  0.11216667  0.63068933  0.05051855  1.0
  Ni  Ni29  1  0.11216667  0.96402267  0.05051855  1.0
  Ni  Ni30  1  0.44550000  0.29735600  0.05051855  1.0
  Ni  Ni31  1  0.44550000  0.63068933  0.05051855  1.0
  Ni  Ni32  1  0.44550000  0.96402267  0.05051855  1.0
  Ni  Ni33  1  0.77883333  0.29735600  0.05051855  1.0
  Ni  Ni34  1  0.77883333  0.63068933  0.05051855  1.0
  Ni  Ni35  1  0.77883333  0.96402267  0.05051855  1.0
  Ni  Ni36  1  0.22116667  0.03597733  0.12100015  1.0
  Ni  Ni37  1  0.22116667  0.36931067  0.12100015  1.0
  Ni  Ni38  1  0.22116667  0.70264400  0.12100015  1.0
  Ni  Ni39  1  0.55450000  0.03597733  0.12100015  1.0
  Ni  Ni40  1  0.55450000  0.36931067  0.12100015  1.0
  Ni  Ni41  1  0.55450000  0.70264400  0.12100015  1.0
  Ni  Ni42  1  0.88783333  0.03597733  0.12100015  1.0
  Ni  Ni43  1  0.88783333  0.36931067  0.12100015  1.0
  Ni  Ni44  1  0.88783333  0.70264400  0.12100015  1.0
  Ni  Ni45  1  0.22116667  0.20264400  0.02100015  1.0
  Ni  Ni46  1  0.22116667  0.53597733  0.02100015  1.0
  Ni  Ni47  1  0.22116667  0.86931067  0.02100015  1.0
  Ni  Ni48  1  0.55450000  0.20264400  0.02100015  1.0
  Ni  Ni49  1  0.55450000  0.53597733  0.02100015  1.0
  Ni  Ni50  1  0.55450000  0.86931067  0.02100015  1.0
  Ni  Ni51  1  0.88783333  0.20264400  0.02100015  1.0
  Ni  Ni52  1  0.88783333  0.53597733  0.02100015  1.0
  Ni  Ni53  1  0.88783333  0.86931067  0.02100015  1.0
  Sn  Sn54  1  0.22914767  0.09528817  0.01424065  1.0
  Sn  Sn55  1  0.22914767  0.42862150  0.01424065  1.0
  Sn  Sn56  1  0.22914767  0.76195483  0.01424065  1.0
  Sn  Sn57  1  0.56248100  0.09528817  0.01424065  1.0
  Sn  Sn58  1  0.56248100  0.42862150  0.01424065  1.0
  Sn  Sn59  1  0.56248100  0.76195483  0.01424065  1.0
  Sn  Sn60  1  0.89581433  0.09528817  0.01424065  1.0
  Sn  Sn61  1  0.89581433  0.42862150  0.01424065  1.0
  Sn  Sn62  1  0.89581433  0.76195483  0.01424065  1.0
  Sn  Sn63  1  0.22914767  0.26195483  0.11424065  1.0
  Sn  Sn64  1  0.22914767  0.59528817  0.11424065  1.0
  Sn  Sn65  1  0.22914767  0.92862150  0.11424065  1.0
  Sn  Sn66  1  0.56248100  0.26195483  0.11424065  1.0
  Sn  Sn67  1  0.56248100  0.59528817  0.11424065  1.0
  Sn  Sn68  1  0.56248100  0.92862150  0.11424065  1.0
  Sn  Sn69  1  0.89581433  0.26195483  0.11424065  1.0
  Sn  Sn70  1  0.89581433  0.59528817  0.11424065  1.0
  Sn  Sn71  1  0.89581433  0.92862150  0.11424065  1.0
  Sn  Sn72  1  0.10418567  0.07137850  0.05727805  1.0
  Sn  Sn73  1  0.10418567  0.40471183  0.05727805  1.0
  Sn  Sn74  1  0.10418567  0.73804517  0.05727805  1.0
  Sn  Sn75  1  0.43751900  0.07137850  0.05727805  1.0
  Sn  Sn76  1  0.43751900  0.40471183  0.05727805  1.0
  Sn  Sn77  1  0.43751900  0.73804517  0.05727805  1.0
  Sn  Sn78  1  0.77085233  0.07137850  0.05727805  1.0
  Sn  Sn79  1  0.77085233  0.40471183  0.05727805  1.0
  Sn  Sn80  1  0.77085233  0.73804517  0.05727805  1.0
  Sn  Sn81  1  0.10418567  0.23804517  0.15727805  1.0
  Sn  Sn82  1  0.10418567  0.57137850  0.15727805  1.0
  Sn  Sn83  1  0.10418567  0.90471183  0.15727805  1.0
  Sn  Sn84  1  0.43751900  0.23804517  0.15727805  1.0
  Sn  Sn85  1  0.43751900  0.57137850  0.15727805  1.0
  Sn  Sn86  1  0.43751900  0.90471183  0.15727805  1.0
  Sn  Sn87  1  0.77085233  0.23804517  0.15727805  1.0
  Sn  Sn88  1  0.77085233  0.57137850  0.15727805  1.0
  Sn  Sn89  1  0.77085233  0.90471183  0.15727805  1.0
  Sn  Sn90  1  0.27073867  0.13802867  0.13730775  1.0
  Sn  Sn91  1  0.27073867  0.47136200  0.13730775  1.0
  Sn  Sn92  1  0.27073867  0.80469533  0.13730775  1.0
  Sn  Sn93  1  0.60407200  0.13802867  0.13730775  1.0
  Sn  Sn94  1  0.60407200  0.47136200  0.13730775  1.0
  Sn  Sn95  1  0.60407200  0.80469533  0.13730775  1.0
  Sn  Sn96  1  0.93740533  0.13802867  0.13730775  1.0
  Sn  Sn97  1  0.93740533  0.47136200  0.13730775  1.0
  Sn  Sn98  1  0.93740533  0.80469533  0.13730775  1.0
  Sn  Sn99  1  0.27073867  0.30469533  0.03730775  1.0
  Sn  Sn100  1  0.27073867  0.63802867  0.03730775  1.0
  Sn  Sn101  1  0.27073867  0.97136200  0.03730775  1.0
  Sn  Sn102  1  0.60407200  0.30469533  0.03730775  1.0
  Sn  Sn103  1  0.60407200  0.63802867  0.03730775  1.0
  Sn  Sn104  1  0.60407200  0.97136200  0.03730775  1.0
  Sn  Sn105  1  0.93740533  0.30469533  0.03730775  1.0
  Sn  Sn106  1  0.93740533  0.63802867  0.03730775  1.0
  Sn  Sn107  1  0.93740533  0.97136200  0.03730775  1.0
  Sn  Sn108  1  0.06259467  0.02863800  0.13421095  1.0
  Sn  Sn109  1  0.06259467  0.36197133  0.13421095  1.0
  Sn  Sn110  1  0.06259467  0.69530467  0.13421095  1.0
  Sn  Sn111  1  0.39592800  0.02863800  0.13421095  1.0
  Sn  Sn112  1  0.39592800  0.36197133  0.13421095  1.0
  Sn  Sn113  1  0.39592800  0.69530467  0.13421095  1.0
  Sn  Sn114  1  0.72926133  0.02863800  0.13421095  1.0
  Sn  Sn115  1  0.72926133  0.36197133  0.13421095  1.0
  Sn  Sn116  1  0.72926133  0.69530467  0.13421095  1.0
  Sn  Sn117  1  0.06259467  0.19530467  0.03421095  1.0
  Sn  Sn118  1  0.06259467  0.52863800  0.03421095  1.0
  Sn  Sn119  1  0.06259467  0.86197133  0.03421095  1.0
  Sn  Sn120  1  0.39592800  0.19530467  0.03421095  1.0
  Sn  Sn121  1  0.39592800  0.52863800  0.03421095  1.0
  Sn  Sn122  1  0.39592800  0.86197133  0.03421095  1.0
  Sn  Sn123  1  0.72926133  0.19530467  0.03421095  1.0
  Sn  Sn124  1  0.72926133  0.52863800  0.03421095  1.0
  Sn  Sn125  1  0.72926133  0.86197133  0.03421095  1.0
  Ni  Ni126  1  0.00000000  0.16666667  0.28575935  1.0
  Ni  Ni127  1  0.00000000  0.50000000  0.28575935  1.0
  Ni  Ni128  1  0.00000000  0.83333333  0.28575935  1.0
  Ni  Ni129  1  0.33333333  0.16666667  0.28575935  1.0
  Ni  Ni130  1  0.33333333  0.50000000  0.28575935  1.0
  Ni  Ni131  1  0.33333333  0.83333333  0.28575935  1.0
  Ni  Ni132  1  0.66666667  0.16666667  0.28575935  1.0
  Ni  Ni133  1  0.66666667  0.50000000  0.28575935  1.0
  Ni  Ni134  1  0.66666667  0.83333333  0.28575935  1.0
  Ni  Ni135  1  0.00000000  0.00000000  0.38575935  1.0
  Ni  Ni136  1  0.00000000  0.33333333  0.38575935  1.0
  Ni  Ni137  1  0.00000000  0.66666667  0.38575935  1.0
  Ni  Ni138  1  0.33333333  0.00000000  0.38575935  1.0
  Ni  Ni139  1  0.33333333  0.33333333  0.38575935  1.0
  Ni  Ni140  1  0.33333333  0.66666667  0.38575935  1.0
  Ni  Ni141  1  0.66666667  0.00000000  0.38575935  1.0
  Ni  Ni142  1  0.66666667  0.33333333  0.38575935  1.0
  Ni  Ni143  1  0.66666667  0.66666667  0.38575935  1.0
  Ni  Ni144  1  0.11216667  0.13068933  0.35051855  1.0
  Ni  Ni145  1  0.11216667  0.46402267  0.35051855  1.0
  Ni  Ni146  1  0.11216667  0.79735600  0.35051855  1.0
  Ni  Ni147  1  0.44550000  0.13068933  0.35051855  1.0
  Ni  Ni148  1  0.44550000  0.46402267  0.35051855  1.0
  Ni  Ni149  1  0.44550000  0.79735600  0.35051855  1.0
  Ni  Ni150  1  0.77883333  0.13068933  0.35051855  1.0
  Ni  Ni151  1  0.77883333  0.46402267  0.35051855  1.0
  Ni  Ni152  1  0.77883333  0.79735600  0.35051855  1.0
  Ni  Ni153  1  0.11216667  0.29735600  0.25051855  1.0
  Ni  Ni154  1  0.11216667  0.63068933  0.25051855  1.0
  Ni  Ni155  1  0.11216667  0.96402267  0.25051855  1.0
  Ni  Ni156  1  0.44550000  0.29735600  0.25051855  1.0
  Ni  Ni157  1  0.44550000  0.63068933  0.25051855  1.0
  Ni  Ni158  1  0.44550000  0.96402267  0.25051855  1.0
  Ni  Ni159  1  0.77883333  0.29735600  0.25051855  1.0
  Ni  Ni160  1  0.77883333  0.63068933  0.25051855  1.0
  Ni  Ni161  1  0.77883333  0.96402267  0.25051855  1.0
  Ni  Ni162  1  0.22116667  0.03597733  0.32100015  1.0
  Ni  Ni163  1  0.22116667  0.36931067  0.32100015  1.0
  Ni  Ni164  1  0.22116667  0.70264400  0.32100015  1.0
  Ni  Ni165  1  0.55450000  0.03597733  0.32100015  1.0
  Ni  Ni166  1  0.55450000  0.36931067  0.32100015  1.0
  Ni  Ni167  1  0.55450000  0.70264400  0.32100015  1.0
  Ni  Ni168  1  0.88783333  0.03597733  0.32100015  1.0
  Ni  Ni169  1  0.88783333  0.36931067  0.32100015  1.0
  Ni  Ni170  1  0.88783333  0.70264400  0.32100015  1.0
  Ni  Ni171  1  0.22116667  0.20264400  0.22100015  1.0
  Ni  Ni172  1  0.22116667  0.53597733  0.22100015  1.0
  Ni  Ni173  1  0.22116667  0.86931067  0.22100015  1.0
  Ni  Ni174  1  0.55450000  0.20264400  0.22100015  1.0
  Ni  Ni175  1  0.55450000  0.53597733  0.22100015  1.0
  Ni  Ni176  1  0.55450000  0.86931067  0.22100015  1.0
  Ni  Ni177  1  0.88783333  0.20264400  0.22100015  1.0
  Ni  Ni178  1  0.88783333  0.53597733  0.22100015  1.0
  Ni  Ni179  1  0.88783333  0.86931067  0.22100015  1.0
  Sn  Sn180  1  0.22914767  0.09528817  0.21424065  1.0
  Sn  Sn181  1  0.22914767  0.42862150  0.21424065  1.0
  Sn  Sn182  1  0.22914767  0.76195483  0.21424065  1.0
  Sn  Sn183  1  0.56248100  0.09528817  0.21424065  1.0
  Sn  Sn184  1  0.56248100  0.42862150  0.21424065  1.0
  Sn  Sn185  1  0.56248100  0.76195483  0.21424065  1.0
  Sn  Sn186  1  0.89581433  0.09528817  0.21424065  1.0
  Sn  Sn187  1  0.89581433  0.42862150  0.21424065  1.0
  Sn  Sn188  1  0.89581433  0.76195483  0.21424065  1.0
  Sn  Sn189  1  0.22914767  0.26195483  0.31424065  1.0
  Sn  Sn190  1  0.22914767  0.59528817  0.31424065  1.0
  Sn  Sn191  1  0.22914767  0.92862150  0.31424065  1.0
  Sn  Sn192  1  0.56248100  0.26195483  0.31424065  1.0
  Sn  Sn193  1  0.56248100  0.59528817  0.31424065  1.0
  Sn  Sn194  1  0.56248100  0.92862150  0.31424065  1.0
  Sn  Sn195  1  0.89581433  0.26195483  0.31424065  1.0
  Sn  Sn196  1  0.89581433  0.59528817  0.31424065  1.0
  Sn  Sn197  1  0.89581433  0.92862150  0.31424065  1.0
  Sn  Sn198  1  0.10418567  0.07137850  0.25727805  1.0
  Sn  Sn199  1  0.10418567  0.40471183  0.25727805  1.0
  Sn  Sn200  1  0.10418567  0.73804517  0.25727805  1.0
  Sn  Sn201  1  0.43751900  0.07137850  0.25727805  1.0
  Sn  Sn202  1  0.43751900  0.40471183  0.25727805  1.0
  Sn  Sn203  1  0.43751900  0.73804517  0.25727805  1.0
  Sn  Sn204  1  0.77085233  0.07137850  0.25727805  1.0
  Sn  Sn205  1  0.77085233  0.40471183  0.25727805  1.0
  Sn  Sn206  1  0.77085233  0.73804517  0.25727805  1.0
  Sn  Sn207  1  0.10418567  0.23804517  0.35727805  1.0
  Sn  Sn208  1  0.10418567  0.57137850  0.35727805  1.0
  Sn  Sn209  1  0.10418567  0.90471183  0.35727805  1.0
  Sn  Sn210  1  0.43751900  0.23804517  0.35727805  1.0
  Sn  Sn211  1  0.43751900  0.57137850  0.35727805  1.0
  Sn  Sn212  1  0.43751900  0.90471183  0.35727805  1.0
  Sn  Sn213  1  0.77085233  0.23804517  0.35727805  1.0
  Sn  Sn214  1  0.77085233  0.57137850  0.35727805  1.0
  Sn  Sn215  1  0.77085233  0.90471183  0.35727805  1.0
  Sn  Sn216  1  0.27073867  0.13802867  0.33730775  1.0
  Sn  Sn217  1  0.27073867  0.47136200  0.33730775  1.0
  Sn  Sn218  1  0.27073867  0.80469533  0.33730775  1.0
  Sn  Sn219  1  0.60407200  0.13802867  0.33730775  1.0
  Sn  Sn220  1  0.60407200  0.47136200  0.33730775  1.0
  Sn  Sn221  1  0.60407200  0.80469533  0.33730775  1.0
  Sn  Sn222  1  0.93740533  0.13802867  0.33730775  1.0
  Sn  Sn223  1  0.93740533  0.47136200  0.33730775  1.0
  Sn  Sn224  1  0.93740533  0.80469533  0.33730775  1.0
  Sn  Sn225  1  0.27073867  0.30469533  0.23730775  1.0
  Sn  Sn226  1  0.27073867  0.63802867  0.23730775  1.0
  Sn  Sn227  1  0.27073867  0.97136200  0.23730775  1.0
  Sn  Sn228  1  0.60407200  0.30469533  0.23730775  1.0
  Sn  Sn229  1  0.60407200  0.63802867  0.23730775  1.0
  Sn  Sn230  1  0.60407200  0.97136200  0.23730775  1.0
  Sn  Sn231  1  0.93740533  0.30469533  0.23730775  1.0
  Sn  Sn232  1  0.93740533  0.63802867  0.23730775  1.0
  Sn  Sn233  1  0.93740533  0.97136200  0.23730775  1.0
  Sn  Sn234  1  0.06259467  0.02863800  0.33421095  1.0
  Sn  Sn235  1  0.06259467  0.36197133  0.33421095  1.0
  Sn  Sn236  1  0.06259467  0.69530467  0.33421095  1.0
  Sn  Sn237  1  0.39592800  0.02863800  0.33421095  1.0
  Sn  Sn238  1  0.39592800  0.36197133  0.33421095  1.0
  Sn  Sn239  1  0.39592800  0.69530467  0.33421095  1.0
  Sn  Sn240  1  0.72926133  0.02863800  0.33421095  1.0
  Sn  Sn241  1  0.72926133  0.36197133  0.33421095  1.0
  Sn  Sn242  1  0.72926133  0.69530467  0.33421095  1.0
  Sn  Sn243  1  0.06259467  0.19530467  0.23421095  1.0
  Sn  Sn244  1  0.06259467  0.52863800  0.23421095  1.0
  Sn  Sn245  1  0.06259467  0.86197133  0.23421095  1.0
  Sn  Sn246  1  0.39592800  0.19530467  0.23421095  1.0
  Sn  Sn247  1  0.39592800  0.52863800  0.23421095  1.0
  Sn  Sn248  1  0.39592800  0.86197133  0.23421095  1.0
  Sn  Sn249  1  0.72926133  0.19530467  0.23421095  1.0
  Sn  Sn250  1  0.72926133  0.52863800  0.23421095  1.0
  Sn  Sn251  1  0.72926133  0.86197133  0.23421095  1.0
