# generated using pymatgen
data_Ni3Sn
_symmetry_space_group_name_H-M   'P 1'
_cell_length_a   20.37614203
_cell_length_b   30.01593456
_cell_length_c   29.32402746
_cell_angle_alpha   97.95330261
_cell_angle_beta   92.25663879
_cell_angle_gamma   108.81122960
_symmetry_Int_Tables_number   1
_chemical_formula_structural   Ni3Sn
_chemical_formula_sum   'Ni432 Sn144'
_cell_volume   16745.95327960
_cell_formula_units_Z   144
loop_
 _symmetry_equiv_pos_site_id
 _symmetry_equiv_pos_as_xyz
  1  'x, y, z'
loop_
 _atom_site_type_symbol
 _atom_site_label
 _atom_site_symmetry_multiplicity
 _atom_site_fract_x
 _atom_site_fract_y
 _atom_site_fract_z
 _atom_site_occupancy
  Ni  Ni0  1  0.22682847  0.22508944  0.03997440  1.0
  Ni  Ni1  1  0.22682847  0.55842277  0.03997440  1.0
  Ni  Ni2  1  0.22682847  0.89175610  0.03997440  1.0
  Ni  Ni3  1  0.56016180  0.22508944  0.03997440  1.0
  Ni  Ni4  1  0.56016180  0.55842277  0.03997440  1.0
  Ni  Ni5  1  0.56016180  0.89175610  0.03997440  1.0
  Ni  Ni6  1  0.89349514  0.22508944  0.03997440  1.0
  Ni  Ni7  1  0.89349514  0.55842277  0.03997440  1.0
  Ni  Ni8  1  0.89349514  0.89175610  0.03997440  1.0
  Ni  Ni9  1  0.15275440  0.00286721  0.09552995  1.0
  Ni  Ni10  1  0.15275440  0.33620055  0.09552995  1.0
  Ni  Ni11  1  0.15275440  0.66953388  0.09552995  1.0
  Ni  Ni12  1  0.48608773  0.00286721  0.09552995  1.0
  Ni  Ni13  1  0.48608773  0.33620055  0.09552995  1.0
  Ni  Ni14  1  0.48608773  0.66953388  0.09552995  1.0
  Ni  Ni15  1  0.81942106  0.00286721  0.09552995  1.0
  Ni  Ni16  1  0.81942106  0.33620055  0.09552995  1.0
  Ni  Ni17  1  0.81942106  0.66953388  0.09552995  1.0
  Ni  Ni18  1  0.19883636  0.13406344  0.02106423  1.0
  Ni  Ni19  1  0.19883636  0.46739677  0.02106423  1.0
  Ni  Ni20  1  0.19883636  0.80073010  0.02106423  1.0
  Ni  Ni21  1  0.53216969  0.13406344  0.02106423  1.0
  Ni  Ni22  1  0.53216969  0.46739677  0.02106423  1.0
  Ni  Ni23  1  0.53216969  0.80073010  0.02106423  1.0
  Ni  Ni24  1  0.86550302  0.13406344  0.02106423  1.0
  Ni  Ni25  1  0.86550302  0.46739677  0.02106423  1.0
  Ni  Ni26  1  0.86550302  0.80073010  0.02106423  1.0
  Ni  Ni27  1  0.12476228  0.24517455  0.07661979  1.0
  Ni  Ni28  1  0.12476228  0.57850788  0.07661979  1.0
  Ni  Ni29  1  0.12476228  0.91184121  0.07661979  1.0
  Ni  Ni30  1  0.45809562  0.24517455  0.07661979  1.0
  Ni  Ni31  1  0.45809562  0.57850788  0.07661979  1.0
  Ni  Ni32  1  0.45809562  0.91184121  0.07661979  1.0
  Ni  Ni33  1  0.79142895  0.24517455  0.07661979  1.0
  Ni  Ni34  1  0.79142895  0.57850788  0.07661979  1.0
  Ni  Ni35  1  0.79142895  0.91184121  0.07661979  1.0
  Ni  Ni36  1  0.24890884  0.29838021  0.10322262  1.0
  Ni  Ni37  1  0.24890884  0.63171355  0.10322262  1.0
  Ni  Ni38  1  0.24890884  0.96504688  0.10322262  1.0
  Ni  Ni39  1  0.58224217  0.29838021  0.10322262  1.0
  Ni  Ni40  1  0.58224217  0.63171355  0.10322262  1.0
  Ni  Ni41  1  0.58224217  0.96504688  0.10322262  1.0
  Ni  Ni42  1  0.91557551  0.29838021  0.10322262  1.0
  Ni  Ni43  1  0.91557551  0.63171355  0.10322262  1.0
  Ni  Ni44  1  0.91557551  0.96504688  0.10322262  1.0
  Ni  Ni45  1  0.32298291  0.18726910  0.04766706  1.0
  Ni  Ni46  1  0.32298291  0.52060244  0.04766706  1.0
  Ni  Ni47  1  0.32298291  0.85393577  0.04766706  1.0
  Ni  Ni48  1  0.65631625  0.18726910  0.04766706  1.0
  Ni  Ni49  1  0.65631625  0.52060244  0.04766706  1.0
  Ni  Ni50  1  0.65631625  0.85393577  0.04766706  1.0
  Ni  Ni51  1  0.98964958  0.18726910  0.04766706  1.0
  Ni  Ni52  1  0.98964958  0.52060244  0.04766706  1.0
  Ni  Ni53  1  0.98964958  0.85393577  0.04766706  1.0
  Ni  Ni54  1  0.15588758  0.17188377  0.09318006  1.0
  Ni  Ni55  1  0.15588758  0.50521710  0.09318006  1.0
  Ni  Ni56  1  0.15588758  0.83855044  0.09318006  1.0
  Ni  Ni57  1  0.48922091  0.17188377  0.09318006  1.0
  Ni  Ni58  1  0.48922091  0.50521710  0.09318006  1.0
  Ni  Ni59  1  0.48922091  0.83855044  0.09318006  1.0
  Ni  Ni60  1  0.82255425  0.17188377  0.09318006  1.0
  Ni  Ni61  1  0.82255425  0.50521710  0.09318006  1.0
  Ni  Ni62  1  0.82255425  0.83855044  0.09318006  1.0
  Ni  Ni63  1  0.22996165  0.06077266  0.03762451  1.0
  Ni  Ni64  1  0.22996165  0.39410599  0.03762451  1.0
  Ni  Ni65  1  0.22996165  0.72743932  0.03762451  1.0
  Ni  Ni66  1  0.56329499  0.06077266  0.03762451  1.0
  Ni  Ni67  1  0.56329499  0.39410599  0.03762451  1.0
  Ni  Ni68  1  0.56329499  0.72743932  0.03762451  1.0
  Ni  Ni69  1  0.89662832  0.06077266  0.03762451  1.0
  Ni  Ni70  1  0.89662832  0.39410599  0.03762451  1.0
  Ni  Ni71  1  0.89662832  0.72743932  0.03762451  1.0
  Ni  Ni72  1  0.02077488  0.11397832  0.06422734  1.0
  Ni  Ni73  1  0.02077488  0.44731166  0.06422734  1.0
  Ni  Ni74  1  0.02077488  0.78064499  0.06422734  1.0
  Ni  Ni75  1  0.35410821  0.11397832  0.06422734  1.0
  Ni  Ni76  1  0.35410821  0.44731166  0.06422734  1.0
  Ni  Ni77  1  0.35410821  0.78064499  0.06422734  1.0
  Ni  Ni78  1  0.68744154  0.11397832  0.06422734  1.0
  Ni  Ni79  1  0.68744154  0.44731166  0.06422734  1.0
  Ni  Ni80  1  0.68744154  0.78064499  0.06422734  1.0
  Ni  Ni81  1  0.09484895  0.00286721  0.00867179  1.0
  Ni  Ni82  1  0.09484895  0.33620055  0.00867179  1.0
  Ni  Ni83  1  0.09484895  0.66953388  0.00867179  1.0
  Ni  Ni84  1  0.42818228  0.00286721  0.00867179  1.0
  Ni  Ni85  1  0.42818228  0.33620055  0.00867179  1.0
  Ni  Ni86  1  0.42818228  0.66953388  0.00867179  1.0
  Ni  Ni87  1  0.76151562  0.00286721  0.00867179  1.0
  Ni  Ni88  1  0.76151562  0.33620055  0.00867179  1.0
  Ni  Ni89  1  0.76151562  0.66953388  0.00867179  1.0
  Ni  Ni90  1  0.32611610  0.02295232  0.04531718  1.0
  Ni  Ni91  1  0.32611610  0.35628566  0.04531718  1.0
  Ni  Ni92  1  0.32611610  0.68961899  0.04531718  1.0
  Ni  Ni93  1  0.65944943  0.02295232  0.04531718  1.0
  Ni  Ni94  1  0.65944943  0.35628566  0.04531718  1.0
  Ni  Ni95  1  0.65944943  0.68961899  0.04531718  1.0
  Ni  Ni96  1  0.99278277  0.02295232  0.04531718  1.0
  Ni  Ni97  1  0.99278277  0.35628566  0.04531718  1.0
  Ni  Ni98  1  0.99278277  0.68961899  0.04531718  1.0
  Ni  Ni99  1  0.25204202  0.13406344  0.10087273  1.0
  Ni  Ni100  1  0.25204202  0.46739677  0.10087273  1.0
  Ni  Ni101  1  0.25204202  0.80073010  0.10087273  1.0
  Ni  Ni102  1  0.58537536  0.13406344  0.10087273  1.0
  Ni  Ni103  1  0.58537536  0.46739677  0.10087273  1.0
  Ni  Ni104  1  0.58537536  0.80073010  0.10087273  1.0
  Ni  Ni105  1  0.91870869  0.13406344  0.10087273  1.0
  Ni  Ni106  1  0.91870869  0.46739677  0.10087273  1.0
  Ni  Ni107  1  0.91870869  0.80073010  0.10087273  1.0
  Ni  Ni108  1  0.07868032  0.11397832  0.15108551  1.0
  Ni  Ni109  1  0.07868032  0.44731166  0.15108551  1.0
  Ni  Ni110  1  0.07868032  0.78064499  0.15108551  1.0
  Ni  Ni111  1  0.41201365  0.11397832  0.15108551  1.0
  Ni  Ni112  1  0.41201365  0.44731166  0.15108551  1.0
  Ni  Ni113  1  0.41201365  0.78064499  0.15108551  1.0
  Ni  Ni114  1  0.74534699  0.11397832  0.15108551  1.0
  Ni  Ni115  1  0.74534699  0.44731166  0.15108551  1.0
  Ni  Ni116  1  0.74534699  0.78064499  0.15108551  1.0
  Ni  Ni117  1  0.00460625  0.22508944  0.20664106  1.0
  Ni  Ni118  1  0.00460625  0.55842277  0.20664106  1.0
  Ni  Ni119  1  0.00460625  0.89175610  0.20664106  1.0
  Ni  Ni120  1  0.33793958  0.22508944  0.20664106  1.0
  Ni  Ni121  1  0.33793958  0.55842277  0.20664106  1.0
  Ni  Ni122  1  0.33793958  0.89175610  0.20664106  1.0
  Ni  Ni123  1  0.67127291  0.22508944  0.20664106  1.0
  Ni  Ni124  1  0.67127291  0.55842277  0.20664106  1.0
  Ni  Ni125  1  0.67127291  0.89175610  0.20664106  1.0
  Ni  Ni126  1  0.05068821  0.02295232  0.13217534  1.0
  Ni  Ni127  1  0.05068821  0.35628566  0.13217534  1.0
  Ni  Ni128  1  0.05068821  0.68961899  0.13217534  1.0
  Ni  Ni129  1  0.38402154  0.02295232  0.13217534  1.0
  Ni  Ni130  1  0.38402154  0.35628566  0.13217534  1.0
  Ni  Ni131  1  0.38402154  0.68961899  0.13217534  1.0
  Ni  Ni132  1  0.71735488  0.02295232  0.13217534  1.0
  Ni  Ni133  1  0.71735488  0.35628566  0.13217534  1.0
  Ni  Ni134  1  0.71735488  0.68961899  0.13217534  1.0
  Ni  Ni135  1  0.30994747  0.13406344  0.18773090  1.0
  Ni  Ni136  1  0.30994747  0.46739677  0.18773090  1.0
  Ni  Ni137  1  0.30994747  0.80073010  0.18773090  1.0
  Ni  Ni138  1  0.64328080  0.13406344  0.18773090  1.0
  Ni  Ni139  1  0.64328080  0.46739677  0.18773090  1.0
  Ni  Ni140  1  0.64328080  0.80073010  0.18773090  1.0
  Ni  Ni141  1  0.97661414  0.13406344  0.18773090  1.0
  Ni  Ni142  1  0.97661414  0.46739677  0.18773090  1.0
  Ni  Ni143  1  0.97661414  0.80073010  0.18773090  1.0
  Ni  Ni144  1  0.10076069  0.18726910  0.21433373  1.0
  Ni  Ni145  1  0.10076069  0.52060244  0.21433373  1.0
  Ni  Ni146  1  0.10076069  0.85393577  0.21433373  1.0
  Ni  Ni147  1  0.43409402  0.18726910  0.21433373  1.0
  Ni  Ni148  1  0.43409402  0.52060244  0.21433373  1.0
  Ni  Ni149  1  0.43409402  0.85393577  0.21433373  1.0
  Ni  Ni150  1  0.76742736  0.18726910  0.21433373  1.0
  Ni  Ni151  1  0.76742736  0.52060244  0.21433373  1.0
  Ni  Ni152  1  0.76742736  0.85393577  0.21433373  1.0
  Ni  Ni153  1  0.17483477  0.07615799  0.15877818  1.0
  Ni  Ni154  1  0.17483477  0.40949132  0.15877818  1.0
  Ni  Ni155  1  0.17483477  0.74282466  0.15877818  1.0
  Ni  Ni156  1  0.50816810  0.07615799  0.15877818  1.0
  Ni  Ni157  1  0.50816810  0.40949132  0.15877818  1.0
  Ni  Ni158  1  0.50816810  0.74282466  0.15877818  1.0
  Ni  Ni159  1  0.84150143  0.07615799  0.15877818  1.0
  Ni  Ni160  1  0.84150143  0.40949132  0.15877818  1.0
  Ni  Ni161  1  0.84150143  0.74282466  0.15877818  1.0
  Ni  Ni162  1  0.00773943  0.06077266  0.20429118  1.0
  Ni  Ni163  1  0.00773943  0.39410599  0.20429118  1.0
  Ni  Ni164  1  0.00773943  0.72743932  0.20429118  1.0
  Ni  Ni165  1  0.34107277  0.06077266  0.20429118  1.0
  Ni  Ni166  1  0.34107277  0.39410599  0.20429118  1.0
  Ni  Ni167  1  0.34107277  0.72743932  0.20429118  1.0
  Ni  Ni168  1  0.67440610  0.06077266  0.20429118  1.0
  Ni  Ni169  1  0.67440610  0.39410599  0.20429118  1.0
  Ni  Ni170  1  0.67440610  0.72743932  0.20429118  1.0
  Ni  Ni171  1  0.08181351  0.28299488  0.14873562  1.0
  Ni  Ni172  1  0.08181351  0.61632821  0.14873562  1.0
  Ni  Ni173  1  0.08181351  0.94966155  0.14873562  1.0
  Ni  Ni174  1  0.41514684  0.28299488  0.14873562  1.0
  Ni  Ni175  1  0.41514684  0.61632821  0.14873562  1.0
  Ni  Ni176  1  0.41514684  0.94966155  0.14873562  1.0
  Ni  Ni177  1  0.74848017  0.28299488  0.14873562  1.0
  Ni  Ni178  1  0.74848017  0.61632821  0.14873562  1.0
  Ni  Ni179  1  0.74848017  0.94966155  0.14873562  1.0
  Ni  Ni180  1  0.20596006  0.00286721  0.17533845  1.0
  Ni  Ni181  1  0.20596006  0.33620055  0.17533845  1.0
  Ni  Ni182  1  0.20596006  0.66953388  0.17533845  1.0
  Ni  Ni183  1  0.53929340  0.00286721  0.17533845  1.0
  Ni  Ni184  1  0.53929340  0.33620055  0.17533845  1.0
  Ni  Ni185  1  0.53929340  0.66953388  0.17533845  1.0
  Ni  Ni186  1  0.87262673  0.00286721  0.17533845  1.0
  Ni  Ni187  1  0.87262673  0.33620055  0.17533845  1.0
  Ni  Ni188  1  0.87262673  0.66953388  0.17533845  1.0
  Ni  Ni189  1  0.28003414  0.22508944  0.11978290  1.0
  Ni  Ni190  1  0.28003414  0.55842277  0.11978290  1.0
  Ni  Ni191  1  0.28003414  0.89175610  0.11978290  1.0
  Ni  Ni192  1  0.61336747  0.22508944  0.11978290  1.0
  Ni  Ni193  1  0.61336747  0.55842277  0.11978290  1.0
  Ni  Ni194  1  0.61336747  0.89175610  0.11978290  1.0
  Ni  Ni195  1  0.94670080  0.22508944  0.11978290  1.0
  Ni  Ni196  1  0.94670080  0.55842277  0.11978290  1.0
  Ni  Ni197  1  0.94670080  0.89175610  0.11978290  1.0
  Ni  Ni198  1  0.17796795  0.24517455  0.15642829  1.0
  Ni  Ni199  1  0.17796795  0.57850788  0.15642829  1.0
  Ni  Ni200  1  0.17796795  0.91184121  0.15642829  1.0
  Ni  Ni201  1  0.51130128  0.24517455  0.15642829  1.0
  Ni  Ni202  1  0.51130128  0.57850788  0.15642829  1.0
  Ni  Ni203  1  0.51130128  0.91184121  0.15642829  1.0
  Ni  Ni204  1  0.84463462  0.24517455  0.15642829  1.0
  Ni  Ni205  1  0.84463462  0.57850788  0.15642829  1.0
  Ni  Ni206  1  0.84463462  0.91184121  0.15642829  1.0
  Ni  Ni207  1  0.10389388  0.02295232  0.21198384  1.0
  Ni  Ni208  1  0.10389388  0.35628566  0.21198384  1.0
  Ni  Ni209  1  0.10389388  0.68961899  0.21198384  1.0
  Ni  Ni210  1  0.43722721  0.02295232  0.21198384  1.0
  Ni  Ni211  1  0.43722721  0.35628566  0.21198384  1.0
  Ni  Ni212  1  0.43722721  0.68961899  0.21198384  1.0
  Ni  Ni213  1  0.77056054  0.02295232  0.21198384  1.0
  Ni  Ni214  1  0.77056054  0.35628566  0.21198384  1.0
  Ni  Ni215  1  0.77056054  0.68961899  0.21198384  1.0
  Ni  Ni216  1  0.26386551  0.00286721  0.26219662  1.0
  Ni  Ni217  1  0.26386551  0.33620055  0.26219662  1.0
  Ni  Ni218  1  0.26386551  0.66953388  0.26219662  1.0
  Ni  Ni219  1  0.59719884  0.00286721  0.26219662  1.0
  Ni  Ni220  1  0.59719884  0.33620055  0.26219662  1.0
  Ni  Ni221  1  0.59719884  0.66953388  0.26219662  1.0
  Ni  Ni222  1  0.93053217  0.00286721  0.26219662  1.0
  Ni  Ni223  1  0.93053217  0.33620055  0.26219662  1.0
  Ni  Ni224  1  0.93053217  0.66953388  0.26219662  1.0
  Ni  Ni225  1  0.18979143  0.11397832  0.31775218  1.0
  Ni  Ni226  1  0.18979143  0.44731166  0.31775218  1.0
  Ni  Ni227  1  0.18979143  0.78064499  0.31775218  1.0
  Ni  Ni228  1  0.52312477  0.11397832  0.31775218  1.0
  Ni  Ni229  1  0.52312477  0.44731166  0.31775218  1.0
  Ni  Ni230  1  0.52312477  0.78064499  0.31775218  1.0
  Ni  Ni231  1  0.85645810  0.11397832  0.31775218  1.0
  Ni  Ni232  1  0.85645810  0.44731166  0.31775218  1.0
  Ni  Ni233  1  0.85645810  0.78064499  0.31775218  1.0
  Ni  Ni234  1  0.23587340  0.24517455  0.24328645  1.0
  Ni  Ni235  1  0.23587340  0.57850788  0.24328645  1.0
  Ni  Ni236  1  0.23587340  0.91184121  0.24328645  1.0
  Ni  Ni237  1  0.56920673  0.24517455  0.24328645  1.0
  Ni  Ni238  1  0.56920673  0.57850788  0.24328645  1.0
  Ni  Ni239  1  0.56920673  0.91184121  0.24328645  1.0
  Ni  Ni240  1  0.90254006  0.24517455  0.24328645  1.0
  Ni  Ni241  1  0.90254006  0.57850788  0.24328645  1.0
  Ni  Ni242  1  0.90254006  0.91184121  0.24328645  1.0
  Ni  Ni243  1  0.16179932  0.02295232  0.29884201  1.0
  Ni  Ni244  1  0.16179932  0.35628566  0.29884201  1.0
  Ni  Ni245  1  0.16179932  0.68961899  0.29884201  1.0
  Ni  Ni246  1  0.49513265  0.02295232  0.29884201  1.0
  Ni  Ni247  1  0.49513265  0.35628566  0.29884201  1.0
  Ni  Ni248  1  0.49513265  0.68961899  0.29884201  1.0
  Ni  Ni249  1  0.82846599  0.02295232  0.29884201  1.0
  Ni  Ni250  1  0.82846599  0.35628566  0.29884201  1.0
  Ni  Ni251  1  0.82846599  0.68961899  0.29884201  1.0
  Ni  Ni252  1  0.28594588  0.07615799  0.32544484  1.0
  Ni  Ni253  1  0.28594588  0.40949132  0.32544484  1.0
  Ni  Ni254  1  0.28594588  0.74282466  0.32544484  1.0
  Ni  Ni255  1  0.61927921  0.07615799  0.32544484  1.0
  Ni  Ni256  1  0.61927921  0.40949132  0.32544484  1.0
  Ni  Ni257  1  0.61927921  0.74282466  0.32544484  1.0
  Ni  Ni258  1  0.95261254  0.07615799  0.32544484  1.0
  Ni  Ni259  1  0.95261254  0.40949132  0.32544484  1.0
  Ni  Ni260  1  0.95261254  0.74282466  0.32544484  1.0
  Ni  Ni261  1  0.02668662  0.29838021  0.26988929  1.0
  Ni  Ni262  1  0.02668662  0.63171355  0.26988929  1.0
  Ni  Ni263  1  0.02668662  0.96504688  0.26988929  1.0
  Ni  Ni264  1  0.36001995  0.29838021  0.26988929  1.0
  Ni  Ni265  1  0.36001995  0.63171355  0.26988929  1.0
  Ni  Ni266  1  0.36001995  0.96504688  0.26988929  1.0
  Ni  Ni267  1  0.69335328  0.29838021  0.26988929  1.0
  Ni  Ni268  1  0.69335328  0.63171355  0.26988929  1.0
  Ni  Ni269  1  0.69335328  0.96504688  0.26988929  1.0
  Ni  Ni270  1  0.19292462  0.28299488  0.31540229  1.0
  Ni  Ni271  1  0.19292462  0.61632821  0.31540229  1.0
  Ni  Ni272  1  0.19292462  0.94966155  0.31540229  1.0
  Ni  Ni273  1  0.52625795  0.28299488  0.31540229  1.0
  Ni  Ni274  1  0.52625795  0.61632821  0.31540229  1.0
  Ni  Ni275  1  0.52625795  0.94966155  0.31540229  1.0
  Ni  Ni276  1  0.85959128  0.28299488  0.31540229  1.0
  Ni  Ni277  1  0.85959128  0.61632821  0.31540229  1.0
  Ni  Ni278  1  0.85959128  0.94966155  0.31540229  1.0
  Ni  Ni279  1  0.26699869  0.17188377  0.25984673  1.0
  Ni  Ni280  1  0.26699869  0.50521710  0.25984673  1.0
  Ni  Ni281  1  0.26699869  0.83855044  0.25984673  1.0
  Ni  Ni282  1  0.60033202  0.17188377  0.25984673  1.0
  Ni  Ni283  1  0.60033202  0.50521710  0.25984673  1.0
  Ni  Ni284  1  0.60033202  0.83855044  0.25984673  1.0
  Ni  Ni285  1  0.93366536  0.17188377  0.25984673  1.0
  Ni  Ni286  1  0.93366536  0.50521710  0.25984673  1.0
  Ni  Ni287  1  0.93366536  0.83855044  0.25984673  1.0
  Ni  Ni288  1  0.05781191  0.22508944  0.28644956  1.0
  Ni  Ni289  1  0.05781191  0.55842277  0.28644956  1.0
  Ni  Ni290  1  0.05781191  0.89175610  0.28644956  1.0
  Ni  Ni291  1  0.39114525  0.22508944  0.28644956  1.0
  Ni  Ni292  1  0.39114525  0.55842277  0.28644956  1.0
  Ni  Ni293  1  0.39114525  0.89175610  0.28644956  1.0
  Ni  Ni294  1  0.72447858  0.22508944  0.28644956  1.0
  Ni  Ni295  1  0.72447858  0.55842277  0.28644956  1.0
  Ni  Ni296  1  0.72447858  0.89175610  0.28644956  1.0
  Ni  Ni297  1  0.13188599  0.11397832  0.23089401  1.0
  Ni  Ni298  1  0.13188599  0.44731166  0.23089401  1.0
  Ni  Ni299  1  0.13188599  0.78064499  0.23089401  1.0
  Ni  Ni300  1  0.46521932  0.11397832  0.23089401  1.0
  Ni  Ni301  1  0.46521932  0.44731166  0.23089401  1.0
  Ni  Ni302  1  0.46521932  0.78064499  0.23089401  1.0
  Ni  Ni303  1  0.79855265  0.11397832  0.23089401  1.0
  Ni  Ni304  1  0.79855265  0.44731166  0.23089401  1.0
  Ni  Ni305  1  0.79855265  0.78064499  0.23089401  1.0
  Ni  Ni306  1  0.02981980  0.13406344  0.26753940  1.0
  Ni  Ni307  1  0.02981980  0.46739677  0.26753940  1.0
  Ni  Ni308  1  0.02981980  0.80073010  0.26753940  1.0
  Ni  Ni309  1  0.36315314  0.13406344  0.26753940  1.0
  Ni  Ni310  1  0.36315314  0.46739677  0.26753940  1.0
  Ni  Ni311  1  0.36315314  0.80073010  0.26753940  1.0
  Ni  Ni312  1  0.69648647  0.13406344  0.26753940  1.0
  Ni  Ni313  1  0.69648647  0.46739677  0.26753940  1.0
  Ni  Ni314  1  0.69648647  0.80073010  0.26753940  1.0
  Ni  Ni315  1  0.28907906  0.24517455  0.32309495  1.0
  Ni  Ni316  1  0.28907906  0.57850788  0.32309495  1.0
  Ni  Ni317  1  0.28907906  0.91184121  0.32309495  1.0
  Ni  Ni318  1  0.62241240  0.24517455  0.32309495  1.0
  Ni  Ni319  1  0.62241240  0.57850788  0.32309495  1.0
  Ni  Ni320  1  0.62241240  0.91184121  0.32309495  1.0
  Ni  Ni321  1  0.95574573  0.24517455  0.32309495  1.0
  Ni  Ni322  1  0.95574573  0.57850788  0.32309495  1.0
  Ni  Ni323  1  0.95574573  0.91184121  0.32309495  1.0
  Ni  Ni324  1  0.11571736  0.22508944  0.37330773  1.0
  Ni  Ni325  1  0.11571736  0.55842277  0.37330773  1.0
  Ni  Ni326  1  0.11571736  0.89175610  0.37330773  1.0
  Ni  Ni327  1  0.44905069  0.22508944  0.37330773  1.0
  Ni  Ni328  1  0.44905069  0.55842277  0.37330773  1.0
  Ni  Ni329  1  0.44905069  0.89175610  0.37330773  1.0
  Ni  Ni330  1  0.78238402  0.22508944  0.37330773  1.0
  Ni  Ni331  1  0.78238402  0.55842277  0.37330773  1.0
  Ni  Ni332  1  0.78238402  0.89175610  0.37330773  1.0
  Ni  Ni333  1  0.04164328  0.00286721  0.42886329  1.0
  Ni  Ni334  1  0.04164328  0.33620055  0.42886329  1.0
  Ni  Ni335  1  0.04164328  0.66953388  0.42886329  1.0
  Ni  Ni336  1  0.37497662  0.00286721  0.42886329  1.0
  Ni  Ni337  1  0.37497662  0.33620055  0.42886329  1.0
  Ni  Ni338  1  0.37497662  0.66953388  0.42886329  1.0
  Ni  Ni339  1  0.70830995  0.00286721  0.42886329  1.0
  Ni  Ni340  1  0.70830995  0.33620055  0.42886329  1.0
  Ni  Ni341  1  0.70830995  0.66953388  0.42886329  1.0
  Ni  Ni342  1  0.08772525  0.13406344  0.35439756  1.0
  Ni  Ni343  1  0.08772525  0.46739677  0.35439756  1.0
  Ni  Ni344  1  0.08772525  0.80073010  0.35439756  1.0
  Ni  Ni345  1  0.42105858  0.13406344  0.35439756  1.0
  Ni  Ni346  1  0.42105858  0.46739677  0.35439756  1.0
  Ni  Ni347  1  0.42105858  0.80073010  0.35439756  1.0
  Ni  Ni348  1  0.75439191  0.13406344  0.35439756  1.0
  Ni  Ni349  1  0.75439191  0.46739677  0.35439756  1.0
  Ni  Ni350  1  0.75439191  0.80073010  0.35439756  1.0
  Ni  Ni351  1  0.01365117  0.24517455  0.40995312  1.0
  Ni  Ni352  1  0.01365117  0.57850788  0.40995312  1.0
  Ni  Ni353  1  0.01365117  0.91184121  0.40995312  1.0
  Ni  Ni354  1  0.34698451  0.24517455  0.40995312  1.0
  Ni  Ni355  1  0.34698451  0.57850788  0.40995312  1.0
  Ni  Ni356  1  0.34698451  0.91184121  0.40995312  1.0
  Ni  Ni357  1  0.68031784  0.24517455  0.40995312  1.0
  Ni  Ni358  1  0.68031784  0.57850788  0.40995312  1.0
  Ni  Ni359  1  0.68031784  0.91184121  0.40995312  1.0
  Ni  Ni360  1  0.13779773  0.29838021  0.43655595  1.0
  Ni  Ni361  1  0.13779773  0.63171355  0.43655595  1.0
  Ni  Ni362  1  0.13779773  0.96504688  0.43655595  1.0
  Ni  Ni363  1  0.47113106  0.29838021  0.43655595  1.0
  Ni  Ni364  1  0.47113106  0.63171355  0.43655595  1.0
  Ni  Ni365  1  0.47113106  0.96504688  0.43655595  1.0
  Ni  Ni366  1  0.80446440  0.29838021  0.43655595  1.0
  Ni  Ni367  1  0.80446440  0.63171355  0.43655595  1.0
  Ni  Ni368  1  0.80446440  0.96504688  0.43655595  1.0
  Ni  Ni369  1  0.21187180  0.18726910  0.38100040  1.0
  Ni  Ni370  1  0.21187180  0.52060244  0.38100040  1.0
  Ni  Ni371  1  0.21187180  0.85393577  0.38100040  1.0
  Ni  Ni372  1  0.54520514  0.18726910  0.38100040  1.0
  Ni  Ni373  1  0.54520514  0.52060244  0.38100040  1.0
  Ni  Ni374  1  0.54520514  0.85393577  0.38100040  1.0
  Ni  Ni375  1  0.87853847  0.18726910  0.38100040  1.0
  Ni  Ni376  1  0.87853847  0.52060244  0.38100040  1.0
  Ni  Ni377  1  0.87853847  0.85393577  0.38100040  1.0
  Ni  Ni378  1  0.04477647  0.17188377  0.42651340  1.0
  Ni  Ni379  1  0.04477647  0.50521710  0.42651340  1.0
  Ni  Ni380  1  0.04477647  0.83855044  0.42651340  1.0
  Ni  Ni381  1  0.37810980  0.17188377  0.42651340  1.0
  Ni  Ni382  1  0.37810980  0.50521710  0.42651340  1.0
  Ni  Ni383  1  0.37810980  0.83855044  0.42651340  1.0
  Ni  Ni384  1  0.71144314  0.17188377  0.42651340  1.0
  Ni  Ni385  1  0.71144314  0.50521710  0.42651340  1.0
  Ni  Ni386  1  0.71144314  0.83855044  0.42651340  1.0
  Ni  Ni387  1  0.11885054  0.06077266  0.37095784  1.0
  Ni  Ni388  1  0.11885054  0.39410599  0.37095784  1.0
  Ni  Ni389  1  0.11885054  0.72743932  0.37095784  1.0
  Ni  Ni390  1  0.45218388  0.06077266  0.37095784  1.0
  Ni  Ni391  1  0.45218388  0.39410599  0.37095784  1.0
  Ni  Ni392  1  0.45218388  0.72743932  0.37095784  1.0
  Ni  Ni393  1  0.78551721  0.06077266  0.37095784  1.0
  Ni  Ni394  1  0.78551721  0.39410599  0.37095784  1.0
  Ni  Ni395  1  0.78551721  0.72743932  0.37095784  1.0
  Ni  Ni396  1  0.24299710  0.11397832  0.39756068  1.0
  Ni  Ni397  1  0.24299710  0.44731166  0.39756068  1.0
  Ni  Ni398  1  0.24299710  0.78064499  0.39756068  1.0
  Ni  Ni399  1  0.57633043  0.11397832  0.39756068  1.0
  Ni  Ni400  1  0.57633043  0.44731166  0.39756068  1.0
  Ni  Ni401  1  0.57633043  0.78064499  0.39756068  1.0
  Ni  Ni402  1  0.90966377  0.11397832  0.39756068  1.0
  Ni  Ni403  1  0.90966377  0.44731166  0.39756068  1.0
  Ni  Ni404  1  0.90966377  0.78064499  0.39756068  1.0
  Ni  Ni405  1  0.31707117  0.00286721  0.34200512  1.0
  Ni  Ni406  1  0.31707117  0.33620055  0.34200512  1.0
  Ni  Ni407  1  0.31707117  0.66953388  0.34200512  1.0
  Ni  Ni408  1  0.65040451  0.00286721  0.34200512  1.0
  Ni  Ni409  1  0.65040451  0.33620055  0.34200512  1.0
  Ni  Ni410  1  0.65040451  0.66953388  0.34200512  1.0
  Ni  Ni411  1  0.98373784  0.00286721  0.34200512  1.0
  Ni  Ni412  1  0.98373784  0.33620055  0.34200512  1.0
  Ni  Ni413  1  0.98373784  0.66953388  0.34200512  1.0
  Ni  Ni414  1  0.21500499  0.02295232  0.37865051  1.0
  Ni  Ni415  1  0.21500499  0.35628566  0.37865051  1.0
  Ni  Ni416  1  0.21500499  0.68961899  0.37865051  1.0
  Ni  Ni417  1  0.54833832  0.02295232  0.37865051  1.0
  Ni  Ni418  1  0.54833832  0.35628566  0.37865051  1.0
  Ni  Ni419  1  0.54833832  0.68961899  0.37865051  1.0
  Ni  Ni420  1  0.88167165  0.02295232  0.37865051  1.0
  Ni  Ni421  1  0.88167165  0.35628566  0.37865051  1.0
  Ni  Ni422  1  0.88167165  0.68961899  0.37865051  1.0
  Ni  Ni423  1  0.14093091  0.13406344  0.43420606  1.0
  Ni  Ni424  1  0.14093091  0.46739677  0.43420606  1.0
  Ni  Ni425  1  0.14093091  0.80073010  0.43420606  1.0
  Ni  Ni426  1  0.47426425  0.13406344  0.43420606  1.0
  Ni  Ni427  1  0.47426425  0.46739677  0.43420606  1.0
  Ni  Ni428  1  0.47426425  0.80073010  0.43420606  1.0
  Ni  Ni429  1  0.80759758  0.13406344  0.43420606  1.0
  Ni  Ni430  1  0.80759758  0.46739677  0.43420606  1.0
  Ni  Ni431  1  0.80759758  0.80073010  0.43420606  1.0
  Sn  Sn432  1  0.09745994  0.17031718  0.01023838  1.0
  Sn  Sn433  1  0.09745994  0.50365051  0.01023838  1.0
  Sn  Sn434  1  0.09745994  0.83698384  0.01023838  1.0
  Sn  Sn435  1  0.43079327  0.17031718  0.01023838  1.0
  Sn  Sn436  1  0.43079327  0.50365051  0.01023838  1.0
  Sn  Sn437  1  0.43079327  0.83698384  0.01023838  1.0
  Sn  Sn438  1  0.76412660  0.17031718  0.01023838  1.0
  Sn  Sn439  1  0.76412660  0.50365051  0.01023838  1.0
  Sn  Sn440  1  0.76412660  0.83698384  0.01023838  1.0
  Sn  Sn441  1  0.02338586  0.28142829  0.06579394  1.0
  Sn  Sn442  1  0.02338586  0.61476162  0.06579394  1.0
  Sn  Sn443  1  0.02338586  0.94809495  0.06579394  1.0
  Sn  Sn444  1  0.35671920  0.28142829  0.06579394  1.0
  Sn  Sn445  1  0.35671920  0.61476162  0.06579394  1.0
  Sn  Sn446  1  0.35671920  0.94809495  0.06579394  1.0
  Sn  Sn447  1  0.69005253  0.28142829  0.06579394  1.0
  Sn  Sn448  1  0.69005253  0.61476162  0.06579394  1.0
  Sn  Sn449  1  0.69005253  0.94809495  0.06579394  1.0
  Sn  Sn450  1  0.12215130  0.07772458  0.07505319  1.0
  Sn  Sn451  1  0.12215130  0.41105792  0.07505319  1.0
  Sn  Sn452  1  0.12215130  0.74439125  0.07505319  1.0
  Sn  Sn453  1  0.45548463  0.07772458  0.07505319  1.0
  Sn  Sn454  1  0.45548463  0.41105792  0.07505319  1.0
  Sn  Sn455  1  0.45548463  0.74439125  0.07505319  1.0
  Sn  Sn456  1  0.78881796  0.07772458  0.07505319  1.0
  Sn  Sn457  1  0.78881796  0.41105792  0.07505319  1.0
  Sn  Sn458  1  0.78881796  0.74439125  0.07505319  1.0
  Sn  Sn459  1  0.19622537  0.29994681  0.01949764  1.0
  Sn  Sn460  1  0.19622537  0.63328014  0.01949764  1.0
  Sn  Sn461  1  0.19622537  0.96661347  0.01949764  1.0
  Sn  Sn462  1  0.52955870  0.29994681  0.01949764  1.0
  Sn  Sn463  1  0.52955870  0.63328014  0.01949764  1.0
  Sn  Sn464  1  0.52955870  0.96661347  0.01949764  1.0
  Sn  Sn465  1  0.86289204  0.29994681  0.01949764  1.0
  Sn  Sn466  1  0.86289204  0.63328014  0.01949764  1.0
  Sn  Sn467  1  0.86289204  0.96661347  0.01949764  1.0
  Sn  Sn468  1  0.28264512  0.05920606  0.12134949  1.0
  Sn  Sn469  1  0.28264512  0.39253940  0.12134949  1.0
  Sn  Sn470  1  0.28264512  0.72587273  0.12134949  1.0
  Sn  Sn471  1  0.61597846  0.05920606  0.12134949  1.0
  Sn  Sn472  1  0.61597846  0.39253940  0.12134949  1.0
  Sn  Sn473  1  0.61597846  0.72587273  0.12134949  1.0
  Sn  Sn474  1  0.94931179  0.05920606  0.12134949  1.0
  Sn  Sn475  1  0.94931179  0.39253940  0.12134949  1.0
  Sn  Sn476  1  0.94931179  0.72587273  0.12134949  1.0
  Sn  Sn477  1  0.20857105  0.17031718  0.17690505  1.0
  Sn  Sn478  1  0.20857105  0.50365051  0.17690505  1.0
  Sn  Sn479  1  0.20857105  0.83698384  0.17690505  1.0
  Sn  Sn480  1  0.54190438  0.17031718  0.17690505  1.0
  Sn  Sn481  1  0.54190438  0.50365051  0.17690505  1.0
  Sn  Sn482  1  0.54190438  0.83698384  0.17690505  1.0
  Sn  Sn483  1  0.87523772  0.17031718  0.17690505  1.0
  Sn  Sn484  1  0.87523772  0.50365051  0.17690505  1.0
  Sn  Sn485  1  0.87523772  0.83698384  0.17690505  1.0
  Sn  Sn486  1  0.30733648  0.29994681  0.18616431  1.0
  Sn  Sn487  1  0.30733648  0.63328014  0.18616431  1.0
  Sn  Sn488  1  0.30733648  0.96661347  0.18616431  1.0
  Sn  Sn489  1  0.64066981  0.29994681  0.18616431  1.0
  Sn  Sn490  1  0.64066981  0.63328014  0.18616431  1.0
  Sn  Sn491  1  0.64066981  0.96661347  0.18616431  1.0
  Sn  Sn492  1  0.97400315  0.29994681  0.18616431  1.0
  Sn  Sn493  1  0.97400315  0.63328014  0.18616431  1.0
  Sn  Sn494  1  0.97400315  0.96661347  0.18616431  1.0
  Sn  Sn495  1  0.04807722  0.18883569  0.13060875  1.0
  Sn  Sn496  1  0.04807722  0.52216903  0.13060875  1.0
  Sn  Sn497  1  0.04807722  0.85550236  0.13060875  1.0
  Sn  Sn498  1  0.38141056  0.18883569  0.13060875  1.0
  Sn  Sn499  1  0.38141056  0.52216903  0.13060875  1.0
  Sn  Sn500  1  0.38141056  0.85550236  0.13060875  1.0
  Sn  Sn501  1  0.71474389  0.18883569  0.13060875  1.0
  Sn  Sn502  1  0.71474389  0.52216903  0.13060875  1.0
  Sn  Sn503  1  0.71474389  0.85550236  0.13060875  1.0
  Sn  Sn504  1  0.13449698  0.28142829  0.23246060  1.0
  Sn  Sn505  1  0.13449698  0.61476162  0.23246060  1.0
  Sn  Sn506  1  0.13449698  0.94809495  0.23246060  1.0
  Sn  Sn507  1  0.46783031  0.28142829  0.23246060  1.0
  Sn  Sn508  1  0.46783031  0.61476162  0.23246060  1.0
  Sn  Sn509  1  0.46783031  0.94809495  0.23246060  1.0
  Sn  Sn510  1  0.80116364  0.28142829  0.23246060  1.0
  Sn  Sn511  1  0.80116364  0.61476162  0.23246060  1.0
  Sn  Sn512  1  0.80116364  0.94809495  0.23246060  1.0
  Sn  Sn513  1  0.06042290  0.05920606  0.28801616  1.0
  Sn  Sn514  1  0.06042290  0.39253940  0.28801616  1.0
  Sn  Sn515  1  0.06042290  0.72587273  0.28801616  1.0
  Sn  Sn516  1  0.39375623  0.05920606  0.28801616  1.0
  Sn  Sn517  1  0.39375623  0.39253940  0.28801616  1.0
  Sn  Sn518  1  0.39375623  0.72587273  0.28801616  1.0
  Sn  Sn519  1  0.72708957  0.05920606  0.28801616  1.0
  Sn  Sn520  1  0.72708957  0.39253940  0.28801616  1.0
  Sn  Sn521  1  0.72708957  0.72587273  0.28801616  1.0
  Sn  Sn522  1  0.15918833  0.18883569  0.29727542  1.0
  Sn  Sn523  1  0.15918833  0.52216903  0.29727542  1.0
  Sn  Sn524  1  0.15918833  0.85550236  0.29727542  1.0
  Sn  Sn525  1  0.49252167  0.18883569  0.29727542  1.0
  Sn  Sn526  1  0.49252167  0.52216903  0.29727542  1.0
  Sn  Sn527  1  0.49252167  0.85550236  0.29727542  1.0
  Sn  Sn528  1  0.82585500  0.18883569  0.29727542  1.0
  Sn  Sn529  1  0.82585500  0.52216903  0.29727542  1.0
  Sn  Sn530  1  0.82585500  0.85550236  0.29727542  1.0
  Sn  Sn531  1  0.23326241  0.07772458  0.24171986  1.0
  Sn  Sn532  1  0.23326241  0.41105792  0.24171986  1.0
  Sn  Sn533  1  0.23326241  0.74439125  0.24171986  1.0
  Sn  Sn534  1  0.56659574  0.07772458  0.24171986  1.0
  Sn  Sn535  1  0.56659574  0.41105792  0.24171986  1.0
  Sn  Sn536  1  0.56659574  0.74439125  0.24171986  1.0
  Sn  Sn537  1  0.89992907  0.07772458  0.24171986  1.0
  Sn  Sn538  1  0.89992907  0.41105792  0.24171986  1.0
  Sn  Sn539  1  0.89992907  0.74439125  0.24171986  1.0
  Sn  Sn540  1  0.31968216  0.17031718  0.34357171  1.0
  Sn  Sn541  1  0.31968216  0.50365051  0.34357171  1.0
  Sn  Sn542  1  0.31968216  0.83698384  0.34357171  1.0
  Sn  Sn543  1  0.65301549  0.17031718  0.34357171  1.0
  Sn  Sn544  1  0.65301549  0.50365051  0.34357171  1.0
  Sn  Sn545  1  0.65301549  0.83698384  0.34357171  1.0
  Sn  Sn546  1  0.98634883  0.17031718  0.34357171  1.0
  Sn  Sn547  1  0.98634883  0.50365051  0.34357171  1.0
  Sn  Sn548  1  0.98634883  0.83698384  0.34357171  1.0
  Sn  Sn549  1  0.24560809  0.28142829  0.39912727  1.0
  Sn  Sn550  1  0.24560809  0.61476162  0.39912727  1.0
  Sn  Sn551  1  0.24560809  0.94809495  0.39912727  1.0
  Sn  Sn552  1  0.57894142  0.28142829  0.39912727  1.0
  Sn  Sn553  1  0.57894142  0.61476162  0.39912727  1.0
  Sn  Sn554  1  0.57894142  0.94809495  0.39912727  1.0
  Sn  Sn555  1  0.91227475  0.28142829  0.39912727  1.0
  Sn  Sn556  1  0.91227475  0.61476162  0.39912727  1.0
  Sn  Sn557  1  0.91227475  0.94809495  0.39912727  1.0
  Sn  Sn558  1  0.01104019  0.07772458  0.40838653  1.0
  Sn  Sn559  1  0.01104019  0.41105792  0.40838653  1.0
  Sn  Sn560  1  0.01104019  0.74439125  0.40838653  1.0
  Sn  Sn561  1  0.34437352  0.07772458  0.40838653  1.0
  Sn  Sn562  1  0.34437352  0.41105792  0.40838653  1.0
  Sn  Sn563  1  0.34437352  0.74439125  0.40838653  1.0
  Sn  Sn564  1  0.67770685  0.07772458  0.40838653  1.0
  Sn  Sn565  1  0.67770685  0.41105792  0.40838653  1.0
  Sn  Sn566  1  0.67770685  0.74439125  0.40838653  1.0
  Sn  Sn567  1  0.08511426  0.29994681  0.35283097  1.0
  Sn  Sn568  1  0.08511426  0.63328014  0.35283097  1.0
  Sn  Sn569  1  0.08511426  0.96661347  0.35283097  1.0
  Sn  Sn570  1  0.41844759  0.29994681  0.35283097  1.0
  Sn  Sn571  1  0.41844759  0.63328014  0.35283097  1.0
  Sn  Sn572  1  0.41844759  0.96661347  0.35283097  1.0
  Sn  Sn573  1  0.75178093  0.29994681  0.35283097  1.0
  Sn  Sn574  1  0.75178093  0.63328014  0.35283097  1.0
  Sn  Sn575  1  0.75178093  0.96661347  0.35283097  1.0
