# generated using pymatgen
data_Ni3Sn
_symmetry_space_group_name_H-M   'P 1'
_cell_length_a   15.91427376
_cell_length_b   34.27797386
_cell_length_c   29.69143100
_cell_angle_alpha   68.20870926
_cell_angle_beta   90.00000000
_cell_angle_gamma   62.33693878
_symmetry_Int_Tables_number   1
_chemical_formula_structural   Ni3Sn
_chemical_formula_sum   'Ni324 Sn108'
_cell_volume   13024.63032858
_cell_formula_units_Z   108
loop_
 _symmetry_equiv_pos_site_id
 _symmetry_equiv_pos_as_xyz
  1  'x, y, z'
loop_
 _atom_site_type_symbol
 _atom_site_label
 _atom_site_symmetry_multiplicity
 _atom_site_fract_x
 _atom_site_fract_y
 _atom_site_fract_z
 _atom_site_occupancy
  Ni  Ni0  1  0.28012767  0.05320567  0.08434043  1.0
  Ni  Ni1  1  0.28012767  0.38653900  0.08434043  1.0
  Ni  Ni2  1  0.28012767  0.71987233  0.08434043  1.0
  Ni  Ni3  1  0.61346100  0.05320567  0.08434043  1.0
  Ni  Ni4  1  0.61346100  0.38653900  0.08434043  1.0
  Ni  Ni5  1  0.61346100  0.71987233  0.08434043  1.0
  Ni  Ni6  1  0.94679433  0.05320567  0.08434043  1.0
  Ni  Ni7  1  0.94679433  0.38653900  0.08434043  1.0
  Ni  Ni8  1  0.94679433  0.71987233  0.08434043  1.0
  Ni  Ni9  1  0.28012767  0.21987233  0.01291186  1.0
  Ni  Ni10  1  0.28012767  0.55320567  0.01291186  1.0
  Ni  Ni11  1  0.28012767  0.88653900  0.01291186  1.0
  Ni  Ni12  1  0.61346100  0.21987233  0.01291186  1.0
  Ni  Ni13  1  0.61346100  0.55320567  0.01291186  1.0
  Ni  Ni14  1  0.61346100  0.88653900  0.01291186  1.0
  Ni  Ni15  1  0.94679433  0.21987233  0.01291186  1.0
  Ni  Ni16  1  0.94679433  0.55320567  0.01291186  1.0
  Ni  Ni17  1  0.94679433  0.88653900  0.01291186  1.0
  Ni  Ni18  1  0.22692200  0.02660283  0.02431307  1.0
  Ni  Ni19  1  0.22692200  0.35993617  0.02431307  1.0
  Ni  Ni20  1  0.22692200  0.69326950  0.02431307  1.0
  Ni  Ni21  1  0.56025533  0.02660283  0.02431307  1.0
  Ni  Ni22  1  0.56025533  0.35993617  0.02431307  1.0
  Ni  Ni23  1  0.56025533  0.69326950  0.02431307  1.0
  Ni  Ni24  1  0.89358867  0.02660283  0.02431307  1.0
  Ni  Ni25  1  0.89358867  0.35993617  0.02431307  1.0
  Ni  Ni26  1  0.89358867  0.69326950  0.02431307  1.0
  Ni  Ni27  1  0.22692200  0.19326950  0.09574164  1.0
  Ni  Ni28  1  0.22692200  0.52660283  0.09574164  1.0
  Ni  Ni29  1  0.22692200  0.85993617  0.09574164  1.0
  Ni  Ni30  1  0.56025533  0.19326950  0.09574164  1.0
  Ni  Ni31  1  0.56025533  0.52660283  0.09574164  1.0
  Ni  Ni32  1  0.56025533  0.85993617  0.09574164  1.0
  Ni  Ni33  1  0.89358867  0.19326950  0.09574164  1.0
  Ni  Ni34  1  0.89358867  0.52660283  0.09574164  1.0
  Ni  Ni35  1  0.89358867  0.85993617  0.09574164  1.0
  Ni  Ni36  1  0.05320567  0.02660283  0.02431307  1.0
  Ni  Ni37  1  0.05320567  0.35993617  0.02431307  1.0
  Ni  Ni38  1  0.05320567  0.69326950  0.02431307  1.0
  Ni  Ni39  1  0.38653900  0.02660283  0.02431307  1.0
  Ni  Ni40  1  0.38653900  0.35993617  0.02431307  1.0
  Ni  Ni41  1  0.38653900  0.69326950  0.02431307  1.0
  Ni  Ni42  1  0.71987233  0.02660283  0.02431307  1.0
  Ni  Ni43  1  0.71987233  0.35993617  0.02431307  1.0
  Ni  Ni44  1  0.71987233  0.69326950  0.02431307  1.0
  Ni  Ni45  1  0.05320567  0.19326950  0.09574164  1.0
  Ni  Ni46  1  0.05320567  0.52660283  0.09574164  1.0
  Ni  Ni47  1  0.05320567  0.85993617  0.09574164  1.0
  Ni  Ni48  1  0.38653900  0.19326950  0.09574164  1.0
  Ni  Ni49  1  0.38653900  0.52660283  0.09574164  1.0
  Ni  Ni50  1  0.38653900  0.85993617  0.09574164  1.0
  Ni  Ni51  1  0.71987233  0.19326950  0.09574164  1.0
  Ni  Ni52  1  0.71987233  0.52660283  0.09574164  1.0
  Ni  Ni53  1  0.71987233  0.85993617  0.09574164  1.0
  Ni  Ni54  1  0.28012767  0.14006383  0.04711550  1.0
  Ni  Ni55  1  0.28012767  0.47339717  0.04711550  1.0
  Ni  Ni56  1  0.28012767  0.80673050  0.04711550  1.0
  Ni  Ni57  1  0.61346100  0.14006383  0.04711550  1.0
  Ni  Ni58  1  0.61346100  0.47339717  0.04711550  1.0
  Ni  Ni59  1  0.61346100  0.80673050  0.04711550  1.0
  Ni  Ni60  1  0.94679433  0.14006383  0.04711550  1.0
  Ni  Ni61  1  0.94679433  0.47339717  0.04711550  1.0
  Ni  Ni62  1  0.94679433  0.80673050  0.04711550  1.0
  Ni  Ni63  1  0.28012767  0.30673050  0.11854407  1.0
  Ni  Ni64  1  0.28012767  0.64006383  0.11854407  1.0
  Ni  Ni65  1  0.28012767  0.97339717  0.11854407  1.0
  Ni  Ni66  1  0.61346100  0.30673050  0.11854407  1.0
  Ni  Ni67  1  0.61346100  0.64006383  0.11854407  1.0
  Ni  Ni68  1  0.61346100  0.97339717  0.11854407  1.0
  Ni  Ni69  1  0.94679433  0.30673050  0.11854407  1.0
  Ni  Ni70  1  0.94679433  0.64006383  0.11854407  1.0
  Ni  Ni71  1  0.94679433  0.97339717  0.11854407  1.0
  Ni  Ni72  1  0.10641133  0.14006383  0.04711550  1.0
  Ni  Ni73  1  0.10641133  0.47339717  0.04711550  1.0
  Ni  Ni74  1  0.10641133  0.80673050  0.04711550  1.0
  Ni  Ni75  1  0.43974467  0.14006383  0.04711550  1.0
  Ni  Ni76  1  0.43974467  0.47339717  0.04711550  1.0
  Ni  Ni77  1  0.43974467  0.80673050  0.04711550  1.0
  Ni  Ni78  1  0.77307800  0.14006383  0.04711550  1.0
  Ni  Ni79  1  0.77307800  0.47339717  0.04711550  1.0
  Ni  Ni80  1  0.77307800  0.80673050  0.04711550  1.0
  Ni  Ni81  1  0.10641133  0.30673050  0.11854407  1.0
  Ni  Ni82  1  0.10641133  0.64006383  0.11854407  1.0
  Ni  Ni83  1  0.10641133  0.97339717  0.11854407  1.0
  Ni  Ni84  1  0.43974467  0.30673050  0.11854407  1.0
  Ni  Ni85  1  0.43974467  0.64006383  0.11854407  1.0
  Ni  Ni86  1  0.43974467  0.97339717  0.11854407  1.0
  Ni  Ni87  1  0.77307800  0.30673050  0.11854407  1.0
  Ni  Ni88  1  0.77307800  0.64006383  0.11854407  1.0
  Ni  Ni89  1  0.77307800  0.97339717  0.11854407  1.0
  Ni  Ni90  1  0.05320567  0.11346100  0.12994529  1.0
  Ni  Ni91  1  0.05320567  0.44679433  0.12994529  1.0
  Ni  Ni92  1  0.05320567  0.78012767  0.12994529  1.0
  Ni  Ni93  1  0.38653900  0.11346100  0.12994529  1.0
  Ni  Ni94  1  0.38653900  0.44679433  0.12994529  1.0
  Ni  Ni95  1  0.38653900  0.78012767  0.12994529  1.0
  Ni  Ni96  1  0.71987233  0.11346100  0.12994529  1.0
  Ni  Ni97  1  0.71987233  0.44679433  0.12994529  1.0
  Ni  Ni98  1  0.71987233  0.78012767  0.12994529  1.0
  Ni  Ni99  1  0.05320567  0.28012767  0.05851671  1.0
  Ni  Ni100  1  0.05320567  0.61346100  0.05851671  1.0
  Ni  Ni101  1  0.05320567  0.94679433  0.05851671  1.0
  Ni  Ni102  1  0.38653900  0.28012767  0.05851671  1.0
  Ni  Ni103  1  0.38653900  0.61346100  0.05851671  1.0
  Ni  Ni104  1  0.38653900  0.94679433  0.05851671  1.0
  Ni  Ni105  1  0.71987233  0.28012767  0.05851671  1.0
  Ni  Ni106  1  0.71987233  0.61346100  0.05851671  1.0
  Ni  Ni107  1  0.71987233  0.94679433  0.05851671  1.0
  Sn  Sn108  1  0.11111111  0.05555556  0.08333333  1.0
  Sn  Sn109  1  0.11111111  0.38888889  0.08333333  1.0
  Sn  Sn110  1  0.11111111  0.72222222  0.08333333  1.0
  Sn  Sn111  1  0.44444444  0.05555556  0.08333333  1.0
  Sn  Sn112  1  0.44444444  0.38888889  0.08333333  1.0
  Sn  Sn113  1  0.44444444  0.72222222  0.08333333  1.0
  Sn  Sn114  1  0.77777778  0.05555556  0.08333333  1.0
  Sn  Sn115  1  0.77777778  0.38888889  0.08333333  1.0
  Sn  Sn116  1  0.77777778  0.72222222  0.08333333  1.0
  Sn  Sn117  1  0.11111111  0.22222222  0.01190476  1.0
  Sn  Sn118  1  0.11111111  0.55555556  0.01190476  1.0
  Sn  Sn119  1  0.11111111  0.88888889  0.01190476  1.0
  Sn  Sn120  1  0.44444444  0.22222222  0.01190476  1.0
  Sn  Sn121  1  0.44444444  0.55555556  0.01190476  1.0
  Sn  Sn122  1  0.44444444  0.88888889  0.01190476  1.0
  Sn  Sn123  1  0.77777778  0.22222222  0.01190476  1.0
  Sn  Sn124  1  0.77777778  0.55555556  0.01190476  1.0
  Sn  Sn125  1  0.77777778  0.88888889  0.01190476  1.0
  Sn  Sn126  1  0.22222222  0.11111111  0.13095238  1.0
  Sn  Sn127  1  0.22222222  0.44444444  0.13095238  1.0
  Sn  Sn128  1  0.22222222  0.77777778  0.13095238  1.0
  Sn  Sn129  1  0.55555556  0.11111111  0.13095238  1.0
  Sn  Sn130  1  0.55555556  0.44444444  0.13095238  1.0
  Sn  Sn131  1  0.55555556  0.77777778  0.13095238  1.0
  Sn  Sn132  1  0.88888889  0.11111111  0.13095238  1.0
  Sn  Sn133  1  0.88888889  0.44444444  0.13095238  1.0
  Sn  Sn134  1  0.88888889  0.77777778  0.13095238  1.0
  Sn  Sn135  1  0.22222222  0.27777778  0.05952381  1.0
  Sn  Sn136  1  0.22222222  0.61111111  0.05952381  1.0
  Sn  Sn137  1  0.22222222  0.94444444  0.05952381  1.0
  Sn  Sn138  1  0.55555556  0.27777778  0.05952381  1.0
  Sn  Sn139  1  0.55555556  0.61111111  0.05952381  1.0
  Sn  Sn140  1  0.55555556  0.94444444  0.05952381  1.0
  Sn  Sn141  1  0.88888889  0.27777778  0.05952381  1.0
  Sn  Sn142  1  0.88888889  0.61111111  0.05952381  1.0
  Sn  Sn143  1  0.88888889  0.94444444  0.05952381  1.0
  Ni  Ni144  1  0.28012767  0.05320567  0.22719757  1.0
  Ni  Ni145  1  0.28012767  0.38653900  0.22719757  1.0
  Ni  Ni146  1  0.28012767  0.71987233  0.22719757  1.0
  Ni  Ni147  1  0.61346100  0.05320567  0.22719757  1.0
  Ni  Ni148  1  0.61346100  0.38653900  0.22719757  1.0
  Ni  Ni149  1  0.61346100  0.71987233  0.22719757  1.0
  Ni  Ni150  1  0.94679433  0.05320567  0.22719757  1.0
  Ni  Ni151  1  0.94679433  0.38653900  0.22719757  1.0
  Ni  Ni152  1  0.94679433  0.71987233  0.22719757  1.0
  Ni  Ni153  1  0.28012767  0.21987233  0.15576900  1.0
  Ni  Ni154  1  0.28012767  0.55320567  0.15576900  1.0
  Ni  Ni155  1  0.28012767  0.88653900  0.15576900  1.0
  Ni  Ni156  1  0.61346100  0.21987233  0.15576900  1.0
  Ni  Ni157  1  0.61346100  0.55320567  0.15576900  1.0
  Ni  Ni158  1  0.61346100  0.88653900  0.15576900  1.0
  Ni  Ni159  1  0.94679433  0.21987233  0.15576900  1.0
  Ni  Ni160  1  0.94679433  0.55320567  0.15576900  1.0
  Ni  Ni161  1  0.94679433  0.88653900  0.15576900  1.0
  Ni  Ni162  1  0.22692200  0.02660283  0.16717021  1.0
  Ni  Ni163  1  0.22692200  0.35993617  0.16717021  1.0
  Ni  Ni164  1  0.22692200  0.69326950  0.16717021  1.0
  Ni  Ni165  1  0.56025533  0.02660283  0.16717021  1.0
  Ni  Ni166  1  0.56025533  0.35993617  0.16717021  1.0
  Ni  Ni167  1  0.56025533  0.69326950  0.16717021  1.0
  Ni  Ni168  1  0.89358867  0.02660283  0.16717021  1.0
  Ni  Ni169  1  0.89358867  0.35993617  0.16717021  1.0
  Ni  Ni170  1  0.89358867  0.69326950  0.16717021  1.0
  Ni  Ni171  1  0.22692200  0.19326950  0.23859879  1.0
  Ni  Ni172  1  0.22692200  0.52660283  0.23859879  1.0
  Ni  Ni173  1  0.22692200  0.85993617  0.23859879  1.0
  Ni  Ni174  1  0.56025533  0.19326950  0.23859879  1.0
  Ni  Ni175  1  0.56025533  0.52660283  0.23859879  1.0
  Ni  Ni176  1  0.56025533  0.85993617  0.23859879  1.0
  Ni  Ni177  1  0.89358867  0.19326950  0.23859879  1.0
  Ni  Ni178  1  0.89358867  0.52660283  0.23859879  1.0
  Ni  Ni179  1  0.89358867  0.85993617  0.23859879  1.0
  Ni  Ni180  1  0.05320567  0.02660283  0.16717021  1.0
  Ni  Ni181  1  0.05320567  0.35993617  0.16717021  1.0
  Ni  Ni182  1  0.05320567  0.69326950  0.16717021  1.0
  Ni  Ni183  1  0.38653900  0.02660283  0.16717021  1.0
  Ni  Ni184  1  0.38653900  0.35993617  0.16717021  1.0
  Ni  Ni185  1  0.38653900  0.69326950  0.16717021  1.0
  Ni  Ni186  1  0.71987233  0.02660283  0.16717021  1.0
  Ni  Ni187  1  0.71987233  0.35993617  0.16717021  1.0
  Ni  Ni188  1  0.71987233  0.69326950  0.16717021  1.0
  Ni  Ni189  1  0.05320567  0.19326950  0.23859879  1.0
  Ni  Ni190  1  0.05320567  0.52660283  0.23859879  1.0
  Ni  Ni191  1  0.05320567  0.85993617  0.23859879  1.0
  Ni  Ni192  1  0.38653900  0.19326950  0.23859879  1.0
  Ni  Ni193  1  0.38653900  0.52660283  0.23859879  1.0
  Ni  Ni194  1  0.38653900  0.85993617  0.23859879  1.0
  Ni  Ni195  1  0.71987233  0.19326950  0.23859879  1.0
  Ni  Ni196  1  0.71987233  0.52660283  0.23859879  1.0
  Ni  Ni197  1  0.71987233  0.85993617  0.23859879  1.0
  Ni  Ni198  1  0.28012767  0.14006383  0.18997264  1.0
  Ni  Ni199  1  0.28012767  0.47339717  0.18997264  1.0
  Ni  Ni200  1  0.28012767  0.80673050  0.18997264  1.0
  Ni  Ni201  1  0.61346100  0.14006383  0.18997264  1.0
  Ni  Ni202  1  0.61346100  0.47339717  0.18997264  1.0
  Ni  Ni203  1  0.61346100  0.80673050  0.18997264  1.0
  Ni  Ni204  1  0.94679433  0.14006383  0.18997264  1.0
  Ni  Ni205  1  0.94679433  0.47339717  0.18997264  1.0
  Ni  Ni206  1  0.94679433  0.80673050  0.18997264  1.0
  Ni  Ni207  1  0.28012767  0.30673050  0.26140121  1.0
  Ni  Ni208  1  0.28012767  0.64006383  0.26140121  1.0
  Ni  Ni209  1  0.28012767  0.97339717  0.26140121  1.0
  Ni  Ni210  1  0.61346100  0.30673050  0.26140121  1.0
  Ni  Ni211  1  0.61346100  0.64006383  0.26140121  1.0
  Ni  Ni212  1  0.61346100  0.97339717  0.26140121  1.0
  Ni  Ni213  1  0.94679433  0.30673050  0.26140121  1.0
  Ni  Ni214  1  0.94679433  0.64006383  0.26140121  1.0
  Ni  Ni215  1  0.94679433  0.97339717  0.26140121  1.0
  Ni  Ni216  1  0.10641133  0.14006383  0.18997264  1.0
  Ni  Ni217  1  0.10641133  0.47339717  0.18997264  1.0
  Ni  Ni218  1  0.10641133  0.80673050  0.18997264  1.0
  Ni  Ni219  1  0.43974467  0.14006383  0.18997264  1.0
  Ni  Ni220  1  0.43974467  0.47339717  0.18997264  1.0
  Ni  Ni221  1  0.43974467  0.80673050  0.18997264  1.0
  Ni  Ni222  1  0.77307800  0.14006383  0.18997264  1.0
  Ni  Ni223  1  0.77307800  0.47339717  0.18997264  1.0
  Ni  Ni224  1  0.77307800  0.80673050  0.18997264  1.0
  Ni  Ni225  1  0.10641133  0.30673050  0.26140121  1.0
  Ni  Ni226  1  0.10641133  0.64006383  0.26140121  1.0
  Ni  Ni227  1  0.10641133  0.97339717  0.26140121  1.0
  Ni  Ni228  1  0.43974467  0.30673050  0.26140121  1.0
  Ni  Ni229  1  0.43974467  0.64006383  0.26140121  1.0
  Ni  Ni230  1  0.43974467  0.97339717  0.26140121  1.0
  Ni  Ni231  1  0.77307800  0.30673050  0.26140121  1.0
  Ni  Ni232  1  0.77307800  0.64006383  0.26140121  1.0
  Ni  Ni233  1  0.77307800  0.97339717  0.26140121  1.0
  Ni  Ni234  1  0.05320567  0.11346100  0.27280243  1.0
  Ni  Ni235  1  0.05320567  0.44679433  0.27280243  1.0
  Ni  Ni236  1  0.05320567  0.78012767  0.27280243  1.0
  Ni  Ni237  1  0.38653900  0.11346100  0.27280243  1.0
  Ni  Ni238  1  0.38653900  0.44679433  0.27280243  1.0
  Ni  Ni239  1  0.38653900  0.78012767  0.27280243  1.0
  Ni  Ni240  1  0.71987233  0.11346100  0.27280243  1.0
  Ni  Ni241  1  0.71987233  0.44679433  0.27280243  1.0
  Ni  Ni242  1  0.71987233  0.78012767  0.27280243  1.0
  Ni  Ni243  1  0.05320567  0.28012767  0.20137386  1.0
  Ni  Ni244  1  0.05320567  0.61346100  0.20137386  1.0
  Ni  Ni245  1  0.05320567  0.94679433  0.20137386  1.0
  Ni  Ni246  1  0.38653900  0.28012767  0.20137386  1.0
  Ni  Ni247  1  0.38653900  0.61346100  0.20137386  1.0
  Ni  Ni248  1  0.38653900  0.94679433  0.20137386  1.0
  Ni  Ni249  1  0.71987233  0.28012767  0.20137386  1.0
  Ni  Ni250  1  0.71987233  0.61346100  0.20137386  1.0
  Ni  Ni251  1  0.71987233  0.94679433  0.20137386  1.0
  Sn  Sn252  1  0.11111111  0.05555556  0.22619048  1.0
  Sn  Sn253  1  0.11111111  0.38888889  0.22619048  1.0
  Sn  Sn254  1  0.11111111  0.72222222  0.22619048  1.0
  Sn  Sn255  1  0.44444444  0.05555556  0.22619048  1.0
  Sn  Sn256  1  0.44444444  0.38888889  0.22619048  1.0
  Sn  Sn257  1  0.44444444  0.72222222  0.22619048  1.0
  Sn  Sn258  1  0.77777778  0.05555556  0.22619048  1.0
  Sn  Sn259  1  0.77777778  0.38888889  0.22619048  1.0
  Sn  Sn260  1  0.77777778  0.72222222  0.22619048  1.0
  Sn  Sn261  1  0.11111111  0.22222222  0.15476190  1.0
  Sn  Sn262  1  0.11111111  0.55555556  0.15476190  1.0
  Sn  Sn263  1  0.11111111  0.88888889  0.15476190  1.0
  Sn  Sn264  1  0.44444444  0.22222222  0.15476190  1.0
  Sn  Sn265  1  0.44444444  0.55555556  0.15476190  1.0
  Sn  Sn266  1  0.44444444  0.88888889  0.15476190  1.0
  Sn  Sn267  1  0.77777778  0.22222222  0.15476190  1.0
  Sn  Sn268  1  0.77777778  0.55555556  0.15476190  1.0
  Sn  Sn269  1  0.77777778  0.88888889  0.15476190  1.0
  Sn  Sn270  1  0.22222222  0.11111111  0.27380952  1.0
  Sn  Sn271  1  0.22222222  0.44444444  0.27380952  1.0
  Sn  Sn272  1  0.22222222  0.77777778  0.27380952  1.0
  Sn  Sn273  1  0.55555556  0.11111111  0.27380952  1.0
  Sn  Sn274  1  0.55555556  0.44444444  0.27380952  1.0
  Sn  Sn275  1  0.55555556  0.77777778  0.27380952  1.0
  Sn  Sn276  1  0.88888889  0.11111111  0.27380952  1.0
  Sn  Sn277  1  0.88888889  0.44444444  0.27380952  1.0
  Sn  Sn278  1  0.88888889  0.77777778  0.27380952  1.0
  Sn  Sn279  1  0.22222222  0.27777778  0.20238095  1.0
  Sn  Sn280  1  0.22222222  0.61111111  0.20238095  1.0
  Sn  Sn281  1  0.22222222  0.94444444  0.20238095  1.0
  Sn  Sn282  1  0.55555556  0.27777778  0.20238095  1.0
  Sn  Sn283  1  0.55555556  0.61111111  0.20238095  1.0
  Sn  Sn284  1  0.55555556  0.94444444  0.20238095  1.0
  Sn  Sn285  1  0.88888889  0.27777778  0.20238095  1.0
  Sn  Sn286  1  0.88888889  0.61111111  0.20238095  1.0
  Sn  Sn287  1  0.88888889  0.94444444  0.20238095  1.0
  Ni  Ni288  1  0.28012767  0.05320567  0.37005471  1.0
  Ni  Ni289  1  0.28012767  0.38653900  0.37005471  1.0
  Ni  Ni290  1  0.28012767  0.71987233  0.37005471  1.0
  Ni  Ni291  1  0.61346100  0.05320567  0.37005471  1.0
  Ni  Ni292  1  0.61346100  0.38653900  0.37005471  1.0
  Ni  Ni293  1  0.61346100  0.71987233  0.37005471  1.0
  Ni  Ni294  1  0.94679433  0.05320567  0.37005471  1.0
  Ni  Ni295  1  0.94679433  0.38653900  0.37005471  1.0
  Ni  Ni296  1  0.94679433  0.71987233  0.37005471  1.0
  Ni  Ni297  1  0.28012767  0.21987233  0.29862614  1.0
  Ni  Ni298  1  0.28012767  0.55320567  0.29862614  1.0
  Ni  Ni299  1  0.28012767  0.88653900  0.29862614  1.0
  Ni  Ni300  1  0.61346100  0.21987233  0.29862614  1.0
  Ni  Ni301  1  0.61346100  0.55320567  0.29862614  1.0
  Ni  Ni302  1  0.61346100  0.88653900  0.29862614  1.0
  Ni  Ni303  1  0.94679433  0.21987233  0.29862614  1.0
  Ni  Ni304  1  0.94679433  0.55320567  0.29862614  1.0
  Ni  Ni305  1  0.94679433  0.88653900  0.29862614  1.0
  Ni  Ni306  1  0.22692200  0.02660283  0.31002736  1.0
  Ni  Ni307  1  0.22692200  0.35993617  0.31002736  1.0
  Ni  Ni308  1  0.22692200  0.69326950  0.31002736  1.0
  Ni  Ni309  1  0.56025533  0.02660283  0.31002736  1.0
  Ni  Ni310  1  0.56025533  0.35993617  0.31002736  1.0
  Ni  Ni311  1  0.56025533  0.69326950  0.31002736  1.0
  Ni  Ni312  1  0.89358867  0.02660283  0.31002736  1.0
  Ni  Ni313  1  0.89358867  0.35993617  0.31002736  1.0
  Ni  Ni314  1  0.89358867  0.69326950  0.31002736  1.0
  Ni  Ni315  1  0.22692200  0.19326950  0.38145593  1.0
  Ni  Ni316  1  0.22692200  0.52660283  0.38145593  1.0
  Ni  Ni317  1  0.22692200  0.85993617  0.38145593  1.0
  Ni  Ni318  1  0.56025533  0.19326950  0.38145593  1.0
  Ni  Ni319  1  0.56025533  0.52660283  0.38145593  1.0
  Ni  Ni320  1  0.56025533  0.85993617  0.38145593  1.0
  Ni  Ni321  1  0.89358867  0.19326950  0.38145593  1.0
  Ni  Ni322  1  0.89358867  0.52660283  0.38145593  1.0
  Ni  Ni323  1  0.89358867  0.85993617  0.38145593  1.0
  Ni  Ni324  1  0.05320567  0.02660283  0.31002736  1.0
  Ni  Ni325  1  0.05320567  0.35993617  0.31002736  1.0
  Ni  Ni326  1  0.05320567  0.69326950  0.31002736  1.0
  Ni  Ni327  1  0.38653900  0.02660283  0.31002736  1.0
  Ni  Ni328  1  0.38653900  0.35993617  0.31002736  1.0
  Ni  Ni329  1  0.38653900  0.69326950  0.31002736  1.0
  Ni  Ni330  1  0.71987233  0.02660283  0.31002736  1.0
  Ni  Ni331  1  0.71987233  0.35993617  0.31002736  1.0
  Ni  Ni332  1  0.71987233  0.69326950  0.31002736  1.0
  Ni  Ni333  1  0.05320567  0.19326950  0.38145593  1.0
  Ni  Ni334  1  0.05320567  0.52660283  0.38145593  1.0
  Ni  Ni335  1  0.05320567  0.85993617  0.38145593  1.0
  Ni  Ni336  1  0.38653900  0.19326950  0.38145593  1.0
  Ni  Ni337  1  0.38653900  0.52660283  0.38145593  1.0
  Ni  Ni338  1  0.38653900  0.85993617  0.38145593  1.0
  Ni  Ni339  1  0.71987233  0.19326950  0.38145593  1.0
  Ni  Ni340  1  0.71987233  0.52660283  0.38145593  1.0
  Ni  Ni341  1  0.71987233  0.85993617  0.38145593  1.0
  Ni  Ni342  1  0.28012767  0.14006383  0.33282979  1.0
  Ni  Ni343  1  0.28012767  0.47339717  0.33282979  1.0
  Ni  Ni344  1  0.28012767  0.80673050  0.33282979  1.0
  Ni  Ni345  1  0.61346100  0.14006383  0.33282979  1.0
  Ni  Ni346  1  0.61346100  0.47339717  0.33282979  1.0
  Ni  Ni347  1  0.61346100  0.80673050  0.33282979  1.0
  Ni  Ni348  1  0.94679433  0.14006383  0.33282979  1.0
  Ni  Ni349  1  0.94679433  0.47339717  0.33282979  1.0
  Ni  Ni350  1  0.94679433  0.80673050  0.33282979  1.0
  Ni  Ni351  1  0.28012767  0.30673050  0.40425836  1.0
  Ni  Ni352  1  0.28012767  0.64006383  0.40425836  1.0
  Ni  Ni353  1  0.28012767  0.97339717  0.40425836  1.0
  Ni  Ni354  1  0.61346100  0.30673050  0.40425836  1.0
  Ni  Ni355  1  0.61346100  0.64006383  0.40425836  1.0
  Ni  Ni356  1  0.61346100  0.97339717  0.40425836  1.0
  Ni  Ni357  1  0.94679433  0.30673050  0.40425836  1.0
  Ni  Ni358  1  0.94679433  0.64006383  0.40425836  1.0
  Ni  Ni359  1  0.94679433  0.97339717  0.40425836  1.0
  Ni  Ni360  1  0.10641133  0.14006383  0.33282979  1.0
  Ni  Ni361  1  0.10641133  0.47339717  0.33282979  1.0
  Ni  Ni362  1  0.10641133  0.80673050  0.33282979  1.0
  Ni  Ni363  1  0.43974467  0.14006383  0.33282979  1.0
  Ni  Ni364  1  0.43974467  0.47339717  0.33282979  1.0
  Ni  Ni365  1  0.43974467  0.80673050  0.33282979  1.0
  Ni  Ni366  1  0.77307800  0.14006383  0.33282979  1.0
  Ni  Ni367  1  0.77307800  0.47339717  0.33282979  1.0
  Ni  Ni368  1  0.77307800  0.80673050  0.33282979  1.0
  Ni  Ni369  1  0.10641133  0.30673050  0.40425836  1.0
  Ni  Ni370  1  0.10641133  0.64006383  0.40425836  1.0
  Ni  Ni371  1  0.10641133  0.97339717  0.40425836  1.0
  Ni  Ni372  1  0.43974467  0.30673050  0.40425836  1.0
  Ni  Ni373  1  0.43974467  0.64006383  0.40425836  1.0
  Ni  Ni374  1  0.43974467  0.97339717  0.40425836  1.0
  Ni  Ni375  1  0.77307800  0.30673050  0.40425836  1.0
  Ni  Ni376  1  0.77307800  0.64006383  0.40425836  1.0
  Ni  Ni377  1  0.77307800  0.97339717  0.40425836  1.0
  Ni  Ni378  1  0.05320567  0.11346100  0.41565957  1.0
  Ni  Ni379  1  0.05320567  0.44679433  0.41565957  1.0
  Ni  Ni380  1  0.05320567  0.78012767  0.41565957  1.0
  Ni  Ni381  1  0.38653900  0.11346100  0.41565957  1.0
  Ni  Ni382  1  0.38653900  0.44679433  0.41565957  1.0
  Ni  Ni383  1  0.38653900  0.78012767  0.41565957  1.0
  Ni  Ni384  1  0.71987233  0.11346100  0.41565957  1.0
  Ni  Ni385  1  0.71987233  0.44679433  0.41565957  1.0
  Ni  Ni386  1  0.71987233  0.78012767  0.41565957  1.0
  Ni  Ni387  1  0.05320567  0.28012767  0.34423100  1.0
  Ni  Ni388  1  0.05320567  0.61346100  0.34423100  1.0
  Ni  Ni389  1  0.05320567  0.94679433  0.34423100  1.0
  Ni  Ni390  1  0.38653900  0.28012767  0.34423100  1.0
  Ni  Ni391  1  0.38653900  0.61346100  0.34423100  1.0
  Ni  Ni392  1  0.38653900  0.94679433  0.34423100  1.0
  Ni  Ni393  1  0.71987233  0.28012767  0.34423100  1.0
  Ni  Ni394  1  0.71987233  0.61346100  0.34423100  1.0
  Ni  Ni395  1  0.71987233  0.94679433  0.34423100  1.0
  Sn  Sn396  1  0.11111111  0.05555556  0.36904762  1.0
  Sn  Sn397  1  0.11111111  0.38888889  0.36904762  1.0
  Sn  Sn398  1  0.11111111  0.72222222  0.36904762  1.0
  Sn  Sn399  1  0.44444444  0.05555556  0.36904762  1.0
  Sn  Sn400  1  0.44444444  0.38888889  0.36904762  1.0
  Sn  Sn401  1  0.44444444  0.72222222  0.36904762  1.0
  Sn  Sn402  1  0.77777778  0.05555556  0.36904762  1.0
  Sn  Sn403  1  0.77777778  0.38888889  0.36904762  1.0
  Sn  Sn404  1  0.77777778  0.72222222  0.36904762  1.0
  Sn  Sn405  1  0.11111111  0.22222222  0.29761905  1.0
  Sn  Sn406  1  0.11111111  0.55555556  0.29761905  1.0
  Sn  Sn407  1  0.11111111  0.88888889  0.29761905  1.0
  Sn  Sn408  1  0.44444444  0.22222222  0.29761905  1.0
  Sn  Sn409  1  0.44444444  0.55555556  0.29761905  1.0
  Sn  Sn410  1  0.44444444  0.88888889  0.29761905  1.0
  Sn  Sn411  1  0.77777778  0.22222222  0.29761905  1.0
  Sn  Sn412  1  0.77777778  0.55555556  0.29761905  1.0
  Sn  Sn413  1  0.77777778  0.88888889  0.29761905  1.0
  Sn  Sn414  1  0.22222222  0.11111111  0.41666667  1.0
  Sn  Sn415  1  0.22222222  0.44444444  0.41666667  1.0
  Sn  Sn416  1  0.22222222  0.77777778  0.41666667  1.0
  Sn  Sn417  1  0.55555556  0.11111111  0.41666667  1.0
  Sn  Sn418  1  0.55555556  0.44444444  0.41666667  1.0
  Sn  Sn419  1  0.55555556  0.77777778  0.41666667  1.0
  Sn  Sn420  1  0.88888889  0.11111111  0.41666667  1.0
  Sn  Sn421  1  0.88888889  0.44444444  0.41666667  1.0
  Sn  Sn422  1  0.88888889  0.77777778  0.41666667  1.0
  Sn  Sn423  1  0.22222222  0.27777778  0.34523810  1.0
  Sn  Sn424  1  0.22222222  0.61111111  0.34523810  1.0
  Sn  Sn425  1  0.22222222  0.94444444  0.34523810  1.0
  Sn  Sn426  1  0.55555556  0.27777778  0.34523810  1.0
  Sn  Sn427  1  0.55555556  0.61111111  0.34523810  1.0
  Sn  Sn428  1  0.55555556  0.94444444  0.34523810  1.0
  Sn  Sn429  1  0.88888889  0.27777778  0.34523810  1.0
  Sn  Sn430  1  0.88888889  0.61111111  0.34523810  1.0
  Sn  Sn431  1  0.88888889  0.94444444  0.34523810  1.0
