# generated using pymatgen
data_Ni4Ge
_symmetry_space_group_name_H-M   'P 1'
_cell_length_a   7.91059816
_cell_length_b   7.91059816
_cell_length_c   39.23942556
_cell_angle_alpha   97.72385744
_cell_angle_beta   97.72385744
_cell_angle_gamma   60.00000000
_symmetry_Int_Tables_number   1
_chemical_formula_structural   Ni4Ge
_chemical_formula_sum   'Ni72 Ge18'
_cell_volume   2100.76816587
_cell_formula_units_Z   18
loop_
 _symmetry_equiv_pos_site_id
 _symmetry_equiv_pos_as_xyz
  1  'x, y, z'
loop_
 _atom_site_type_symbol
 _atom_site_label
 _atom_site_symmetry_multiplicity
 _atom_site_fract_x
 _atom_site_fract_y
 _atom_site_fract_z
 _atom_site_occupancy
  Ni  Ni0  1  0.13318733  0.13318733  0.02483575  1.0
  Ni  Ni1  1  0.13318733  0.46652067  0.02483575  1.0
  Ni  Ni2  1  0.13318733  0.79985400  0.02483575  1.0
  Ni  Ni3  1  0.46652067  0.13318733  0.02483575  1.0
  Ni  Ni4  1  0.46652067  0.46652067  0.02483575  1.0
  Ni  Ni5  1  0.46652067  0.79985400  0.02483575  1.0
  Ni  Ni6  1  0.79985400  0.13318733  0.02483575  1.0
  Ni  Ni7  1  0.79985400  0.46652067  0.02483575  1.0
  Ni  Ni8  1  0.79985400  0.79985400  0.02483575  1.0
  Ni  Ni9  1  0.26679100  0.26679100  0.07544400  1.0
  Ni  Ni10  1  0.26679100  0.60012433  0.07544400  1.0
  Ni  Ni11  1  0.26679100  0.93345767  0.07544400  1.0
  Ni  Ni12  1  0.60012433  0.26679100  0.07544400  1.0
  Ni  Ni13  1  0.60012433  0.60012433  0.07544400  1.0
  Ni  Ni14  1  0.60012433  0.93345767  0.07544400  1.0
  Ni  Ni15  1  0.93345767  0.26679100  0.07544400  1.0
  Ni  Ni16  1  0.93345767  0.60012433  0.07544400  1.0
  Ni  Ni17  1  0.93345767  0.93345767  0.07544400  1.0
  Ni  Ni18  1  0.06654233  0.06654233  0.12488450  1.0
  Ni  Ni19  1  0.06654233  0.39987567  0.12488450  1.0
  Ni  Ni20  1  0.06654233  0.73320900  0.12488450  1.0
  Ni  Ni21  1  0.39987567  0.06654233  0.12488450  1.0
  Ni  Ni22  1  0.39987567  0.39987567  0.12488450  1.0
  Ni  Ni23  1  0.39987567  0.73320900  0.12488450  1.0
  Ni  Ni24  1  0.73320900  0.06654233  0.12488450  1.0
  Ni  Ni25  1  0.73320900  0.39987567  0.12488450  1.0
  Ni  Ni26  1  0.73320900  0.73320900  0.12488450  1.0
  Ni  Ni27  1  0.20014600  0.20014600  0.17549275  1.0
  Ni  Ni28  1  0.20014600  0.53347933  0.17549275  1.0
  Ni  Ni29  1  0.20014600  0.86681267  0.17549275  1.0
  Ni  Ni30  1  0.53347933  0.20014600  0.17549275  1.0
  Ni  Ni31  1  0.53347933  0.53347933  0.17549275  1.0
  Ni  Ni32  1  0.53347933  0.86681267  0.17549275  1.0
  Ni  Ni33  1  0.86681267  0.20014600  0.17549275  1.0
  Ni  Ni34  1  0.86681267  0.53347933  0.17549275  1.0
  Ni  Ni35  1  0.86681267  0.86681267  0.17549275  1.0
  Ge  Ge36  1  0.00000000  0.00000000  0.22516425  1.0
  Ge  Ge37  1  0.00000000  0.33333333  0.22516425  1.0
  Ge  Ge38  1  0.00000000  0.66666667  0.22516425  1.0
  Ge  Ge39  1  0.33333333  0.00000000  0.22516425  1.0
  Ge  Ge40  1  0.33333333  0.33333333  0.22516425  1.0
  Ge  Ge41  1  0.33333333  0.66666667  0.22516425  1.0
  Ge  Ge42  1  0.66666667  0.00000000  0.22516425  1.0
  Ge  Ge43  1  0.66666667  0.33333333  0.22516425  1.0
  Ge  Ge44  1  0.66666667  0.66666667  0.22516425  1.0
  Ni  Ni45  1  0.13318733  0.13318733  0.27483575  1.0
  Ni  Ni46  1  0.13318733  0.46652067  0.27483575  1.0
  Ni  Ni47  1  0.13318733  0.79985400  0.27483575  1.0
  Ni  Ni48  1  0.46652067  0.13318733  0.27483575  1.0
  Ni  Ni49  1  0.46652067  0.46652067  0.27483575  1.0
  Ni  Ni50  1  0.46652067  0.79985400  0.27483575  1.0
  Ni  Ni51  1  0.79985400  0.13318733  0.27483575  1.0
  Ni  Ni52  1  0.79985400  0.46652067  0.27483575  1.0
  Ni  Ni53  1  0.79985400  0.79985400  0.27483575  1.0
  Ni  Ni54  1  0.26679100  0.26679100  0.32544400  1.0
  Ni  Ni55  1  0.26679100  0.60012433  0.32544400  1.0
  Ni  Ni56  1  0.26679100  0.93345767  0.32544400  1.0
  Ni  Ni57  1  0.60012433  0.26679100  0.32544400  1.0
  Ni  Ni58  1  0.60012433  0.60012433  0.32544400  1.0
  Ni  Ni59  1  0.60012433  0.93345767  0.32544400  1.0
  Ni  Ni60  1  0.93345767  0.26679100  0.32544400  1.0
  Ni  Ni61  1  0.93345767  0.60012433  0.32544400  1.0
  Ni  Ni62  1  0.93345767  0.93345767  0.32544400  1.0
  Ni  Ni63  1  0.06654233  0.06654233  0.37488450  1.0
  Ni  Ni64  1  0.06654233  0.39987567  0.37488450  1.0
  Ni  Ni65  1  0.06654233  0.73320900  0.37488450  1.0
  Ni  Ni66  1  0.39987567  0.06654233  0.37488450  1.0
  Ni  Ni67  1  0.39987567  0.39987567  0.37488450  1.0
  Ni  Ni68  1  0.39987567  0.73320900  0.37488450  1.0
  Ni  Ni69  1  0.73320900  0.06654233  0.37488450  1.0
  Ni  Ni70  1  0.73320900  0.39987567  0.37488450  1.0
  Ni  Ni71  1  0.73320900  0.73320900  0.37488450  1.0
  Ni  Ni72  1  0.20014600  0.20014600  0.42549275  1.0
  Ni  Ni73  1  0.20014600  0.53347933  0.42549275  1.0
  Ni  Ni74  1  0.20014600  0.86681267  0.42549275  1.0
  Ni  Ni75  1  0.53347933  0.20014600  0.42549275  1.0
  Ni  Ni76  1  0.53347933  0.53347933  0.42549275  1.0
  Ni  Ni77  1  0.53347933  0.86681267  0.42549275  1.0
  Ni  Ni78  1  0.86681267  0.20014600  0.42549275  1.0
  Ni  Ni79  1  0.86681267  0.53347933  0.42549275  1.0
  Ni  Ni80  1  0.86681267  0.86681267  0.42549275  1.0
  Ge  Ge81  1  0.00000000  0.00000000  0.47516425  1.0
  Ge  Ge82  1  0.00000000  0.33333333  0.47516425  1.0
  Ge  Ge83  1  0.00000000  0.66666667  0.47516425  1.0
  Ge  Ge84  1  0.33333333  0.00000000  0.47516425  1.0
  Ge  Ge85  1  0.33333333  0.33333333  0.47516425  1.0
  Ge  Ge86  1  0.33333333  0.66666667  0.47516425  1.0
  Ge  Ge87  1  0.66666667  0.00000000  0.47516425  1.0
  Ge  Ge88  1  0.66666667  0.33333333  0.47516425  1.0
  Ge  Ge89  1  0.66666667  0.66666667  0.47516425  1.0
