# generated using pymatgen
data_Ni4Ge
_symmetry_space_group_name_H-M   'P 1'
_cell_length_a   29.42956917
_cell_length_b   7.91059816
_cell_length_c   117.71827668
_cell_angle_alpha   97.72385744
_cell_angle_beta   15.44771488
_cell_angle_gamma   90.00000000
_symmetry_Int_Tables_number   1
_chemical_formula_structural   Ni4Ge
_chemical_formula_sum   'Ni180 Ge45'
_cell_volume   6302.30449762
_cell_formula_units_Z   45
loop_
 _symmetry_equiv_pos_site_id
 _symmetry_equiv_pos_as_xyz
  1  'x, y, z'
loop_
 _atom_site_type_symbol
 _atom_site_label
 _atom_site_symmetry_multiplicity
 _atom_site_fract_x
 _atom_site_fract_y
 _atom_site_fract_z
 _atom_site_occupancy
  Ni  Ni0  1  0.20014600  0.20014600  0.00836983  1.0
  Ni  Ni1  1  0.20014600  0.53347933  0.00836983  1.0
  Ni  Ni2  1  0.20014600  0.86681267  0.00836983  1.0
  Ni  Ni3  1  0.53347933  0.20014600  0.00836983  1.0
  Ni  Ni4  1  0.53347933  0.53347933  0.00836983  1.0
  Ni  Ni5  1  0.53347933  0.86681267  0.00836983  1.0
  Ni  Ni6  1  0.86681267  0.20014600  0.00836983  1.0
  Ni  Ni7  1  0.86681267  0.53347933  0.00836983  1.0
  Ni  Ni8  1  0.86681267  0.86681267  0.00836983  1.0
  Ni  Ni9  1  0.06654233  0.06654233  0.02490133  1.0
  Ni  Ni10  1  0.06654233  0.39987567  0.02490133  1.0
  Ni  Ni11  1  0.06654233  0.73320900  0.02490133  1.0
  Ni  Ni12  1  0.39987567  0.06654233  0.02490133  1.0
  Ni  Ni13  1  0.39987567  0.39987567  0.02490133  1.0
  Ni  Ni14  1  0.39987567  0.73320900  0.02490133  1.0
  Ni  Ni15  1  0.73320900  0.06654233  0.02490133  1.0
  Ni  Ni16  1  0.73320900  0.39987567  0.02490133  1.0
  Ni  Ni17  1  0.73320900  0.73320900  0.02490133  1.0
  Ni  Ni18  1  0.26679100  0.26679100  0.04169233  1.0
  Ni  Ni19  1  0.26679100  0.60012433  0.04169233  1.0
  Ni  Ni20  1  0.26679100  0.93345767  0.04169233  1.0
  Ni  Ni21  1  0.60012433  0.26679100  0.04169233  1.0
  Ni  Ni22  1  0.60012433  0.60012433  0.04169233  1.0
  Ni  Ni23  1  0.60012433  0.93345767  0.04169233  1.0
  Ni  Ni24  1  0.93345767  0.26679100  0.04169233  1.0
  Ni  Ni25  1  0.93345767  0.60012433  0.04169233  1.0
  Ni  Ni26  1  0.93345767  0.93345767  0.04169233  1.0
  Ni  Ni27  1  0.13318733  0.13318733  0.05822383  1.0
  Ni  Ni28  1  0.13318733  0.46652067  0.05822383  1.0
  Ni  Ni29  1  0.13318733  0.79985400  0.05822383  1.0
  Ni  Ni30  1  0.46652067  0.13318733  0.05822383  1.0
  Ni  Ni31  1  0.46652067  0.46652067  0.05822383  1.0
  Ni  Ni32  1  0.46652067  0.79985400  0.05822383  1.0
  Ni  Ni33  1  0.79985400  0.13318733  0.05822383  1.0
  Ni  Ni34  1  0.79985400  0.46652067  0.05822383  1.0
  Ni  Ni35  1  0.79985400  0.79985400  0.05822383  1.0
  Ge  Ge36  1  0.00000000  0.00000000  0.07496350  1.0
  Ge  Ge37  1  0.00000000  0.33333333  0.07496350  1.0
  Ge  Ge38  1  0.00000000  0.66666667  0.07496350  1.0
  Ge  Ge39  1  0.33333333  0.00000000  0.07496350  1.0
  Ge  Ge40  1  0.33333333  0.33333333  0.07496350  1.0
  Ge  Ge41  1  0.33333333  0.66666667  0.07496350  1.0
  Ge  Ge42  1  0.66666667  0.00000000  0.07496350  1.0
  Ge  Ge43  1  0.66666667  0.33333333  0.07496350  1.0
  Ge  Ge44  1  0.66666667  0.66666667  0.07496350  1.0
  Ni  Ni45  1  0.20014600  0.20014600  0.09170317  1.0
  Ni  Ni46  1  0.20014600  0.53347933  0.09170317  1.0
  Ni  Ni47  1  0.20014600  0.86681267  0.09170317  1.0
  Ni  Ni48  1  0.53347933  0.20014600  0.09170317  1.0
  Ni  Ni49  1  0.53347933  0.53347933  0.09170317  1.0
  Ni  Ni50  1  0.53347933  0.86681267  0.09170317  1.0
  Ni  Ni51  1  0.86681267  0.20014600  0.09170317  1.0
  Ni  Ni52  1  0.86681267  0.53347933  0.09170317  1.0
  Ni  Ni53  1  0.86681267  0.86681267  0.09170317  1.0
  Ni  Ni54  1  0.06654233  0.06654233  0.10823467  1.0
  Ni  Ni55  1  0.06654233  0.39987567  0.10823467  1.0
  Ni  Ni56  1  0.06654233  0.73320900  0.10823467  1.0
  Ni  Ni57  1  0.39987567  0.06654233  0.10823467  1.0
  Ni  Ni58  1  0.39987567  0.39987567  0.10823467  1.0
  Ni  Ni59  1  0.39987567  0.73320900  0.10823467  1.0
  Ni  Ni60  1  0.73320900  0.06654233  0.10823467  1.0
  Ni  Ni61  1  0.73320900  0.39987567  0.10823467  1.0
  Ni  Ni62  1  0.73320900  0.73320900  0.10823467  1.0
  Ni  Ni63  1  0.26679100  0.26679100  0.12502567  1.0
  Ni  Ni64  1  0.26679100  0.60012433  0.12502567  1.0
  Ni  Ni65  1  0.26679100  0.93345767  0.12502567  1.0
  Ni  Ni66  1  0.60012433  0.26679100  0.12502567  1.0
  Ni  Ni67  1  0.60012433  0.60012433  0.12502567  1.0
  Ni  Ni68  1  0.60012433  0.93345767  0.12502567  1.0
  Ni  Ni69  1  0.93345767  0.26679100  0.12502567  1.0
  Ni  Ni70  1  0.93345767  0.60012433  0.12502567  1.0
  Ni  Ni71  1  0.93345767  0.93345767  0.12502567  1.0
  Ni  Ni72  1  0.13318733  0.13318733  0.14155717  1.0
  Ni  Ni73  1  0.13318733  0.46652067  0.14155717  1.0
  Ni  Ni74  1  0.13318733  0.79985400  0.14155717  1.0
  Ni  Ni75  1  0.46652067  0.13318733  0.14155717  1.0
  Ni  Ni76  1  0.46652067  0.46652067  0.14155717  1.0
  Ni  Ni77  1  0.46652067  0.79985400  0.14155717  1.0
  Ni  Ni78  1  0.79985400  0.13318733  0.14155717  1.0
  Ni  Ni79  1  0.79985400  0.46652067  0.14155717  1.0
  Ni  Ni80  1  0.79985400  0.79985400  0.14155717  1.0
  Ge  Ge81  1  0.00000000  0.00000000  0.15829683  1.0
  Ge  Ge82  1  0.00000000  0.33333333  0.15829683  1.0
  Ge  Ge83  1  0.00000000  0.66666667  0.15829683  1.0
  Ge  Ge84  1  0.33333333  0.00000000  0.15829683  1.0
  Ge  Ge85  1  0.33333333  0.33333333  0.15829683  1.0
  Ge  Ge86  1  0.33333333  0.66666667  0.15829683  1.0
  Ge  Ge87  1  0.66666667  0.00000000  0.15829683  1.0
  Ge  Ge88  1  0.66666667  0.33333333  0.15829683  1.0
  Ge  Ge89  1  0.66666667  0.66666667  0.15829683  1.0
  Ni  Ni90  1  0.20014600  0.20014600  0.17503650  1.0
  Ni  Ni91  1  0.20014600  0.53347933  0.17503650  1.0
  Ni  Ni92  1  0.20014600  0.86681267  0.17503650  1.0
  Ni  Ni93  1  0.53347933  0.20014600  0.17503650  1.0
  Ni  Ni94  1  0.53347933  0.53347933  0.17503650  1.0
  Ni  Ni95  1  0.53347933  0.86681267  0.17503650  1.0
  Ni  Ni96  1  0.86681267  0.20014600  0.17503650  1.0
  Ni  Ni97  1  0.86681267  0.53347933  0.17503650  1.0
  Ni  Ni98  1  0.86681267  0.86681267  0.17503650  1.0
  Ni  Ni99  1  0.06654233  0.06654233  0.19156800  1.0
  Ni  Ni100  1  0.06654233  0.39987567  0.19156800  1.0
  Ni  Ni101  1  0.06654233  0.73320900  0.19156800  1.0
  Ni  Ni102  1  0.39987567  0.06654233  0.19156800  1.0
  Ni  Ni103  1  0.39987567  0.39987567  0.19156800  1.0
  Ni  Ni104  1  0.39987567  0.73320900  0.19156800  1.0
  Ni  Ni105  1  0.73320900  0.06654233  0.19156800  1.0
  Ni  Ni106  1  0.73320900  0.39987567  0.19156800  1.0
  Ni  Ni107  1  0.73320900  0.73320900  0.19156800  1.0
  Ni  Ni108  1  0.26679100  0.26679100  0.20835900  1.0
  Ni  Ni109  1  0.26679100  0.60012433  0.20835900  1.0
  Ni  Ni110  1  0.26679100  0.93345767  0.20835900  1.0
  Ni  Ni111  1  0.60012433  0.26679100  0.20835900  1.0
  Ni  Ni112  1  0.60012433  0.60012433  0.20835900  1.0
  Ni  Ni113  1  0.60012433  0.93345767  0.20835900  1.0
  Ni  Ni114  1  0.93345767  0.26679100  0.20835900  1.0
  Ni  Ni115  1  0.93345767  0.60012433  0.20835900  1.0
  Ni  Ni116  1  0.93345767  0.93345767  0.20835900  1.0
  Ni  Ni117  1  0.13318733  0.13318733  0.22489050  1.0
  Ni  Ni118  1  0.13318733  0.46652067  0.22489050  1.0
  Ni  Ni119  1  0.13318733  0.79985400  0.22489050  1.0
  Ni  Ni120  1  0.46652067  0.13318733  0.22489050  1.0
  Ni  Ni121  1  0.46652067  0.46652067  0.22489050  1.0
  Ni  Ni122  1  0.46652067  0.79985400  0.22489050  1.0
  Ni  Ni123  1  0.79985400  0.13318733  0.22489050  1.0
  Ni  Ni124  1  0.79985400  0.46652067  0.22489050  1.0
  Ni  Ni125  1  0.79985400  0.79985400  0.22489050  1.0
  Ge  Ge126  1  0.00000000  0.00000000  0.24163017  1.0
  Ge  Ge127  1  0.00000000  0.33333333  0.24163017  1.0
  Ge  Ge128  1  0.00000000  0.66666667  0.24163017  1.0
  Ge  Ge129  1  0.33333333  0.00000000  0.24163017  1.0
  Ge  Ge130  1  0.33333333  0.33333333  0.24163017  1.0
  Ge  Ge131  1  0.33333333  0.66666667  0.24163017  1.0
  Ge  Ge132  1  0.66666667  0.00000000  0.24163017  1.0
  Ge  Ge133  1  0.66666667  0.33333333  0.24163017  1.0
  Ge  Ge134  1  0.66666667  0.66666667  0.24163017  1.0
  Ni  Ni135  1  0.20014600  0.20014600  0.25836983  1.0
  Ni  Ni136  1  0.20014600  0.53347933  0.25836983  1.0
  Ni  Ni137  1  0.20014600  0.86681267  0.25836983  1.0
  Ni  Ni138  1  0.53347933  0.20014600  0.25836983  1.0
  Ni  Ni139  1  0.53347933  0.53347933  0.25836983  1.0
  Ni  Ni140  1  0.53347933  0.86681267  0.25836983  1.0
  Ni  Ni141  1  0.86681267  0.20014600  0.25836983  1.0
  Ni  Ni142  1  0.86681267  0.53347933  0.25836983  1.0
  Ni  Ni143  1  0.86681267  0.86681267  0.25836983  1.0
  Ni  Ni144  1  0.06654233  0.06654233  0.27490133  1.0
  Ni  Ni145  1  0.06654233  0.39987567  0.27490133  1.0
  Ni  Ni146  1  0.06654233  0.73320900  0.27490133  1.0
  Ni  Ni147  1  0.39987567  0.06654233  0.27490133  1.0
  Ni  Ni148  1  0.39987567  0.39987567  0.27490133  1.0
  Ni  Ni149  1  0.39987567  0.73320900  0.27490133  1.0
  Ni  Ni150  1  0.73320900  0.06654233  0.27490133  1.0
  Ni  Ni151  1  0.73320900  0.39987567  0.27490133  1.0
  Ni  Ni152  1  0.73320900  0.73320900  0.27490133  1.0
  Ni  Ni153  1  0.26679100  0.26679100  0.29169233  1.0
  Ni  Ni154  1  0.26679100  0.60012433  0.29169233  1.0
  Ni  Ni155  1  0.26679100  0.93345767  0.29169233  1.0
  Ni  Ni156  1  0.60012433  0.26679100  0.29169233  1.0
  Ni  Ni157  1  0.60012433  0.60012433  0.29169233  1.0
  Ni  Ni158  1  0.60012433  0.93345767  0.29169233  1.0
  Ni  Ni159  1  0.93345767  0.26679100  0.29169233  1.0
  Ni  Ni160  1  0.93345767  0.60012433  0.29169233  1.0
  Ni  Ni161  1  0.93345767  0.93345767  0.29169233  1.0
  Ni  Ni162  1  0.13318733  0.13318733  0.30822383  1.0
  Ni  Ni163  1  0.13318733  0.46652067  0.30822383  1.0
  Ni  Ni164  1  0.13318733  0.79985400  0.30822383  1.0
  Ni  Ni165  1  0.46652067  0.13318733  0.30822383  1.0
  Ni  Ni166  1  0.46652067  0.46652067  0.30822383  1.0
  Ni  Ni167  1  0.46652067  0.79985400  0.30822383  1.0
  Ni  Ni168  1  0.79985400  0.13318733  0.30822383  1.0
  Ni  Ni169  1  0.79985400  0.46652067  0.30822383  1.0
  Ni  Ni170  1  0.79985400  0.79985400  0.30822383  1.0
  Ge  Ge171  1  0.00000000  0.00000000  0.32496350  1.0
  Ge  Ge172  1  0.00000000  0.33333333  0.32496350  1.0
  Ge  Ge173  1  0.00000000  0.66666667  0.32496350  1.0
  Ge  Ge174  1  0.33333333  0.00000000  0.32496350  1.0
  Ge  Ge175  1  0.33333333  0.33333333  0.32496350  1.0
  Ge  Ge176  1  0.33333333  0.66666667  0.32496350  1.0
  Ge  Ge177  1  0.66666667  0.00000000  0.32496350  1.0
  Ge  Ge178  1  0.66666667  0.33333333  0.32496350  1.0
  Ge  Ge179  1  0.66666667  0.66666667  0.32496350  1.0
  Ni  Ni180  1  0.20014600  0.20014600  0.34170317  1.0
  Ni  Ni181  1  0.20014600  0.53347933  0.34170317  1.0
  Ni  Ni182  1  0.20014600  0.86681267  0.34170317  1.0
  Ni  Ni183  1  0.53347933  0.20014600  0.34170317  1.0
  Ni  Ni184  1  0.53347933  0.53347933  0.34170317  1.0
  Ni  Ni185  1  0.53347933  0.86681267  0.34170317  1.0
  Ni  Ni186  1  0.86681267  0.20014600  0.34170317  1.0
  Ni  Ni187  1  0.86681267  0.53347933  0.34170317  1.0
  Ni  Ni188  1  0.86681267  0.86681267  0.34170317  1.0
  Ni  Ni189  1  0.06654233  0.06654233  0.35823467  1.0
  Ni  Ni190  1  0.06654233  0.39987567  0.35823467  1.0
  Ni  Ni191  1  0.06654233  0.73320900  0.35823467  1.0
  Ni  Ni192  1  0.39987567  0.06654233  0.35823467  1.0
  Ni  Ni193  1  0.39987567  0.39987567  0.35823467  1.0
  Ni  Ni194  1  0.39987567  0.73320900  0.35823467  1.0
  Ni  Ni195  1  0.73320900  0.06654233  0.35823467  1.0
  Ni  Ni196  1  0.73320900  0.39987567  0.35823467  1.0
  Ni  Ni197  1  0.73320900  0.73320900  0.35823467  1.0
  Ni  Ni198  1  0.26679100  0.26679100  0.37502567  1.0
  Ni  Ni199  1  0.26679100  0.60012433  0.37502567  1.0
  Ni  Ni200  1  0.26679100  0.93345767  0.37502567  1.0
  Ni  Ni201  1  0.60012433  0.26679100  0.37502567  1.0
  Ni  Ni202  1  0.60012433  0.60012433  0.37502567  1.0
  Ni  Ni203  1  0.60012433  0.93345767  0.37502567  1.0
  Ni  Ni204  1  0.93345767  0.26679100  0.37502567  1.0
  Ni  Ni205  1  0.93345767  0.60012433  0.37502567  1.0
  Ni  Ni206  1  0.93345767  0.93345767  0.37502567  1.0
  Ni  Ni207  1  0.13318733  0.13318733  0.39155717  1.0
  Ni  Ni208  1  0.13318733  0.46652067  0.39155717  1.0
  Ni  Ni209  1  0.13318733  0.79985400  0.39155717  1.0
  Ni  Ni210  1  0.46652067  0.13318733  0.39155717  1.0
  Ni  Ni211  1  0.46652067  0.46652067  0.39155717  1.0
  Ni  Ni212  1  0.46652067  0.79985400  0.39155717  1.0
  Ni  Ni213  1  0.79985400  0.13318733  0.39155717  1.0
  Ni  Ni214  1  0.79985400  0.46652067  0.39155717  1.0
  Ni  Ni215  1  0.79985400  0.79985400  0.39155717  1.0
  Ge  Ge216  1  0.00000000  0.00000000  0.40829683  1.0
  Ge  Ge217  1  0.00000000  0.33333333  0.40829683  1.0
  Ge  Ge218  1  0.00000000  0.66666667  0.40829683  1.0
  Ge  Ge219  1  0.33333333  0.00000000  0.40829683  1.0
  Ge  Ge220  1  0.33333333  0.33333333  0.40829683  1.0
  Ge  Ge221  1  0.33333333  0.66666667  0.40829683  1.0
  Ge  Ge222  1  0.66666667  0.00000000  0.40829683  1.0
  Ge  Ge223  1  0.66666667  0.33333333  0.40829683  1.0
  Ge  Ge224  1  0.66666667  0.66666667  0.40829683  1.0
