# generated using pymatgen
data_Ni4Ge
_symmetry_space_group_name_H-M   'P 1'
_cell_length_a   7.91059816
_cell_length_b   30.47420392
_cell_length_c   30.50575015
_cell_angle_alpha   91.08050376
_cell_angle_beta   90.00000000
_cell_angle_gamma   90.00000000
_symmetry_Int_Tables_number   1
_chemical_formula_structural   Ni4Ge
_chemical_formula_sum   'Ni216 Ge54'
_cell_volume   7352.68858055
_cell_formula_units_Z   54
loop_
 _symmetry_equiv_pos_site_id
 _symmetry_equiv_pos_as_xyz
  1  'x, y, z'
loop_
 _atom_site_type_symbol
 _atom_site_label
 _atom_site_symmetry_multiplicity
 _atom_site_fract_x
 _atom_site_fract_y
 _atom_site_fract_z
 _atom_site_occupancy
  Ge  Ge0  1  0.33333333  0.27132200  0.86433900  1.0
  Ge  Ge1  1  0.33333333  0.60465533  0.86433900  1.0
  Ge  Ge2  1  0.33333333  0.93798867  0.86433900  1.0
  Ge  Ge3  1  0.66666667  0.27132200  0.86433900  1.0
  Ge  Ge4  1  0.66666667  0.60465533  0.86433900  1.0
  Ge  Ge5  1  0.66666667  0.93798867  0.86433900  1.0
  Ge  Ge6  1  1.00000000  0.27132200  0.86433900  1.0
  Ge  Ge7  1  1.00000000  0.60465533  0.86433900  1.0
  Ge  Ge8  1  0.00000000  0.93798867  0.86433900  1.0
  Ge  Ge9  1  0.16666667  0.29513152  0.93576757  1.0
  Ge  Ge10  1  0.16666667  0.62846486  0.93576757  1.0
  Ge  Ge11  1  0.16666667  0.96179819  0.93576757  1.0
  Ge  Ge12  1  0.50000000  0.29513152  0.93576757  1.0
  Ge  Ge13  1  0.50000000  0.62846486  0.93576757  1.0
  Ge  Ge14  1  0.50000000  0.96179819  0.93576757  1.0
  Ge  Ge15  1  0.83333333  0.29513152  0.93576757  1.0
  Ge  Ge16  1  0.83333333  0.62846486  0.93576757  1.0
  Ge  Ge17  1  0.83333333  0.96179819  0.93576757  1.0
  Ge  Ge18  1  0.00000000  0.22370295  0.72148186  1.0
  Ge  Ge19  1  0.00000000  0.55703629  0.72148186  1.0
  Ge  Ge20  1  0.00000000  0.89036962  0.72148186  1.0
  Ge  Ge21  1  0.33333333  0.22370295  0.72148186  1.0
  Ge  Ge22  1  0.33333333  0.55703629  0.72148186  1.0
  Ge  Ge23  1  0.33333333  0.89036962  0.72148186  1.0
  Ge  Ge24  1  0.66666667  0.22370295  0.72148186  1.0
  Ge  Ge25  1  0.66666667  0.55703629  0.72148186  1.0
  Ge  Ge26  1  0.66666667  0.89036962  0.72148186  1.0
  Ge  Ge27  1  0.16666667  0.24751248  0.79291043  1.0
  Ge  Ge28  1  0.16666667  0.58084581  0.79291043  1.0
  Ge  Ge29  1  0.16666667  0.91417914  0.79291043  1.0
  Ge  Ge30  1  0.50000000  0.24751248  0.79291043  1.0
  Ge  Ge31  1  0.50000000  0.58084581  0.79291043  1.0
  Ge  Ge32  1  0.50000000  0.91417914  0.79291043  1.0
  Ge  Ge33  1  0.83333333  0.24751248  0.79291043  1.0
  Ge  Ge34  1  0.83333333  0.58084581  0.79291043  1.0
  Ge  Ge35  1  0.83333333  0.91417914  0.79291043  1.0
  Ge  Ge36  1  0.00000000  0.17608390  0.57862471  1.0
  Ge  Ge37  1  0.00000000  0.50941724  0.57862471  1.0
  Ge  Ge38  1  0.00000000  0.84275057  0.57862471  1.0
  Ge  Ge39  1  0.33333333  0.17608390  0.57862471  1.0
  Ge  Ge40  1  0.33333333  0.50941724  0.57862471  1.0
  Ge  Ge41  1  0.33333333  0.84275057  0.57862471  1.0
  Ge  Ge42  1  0.66666667  0.17608390  0.57862471  1.0
  Ge  Ge43  1  0.66666667  0.50941724  0.57862471  1.0
  Ge  Ge44  1  0.66666667  0.84275057  0.57862471  1.0
  Ge  Ge45  1  0.16666667  0.19989343  0.65005329  1.0
  Ge  Ge46  1  0.16666667  0.53322676  0.65005329  1.0
  Ge  Ge47  1  0.16666667  0.86656010  0.65005329  1.0
  Ge  Ge48  1  0.50000000  0.19989343  0.65005329  1.0
  Ge  Ge49  1  0.50000000  0.53322676  0.65005329  1.0
  Ge  Ge50  1  0.50000000  0.86656010  0.65005329  1.0
  Ge  Ge51  1  0.83333333  0.19989343  0.65005329  1.0
  Ge  Ge52  1  0.83333333  0.53322676  0.65005329  1.0
  Ge  Ge53  1  0.83333333  0.86656010  0.65005329  1.0
  Ni  Ni54  1  0.33333333  0.01378286  0.89303557  1.0
  Ni  Ni55  1  0.33333333  0.34711619  0.89303557  1.0
  Ni  Ni56  1  0.33333333  0.68044952  0.89303557  1.0
  Ni  Ni57  1  0.66666667  0.01378286  0.89303557  1.0
  Ni  Ni58  1  0.66666667  0.34711619  0.89303557  1.0
  Ni  Ni59  1  0.66666667  0.68044952  0.89303557  1.0
  Ni  Ni60  1  1.00000000  0.01378286  0.89303557  1.0
  Ni  Ni61  1  1.00000000  0.34711619  0.89303557  1.0
  Ni  Ni62  1  1.00000000  0.68044952  0.89303557  1.0
  Ni  Ni63  1  0.16666667  0.03759238  0.96446414  1.0
  Ni  Ni64  1  0.16666667  0.37092571  0.96446414  1.0
  Ni  Ni65  1  0.16666667  0.70425905  0.96446414  1.0
  Ni  Ni66  1  0.50000000  0.03759238  0.96446414  1.0
  Ni  Ni67  1  0.50000000  0.37092571  0.96446414  1.0
  Ni  Ni68  1  0.50000000  0.70425905  0.96446414  1.0
  Ni  Ni69  1  0.83333333  0.03759238  0.96446414  1.0
  Ni  Ni70  1  0.83333333  0.37092571  0.96446414  1.0
  Ni  Ni71  1  0.83333333  0.70425905  0.96446414  1.0
  Ni  Ni72  1  0.00000000  0.09070710  0.92137529  1.0
  Ni  Ni73  1  0.00000000  0.42404043  0.92137529  1.0
  Ni  Ni74  1  0.00000000  0.75737376  0.92137529  1.0
  Ni  Ni75  1  0.33333333  0.09070710  0.92137529  1.0
  Ni  Ni76  1  0.33333333  0.42404043  0.92137529  1.0
  Ni  Ni77  1  0.33333333  0.75737376  0.92137529  1.0
  Ni  Ni78  1  0.66666667  0.09070710  0.92137529  1.0
  Ni  Ni79  1  0.66666667  0.42404043  0.92137529  1.0
  Ni  Ni80  1  0.66666667  0.75737376  0.92137529  1.0
  Ni  Ni81  1  0.16666667  0.11451662  0.99280386  1.0
  Ni  Ni82  1  0.16666667  0.44784995  0.99280386  1.0
  Ni  Ni83  1  0.16666667  0.78118329  0.99280386  1.0
  Ni  Ni84  1  0.50000000  0.11451662  0.99280386  1.0
  Ni  Ni85  1  0.50000000  0.44784995  0.99280386  1.0
  Ni  Ni86  1  0.50000000  0.78118329  0.99280386  1.0
  Ni  Ni87  1  0.83333333  0.11451662  0.99280386  1.0
  Ni  Ni88  1  0.83333333  0.44784995  0.99280386  1.0
  Ni  Ni89  1  0.83333333  0.78118329  0.99280386  1.0
  Ni  Ni90  1  0.33333333  0.16622262  0.95015986  1.0
  Ni  Ni91  1  0.33333333  0.49955595  0.95015986  1.0
  Ni  Ni92  1  0.33333333  0.83288929  0.95015986  1.0
  Ni  Ni93  1  0.66666667  0.16622262  0.95015986  1.0
  Ni  Ni94  1  0.66666667  0.49955595  0.95015986  1.0
  Ni  Ni95  1  0.66666667  0.83288929  0.95015986  1.0
  Ni  Ni96  1  1.00000000  0.16622262  0.95015986  1.0
  Ni  Ni97  1  1.00000000  0.49955595  0.95015986  1.0
  Ni  Ni98  1  0.00000000  0.83288929  0.95015986  1.0
  Ni  Ni99  1  0.16666667  0.14241310  0.87873129  1.0
  Ni  Ni100  1  0.16666667  0.47574643  0.87873129  1.0
  Ni  Ni101  1  0.16666667  0.80907976  0.87873129  1.0
  Ni  Ni102  1  0.50000000  0.14241310  0.87873129  1.0
  Ni  Ni103  1  0.50000000  0.47574643  0.87873129  1.0
  Ni  Ni104  1  0.50000000  0.80907976  0.87873129  1.0
  Ni  Ni105  1  0.83333333  0.14241310  0.87873129  1.0
  Ni  Ni106  1  0.83333333  0.47574643  0.87873129  1.0
  Ni  Ni107  1  0.83333333  0.80907976  0.87873129  1.0
  Ni  Ni108  1  0.00000000  0.24314686  0.97849957  1.0
  Ni  Ni109  1  0.00000000  0.57648019  0.97849957  1.0
  Ni  Ni110  1  0.00000000  0.90981352  0.97849957  1.0
  Ni  Ni111  1  0.33333333  0.24314686  0.97849957  1.0
  Ni  Ni112  1  0.33333333  0.57648019  0.97849957  1.0
  Ni  Ni113  1  0.33333333  0.90981352  0.97849957  1.0
  Ni  Ni114  1  0.66666667  0.24314686  0.97849957  1.0
  Ni  Ni115  1  0.66666667  0.57648019  0.97849957  1.0
  Ni  Ni116  1  0.66666667  0.90981352  0.97849957  1.0
  Ni  Ni117  1  0.16666667  0.21933733  0.90707100  1.0
  Ni  Ni118  1  0.16666667  0.55267067  0.90707100  1.0
  Ni  Ni119  1  0.16666667  0.88600400  0.90707100  1.0
  Ni  Ni120  1  0.50000000  0.21933733  0.90707100  1.0
  Ni  Ni121  1  0.50000000  0.55267067  0.90707100  1.0
  Ni  Ni122  1  0.50000000  0.88600400  0.90707100  1.0
  Ni  Ni123  1  0.83333333  0.21933733  0.90707100  1.0
  Ni  Ni124  1  0.83333333  0.55267067  0.90707100  1.0
  Ni  Ni125  1  0.83333333  0.88600400  0.90707100  1.0
  Ni  Ni126  1  0.00000000  0.29949714  0.75017843  1.0
  Ni  Ni127  1  0.00000000  0.63283048  0.75017843  1.0
  Ni  Ni128  1  0.00000000  0.96616381  0.75017843  1.0
  Ni  Ni129  1  0.33333333  0.29949714  0.75017843  1.0
  Ni  Ni130  1  0.33333333  0.63283048  0.75017843  1.0
  Ni  Ni131  1  0.33333333  0.96616381  0.75017843  1.0
  Ni  Ni132  1  0.66666667  0.29949714  0.75017843  1.0
  Ni  Ni133  1  0.66666667  0.63283048  0.75017843  1.0
  Ni  Ni134  1  0.66666667  0.96616381  0.75017843  1.0
  Ni  Ni135  1  0.16666667  0.32330667  0.82160700  1.0
  Ni  Ni136  1  0.16666667  0.65664000  0.82160700  1.0
  Ni  Ni137  1  0.16666667  0.98997333  0.82160700  1.0
  Ni  Ni138  1  0.50000000  0.32330667  0.82160700  1.0
  Ni  Ni139  1  0.50000000  0.65664000  0.82160700  1.0
  Ni  Ni140  1  0.50000000  0.98997333  0.82160700  1.0
  Ni  Ni141  1  0.83333333  0.32330667  0.82160700  1.0
  Ni  Ni142  1  0.83333333  0.65664000  0.82160700  1.0
  Ni  Ni143  1  0.83333333  0.98997333  0.82160700  1.0
  Ni  Ni144  1  0.00000000  0.04308805  0.77851814  1.0
  Ni  Ni145  1  0.00000000  0.37642138  0.77851814  1.0
  Ni  Ni146  1  0.00000000  0.70975471  0.77851814  1.0
  Ni  Ni147  1  0.33333333  0.04308805  0.77851814  1.0
  Ni  Ni148  1  0.33333333  0.37642138  0.77851814  1.0
  Ni  Ni149  1  0.33333333  0.70975471  0.77851814  1.0
  Ni  Ni150  1  0.66666667  0.04308805  0.77851814  1.0
  Ni  Ni151  1  0.66666667  0.37642138  0.77851814  1.0
  Ni  Ni152  1  0.66666667  0.70975471  0.77851814  1.0
  Ni  Ni153  1  0.16666667  0.06689757  0.84994671  1.0
  Ni  Ni154  1  0.16666667  0.40023090  0.84994671  1.0
  Ni  Ni155  1  0.16666667  0.73356424  0.84994671  1.0
  Ni  Ni156  1  0.50000000  0.06689757  0.84994671  1.0
  Ni  Ni157  1  0.50000000  0.40023090  0.84994671  1.0
  Ni  Ni158  1  0.50000000  0.73356424  0.84994671  1.0
  Ni  Ni159  1  0.83333333  0.06689757  0.84994671  1.0
  Ni  Ni160  1  0.83333333  0.40023090  0.84994671  1.0
  Ni  Ni161  1  0.83333333  0.73356424  0.84994671  1.0
  Ni  Ni162  1  0.00000000  0.11860357  0.80730271  1.0
  Ni  Ni163  1  0.00000000  0.45193690  0.80730271  1.0
  Ni  Ni164  1  0.00000000  0.78527024  0.80730271  1.0
  Ni  Ni165  1  0.33333333  0.11860357  0.80730271  1.0
  Ni  Ni166  1  0.33333333  0.45193690  0.80730271  1.0
  Ni  Ni167  1  0.33333333  0.78527024  0.80730271  1.0
  Ni  Ni168  1  0.66666667  0.11860357  0.80730271  1.0
  Ni  Ni169  1  0.66666667  0.45193690  0.80730271  1.0
  Ni  Ni170  1  0.66666667  0.78527024  0.80730271  1.0
  Ni  Ni171  1  0.16666667  0.09479405  0.73587414  1.0
  Ni  Ni172  1  0.16666667  0.42812738  0.73587414  1.0
  Ni  Ni173  1  0.16666667  0.76146071  0.73587414  1.0
  Ni  Ni174  1  0.50000000  0.09479405  0.73587414  1.0
  Ni  Ni175  1  0.50000000  0.42812738  0.73587414  1.0
  Ni  Ni176  1  0.50000000  0.76146071  0.73587414  1.0
  Ni  Ni177  1  0.83333333  0.09479405  0.73587414  1.0
  Ni  Ni178  1  0.83333333  0.42812738  0.73587414  1.0
  Ni  Ni179  1  0.83333333  0.76146071  0.73587414  1.0
  Ni  Ni180  1  0.00000000  0.19552781  0.83564243  1.0
  Ni  Ni181  1  0.00000000  0.52886114  0.83564243  1.0
  Ni  Ni182  1  0.00000000  0.86219448  0.83564243  1.0
  Ni  Ni183  1  0.33333333  0.19552781  0.83564243  1.0
  Ni  Ni184  1  0.33333333  0.52886114  0.83564243  1.0
  Ni  Ni185  1  0.33333333  0.86219448  0.83564243  1.0
  Ni  Ni186  1  0.66666667  0.19552781  0.83564243  1.0
  Ni  Ni187  1  0.66666667  0.52886114  0.83564243  1.0
  Ni  Ni188  1  0.66666667  0.86219448  0.83564243  1.0
  Ni  Ni189  1  0.16666667  0.17171829  0.76421386  1.0
  Ni  Ni190  1  0.16666667  0.50505162  0.76421386  1.0
  Ni  Ni191  1  0.16666667  0.83838495  0.76421386  1.0
  Ni  Ni192  1  0.50000000  0.17171829  0.76421386  1.0
  Ni  Ni193  1  0.50000000  0.50505162  0.76421386  1.0
  Ni  Ni194  1  0.50000000  0.83838495  0.76421386  1.0
  Ni  Ni195  1  0.83333333  0.17171829  0.76421386  1.0
  Ni  Ni196  1  0.83333333  0.50505162  0.76421386  1.0
  Ni  Ni197  1  0.83333333  0.83838495  0.76421386  1.0
  Ni  Ni198  1  0.00000000  0.25187810  0.60732129  1.0
  Ni  Ni199  1  0.00000000  0.58521143  0.60732129  1.0
  Ni  Ni200  1  0.00000000  0.91854476  0.60732129  1.0
  Ni  Ni201  1  0.33333333  0.25187810  0.60732129  1.0
  Ni  Ni202  1  0.33333333  0.58521143  0.60732129  1.0
  Ni  Ni203  1  0.33333333  0.91854476  0.60732129  1.0
  Ni  Ni204  1  0.66666667  0.25187810  0.60732129  1.0
  Ni  Ni205  1  0.66666667  0.58521143  0.60732129  1.0
  Ni  Ni206  1  0.66666667  0.91854476  0.60732129  1.0
  Ni  Ni207  1  0.16666667  0.27568762  0.67874986  1.0
  Ni  Ni208  1  0.16666667  0.60902095  0.67874986  1.0
  Ni  Ni209  1  0.16666667  0.94235429  0.67874986  1.0
  Ni  Ni210  1  0.50000000  0.27568762  0.67874986  1.0
  Ni  Ni211  1  0.50000000  0.60902095  0.67874986  1.0
  Ni  Ni212  1  0.50000000  0.94235429  0.67874986  1.0
  Ni  Ni213  1  0.83333333  0.27568762  0.67874986  1.0
  Ni  Ni214  1  0.83333333  0.60902095  0.67874986  1.0
  Ni  Ni215  1  0.83333333  0.94235429  0.67874986  1.0
  Ni  Ni216  1  0.33333333  0.32880233  0.63566100  1.0
  Ni  Ni217  1  0.33333333  0.66213567  0.63566100  1.0
  Ni  Ni218  1  0.33333333  0.99546900  0.63566100  1.0
  Ni  Ni219  1  0.66666667  0.32880233  0.63566100  1.0
  Ni  Ni220  1  0.66666667  0.66213567  0.63566100  1.0
  Ni  Ni221  1  0.66666667  0.99546900  0.63566100  1.0
  Ni  Ni222  1  1.00000000  0.32880233  0.63566100  1.0
  Ni  Ni223  1  1.00000000  0.66213567  0.63566100  1.0
  Ni  Ni224  1  1.00000000  0.99546900  0.63566100  1.0
  Ni  Ni225  1  0.16666667  0.01927852  0.70708957  1.0
  Ni  Ni226  1  0.16666667  0.35261186  0.70708957  1.0
  Ni  Ni227  1  0.16666667  0.68594519  0.70708957  1.0
  Ni  Ni228  1  0.50000000  0.01927852  0.70708957  1.0
  Ni  Ni229  1  0.50000000  0.35261186  0.70708957  1.0
  Ni  Ni230  1  0.50000000  0.68594519  0.70708957  1.0
  Ni  Ni231  1  0.83333333  0.01927852  0.70708957  1.0
  Ni  Ni232  1  0.83333333  0.35261186  0.70708957  1.0
  Ni  Ni233  1  0.83333333  0.68594519  0.70708957  1.0
  Ni  Ni234  1  0.33333333  0.07098452  0.66444557  1.0
  Ni  Ni235  1  0.33333333  0.40431786  0.66444557  1.0
  Ni  Ni236  1  0.33333333  0.73765119  0.66444557  1.0
  Ni  Ni237  1  0.66666667  0.07098452  0.66444557  1.0
  Ni  Ni238  1  0.66666667  0.40431786  0.66444557  1.0
  Ni  Ni239  1  0.66666667  0.73765119  0.66444557  1.0
  Ni  Ni240  1  1.00000000  0.07098452  0.66444557  1.0
  Ni  Ni241  1  1.00000000  0.40431786  0.66444557  1.0
  Ni  Ni242  1  0.00000000  0.73765119  0.66444557  1.0
  Ni  Ni243  1  0.16666667  0.04717500  0.59301700  1.0
  Ni  Ni244  1  0.16666667  0.38050833  0.59301700  1.0
  Ni  Ni245  1  0.16666667  0.71384167  0.59301700  1.0
  Ni  Ni246  1  0.50000000  0.04717500  0.59301700  1.0
  Ni  Ni247  1  0.50000000  0.38050833  0.59301700  1.0
  Ni  Ni248  1  0.50000000  0.71384167  0.59301700  1.0
  Ni  Ni249  1  0.83333333  0.04717500  0.59301700  1.0
  Ni  Ni250  1  0.83333333  0.38050833  0.59301700  1.0
  Ni  Ni251  1  0.83333333  0.71384167  0.59301700  1.0
  Ni  Ni252  1  0.00000000  0.14790876  0.69278529  1.0
  Ni  Ni253  1  0.00000000  0.48124210  0.69278529  1.0
  Ni  Ni254  1  0.00000000  0.81457543  0.69278529  1.0
  Ni  Ni255  1  0.33333333  0.14790876  0.69278529  1.0
  Ni  Ni256  1  0.33333333  0.48124210  0.69278529  1.0
  Ni  Ni257  1  0.33333333  0.81457543  0.69278529  1.0
  Ni  Ni258  1  0.66666667  0.14790876  0.69278529  1.0
  Ni  Ni259  1  0.66666667  0.48124210  0.69278529  1.0
  Ni  Ni260  1  0.66666667  0.81457543  0.69278529  1.0
  Ni  Ni261  1  0.16666667  0.12409924  0.62135671  1.0
  Ni  Ni262  1  0.16666667  0.45743257  0.62135671  1.0
  Ni  Ni263  1  0.16666667  0.79076590  0.62135671  1.0
  Ni  Ni264  1  0.50000000  0.12409924  0.62135671  1.0
  Ni  Ni265  1  0.50000000  0.45743257  0.62135671  1.0
  Ni  Ni266  1  0.50000000  0.79076590  0.62135671  1.0
  Ni  Ni267  1  0.83333333  0.12409924  0.62135671  1.0
  Ni  Ni268  1  0.83333333  0.45743257  0.62135671  1.0
  Ni  Ni269  1  0.83333333  0.79076590  0.62135671  1.0
