# generated using pymatgen
data_Ni4Ge
_symmetry_space_group_name_H-M   'P 1'
_cell_length_a   29.42956917
_cell_length_b   31.48419712
_cell_length_c   98.09856390
_cell_angle_alpha   29.86467487
_cell_angle_beta   15.44771488
_cell_angle_gamma   25.71381277
_symmetry_Int_Tables_number   1
_chemical_formula_structural   Ni4Ge
_chemical_formula_sum   'Ni288 Ge72'
_cell_volume   10503.84082936
_cell_formula_units_Z   72
loop_
 _symmetry_equiv_pos_site_id
 _symmetry_equiv_pos_as_xyz
  1  'x, y, z'
loop_
 _atom_site_type_symbol
 _atom_site_label
 _atom_site_symmetry_multiplicity
 _atom_site_fract_x
 _atom_site_fract_y
 _atom_site_fract_z
 _atom_site_occupancy
  Ni  Ni0  1  0.13318733  0.06659367  0.05496715  1.0
  Ni  Ni1  1  0.13318733  0.39992700  0.05496715  1.0
  Ni  Ni2  1  0.13318733  0.73326033  0.05496715  1.0
  Ni  Ni3  1  0.46652067  0.06659367  0.05496715  1.0
  Ni  Ni4  1  0.46652067  0.39992700  0.05496715  1.0
  Ni  Ni5  1  0.46652067  0.73326033  0.05496715  1.0
  Ni  Ni6  1  0.79985400  0.06659367  0.05496715  1.0
  Ni  Ni7  1  0.79985400  0.39992700  0.05496715  1.0
  Ni  Ni8  1  0.79985400  0.73326033  0.05496715  1.0
  Ni  Ni9  1  0.13318733  0.23326033  0.00496715  1.0
  Ni  Ni10  1  0.13318733  0.56659367  0.00496715  1.0
  Ni  Ni11  1  0.13318733  0.89992700  0.00496715  1.0
  Ni  Ni12  1  0.46652067  0.23326033  0.00496715  1.0
  Ni  Ni13  1  0.46652067  0.56659367  0.00496715  1.0
  Ni  Ni14  1  0.46652067  0.89992700  0.00496715  1.0
  Ni  Ni15  1  0.79985400  0.23326033  0.00496715  1.0
  Ni  Ni16  1  0.79985400  0.56659367  0.00496715  1.0
  Ni  Ni17  1  0.79985400  0.89992700  0.00496715  1.0
  Ni  Ni18  1  0.26679100  0.13339550  0.01508880  1.0
  Ni  Ni19  1  0.26679100  0.46672883  0.01508880  1.0
  Ni  Ni20  1  0.26679100  0.80006217  0.01508880  1.0
  Ni  Ni21  1  0.60012433  0.13339550  0.01508880  1.0
  Ni  Ni22  1  0.60012433  0.46672883  0.01508880  1.0
  Ni  Ni23  1  0.60012433  0.80006217  0.01508880  1.0
  Ni  Ni24  1  0.93345767  0.13339550  0.01508880  1.0
  Ni  Ni25  1  0.93345767  0.46672883  0.01508880  1.0
  Ni  Ni26  1  0.93345767  0.80006217  0.01508880  1.0
  Ni  Ni27  1  0.26679100  0.30006217  0.06508880  1.0
  Ni  Ni28  1  0.26679100  0.63339550  0.06508880  1.0
  Ni  Ni29  1  0.26679100  0.96672883  0.06508880  1.0
  Ni  Ni30  1  0.60012433  0.30006217  0.06508880  1.0
  Ni  Ni31  1  0.60012433  0.63339550  0.06508880  1.0
  Ni  Ni32  1  0.60012433  0.96672883  0.06508880  1.0
  Ni  Ni33  1  0.93345767  0.30006217  0.06508880  1.0
  Ni  Ni34  1  0.93345767  0.63339550  0.06508880  1.0
  Ni  Ni35  1  0.93345767  0.96672883  0.06508880  1.0
  Ni  Ni36  1  0.06654233  0.03327117  0.02497690  1.0
  Ni  Ni37  1  0.06654233  0.36660450  0.02497690  1.0
  Ni  Ni38  1  0.06654233  0.69993783  0.02497690  1.0
  Ni  Ni39  1  0.39987567  0.03327117  0.02497690  1.0
  Ni  Ni40  1  0.39987567  0.36660450  0.02497690  1.0
  Ni  Ni41  1  0.39987567  0.69993783  0.02497690  1.0
  Ni  Ni42  1  0.73320900  0.03327117  0.02497690  1.0
  Ni  Ni43  1  0.73320900  0.36660450  0.02497690  1.0
  Ni  Ni44  1  0.73320900  0.69993783  0.02497690  1.0
  Ni  Ni45  1  0.06654233  0.19993783  0.07497690  1.0
  Ni  Ni46  1  0.06654233  0.53327117  0.07497690  1.0
  Ni  Ni47  1  0.06654233  0.86660450  0.07497690  1.0
  Ni  Ni48  1  0.39987567  0.19993783  0.07497690  1.0
  Ni  Ni49  1  0.39987567  0.53327117  0.07497690  1.0
  Ni  Ni50  1  0.39987567  0.86660450  0.07497690  1.0
  Ni  Ni51  1  0.73320900  0.19993783  0.07497690  1.0
  Ni  Ni52  1  0.73320900  0.53327117  0.07497690  1.0
  Ni  Ni53  1  0.73320900  0.86660450  0.07497690  1.0
  Ni  Ni54  1  0.20014600  0.10007300  0.08509855  1.0
  Ni  Ni55  1  0.20014600  0.43340633  0.08509855  1.0
  Ni  Ni56  1  0.20014600  0.76673967  0.08509855  1.0
  Ni  Ni57  1  0.53347933  0.10007300  0.08509855  1.0
  Ni  Ni58  1  0.53347933  0.43340633  0.08509855  1.0
  Ni  Ni59  1  0.53347933  0.76673967  0.08509855  1.0
  Ni  Ni60  1  0.86681267  0.10007300  0.08509855  1.0
  Ni  Ni61  1  0.86681267  0.43340633  0.08509855  1.0
  Ni  Ni62  1  0.86681267  0.76673967  0.08509855  1.0
  Ni  Ni63  1  0.20014600  0.26673967  0.03509855  1.0
  Ni  Ni64  1  0.20014600  0.60007300  0.03509855  1.0
  Ni  Ni65  1  0.20014600  0.93340633  0.03509855  1.0
  Ni  Ni66  1  0.53347933  0.26673967  0.03509855  1.0
  Ni  Ni67  1  0.53347933  0.60007300  0.03509855  1.0
  Ni  Ni68  1  0.53347933  0.93340633  0.03509855  1.0
  Ni  Ni69  1  0.86681267  0.26673967  0.03509855  1.0
  Ni  Ni70  1  0.86681267  0.60007300  0.03509855  1.0
  Ni  Ni71  1  0.86681267  0.93340633  0.03509855  1.0
  Ge  Ge72  1  0.00000000  0.00000000  0.09503285  1.0
  Ge  Ge73  1  0.00000000  0.33333333  0.09503285  1.0
  Ge  Ge74  1  0.00000000  0.66666667  0.09503285  1.0
  Ge  Ge75  1  0.33333333  0.00000000  0.09503285  1.0
  Ge  Ge76  1  0.33333333  0.33333333  0.09503285  1.0
  Ge  Ge77  1  0.33333333  0.66666667  0.09503285  1.0
  Ge  Ge78  1  0.66666667  0.00000000  0.09503285  1.0
  Ge  Ge79  1  0.66666667  0.33333333  0.09503285  1.0
  Ge  Ge80  1  0.66666667  0.66666667  0.09503285  1.0
  Ge  Ge81  1  0.00000000  0.16666667  0.04503285  1.0
  Ge  Ge82  1  0.00000000  0.50000000  0.04503285  1.0
  Ge  Ge83  1  1.00000000  0.83333333  0.04503285  1.0
  Ge  Ge84  1  0.33333333  0.16666667  0.04503285  1.0
  Ge  Ge85  1  0.33333333  0.50000000  0.04503285  1.0
  Ge  Ge86  1  0.33333333  0.83333333  0.04503285  1.0
  Ge  Ge87  1  0.66666667  0.16666667  0.04503285  1.0
  Ge  Ge88  1  0.66666667  0.50000000  0.04503285  1.0
  Ge  Ge89  1  0.66666667  0.83333333  0.04503285  1.0
  Ni  Ni90  1  0.13318733  0.06659367  0.15496715  1.0
  Ni  Ni91  1  0.13318733  0.39992700  0.15496715  1.0
  Ni  Ni92  1  0.13318733  0.73326033  0.15496715  1.0
  Ni  Ni93  1  0.46652067  0.06659367  0.15496715  1.0
  Ni  Ni94  1  0.46652067  0.39992700  0.15496715  1.0
  Ni  Ni95  1  0.46652067  0.73326033  0.15496715  1.0
  Ni  Ni96  1  0.79985400  0.06659367  0.15496715  1.0
  Ni  Ni97  1  0.79985400  0.39992700  0.15496715  1.0
  Ni  Ni98  1  0.79985400  0.73326033  0.15496715  1.0
  Ni  Ni99  1  0.13318733  0.23326033  0.10496715  1.0
  Ni  Ni100  1  0.13318733  0.56659367  0.10496715  1.0
  Ni  Ni101  1  0.13318733  0.89992700  0.10496715  1.0
  Ni  Ni102  1  0.46652067  0.23326033  0.10496715  1.0
  Ni  Ni103  1  0.46652067  0.56659367  0.10496715  1.0
  Ni  Ni104  1  0.46652067  0.89992700  0.10496715  1.0
  Ni  Ni105  1  0.79985400  0.23326033  0.10496715  1.0
  Ni  Ni106  1  0.79985400  0.56659367  0.10496715  1.0
  Ni  Ni107  1  0.79985400  0.89992700  0.10496715  1.0
  Ni  Ni108  1  0.26679100  0.13339550  0.11508880  1.0
  Ni  Ni109  1  0.26679100  0.46672883  0.11508880  1.0
  Ni  Ni110  1  0.26679100  0.80006217  0.11508880  1.0
  Ni  Ni111  1  0.60012433  0.13339550  0.11508880  1.0
  Ni  Ni112  1  0.60012433  0.46672883  0.11508880  1.0
  Ni  Ni113  1  0.60012433  0.80006217  0.11508880  1.0
  Ni  Ni114  1  0.93345767  0.13339550  0.11508880  1.0
  Ni  Ni115  1  0.93345767  0.46672883  0.11508880  1.0
  Ni  Ni116  1  0.93345767  0.80006217  0.11508880  1.0
  Ni  Ni117  1  0.26679100  0.30006217  0.16508880  1.0
  Ni  Ni118  1  0.26679100  0.63339550  0.16508880  1.0
  Ni  Ni119  1  0.26679100  0.96672883  0.16508880  1.0
  Ni  Ni120  1  0.60012433  0.30006217  0.16508880  1.0
  Ni  Ni121  1  0.60012433  0.63339550  0.16508880  1.0
  Ni  Ni122  1  0.60012433  0.96672883  0.16508880  1.0
  Ni  Ni123  1  0.93345767  0.30006217  0.16508880  1.0
  Ni  Ni124  1  0.93345767  0.63339550  0.16508880  1.0
  Ni  Ni125  1  0.93345767  0.96672883  0.16508880  1.0
  Ni  Ni126  1  0.06654233  0.03327117  0.12497690  1.0
  Ni  Ni127  1  0.06654233  0.36660450  0.12497690  1.0
  Ni  Ni128  1  0.06654233  0.69993783  0.12497690  1.0
  Ni  Ni129  1  0.39987567  0.03327117  0.12497690  1.0
  Ni  Ni130  1  0.39987567  0.36660450  0.12497690  1.0
  Ni  Ni131  1  0.39987567  0.69993783  0.12497690  1.0
  Ni  Ni132  1  0.73320900  0.03327117  0.12497690  1.0
  Ni  Ni133  1  0.73320900  0.36660450  0.12497690  1.0
  Ni  Ni134  1  0.73320900  0.69993783  0.12497690  1.0
  Ni  Ni135  1  0.06654233  0.19993783  0.17497690  1.0
  Ni  Ni136  1  0.06654233  0.53327117  0.17497690  1.0
  Ni  Ni137  1  0.06654233  0.86660450  0.17497690  1.0
  Ni  Ni138  1  0.39987567  0.19993783  0.17497690  1.0
  Ni  Ni139  1  0.39987567  0.53327117  0.17497690  1.0
  Ni  Ni140  1  0.39987567  0.86660450  0.17497690  1.0
  Ni  Ni141  1  0.73320900  0.19993783  0.17497690  1.0
  Ni  Ni142  1  0.73320900  0.53327117  0.17497690  1.0
  Ni  Ni143  1  0.73320900  0.86660450  0.17497690  1.0
  Ni  Ni144  1  0.20014600  0.10007300  0.18509855  1.0
  Ni  Ni145  1  0.20014600  0.43340633  0.18509855  1.0
  Ni  Ni146  1  0.20014600  0.76673967  0.18509855  1.0
  Ni  Ni147  1  0.53347933  0.10007300  0.18509855  1.0
  Ni  Ni148  1  0.53347933  0.43340633  0.18509855  1.0
  Ni  Ni149  1  0.53347933  0.76673967  0.18509855  1.0
  Ni  Ni150  1  0.86681267  0.10007300  0.18509855  1.0
  Ni  Ni151  1  0.86681267  0.43340633  0.18509855  1.0
  Ni  Ni152  1  0.86681267  0.76673967  0.18509855  1.0
  Ni  Ni153  1  0.20014600  0.26673967  0.13509855  1.0
  Ni  Ni154  1  0.20014600  0.60007300  0.13509855  1.0
  Ni  Ni155  1  0.20014600  0.93340633  0.13509855  1.0
  Ni  Ni156  1  0.53347933  0.26673967  0.13509855  1.0
  Ni  Ni157  1  0.53347933  0.60007300  0.13509855  1.0
  Ni  Ni158  1  0.53347933  0.93340633  0.13509855  1.0
  Ni  Ni159  1  0.86681267  0.26673967  0.13509855  1.0
  Ni  Ni160  1  0.86681267  0.60007300  0.13509855  1.0
  Ni  Ni161  1  0.86681267  0.93340633  0.13509855  1.0
  Ge  Ge162  1  0.00000000  0.00000000  0.19503285  1.0
  Ge  Ge163  1  0.00000000  0.33333333  0.19503285  1.0
  Ge  Ge164  1  0.00000000  0.66666667  0.19503285  1.0
  Ge  Ge165  1  0.33333333  0.00000000  0.19503285  1.0
  Ge  Ge166  1  0.33333333  0.33333333  0.19503285  1.0
  Ge  Ge167  1  0.33333333  0.66666667  0.19503285  1.0
  Ge  Ge168  1  0.66666667  0.00000000  0.19503285  1.0
  Ge  Ge169  1  0.66666667  0.33333333  0.19503285  1.0
  Ge  Ge170  1  0.66666667  0.66666667  0.19503285  1.0
  Ge  Ge171  1  0.00000000  0.16666667  0.14503285  1.0
  Ge  Ge172  1  0.00000000  0.50000000  0.14503285  1.0
  Ge  Ge173  1  1.00000000  0.83333333  0.14503285  1.0
  Ge  Ge174  1  0.33333333  0.16666667  0.14503285  1.0
  Ge  Ge175  1  0.33333333  0.50000000  0.14503285  1.0
  Ge  Ge176  1  0.33333333  0.83333333  0.14503285  1.0
  Ge  Ge177  1  0.66666667  0.16666667  0.14503285  1.0
  Ge  Ge178  1  0.66666667  0.50000000  0.14503285  1.0
  Ge  Ge179  1  0.66666667  0.83333333  0.14503285  1.0
  Ni  Ni180  1  0.13318733  0.06659367  0.25496715  1.0
  Ni  Ni181  1  0.13318733  0.39992700  0.25496715  1.0
  Ni  Ni182  1  0.13318733  0.73326033  0.25496715  1.0
  Ni  Ni183  1  0.46652067  0.06659367  0.25496715  1.0
  Ni  Ni184  1  0.46652067  0.39992700  0.25496715  1.0
  Ni  Ni185  1  0.46652067  0.73326033  0.25496715  1.0
  Ni  Ni186  1  0.79985400  0.06659367  0.25496715  1.0
  Ni  Ni187  1  0.79985400  0.39992700  0.25496715  1.0
  Ni  Ni188  1  0.79985400  0.73326033  0.25496715  1.0
  Ni  Ni189  1  0.13318733  0.23326033  0.20496715  1.0
  Ni  Ni190  1  0.13318733  0.56659367  0.20496715  1.0
  Ni  Ni191  1  0.13318733  0.89992700  0.20496715  1.0
  Ni  Ni192  1  0.46652067  0.23326033  0.20496715  1.0
  Ni  Ni193  1  0.46652067  0.56659367  0.20496715  1.0
  Ni  Ni194  1  0.46652067  0.89992700  0.20496715  1.0
  Ni  Ni195  1  0.79985400  0.23326033  0.20496715  1.0
  Ni  Ni196  1  0.79985400  0.56659367  0.20496715  1.0
  Ni  Ni197  1  0.79985400  0.89992700  0.20496715  1.0
  Ni  Ni198  1  0.26679100  0.13339550  0.21508880  1.0
  Ni  Ni199  1  0.26679100  0.46672883  0.21508880  1.0
  Ni  Ni200  1  0.26679100  0.80006217  0.21508880  1.0
  Ni  Ni201  1  0.60012433  0.13339550  0.21508880  1.0
  Ni  Ni202  1  0.60012433  0.46672883  0.21508880  1.0
  Ni  Ni203  1  0.60012433  0.80006217  0.21508880  1.0
  Ni  Ni204  1  0.93345767  0.13339550  0.21508880  1.0
  Ni  Ni205  1  0.93345767  0.46672883  0.21508880  1.0
  Ni  Ni206  1  0.93345767  0.80006217  0.21508880  1.0
  Ni  Ni207  1  0.26679100  0.30006217  0.26508880  1.0
  Ni  Ni208  1  0.26679100  0.63339550  0.26508880  1.0
  Ni  Ni209  1  0.26679100  0.96672883  0.26508880  1.0
  Ni  Ni210  1  0.60012433  0.30006217  0.26508880  1.0
  Ni  Ni211  1  0.60012433  0.63339550  0.26508880  1.0
  Ni  Ni212  1  0.60012433  0.96672883  0.26508880  1.0
  Ni  Ni213  1  0.93345767  0.30006217  0.26508880  1.0
  Ni  Ni214  1  0.93345767  0.63339550  0.26508880  1.0
  Ni  Ni215  1  0.93345767  0.96672883  0.26508880  1.0
  Ni  Ni216  1  0.06654233  0.03327117  0.22497690  1.0
  Ni  Ni217  1  0.06654233  0.36660450  0.22497690  1.0
  Ni  Ni218  1  0.06654233  0.69993783  0.22497690  1.0
  Ni  Ni219  1  0.39987567  0.03327117  0.22497690  1.0
  Ni  Ni220  1  0.39987567  0.36660450  0.22497690  1.0
  Ni  Ni221  1  0.39987567  0.69993783  0.22497690  1.0
  Ni  Ni222  1  0.73320900  0.03327117  0.22497690  1.0
  Ni  Ni223  1  0.73320900  0.36660450  0.22497690  1.0
  Ni  Ni224  1  0.73320900  0.69993783  0.22497690  1.0
  Ni  Ni225  1  0.06654233  0.19993783  0.27497690  1.0
  Ni  Ni226  1  0.06654233  0.53327117  0.27497690  1.0
  Ni  Ni227  1  0.06654233  0.86660450  0.27497690  1.0
  Ni  Ni228  1  0.39987567  0.19993783  0.27497690  1.0
  Ni  Ni229  1  0.39987567  0.53327117  0.27497690  1.0
  Ni  Ni230  1  0.39987567  0.86660450  0.27497690  1.0
  Ni  Ni231  1  0.73320900  0.19993783  0.27497690  1.0
  Ni  Ni232  1  0.73320900  0.53327117  0.27497690  1.0
  Ni  Ni233  1  0.73320900  0.86660450  0.27497690  1.0
  Ni  Ni234  1  0.20014600  0.10007300  0.28509855  1.0
  Ni  Ni235  1  0.20014600  0.43340633  0.28509855  1.0
  Ni  Ni236  1  0.20014600  0.76673967  0.28509855  1.0
  Ni  Ni237  1  0.53347933  0.10007300  0.28509855  1.0
  Ni  Ni238  1  0.53347933  0.43340633  0.28509855  1.0
  Ni  Ni239  1  0.53347933  0.76673967  0.28509855  1.0
  Ni  Ni240  1  0.86681267  0.10007300  0.28509855  1.0
  Ni  Ni241  1  0.86681267  0.43340633  0.28509855  1.0
  Ni  Ni242  1  0.86681267  0.76673967  0.28509855  1.0
  Ni  Ni243  1  0.20014600  0.26673967  0.23509855  1.0
  Ni  Ni244  1  0.20014600  0.60007300  0.23509855  1.0
  Ni  Ni245  1  0.20014600  0.93340633  0.23509855  1.0
  Ni  Ni246  1  0.53347933  0.26673967  0.23509855  1.0
  Ni  Ni247  1  0.53347933  0.60007300  0.23509855  1.0
  Ni  Ni248  1  0.53347933  0.93340633  0.23509855  1.0
  Ni  Ni249  1  0.86681267  0.26673967  0.23509855  1.0
  Ni  Ni250  1  0.86681267  0.60007300  0.23509855  1.0
  Ni  Ni251  1  0.86681267  0.93340633  0.23509855  1.0
  Ge  Ge252  1  0.00000000  0.00000000  0.29503285  1.0
  Ge  Ge253  1  0.00000000  0.33333333  0.29503285  1.0
  Ge  Ge254  1  0.00000000  0.66666667  0.29503285  1.0
  Ge  Ge255  1  0.33333333  0.00000000  0.29503285  1.0
  Ge  Ge256  1  0.33333333  0.33333333  0.29503285  1.0
  Ge  Ge257  1  0.33333333  0.66666667  0.29503285  1.0
  Ge  Ge258  1  0.66666667  0.00000000  0.29503285  1.0
  Ge  Ge259  1  0.66666667  0.33333333  0.29503285  1.0
  Ge  Ge260  1  0.66666667  0.66666667  0.29503285  1.0
  Ge  Ge261  1  0.00000000  0.16666667  0.24503285  1.0
  Ge  Ge262  1  0.00000000  0.50000000  0.24503285  1.0
  Ge  Ge263  1  1.00000000  0.83333333  0.24503285  1.0
  Ge  Ge264  1  0.33333333  0.16666667  0.24503285  1.0
  Ge  Ge265  1  0.33333333  0.50000000  0.24503285  1.0
  Ge  Ge266  1  0.33333333  0.83333333  0.24503285  1.0
  Ge  Ge267  1  0.66666667  0.16666667  0.24503285  1.0
  Ge  Ge268  1  0.66666667  0.50000000  0.24503285  1.0
  Ge  Ge269  1  0.66666667  0.83333333  0.24503285  1.0
  Ni  Ni270  1  0.13318733  0.06659367  0.35496715  1.0
  Ni  Ni271  1  0.13318733  0.39992700  0.35496715  1.0
  Ni  Ni272  1  0.13318733  0.73326033  0.35496715  1.0
  Ni  Ni273  1  0.46652067  0.06659367  0.35496715  1.0
  Ni  Ni274  1  0.46652067  0.39992700  0.35496715  1.0
  Ni  Ni275  1  0.46652067  0.73326033  0.35496715  1.0
  Ni  Ni276  1  0.79985400  0.06659367  0.35496715  1.0
  Ni  Ni277  1  0.79985400  0.39992700  0.35496715  1.0
  Ni  Ni278  1  0.79985400  0.73326033  0.35496715  1.0
  Ni  Ni279  1  0.13318733  0.23326033  0.30496715  1.0
  Ni  Ni280  1  0.13318733  0.56659367  0.30496715  1.0
  Ni  Ni281  1  0.13318733  0.89992700  0.30496715  1.0
  Ni  Ni282  1  0.46652067  0.23326033  0.30496715  1.0
  Ni  Ni283  1  0.46652067  0.56659367  0.30496715  1.0
  Ni  Ni284  1  0.46652067  0.89992700  0.30496715  1.0
  Ni  Ni285  1  0.79985400  0.23326033  0.30496715  1.0
  Ni  Ni286  1  0.79985400  0.56659367  0.30496715  1.0
  Ni  Ni287  1  0.79985400  0.89992700  0.30496715  1.0
  Ni  Ni288  1  0.26679100  0.13339550  0.31508880  1.0
  Ni  Ni289  1  0.26679100  0.46672883  0.31508880  1.0
  Ni  Ni290  1  0.26679100  0.80006217  0.31508880  1.0
  Ni  Ni291  1  0.60012433  0.13339550  0.31508880  1.0
  Ni  Ni292  1  0.60012433  0.46672883  0.31508880  1.0
  Ni  Ni293  1  0.60012433  0.80006217  0.31508880  1.0
  Ni  Ni294  1  0.93345767  0.13339550  0.31508880  1.0
  Ni  Ni295  1  0.93345767  0.46672883  0.31508880  1.0
  Ni  Ni296  1  0.93345767  0.80006217  0.31508880  1.0
  Ni  Ni297  1  0.26679100  0.30006217  0.36508880  1.0
  Ni  Ni298  1  0.26679100  0.63339550  0.36508880  1.0
  Ni  Ni299  1  0.26679100  0.96672883  0.36508880  1.0
  Ni  Ni300  1  0.60012433  0.30006217  0.36508880  1.0
  Ni  Ni301  1  0.60012433  0.63339550  0.36508880  1.0
  Ni  Ni302  1  0.60012433  0.96672883  0.36508880  1.0
  Ni  Ni303  1  0.93345767  0.30006217  0.36508880  1.0
  Ni  Ni304  1  0.93345767  0.63339550  0.36508880  1.0
  Ni  Ni305  1  0.93345767  0.96672883  0.36508880  1.0
  Ni  Ni306  1  0.06654233  0.03327117  0.32497690  1.0
  Ni  Ni307  1  0.06654233  0.36660450  0.32497690  1.0
  Ni  Ni308  1  0.06654233  0.69993783  0.32497690  1.0
  Ni  Ni309  1  0.39987567  0.03327117  0.32497690  1.0
  Ni  Ni310  1  0.39987567  0.36660450  0.32497690  1.0
  Ni  Ni311  1  0.39987567  0.69993783  0.32497690  1.0
  Ni  Ni312  1  0.73320900  0.03327117  0.32497690  1.0
  Ni  Ni313  1  0.73320900  0.36660450  0.32497690  1.0
  Ni  Ni314  1  0.73320900  0.69993783  0.32497690  1.0
  Ni  Ni315  1  0.06654233  0.19993783  0.37497690  1.0
  Ni  Ni316  1  0.06654233  0.53327117  0.37497690  1.0
  Ni  Ni317  1  0.06654233  0.86660450  0.37497690  1.0
  Ni  Ni318  1  0.39987567  0.19993783  0.37497690  1.0
  Ni  Ni319  1  0.39987567  0.53327117  0.37497690  1.0
  Ni  Ni320  1  0.39987567  0.86660450  0.37497690  1.0
  Ni  Ni321  1  0.73320900  0.19993783  0.37497690  1.0
  Ni  Ni322  1  0.73320900  0.53327117  0.37497690  1.0
  Ni  Ni323  1  0.73320900  0.86660450  0.37497690  1.0
  Ni  Ni324  1  0.20014600  0.10007300  0.38509855  1.0
  Ni  Ni325  1  0.20014600  0.43340633  0.38509855  1.0
  Ni  Ni326  1  0.20014600  0.76673967  0.38509855  1.0
  Ni  Ni327  1  0.53347933  0.10007300  0.38509855  1.0
  Ni  Ni328  1  0.53347933  0.43340633  0.38509855  1.0
  Ni  Ni329  1  0.53347933  0.76673967  0.38509855  1.0
  Ni  Ni330  1  0.86681267  0.10007300  0.38509855  1.0
  Ni  Ni331  1  0.86681267  0.43340633  0.38509855  1.0
  Ni  Ni332  1  0.86681267  0.76673967  0.38509855  1.0
  Ni  Ni333  1  0.20014600  0.26673967  0.33509855  1.0
  Ni  Ni334  1  0.20014600  0.60007300  0.33509855  1.0
  Ni  Ni335  1  0.20014600  0.93340633  0.33509855  1.0
  Ni  Ni336  1  0.53347933  0.26673967  0.33509855  1.0
  Ni  Ni337  1  0.53347933  0.60007300  0.33509855  1.0
  Ni  Ni338  1  0.53347933  0.93340633  0.33509855  1.0
  Ni  Ni339  1  0.86681267  0.26673967  0.33509855  1.0
  Ni  Ni340  1  0.86681267  0.60007300  0.33509855  1.0
  Ni  Ni341  1  0.86681267  0.93340633  0.33509855  1.0
  Ge  Ge342  1  0.00000000  0.00000000  0.39503285  1.0
  Ge  Ge343  1  0.00000000  0.33333333  0.39503285  1.0
  Ge  Ge344  1  0.00000000  0.66666667  0.39503285  1.0
  Ge  Ge345  1  0.33333333  0.00000000  0.39503285  1.0
  Ge  Ge346  1  0.33333333  0.33333333  0.39503285  1.0
  Ge  Ge347  1  0.33333333  0.66666667  0.39503285  1.0
  Ge  Ge348  1  0.66666667  0.00000000  0.39503285  1.0
  Ge  Ge349  1  0.66666667  0.33333333  0.39503285  1.0
  Ge  Ge350  1  0.66666667  0.66666667  0.39503285  1.0
  Ge  Ge351  1  0.00000000  0.16666667  0.34503285  1.0
  Ge  Ge352  1  0.00000000  0.50000000  0.34503285  1.0
  Ge  Ge353  1  1.00000000  0.83333333  0.34503285  1.0
  Ge  Ge354  1  0.33333333  0.16666667  0.34503285  1.0
  Ge  Ge355  1  0.33333333  0.50000000  0.34503285  1.0
  Ge  Ge356  1  0.33333333  0.83333333  0.34503285  1.0
  Ge  Ge357  1  0.66666667  0.16666667  0.34503285  1.0
  Ge  Ge358  1  0.66666667  0.50000000  0.34503285  1.0
  Ge  Ge359  1  0.66666667  0.83333333  0.34503285  1.0
