# generated using pymatgen
data_Ni4Ge
_symmetry_space_group_name_H-M   'P 1'
_cell_length_a   31.48419712
_cell_length_b   7.91059816
_cell_length_c   68.66899473
_cell_angle_alpha   97.72385744
_cell_angle_beta   29.86467487
_cell_angle_gamma   82.78297224
_symmetry_Int_Tables_number   1
_chemical_formula_structural   Ni4Ge
_chemical_formula_sum   'Ni216 Ge54'
_cell_volume   7352.68858055
_cell_formula_units_Z   54
loop_
 _symmetry_equiv_pos_site_id
 _symmetry_equiv_pos_as_xyz
  1  'x, y, z'
loop_
 _atom_site_type_symbol
 _atom_site_label
 _atom_site_symmetry_multiplicity
 _atom_site_fract_x
 _atom_site_fract_y
 _atom_site_fract_z
 _atom_site_occupancy
  Ni  Ni0  1  0.06659367  0.13318733  0.10698643  1.0
  Ni  Ni1  1  0.06659367  0.46652067  0.10698643  1.0
  Ni  Ni2  1  0.06659367  0.79985400  0.10698643  1.0
  Ni  Ni3  1  0.39992700  0.13318733  0.10698643  1.0
  Ni  Ni4  1  0.39992700  0.46652067  0.10698643  1.0
  Ni  Ni5  1  0.39992700  0.79985400  0.10698643  1.0
  Ni  Ni6  1  0.73326033  0.13318733  0.10698643  1.0
  Ni  Ni7  1  0.73326033  0.46652067  0.10698643  1.0
  Ni  Ni8  1  0.73326033  0.79985400  0.10698643  1.0
  Ni  Ni9  1  0.23326033  0.13318733  0.03555786  1.0
  Ni  Ni10  1  0.23326033  0.46652067  0.03555786  1.0
  Ni  Ni11  1  0.23326033  0.79985400  0.03555786  1.0
  Ni  Ni12  1  0.56659367  0.13318733  0.03555786  1.0
  Ni  Ni13  1  0.56659367  0.46652067  0.03555786  1.0
  Ni  Ni14  1  0.56659367  0.79985400  0.03555786  1.0
  Ni  Ni15  1  0.89992700  0.13318733  0.03555786  1.0
  Ni  Ni16  1  0.89992700  0.46652067  0.03555786  1.0
  Ni  Ni17  1  0.89992700  0.79985400  0.03555786  1.0
  Ni  Ni18  1  0.13339550  0.26679100  0.10727607  1.0
  Ni  Ni19  1  0.13339550  0.60012433  0.10727607  1.0
  Ni  Ni20  1  0.13339550  0.93345767  0.10727607  1.0
  Ni  Ni21  1  0.46672883  0.26679100  0.10727607  1.0
  Ni  Ni22  1  0.46672883  0.60012433  0.10727607  1.0
  Ni  Ni23  1  0.46672883  0.93345767  0.10727607  1.0
  Ni  Ni24  1  0.80006217  0.26679100  0.10727607  1.0
  Ni  Ni25  1  0.80006217  0.60012433  0.10727607  1.0
  Ni  Ni26  1  0.80006217  0.93345767  0.10727607  1.0
  Ni  Ni27  1  0.30006217  0.26679100  0.03584750  1.0
  Ni  Ni28  1  0.30006217  0.60012433  0.03584750  1.0
  Ni  Ni29  1  0.30006217  0.93345767  0.03584750  1.0
  Ni  Ni30  1  0.63339550  0.26679100  0.03584750  1.0
  Ni  Ni31  1  0.63339550  0.60012433  0.03584750  1.0
  Ni  Ni32  1  0.63339550  0.93345767  0.03584750  1.0
  Ni  Ni33  1  0.96672883  0.26679100  0.03584750  1.0
  Ni  Ni34  1  0.96672883  0.60012433  0.03584750  1.0
  Ni  Ni35  1  0.96672883  0.93345767  0.03584750  1.0
  Ni  Ni36  1  0.03327117  0.06654233  0.03558107  1.0
  Ni  Ni37  1  0.03327117  0.39987567  0.03558107  1.0
  Ni  Ni38  1  0.03327117  0.73320900  0.03558107  1.0
  Ni  Ni39  1  0.36660450  0.06654233  0.03558107  1.0
  Ni  Ni40  1  0.36660450  0.39987567  0.03558107  1.0
  Ni  Ni41  1  0.36660450  0.73320900  0.03558107  1.0
  Ni  Ni42  1  0.69993783  0.06654233  0.03558107  1.0
  Ni  Ni43  1  0.69993783  0.39987567  0.03558107  1.0
  Ni  Ni44  1  0.69993783  0.73320900  0.03558107  1.0
  Ni  Ni45  1  0.19993783  0.06654233  0.10700964  1.0
  Ni  Ni46  1  0.19993783  0.39987567  0.10700964  1.0
  Ni  Ni47  1  0.19993783  0.73320900  0.10700964  1.0
  Ni  Ni48  1  0.53327117  0.06654233  0.10700964  1.0
  Ni  Ni49  1  0.53327117  0.39987567  0.10700964  1.0
  Ni  Ni50  1  0.53327117  0.73320900  0.10700964  1.0
  Ni  Ni51  1  0.86660450  0.06654233  0.10700964  1.0
  Ni  Ni52  1  0.86660450  0.39987567  0.10700964  1.0
  Ni  Ni53  1  0.86660450  0.73320900  0.10700964  1.0
  Ni  Ni54  1  0.10007300  0.20014600  0.03587071  1.0
  Ni  Ni55  1  0.10007300  0.53347933  0.03587071  1.0
  Ni  Ni56  1  0.10007300  0.86681267  0.03587071  1.0
  Ni  Ni57  1  0.43340633  0.20014600  0.03587071  1.0
  Ni  Ni58  1  0.43340633  0.53347933  0.03587071  1.0
  Ni  Ni59  1  0.43340633  0.86681267  0.03587071  1.0
  Ni  Ni60  1  0.76673967  0.20014600  0.03587071  1.0
  Ni  Ni61  1  0.76673967  0.53347933  0.03587071  1.0
  Ni  Ni62  1  0.76673967  0.86681267  0.03587071  1.0
  Ni  Ni63  1  0.26673967  0.20014600  0.10729929  1.0
  Ni  Ni64  1  0.26673967  0.53347933  0.10729929  1.0
  Ni  Ni65  1  0.26673967  0.86681267  0.10729929  1.0
  Ni  Ni66  1  0.60007300  0.20014600  0.10729929  1.0
  Ni  Ni67  1  0.60007300  0.53347933  0.10729929  1.0
  Ni  Ni68  1  0.60007300  0.86681267  0.10729929  1.0
  Ni  Ni69  1  0.93340633  0.20014600  0.10729929  1.0
  Ni  Ni70  1  0.93340633  0.53347933  0.10729929  1.0
  Ni  Ni71  1  0.93340633  0.86681267  0.10729929  1.0
  Ge  Ge72  1  0.00000000  0.00000000  0.10714286  1.0
  Ge  Ge73  1  0.00000000  0.33333333  0.10714286  1.0
  Ge  Ge74  1  0.00000000  0.66666667  0.10714286  1.0
  Ge  Ge75  1  0.33333333  0.00000000  0.10714286  1.0
  Ge  Ge76  1  0.33333333  0.33333333  0.10714286  1.0
  Ge  Ge77  1  0.33333333  0.66666667  0.10714286  1.0
  Ge  Ge78  1  0.66666667  0.00000000  0.10714286  1.0
  Ge  Ge79  1  0.66666667  0.33333333  0.10714286  1.0
  Ge  Ge80  1  0.66666667  0.66666667  0.10714286  1.0
  Ge  Ge81  1  0.16666667  0.33333333  0.03571429  1.0
  Ge  Ge82  1  0.16666667  0.66666667  0.03571429  1.0
  Ge  Ge83  1  0.16666667  1.00000000  0.03571429  1.0
  Ge  Ge84  1  0.50000000  0.33333333  0.03571429  1.0
  Ge  Ge85  1  0.50000000  0.66666667  0.03571429  1.0
  Ge  Ge86  1  0.50000000  1.00000000  0.03571429  1.0
  Ge  Ge87  1  0.83333333  0.33333333  0.03571429  1.0
  Ge  Ge88  1  0.83333333  0.66666667  0.03571429  1.0
  Ge  Ge89  1  0.83333333  1.00000000  0.03571429  1.0
  Ni  Ni90  1  0.06659367  0.13318733  0.24984357  1.0
  Ni  Ni91  1  0.06659367  0.46652067  0.24984357  1.0
  Ni  Ni92  1  0.06659367  0.79985400  0.24984357  1.0
  Ni  Ni93  1  0.39992700  0.13318733  0.24984357  1.0
  Ni  Ni94  1  0.39992700  0.46652067  0.24984357  1.0
  Ni  Ni95  1  0.39992700  0.79985400  0.24984357  1.0
  Ni  Ni96  1  0.73326033  0.13318733  0.24984357  1.0
  Ni  Ni97  1  0.73326033  0.46652067  0.24984357  1.0
  Ni  Ni98  1  0.73326033  0.79985400  0.24984357  1.0
  Ni  Ni99  1  0.23326033  0.13318733  0.17841500  1.0
  Ni  Ni100  1  0.23326033  0.46652067  0.17841500  1.0
  Ni  Ni101  1  0.23326033  0.79985400  0.17841500  1.0
  Ni  Ni102  1  0.56659367  0.13318733  0.17841500  1.0
  Ni  Ni103  1  0.56659367  0.46652067  0.17841500  1.0
  Ni  Ni104  1  0.56659367  0.79985400  0.17841500  1.0
  Ni  Ni105  1  0.89992700  0.13318733  0.17841500  1.0
  Ni  Ni106  1  0.89992700  0.46652067  0.17841500  1.0
  Ni  Ni107  1  0.89992700  0.79985400  0.17841500  1.0
  Ni  Ni108  1  0.13339550  0.26679100  0.25013321  1.0
  Ni  Ni109  1  0.13339550  0.60012433  0.25013321  1.0
  Ni  Ni110  1  0.13339550  0.93345767  0.25013321  1.0
  Ni  Ni111  1  0.46672883  0.26679100  0.25013321  1.0
  Ni  Ni112  1  0.46672883  0.60012433  0.25013321  1.0
  Ni  Ni113  1  0.46672883  0.93345767  0.25013321  1.0
  Ni  Ni114  1  0.80006217  0.26679100  0.25013321  1.0
  Ni  Ni115  1  0.80006217  0.60012433  0.25013321  1.0
  Ni  Ni116  1  0.80006217  0.93345767  0.25013321  1.0
  Ni  Ni117  1  0.30006217  0.26679100  0.17870464  1.0
  Ni  Ni118  1  0.30006217  0.60012433  0.17870464  1.0
  Ni  Ni119  1  0.30006217  0.93345767  0.17870464  1.0
  Ni  Ni120  1  0.63339550  0.26679100  0.17870464  1.0
  Ni  Ni121  1  0.63339550  0.60012433  0.17870464  1.0
  Ni  Ni122  1  0.63339550  0.93345767  0.17870464  1.0
  Ni  Ni123  1  0.96672883  0.26679100  0.17870464  1.0
  Ni  Ni124  1  0.96672883  0.60012433  0.17870464  1.0
  Ni  Ni125  1  0.96672883  0.93345767  0.17870464  1.0
  Ni  Ni126  1  0.03327117  0.06654233  0.17843821  1.0
  Ni  Ni127  1  0.03327117  0.39987567  0.17843821  1.0
  Ni  Ni128  1  0.03327117  0.73320900  0.17843821  1.0
  Ni  Ni129  1  0.36660450  0.06654233  0.17843821  1.0
  Ni  Ni130  1  0.36660450  0.39987567  0.17843821  1.0
  Ni  Ni131  1  0.36660450  0.73320900  0.17843821  1.0
  Ni  Ni132  1  0.69993783  0.06654233  0.17843821  1.0
  Ni  Ni133  1  0.69993783  0.39987567  0.17843821  1.0
  Ni  Ni134  1  0.69993783  0.73320900  0.17843821  1.0
  Ni  Ni135  1  0.19993783  0.06654233  0.24986679  1.0
  Ni  Ni136  1  0.19993783  0.39987567  0.24986679  1.0
  Ni  Ni137  1  0.19993783  0.73320900  0.24986679  1.0
  Ni  Ni138  1  0.53327117  0.06654233  0.24986679  1.0
  Ni  Ni139  1  0.53327117  0.39987567  0.24986679  1.0
  Ni  Ni140  1  0.53327117  0.73320900  0.24986679  1.0
  Ni  Ni141  1  0.86660450  0.06654233  0.24986679  1.0
  Ni  Ni142  1  0.86660450  0.39987567  0.24986679  1.0
  Ni  Ni143  1  0.86660450  0.73320900  0.24986679  1.0
  Ni  Ni144  1  0.10007300  0.20014600  0.17872786  1.0
  Ni  Ni145  1  0.10007300  0.53347933  0.17872786  1.0
  Ni  Ni146  1  0.10007300  0.86681267  0.17872786  1.0
  Ni  Ni147  1  0.43340633  0.20014600  0.17872786  1.0
  Ni  Ni148  1  0.43340633  0.53347933  0.17872786  1.0
  Ni  Ni149  1  0.43340633  0.86681267  0.17872786  1.0
  Ni  Ni150  1  0.76673967  0.20014600  0.17872786  1.0
  Ni  Ni151  1  0.76673967  0.53347933  0.17872786  1.0
  Ni  Ni152  1  0.76673967  0.86681267  0.17872786  1.0
  Ni  Ni153  1  0.26673967  0.20014600  0.25015643  1.0
  Ni  Ni154  1  0.26673967  0.53347933  0.25015643  1.0
  Ni  Ni155  1  0.26673967  0.86681267  0.25015643  1.0
  Ni  Ni156  1  0.60007300  0.20014600  0.25015643  1.0
  Ni  Ni157  1  0.60007300  0.53347933  0.25015643  1.0
  Ni  Ni158  1  0.60007300  0.86681267  0.25015643  1.0
  Ni  Ni159  1  0.93340633  0.20014600  0.25015643  1.0
  Ni  Ni160  1  0.93340633  0.53347933  0.25015643  1.0
  Ni  Ni161  1  0.93340633  0.86681267  0.25015643  1.0
  Ge  Ge162  1  0.00000000  0.00000000  0.25000000  1.0
  Ge  Ge163  1  0.00000000  0.33333333  0.25000000  1.0
  Ge  Ge164  1  0.00000000  0.66666667  0.25000000  1.0
  Ge  Ge165  1  0.33333333  0.00000000  0.25000000  1.0
  Ge  Ge166  1  0.33333333  0.33333333  0.25000000  1.0
  Ge  Ge167  1  0.33333333  0.66666667  0.25000000  1.0
  Ge  Ge168  1  0.66666667  0.00000000  0.25000000  1.0
  Ge  Ge169  1  0.66666667  0.33333333  0.25000000  1.0
  Ge  Ge170  1  0.66666667  0.66666667  0.25000000  1.0
  Ge  Ge171  1  0.16666667  0.33333333  0.17857143  1.0
  Ge  Ge172  1  0.16666667  0.66666667  0.17857143  1.0
  Ge  Ge173  1  0.16666667  1.00000000  0.17857143  1.0
  Ge  Ge174  1  0.50000000  0.33333333  0.17857143  1.0
  Ge  Ge175  1  0.50000000  0.66666667  0.17857143  1.0
  Ge  Ge176  1  0.50000000  1.00000000  0.17857143  1.0
  Ge  Ge177  1  0.83333333  0.33333333  0.17857143  1.0
  Ge  Ge178  1  0.83333333  0.66666667  0.17857143  1.0
  Ge  Ge179  1  0.83333333  1.00000000  0.17857143  1.0
  Ni  Ni180  1  0.06659367  0.13318733  0.39270071  1.0
  Ni  Ni181  1  0.06659367  0.46652067  0.39270071  1.0
  Ni  Ni182  1  0.06659367  0.79985400  0.39270071  1.0
  Ni  Ni183  1  0.39992700  0.13318733  0.39270071  1.0
  Ni  Ni184  1  0.39992700  0.46652067  0.39270071  1.0
  Ni  Ni185  1  0.39992700  0.79985400  0.39270071  1.0
  Ni  Ni186  1  0.73326033  0.13318733  0.39270071  1.0
  Ni  Ni187  1  0.73326033  0.46652067  0.39270071  1.0
  Ni  Ni188  1  0.73326033  0.79985400  0.39270071  1.0
  Ni  Ni189  1  0.23326033  0.13318733  0.32127214  1.0
  Ni  Ni190  1  0.23326033  0.46652067  0.32127214  1.0
  Ni  Ni191  1  0.23326033  0.79985400  0.32127214  1.0
  Ni  Ni192  1  0.56659367  0.13318733  0.32127214  1.0
  Ni  Ni193  1  0.56659367  0.46652067  0.32127214  1.0
  Ni  Ni194  1  0.56659367  0.79985400  0.32127214  1.0
  Ni  Ni195  1  0.89992700  0.13318733  0.32127214  1.0
  Ni  Ni196  1  0.89992700  0.46652067  0.32127214  1.0
  Ni  Ni197  1  0.89992700  0.79985400  0.32127214  1.0
  Ni  Ni198  1  0.13339550  0.26679100  0.39299036  1.0
  Ni  Ni199  1  0.13339550  0.60012433  0.39299036  1.0
  Ni  Ni200  1  0.13339550  0.93345767  0.39299036  1.0
  Ni  Ni201  1  0.46672883  0.26679100  0.39299036  1.0
  Ni  Ni202  1  0.46672883  0.60012433  0.39299036  1.0
  Ni  Ni203  1  0.46672883  0.93345767  0.39299036  1.0
  Ni  Ni204  1  0.80006217  0.26679100  0.39299036  1.0
  Ni  Ni205  1  0.80006217  0.60012433  0.39299036  1.0
  Ni  Ni206  1  0.80006217  0.93345767  0.39299036  1.0
  Ni  Ni207  1  0.30006217  0.26679100  0.32156179  1.0
  Ni  Ni208  1  0.30006217  0.60012433  0.32156179  1.0
  Ni  Ni209  1  0.30006217  0.93345767  0.32156179  1.0
  Ni  Ni210  1  0.63339550  0.26679100  0.32156179  1.0
  Ni  Ni211  1  0.63339550  0.60012433  0.32156179  1.0
  Ni  Ni212  1  0.63339550  0.93345767  0.32156179  1.0
  Ni  Ni213  1  0.96672883  0.26679100  0.32156179  1.0
  Ni  Ni214  1  0.96672883  0.60012433  0.32156179  1.0
  Ni  Ni215  1  0.96672883  0.93345767  0.32156179  1.0
  Ni  Ni216  1  0.03327117  0.06654233  0.32129536  1.0
  Ni  Ni217  1  0.03327117  0.39987567  0.32129536  1.0
  Ni  Ni218  1  0.03327117  0.73320900  0.32129536  1.0
  Ni  Ni219  1  0.36660450  0.06654233  0.32129536  1.0
  Ni  Ni220  1  0.36660450  0.39987567  0.32129536  1.0
  Ni  Ni221  1  0.36660450  0.73320900  0.32129536  1.0
  Ni  Ni222  1  0.69993783  0.06654233  0.32129536  1.0
  Ni  Ni223  1  0.69993783  0.39987567  0.32129536  1.0
  Ni  Ni224  1  0.69993783  0.73320900  0.32129536  1.0
  Ni  Ni225  1  0.19993783  0.06654233  0.39272393  1.0
  Ni  Ni226  1  0.19993783  0.39987567  0.39272393  1.0
  Ni  Ni227  1  0.19993783  0.73320900  0.39272393  1.0
  Ni  Ni228  1  0.53327117  0.06654233  0.39272393  1.0
  Ni  Ni229  1  0.53327117  0.39987567  0.39272393  1.0
  Ni  Ni230  1  0.53327117  0.73320900  0.39272393  1.0
  Ni  Ni231  1  0.86660450  0.06654233  0.39272393  1.0
  Ni  Ni232  1  0.86660450  0.39987567  0.39272393  1.0
  Ni  Ni233  1  0.86660450  0.73320900  0.39272393  1.0
  Ni  Ni234  1  0.10007300  0.20014600  0.32158500  1.0
  Ni  Ni235  1  0.10007300  0.53347933  0.32158500  1.0
  Ni  Ni236  1  0.10007300  0.86681267  0.32158500  1.0
  Ni  Ni237  1  0.43340633  0.20014600  0.32158500  1.0
  Ni  Ni238  1  0.43340633  0.53347933  0.32158500  1.0
  Ni  Ni239  1  0.43340633  0.86681267  0.32158500  1.0
  Ni  Ni240  1  0.76673967  0.20014600  0.32158500  1.0
  Ni  Ni241  1  0.76673967  0.53347933  0.32158500  1.0
  Ni  Ni242  1  0.76673967  0.86681267  0.32158500  1.0
  Ni  Ni243  1  0.26673967  0.20014600  0.39301357  1.0
  Ni  Ni244  1  0.26673967  0.53347933  0.39301357  1.0
  Ni  Ni245  1  0.26673967  0.86681267  0.39301357  1.0
  Ni  Ni246  1  0.60007300  0.20014600  0.39301357  1.0
  Ni  Ni247  1  0.60007300  0.53347933  0.39301357  1.0
  Ni  Ni248  1  0.60007300  0.86681267  0.39301357  1.0
  Ni  Ni249  1  0.93340633  0.20014600  0.39301357  1.0
  Ni  Ni250  1  0.93340633  0.53347933  0.39301357  1.0
  Ni  Ni251  1  0.93340633  0.86681267  0.39301357  1.0
  Ge  Ge252  1  0.00000000  0.00000000  0.39285714  1.0
  Ge  Ge253  1  0.00000000  0.33333333  0.39285714  1.0
  Ge  Ge254  1  0.00000000  0.66666667  0.39285714  1.0
  Ge  Ge255  1  0.33333333  0.00000000  0.39285714  1.0
  Ge  Ge256  1  0.33333333  0.33333333  0.39285714  1.0
  Ge  Ge257  1  0.33333333  0.66666667  0.39285714  1.0
  Ge  Ge258  1  0.66666667  0.00000000  0.39285714  1.0
  Ge  Ge259  1  0.66666667  0.33333333  0.39285714  1.0
  Ge  Ge260  1  0.66666667  0.66666667  0.39285714  1.0
  Ge  Ge261  1  0.16666667  0.33333333  0.32142857  1.0
  Ge  Ge262  1  0.16666667  0.66666667  0.32142857  1.0
  Ge  Ge263  1  0.16666667  1.00000000  0.32142857  1.0
  Ge  Ge264  1  0.50000000  0.33333333  0.32142857  1.0
  Ge  Ge265  1  0.50000000  0.66666667  0.32142857  1.0
  Ge  Ge266  1  0.50000000  1.00000000  0.32142857  1.0
  Ge  Ge267  1  0.83333333  0.33333333  0.32142857  1.0
  Ge  Ge268  1  0.83333333  0.66666667  0.32142857  1.0
  Ge  Ge269  1  0.83333333  1.00000000  0.32142857  1.0
