# generated using pymatgen
data_Ni4Ge
_symmetry_space_group_name_H-M   'P 1'
_cell_length_a   20.92947545
_cell_length_b   30.47420392
_cell_length_c   25.97011880
_cell_angle_alpha   85.46488237
_cell_angle_beta   85.59805035
_cell_angle_gamma   72.88203880
_symmetry_Int_Tables_number   1
_chemical_formula_structural   Ni4Ge
_chemical_formula_sum   'Ni432 Ge108'
_cell_volume   15755.76124405
_cell_formula_units_Z   108
loop_
 _symmetry_equiv_pos_site_id
 _symmetry_equiv_pos_as_xyz
  1  'x, y, z'
loop_
 _atom_site_type_symbol
 _atom_site_label
 _atom_site_symmetry_multiplicity
 _atom_site_fract_x
 _atom_site_fract_y
 _atom_site_fract_z
 _atom_site_occupancy
  Ge  Ge0  1  0.20664720  0.01673967  0.02998540  1.0
  Ge  Ge1  1  0.20664720  0.35007300  0.02998540  1.0
  Ge  Ge2  1  0.20664720  0.68340633  0.02998540  1.0
  Ge  Ge3  1  0.53998053  0.01673967  0.02998540  1.0
  Ge  Ge4  1  0.53998053  0.35007300  0.02998540  1.0
  Ge  Ge5  1  0.53998053  0.68340633  0.02998540  1.0
  Ge  Ge6  1  0.87331387  0.01673967  0.02998540  1.0
  Ge  Ge7  1  0.87331387  0.35007300  0.02998540  1.0
  Ge  Ge8  1  0.87331387  0.68340633  0.02998540  1.0
  Ge  Ge9  1  0.08442498  0.01673967  0.06331873  1.0
  Ge  Ge10  1  0.08442498  0.35007300  0.06331873  1.0
  Ge  Ge11  1  0.08442498  0.68340633  0.06331873  1.0
  Ge  Ge12  1  0.41775831  0.01673967  0.06331873  1.0
  Ge  Ge13  1  0.41775831  0.35007300  0.06331873  1.0
  Ge  Ge14  1  0.41775831  0.68340633  0.06331873  1.0
  Ge  Ge15  1  0.75109164  0.01673967  0.06331873  1.0
  Ge  Ge16  1  0.75109164  0.35007300  0.06331873  1.0
  Ge  Ge17  1  0.75109164  0.68340633  0.06331873  1.0
  Ge  Ge18  1  0.29553609  0.01673967  0.09665207  1.0
  Ge  Ge19  1  0.29553609  0.35007300  0.09665207  1.0
  Ge  Ge20  1  0.29553609  0.68340633  0.09665207  1.0
  Ge  Ge21  1  0.62886942  0.01673967  0.09665207  1.0
  Ge  Ge22  1  0.62886942  0.35007300  0.09665207  1.0
  Ge  Ge23  1  0.62886942  0.68340633  0.09665207  1.0
  Ge  Ge24  1  0.96220276  0.01673967  0.09665207  1.0
  Ge  Ge25  1  0.96220276  0.35007300  0.09665207  1.0
  Ge  Ge26  1  0.96220276  0.68340633  0.09665207  1.0
  Ge  Ge27  1  0.17331387  0.01673967  0.12998540  1.0
  Ge  Ge28  1  0.17331387  0.35007300  0.12998540  1.0
  Ge  Ge29  1  0.17331387  0.68340633  0.12998540  1.0
  Ge  Ge30  1  0.50664720  0.01673967  0.12998540  1.0
  Ge  Ge31  1  0.50664720  0.35007300  0.12998540  1.0
  Ge  Ge32  1  0.50664720  0.68340633  0.12998540  1.0
  Ge  Ge33  1  0.83998053  0.01673967  0.12998540  1.0
  Ge  Ge34  1  0.83998053  0.35007300  0.12998540  1.0
  Ge  Ge35  1  0.83998053  0.68340633  0.12998540  1.0
  Ge  Ge36  1  0.05109164  0.01673967  0.16331873  1.0
  Ge  Ge37  1  0.05109164  0.35007300  0.16331873  1.0
  Ge  Ge38  1  0.05109164  0.68340633  0.16331873  1.0
  Ge  Ge39  1  0.38442498  0.01673967  0.16331873  1.0
  Ge  Ge40  1  0.38442498  0.35007300  0.16331873  1.0
  Ge  Ge41  1  0.38442498  0.68340633  0.16331873  1.0
  Ge  Ge42  1  0.71775831  0.01673967  0.16331873  1.0
  Ge  Ge43  1  0.71775831  0.35007300  0.16331873  1.0
  Ge  Ge44  1  0.71775831  0.68340633  0.16331873  1.0
  Ge  Ge45  1  0.26220276  0.01673967  0.19665207  1.0
  Ge  Ge46  1  0.26220276  0.35007300  0.19665207  1.0
  Ge  Ge47  1  0.26220276  0.68340633  0.19665207  1.0
  Ge  Ge48  1  0.59553609  0.01673967  0.19665207  1.0
  Ge  Ge49  1  0.59553609  0.35007300  0.19665207  1.0
  Ge  Ge50  1  0.59553609  0.68340633  0.19665207  1.0
  Ge  Ge51  1  0.92886942  0.01673967  0.19665207  1.0
  Ge  Ge52  1  0.92886942  0.35007300  0.19665207  1.0
  Ge  Ge53  1  0.92886942  0.68340633  0.19665207  1.0
  Ge  Ge54  1  0.13998053  0.01673967  0.22998540  1.0
  Ge  Ge55  1  0.13998053  0.35007300  0.22998540  1.0
  Ge  Ge56  1  0.13998053  0.68340633  0.22998540  1.0
  Ge  Ge57  1  0.47331387  0.01673967  0.22998540  1.0
  Ge  Ge58  1  0.47331387  0.35007300  0.22998540  1.0
  Ge  Ge59  1  0.47331387  0.68340633  0.22998540  1.0
  Ge  Ge60  1  0.80664720  0.01673967  0.22998540  1.0
  Ge  Ge61  1  0.80664720  0.35007300  0.22998540  1.0
  Ge  Ge62  1  0.80664720  0.68340633  0.22998540  1.0
  Ge  Ge63  1  0.01775831  0.01673967  0.26331873  1.0
  Ge  Ge64  1  0.01775831  0.35007300  0.26331873  1.0
  Ge  Ge65  1  0.01775831  0.68340633  0.26331873  1.0
  Ge  Ge66  1  0.35109164  0.01673967  0.26331873  1.0
  Ge  Ge67  1  0.35109164  0.35007300  0.26331873  1.0
  Ge  Ge68  1  0.35109164  0.68340633  0.26331873  1.0
  Ge  Ge69  1  0.68442498  0.01673967  0.26331873  1.0
  Ge  Ge70  1  0.68442498  0.35007300  0.26331873  1.0
  Ge  Ge71  1  0.68442498  0.68340633  0.26331873  1.0
  Ge  Ge72  1  0.22886942  0.01673967  0.29665207  1.0
  Ge  Ge73  1  0.22886942  0.35007300  0.29665207  1.0
  Ge  Ge74  1  0.22886942  0.68340633  0.29665207  1.0
  Ge  Ge75  1  0.56220276  0.01673967  0.29665207  1.0
  Ge  Ge76  1  0.56220276  0.35007300  0.29665207  1.0
  Ge  Ge77  1  0.56220276  0.68340633  0.29665207  1.0
  Ge  Ge78  1  0.89553609  0.01673967  0.29665207  1.0
  Ge  Ge79  1  0.89553609  0.35007300  0.29665207  1.0
  Ge  Ge80  1  0.89553609  0.68340633  0.29665207  1.0
  Ge  Ge81  1  0.10664720  0.01673967  0.32998540  1.0
  Ge  Ge82  1  0.10664720  0.35007300  0.32998540  1.0
  Ge  Ge83  1  0.10664720  0.68340633  0.32998540  1.0
  Ge  Ge84  1  0.43998053  0.01673967  0.32998540  1.0
  Ge  Ge85  1  0.43998053  0.35007300  0.32998540  1.0
  Ge  Ge86  1  0.43998053  0.68340633  0.32998540  1.0
  Ge  Ge87  1  0.77331387  0.01673967  0.32998540  1.0
  Ge  Ge88  1  0.77331387  0.35007300  0.32998540  1.0
  Ge  Ge89  1  0.77331387  0.68340633  0.32998540  1.0
  Ge  Ge90  1  0.31775831  0.01673967  0.36331873  1.0
  Ge  Ge91  1  0.31775831  0.35007300  0.36331873  1.0
  Ge  Ge92  1  0.31775831  0.68340633  0.36331873  1.0
  Ge  Ge93  1  0.65109164  0.01673967  0.36331873  1.0
  Ge  Ge94  1  0.65109164  0.35007300  0.36331873  1.0
  Ge  Ge95  1  0.65109164  0.68340633  0.36331873  1.0
  Ge  Ge96  1  0.98442498  0.01673967  0.36331873  1.0
  Ge  Ge97  1  0.98442498  0.35007300  0.36331873  1.0
  Ge  Ge98  1  0.98442498  0.68340633  0.36331873  1.0
  Ge  Ge99  1  0.19553609  0.01673967  0.39665207  1.0
  Ge  Ge100  1  0.19553609  0.35007300  0.39665207  1.0
  Ge  Ge101  1  0.19553609  0.68340633  0.39665207  1.0
  Ge  Ge102  1  0.52886942  0.01673967  0.39665207  1.0
  Ge  Ge103  1  0.52886942  0.35007300  0.39665207  1.0
  Ge  Ge104  1  0.52886942  0.68340633  0.39665207  1.0
  Ge  Ge105  1  0.86220276  0.01673967  0.39665207  1.0
  Ge  Ge106  1  0.86220276  0.35007300  0.39665207  1.0
  Ge  Ge107  1  0.86220276  0.68340633  0.39665207  1.0
  Ni  Ni108  1  0.03794324  0.08296833  0.00334793  1.0
  Ni  Ni109  1  0.03794324  0.41630167  0.00334793  1.0
  Ni  Ni110  1  0.03794324  0.74963500  0.00334793  1.0
  Ni  Ni111  1  0.37127658  0.08296833  0.00334793  1.0
  Ni  Ni112  1  0.37127658  0.41630167  0.00334793  1.0
  Ni  Ni113  1  0.37127658  0.74963500  0.00334793  1.0
  Ni  Ni114  1  0.70460991  0.08296833  0.00334793  1.0
  Ni  Ni115  1  0.70460991  0.41630167  0.00334793  1.0
  Ni  Ni116  1  0.70460991  0.74963500  0.00334793  1.0
  Ni  Ni117  1  0.24905436  0.08296833  0.03668127  1.0
  Ni  Ni118  1  0.24905436  0.41630167  0.03668127  1.0
  Ni  Ni119  1  0.24905436  0.74963500  0.03668127  1.0
  Ni  Ni120  1  0.58238769  0.08296833  0.03668127  1.0
  Ni  Ni121  1  0.58238769  0.41630167  0.03668127  1.0
  Ni  Ni122  1  0.58238769  0.74963500  0.03668127  1.0
  Ni  Ni123  1  0.91572102  0.08296833  0.03668127  1.0
  Ni  Ni124  1  0.91572102  0.41630167  0.03668127  1.0
  Ni  Ni125  1  0.91572102  0.74963500  0.03668127  1.0
  Ni  Ni126  1  0.29093416  0.15044600  0.04329387  1.0
  Ni  Ni127  1  0.29093416  0.48377933  0.04329387  1.0
  Ni  Ni128  1  0.29093416  0.81711267  0.04329387  1.0
  Ni  Ni129  1  0.62426749  0.15044600  0.04329387  1.0
  Ni  Ni130  1  0.62426749  0.48377933  0.04329387  1.0
  Ni  Ni131  1  0.62426749  0.81711267  0.04329387  1.0
  Ni  Ni132  1  0.95760082  0.15044600  0.04329387  1.0
  Ni  Ni133  1  0.95760082  0.48377933  0.04329387  1.0
  Ni  Ni134  1  0.95760082  0.81711267  0.04329387  1.0
  Ni  Ni135  1  0.07982304  0.15044600  0.00996053  1.0
  Ni  Ni136  1  0.07982304  0.48377933  0.00996053  1.0
  Ni  Ni137  1  0.07982304  0.81711267  0.00996053  1.0
  Ni  Ni138  1  0.41315638  0.15044600  0.00996053  1.0
  Ni  Ni139  1  0.41315638  0.48377933  0.00996053  1.0
  Ni  Ni140  1  0.41315638  0.81711267  0.00996053  1.0
  Ni  Ni141  1  0.74648971  0.15044600  0.00996053  1.0
  Ni  Ni142  1  0.74648971  0.48377933  0.00996053  1.0
  Ni  Ni143  1  0.74648971  0.81711267  0.00996053  1.0
  Ni  Ni144  1  0.12236024  0.21636667  0.01667693  1.0
  Ni  Ni145  1  0.12236024  0.54970000  0.01667693  1.0
  Ni  Ni146  1  0.12236024  0.88303333  0.01667693  1.0
  Ni  Ni147  1  0.45569358  0.21636667  0.01667693  1.0
  Ni  Ni148  1  0.45569358  0.54970000  0.01667693  1.0
  Ni  Ni149  1  0.45569358  0.88303333  0.01667693  1.0
  Ni  Ni150  1  0.78902691  0.21636667  0.01667693  1.0
  Ni  Ni151  1  0.78902691  0.54970000  0.01667693  1.0
  Ni  Ni152  1  0.78902691  0.88303333  0.01667693  1.0
  Ni  Ni153  1  0.00013802  0.21636667  0.05001027  1.0
  Ni  Ni154  1  0.00013802  0.54970000  0.05001027  1.0
  Ni  Ni155  1  0.00013802  0.88303333  0.05001027  1.0
  Ni  Ni156  1  0.33347136  0.21636667  0.05001027  1.0
  Ni  Ni157  1  0.33347136  0.54970000  0.05001027  1.0
  Ni  Ni158  1  0.33347136  0.88303333  0.05001027  1.0
  Ni  Ni159  1  0.66680469  0.21636667  0.05001027  1.0
  Ni  Ni160  1  0.66680469  0.54970000  0.05001027  1.0
  Ni  Ni161  1  0.66680469  0.88303333  0.05001027  1.0
  Ni  Ni162  1  0.04201782  0.28384433  0.05662287  1.0
  Ni  Ni163  1  0.04201782  0.61717767  0.05662287  1.0
  Ni  Ni164  1  0.04201782  0.95051100  0.05662287  1.0
  Ni  Ni165  1  0.37535116  0.28384433  0.05662287  1.0
  Ni  Ni166  1  0.37535116  0.61717767  0.05662287  1.0
  Ni  Ni167  1  0.37535116  0.95051100  0.05662287  1.0
  Ni  Ni168  1  0.70868449  0.28384433  0.05662287  1.0
  Ni  Ni169  1  0.70868449  0.61717767  0.05662287  1.0
  Ni  Ni170  1  0.70868449  0.95051100  0.05662287  1.0
  Ni  Ni171  1  0.16424004  0.28384433  0.02328953  1.0
  Ni  Ni172  1  0.16424004  0.61717767  0.02328953  1.0
  Ni  Ni173  1  0.16424004  0.95051100  0.02328953  1.0
  Ni  Ni174  1  0.49757338  0.28384433  0.02328953  1.0
  Ni  Ni175  1  0.49757338  0.61717767  0.02328953  1.0
  Ni  Ni176  1  0.49757338  0.95051100  0.02328953  1.0
  Ni  Ni177  1  0.83090671  0.28384433  0.02328953  1.0
  Ni  Ni178  1  0.83090671  0.61717767  0.02328953  1.0
  Ni  Ni179  1  0.83090671  0.95051100  0.02328953  1.0
  Ni  Ni180  1  0.12683213  0.08296833  0.07001460  1.0
  Ni  Ni181  1  0.12683213  0.41630167  0.07001460  1.0
  Ni  Ni182  1  0.12683213  0.74963500  0.07001460  1.0
  Ni  Ni183  1  0.46016547  0.08296833  0.07001460  1.0
  Ni  Ni184  1  0.46016547  0.41630167  0.07001460  1.0
  Ni  Ni185  1  0.46016547  0.74963500  0.07001460  1.0
  Ni  Ni186  1  0.79349880  0.08296833  0.07001460  1.0
  Ni  Ni187  1  0.79349880  0.41630167  0.07001460  1.0
  Ni  Ni188  1  0.79349880  0.74963500  0.07001460  1.0
  Ni  Ni189  1  0.00460991  0.08296833  0.10334793  1.0
  Ni  Ni190  1  0.00460991  0.41630167  0.10334793  1.0
  Ni  Ni191  1  0.00460991  0.74963500  0.10334793  1.0
  Ni  Ni192  1  0.33794324  0.08296833  0.10334793  1.0
  Ni  Ni193  1  0.33794324  0.41630167  0.10334793  1.0
  Ni  Ni194  1  0.33794324  0.74963500  0.10334793  1.0
  Ni  Ni195  1  0.67127658  0.08296833  0.10334793  1.0
  Ni  Ni196  1  0.67127658  0.41630167  0.10334793  1.0
  Ni  Ni197  1  0.67127658  0.74963500  0.10334793  1.0
  Ni  Ni198  1  0.04648971  0.15044600  0.10996053  1.0
  Ni  Ni199  1  0.04648971  0.48377933  0.10996053  1.0
  Ni  Ni200  1  0.04648971  0.81711267  0.10996053  1.0
  Ni  Ni201  1  0.37982304  0.15044600  0.10996053  1.0
  Ni  Ni202  1  0.37982304  0.48377933  0.10996053  1.0
  Ni  Ni203  1  0.37982304  0.81711267  0.10996053  1.0
  Ni  Ni204  1  0.71315638  0.15044600  0.10996053  1.0
  Ni  Ni205  1  0.71315638  0.48377933  0.10996053  1.0
  Ni  Ni206  1  0.71315638  0.81711267  0.10996053  1.0
  Ni  Ni207  1  0.16871193  0.15044600  0.07662720  1.0
  Ni  Ni208  1  0.16871193  0.48377933  0.07662720  1.0
  Ni  Ni209  1  0.16871193  0.81711267  0.07662720  1.0
  Ni  Ni210  1  0.50204527  0.15044600  0.07662720  1.0
  Ni  Ni211  1  0.50204527  0.48377933  0.07662720  1.0
  Ni  Ni212  1  0.50204527  0.81711267  0.07662720  1.0
  Ni  Ni213  1  0.83537860  0.15044600  0.07662720  1.0
  Ni  Ni214  1  0.83537860  0.48377933  0.07662720  1.0
  Ni  Ni215  1  0.83537860  0.81711267  0.07662720  1.0
  Ni  Ni216  1  0.21124913  0.21636667  0.08334360  1.0
  Ni  Ni217  1  0.21124913  0.54970000  0.08334360  1.0
  Ni  Ni218  1  0.21124913  0.88303333  0.08334360  1.0
  Ni  Ni219  1  0.54458247  0.21636667  0.08334360  1.0
  Ni  Ni220  1  0.54458247  0.54970000  0.08334360  1.0
  Ni  Ni221  1  0.54458247  0.88303333  0.08334360  1.0
  Ni  Ni222  1  0.87791580  0.21636667  0.08334360  1.0
  Ni  Ni223  1  0.87791580  0.54970000  0.08334360  1.0
  Ni  Ni224  1  0.87791580  0.88303333  0.08334360  1.0
  Ni  Ni225  1  0.08902691  0.21636667  0.11667693  1.0
  Ni  Ni226  1  0.08902691  0.54970000  0.11667693  1.0
  Ni  Ni227  1  0.08902691  0.88303333  0.11667693  1.0
  Ni  Ni228  1  0.42236024  0.21636667  0.11667693  1.0
  Ni  Ni229  1  0.42236024  0.54970000  0.11667693  1.0
  Ni  Ni230  1  0.42236024  0.88303333  0.11667693  1.0
  Ni  Ni231  1  0.75569358  0.21636667  0.11667693  1.0
  Ni  Ni232  1  0.75569358  0.54970000  0.11667693  1.0
  Ni  Ni233  1  0.75569358  0.88303333  0.11667693  1.0
  Ni  Ni234  1  0.13090671  0.28384433  0.12328953  1.0
  Ni  Ni235  1  0.13090671  0.61717767  0.12328953  1.0
  Ni  Ni236  1  0.13090671  0.95051100  0.12328953  1.0
  Ni  Ni237  1  0.46424004  0.28384433  0.12328953  1.0
  Ni  Ni238  1  0.46424004  0.61717767  0.12328953  1.0
  Ni  Ni239  1  0.46424004  0.95051100  0.12328953  1.0
  Ni  Ni240  1  0.79757338  0.28384433  0.12328953  1.0
  Ni  Ni241  1  0.79757338  0.61717767  0.12328953  1.0
  Ni  Ni242  1  0.79757338  0.95051100  0.12328953  1.0
  Ni  Ni243  1  0.25312893  0.28384433  0.08995620  1.0
  Ni  Ni244  1  0.25312893  0.61717767  0.08995620  1.0
  Ni  Ni245  1  0.25312893  0.95051100  0.08995620  1.0
  Ni  Ni246  1  0.58646227  0.28384433  0.08995620  1.0
  Ni  Ni247  1  0.58646227  0.61717767  0.08995620  1.0
  Ni  Ni248  1  0.58646227  0.95051100  0.08995620  1.0
  Ni  Ni249  1  0.91979560  0.28384433  0.08995620  1.0
  Ni  Ni250  1  0.91979560  0.61717767  0.08995620  1.0
  Ni  Ni251  1  0.91979560  0.95051100  0.08995620  1.0
  Ni  Ni252  1  0.21572102  0.08296833  0.13668127  1.0
  Ni  Ni253  1  0.21572102  0.41630167  0.13668127  1.0
  Ni  Ni254  1  0.21572102  0.74963500  0.13668127  1.0
  Ni  Ni255  1  0.54905436  0.08296833  0.13668127  1.0
  Ni  Ni256  1  0.54905436  0.41630167  0.13668127  1.0
  Ni  Ni257  1  0.54905436  0.74963500  0.13668127  1.0
  Ni  Ni258  1  0.88238769  0.08296833  0.13668127  1.0
  Ni  Ni259  1  0.88238769  0.41630167  0.13668127  1.0
  Ni  Ni260  1  0.88238769  0.74963500  0.13668127  1.0
  Ni  Ni261  1  0.09349880  0.08296833  0.17001460  1.0
  Ni  Ni262  1  0.09349880  0.41630167  0.17001460  1.0
  Ni  Ni263  1  0.09349880  0.74963500  0.17001460  1.0
  Ni  Ni264  1  0.42683213  0.08296833  0.17001460  1.0
  Ni  Ni265  1  0.42683213  0.41630167  0.17001460  1.0
  Ni  Ni266  1  0.42683213  0.74963500  0.17001460  1.0
  Ni  Ni267  1  0.76016547  0.08296833  0.17001460  1.0
  Ni  Ni268  1  0.76016547  0.41630167  0.17001460  1.0
  Ni  Ni269  1  0.76016547  0.74963500  0.17001460  1.0
  Ni  Ni270  1  0.13537860  0.15044600  0.17662720  1.0
  Ni  Ni271  1  0.13537860  0.48377933  0.17662720  1.0
  Ni  Ni272  1  0.13537860  0.81711267  0.17662720  1.0
  Ni  Ni273  1  0.46871193  0.15044600  0.17662720  1.0
  Ni  Ni274  1  0.46871193  0.48377933  0.17662720  1.0
  Ni  Ni275  1  0.46871193  0.81711267  0.17662720  1.0
  Ni  Ni276  1  0.80204527  0.15044600  0.17662720  1.0
  Ni  Ni277  1  0.80204527  0.48377933  0.17662720  1.0
  Ni  Ni278  1  0.80204527  0.81711267  0.17662720  1.0
  Ni  Ni279  1  0.25760082  0.15044600  0.14329387  1.0
  Ni  Ni280  1  0.25760082  0.48377933  0.14329387  1.0
  Ni  Ni281  1  0.25760082  0.81711267  0.14329387  1.0
  Ni  Ni282  1  0.59093416  0.15044600  0.14329387  1.0
  Ni  Ni283  1  0.59093416  0.48377933  0.14329387  1.0
  Ni  Ni284  1  0.59093416  0.81711267  0.14329387  1.0
  Ni  Ni285  1  0.92426749  0.15044600  0.14329387  1.0
  Ni  Ni286  1  0.92426749  0.48377933  0.14329387  1.0
  Ni  Ni287  1  0.92426749  0.81711267  0.14329387  1.0
  Ni  Ni288  1  0.30013802  0.21636667  0.15001027  1.0
  Ni  Ni289  1  0.30013802  0.54970000  0.15001027  1.0
  Ni  Ni290  1  0.30013802  0.88303333  0.15001027  1.0
  Ni  Ni291  1  0.63347136  0.21636667  0.15001027  1.0
  Ni  Ni292  1  0.63347136  0.54970000  0.15001027  1.0
  Ni  Ni293  1  0.63347136  0.88303333  0.15001027  1.0
  Ni  Ni294  1  0.96680469  0.21636667  0.15001027  1.0
  Ni  Ni295  1  0.96680469  0.54970000  0.15001027  1.0
  Ni  Ni296  1  0.96680469  0.88303333  0.15001027  1.0
  Ni  Ni297  1  0.17791580  0.21636667  0.18334360  1.0
  Ni  Ni298  1  0.17791580  0.54970000  0.18334360  1.0
  Ni  Ni299  1  0.17791580  0.88303333  0.18334360  1.0
  Ni  Ni300  1  0.51124913  0.21636667  0.18334360  1.0
  Ni  Ni301  1  0.51124913  0.54970000  0.18334360  1.0
  Ni  Ni302  1  0.51124913  0.88303333  0.18334360  1.0
  Ni  Ni303  1  0.84458247  0.21636667  0.18334360  1.0
  Ni  Ni304  1  0.84458247  0.54970000  0.18334360  1.0
  Ni  Ni305  1  0.84458247  0.88303333  0.18334360  1.0
  Ni  Ni306  1  0.21979560  0.28384433  0.18995620  1.0
  Ni  Ni307  1  0.21979560  0.61717767  0.18995620  1.0
  Ni  Ni308  1  0.21979560  0.95051100  0.18995620  1.0
  Ni  Ni309  1  0.55312893  0.28384433  0.18995620  1.0
  Ni  Ni310  1  0.55312893  0.61717767  0.18995620  1.0
  Ni  Ni311  1  0.55312893  0.95051100  0.18995620  1.0
  Ni  Ni312  1  0.88646227  0.28384433  0.18995620  1.0
  Ni  Ni313  1  0.88646227  0.61717767  0.18995620  1.0
  Ni  Ni314  1  0.88646227  0.95051100  0.18995620  1.0
  Ni  Ni315  1  0.00868449  0.28384433  0.15662287  1.0
  Ni  Ni316  1  0.00868449  0.61717767  0.15662287  1.0
  Ni  Ni317  1  0.00868449  0.95051100  0.15662287  1.0
  Ni  Ni318  1  0.34201782  0.28384433  0.15662287  1.0
  Ni  Ni319  1  0.34201782  0.61717767  0.15662287  1.0
  Ni  Ni320  1  0.34201782  0.95051100  0.15662287  1.0
  Ni  Ni321  1  0.67535116  0.28384433  0.15662287  1.0
  Ni  Ni322  1  0.67535116  0.61717767  0.15662287  1.0
  Ni  Ni323  1  0.67535116  0.95051100  0.15662287  1.0
  Ni  Ni324  1  0.30460991  0.08296833  0.20334793  1.0
  Ni  Ni325  1  0.30460991  0.41630167  0.20334793  1.0
  Ni  Ni326  1  0.30460991  0.74963500  0.20334793  1.0
  Ni  Ni327  1  0.63794324  0.08296833  0.20334793  1.0
  Ni  Ni328  1  0.63794324  0.41630167  0.20334793  1.0
  Ni  Ni329  1  0.63794324  0.74963500  0.20334793  1.0
  Ni  Ni330  1  0.97127658  0.08296833  0.20334793  1.0
  Ni  Ni331  1  0.97127658  0.41630167  0.20334793  1.0
  Ni  Ni332  1  0.97127658  0.74963500  0.20334793  1.0
  Ni  Ni333  1  0.18238769  0.08296833  0.23668127  1.0
  Ni  Ni334  1  0.18238769  0.41630167  0.23668127  1.0
  Ni  Ni335  1  0.18238769  0.74963500  0.23668127  1.0
  Ni  Ni336  1  0.51572102  0.08296833  0.23668127  1.0
  Ni  Ni337  1  0.51572102  0.41630167  0.23668127  1.0
  Ni  Ni338  1  0.51572102  0.74963500  0.23668127  1.0
  Ni  Ni339  1  0.84905436  0.08296833  0.23668127  1.0
  Ni  Ni340  1  0.84905436  0.41630167  0.23668127  1.0
  Ni  Ni341  1  0.84905436  0.74963500  0.23668127  1.0
  Ni  Ni342  1  0.22426749  0.15044600  0.24329387  1.0
  Ni  Ni343  1  0.22426749  0.48377933  0.24329387  1.0
  Ni  Ni344  1  0.22426749  0.81711267  0.24329387  1.0
  Ni  Ni345  1  0.55760082  0.15044600  0.24329387  1.0
  Ni  Ni346  1  0.55760082  0.48377933  0.24329387  1.0
  Ni  Ni347  1  0.55760082  0.81711267  0.24329387  1.0
  Ni  Ni348  1  0.89093416  0.15044600  0.24329387  1.0
  Ni  Ni349  1  0.89093416  0.48377933  0.24329387  1.0
  Ni  Ni350  1  0.89093416  0.81711267  0.24329387  1.0
  Ni  Ni351  1  0.01315638  0.15044600  0.20996053  1.0
  Ni  Ni352  1  0.01315638  0.48377933  0.20996053  1.0
  Ni  Ni353  1  0.01315638  0.81711267  0.20996053  1.0
  Ni  Ni354  1  0.34648971  0.15044600  0.20996053  1.0
  Ni  Ni355  1  0.34648971  0.48377933  0.20996053  1.0
  Ni  Ni356  1  0.34648971  0.81711267  0.20996053  1.0
  Ni  Ni357  1  0.67982304  0.15044600  0.20996053  1.0
  Ni  Ni358  1  0.67982304  0.48377933  0.20996053  1.0
  Ni  Ni359  1  0.67982304  0.81711267  0.20996053  1.0
  Ni  Ni360  1  0.05569358  0.21636667  0.21667693  1.0
  Ni  Ni361  1  0.05569358  0.54970000  0.21667693  1.0
  Ni  Ni362  1  0.05569358  0.88303333  0.21667693  1.0
  Ni  Ni363  1  0.38902691  0.21636667  0.21667693  1.0
  Ni  Ni364  1  0.38902691  0.54970000  0.21667693  1.0
  Ni  Ni365  1  0.38902691  0.88303333  0.21667693  1.0
  Ni  Ni366  1  0.72236024  0.21636667  0.21667693  1.0
  Ni  Ni367  1  0.72236024  0.54970000  0.21667693  1.0
  Ni  Ni368  1  0.72236024  0.88303333  0.21667693  1.0
  Ni  Ni369  1  0.26680469  0.21636667  0.25001027  1.0
  Ni  Ni370  1  0.26680469  0.54970000  0.25001027  1.0
  Ni  Ni371  1  0.26680469  0.88303333  0.25001027  1.0
  Ni  Ni372  1  0.60013802  0.21636667  0.25001027  1.0
  Ni  Ni373  1  0.60013802  0.54970000  0.25001027  1.0
  Ni  Ni374  1  0.60013802  0.88303333  0.25001027  1.0
  Ni  Ni375  1  0.93347136  0.21636667  0.25001027  1.0
  Ni  Ni376  1  0.93347136  0.54970000  0.25001027  1.0
  Ni  Ni377  1  0.93347136  0.88303333  0.25001027  1.0
  Ni  Ni378  1  0.30868449  0.28384433  0.25662287  1.0
  Ni  Ni379  1  0.30868449  0.61717767  0.25662287  1.0
  Ni  Ni380  1  0.30868449  0.95051100  0.25662287  1.0
  Ni  Ni381  1  0.64201782  0.28384433  0.25662287  1.0
  Ni  Ni382  1  0.64201782  0.61717767  0.25662287  1.0
  Ni  Ni383  1  0.64201782  0.95051100  0.25662287  1.0
  Ni  Ni384  1  0.97535116  0.28384433  0.25662287  1.0
  Ni  Ni385  1  0.97535116  0.61717767  0.25662287  1.0
  Ni  Ni386  1  0.97535116  0.95051100  0.25662287  1.0
  Ni  Ni387  1  0.09757338  0.28384433  0.22328953  1.0
  Ni  Ni388  1  0.09757338  0.61717767  0.22328953  1.0
  Ni  Ni389  1  0.09757338  0.95051100  0.22328953  1.0
  Ni  Ni390  1  0.43090671  0.28384433  0.22328953  1.0
  Ni  Ni391  1  0.43090671  0.61717767  0.22328953  1.0
  Ni  Ni392  1  0.43090671  0.95051100  0.22328953  1.0
  Ni  Ni393  1  0.76424004  0.28384433  0.22328953  1.0
  Ni  Ni394  1  0.76424004  0.61717767  0.22328953  1.0
  Ni  Ni395  1  0.76424004  0.95051100  0.22328953  1.0
  Ni  Ni396  1  0.06016547  0.08296833  0.27001460  1.0
  Ni  Ni397  1  0.06016547  0.41630167  0.27001460  1.0
  Ni  Ni398  1  0.06016547  0.74963500  0.27001460  1.0
  Ni  Ni399  1  0.39349880  0.08296833  0.27001460  1.0
  Ni  Ni400  1  0.39349880  0.41630167  0.27001460  1.0
  Ni  Ni401  1  0.39349880  0.74963500  0.27001460  1.0
  Ni  Ni402  1  0.72683213  0.08296833  0.27001460  1.0
  Ni  Ni403  1  0.72683213  0.41630167  0.27001460  1.0
  Ni  Ni404  1  0.72683213  0.74963500  0.27001460  1.0
  Ni  Ni405  1  0.27127658  0.08296833  0.30334793  1.0
  Ni  Ni406  1  0.27127658  0.41630167  0.30334793  1.0
  Ni  Ni407  1  0.27127658  0.74963500  0.30334793  1.0
  Ni  Ni408  1  0.60460991  0.08296833  0.30334793  1.0
  Ni  Ni409  1  0.60460991  0.41630167  0.30334793  1.0
  Ni  Ni410  1  0.60460991  0.74963500  0.30334793  1.0
  Ni  Ni411  1  0.93794324  0.08296833  0.30334793  1.0
  Ni  Ni412  1  0.93794324  0.41630167  0.30334793  1.0
  Ni  Ni413  1  0.93794324  0.74963500  0.30334793  1.0
  Ni  Ni414  1  0.31315638  0.15044600  0.30996053  1.0
  Ni  Ni415  1  0.31315638  0.48377933  0.30996053  1.0
  Ni  Ni416  1  0.31315638  0.81711267  0.30996053  1.0
  Ni  Ni417  1  0.64648971  0.15044600  0.30996053  1.0
  Ni  Ni418  1  0.64648971  0.48377933  0.30996053  1.0
  Ni  Ni419  1  0.64648971  0.81711267  0.30996053  1.0
  Ni  Ni420  1  0.97982304  0.15044600  0.30996053  1.0
  Ni  Ni421  1  0.97982304  0.48377933  0.30996053  1.0
  Ni  Ni422  1  0.97982304  0.81711267  0.30996053  1.0
  Ni  Ni423  1  0.10204527  0.15044600  0.27662720  1.0
  Ni  Ni424  1  0.10204527  0.48377933  0.27662720  1.0
  Ni  Ni425  1  0.10204527  0.81711267  0.27662720  1.0
  Ni  Ni426  1  0.43537860  0.15044600  0.27662720  1.0
  Ni  Ni427  1  0.43537860  0.48377933  0.27662720  1.0
  Ni  Ni428  1  0.43537860  0.81711267  0.27662720  1.0
  Ni  Ni429  1  0.76871193  0.15044600  0.27662720  1.0
  Ni  Ni430  1  0.76871193  0.48377933  0.27662720  1.0
  Ni  Ni431  1  0.76871193  0.81711267  0.27662720  1.0
  Ni  Ni432  1  0.14458247  0.21636667  0.28334360  1.0
  Ni  Ni433  1  0.14458247  0.54970000  0.28334360  1.0
  Ni  Ni434  1  0.14458247  0.88303333  0.28334360  1.0
  Ni  Ni435  1  0.47791580  0.21636667  0.28334360  1.0
  Ni  Ni436  1  0.47791580  0.54970000  0.28334360  1.0
  Ni  Ni437  1  0.47791580  0.88303333  0.28334360  1.0
  Ni  Ni438  1  0.81124913  0.21636667  0.28334360  1.0
  Ni  Ni439  1  0.81124913  0.54970000  0.28334360  1.0
  Ni  Ni440  1  0.81124913  0.88303333  0.28334360  1.0
  Ni  Ni441  1  0.02236024  0.21636667  0.31667693  1.0
  Ni  Ni442  1  0.02236024  0.54970000  0.31667693  1.0
  Ni  Ni443  1  0.02236024  0.88303333  0.31667693  1.0
  Ni  Ni444  1  0.35569358  0.21636667  0.31667693  1.0
  Ni  Ni445  1  0.35569358  0.54970000  0.31667693  1.0
  Ni  Ni446  1  0.35569358  0.88303333  0.31667693  1.0
  Ni  Ni447  1  0.68902691  0.21636667  0.31667693  1.0
  Ni  Ni448  1  0.68902691  0.54970000  0.31667693  1.0
  Ni  Ni449  1  0.68902691  0.88303333  0.31667693  1.0
  Ni  Ni450  1  0.06424004  0.28384433  0.32328953  1.0
  Ni  Ni451  1  0.06424004  0.61717767  0.32328953  1.0
  Ni  Ni452  1  0.06424004  0.95051100  0.32328953  1.0
  Ni  Ni453  1  0.39757338  0.28384433  0.32328953  1.0
  Ni  Ni454  1  0.39757338  0.61717767  0.32328953  1.0
  Ni  Ni455  1  0.39757338  0.95051100  0.32328953  1.0
  Ni  Ni456  1  0.73090671  0.28384433  0.32328953  1.0
  Ni  Ni457  1  0.73090671  0.61717767  0.32328953  1.0
  Ni  Ni458  1  0.73090671  0.95051100  0.32328953  1.0
  Ni  Ni459  1  0.18646227  0.28384433  0.28995620  1.0
  Ni  Ni460  1  0.18646227  0.61717767  0.28995620  1.0
  Ni  Ni461  1  0.18646227  0.95051100  0.28995620  1.0
  Ni  Ni462  1  0.51979560  0.28384433  0.28995620  1.0
  Ni  Ni463  1  0.51979560  0.61717767  0.28995620  1.0
  Ni  Ni464  1  0.51979560  0.95051100  0.28995620  1.0
  Ni  Ni465  1  0.85312893  0.28384433  0.28995620  1.0
  Ni  Ni466  1  0.85312893  0.61717767  0.28995620  1.0
  Ni  Ni467  1  0.85312893  0.95051100  0.28995620  1.0
  Ni  Ni468  1  0.14905436  0.08296833  0.33668127  1.0
  Ni  Ni469  1  0.14905436  0.41630167  0.33668127  1.0
  Ni  Ni470  1  0.14905436  0.74963500  0.33668127  1.0
  Ni  Ni471  1  0.48238769  0.08296833  0.33668127  1.0
  Ni  Ni472  1  0.48238769  0.41630167  0.33668127  1.0
  Ni  Ni473  1  0.48238769  0.74963500  0.33668127  1.0
  Ni  Ni474  1  0.81572102  0.08296833  0.33668127  1.0
  Ni  Ni475  1  0.81572102  0.41630167  0.33668127  1.0
  Ni  Ni476  1  0.81572102  0.74963500  0.33668127  1.0
  Ni  Ni477  1  0.02683213  0.08296833  0.37001460  1.0
  Ni  Ni478  1  0.02683213  0.41630167  0.37001460  1.0
  Ni  Ni479  1  0.02683213  0.74963500  0.37001460  1.0
  Ni  Ni480  1  0.36016547  0.08296833  0.37001460  1.0
  Ni  Ni481  1  0.36016547  0.41630167  0.37001460  1.0
  Ni  Ni482  1  0.36016547  0.74963500  0.37001460  1.0
  Ni  Ni483  1  0.69349880  0.08296833  0.37001460  1.0
  Ni  Ni484  1  0.69349880  0.41630167  0.37001460  1.0
  Ni  Ni485  1  0.69349880  0.74963500  0.37001460  1.0
  Ni  Ni486  1  0.06871193  0.15044600  0.37662720  1.0
  Ni  Ni487  1  0.06871193  0.48377933  0.37662720  1.0
  Ni  Ni488  1  0.06871193  0.81711267  0.37662720  1.0
  Ni  Ni489  1  0.40204527  0.15044600  0.37662720  1.0
  Ni  Ni490  1  0.40204527  0.48377933  0.37662720  1.0
  Ni  Ni491  1  0.40204527  0.81711267  0.37662720  1.0
  Ni  Ni492  1  0.73537860  0.15044600  0.37662720  1.0
  Ni  Ni493  1  0.73537860  0.48377933  0.37662720  1.0
  Ni  Ni494  1  0.73537860  0.81711267  0.37662720  1.0
  Ni  Ni495  1  0.19093416  0.15044600  0.34329387  1.0
  Ni  Ni496  1  0.19093416  0.48377933  0.34329387  1.0
  Ni  Ni497  1  0.19093416  0.81711267  0.34329387  1.0
  Ni  Ni498  1  0.52426749  0.15044600  0.34329387  1.0
  Ni  Ni499  1  0.52426749  0.48377933  0.34329387  1.0
  Ni  Ni500  1  0.52426749  0.81711267  0.34329387  1.0
  Ni  Ni501  1  0.85760082  0.15044600  0.34329387  1.0
  Ni  Ni502  1  0.85760082  0.48377933  0.34329387  1.0
  Ni  Ni503  1  0.85760082  0.81711267  0.34329387  1.0
  Ni  Ni504  1  0.23347136  0.21636667  0.35001027  1.0
  Ni  Ni505  1  0.23347136  0.54970000  0.35001027  1.0
  Ni  Ni506  1  0.23347136  0.88303333  0.35001027  1.0
  Ni  Ni507  1  0.56680469  0.21636667  0.35001027  1.0
  Ni  Ni508  1  0.56680469  0.54970000  0.35001027  1.0
  Ni  Ni509  1  0.56680469  0.88303333  0.35001027  1.0
  Ni  Ni510  1  0.90013802  0.21636667  0.35001027  1.0
  Ni  Ni511  1  0.90013802  0.54970000  0.35001027  1.0
  Ni  Ni512  1  0.90013802  0.88303333  0.35001027  1.0
  Ni  Ni513  1  0.11124913  0.21636667  0.38334360  1.0
  Ni  Ni514  1  0.11124913  0.54970000  0.38334360  1.0
  Ni  Ni515  1  0.11124913  0.88303333  0.38334360  1.0
  Ni  Ni516  1  0.44458247  0.21636667  0.38334360  1.0
  Ni  Ni517  1  0.44458247  0.54970000  0.38334360  1.0
  Ni  Ni518  1  0.44458247  0.88303333  0.38334360  1.0
  Ni  Ni519  1  0.77791580  0.21636667  0.38334360  1.0
  Ni  Ni520  1  0.77791580  0.54970000  0.38334360  1.0
  Ni  Ni521  1  0.77791580  0.88303333  0.38334360  1.0
  Ni  Ni522  1  0.15312893  0.28384433  0.38995620  1.0
  Ni  Ni523  1  0.15312893  0.61717767  0.38995620  1.0
  Ni  Ni524  1  0.15312893  0.95051100  0.38995620  1.0
  Ni  Ni525  1  0.48646227  0.28384433  0.38995620  1.0
  Ni  Ni526  1  0.48646227  0.61717767  0.38995620  1.0
  Ni  Ni527  1  0.48646227  0.95051100  0.38995620  1.0
  Ni  Ni528  1  0.81979560  0.28384433  0.38995620  1.0
  Ni  Ni529  1  0.81979560  0.61717767  0.38995620  1.0
  Ni  Ni530  1  0.81979560  0.95051100  0.38995620  1.0
  Ni  Ni531  1  0.27535116  0.28384433  0.35662287  1.0
  Ni  Ni532  1  0.27535116  0.61717767  0.35662287  1.0
  Ni  Ni533  1  0.27535116  0.95051100  0.35662287  1.0
  Ni  Ni534  1  0.60868449  0.28384433  0.35662287  1.0
  Ni  Ni535  1  0.60868449  0.61717767  0.35662287  1.0
  Ni  Ni536  1  0.60868449  0.95051100  0.35662287  1.0
  Ni  Ni537  1  0.94201782  0.28384433  0.35662287  1.0
  Ni  Ni538  1  0.94201782  0.61717767  0.35662287  1.0
  Ni  Ni539  1  0.94201782  0.95051100  0.35662287  1.0
