# generated using pymatgen
data_Ni4Mo
_symmetry_space_group_name_H-M   'P 1'
_cell_length_a   13.25614230
_cell_length_b   13.25614230
_cell_length_c   39.76842690
_cell_angle_alpha   99.31594731
_cell_angle_beta   132.55075247
_cell_angle_gamma   99.31594731
_symmetry_Int_Tables_number   1
_chemical_formula_structural   Ni4Mo
_chemical_formula_sum   'Ni144 Mo36'
_cell_volume   4713.07424628
_cell_formula_units_Z   36
loop_
 _symmetry_equiv_pos_site_id
 _symmetry_equiv_pos_as_xyz
  1  'x, y, z'
loop_
 _atom_site_type_symbol
 _atom_site_label
 _atom_site_symmetry_multiplicity
 _atom_site_fract_x
 _atom_site_fract_y
 _atom_site_fract_z
 _atom_site_occupancy
  Ni  Ni0  1  0.13355417  0.06741733  0.07804269  1.0
  Ni  Ni1  1  0.13355417  0.40075067  0.07804269  1.0
  Ni  Ni2  1  0.13355417  0.73408400  0.07804269  1.0
  Ni  Ni3  1  0.46688750  0.06741733  0.07804269  1.0
  Ni  Ni4  1  0.46688750  0.40075067  0.07804269  1.0
  Ni  Ni5  1  0.46688750  0.73408400  0.07804269  1.0
  Ni  Ni6  1  0.80022083  0.06741733  0.07804269  1.0
  Ni  Ni7  1  0.80022083  0.40075067  0.07804269  1.0
  Ni  Ni8  1  0.80022083  0.73408400  0.07804269  1.0
  Ni  Ni9  1  0.19977917  0.26591600  0.01102281  1.0
  Ni  Ni10  1  0.19977917  0.59924933  0.01102281  1.0
  Ni  Ni11  1  0.19977917  0.93258267  0.01102281  1.0
  Ni  Ni12  1  0.53311250  0.26591600  0.01102281  1.0
  Ni  Ni13  1  0.53311250  0.59924933  0.01102281  1.0
  Ni  Ni14  1  0.53311250  0.93258267  0.01102281  1.0
  Ni  Ni15  1  0.86644583  0.26591600  0.01102281  1.0
  Ni  Ni16  1  0.86644583  0.59924933  0.01102281  1.0
  Ni  Ni17  1  0.86644583  0.93258267  0.01102281  1.0
  Ni  Ni18  1  0.26719650  0.13364233  0.05557025  1.0
  Ni  Ni19  1  0.26719650  0.46697567  0.05557025  1.0
  Ni  Ni20  1  0.26719650  0.80030900  0.05557025  1.0
  Ni  Ni21  1  0.60052983  0.13364233  0.05557025  1.0
  Ni  Ni22  1  0.60052983  0.46697567  0.05557025  1.0
  Ni  Ni23  1  0.60052983  0.80030900  0.05557025  1.0
  Ni  Ni24  1  0.93386317  0.13364233  0.05557025  1.0
  Ni  Ni25  1  0.93386317  0.46697567  0.05557025  1.0
  Ni  Ni26  1  0.93386317  0.80030900  0.05557025  1.0
  Ni  Ni27  1  0.06613683  0.19969100  0.03349525  1.0
  Ni  Ni28  1  0.06613683  0.53302433  0.03349525  1.0
  Ni  Ni29  1  0.06613683  0.86635767  0.03349525  1.0
  Ni  Ni30  1  0.39947017  0.19969100  0.03349525  1.0
  Ni  Ni31  1  0.39947017  0.53302433  0.03349525  1.0
  Ni  Ni32  1  0.39947017  0.86635767  0.03349525  1.0
  Ni  Ni33  1  0.73280350  0.19969100  0.03349525  1.0
  Ni  Ni34  1  0.73280350  0.53302433  0.03349525  1.0
  Ni  Ni35  1  0.73280350  0.86635767  0.03349525  1.0
  Mo  Mo36  1  0.00000000  0.00000000  0.10008831  1.0
  Mo  Mo37  1  0.00000000  0.33333333  0.10008831  1.0
  Mo  Mo38  1  0.00000000  0.66666667  0.10008831  1.0
  Mo  Mo39  1  0.33333333  0.00000000  0.10008831  1.0
  Mo  Mo40  1  0.33333333  0.33333333  0.10008831  1.0
  Mo  Mo41  1  0.33333333  0.66666667  0.10008831  1.0
  Mo  Mo42  1  0.66666667  0.00000000  0.10008831  1.0
  Mo  Mo43  1  0.66666667  0.33333333  0.10008831  1.0
  Mo  Mo44  1  0.66666667  0.66666667  0.10008831  1.0
  Ni  Ni45  1  0.13355417  0.06741733  0.18915381  1.0
  Ni  Ni46  1  0.13355417  0.40075067  0.18915381  1.0
  Ni  Ni47  1  0.13355417  0.73408400  0.18915381  1.0
  Ni  Ni48  1  0.46688750  0.06741733  0.18915381  1.0
  Ni  Ni49  1  0.46688750  0.40075067  0.18915381  1.0
  Ni  Ni50  1  0.46688750  0.73408400  0.18915381  1.0
  Ni  Ni51  1  0.80022083  0.06741733  0.18915381  1.0
  Ni  Ni52  1  0.80022083  0.40075067  0.18915381  1.0
  Ni  Ni53  1  0.80022083  0.73408400  0.18915381  1.0
  Ni  Ni54  1  0.19977917  0.26591600  0.12213392  1.0
  Ni  Ni55  1  0.19977917  0.59924933  0.12213392  1.0
  Ni  Ni56  1  0.19977917  0.93258267  0.12213392  1.0
  Ni  Ni57  1  0.53311250  0.26591600  0.12213392  1.0
  Ni  Ni58  1  0.53311250  0.59924933  0.12213392  1.0
  Ni  Ni59  1  0.53311250  0.93258267  0.12213392  1.0
  Ni  Ni60  1  0.86644583  0.26591600  0.12213392  1.0
  Ni  Ni61  1  0.86644583  0.59924933  0.12213392  1.0
  Ni  Ni62  1  0.86644583  0.93258267  0.12213392  1.0
  Ni  Ni63  1  0.26719650  0.13364233  0.16668136  1.0
  Ni  Ni64  1  0.26719650  0.46697567  0.16668136  1.0
  Ni  Ni65  1  0.26719650  0.80030900  0.16668136  1.0
  Ni  Ni66  1  0.60052983  0.13364233  0.16668136  1.0
  Ni  Ni67  1  0.60052983  0.46697567  0.16668136  1.0
  Ni  Ni68  1  0.60052983  0.80030900  0.16668136  1.0
  Ni  Ni69  1  0.93386317  0.13364233  0.16668136  1.0
  Ni  Ni70  1  0.93386317  0.46697567  0.16668136  1.0
  Ni  Ni71  1  0.93386317  0.80030900  0.16668136  1.0
  Ni  Ni72  1  0.06613683  0.19969100  0.14460636  1.0
  Ni  Ni73  1  0.06613683  0.53302433  0.14460636  1.0
  Ni  Ni74  1  0.06613683  0.86635767  0.14460636  1.0
  Ni  Ni75  1  0.39947017  0.19969100  0.14460636  1.0
  Ni  Ni76  1  0.39947017  0.53302433  0.14460636  1.0
  Ni  Ni77  1  0.39947017  0.86635767  0.14460636  1.0
  Ni  Ni78  1  0.73280350  0.19969100  0.14460636  1.0
  Ni  Ni79  1  0.73280350  0.53302433  0.14460636  1.0
  Ni  Ni80  1  0.73280350  0.86635767  0.14460636  1.0
  Mo  Mo81  1  0.00000000  0.00000000  0.21119942  1.0
  Mo  Mo82  1  0.00000000  0.33333333  0.21119942  1.0
  Mo  Mo83  1  0.00000000  0.66666667  0.21119942  1.0
  Mo  Mo84  1  0.33333333  0.00000000  0.21119942  1.0
  Mo  Mo85  1  0.33333333  0.33333333  0.21119942  1.0
  Mo  Mo86  1  0.33333333  0.66666667  0.21119942  1.0
  Mo  Mo87  1  0.66666667  0.00000000  0.21119942  1.0
  Mo  Mo88  1  0.66666667  0.33333333  0.21119942  1.0
  Mo  Mo89  1  0.66666667  0.66666667  0.21119942  1.0
  Ni  Ni90  1  0.13355417  0.06741733  0.30026492  1.0
  Ni  Ni91  1  0.13355417  0.40075067  0.30026492  1.0
  Ni  Ni92  1  0.13355417  0.73408400  0.30026492  1.0
  Ni  Ni93  1  0.46688750  0.06741733  0.30026492  1.0
  Ni  Ni94  1  0.46688750  0.40075067  0.30026492  1.0
  Ni  Ni95  1  0.46688750  0.73408400  0.30026492  1.0
  Ni  Ni96  1  0.80022083  0.06741733  0.30026492  1.0
  Ni  Ni97  1  0.80022083  0.40075067  0.30026492  1.0
  Ni  Ni98  1  0.80022083  0.73408400  0.30026492  1.0
  Ni  Ni99  1  0.19977917  0.26591600  0.23324503  1.0
  Ni  Ni100  1  0.19977917  0.59924933  0.23324503  1.0
  Ni  Ni101  1  0.19977917  0.93258267  0.23324503  1.0
  Ni  Ni102  1  0.53311250  0.26591600  0.23324503  1.0
  Ni  Ni103  1  0.53311250  0.59924933  0.23324503  1.0
  Ni  Ni104  1  0.53311250  0.93258267  0.23324503  1.0
  Ni  Ni105  1  0.86644583  0.26591600  0.23324503  1.0
  Ni  Ni106  1  0.86644583  0.59924933  0.23324503  1.0
  Ni  Ni107  1  0.86644583  0.93258267  0.23324503  1.0
  Ni  Ni108  1  0.26719650  0.13364233  0.27779247  1.0
  Ni  Ni109  1  0.26719650  0.46697567  0.27779247  1.0
  Ni  Ni110  1  0.26719650  0.80030900  0.27779247  1.0
  Ni  Ni111  1  0.60052983  0.13364233  0.27779247  1.0
  Ni  Ni112  1  0.60052983  0.46697567  0.27779247  1.0
  Ni  Ni113  1  0.60052983  0.80030900  0.27779247  1.0
  Ni  Ni114  1  0.93386317  0.13364233  0.27779247  1.0
  Ni  Ni115  1  0.93386317  0.46697567  0.27779247  1.0
  Ni  Ni116  1  0.93386317  0.80030900  0.27779247  1.0
  Ni  Ni117  1  0.06613683  0.19969100  0.25571747  1.0
  Ni  Ni118  1  0.06613683  0.53302433  0.25571747  1.0
  Ni  Ni119  1  0.06613683  0.86635767  0.25571747  1.0
  Ni  Ni120  1  0.39947017  0.19969100  0.25571747  1.0
  Ni  Ni121  1  0.39947017  0.53302433  0.25571747  1.0
  Ni  Ni122  1  0.39947017  0.86635767  0.25571747  1.0
  Ni  Ni123  1  0.73280350  0.19969100  0.25571747  1.0
  Ni  Ni124  1  0.73280350  0.53302433  0.25571747  1.0
  Ni  Ni125  1  0.73280350  0.86635767  0.25571747  1.0
  Mo  Mo126  1  0.00000000  0.00000000  0.32231053  1.0
  Mo  Mo127  1  0.00000000  0.33333333  0.32231053  1.0
  Mo  Mo128  1  0.00000000  0.66666667  0.32231053  1.0
  Mo  Mo129  1  0.33333333  0.00000000  0.32231053  1.0
  Mo  Mo130  1  0.33333333  0.33333333  0.32231053  1.0
  Mo  Mo131  1  0.33333333  0.66666667  0.32231053  1.0
  Mo  Mo132  1  0.66666667  0.00000000  0.32231053  1.0
  Mo  Mo133  1  0.66666667  0.33333333  0.32231053  1.0
  Mo  Mo134  1  0.66666667  0.66666667  0.32231053  1.0
  Ni  Ni135  1  0.13355417  0.06741733  0.41137603  1.0
  Ni  Ni136  1  0.13355417  0.40075067  0.41137603  1.0
  Ni  Ni137  1  0.13355417  0.73408400  0.41137603  1.0
  Ni  Ni138  1  0.46688750  0.06741733  0.41137603  1.0
  Ni  Ni139  1  0.46688750  0.40075067  0.41137603  1.0
  Ni  Ni140  1  0.46688750  0.73408400  0.41137603  1.0
  Ni  Ni141  1  0.80022083  0.06741733  0.41137603  1.0
  Ni  Ni142  1  0.80022083  0.40075067  0.41137603  1.0
  Ni  Ni143  1  0.80022083  0.73408400  0.41137603  1.0
  Ni  Ni144  1  0.19977917  0.26591600  0.34435614  1.0
  Ni  Ni145  1  0.19977917  0.59924933  0.34435614  1.0
  Ni  Ni146  1  0.19977917  0.93258267  0.34435614  1.0
  Ni  Ni147  1  0.53311250  0.26591600  0.34435614  1.0
  Ni  Ni148  1  0.53311250  0.59924933  0.34435614  1.0
  Ni  Ni149  1  0.53311250  0.93258267  0.34435614  1.0
  Ni  Ni150  1  0.86644583  0.26591600  0.34435614  1.0
  Ni  Ni151  1  0.86644583  0.59924933  0.34435614  1.0
  Ni  Ni152  1  0.86644583  0.93258267  0.34435614  1.0
  Ni  Ni153  1  0.26719650  0.13364233  0.38890358  1.0
  Ni  Ni154  1  0.26719650  0.46697567  0.38890358  1.0
  Ni  Ni155  1  0.26719650  0.80030900  0.38890358  1.0
  Ni  Ni156  1  0.60052983  0.13364233  0.38890358  1.0
  Ni  Ni157  1  0.60052983  0.46697567  0.38890358  1.0
  Ni  Ni158  1  0.60052983  0.80030900  0.38890358  1.0
  Ni  Ni159  1  0.93386317  0.13364233  0.38890358  1.0
  Ni  Ni160  1  0.93386317  0.46697567  0.38890358  1.0
  Ni  Ni161  1  0.93386317  0.80030900  0.38890358  1.0
  Ni  Ni162  1  0.06613683  0.19969100  0.36682858  1.0
  Ni  Ni163  1  0.06613683  0.53302433  0.36682858  1.0
  Ni  Ni164  1  0.06613683  0.86635767  0.36682858  1.0
  Ni  Ni165  1  0.39947017  0.19969100  0.36682858  1.0
  Ni  Ni166  1  0.39947017  0.53302433  0.36682858  1.0
  Ni  Ni167  1  0.39947017  0.86635767  0.36682858  1.0
  Ni  Ni168  1  0.73280350  0.19969100  0.36682858  1.0
  Ni  Ni169  1  0.73280350  0.53302433  0.36682858  1.0
  Ni  Ni170  1  0.73280350  0.86635767  0.36682858  1.0
  Mo  Mo171  1  0.00000000  0.00000000  0.43342164  1.0
  Mo  Mo172  1  0.00000000  0.33333333  0.43342164  1.0
  Mo  Mo173  1  0.00000000  0.66666667  0.43342164  1.0
  Mo  Mo174  1  0.33333333  0.00000000  0.43342164  1.0
  Mo  Mo175  1  0.33333333  0.33333333  0.43342164  1.0
  Mo  Mo176  1  0.33333333  0.66666667  0.43342164  1.0
  Mo  Mo177  1  0.66666667  0.00000000  0.43342164  1.0
  Mo  Mo178  1  0.66666667  0.33333333  0.43342164  1.0
  Mo  Mo179  1  0.66666667  0.66666667  0.43342164  1.0
