# generated using pymatgen
data_Ni4Mo
_symmetry_space_group_name_H-M   'P 1'
_cell_length_a   20.20749644
_cell_length_b   27.65577613
_cell_length_c   26.77625778
_cell_angle_alpha   83.59666357
_cell_angle_beta   86.69468004
_cell_angle_gamma   80.69231994
_symmetry_Int_Tables_number   1
_chemical_formula_structural   Ni4Mo
_chemical_formula_sum   'Ni432 Mo108'
_cell_volume   14662.89765509
_cell_formula_units_Z   108
loop_
 _symmetry_equiv_pos_site_id
 _symmetry_equiv_pos_as_xyz
  1  'x, y, z'
loop_
 _atom_site_type_symbol
 _atom_site_label
 _atom_site_symmetry_multiplicity
 _atom_site_fract_x
 _atom_site_fract_y
 _atom_site_fract_z
 _atom_site_occupancy
  Mo  Mo0  1  0.28816778  0.19783667  0.06774833  1.0
  Mo  Mo1  1  0.28816778  0.53117001  0.06774833  1.0
  Mo  Mo2  1  0.28816778  0.86450334  0.06774833  1.0
  Mo  Mo3  1  0.62150111  0.19783667  0.06774833  1.0
  Mo  Mo4  1  0.62150111  0.53117001  0.06774833  1.0
  Mo  Mo5  1  0.62150111  0.86450334  0.06774833  1.0
  Mo  Mo6  1  0.95483445  0.19783667  0.06774833  1.0
  Mo  Mo7  1  0.95483445  0.53117001  0.06774833  1.0
  Mo  Mo8  1  0.95483445  0.86450334  0.06774833  1.0
  Mo  Mo9  1  0.14531064  0.10259858  0.03203404  1.0
  Mo  Mo10  1  0.14531064  0.43593191  0.03203404  1.0
  Mo  Mo11  1  0.14531064  0.76926524  0.03203404  1.0
  Mo  Mo12  1  0.47864397  0.10259858  0.03203404  1.0
  Mo  Mo13  1  0.47864397  0.43593191  0.03203404  1.0
  Mo  Mo14  1  0.47864397  0.76926524  0.03203404  1.0
  Mo  Mo15  1  0.81197730  0.10259858  0.03203404  1.0
  Mo  Mo16  1  0.81197730  0.43593191  0.03203404  1.0
  Mo  Mo17  1  0.81197730  0.76926524  0.03203404  1.0
  Mo  Mo18  1  0.24054873  0.05497953  0.13917690  1.0
  Mo  Mo19  1  0.24054873  0.38831286  0.13917690  1.0
  Mo  Mo20  1  0.24054873  0.72164620  0.13917690  1.0
  Mo  Mo21  1  0.57388207  0.05497953  0.13917690  1.0
  Mo  Mo22  1  0.57388207  0.38831286  0.13917690  1.0
  Mo  Mo23  1  0.57388207  0.72164620  0.13917690  1.0
  Mo  Mo24  1  0.90721540  0.05497953  0.13917690  1.0
  Mo  Mo25  1  0.90721540  0.38831286  0.13917690  1.0
  Mo  Mo26  1  0.90721540  0.72164620  0.13917690  1.0
  Mo  Mo27  1  0.09769159  0.29307477  0.10346262  1.0
  Mo  Mo28  1  0.09769159  0.62640810  0.10346262  1.0
  Mo  Mo29  1  0.09769159  0.95974143  0.10346262  1.0
  Mo  Mo30  1  0.43102492  0.29307477  0.10346262  1.0
  Mo  Mo31  1  0.43102492  0.62640810  0.10346262  1.0
  Mo  Mo32  1  0.43102492  0.95974143  0.10346262  1.0
  Mo  Mo33  1  0.76435826  0.29307477  0.10346262  1.0
  Mo  Mo34  1  0.76435826  0.62640810  0.10346262  1.0
  Mo  Mo35  1  0.76435826  0.95974143  0.10346262  1.0
  Mo  Mo36  1  0.19292968  0.24545572  0.21060547  1.0
  Mo  Mo37  1  0.19292968  0.57878905  0.21060547  1.0
  Mo  Mo38  1  0.19292968  0.91212239  0.21060547  1.0
  Mo  Mo39  1  0.52626302  0.24545572  0.21060547  1.0
  Mo  Mo40  1  0.52626302  0.57878905  0.21060547  1.0
  Mo  Mo41  1  0.52626302  0.91212239  0.21060547  1.0
  Mo  Mo42  1  0.85959635  0.24545572  0.21060547  1.0
  Mo  Mo43  1  0.85959635  0.57878905  0.21060547  1.0
  Mo  Mo44  1  0.85959635  0.91212239  0.21060547  1.0
  Mo  Mo45  1  0.05007254  0.15021762  0.17489119  1.0
  Mo  Mo46  1  0.05007254  0.48355096  0.17489119  1.0
  Mo  Mo47  1  0.05007254  0.81688429  0.17489119  1.0
  Mo  Mo48  1  0.38340587  0.15021762  0.17489119  1.0
  Mo  Mo49  1  0.38340587  0.48355096  0.17489119  1.0
  Mo  Mo50  1  0.38340588  0.81688429  0.17489119  1.0
  Mo  Mo51  1  0.71673921  0.15021762  0.17489119  1.0
  Mo  Mo52  1  0.71673921  0.48355096  0.17489119  1.0
  Mo  Mo53  1  0.71673921  0.81688429  0.17489119  1.0
  Mo  Mo54  1  0.14531064  0.10259858  0.28203404  1.0
  Mo  Mo55  1  0.14531064  0.43593191  0.28203404  1.0
  Mo  Mo56  1  0.14531064  0.76926524  0.28203404  1.0
  Mo  Mo57  1  0.47864397  0.10259858  0.28203404  1.0
  Mo  Mo58  1  0.47864397  0.43593191  0.28203404  1.0
  Mo  Mo59  1  0.47864397  0.76926524  0.28203404  1.0
  Mo  Mo60  1  0.81197730  0.10259858  0.28203404  1.0
  Mo  Mo61  1  0.81197730  0.43593191  0.28203404  1.0
  Mo  Mo62  1  0.81197730  0.76926524  0.28203404  1.0
  Mo  Mo63  1  0.00245349  0.00736048  0.24631976  1.0
  Mo  Mo64  1  0.00245349  0.34069382  0.24631976  1.0
  Mo  Mo65  1  0.00245349  0.67402715  0.24631976  1.0
  Mo  Mo66  1  0.33578683  0.00736048  0.24631976  1.0
  Mo  Mo67  1  0.33578683  0.34069382  0.24631976  1.0
  Mo  Mo68  1  0.33578683  0.67402715  0.24631976  1.0
  Mo  Mo69  1  0.66912016  0.00736048  0.24631976  1.0
  Mo  Mo70  1  0.66912016  0.34069382  0.24631976  1.0
  Mo  Mo71  1  0.66912016  0.67402715  0.24631976  1.0
  Mo  Mo72  1  0.09769159  0.29307477  0.35346262  1.0
  Mo  Mo73  1  0.09769159  0.62640810  0.35346262  1.0
  Mo  Mo74  1  0.09769159  0.95974143  0.35346262  1.0
  Mo  Mo75  1  0.43102492  0.29307477  0.35346262  1.0
  Mo  Mo76  1  0.43102492  0.62640810  0.35346262  1.0
  Mo  Mo77  1  0.43102492  0.95974143  0.35346262  1.0
  Mo  Mo78  1  0.76435826  0.29307477  0.35346262  1.0
  Mo  Mo79  1  0.76435826  0.62640810  0.35346262  1.0
  Mo  Mo80  1  0.76435826  0.95974143  0.35346262  1.0
  Mo  Mo81  1  0.28816778  0.19783667  0.31774833  1.0
  Mo  Mo82  1  0.28816778  0.53117001  0.31774833  1.0
  Mo  Mo83  1  0.28816778  0.86450334  0.31774833  1.0
  Mo  Mo84  1  0.62150111  0.19783667  0.31774833  1.0
  Mo  Mo85  1  0.62150111  0.53117001  0.31774833  1.0
  Mo  Mo86  1  0.62150111  0.86450334  0.31774833  1.0
  Mo  Mo87  1  0.95483445  0.19783667  0.31774833  1.0
  Mo  Mo88  1  0.95483445  0.53117001  0.31774833  1.0
  Mo  Mo89  1  0.95483445  0.86450334  0.31774833  1.0
  Mo  Mo90  1  0.05007254  0.15021762  0.42489119  1.0
  Mo  Mo91  1  0.05007254  0.48355096  0.42489119  1.0
  Mo  Mo92  1  0.05007254  0.81688429  0.42489119  1.0
  Mo  Mo93  1  0.38340587  0.15021762  0.42489119  1.0
  Mo  Mo94  1  0.38340587  0.48355096  0.42489119  1.0
  Mo  Mo95  1  0.38340587  0.81688429  0.42489119  1.0
  Mo  Mo96  1  0.71673921  0.15021762  0.42489119  1.0
  Mo  Mo97  1  0.71673921  0.48355096  0.42489119  1.0
  Mo  Mo98  1  0.71673921  0.81688429  0.42489119  1.0
  Mo  Mo99  1  0.24054873  0.05497953  0.38917690  1.0
  Mo  Mo100  1  0.24054873  0.38831286  0.38917690  1.0
  Mo  Mo101  1  0.24054873  0.72164620  0.38917690  1.0
  Mo  Mo102  1  0.57388207  0.05497953  0.38917690  1.0
  Mo  Mo103  1  0.57388207  0.38831286  0.38917690  1.0
  Mo  Mo104  1  0.57388207  0.72164620  0.38917690  1.0
  Mo  Mo105  1  0.90721540  0.05497953  0.38917690  1.0
  Mo  Mo106  1  0.90721540  0.38831286  0.38917690  1.0
  Mo  Mo107  1  0.90721540  0.72164620  0.38917690  1.0
  Ni  Ni108  1  0.03061492  0.09312527  0.00368024  1.0
  Ni  Ni109  1  0.03061492  0.42645860  0.00368024  1.0
  Ni  Ni110  1  0.03061492  0.75979193  0.00368024  1.0
  Ni  Ni111  1  0.36394826  0.09312527  0.00368024  1.0
  Ni  Ni112  1  0.36394826  0.42645860  0.00368024  1.0
  Ni  Ni113  1  0.36394826  0.75979193  0.00368024  1.0
  Ni  Ni114  1  0.69728159  0.09312527  0.00368024  1.0
  Ni  Ni115  1  0.69728159  0.42645860  0.00368024  1.0
  Ni  Ni116  1  0.69728159  0.75979193  0.00368024  1.0
  Ni  Ni117  1  0.17347207  0.18836336  0.03939453  1.0
  Ni  Ni118  1  0.17347207  0.52169670  0.03939453  1.0
  Ni  Ni119  1  0.17347207  0.85503003  0.03939453  1.0
  Ni  Ni120  1  0.50680540  0.18836336  0.03939453  1.0
  Ni  Ni121  1  0.50680540  0.52169670  0.03939453  1.0
  Ni  Ni122  1  0.50680540  0.85503003  0.03939453  1.0
  Ni  Ni123  1  0.84013873  0.18836336  0.03939453  1.0
  Ni  Ni124  1  0.84013873  0.52169670  0.03939453  1.0
  Ni  Ni125  1  0.84013873  0.85503003  0.03939453  1.0
  Ni  Ni126  1  0.26000635  0.11207189  0.06038785  1.0
  Ni  Ni127  1  0.26000635  0.44540522  0.06038785  1.0
  Ni  Ni128  1  0.26000635  0.77873855  0.06038785  1.0
  Ni  Ni129  1  0.59333968  0.11207189  0.06038785  1.0
  Ni  Ni130  1  0.59333968  0.44540522  0.06038785  1.0
  Ni  Ni131  1  0.59333968  0.77873855  0.06038785  1.0
  Ni  Ni132  1  0.92667302  0.11207189  0.06038785  1.0
  Ni  Ni133  1  0.92667302  0.44540522  0.06038785  1.0
  Ni  Ni134  1  0.92667302  0.77873855  0.06038785  1.0
  Ni  Ni135  1  0.11714921  0.01683379  0.02467356  1.0
  Ni  Ni136  1  0.11714921  0.35016712  0.02467356  1.0
  Ni  Ni137  1  0.11714921  0.68350046  0.02467356  1.0
  Ni  Ni138  1  0.45048254  0.01683379  0.02467356  1.0
  Ni  Ni139  1  0.45048254  0.35016712  0.02467356  1.0
  Ni  Ni140  1  0.45048254  0.68350046  0.02467356  1.0
  Ni  Ni141  1  0.78381588  0.01683379  0.02467356  1.0
  Ni  Ni142  1  0.78381588  0.35016712  0.02467356  1.0
  Ni  Ni143  1  0.78381588  0.68350046  0.02467356  1.0
  Ni  Ni144  1  0.05967840  0.17912336  0.01064803  1.0
  Ni  Ni145  1  0.05967840  0.51245670  0.01064803  1.0
  Ni  Ni146  1  0.05967840  0.84579003  0.01064803  1.0
  Ni  Ni147  1  0.39301173  0.17912336  0.01064803  1.0
  Ni  Ni148  1  0.39301173  0.51245670  0.01064803  1.0
  Ni  Ni149  1  0.39301173  0.84579003  0.01064803  1.0
  Ni  Ni150  1  0.72634507  0.17912336  0.01064803  1.0
  Ni  Ni151  1  0.72634507  0.51245670  0.01064803  1.0
  Ni  Ni152  1  0.72634507  0.84579003  0.01064803  1.0
  Ni  Ni153  1  0.20253554  0.27436146  0.04636231  1.0
  Ni  Ni154  1  0.20253554  0.60769479  0.04636231  1.0
  Ni  Ni155  1  0.20253554  0.94102812  0.04636231  1.0
  Ni  Ni156  1  0.53586887  0.27436146  0.04636231  1.0
  Ni  Ni157  1  0.53586887  0.60769479  0.04636231  1.0
  Ni  Ni158  1  0.53586888  0.94102812  0.04636231  1.0
  Ni  Ni159  1  0.86920221  0.27436146  0.04636231  1.0
  Ni  Ni160  1  0.86920221  0.60769479  0.04636231  1.0
  Ni  Ni161  1  0.86920221  0.94102812  0.04636231  1.0
  Ni  Ni162  1  0.23094288  0.02607379  0.05342006  1.0
  Ni  Ni163  1  0.23094288  0.35940712  0.05342006  1.0
  Ni  Ni164  1  0.23094287  0.69274046  0.05342006  1.0
  Ni  Ni165  1  0.56427621  0.02607379  0.05342006  1.0
  Ni  Ni166  1  0.56427621  0.35940712  0.05342006  1.0
  Ni  Ni167  1  0.56427621  0.69274046  0.05342006  1.0
  Ni  Ni168  1  0.89760954  0.02607379  0.05342006  1.0
  Ni  Ni169  1  0.89760954  0.35940712  0.05342006  1.0
  Ni  Ni170  1  0.89760954  0.69274046  0.05342006  1.0
  Ni  Ni171  1  0.08808573  0.26416903  0.01770578  1.0
  Ni  Ni172  1  0.08808573  0.59750236  0.01770578  1.0
  Ni  Ni173  1  0.08808573  0.93083570  0.01770578  1.0
  Ni  Ni174  1  0.42141907  0.26416903  0.01770578  1.0
  Ni  Ni175  1  0.42141907  0.59750236  0.01770578  1.0
  Ni  Ni176  1  0.42141907  0.93083570  0.01770578  1.0
  Ni  Ni177  1  0.75475240  0.26416903  0.01770578  1.0
  Ni  Ni178  1  0.75475240  0.59750236  0.01770578  1.0
  Ni  Ni179  1  0.75475240  0.93083570  0.01770578  1.0
  Ni  Ni180  1  0.31632921  0.28360146  0.07510881  1.0
  Ni  Ni181  1  0.31632921  0.61693479  0.07510881  1.0
  Ni  Ni182  1  0.31632921  0.95026813  0.07510881  1.0
  Ni  Ni183  1  0.64966254  0.28360146  0.07510881  1.0
  Ni  Ni184  1  0.64966254  0.61693479  0.07510881  1.0
  Ni  Ni185  1  0.64966254  0.95026813  0.07510881  1.0
  Ni  Ni186  1  0.98299588  0.28360146  0.07510881  1.0
  Ni  Ni187  1  0.98299588  0.61693479  0.07510881  1.0
  Ni  Ni188  1  0.98299588  0.95026813  0.07510881  1.0
  Ni  Ni189  1  0.12585302  0.04550622  0.11082310  1.0
  Ni  Ni190  1  0.12585302  0.37883955  0.11082310  1.0
  Ni  Ni191  1  0.12585302  0.71217289  0.11082310  1.0
  Ni  Ni192  1  0.45918635  0.04550622  0.11082310  1.0
  Ni  Ni193  1  0.45918635  0.37883955  0.11082310  1.0
  Ni  Ni194  1  0.45918635  0.71217289  0.11082310  1.0
  Ni  Ni195  1  0.79251968  0.04550622  0.11082310  1.0
  Ni  Ni196  1  0.79251968  0.37883955  0.11082310  1.0
  Ni  Ni197  1  0.79251968  0.71217289  0.11082310  1.0
  Ni  Ni198  1  0.21238730  0.30254808  0.13181642  1.0
  Ni  Ni199  1  0.21238730  0.63588141  0.13181642  1.0
  Ni  Ni200  1  0.21238730  0.96921474  0.13181642  1.0
  Ni  Ni201  1  0.54572064  0.30254808  0.13181642  1.0
  Ni  Ni202  1  0.54572064  0.63588141  0.13181642  1.0
  Ni  Ni203  1  0.54572064  0.96921474  0.13181642  1.0
  Ni  Ni204  1  0.87905397  0.30254808  0.13181642  1.0
  Ni  Ni205  1  0.87905397  0.63588141  0.13181642  1.0
  Ni  Ni206  1  0.87905397  0.96921474  0.13181642  1.0
  Ni  Ni207  1  0.06953016  0.20730998  0.09610213  1.0
  Ni  Ni208  1  0.06953016  0.54064332  0.09610213  1.0
  Ni  Ni209  1  0.06953016  0.87397665  0.09610213  1.0
  Ni  Ni210  1  0.40286349  0.20730998  0.09610213  1.0
  Ni  Ni211  1  0.40286349  0.54064332  0.09610213  1.0
  Ni  Ni212  1  0.40286349  0.87397665  0.09610213  1.0
  Ni  Ni213  1  0.73619683  0.20730998  0.09610213  1.0
  Ni  Ni214  1  0.73619683  0.54064332  0.09610213  1.0
  Ni  Ni215  1  0.73619683  0.87397665  0.09610213  1.0
  Ni  Ni216  1  0.01205935  0.03626622  0.08207660  1.0
  Ni  Ni217  1  0.01205935  0.36959955  0.08207660  1.0
  Ni  Ni218  1  0.01205935  0.70293289  0.08207660  1.0
  Ni  Ni219  1  0.34539268  0.03626622  0.08207660  1.0
  Ni  Ni220  1  0.34539268  0.36959955  0.08207660  1.0
  Ni  Ni221  1  0.34539268  0.70293289  0.08207660  1.0
  Ni  Ni222  1  0.67872602  0.03626622  0.08207660  1.0
  Ni  Ni223  1  0.67872602  0.36959955  0.08207660  1.0
  Ni  Ni224  1  0.67872602  0.70293289  0.08207660  1.0
  Ni  Ni225  1  0.15491649  0.13150432  0.11779088  1.0
  Ni  Ni226  1  0.15491649  0.46483765  0.11779088  1.0
  Ni  Ni227  1  0.15491649  0.79817098  0.11779088  1.0
  Ni  Ni228  1  0.48824983  0.13150432  0.11779088  1.0
  Ni  Ni229  1  0.48824983  0.46483765  0.11779088  1.0
  Ni  Ni230  1  0.48824983  0.79817098  0.11779088  1.0
  Ni  Ni231  1  0.82158316  0.13150432  0.11779088  1.0
  Ni  Ni232  1  0.82158316  0.46483765  0.11779088  1.0
  Ni  Ni233  1  0.82158316  0.79817098  0.11779088  1.0
  Ni  Ni234  1  0.18332383  0.21654998  0.12484863  1.0
  Ni  Ni235  1  0.18332383  0.54988332  0.12484863  1.0
  Ni  Ni236  1  0.18332383  0.88321665  0.12484863  1.0
  Ni  Ni237  1  0.51665716  0.21654998  0.12484863  1.0
  Ni  Ni238  1  0.51665716  0.54988332  0.12484863  1.0
  Ni  Ni239  1  0.51665716  0.88321665  0.12484863  1.0
  Ni  Ni240  1  0.84999049  0.21654998  0.12484863  1.0
  Ni  Ni241  1  0.84999049  0.54988332  0.12484863  1.0
  Ni  Ni242  1  0.84999049  0.88321665  0.12484863  1.0
  Ni  Ni243  1  0.04046668  0.12131189  0.08913435  1.0
  Ni  Ni244  1  0.04046668  0.45464522  0.08913435  1.0
  Ni  Ni245  1  0.04046668  0.78797855  0.08913435  1.0
  Ni  Ni246  1  0.37380002  0.12131189  0.08913435  1.0
  Ni  Ni247  1  0.37380002  0.45464522  0.08913435  1.0
  Ni  Ni248  1  0.37380002  0.78797855  0.08913435  1.0
  Ni  Ni249  1  0.70713335  0.12131189  0.08913435  1.0
  Ni  Ni250  1  0.70713335  0.45464522  0.08913435  1.0
  Ni  Ni251  1  0.70713335  0.78797855  0.08913435  1.0
  Ni  Ni252  1  0.26871016  0.14074432  0.14653738  1.0
  Ni  Ni253  1  0.26871016  0.47407765  0.14653738  1.0
  Ni  Ni254  1  0.26871016  0.80741098  0.14653738  1.0
  Ni  Ni255  1  0.60204349  0.14074432  0.14653738  1.0
  Ni  Ni256  1  0.60204349  0.47407765  0.14653738  1.0
  Ni  Ni257  1  0.60204349  0.80741098  0.14653738  1.0
  Ni  Ni258  1  0.93537683  0.14074432  0.14653738  1.0
  Ni  Ni259  1  0.93537683  0.47407765  0.14653738  1.0
  Ni  Ni260  1  0.93537683  0.80741098  0.14653738  1.0
  Ni  Ni261  1  0.07823397  0.23598241  0.18225167  1.0
  Ni  Ni262  1  0.07823397  0.56931574  0.18225167  1.0
  Ni  Ni263  1  0.07823397  0.90264908  0.18225167  1.0
  Ni  Ni264  1  0.41156730  0.23598241  0.18225167  1.0
  Ni  Ni265  1  0.41156730  0.56931574  0.18225167  1.0
  Ni  Ni266  1  0.41156730  0.90264908  0.18225167  1.0
  Ni  Ni267  1  0.74490064  0.23598241  0.18225167  1.0
  Ni  Ni268  1  0.74490064  0.56931574  0.18225167  1.0
  Ni  Ni269  1  0.74490064  0.90264908  0.18225167  1.0
  Ni  Ni270  1  0.16476826  0.15969093  0.20324499  1.0
  Ni  Ni271  1  0.16476826  0.49302427  0.20324499  1.0
  Ni  Ni272  1  0.16476826  0.82635760  0.20324499  1.0
  Ni  Ni273  1  0.49810159  0.15969093  0.20324499  1.0
  Ni  Ni274  1  0.49810159  0.49302427  0.20324499  1.0
  Ni  Ni275  1  0.49810159  0.82635760  0.20324499  1.0
  Ni  Ni276  1  0.83143492  0.15969093  0.20324499  1.0
  Ni  Ni277  1  0.83143492  0.49302427  0.20324499  1.0
  Ni  Ni278  1  0.83143492  0.82635760  0.20324499  1.0
  Ni  Ni279  1  0.02191111  0.06445284  0.16753071  1.0
  Ni  Ni280  1  0.02191111  0.39778617  0.16753071  1.0
  Ni  Ni281  1  0.02191111  0.73111951  0.16753071  1.0
  Ni  Ni282  1  0.35524445  0.06445284  0.16753071  1.0
  Ni  Ni283  1  0.35524445  0.39778617  0.16753071  1.0
  Ni  Ni284  1  0.35524445  0.73111951  0.16753071  1.0
  Ni  Ni285  1  0.68857778  0.06445284  0.16753071  1.0
  Ni  Ni286  1  0.68857778  0.39778617  0.16753071  1.0
  Ni  Ni287  1  0.68857778  0.73111951  0.16753071  1.0
  Ni  Ni288  1  0.29777364  0.22674241  0.15350517  1.0
  Ni  Ni289  1  0.29777364  0.56007574  0.15350517  1.0
  Ni  Ni290  1  0.29777364  0.89340908  0.15350517  1.0
  Ni  Ni291  1  0.63110697  0.22674241  0.15350517  1.0
  Ni  Ni292  1  0.63110697  0.56007574  0.15350517  1.0
  Ni  Ni293  1  0.63110697  0.89340908  0.15350517  1.0
  Ni  Ni294  1  0.96444030  0.22674241  0.15350517  1.0
  Ni  Ni295  1  0.96444030  0.56007574  0.15350517  1.0
  Ni  Ni296  1  0.96444030  0.89340908  0.15350517  1.0
  Ni  Ni297  1  0.10729745  0.32198051  0.18921946  1.0
  Ni  Ni298  1  0.10729745  0.65531384  0.18921946  1.0
  Ni  Ni299  1  0.10729745  0.98864717  0.18921946  1.0
  Ni  Ni300  1  0.44063078  0.32198051  0.18921946  1.0
  Ni  Ni301  1  0.44063078  0.65531384  0.18921946  1.0
  Ni  Ni302  1  0.44063078  0.98864717  0.18921946  1.0
  Ni  Ni303  1  0.77396411  0.32198051  0.18921946  1.0
  Ni  Ni304  1  0.77396411  0.65531384  0.18921946  1.0
  Ni  Ni305  1  0.77396411  0.98864717  0.18921946  1.0
  Ni  Ni306  1  0.13570478  0.07369284  0.19627721  1.0
  Ni  Ni307  1  0.13570478  0.40702617  0.19627721  1.0
  Ni  Ni308  1  0.13570478  0.74035951  0.19627721  1.0
  Ni  Ni309  1  0.46903811  0.07369284  0.19627721  1.0
  Ni  Ni310  1  0.46903811  0.40702617  0.19627721  1.0
  Ni  Ni311  1  0.46903811  0.74035951  0.19627721  1.0
  Ni  Ni312  1  0.80237145  0.07369284  0.19627721  1.0
  Ni  Ni313  1  0.80237145  0.40702617  0.19627721  1.0
  Ni  Ni314  1  0.80237145  0.74035951  0.19627721  1.0
  Ni  Ni315  1  0.32618097  0.31178808  0.16056292  1.0
  Ni  Ni316  1  0.32618097  0.64512141  0.16056292  1.0
  Ni  Ni317  1  0.32618097  0.97845474  0.16056292  1.0
  Ni  Ni318  1  0.65951430  0.31178808  0.16056292  1.0
  Ni  Ni319  1  0.65951430  0.64512141  0.16056292  1.0
  Ni  Ni320  1  0.65951430  0.97845474  0.16056292  1.0
  Ni  Ni321  1  0.99284764  0.31178808  0.16056292  1.0
  Ni  Ni322  1  0.99284764  0.64512141  0.16056292  1.0
  Ni  Ni323  1  0.99284764  0.97845474  0.16056292  1.0
  Ni  Ni324  1  0.22109111  0.33122051  0.21796596  1.0
  Ni  Ni325  1  0.22109111  0.66455384  0.21796596  1.0
  Ni  Ni326  1  0.22109111  0.99788717  0.21796596  1.0
  Ni  Ni327  1  0.55442445  0.33122051  0.21796596  1.0
  Ni  Ni328  1  0.55442445  0.66455384  0.21796596  1.0
  Ni  Ni329  1  0.55442445  0.99788717  0.21796596  1.0
  Ni  Ni330  1  0.88775778  0.33122051  0.21796596  1.0
  Ni  Ni331  1  0.88775778  0.66455384  0.21796596  1.0
  Ni  Ni332  1  0.88775778  0.99788717  0.21796596  1.0
  Ni  Ni333  1  0.03061492  0.09312527  0.25368024  1.0
  Ni  Ni334  1  0.03061492  0.42645860  0.25368024  1.0
  Ni  Ni335  1  0.03061492  0.75979193  0.25368024  1.0
  Ni  Ni336  1  0.36394826  0.09312527  0.25368024  1.0
  Ni  Ni337  1  0.36394826  0.42645860  0.25368024  1.0
  Ni  Ni338  1  0.36394826  0.75979193  0.25368024  1.0
  Ni  Ni339  1  0.69728159  0.09312527  0.25368024  1.0
  Ni  Ni340  1  0.69728159  0.42645860  0.25368024  1.0
  Ni  Ni341  1  0.69728159  0.75979193  0.25368024  1.0
  Ni  Ni342  1  0.11714921  0.01683379  0.27467356  1.0
  Ni  Ni343  1  0.11714921  0.35016712  0.27467356  1.0
  Ni  Ni344  1  0.11714921  0.68350046  0.27467356  1.0
  Ni  Ni345  1  0.45048254  0.01683379  0.27467356  1.0
  Ni  Ni346  1  0.45048254  0.35016712  0.27467356  1.0
  Ni  Ni347  1  0.45048254  0.68350046  0.27467356  1.0
  Ni  Ni348  1  0.78381588  0.01683379  0.27467356  1.0
  Ni  Ni349  1  0.78381588  0.35016712  0.27467356  1.0
  Ni  Ni350  1  0.78381587  0.68350046  0.27467356  1.0
  Ni  Ni351  1  0.30762540  0.25492903  0.23895928  1.0
  Ni  Ni352  1  0.30762540  0.58826236  0.23895928  1.0
  Ni  Ni353  1  0.30762540  0.92159570  0.23895928  1.0
  Ni  Ni354  1  0.64095873  0.25492903  0.23895928  1.0
  Ni  Ni355  1  0.64095873  0.58826236  0.23895928  1.0
  Ni  Ni356  1  0.64095873  0.92159570  0.23895928  1.0
  Ni  Ni357  1  0.97429207  0.25492903  0.23895928  1.0
  Ni  Ni358  1  0.97429207  0.58826236  0.23895928  1.0
  Ni  Ni359  1  0.97429207  0.92159570  0.23895928  1.0
  Ni  Ni360  1  0.25015459  0.08388527  0.22493374  1.0
  Ni  Ni361  1  0.25015459  0.41721860  0.22493374  1.0
  Ni  Ni362  1  0.25015459  0.75055193  0.22493374  1.0
  Ni  Ni363  1  0.58348792  0.08388527  0.22493374  1.0
  Ni  Ni364  1  0.58348792  0.41721860  0.22493374  1.0
  Ni  Ni365  1  0.58348792  0.75055193  0.22493374  1.0
  Ni  Ni366  1  0.91682126  0.08388527  0.22493374  1.0
  Ni  Ni367  1  0.91682126  0.41721860  0.22493374  1.0
  Ni  Ni368  1  0.91682126  0.75055193  0.22493374  1.0
  Ni  Ni369  1  0.05967840  0.17912336  0.26064803  1.0
  Ni  Ni370  1  0.05967840  0.51245670  0.26064803  1.0
  Ni  Ni371  1  0.05967840  0.84579003  0.26064803  1.0
  Ni  Ni372  1  0.39301173  0.17912336  0.26064803  1.0
  Ni  Ni373  1  0.39301173  0.51245670  0.26064803  1.0
  Ni  Ni374  1  0.39301173  0.84579003  0.26064803  1.0
  Ni  Ni375  1  0.72634507  0.17912336  0.26064803  1.0
  Ni  Ni376  1  0.72634507  0.51245670  0.26064803  1.0
  Ni  Ni377  1  0.72634507  0.84579003  0.26064803  1.0
  Ni  Ni378  1  0.08808573  0.26416903  0.26770578  1.0
  Ni  Ni379  1  0.08808573  0.59750236  0.26770578  1.0
  Ni  Ni380  1  0.08808573  0.93083570  0.26770578  1.0
  Ni  Ni381  1  0.42141907  0.26416903  0.26770578  1.0
  Ni  Ni382  1  0.42141907  0.59750236  0.26770578  1.0
  Ni  Ni383  1  0.42141907  0.93083570  0.26770578  1.0
  Ni  Ni384  1  0.75475240  0.26416903  0.26770578  1.0
  Ni  Ni385  1  0.75475240  0.59750236  0.26770578  1.0
  Ni  Ni386  1  0.75475240  0.93083570  0.26770578  1.0
  Ni  Ni387  1  0.27856192  0.16893093  0.23199149  1.0
  Ni  Ni388  1  0.27856192  0.50226427  0.23199149  1.0
  Ni  Ni389  1  0.27856192  0.83559760  0.23199149  1.0
  Ni  Ni390  1  0.61189526  0.16893093  0.23199149  1.0
  Ni  Ni391  1  0.61189526  0.50226427  0.23199149  1.0
  Ni  Ni392  1  0.61189526  0.83559760  0.23199149  1.0
  Ni  Ni393  1  0.94522859  0.16893093  0.23199149  1.0
  Ni  Ni394  1  0.94522859  0.50226427  0.23199149  1.0
  Ni  Ni395  1  0.94522859  0.83559760  0.23199149  1.0
  Ni  Ni396  1  0.17347207  0.18836336  0.28939453  1.0
  Ni  Ni397  1  0.17347207  0.52169670  0.28939453  1.0
  Ni  Ni398  1  0.17347207  0.85503003  0.28939453  1.0
  Ni  Ni399  1  0.50680540  0.18836336  0.28939453  1.0
  Ni  Ni400  1  0.50680540  0.52169670  0.28939453  1.0
  Ni  Ni401  1  0.50680540  0.85503003  0.28939453  1.0
  Ni  Ni402  1  0.84013873  0.18836336  0.28939453  1.0
  Ni  Ni403  1  0.84013873  0.52169670  0.28939453  1.0
  Ni  Ni404  1  0.84013873  0.85503003  0.28939453  1.0
  Ni  Ni405  1  0.31632921  0.28360146  0.32510881  1.0
  Ni  Ni406  1  0.31632921  0.61693479  0.32510881  1.0
  Ni  Ni407  1  0.31632921  0.95026812  0.32510881  1.0
  Ni  Ni408  1  0.64966254  0.28360146  0.32510881  1.0
  Ni  Ni409  1  0.64966254  0.61693479  0.32510881  1.0
  Ni  Ni410  1  0.64966254  0.95026812  0.32510881  1.0
  Ni  Ni411  1  0.98299588  0.28360146  0.32510881  1.0
  Ni  Ni412  1  0.98299588  0.61693479  0.32510881  1.0
  Ni  Ni413  1  0.98299588  0.95026812  0.32510881  1.0
  Ni  Ni414  1  0.06953016  0.20730998  0.34610213  1.0
  Ni  Ni415  1  0.06953016  0.54064332  0.34610213  1.0
  Ni  Ni416  1  0.06953016  0.87397665  0.34610213  1.0
  Ni  Ni417  1  0.40286349  0.20730998  0.34610213  1.0
  Ni  Ni418  1  0.40286349  0.54064332  0.34610213  1.0
  Ni  Ni419  1  0.40286349  0.87397665  0.34610213  1.0
  Ni  Ni420  1  0.73619683  0.20730998  0.34610213  1.0
  Ni  Ni421  1  0.73619683  0.54064332  0.34610213  1.0
  Ni  Ni422  1  0.73619683  0.87397665  0.34610213  1.0
  Ni  Ni423  1  0.26000635  0.11207189  0.31038785  1.0
  Ni  Ni424  1  0.26000635  0.44540522  0.31038785  1.0
  Ni  Ni425  1  0.26000635  0.77873855  0.31038785  1.0
  Ni  Ni426  1  0.59333968  0.11207189  0.31038785  1.0
  Ni  Ni427  1  0.59333968  0.44540522  0.31038785  1.0
  Ni  Ni428  1  0.59333968  0.77873855  0.31038785  1.0
  Ni  Ni429  1  0.92667302  0.11207189  0.31038785  1.0
  Ni  Ni430  1  0.92667302  0.44540522  0.31038785  1.0
  Ni  Ni431  1  0.92667302  0.77873855  0.31038785  1.0
  Ni  Ni432  1  0.20253554  0.27436146  0.29636231  1.0
  Ni  Ni433  1  0.20253554  0.60769479  0.29636231  1.0
  Ni  Ni434  1  0.20253554  0.94102813  0.29636231  1.0
  Ni  Ni435  1  0.53586888  0.27436146  0.29636231  1.0
  Ni  Ni436  1  0.53586888  0.60769479  0.29636231  1.0
  Ni  Ni437  1  0.53586888  0.94102813  0.29636231  1.0
  Ni  Ni438  1  0.86920221  0.27436146  0.29636231  1.0
  Ni  Ni439  1  0.86920221  0.60769479  0.29636231  1.0
  Ni  Ni440  1  0.86920221  0.94102813  0.29636231  1.0
  Ni  Ni441  1  0.01205935  0.03626622  0.33207660  1.0
  Ni  Ni442  1  0.01205935  0.36959955  0.33207660  1.0
  Ni  Ni443  1  0.01205935  0.70293289  0.33207660  1.0
  Ni  Ni444  1  0.34539268  0.03626622  0.33207660  1.0
  Ni  Ni445  1  0.34539268  0.36959955  0.33207660  1.0
  Ni  Ni446  1  0.34539268  0.70293289  0.33207660  1.0
  Ni  Ni447  1  0.67872602  0.03626622  0.33207660  1.0
  Ni  Ni448  1  0.67872602  0.36959955  0.33207660  1.0
  Ni  Ni449  1  0.67872602  0.70293289  0.33207660  1.0
  Ni  Ni450  1  0.04046668  0.12131189  0.33913435  1.0
  Ni  Ni451  1  0.04046668  0.45464522  0.33913435  1.0
  Ni  Ni452  1  0.04046668  0.78797855  0.33913435  1.0
  Ni  Ni453  1  0.37380002  0.12131189  0.33913435  1.0
  Ni  Ni454  1  0.37380002  0.45464522  0.33913435  1.0
  Ni  Ni455  1  0.37380002  0.78797855  0.33913435  1.0
  Ni  Ni456  1  0.70713335  0.12131189  0.33913435  1.0
  Ni  Ni457  1  0.70713335  0.45464522  0.33913435  1.0
  Ni  Ni458  1  0.70713335  0.78797855  0.33913435  1.0
  Ni  Ni459  1  0.23094287  0.02607379  0.30342006  1.0
  Ni  Ni460  1  0.23094287  0.35940712  0.30342006  1.0
  Ni  Ni461  1  0.23094287  0.69274046  0.30342006  1.0
  Ni  Ni462  1  0.56427621  0.02607379  0.30342006  1.0
  Ni  Ni463  1  0.56427621  0.35940712  0.30342006  1.0
  Ni  Ni464  1  0.56427621  0.69274046  0.30342006  1.0
  Ni  Ni465  1  0.89760954  0.02607379  0.30342006  1.0
  Ni  Ni466  1  0.89760954  0.35940712  0.30342006  1.0
  Ni  Ni467  1  0.89760954  0.69274046  0.30342006  1.0
  Ni  Ni468  1  0.12585302  0.04550622  0.36082310  1.0
  Ni  Ni469  1  0.12585302  0.37883955  0.36082310  1.0
  Ni  Ni470  1  0.12585302  0.71217289  0.36082310  1.0
  Ni  Ni471  1  0.45918635  0.04550622  0.36082310  1.0
  Ni  Ni472  1  0.45918635  0.37883955  0.36082310  1.0
  Ni  Ni473  1  0.45918635  0.71217289  0.36082310  1.0
  Ni  Ni474  1  0.79251968  0.04550622  0.36082310  1.0
  Ni  Ni475  1  0.79251968  0.37883955  0.36082310  1.0
  Ni  Ni476  1  0.79251968  0.71217289  0.36082310  1.0
  Ni  Ni477  1  0.26871016  0.14074432  0.39653738  1.0
  Ni  Ni478  1  0.26871016  0.47407765  0.39653738  1.0
  Ni  Ni479  1  0.26871016  0.80741098  0.39653738  1.0
  Ni  Ni480  1  0.60204349  0.14074432  0.39653738  1.0
  Ni  Ni481  1  0.60204349  0.47407765  0.39653738  1.0
  Ni  Ni482  1  0.60204349  0.80741098  0.39653738  1.0
  Ni  Ni483  1  0.93537683  0.14074432  0.39653738  1.0
  Ni  Ni484  1  0.93537683  0.47407765  0.39653738  1.0
  Ni  Ni485  1  0.93537683  0.80741098  0.39653738  1.0
  Ni  Ni486  1  0.02191111  0.06445284  0.41753071  1.0
  Ni  Ni487  1  0.02191111  0.39778617  0.41753071  1.0
  Ni  Ni488  1  0.02191111  0.73111951  0.41753071  1.0
  Ni  Ni489  1  0.35524445  0.06445284  0.41753071  1.0
  Ni  Ni490  1  0.35524445  0.39778617  0.41753071  1.0
  Ni  Ni491  1  0.35524445  0.73111951  0.41753071  1.0
  Ni  Ni492  1  0.68857778  0.06445284  0.41753071  1.0
  Ni  Ni493  1  0.68857778  0.39778617  0.41753071  1.0
  Ni  Ni494  1  0.68857778  0.73111951  0.41753071  1.0
  Ni  Ni495  1  0.21238730  0.30254808  0.38181642  1.0
  Ni  Ni496  1  0.21238730  0.63588141  0.38181642  1.0
  Ni  Ni497  1  0.21238730  0.96921474  0.38181642  1.0
  Ni  Ni498  1  0.54572064  0.30254808  0.38181642  1.0
  Ni  Ni499  1  0.54572064  0.63588141  0.38181642  1.0
  Ni  Ni500  1  0.54572064  0.96921474  0.38181642  1.0
  Ni  Ni501  1  0.87905397  0.30254808  0.38181642  1.0
  Ni  Ni502  1  0.87905397  0.63588141  0.38181642  1.0
  Ni  Ni503  1  0.87905397  0.96921474  0.38181642  1.0
  Ni  Ni504  1  0.15491649  0.13150432  0.36779088  1.0
  Ni  Ni505  1  0.15491649  0.46483765  0.36779088  1.0
  Ni  Ni506  1  0.15491649  0.79817098  0.36779088  1.0
  Ni  Ni507  1  0.48824983  0.13150432  0.36779088  1.0
  Ni  Ni508  1  0.48824983  0.46483765  0.36779088  1.0
  Ni  Ni509  1  0.48824983  0.79817098  0.36779088  1.0
  Ni  Ni510  1  0.82158316  0.13150432  0.36779088  1.0
  Ni  Ni511  1  0.82158316  0.46483765  0.36779088  1.0
  Ni  Ni512  1  0.82158316  0.79817098  0.36779088  1.0
  Ni  Ni513  1  0.29777364  0.22674241  0.40350517  1.0
  Ni  Ni514  1  0.29777364  0.56007574  0.40350517  1.0
  Ni  Ni515  1  0.29777364  0.89340908  0.40350517  1.0
  Ni  Ni516  1  0.63110697  0.22674241  0.40350517  1.0
  Ni  Ni517  1  0.63110697  0.56007574  0.40350517  1.0
  Ni  Ni518  1  0.63110697  0.89340908  0.40350517  1.0
  Ni  Ni519  1  0.96444030  0.22674241  0.40350517  1.0
  Ni  Ni520  1  0.96444030  0.56007574  0.40350517  1.0
  Ni  Ni521  1  0.96444030  0.89340908  0.40350517  1.0
  Ni  Ni522  1  0.32618097  0.31178808  0.41056292  1.0
  Ni  Ni523  1  0.32618097  0.64512141  0.41056292  1.0
  Ni  Ni524  1  0.32618097  0.97845474  0.41056292  1.0
  Ni  Ni525  1  0.65951430  0.31178808  0.41056292  1.0
  Ni  Ni526  1  0.65951430  0.64512141  0.41056292  1.0
  Ni  Ni527  1  0.65951430  0.97845474  0.41056292  1.0
  Ni  Ni528  1  0.99284764  0.31178808  0.41056292  1.0
  Ni  Ni529  1  0.99284764  0.64512141  0.41056292  1.0
  Ni  Ni530  1  0.99284764  0.97845474  0.41056292  1.0
  Ni  Ni531  1  0.18332383  0.21654998  0.37484863  1.0
  Ni  Ni532  1  0.18332383  0.54988332  0.37484863  1.0
  Ni  Ni533  1  0.18332383  0.88321665  0.37484863  1.0
  Ni  Ni534  1  0.51665716  0.21654998  0.37484863  1.0
  Ni  Ni535  1  0.51665716  0.54988332  0.37484863  1.0
  Ni  Ni536  1  0.51665716  0.88321665  0.37484863  1.0
  Ni  Ni537  1  0.84999049  0.21654998  0.37484863  1.0
  Ni  Ni538  1  0.84999049  0.54988332  0.37484863  1.0
  Ni  Ni539  1  0.84999049  0.88321665  0.37484863  1.0
