# generated using pymatgen
data_Ni4Mo
_symmetry_space_group_name_H-M   'P 1'
_cell_length_a   20.08219333
_cell_length_b   20.20749644
_cell_length_c   44.18714100
_cell_angle_alpha   139.65797365
_cell_angle_beta   108.69711088
_cell_angle_gamma   86.69468004
_symmetry_Int_Tables_number   1
_chemical_formula_structural   Ni4Mo
_chemical_formula_sum   'Ni288 Mo72'
_cell_volume   10473.49832507
_cell_formula_units_Z   72
loop_
 _symmetry_equiv_pos_site_id
 _symmetry_equiv_pos_as_xyz
  1  'x, y, z'
loop_
 _atom_site_type_symbol
 _atom_site_label
 _atom_site_symmetry_multiplicity
 _atom_site_fract_x
 _atom_site_fract_y
 _atom_site_fract_z
 _atom_site_occupancy
  Ni  Ni0  1  0.09988958  0.29958058  0.06467549  1.0
  Ni  Ni1  1  0.09988958  0.63291392  0.06467549  1.0
  Ni  Ni2  1  0.09988958  0.96624725  0.06467549  1.0
  Ni  Ni3  1  0.43322292  0.29958058  0.06467549  1.0
  Ni  Ni4  1  0.43322292  0.63291392  0.06467549  1.0
  Ni  Ni5  1  0.43322292  0.96624725  0.06467549  1.0
  Ni  Ni6  1  0.76655625  0.29958058  0.06467549  1.0
  Ni  Ni7  1  0.76655625  0.63291392  0.06467549  1.0
  Ni  Ni8  1  0.76655625  0.96624725  0.06467549  1.0
  Ni  Ni9  1  0.26655625  0.13291392  0.01467549  1.0
  Ni  Ni10  1  0.26655625  0.46624725  0.01467549  1.0
  Ni  Ni11  1  0.26655625  0.79958058  0.01467549  1.0
  Ni  Ni12  1  0.59988958  0.13291392  0.01467549  1.0
  Ni  Ni13  1  0.59988958  0.46624725  0.01467549  1.0
  Ni  Ni14  1  0.59988958  0.79958058  0.01467549  1.0
  Ni  Ni15  1  0.93322292  0.13291392  0.01467549  1.0
  Ni  Ni16  1  0.93322292  0.46624725  0.01467549  1.0
  Ni  Ni17  1  0.93322292  0.79958058  0.01467549  1.0
  Ni  Ni18  1  0.06677708  0.20041942  0.07537754  1.0
  Ni  Ni19  1  0.06677708  0.53375275  0.07537754  1.0
  Ni  Ni20  1  0.06677708  0.86708608  0.07537754  1.0
  Ni  Ni21  1  0.40011042  0.20041942  0.07537754  1.0
  Ni  Ni22  1  0.40011042  0.53375275  0.07537754  1.0
  Ni  Ni23  1  0.40011042  0.86708608  0.07537754  1.0
  Ni  Ni24  1  0.73344375  0.20041942  0.07537754  1.0
  Ni  Ni25  1  0.73344375  0.53375275  0.07537754  1.0
  Ni  Ni26  1  0.73344375  0.86708608  0.07537754  1.0
  Ni  Ni27  1  0.23344375  0.03375275  0.02537754  1.0
  Ni  Ni28  1  0.23344375  0.36708608  0.02537754  1.0
  Ni  Ni29  1  0.23344375  0.70041942  0.02537754  1.0
  Ni  Ni30  1  0.56677708  0.03375275  0.02537754  1.0
  Ni  Ni31  1  0.56677708  0.36708608  0.02537754  1.0
  Ni  Ni32  1  0.56677708  0.70041942  0.02537754  1.0
  Ni  Ni33  1  0.90011042  0.03375275  0.02537754  1.0
  Ni  Ni34  1  0.90011042  0.36708608  0.02537754  1.0
  Ni  Ni35  1  0.90011042  0.70041942  0.02537754  1.0
  Ni  Ni36  1  0.03306842  0.10048575  0.08507954  1.0
  Ni  Ni37  1  0.03306842  0.43381908  0.08507954  1.0
  Ni  Ni38  1  0.03306842  0.76715242  0.08507954  1.0
  Ni  Ni39  1  0.36640175  0.10048575  0.08507954  1.0
  Ni  Ni40  1  0.36640175  0.43381908  0.08507954  1.0
  Ni  Ni41  1  0.36640175  0.76715242  0.08507954  1.0
  Ni  Ni42  1  0.69973508  0.10048575  0.08507954  1.0
  Ni  Ni43  1  0.69973508  0.43381908  0.08507954  1.0
  Ni  Ni44  1  0.69973508  0.76715242  0.08507954  1.0
  Ni  Ni45  1  0.19973508  0.26715242  0.03507954  1.0
  Ni  Ni46  1  0.19973508  0.60048575  0.03507954  1.0
  Ni  Ni47  1  0.19973508  0.93381908  0.03507954  1.0
  Ni  Ni48  1  0.53306842  0.26715242  0.03507954  1.0
  Ni  Ni49  1  0.53306842  0.60048575  0.03507954  1.0
  Ni  Ni50  1  0.53306842  0.93381908  0.03507954  1.0
  Ni  Ni51  1  0.86640175  0.26715242  0.03507954  1.0
  Ni  Ni52  1  0.86640175  0.60048575  0.03507954  1.0
  Ni  Ni53  1  0.86640175  0.93381908  0.03507954  1.0
  Ni  Ni54  1  0.13359825  0.06618092  0.05497349  1.0
  Ni  Ni55  1  0.13359825  0.39951425  0.05497349  1.0
  Ni  Ni56  1  0.13359825  0.73284758  0.05497349  1.0
  Ni  Ni57  1  0.46693158  0.06618092  0.05497349  1.0
  Ni  Ni58  1  0.46693158  0.39951425  0.05497349  1.0
  Ni  Ni59  1  0.46693158  0.73284758  0.05497349  1.0
  Ni  Ni60  1  0.80026492  0.06618092  0.05497349  1.0
  Ni  Ni61  1  0.80026492  0.39951425  0.05497349  1.0
  Ni  Ni62  1  0.80026492  0.73284758  0.05497349  1.0
  Ni  Ni63  1  0.30026492  0.23284758  0.00497349  1.0
  Ni  Ni64  1  0.30026492  0.56618092  0.00497349  1.0
  Ni  Ni65  1  0.30026492  0.89951425  0.00497349  1.0
  Ni  Ni66  1  0.63359825  0.23284758  0.00497349  1.0
  Ni  Ni67  1  0.63359825  0.56618092  0.00497349  1.0
  Ni  Ni68  1  0.63359825  0.89951425  0.00497349  1.0
  Ni  Ni69  1  0.96693158  0.23284758  0.00497349  1.0
  Ni  Ni70  1  0.96693158  0.56618092  0.00497349  1.0
  Ni  Ni71  1  0.96693158  0.89951425  0.00497349  1.0
  Mo  Mo72  1  0.16666667  0.16666667  0.04502651  1.0
  Mo  Mo73  1  0.16666667  0.50000000  0.04502651  1.0
  Mo  Mo74  1  0.16666667  0.83333333  0.04502651  1.0
  Mo  Mo75  1  0.50000000  0.16666667  0.04502651  1.0
  Mo  Mo76  1  0.50000000  0.50000000  0.04502651  1.0
  Mo  Mo77  1  0.50000000  0.83333333  0.04502651  1.0
  Mo  Mo78  1  0.83333333  0.16666667  0.04502651  1.0
  Mo  Mo79  1  0.83333333  0.50000000  0.04502651  1.0
  Mo  Mo80  1  0.83333333  0.83333333  0.04502651  1.0
  Mo  Mo81  1  0.00000000  0.00000000  0.09502651  1.0
  Mo  Mo82  1  0.00000000  0.33333333  0.09502651  1.0
  Mo  Mo83  1  0.00000000  0.66666667  0.09502651  1.0
  Mo  Mo84  1  0.33333333  0.00000000  0.09502651  1.0
  Mo  Mo85  1  0.33333333  0.33333333  0.09502651  1.0
  Mo  Mo86  1  0.33333333  0.66666667  0.09502651  1.0
  Mo  Mo87  1  0.66666667  0.00000000  0.09502651  1.0
  Mo  Mo88  1  0.66666667  0.33333333  0.09502651  1.0
  Mo  Mo89  1  0.66666667  0.66666667  0.09502651  1.0
  Ni  Ni90  1  0.09988958  0.29958058  0.16467549  1.0
  Ni  Ni91  1  0.09988958  0.63291392  0.16467549  1.0
  Ni  Ni92  1  0.09988958  0.96624725  0.16467549  1.0
  Ni  Ni93  1  0.43322292  0.29958058  0.16467549  1.0
  Ni  Ni94  1  0.43322292  0.63291392  0.16467549  1.0
  Ni  Ni95  1  0.43322292  0.96624725  0.16467549  1.0
  Ni  Ni96  1  0.76655625  0.29958058  0.16467549  1.0
  Ni  Ni97  1  0.76655625  0.63291392  0.16467549  1.0
  Ni  Ni98  1  0.76655625  0.96624725  0.16467549  1.0
  Ni  Ni99  1  0.26655625  0.13291392  0.11467549  1.0
  Ni  Ni100  1  0.26655625  0.46624725  0.11467549  1.0
  Ni  Ni101  1  0.26655625  0.79958058  0.11467549  1.0
  Ni  Ni102  1  0.59988958  0.13291392  0.11467549  1.0
  Ni  Ni103  1  0.59988958  0.46624725  0.11467549  1.0
  Ni  Ni104  1  0.59988958  0.79958058  0.11467549  1.0
  Ni  Ni105  1  0.93322292  0.13291392  0.11467549  1.0
  Ni  Ni106  1  0.93322292  0.46624725  0.11467549  1.0
  Ni  Ni107  1  0.93322292  0.79958058  0.11467549  1.0
  Ni  Ni108  1  0.06677708  0.20041942  0.17537754  1.0
  Ni  Ni109  1  0.06677708  0.53375275  0.17537754  1.0
  Ni  Ni110  1  0.06677708  0.86708608  0.17537754  1.0
  Ni  Ni111  1  0.40011042  0.20041942  0.17537754  1.0
  Ni  Ni112  1  0.40011042  0.53375275  0.17537754  1.0
  Ni  Ni113  1  0.40011042  0.86708608  0.17537754  1.0
  Ni  Ni114  1  0.73344375  0.20041942  0.17537754  1.0
  Ni  Ni115  1  0.73344375  0.53375275  0.17537754  1.0
  Ni  Ni116  1  0.73344375  0.86708608  0.17537754  1.0
  Ni  Ni117  1  0.23344375  0.03375275  0.12537754  1.0
  Ni  Ni118  1  0.23344375  0.36708608  0.12537754  1.0
  Ni  Ni119  1  0.23344375  0.70041942  0.12537754  1.0
  Ni  Ni120  1  0.56677708  0.03375275  0.12537754  1.0
  Ni  Ni121  1  0.56677708  0.36708608  0.12537754  1.0
  Ni  Ni122  1  0.56677708  0.70041942  0.12537754  1.0
  Ni  Ni123  1  0.90011042  0.03375275  0.12537754  1.0
  Ni  Ni124  1  0.90011042  0.36708608  0.12537754  1.0
  Ni  Ni125  1  0.90011042  0.70041942  0.12537754  1.0
  Ni  Ni126  1  0.03306842  0.10048575  0.18507954  1.0
  Ni  Ni127  1  0.03306842  0.43381908  0.18507954  1.0
  Ni  Ni128  1  0.03306842  0.76715242  0.18507954  1.0
  Ni  Ni129  1  0.36640175  0.10048575  0.18507954  1.0
  Ni  Ni130  1  0.36640175  0.43381908  0.18507954  1.0
  Ni  Ni131  1  0.36640175  0.76715242  0.18507954  1.0
  Ni  Ni132  1  0.69973508  0.10048575  0.18507954  1.0
  Ni  Ni133  1  0.69973508  0.43381908  0.18507954  1.0
  Ni  Ni134  1  0.69973508  0.76715242  0.18507954  1.0
  Ni  Ni135  1  0.19973508  0.26715242  0.13507954  1.0
  Ni  Ni136  1  0.19973508  0.60048575  0.13507954  1.0
  Ni  Ni137  1  0.19973508  0.93381908  0.13507954  1.0
  Ni  Ni138  1  0.53306842  0.26715242  0.13507954  1.0
  Ni  Ni139  1  0.53306842  0.60048575  0.13507954  1.0
  Ni  Ni140  1  0.53306842  0.93381908  0.13507954  1.0
  Ni  Ni141  1  0.86640175  0.26715242  0.13507954  1.0
  Ni  Ni142  1  0.86640175  0.60048575  0.13507954  1.0
  Ni  Ni143  1  0.86640175  0.93381908  0.13507954  1.0
  Ni  Ni144  1  0.13359825  0.06618092  0.15497349  1.0
  Ni  Ni145  1  0.13359825  0.39951425  0.15497349  1.0
  Ni  Ni146  1  0.13359825  0.73284758  0.15497349  1.0
  Ni  Ni147  1  0.46693158  0.06618092  0.15497349  1.0
  Ni  Ni148  1  0.46693158  0.39951425  0.15497349  1.0
  Ni  Ni149  1  0.46693158  0.73284758  0.15497349  1.0
  Ni  Ni150  1  0.80026492  0.06618092  0.15497349  1.0
  Ni  Ni151  1  0.80026492  0.39951425  0.15497349  1.0
  Ni  Ni152  1  0.80026492  0.73284758  0.15497349  1.0
  Ni  Ni153  1  0.30026492  0.23284758  0.10497349  1.0
  Ni  Ni154  1  0.30026492  0.56618092  0.10497349  1.0
  Ni  Ni155  1  0.30026492  0.89951425  0.10497349  1.0
  Ni  Ni156  1  0.63359825  0.23284758  0.10497349  1.0
  Ni  Ni157  1  0.63359825  0.56618092  0.10497349  1.0
  Ni  Ni158  1  0.63359825  0.89951425  0.10497349  1.0
  Ni  Ni159  1  0.96693158  0.23284758  0.10497349  1.0
  Ni  Ni160  1  0.96693158  0.56618092  0.10497349  1.0
  Ni  Ni161  1  0.96693158  0.89951425  0.10497349  1.0
  Mo  Mo162  1  0.16666667  0.16666667  0.14502651  1.0
  Mo  Mo163  1  0.16666667  0.50000000  0.14502651  1.0
  Mo  Mo164  1  0.16666667  0.83333333  0.14502651  1.0
  Mo  Mo165  1  0.50000000  0.16666667  0.14502651  1.0
  Mo  Mo166  1  0.50000000  0.50000000  0.14502651  1.0
  Mo  Mo167  1  0.50000000  0.83333333  0.14502651  1.0
  Mo  Mo168  1  0.83333333  0.16666667  0.14502651  1.0
  Mo  Mo169  1  0.83333333  0.50000000  0.14502651  1.0
  Mo  Mo170  1  0.83333333  0.83333333  0.14502651  1.0
  Mo  Mo171  1  0.00000000  0.00000000  0.19502651  1.0
  Mo  Mo172  1  0.00000000  0.33333333  0.19502651  1.0
  Mo  Mo173  1  0.00000000  0.66666667  0.19502651  1.0
  Mo  Mo174  1  0.33333333  0.00000000  0.19502651  1.0
  Mo  Mo175  1  0.33333333  0.33333333  0.19502651  1.0
  Mo  Mo176  1  0.33333333  0.66666667  0.19502651  1.0
  Mo  Mo177  1  0.66666667  0.00000000  0.19502651  1.0
  Mo  Mo178  1  0.66666667  0.33333333  0.19502651  1.0
  Mo  Mo179  1  0.66666667  0.66666667  0.19502651  1.0
  Ni  Ni180  1  0.09988958  0.29958058  0.26467549  1.0
  Ni  Ni181  1  0.09988958  0.63291392  0.26467549  1.0
  Ni  Ni182  1  0.09988958  0.96624725  0.26467549  1.0
  Ni  Ni183  1  0.43322292  0.29958058  0.26467549  1.0
  Ni  Ni184  1  0.43322292  0.63291392  0.26467549  1.0
  Ni  Ni185  1  0.43322292  0.96624725  0.26467549  1.0
  Ni  Ni186  1  0.76655625  0.29958058  0.26467549  1.0
  Ni  Ni187  1  0.76655625  0.63291392  0.26467549  1.0
  Ni  Ni188  1  0.76655625  0.96624725  0.26467549  1.0
  Ni  Ni189  1  0.26655625  0.13291392  0.21467549  1.0
  Ni  Ni190  1  0.26655625  0.46624725  0.21467549  1.0
  Ni  Ni191  1  0.26655625  0.79958058  0.21467549  1.0
  Ni  Ni192  1  0.59988958  0.13291392  0.21467549  1.0
  Ni  Ni193  1  0.59988958  0.46624725  0.21467549  1.0
  Ni  Ni194  1  0.59988958  0.79958058  0.21467549  1.0
  Ni  Ni195  1  0.93322292  0.13291392  0.21467549  1.0
  Ni  Ni196  1  0.93322292  0.46624725  0.21467549  1.0
  Ni  Ni197  1  0.93322292  0.79958058  0.21467549  1.0
  Ni  Ni198  1  0.06677708  0.20041942  0.27537754  1.0
  Ni  Ni199  1  0.06677708  0.53375275  0.27537754  1.0
  Ni  Ni200  1  0.06677708  0.86708608  0.27537754  1.0
  Ni  Ni201  1  0.40011042  0.20041942  0.27537754  1.0
  Ni  Ni202  1  0.40011042  0.53375275  0.27537754  1.0
  Ni  Ni203  1  0.40011042  0.86708608  0.27537754  1.0
  Ni  Ni204  1  0.73344375  0.20041942  0.27537754  1.0
  Ni  Ni205  1  0.73344375  0.53375275  0.27537754  1.0
  Ni  Ni206  1  0.73344375  0.86708608  0.27537754  1.0
  Ni  Ni207  1  0.23344375  0.03375275  0.22537754  1.0
  Ni  Ni208  1  0.23344375  0.36708608  0.22537754  1.0
  Ni  Ni209  1  0.23344375  0.70041942  0.22537754  1.0
  Ni  Ni210  1  0.56677708  0.03375275  0.22537754  1.0
  Ni  Ni211  1  0.56677708  0.36708608  0.22537754  1.0
  Ni  Ni212  1  0.56677708  0.70041942  0.22537754  1.0
  Ni  Ni213  1  0.90011042  0.03375275  0.22537754  1.0
  Ni  Ni214  1  0.90011042  0.36708608  0.22537754  1.0
  Ni  Ni215  1  0.90011042  0.70041942  0.22537754  1.0
  Ni  Ni216  1  0.03306842  0.10048575  0.28507954  1.0
  Ni  Ni217  1  0.03306842  0.43381908  0.28507954  1.0
  Ni  Ni218  1  0.03306842  0.76715242  0.28507954  1.0
  Ni  Ni219  1  0.36640175  0.10048575  0.28507954  1.0
  Ni  Ni220  1  0.36640175  0.43381908  0.28507954  1.0
  Ni  Ni221  1  0.36640175  0.76715242  0.28507954  1.0
  Ni  Ni222  1  0.69973508  0.10048575  0.28507954  1.0
  Ni  Ni223  1  0.69973508  0.43381908  0.28507954  1.0
  Ni  Ni224  1  0.69973508  0.76715242  0.28507954  1.0
  Ni  Ni225  1  0.19973508  0.26715242  0.23507954  1.0
  Ni  Ni226  1  0.19973508  0.60048575  0.23507954  1.0
  Ni  Ni227  1  0.19973508  0.93381908  0.23507954  1.0
  Ni  Ni228  1  0.53306842  0.26715242  0.23507954  1.0
  Ni  Ni229  1  0.53306842  0.60048575  0.23507954  1.0
  Ni  Ni230  1  0.53306842  0.93381908  0.23507954  1.0
  Ni  Ni231  1  0.86640175  0.26715242  0.23507954  1.0
  Ni  Ni232  1  0.86640175  0.60048575  0.23507954  1.0
  Ni  Ni233  1  0.86640175  0.93381908  0.23507954  1.0
  Ni  Ni234  1  0.13359825  0.06618092  0.25497349  1.0
  Ni  Ni235  1  0.13359825  0.39951425  0.25497349  1.0
  Ni  Ni236  1  0.13359825  0.73284758  0.25497349  1.0
  Ni  Ni237  1  0.46693158  0.06618092  0.25497349  1.0
  Ni  Ni238  1  0.46693158  0.39951425  0.25497349  1.0
  Ni  Ni239  1  0.46693158  0.73284758  0.25497349  1.0
  Ni  Ni240  1  0.80026492  0.06618092  0.25497349  1.0
  Ni  Ni241  1  0.80026492  0.39951425  0.25497349  1.0
  Ni  Ni242  1  0.80026492  0.73284758  0.25497349  1.0
  Ni  Ni243  1  0.30026492  0.23284758  0.20497349  1.0
  Ni  Ni244  1  0.30026492  0.56618092  0.20497349  1.0
  Ni  Ni245  1  0.30026492  0.89951425  0.20497349  1.0
  Ni  Ni246  1  0.63359825  0.23284758  0.20497349  1.0
  Ni  Ni247  1  0.63359825  0.56618092  0.20497349  1.0
  Ni  Ni248  1  0.63359825  0.89951425  0.20497349  1.0
  Ni  Ni249  1  0.96693158  0.23284758  0.20497349  1.0
  Ni  Ni250  1  0.96693158  0.56618092  0.20497349  1.0
  Ni  Ni251  1  0.96693158  0.89951425  0.20497349  1.0
  Mo  Mo252  1  0.16666667  0.16666667  0.24502651  1.0
  Mo  Mo253  1  0.16666667  0.50000000  0.24502651  1.0
  Mo  Mo254  1  0.16666667  0.83333333  0.24502651  1.0
  Mo  Mo255  1  0.50000000  0.16666667  0.24502651  1.0
  Mo  Mo256  1  0.50000000  0.50000000  0.24502651  1.0
  Mo  Mo257  1  0.50000000  0.83333333  0.24502651  1.0
  Mo  Mo258  1  0.83333333  0.16666667  0.24502651  1.0
  Mo  Mo259  1  0.83333333  0.50000000  0.24502651  1.0
  Mo  Mo260  1  0.83333333  0.83333333  0.24502651  1.0
  Mo  Mo261  1  0.00000000  0.00000000  0.29502651  1.0
  Mo  Mo262  1  0.00000000  0.33333333  0.29502651  1.0
  Mo  Mo263  1  0.00000000  0.66666667  0.29502651  1.0
  Mo  Mo264  1  0.33333333  0.00000000  0.29502651  1.0
  Mo  Mo265  1  0.33333333  0.33333333  0.29502651  1.0
  Mo  Mo266  1  0.33333333  0.66666667  0.29502651  1.0
  Mo  Mo267  1  0.66666667  0.00000000  0.29502651  1.0
  Mo  Mo268  1  0.66666667  0.33333333  0.29502651  1.0
  Mo  Mo269  1  0.66666667  0.66666667  0.29502651  1.0
  Ni  Ni270  1  0.09988958  0.29958058  0.36467549  1.0
  Ni  Ni271  1  0.09988958  0.63291392  0.36467549  1.0
  Ni  Ni272  1  0.09988958  0.96624725  0.36467549  1.0
  Ni  Ni273  1  0.43322292  0.29958058  0.36467549  1.0
  Ni  Ni274  1  0.43322292  0.63291392  0.36467549  1.0
  Ni  Ni275  1  0.43322292  0.96624725  0.36467549  1.0
  Ni  Ni276  1  0.76655625  0.29958058  0.36467549  1.0
  Ni  Ni277  1  0.76655625  0.63291392  0.36467549  1.0
  Ni  Ni278  1  0.76655625  0.96624725  0.36467549  1.0
  Ni  Ni279  1  0.26655625  0.13291392  0.31467549  1.0
  Ni  Ni280  1  0.26655625  0.46624725  0.31467549  1.0
  Ni  Ni281  1  0.26655625  0.79958058  0.31467549  1.0
  Ni  Ni282  1  0.59988958  0.13291392  0.31467549  1.0
  Ni  Ni283  1  0.59988958  0.46624725  0.31467549  1.0
  Ni  Ni284  1  0.59988958  0.79958058  0.31467549  1.0
  Ni  Ni285  1  0.93322292  0.13291392  0.31467549  1.0
  Ni  Ni286  1  0.93322292  0.46624725  0.31467549  1.0
  Ni  Ni287  1  0.93322292  0.79958058  0.31467549  1.0
  Ni  Ni288  1  0.06677708  0.20041942  0.37537754  1.0
  Ni  Ni289  1  0.06677708  0.53375275  0.37537754  1.0
  Ni  Ni290  1  0.06677708  0.86708608  0.37537754  1.0
  Ni  Ni291  1  0.40011042  0.20041942  0.37537754  1.0
  Ni  Ni292  1  0.40011042  0.53375275  0.37537754  1.0
  Ni  Ni293  1  0.40011042  0.86708608  0.37537754  1.0
  Ni  Ni294  1  0.73344375  0.20041942  0.37537754  1.0
  Ni  Ni295  1  0.73344375  0.53375275  0.37537754  1.0
  Ni  Ni296  1  0.73344375  0.86708608  0.37537754  1.0
  Ni  Ni297  1  0.23344375  0.03375275  0.32537754  1.0
  Ni  Ni298  1  0.23344375  0.36708608  0.32537754  1.0
  Ni  Ni299  1  0.23344375  0.70041942  0.32537754  1.0
  Ni  Ni300  1  0.56677708  0.03375275  0.32537754  1.0
  Ni  Ni301  1  0.56677708  0.36708608  0.32537754  1.0
  Ni  Ni302  1  0.56677708  0.70041942  0.32537754  1.0
  Ni  Ni303  1  0.90011042  0.03375275  0.32537754  1.0
  Ni  Ni304  1  0.90011042  0.36708608  0.32537754  1.0
  Ni  Ni305  1  0.90011042  0.70041942  0.32537754  1.0
  Ni  Ni306  1  0.03306842  0.10048575  0.38507954  1.0
  Ni  Ni307  1  0.03306842  0.43381908  0.38507954  1.0
  Ni  Ni308  1  0.03306842  0.76715242  0.38507954  1.0
  Ni  Ni309  1  0.36640175  0.10048575  0.38507954  1.0
  Ni  Ni310  1  0.36640175  0.43381908  0.38507954  1.0
  Ni  Ni311  1  0.36640175  0.76715242  0.38507954  1.0
  Ni  Ni312  1  0.69973508  0.10048575  0.38507954  1.0
  Ni  Ni313  1  0.69973508  0.43381908  0.38507954  1.0
  Ni  Ni314  1  0.69973508  0.76715242  0.38507954  1.0
  Ni  Ni315  1  0.19973508  0.26715242  0.33507954  1.0
  Ni  Ni316  1  0.19973508  0.60048575  0.33507954  1.0
  Ni  Ni317  1  0.19973508  0.93381908  0.33507954  1.0
  Ni  Ni318  1  0.53306842  0.26715242  0.33507954  1.0
  Ni  Ni319  1  0.53306842  0.60048575  0.33507954  1.0
  Ni  Ni320  1  0.53306842  0.93381908  0.33507954  1.0
  Ni  Ni321  1  0.86640175  0.26715242  0.33507954  1.0
  Ni  Ni322  1  0.86640175  0.60048575  0.33507954  1.0
  Ni  Ni323  1  0.86640175  0.93381908  0.33507954  1.0
  Ni  Ni324  1  0.13359825  0.06618092  0.35497349  1.0
  Ni  Ni325  1  0.13359825  0.39951425  0.35497349  1.0
  Ni  Ni326  1  0.13359825  0.73284758  0.35497349  1.0
  Ni  Ni327  1  0.46693158  0.06618092  0.35497349  1.0
  Ni  Ni328  1  0.46693158  0.39951425  0.35497349  1.0
  Ni  Ni329  1  0.46693158  0.73284758  0.35497349  1.0
  Ni  Ni330  1  0.80026492  0.06618092  0.35497349  1.0
  Ni  Ni331  1  0.80026492  0.39951425  0.35497349  1.0
  Ni  Ni332  1  0.80026492  0.73284758  0.35497349  1.0
  Ni  Ni333  1  0.30026492  0.23284758  0.30497349  1.0
  Ni  Ni334  1  0.30026492  0.56618092  0.30497349  1.0
  Ni  Ni335  1  0.30026492  0.89951425  0.30497349  1.0
  Ni  Ni336  1  0.63359825  0.23284758  0.30497349  1.0
  Ni  Ni337  1  0.63359825  0.56618092  0.30497349  1.0
  Ni  Ni338  1  0.63359825  0.89951425  0.30497349  1.0
  Ni  Ni339  1  0.96693158  0.23284758  0.30497349  1.0
  Ni  Ni340  1  0.96693158  0.56618092  0.30497349  1.0
  Ni  Ni341  1  0.96693158  0.89951425  0.30497349  1.0
  Mo  Mo342  1  0.16666667  0.16666667  0.34502651  1.0
  Mo  Mo343  1  0.16666667  0.50000000  0.34502651  1.0
  Mo  Mo344  1  0.16666667  0.83333333  0.34502651  1.0
  Mo  Mo345  1  0.50000000  0.16666667  0.34502651  1.0
  Mo  Mo346  1  0.50000000  0.50000000  0.34502651  1.0
  Mo  Mo347  1  0.50000000  0.83333333  0.34502651  1.0
  Mo  Mo348  1  0.83333333  0.16666667  0.34502651  1.0
  Mo  Mo349  1  0.83333333  0.50000000  0.34502651  1.0
  Mo  Mo350  1  0.83333333  0.83333333  0.34502651  1.0
  Mo  Mo351  1  0.00000000  0.00000000  0.39502651  1.0
  Mo  Mo352  1  0.00000000  0.33333333  0.39502651  1.0
  Mo  Mo353  1  0.00000000  0.66666667  0.39502651  1.0
  Mo  Mo354  1  0.33333333  0.00000000  0.39502651  1.0
  Mo  Mo355  1  0.33333333  0.33333333  0.39502651  1.0
  Mo  Mo356  1  0.33333333  0.66666667  0.39502651  1.0
  Mo  Mo357  1  0.66666667  0.00000000  0.39502651  1.0
  Mo  Mo358  1  0.66666667  0.33333333  0.39502651  1.0
  Mo  Mo359  1  0.66666667  0.66666667  0.39502651  1.0
