# generated using pymatgen
data_Ni4Mo
_symmetry_space_group_name_H-M   'P 1'
_cell_length_a   17.16270149
_cell_length_b   20.08219333
_cell_length_c   26.94332859
_cell_angle_alpha   93.30531997
_cell_angle_beta   89.99999999
_cell_angle_gamma   115.29705733
_symmetry_Int_Tables_number   1
_chemical_formula_structural   Ni4Mo
_chemical_formula_sum   'Ni216 Mo54'
_cell_volume   8378.79866005
_cell_formula_units_Z   54
loop_
 _symmetry_equiv_pos_site_id
 _symmetry_equiv_pos_as_xyz
  1  'x, y, z'
loop_
 _atom_site_type_symbol
 _atom_site_label
 _atom_site_symmetry_multiplicity
 _atom_site_fract_x
 _atom_site_fract_y
 _atom_site_fract_z
 _atom_site_occupancy
  Mo  Mo0  1  0.07491719  0.16666667  0.94381211  1.0
  Mo  Mo1  1  0.07491719  0.50000000  0.94381211  1.0
  Mo  Mo2  1  0.07491719  0.83333333  0.94381211  1.0
  Mo  Mo3  1  0.40825052  0.16666667  0.94381211  1.0
  Mo  Mo4  1  0.40825052  0.50000000  0.94381211  1.0
  Mo  Mo5  1  0.40825052  0.83333333  0.94381211  1.0
  Mo  Mo6  1  0.74158385  0.16666667  0.94381211  1.0
  Mo  Mo7  1  0.74158385  0.50000000  0.94381211  1.0
  Mo  Mo8  1  0.74158385  0.83333333  0.94381211  1.0
  Mo  Mo9  1  0.15825052  0.00000000  0.88131211  1.0
  Mo  Mo10  1  0.15825052  0.33333333  0.88131211  1.0
  Mo  Mo11  1  0.15825052  0.66666667  0.88131211  1.0
  Mo  Mo12  1  0.49158385  0.00000000  0.88131211  1.0
  Mo  Mo13  1  0.49158385  0.33333333  0.88131211  1.0
  Mo  Mo14  1  0.49158385  0.66666667  0.88131211  1.0
  Mo  Mo15  1  0.82491719  0.00000000  0.88131211  1.0
  Mo  Mo16  1  0.82491719  0.33333333  0.88131211  1.0
  Mo  Mo17  1  0.82491719  0.66666667  0.88131211  1.0
  Mo  Mo18  1  0.24158385  0.16666667  0.81881211  1.0
  Mo  Mo19  1  0.24158385  0.50000000  0.81881211  1.0
  Mo  Mo20  1  0.24158385  0.83333333  0.81881211  1.0
  Mo  Mo21  1  0.57491719  0.16666667  0.81881211  1.0
  Mo  Mo22  1  0.57491719  0.50000000  0.81881211  1.0
  Mo  Mo23  1  0.57491719  0.83333333  0.81881211  1.0
  Mo  Mo24  1  0.90825052  0.16666667  0.81881211  1.0
  Mo  Mo25  1  0.90825052  0.50000000  0.81881211  1.0
  Mo  Mo26  1  0.90825052  0.83333333  0.81881211  1.0
  Mo  Mo27  1  0.32491719  0.00000000  0.75631211  1.0
  Mo  Mo28  1  0.32491719  0.33333333  0.75631211  1.0
  Mo  Mo29  1  0.32491719  0.66666667  0.75631211  1.0
  Mo  Mo30  1  0.65825052  0.00000000  0.75631211  1.0
  Mo  Mo31  1  0.65825052  0.33333333  0.75631211  1.0
  Mo  Mo32  1  0.65825052  0.66666667  0.75631211  1.0
  Mo  Mo33  1  0.99158385  0.00000000  0.75631211  1.0
  Mo  Mo34  1  0.99158385  0.33333333  0.75631211  1.0
  Mo  Mo35  1  0.99158385  0.66666667  0.75631211  1.0
  Mo  Mo36  1  0.07491719  0.16666667  0.69381211  1.0
  Mo  Mo37  1  0.07491719  0.50000000  0.69381211  1.0
  Mo  Mo38  1  0.07491719  0.83333333  0.69381211  1.0
  Mo  Mo39  1  0.40825052  0.16666667  0.69381211  1.0
  Mo  Mo40  1  0.40825052  0.50000000  0.69381211  1.0
  Mo  Mo41  1  0.40825052  0.83333333  0.69381211  1.0
  Mo  Mo42  1  0.74158385  0.16666667  0.69381211  1.0
  Mo  Mo43  1  0.74158385  0.50000000  0.69381211  1.0
  Mo  Mo44  1  0.74158385  0.83333333  0.69381211  1.0
  Mo  Mo45  1  0.15825052  0.00000000  0.63131211  1.0
  Mo  Mo46  1  0.15825052  0.33333333  0.63131211  1.0
  Mo  Mo47  1  0.15825052  0.66666667  0.63131211  1.0
  Mo  Mo48  1  0.49158385  0.00000000  0.63131211  1.0
  Mo  Mo49  1  0.49158385  0.33333333  0.63131211  1.0
  Mo  Mo50  1  0.49158385  0.66666667  0.63131211  1.0
  Mo  Mo51  1  0.82491719  0.00000000  0.63131211  1.0
  Mo  Mo52  1  0.82491719  0.33333333  0.63131211  1.0
  Mo  Mo53  1  0.82491719  0.66666667  0.63131211  1.0
  Ni  Ni54  1  0.19193715  0.13359825  0.90661014  1.0
  Ni  Ni55  1  0.19193715  0.46693158  0.90661014  1.0
  Ni  Ni56  1  0.19193715  0.80026492  0.90661014  1.0
  Ni  Ni57  1  0.52527048  0.13359825  0.90661014  1.0
  Ni  Ni58  1  0.52527048  0.46693158  0.90661014  1.0
  Ni  Ni59  1  0.52527048  0.80026492  0.90661014  1.0
  Ni  Ni60  1  0.85860381  0.13359825  0.90661014  1.0
  Ni  Ni61  1  0.85860381  0.46693158  0.90661014  1.0
  Ni  Ni62  1  0.85860381  0.80026492  0.90661014  1.0
  Ni  Ni63  1  0.10860381  0.30026492  0.96911014  1.0
  Ni  Ni64  1  0.10860381  0.63359825  0.96911014  1.0
  Ni  Ni65  1  0.10860381  0.96693158  0.96911014  1.0
  Ni  Ni66  1  0.44193715  0.30026492  0.96911014  1.0
  Ni  Ni67  1  0.44193715  0.63359825  0.96911014  1.0
  Ni  Ni68  1  0.44193715  0.96693158  0.96911014  1.0
  Ni  Ni69  1  0.77527048  0.30026492  0.96911014  1.0
  Ni  Ni70  1  0.77527048  0.63359825  0.96911014  1.0
  Ni  Ni71  1  0.77527048  0.96693158  0.96911014  1.0
  Ni  Ni72  1  0.29123056  0.19973508  0.98101408  1.0
  Ni  Ni73  1  0.29123056  0.53306842  0.98101408  1.0
  Ni  Ni74  1  0.29123056  0.86640175  0.98101408  1.0
  Ni  Ni75  1  0.62456390  0.19973508  0.98101408  1.0
  Ni  Ni76  1  0.62456390  0.53306842  0.98101408  1.0
  Ni  Ni77  1  0.62456390  0.86640175  0.98101408  1.0
  Ni  Ni78  1  0.95789723  0.19973508  0.98101408  1.0
  Ni  Ni79  1  0.95789723  0.53306842  0.98101408  1.0
  Ni  Ni80  1  0.95789723  0.86640175  0.98101408  1.0
  Ni  Ni81  1  0.04123056  0.03306842  0.91851408  1.0
  Ni  Ni82  1  0.04123056  0.36640175  0.91851408  1.0
  Ni  Ni83  1  0.04123056  0.69973508  0.91851408  1.0
  Ni  Ni84  1  0.37456390  0.03306842  0.91851408  1.0
  Ni  Ni85  1  0.37456390  0.36640175  0.91851408  1.0
  Ni  Ni86  1  0.37456390  0.69973508  0.91851408  1.0
  Ni  Ni87  1  0.70789723  0.03306842  0.91851408  1.0
  Ni  Ni88  1  0.70789723  0.36640175  0.91851408  1.0
  Ni  Ni89  1  0.70789723  0.69973508  0.91851408  1.0
  Ni  Ni90  1  0.14205848  0.09988958  0.99368789  1.0
  Ni  Ni91  1  0.14205848  0.43322292  0.99368789  1.0
  Ni  Ni92  1  0.14205848  0.76655625  0.99368789  1.0
  Ni  Ni93  1  0.47539181  0.09988958  0.99368789  1.0
  Ni  Ni94  1  0.47539181  0.43322292  0.99368789  1.0
  Ni  Ni95  1  0.47539181  0.76655625  0.99368789  1.0
  Ni  Ni96  1  0.80872515  0.09988958  0.99368789  1.0
  Ni  Ni97  1  0.80872515  0.43322292  0.99368789  1.0
  Ni  Ni98  1  0.80872515  0.76655625  0.99368789  1.0
  Ni  Ni99  1  0.22539181  0.26655625  0.93118789  1.0
  Ni  Ni100  1  0.22539181  0.59988958  0.93118789  1.0
  Ni  Ni101  1  0.22539181  0.93322292  0.93118789  1.0
  Ni  Ni102  1  0.55872515  0.26655625  0.93118789  1.0
  Ni  Ni103  1  0.55872515  0.59988958  0.93118789  1.0
  Ni  Ni104  1  0.55872515  0.93322292  0.93118789  1.0
  Ni  Ni105  1  0.89205848  0.26655625  0.93118789  1.0
  Ni  Ni106  1  0.89205848  0.59988958  0.93118789  1.0
  Ni  Ni107  1  0.89205848  0.93322292  0.93118789  1.0
  Ni  Ni108  1  0.00777590  0.23344375  0.89393633  1.0
  Ni  Ni109  1  0.00777590  0.56677708  0.89393633  1.0
  Ni  Ni110  1  0.00777590  0.90011042  0.89393633  1.0
  Ni  Ni111  1  0.34110923  0.23344375  0.89393633  1.0
  Ni  Ni112  1  0.34110923  0.56677708  0.89393633  1.0
  Ni  Ni113  1  0.34110923  0.90011042  0.89393633  1.0
  Ni  Ni114  1  0.67444256  0.23344375  0.89393633  1.0
  Ni  Ni115  1  0.67444256  0.56677708  0.89393633  1.0
  Ni  Ni116  1  0.67444256  0.90011042  0.89393633  1.0
  Ni  Ni117  1  0.25777590  0.06677708  0.95643633  1.0
  Ni  Ni118  1  0.25777590  0.40011042  0.95643633  1.0
  Ni  Ni119  1  0.25777590  0.73344375  0.95643633  1.0
  Ni  Ni120  1  0.59110923  0.06677708  0.95643633  1.0
  Ni  Ni121  1  0.59110923  0.40011042  0.95643633  1.0
  Ni  Ni122  1  0.59110923  0.73344375  0.95643633  1.0
  Ni  Ni123  1  0.92444256  0.06677708  0.95643633  1.0
  Ni  Ni124  1  0.92444256  0.40011042  0.95643633  1.0
  Ni  Ni125  1  0.92444256  0.73344375  0.95643633  1.0
  Ni  Ni126  1  0.02527048  0.13359825  0.78161014  1.0
  Ni  Ni127  1  0.02527048  0.46693158  0.78161014  1.0
  Ni  Ni128  1  0.02527048  0.80026492  0.78161014  1.0
  Ni  Ni129  1  0.35860381  0.13359825  0.78161014  1.0
  Ni  Ni130  1  0.35860381  0.46693158  0.78161014  1.0
  Ni  Ni131  1  0.35860381  0.80026492  0.78161014  1.0
  Ni  Ni132  1  0.69193715  0.13359825  0.78161014  1.0
  Ni  Ni133  1  0.69193715  0.46693158  0.78161014  1.0
  Ni  Ni134  1  0.69193715  0.80026492  0.78161014  1.0
  Ni  Ni135  1  0.27527048  0.30026492  0.84411014  1.0
  Ni  Ni136  1  0.27527048  0.63359825  0.84411014  1.0
  Ni  Ni137  1  0.27527048  0.96693158  0.84411014  1.0
  Ni  Ni138  1  0.60860381  0.30026492  0.84411014  1.0
  Ni  Ni139  1  0.60860381  0.63359825  0.84411014  1.0
  Ni  Ni140  1  0.60860381  0.96693158  0.84411014  1.0
  Ni  Ni141  1  0.94193715  0.30026492  0.84411014  1.0
  Ni  Ni142  1  0.94193715  0.63359825  0.84411014  1.0
  Ni  Ni143  1  0.94193715  0.96693158  0.84411014  1.0
  Ni  Ni144  1  0.12456390  0.19973508  0.85601408  1.0
  Ni  Ni145  1  0.12456390  0.53306842  0.85601408  1.0
  Ni  Ni146  1  0.12456390  0.86640175  0.85601408  1.0
  Ni  Ni147  1  0.45789723  0.19973508  0.85601408  1.0
  Ni  Ni148  1  0.45789723  0.53306842  0.85601408  1.0
  Ni  Ni149  1  0.45789723  0.86640175  0.85601408  1.0
  Ni  Ni150  1  0.79123056  0.19973508  0.85601408  1.0
  Ni  Ni151  1  0.79123056  0.53306842  0.85601408  1.0
  Ni  Ni152  1  0.79123056  0.86640175  0.85601408  1.0
  Ni  Ni153  1  0.20789723  0.03306842  0.79351408  1.0
  Ni  Ni154  1  0.20789723  0.36640175  0.79351408  1.0
  Ni  Ni155  1  0.20789723  0.69973508  0.79351408  1.0
  Ni  Ni156  1  0.54123056  0.03306842  0.79351408  1.0
  Ni  Ni157  1  0.54123056  0.36640175  0.79351408  1.0
  Ni  Ni158  1  0.54123056  0.69973508  0.79351408  1.0
  Ni  Ni159  1  0.87456390  0.03306842  0.79351408  1.0
  Ni  Ni160  1  0.87456390  0.36640175  0.79351408  1.0
  Ni  Ni161  1  0.87456390  0.69973508  0.79351408  1.0
  Ni  Ni162  1  0.30872515  0.09988958  0.86868789  1.0
  Ni  Ni163  1  0.30872515  0.43322292  0.86868789  1.0
  Ni  Ni164  1  0.30872515  0.76655625  0.86868789  1.0
  Ni  Ni165  1  0.64205848  0.09988958  0.86868789  1.0
  Ni  Ni166  1  0.64205848  0.43322292  0.86868789  1.0
  Ni  Ni167  1  0.64205848  0.76655625  0.86868789  1.0
  Ni  Ni168  1  0.97539181  0.09988958  0.86868789  1.0
  Ni  Ni169  1  0.97539181  0.43322292  0.86868789  1.0
  Ni  Ni170  1  0.97539181  0.76655625  0.86868789  1.0
  Ni  Ni171  1  0.05872515  0.26655625  0.80618789  1.0
  Ni  Ni172  1  0.05872515  0.59988958  0.80618789  1.0
  Ni  Ni173  1  0.05872515  0.93322292  0.80618789  1.0
  Ni  Ni174  1  0.39205848  0.26655625  0.80618789  1.0
  Ni  Ni175  1  0.39205848  0.59988958  0.80618789  1.0
  Ni  Ni176  1  0.39205848  0.93322292  0.80618789  1.0
  Ni  Ni177  1  0.72539181  0.26655625  0.80618789  1.0
  Ni  Ni178  1  0.72539181  0.59988958  0.80618789  1.0
  Ni  Ni179  1  0.72539181  0.93322292  0.80618789  1.0
  Ni  Ni180  1  0.17444256  0.23344375  0.76893633  1.0
  Ni  Ni181  1  0.17444256  0.56677708  0.76893633  1.0
  Ni  Ni182  1  0.17444256  0.90011042  0.76893633  1.0
  Ni  Ni183  1  0.50777590  0.23344375  0.76893633  1.0
  Ni  Ni184  1  0.50777590  0.56677708  0.76893633  1.0
  Ni  Ni185  1  0.50777590  0.90011042  0.76893633  1.0
  Ni  Ni186  1  0.84110923  0.23344375  0.76893633  1.0
  Ni  Ni187  1  0.84110923  0.56677708  0.76893633  1.0
  Ni  Ni188  1  0.84110923  0.90011042  0.76893633  1.0
  Ni  Ni189  1  0.09110923  0.06677708  0.83143633  1.0
  Ni  Ni190  1  0.09110923  0.40011042  0.83143633  1.0
  Ni  Ni191  1  0.09110923  0.73344375  0.83143633  1.0
  Ni  Ni192  1  0.42444256  0.06677708  0.83143633  1.0
  Ni  Ni193  1  0.42444256  0.40011042  0.83143633  1.0
  Ni  Ni194  1  0.42444256  0.73344375  0.83143633  1.0
  Ni  Ni195  1  0.75777590  0.06677708  0.83143633  1.0
  Ni  Ni196  1  0.75777590  0.40011042  0.83143633  1.0
  Ni  Ni197  1  0.75777590  0.73344375  0.83143633  1.0
  Ni  Ni198  1  0.19193715  0.13359825  0.65661014  1.0
  Ni  Ni199  1  0.19193715  0.46693158  0.65661014  1.0
  Ni  Ni200  1  0.19193715  0.80026492  0.65661014  1.0
  Ni  Ni201  1  0.52527048  0.13359825  0.65661014  1.0
  Ni  Ni202  1  0.52527048  0.46693158  0.65661014  1.0
  Ni  Ni203  1  0.52527048  0.80026492  0.65661014  1.0
  Ni  Ni204  1  0.85860381  0.13359825  0.65661014  1.0
  Ni  Ni205  1  0.85860381  0.46693158  0.65661014  1.0
  Ni  Ni206  1  0.85860381  0.80026492  0.65661014  1.0
  Ni  Ni207  1  0.10860381  0.30026492  0.71911014  1.0
  Ni  Ni208  1  0.10860381  0.63359825  0.71911014  1.0
  Ni  Ni209  1  0.10860381  0.96693158  0.71911014  1.0
  Ni  Ni210  1  0.44193715  0.30026492  0.71911014  1.0
  Ni  Ni211  1  0.44193715  0.63359825  0.71911014  1.0
  Ni  Ni212  1  0.44193715  0.96693158  0.71911014  1.0
  Ni  Ni213  1  0.77527048  0.30026492  0.71911014  1.0
  Ni  Ni214  1  0.77527048  0.63359825  0.71911014  1.0
  Ni  Ni215  1  0.77527048  0.96693158  0.71911014  1.0
  Ni  Ni216  1  0.29123056  0.19973508  0.73101408  1.0
  Ni  Ni217  1  0.29123056  0.53306842  0.73101408  1.0
  Ni  Ni218  1  0.29123056  0.86640175  0.73101408  1.0
  Ni  Ni219  1  0.62456390  0.19973508  0.73101408  1.0
  Ni  Ni220  1  0.62456390  0.53306842  0.73101408  1.0
  Ni  Ni221  1  0.62456390  0.86640175  0.73101408  1.0
  Ni  Ni222  1  0.95789723  0.19973508  0.73101408  1.0
  Ni  Ni223  1  0.95789723  0.53306842  0.73101408  1.0
  Ni  Ni224  1  0.95789723  0.86640175  0.73101408  1.0
  Ni  Ni225  1  0.04123056  0.03306842  0.66851408  1.0
  Ni  Ni226  1  0.04123056  0.36640175  0.66851408  1.0
  Ni  Ni227  1  0.04123056  0.69973508  0.66851408  1.0
  Ni  Ni228  1  0.37456390  0.03306842  0.66851408  1.0
  Ni  Ni229  1  0.37456390  0.36640175  0.66851408  1.0
  Ni  Ni230  1  0.37456390  0.69973508  0.66851408  1.0
  Ni  Ni231  1  0.70789723  0.03306842  0.66851408  1.0
  Ni  Ni232  1  0.70789723  0.36640175  0.66851408  1.0
  Ni  Ni233  1  0.70789723  0.69973508  0.66851408  1.0
  Ni  Ni234  1  0.14205848  0.09988958  0.74368789  1.0
  Ni  Ni235  1  0.14205848  0.43322292  0.74368789  1.0
  Ni  Ni236  1  0.14205848  0.76655625  0.74368789  1.0
  Ni  Ni237  1  0.47539181  0.09988958  0.74368789  1.0
  Ni  Ni238  1  0.47539181  0.43322292  0.74368789  1.0
  Ni  Ni239  1  0.47539181  0.76655625  0.74368789  1.0
  Ni  Ni240  1  0.80872515  0.09988958  0.74368789  1.0
  Ni  Ni241  1  0.80872515  0.43322292  0.74368789  1.0
  Ni  Ni242  1  0.80872515  0.76655625  0.74368789  1.0
  Ni  Ni243  1  0.22539181  0.26655625  0.68118789  1.0
  Ni  Ni244  1  0.22539181  0.59988958  0.68118789  1.0
  Ni  Ni245  1  0.22539181  0.93322292  0.68118789  1.0
  Ni  Ni246  1  0.55872515  0.26655625  0.68118789  1.0
  Ni  Ni247  1  0.55872515  0.59988958  0.68118789  1.0
  Ni  Ni248  1  0.55872515  0.93322292  0.68118789  1.0
  Ni  Ni249  1  0.89205848  0.26655625  0.68118789  1.0
  Ni  Ni250  1  0.89205848  0.59988958  0.68118789  1.0
  Ni  Ni251  1  0.89205848  0.93322292  0.68118789  1.0
  Ni  Ni252  1  0.00777590  0.23344375  0.64393633  1.0
  Ni  Ni253  1  0.00777590  0.56677708  0.64393633  1.0
  Ni  Ni254  1  0.00777590  0.90011042  0.64393633  1.0
  Ni  Ni255  1  0.34110923  0.23344375  0.64393633  1.0
  Ni  Ni256  1  0.34110923  0.56677708  0.64393633  1.0
  Ni  Ni257  1  0.34110923  0.90011042  0.64393633  1.0
  Ni  Ni258  1  0.67444256  0.23344375  0.64393633  1.0
  Ni  Ni259  1  0.67444256  0.56677708  0.64393633  1.0
  Ni  Ni260  1  0.67444256  0.90011042  0.64393633  1.0
  Ni  Ni261  1  0.25777590  0.06677708  0.70643633  1.0
  Ni  Ni262  1  0.25777590  0.40011042  0.70643633  1.0
  Ni  Ni263  1  0.25777590  0.73344375  0.70643633  1.0
  Ni  Ni264  1  0.59110923  0.06677708  0.70643633  1.0
  Ni  Ni265  1  0.59110923  0.40011042  0.70643633  1.0
  Ni  Ni266  1  0.59110923  0.73344375  0.70643633  1.0
  Ni  Ni267  1  0.92444256  0.06677708  0.70643633  1.0
  Ni  Ni268  1  0.92444256  0.40011042  0.70643633  1.0
  Ni  Ni269  1  0.92444256  0.73344375  0.70643633  1.0
