# generated using pymatgen
data_Ni4Mo
_symmetry_space_group_name_H-M   'P 1'
_cell_length_a   17.16270149
_cell_length_b   27.65577613
_cell_length_c   28.15981968
_cell_angle_alpha   82.38250686
_cell_angle_beta   84.16988841
_cell_angle_gamma   71.92320480
_symmetry_Int_Tables_number   1
_chemical_formula_structural   Ni4Mo
_chemical_formula_sum   'Ni360 Mo90'
_cell_volume   12568.19799008
_cell_formula_units_Z   90
loop_
 _symmetry_equiv_pos_site_id
 _symmetry_equiv_pos_as_xyz
  1  'x, y, z'
loop_
 _atom_site_type_symbol
 _atom_site_label
 _atom_site_symmetry_multiplicity
 _atom_site_fract_x
 _atom_site_fract_y
 _atom_site_fract_z
 _atom_site_occupancy
  Mo  Mo0  1  0.21671082  0.20419978  0.03753311  1.0
  Mo  Mo1  1  0.21671082  0.53753311  0.03753311  1.0
  Mo  Mo2  1  0.21671082  0.87086645  0.03753311  1.0
  Mo  Mo3  1  0.55004415  0.20419978  0.03753311  1.0
  Mo  Mo4  1  0.55004415  0.53753311  0.03753311  1.0
  Mo  Mo5  1  0.55004415  0.87086645  0.03753311  1.0
  Mo  Mo6  1  0.88337749  0.20419978  0.03753311  1.0
  Mo  Mo7  1  0.88337749  0.53753311  0.03753311  1.0
  Mo  Mo8  1  0.88337749  0.87086645  0.03753311  1.0
  Mo  Mo9  1  0.10559971  0.07919978  0.07919978  1.0
  Mo  Mo10  1  0.10559971  0.41253311  0.07919978  1.0
  Mo  Mo11  1  0.10559971  0.74586645  0.07919978  1.0
  Mo  Mo12  1  0.43893304  0.07919978  0.07919978  1.0
  Mo  Mo13  1  0.43893304  0.41253311  0.07919978  1.0
  Mo  Mo14  1  0.43893304  0.74586645  0.07919978  1.0
  Mo  Mo15  1  0.77226637  0.07919978  0.07919978  1.0
  Mo  Mo16  1  0.77226637  0.41253311  0.07919978  1.0
  Mo  Mo17  1  0.77226637  0.74586645  0.07919978  1.0
  Mo  Mo18  1  0.32782193  0.28753311  0.12086645  1.0
  Mo  Mo19  1  0.32782193  0.62086645  0.12086645  1.0
  Mo  Mo20  1  0.32782193  0.95419978  0.12086645  1.0
  Mo  Mo21  1  0.66115526  0.28753311  0.12086645  1.0
  Mo  Mo22  1  0.66115526  0.62086645  0.12086645  1.0
  Mo  Mo23  1  0.66115526  0.95419978  0.12086645  1.0
  Mo  Mo24  1  0.99448860  0.28753311  0.12086645  1.0
  Mo  Mo25  1  0.99448860  0.62086645  0.12086645  1.0
  Mo  Mo26  1  0.99448860  0.95419978  0.12086645  1.0
  Mo  Mo27  1  0.21671082  0.16253311  0.16253311  1.0
  Mo  Mo28  1  0.21671082  0.49586645  0.16253311  1.0
  Mo  Mo29  1  0.21671082  0.82919978  0.16253311  1.0
  Mo  Mo30  1  0.55004415  0.16253311  0.16253311  1.0
  Mo  Mo31  1  0.55004415  0.49586645  0.16253311  1.0
  Mo  Mo32  1  0.55004415  0.82919978  0.16253311  1.0
  Mo  Mo33  1  0.88337749  0.16253311  0.16253311  1.0
  Mo  Mo34  1  0.88337749  0.49586645  0.16253311  1.0
  Mo  Mo35  1  0.88337749  0.82919978  0.16253311  1.0
  Mo  Mo36  1  0.10559971  0.03753311  0.20419978  1.0
  Mo  Mo37  1  0.10559971  0.37086645  0.20419978  1.0
  Mo  Mo38  1  0.10559971  0.70419978  0.20419978  1.0
  Mo  Mo39  1  0.43893304  0.03753311  0.20419978  1.0
  Mo  Mo40  1  0.43893304  0.37086645  0.20419978  1.0
  Mo  Mo41  1  0.43893304  0.70419978  0.20419978  1.0
  Mo  Mo42  1  0.77226638  0.03753311  0.20419978  1.0
  Mo  Mo43  1  0.77226638  0.37086645  0.20419978  1.0
  Mo  Mo44  1  0.77226637  0.70419978  0.20419978  1.0
  Mo  Mo45  1  0.32782193  0.24586645  0.24586645  1.0
  Mo  Mo46  1  0.32782193  0.57919978  0.24586645  1.0
  Mo  Mo47  1  0.32782193  0.91253311  0.24586645  1.0
  Mo  Mo48  1  0.66115526  0.24586645  0.24586645  1.0
  Mo  Mo49  1  0.66115526  0.57919978  0.24586645  1.0
  Mo  Mo50  1  0.66115526  0.91253311  0.24586645  1.0
  Mo  Mo51  1  0.99448860  0.24586645  0.24586645  1.0
  Mo  Mo52  1  0.99448860  0.57919978  0.24586645  1.0
  Mo  Mo53  1  0.99448860  0.91253311  0.24586645  1.0
  Mo  Mo54  1  0.21671082  0.12086645  0.28753311  1.0
  Mo  Mo55  1  0.21671082  0.45419978  0.28753311  1.0
  Mo  Mo56  1  0.21671082  0.78753311  0.28753311  1.0
  Mo  Mo57  1  0.55004415  0.12086645  0.28753311  1.0
  Mo  Mo58  1  0.55004415  0.45419978  0.28753311  1.0
  Mo  Mo59  1  0.55004415  0.78753311  0.28753311  1.0
  Mo  Mo60  1  0.88337749  0.12086645  0.28753311  1.0
  Mo  Mo61  1  0.88337749  0.45419978  0.28753311  1.0
  Mo  Mo62  1  0.88337749  0.78753311  0.28753311  1.0
  Mo  Mo63  1  0.10559971  0.32919978  0.32919978  1.0
  Mo  Mo64  1  0.10559971  0.66253311  0.32919978  1.0
  Mo  Mo65  1  0.10559971  0.99586645  0.32919978  1.0
  Mo  Mo66  1  0.43893304  0.32919978  0.32919978  1.0
  Mo  Mo67  1  0.43893304  0.66253311  0.32919978  1.0
  Mo  Mo68  1  0.43893304  0.99586645  0.32919978  1.0
  Mo  Mo69  1  0.77226637  0.32919978  0.32919978  1.0
  Mo  Mo70  1  0.77226637  0.66253311  0.32919978  1.0
  Mo  Mo71  1  0.77226637  0.99586645  0.32919978  1.0
  Mo  Mo72  1  0.32782193  0.20419978  0.37086645  1.0
  Mo  Mo73  1  0.32782193  0.53753311  0.37086645  1.0
  Mo  Mo74  1  0.32782193  0.87086645  0.37086645  1.0
  Mo  Mo75  1  0.66115526  0.20419978  0.37086645  1.0
  Mo  Mo76  1  0.66115526  0.53753311  0.37086645  1.0
  Mo  Mo77  1  0.66115526  0.87086645  0.37086645  1.0
  Mo  Mo78  1  0.99448860  0.20419978  0.37086645  1.0
  Mo  Mo79  1  0.99448860  0.53753311  0.37086645  1.0
  Mo  Mo80  1  0.99448860  0.87086645  0.37086645  1.0
  Mo  Mo81  1  0.21671082  0.07919978  0.41253311  1.0
  Mo  Mo82  1  0.21671082  0.41253311  0.41253311  1.0
  Mo  Mo83  1  0.21671082  0.74586645  0.41253311  1.0
  Mo  Mo84  1  0.55004415  0.07919978  0.41253311  1.0
  Mo  Mo85  1  0.55004415  0.41253311  0.41253311  1.0
  Mo  Mo86  1  0.55004415  0.74586645  0.41253311  1.0
  Mo  Mo87  1  0.88337749  0.07919978  0.41253311  1.0
  Mo  Mo88  1  0.88337749  0.41253311  0.41253311  1.0
  Mo  Mo89  1  0.88337749  0.74586645  0.41253311  1.0
  Ni  Ni90  1  0.32821938  0.24553530  0.04580022  1.0
  Ni  Ni91  1  0.32821938  0.57886864  0.04580022  1.0
  Ni  Ni92  1  0.32821938  0.91220197  0.04580022  1.0
  Ni  Ni93  1  0.66155271  0.24553530  0.04580022  1.0
  Ni  Ni94  1  0.66155271  0.57886864  0.04580022  1.0
  Ni  Ni95  1  0.66155271  0.91220197  0.04580022  1.0
  Ni  Ni96  1  0.99488604  0.24553530  0.04580022  1.0
  Ni  Ni97  1  0.99488604  0.57886864  0.04580022  1.0
  Ni  Ni98  1  0.99488604  0.91220197  0.04580022  1.0
  Ni  Ni99  1  0.10599715  0.03720197  0.00413355  1.0
  Ni  Ni100  1  0.10599715  0.37053530  0.00413355  1.0
  Ni  Ni101  1  0.10599715  0.70386864  0.00413355  1.0
  Ni  Ni102  1  0.43933049  0.03720197  0.00413355  1.0
  Ni  Ni103  1  0.43933049  0.37053530  0.00413355  1.0
  Ni  Ni104  1  0.43933049  0.70386864  0.00413355  1.0
  Ni  Ni105  1  0.77266382  0.03720197  0.00413355  1.0
  Ni  Ni106  1  0.77266382  0.37053530  0.00413355  1.0
  Ni  Ni107  1  0.77266382  0.70386864  0.00413355  1.0
  Ni  Ni108  1  0.10520226  0.16286426  0.02926601  1.0
  Ni  Ni109  1  0.10520226  0.49619759  0.02926601  1.0
  Ni  Ni110  1  0.10520226  0.82953093  0.02926601  1.0
  Ni  Ni111  1  0.43853560  0.16286426  0.02926601  1.0
  Ni  Ni112  1  0.43853560  0.49619759  0.02926601  1.0
  Ni  Ni113  1  0.43853560  0.82953093  0.02926601  1.0
  Ni  Ni114  1  0.77186893  0.16286426  0.02926601  1.0
  Ni  Ni115  1  0.77186893  0.49619759  0.02926601  1.0
  Ni  Ni116  1  0.77186893  0.82953093  0.02926601  1.0
  Ni  Ni117  1  0.32742449  0.03786426  0.07093268  1.0
  Ni  Ni118  1  0.32742449  0.37119759  0.07093268  1.0
  Ni  Ni119  1  0.32742449  0.70453093  0.07093268  1.0
  Ni  Ni120  1  0.66075782  0.03786426  0.07093268  1.0
  Ni  Ni121  1  0.66075782  0.37119759  0.07093268  1.0
  Ni  Ni122  1  0.66075782  0.70453093  0.07093268  1.0
  Ni  Ni123  1  0.99409115  0.03786426  0.07093268  1.0
  Ni  Ni124  1  0.99409115  0.37119759  0.07093268  1.0
  Ni  Ni125  1  0.99409115  0.70453093  0.07093268  1.0
  Ni  Ni126  1  0.10605593  0.28767114  0.05422739  1.0
  Ni  Ni127  1  0.10605593  0.62100447  0.05422739  1.0
  Ni  Ni128  1  0.10605593  0.95433780  0.05422739  1.0
  Ni  Ni129  1  0.43938926  0.28767114  0.05422739  1.0
  Ni  Ni130  1  0.43938926  0.62100447  0.05422739  1.0
  Ni  Ni131  1  0.43938926  0.95433780  0.05422739  1.0
  Ni  Ni132  1  0.77272260  0.28767114  0.05422739  1.0
  Ni  Ni133  1  0.77272260  0.62100447  0.05422739  1.0
  Ni  Ni134  1  0.77272260  0.95433780  0.05422739  1.0
  Ni  Ni135  1  0.21716704  0.07933780  0.01256072  1.0
  Ni  Ni136  1  0.21716704  0.41267114  0.01256072  1.0
  Ni  Ni137  1  0.21716704  0.74600447  0.01256072  1.0
  Ni  Ni138  1  0.55050038  0.07933780  0.01256072  1.0
  Ni  Ni139  1  0.55050037  0.41267114  0.01256072  1.0
  Ni  Ni140  1  0.55050037  0.74600447  0.01256072  1.0
  Ni  Ni141  1  0.88383371  0.07933780  0.01256072  1.0
  Ni  Ni142  1  0.88383371  0.41267114  0.01256072  1.0
  Ni  Ni143  1  0.88383371  0.74600447  0.01256072  1.0
  Ni  Ni144  1  0.32736571  0.12072843  0.02083884  1.0
  Ni  Ni145  1  0.32736571  0.45406176  0.02083884  1.0
  Ni  Ni146  1  0.32736571  0.78739509  0.02083884  1.0
  Ni  Ni147  1  0.66069904  0.12072843  0.02083884  1.0
  Ni  Ni148  1  0.66069904  0.45406176  0.02083884  1.0
  Ni  Ni149  1  0.66069904  0.78739509  0.02083884  1.0
  Ni  Ni150  1  0.99403238  0.12072843  0.02083884  1.0
  Ni  Ni151  1  0.99403237  0.45406176  0.02083884  1.0
  Ni  Ni152  1  0.99403237  0.78739509  0.02083884  1.0
  Ni  Ni153  1  0.21625460  0.32906176  0.06250551  1.0
  Ni  Ni154  1  0.21625460  0.66239509  0.06250551  1.0
  Ni  Ni155  1  0.21625460  0.99572843  0.06250551  1.0
  Ni  Ni156  1  0.54958793  0.32906176  0.06250551  1.0
  Ni  Ni157  1  0.54958793  0.66239509  0.06250551  1.0
  Ni  Ni158  1  0.54958793  0.99572843  0.06250551  1.0
  Ni  Ni159  1  0.88292126  0.32906176  0.06250551  1.0
  Ni  Ni160  1  0.88292126  0.66239509  0.06250551  1.0
  Ni  Ni161  1  0.88292126  0.99572843  0.06250551  1.0
  Ni  Ni162  1  0.10599715  0.32886864  0.12913355  1.0
  Ni  Ni163  1  0.10599715  0.66220197  0.12913355  1.0
  Ni  Ni164  1  0.10599715  0.99553530  0.12913355  1.0
  Ni  Ni165  1  0.43933049  0.32886864  0.12913355  1.0
  Ni  Ni166  1  0.43933049  0.66220197  0.12913355  1.0
  Ni  Ni167  1  0.43933049  0.99553530  0.12913355  1.0
  Ni  Ni168  1  0.77266382  0.32886864  0.12913355  1.0
  Ni  Ni169  1  0.77266382  0.66220197  0.12913355  1.0
  Ni  Ni170  1  0.77266382  0.99553530  0.12913355  1.0
  Ni  Ni171  1  0.21710826  0.12053530  0.08746689  1.0
  Ni  Ni172  1  0.21710826  0.45386864  0.08746689  1.0
  Ni  Ni173  1  0.21710826  0.78720197  0.08746689  1.0
  Ni  Ni174  1  0.55044160  0.12053530  0.08746689  1.0
  Ni  Ni175  1  0.55044160  0.45386864  0.08746689  1.0
  Ni  Ni176  1  0.55044160  0.78720197  0.08746689  1.0
  Ni  Ni177  1  0.88377493  0.12053530  0.08746689  1.0
  Ni  Ni178  1  0.88377493  0.45386864  0.08746689  1.0
  Ni  Ni179  1  0.88377493  0.78720197  0.08746689  1.0
  Ni  Ni180  1  0.21631337  0.24619759  0.11259934  1.0
  Ni  Ni181  1  0.21631337  0.57953093  0.11259934  1.0
  Ni  Ni182  1  0.21631337  0.91286426  0.11259934  1.0
  Ni  Ni183  1  0.54964671  0.24619759  0.11259934  1.0
  Ni  Ni184  1  0.54964671  0.57953093  0.11259934  1.0
  Ni  Ni185  1  0.54964671  0.91286426  0.11259934  1.0
  Ni  Ni186  1  0.88298004  0.24619759  0.11259934  1.0
  Ni  Ni187  1  0.88298004  0.57953093  0.11259934  1.0
  Ni  Ni188  1  0.88298004  0.91286426  0.11259934  1.0
  Ni  Ni189  1  0.10520226  0.12119759  0.15426601  1.0
  Ni  Ni190  1  0.10520226  0.45453093  0.15426601  1.0
  Ni  Ni191  1  0.10520226  0.78786426  0.15426601  1.0
  Ni  Ni192  1  0.43853560  0.12119759  0.15426601  1.0
  Ni  Ni193  1  0.43853560  0.45453093  0.15426601  1.0
  Ni  Ni194  1  0.43853560  0.78786426  0.15426601  1.0
  Ni  Ni195  1  0.77186893  0.12119759  0.15426601  1.0
  Ni  Ni196  1  0.77186893  0.45453093  0.15426601  1.0
  Ni  Ni197  1  0.77186893  0.78786426  0.15426601  1.0
  Ni  Ni198  1  0.21716704  0.03767114  0.13756072  1.0
  Ni  Ni199  1  0.21716704  0.37100447  0.13756072  1.0
  Ni  Ni200  1  0.21716704  0.70433780  0.13756072  1.0
  Ni  Ni201  1  0.55050037  0.03767114  0.13756072  1.0
  Ni  Ni202  1  0.55050037  0.37100447  0.13756072  1.0
  Ni  Ni203  1  0.55050037  0.70433780  0.13756072  1.0
  Ni  Ni204  1  0.88383371  0.03767114  0.13756072  1.0
  Ni  Ni205  1  0.88383371  0.37100447  0.13756072  1.0
  Ni  Ni206  1  0.88383371  0.70433780  0.13756072  1.0
  Ni  Ni207  1  0.32827815  0.16267114  0.09589405  1.0
  Ni  Ni208  1  0.32827815  0.49600447  0.09589405  1.0
  Ni  Ni209  1  0.32827815  0.82933780  0.09589405  1.0
  Ni  Ni210  1  0.66161149  0.16267114  0.09589405  1.0
  Ni  Ni211  1  0.66161149  0.49600447  0.09589405  1.0
  Ni  Ni212  1  0.66161149  0.82933780  0.09589405  1.0
  Ni  Ni213  1  0.99494482  0.16267114  0.09589405  1.0
  Ni  Ni214  1  0.99494482  0.49600447  0.09589405  1.0
  Ni  Ni215  1  0.99494482  0.82933780  0.09589405  1.0
  Ni  Ni216  1  0.10514349  0.20406176  0.10417218  1.0
  Ni  Ni217  1  0.10514349  0.53739509  0.10417218  1.0
  Ni  Ni218  1  0.10514349  0.87072843  0.10417218  1.0
  Ni  Ni219  1  0.43847682  0.20406176  0.10417218  1.0
  Ni  Ni220  1  0.43847682  0.53739509  0.10417218  1.0
  Ni  Ni221  1  0.43847682  0.87072843  0.10417218  1.0
  Ni  Ni222  1  0.77181015  0.20406176  0.10417218  1.0
  Ni  Ni223  1  0.77181015  0.53739509  0.10417218  1.0
  Ni  Ni224  1  0.77181015  0.87072843  0.10417218  1.0
  Ni  Ni225  1  0.32736571  0.07906176  0.14583884  1.0
  Ni  Ni226  1  0.32736571  0.41239509  0.14583884  1.0
  Ni  Ni227  1  0.32736571  0.74572843  0.14583884  1.0
  Ni  Ni228  1  0.66069904  0.07906176  0.14583884  1.0
  Ni  Ni229  1  0.66069904  0.41239509  0.14583884  1.0
  Ni  Ni230  1  0.66069904  0.74572843  0.14583884  1.0
  Ni  Ni231  1  0.99403238  0.07906176  0.14583884  1.0
  Ni  Ni232  1  0.99403237  0.41239509  0.14583884  1.0
  Ni  Ni233  1  0.99403237  0.74572843  0.14583884  1.0
  Ni  Ni234  1  0.21710826  0.07886864  0.21246689  1.0
  Ni  Ni235  1  0.21710826  0.41220197  0.21246689  1.0
  Ni  Ni236  1  0.21710826  0.74553530  0.21246689  1.0
  Ni  Ni237  1  0.55044160  0.07886864  0.21246689  1.0
  Ni  Ni238  1  0.55044160  0.41220197  0.21246689  1.0
  Ni  Ni239  1  0.55044160  0.74553530  0.21246689  1.0
  Ni  Ni240  1  0.88377493  0.07886864  0.21246689  1.0
  Ni  Ni241  1  0.88377493  0.41220197  0.21246689  1.0
  Ni  Ni242  1  0.88377493  0.74553530  0.21246689  1.0
  Ni  Ni243  1  0.32821938  0.20386864  0.17080022  1.0
  Ni  Ni244  1  0.32821938  0.53720197  0.17080022  1.0
  Ni  Ni245  1  0.32821937  0.87053530  0.17080022  1.0
  Ni  Ni246  1  0.66155271  0.20386864  0.17080022  1.0
  Ni  Ni247  1  0.66155271  0.53720197  0.17080022  1.0
  Ni  Ni248  1  0.66155271  0.87053530  0.17080022  1.0
  Ni  Ni249  1  0.99488604  0.20386864  0.17080022  1.0
  Ni  Ni250  1  0.99488604  0.53720197  0.17080022  1.0
  Ni  Ni251  1  0.99488604  0.87053530  0.17080022  1.0
  Ni  Ni252  1  0.32742449  0.32953093  0.19593268  1.0
  Ni  Ni253  1  0.32742449  0.66286426  0.19593268  1.0
  Ni  Ni254  1  0.32742449  0.99619759  0.19593268  1.0
  Ni  Ni255  1  0.66075782  0.32953093  0.19593268  1.0
  Ni  Ni256  1  0.66075782  0.66286426  0.19593268  1.0
  Ni  Ni257  1  0.66075782  0.99619759  0.19593268  1.0
  Ni  Ni258  1  0.99409115  0.32953093  0.19593268  1.0
  Ni  Ni259  1  0.99409115  0.66286426  0.19593268  1.0
  Ni  Ni260  1  0.99409115  0.99619759  0.19593268  1.0
  Ni  Ni261  1  0.21631338  0.20453093  0.23759934  1.0
  Ni  Ni262  1  0.21631337  0.53786426  0.23759934  1.0
  Ni  Ni263  1  0.21631338  0.87119759  0.23759934  1.0
  Ni  Ni264  1  0.54964671  0.20453093  0.23759934  1.0
  Ni  Ni265  1  0.54964671  0.53786426  0.23759934  1.0
  Ni  Ni266  1  0.54964671  0.87119759  0.23759934  1.0
  Ni  Ni267  1  0.88298004  0.20453093  0.23759934  1.0
  Ni  Ni268  1  0.88298004  0.53786426  0.23759934  1.0
  Ni  Ni269  1  0.88298004  0.87119759  0.23759934  1.0
  Ni  Ni270  1  0.32827815  0.12100447  0.22089405  1.0
  Ni  Ni271  1  0.32827815  0.45433780  0.22089405  1.0
  Ni  Ni272  1  0.32827815  0.78767114  0.22089405  1.0
  Ni  Ni273  1  0.66161149  0.12100447  0.22089405  1.0
  Ni  Ni274  1  0.66161149  0.45433780  0.22089405  1.0
  Ni  Ni275  1  0.66161149  0.78767114  0.22089405  1.0
  Ni  Ni276  1  0.99494482  0.12100447  0.22089405  1.0
  Ni  Ni277  1  0.99494482  0.45433780  0.22089405  1.0
  Ni  Ni278  1  0.99494482  0.78767114  0.22089405  1.0
  Ni  Ni279  1  0.10605593  0.24600447  0.17922739  1.0
  Ni  Ni280  1  0.10605593  0.57933780  0.17922739  1.0
  Ni  Ni281  1  0.10605593  0.91267114  0.17922739  1.0
  Ni  Ni282  1  0.43938926  0.24600447  0.17922739  1.0
  Ni  Ni283  1  0.43938926  0.57933780  0.17922739  1.0
  Ni  Ni284  1  0.43938926  0.91267114  0.17922739  1.0
  Ni  Ni285  1  0.77272260  0.24600447  0.17922739  1.0
  Ni  Ni286  1  0.77272260  0.57933780  0.17922739  1.0
  Ni  Ni287  1  0.77272260  0.91267114  0.17922739  1.0
  Ni  Ni288  1  0.21625460  0.28739509  0.18750551  1.0
  Ni  Ni289  1  0.21625460  0.62072843  0.18750551  1.0
  Ni  Ni290  1  0.21625460  0.95406176  0.18750551  1.0
  Ni  Ni291  1  0.54958793  0.28739509  0.18750551  1.0
  Ni  Ni292  1  0.54958793  0.62072843  0.18750551  1.0
  Ni  Ni293  1  0.54958793  0.95406176  0.18750551  1.0
  Ni  Ni294  1  0.88292126  0.28739509  0.18750551  1.0
  Ni  Ni295  1  0.88292126  0.62072843  0.18750551  1.0
  Ni  Ni296  1  0.88292126  0.95406176  0.18750551  1.0
  Ni  Ni297  1  0.10514349  0.16239509  0.22917218  1.0
  Ni  Ni298  1  0.10514349  0.49572843  0.22917218  1.0
  Ni  Ni299  1  0.10514349  0.82906176  0.22917218  1.0
  Ni  Ni300  1  0.43847682  0.16239509  0.22917218  1.0
  Ni  Ni301  1  0.43847682  0.49572843  0.22917218  1.0
  Ni  Ni302  1  0.43847682  0.82906176  0.22917218  1.0
  Ni  Ni303  1  0.77181015  0.16239509  0.22917218  1.0
  Ni  Ni304  1  0.77181015  0.49572843  0.22917218  1.0
  Ni  Ni305  1  0.77181015  0.82906176  0.22917218  1.0
  Ni  Ni306  1  0.32821938  0.16220197  0.29580022  1.0
  Ni  Ni307  1  0.32821937  0.49553530  0.29580022  1.0
  Ni  Ni308  1  0.32821937  0.82886864  0.29580022  1.0
  Ni  Ni309  1  0.66155271  0.16220197  0.29580022  1.0
  Ni  Ni310  1  0.66155271  0.49553530  0.29580022  1.0
  Ni  Ni311  1  0.66155271  0.82886864  0.29580022  1.0
  Ni  Ni312  1  0.99488604  0.16220197  0.29580022  1.0
  Ni  Ni313  1  0.99488604  0.49553530  0.29580022  1.0
  Ni  Ni314  1  0.99488604  0.82886864  0.29580022  1.0
  Ni  Ni315  1  0.10599715  0.28720197  0.25413355  1.0
  Ni  Ni316  1  0.10599715  0.62053530  0.25413355  1.0
  Ni  Ni317  1  0.10599715  0.95386864  0.25413355  1.0
  Ni  Ni318  1  0.43933049  0.28720197  0.25413355  1.0
  Ni  Ni319  1  0.43933049  0.62053530  0.25413355  1.0
  Ni  Ni320  1  0.43933049  0.95386864  0.25413355  1.0
  Ni  Ni321  1  0.77266382  0.28720197  0.25413355  1.0
  Ni  Ni322  1  0.77266382  0.62053530  0.25413355  1.0
  Ni  Ni323  1  0.77266382  0.95386864  0.25413355  1.0
  Ni  Ni324  1  0.10520226  0.07953093  0.27926601  1.0
  Ni  Ni325  1  0.10520226  0.41286426  0.27926601  1.0
  Ni  Ni326  1  0.10520226  0.74619759  0.27926601  1.0
  Ni  Ni327  1  0.43853560  0.07953093  0.27926601  1.0
  Ni  Ni328  1  0.43853560  0.41286426  0.27926601  1.0
  Ni  Ni329  1  0.43853560  0.74619759  0.27926601  1.0
  Ni  Ni330  1  0.77186893  0.07953093  0.27926601  1.0
  Ni  Ni331  1  0.77186893  0.41286426  0.27926601  1.0
  Ni  Ni332  1  0.77186893  0.74619759  0.27926601  1.0
  Ni  Ni333  1  0.32742449  0.28786426  0.32093268  1.0
  Ni  Ni334  1  0.32742449  0.62119759  0.32093268  1.0
  Ni  Ni335  1  0.32742449  0.95453093  0.32093268  1.0
  Ni  Ni336  1  0.66075782  0.28786426  0.32093268  1.0
  Ni  Ni337  1  0.66075782  0.62119759  0.32093268  1.0
  Ni  Ni338  1  0.66075782  0.95453093  0.32093268  1.0
  Ni  Ni339  1  0.99409115  0.28786426  0.32093268  1.0
  Ni  Ni340  1  0.99409115  0.62119759  0.32093268  1.0
  Ni  Ni341  1  0.99409115  0.95453093  0.32093268  1.0
  Ni  Ni342  1  0.10605593  0.20433780  0.30422739  1.0
  Ni  Ni343  1  0.10605593  0.53767114  0.30422739  1.0
  Ni  Ni344  1  0.10605593  0.87100447  0.30422739  1.0
  Ni  Ni345  1  0.43938926  0.20433780  0.30422739  1.0
  Ni  Ni346  1  0.43938926  0.53767114  0.30422739  1.0
  Ni  Ni347  1  0.43938926  0.87100447  0.30422739  1.0
  Ni  Ni348  1  0.77272260  0.20433780  0.30422739  1.0
  Ni  Ni349  1  0.77272260  0.53767114  0.30422739  1.0
  Ni  Ni350  1  0.77272260  0.87100447  0.30422739  1.0
  Ni  Ni351  1  0.21716704  0.32933780  0.26256072  1.0
  Ni  Ni352  1  0.21716704  0.66267114  0.26256072  1.0
  Ni  Ni353  1  0.21716704  0.99600447  0.26256072  1.0
  Ni  Ni354  1  0.55050037  0.32933780  0.26256072  1.0
  Ni  Ni355  1  0.55050037  0.66267114  0.26256072  1.0
  Ni  Ni356  1  0.55050037  0.99600447  0.26256072  1.0
  Ni  Ni357  1  0.88383371  0.32933780  0.26256072  1.0
  Ni  Ni358  1  0.88383371  0.66267114  0.26256072  1.0
  Ni  Ni359  1  0.88383371  0.99600447  0.26256072  1.0
  Ni  Ni360  1  0.32736571  0.03739509  0.27083884  1.0
  Ni  Ni361  1  0.32736571  0.37072843  0.27083884  1.0
  Ni  Ni362  1  0.32736571  0.70406176  0.27083884  1.0
  Ni  Ni363  1  0.66069904  0.03739509  0.27083884  1.0
  Ni  Ni364  1  0.66069904  0.37072843  0.27083884  1.0
  Ni  Ni365  1  0.66069904  0.70406176  0.27083884  1.0
  Ni  Ni366  1  0.99403238  0.03739509  0.27083884  1.0
  Ni  Ni367  1  0.99403238  0.37072843  0.27083884  1.0
  Ni  Ni368  1  0.99403237  0.70406176  0.27083884  1.0
  Ni  Ni369  1  0.21625460  0.24572843  0.31250551  1.0
  Ni  Ni370  1  0.21625460  0.57906176  0.31250551  1.0
  Ni  Ni371  1  0.21625460  0.91239509  0.31250551  1.0
  Ni  Ni372  1  0.54958793  0.24572843  0.31250551  1.0
  Ni  Ni373  1  0.54958793  0.57906176  0.31250551  1.0
  Ni  Ni374  1  0.54958793  0.91239509  0.31250551  1.0
  Ni  Ni375  1  0.88292126  0.24572843  0.31250551  1.0
  Ni  Ni376  1  0.88292126  0.57906176  0.31250551  1.0
  Ni  Ni377  1  0.88292126  0.91239509  0.31250551  1.0
  Ni  Ni378  1  0.10599715  0.24553530  0.37913355  1.0
  Ni  Ni379  1  0.10599715  0.57886864  0.37913355  1.0
  Ni  Ni380  1  0.10599715  0.91220197  0.37913355  1.0
  Ni  Ni381  1  0.43933049  0.24553530  0.37913355  1.0
  Ni  Ni382  1  0.43933049  0.57886864  0.37913355  1.0
  Ni  Ni383  1  0.43933049  0.91220197  0.37913355  1.0
  Ni  Ni384  1  0.77266382  0.24553530  0.37913355  1.0
  Ni  Ni385  1  0.77266382  0.57886864  0.37913355  1.0
  Ni  Ni386  1  0.77266382  0.91220197  0.37913355  1.0
  Ni  Ni387  1  0.21710826  0.03720197  0.33746689  1.0
  Ni  Ni388  1  0.21710826  0.37053530  0.33746689  1.0
  Ni  Ni389  1  0.21710826  0.70386864  0.33746689  1.0
  Ni  Ni390  1  0.55044160  0.03720197  0.33746689  1.0
  Ni  Ni391  1  0.55044160  0.37053530  0.33746689  1.0
  Ni  Ni392  1  0.55044160  0.70386864  0.33746689  1.0
  Ni  Ni393  1  0.88377493  0.03720197  0.33746689  1.0
  Ni  Ni394  1  0.88377493  0.37053530  0.33746689  1.0
  Ni  Ni395  1  0.88377493  0.70386864  0.33746689  1.0
  Ni  Ni396  1  0.21631337  0.16286426  0.36259934  1.0
  Ni  Ni397  1  0.21631337  0.49619759  0.36259934  1.0
  Ni  Ni398  1  0.21631337  0.82953093  0.36259934  1.0
  Ni  Ni399  1  0.54964671  0.16286426  0.36259934  1.0
  Ni  Ni400  1  0.54964671  0.49619759  0.36259934  1.0
  Ni  Ni401  1  0.54964671  0.82953093  0.36259934  1.0
  Ni  Ni402  1  0.88298004  0.16286426  0.36259934  1.0
  Ni  Ni403  1  0.88298004  0.49619759  0.36259934  1.0
  Ni  Ni404  1  0.88298004  0.82953093  0.36259934  1.0
  Ni  Ni405  1  0.10520226  0.03786426  0.40426601  1.0
  Ni  Ni406  1  0.10520226  0.37119759  0.40426601  1.0
  Ni  Ni407  1  0.10520226  0.70453093  0.40426601  1.0
  Ni  Ni408  1  0.43853560  0.03786426  0.40426601  1.0
  Ni  Ni409  1  0.43853560  0.37119759  0.40426601  1.0
  Ni  Ni410  1  0.43853560  0.70453093  0.40426601  1.0
  Ni  Ni411  1  0.77186893  0.03786426  0.40426601  1.0
  Ni  Ni412  1  0.77186893  0.37119759  0.40426601  1.0
  Ni  Ni413  1  0.77186893  0.70453093  0.40426601  1.0
  Ni  Ni414  1  0.21716704  0.28767114  0.38756072  1.0
  Ni  Ni415  1  0.21716704  0.62100447  0.38756072  1.0
  Ni  Ni416  1  0.21716704  0.95433780  0.38756072  1.0
  Ni  Ni417  1  0.55050038  0.28767114  0.38756072  1.0
  Ni  Ni418  1  0.55050037  0.62100447  0.38756072  1.0
  Ni  Ni419  1  0.55050037  0.95433780  0.38756072  1.0
  Ni  Ni420  1  0.88383371  0.28767114  0.38756072  1.0
  Ni  Ni421  1  0.88383371  0.62100447  0.38756072  1.0
  Ni  Ni422  1  0.88383371  0.95433780  0.38756072  1.0
  Ni  Ni423  1  0.32827815  0.07933780  0.34589405  1.0
  Ni  Ni424  1  0.32827815  0.41267114  0.34589405  1.0
  Ni  Ni425  1  0.32827815  0.74600447  0.34589405  1.0
  Ni  Ni426  1  0.66161149  0.07933780  0.34589405  1.0
  Ni  Ni427  1  0.66161149  0.41267114  0.34589405  1.0
  Ni  Ni428  1  0.66161149  0.74600447  0.34589405  1.0
  Ni  Ni429  1  0.99494482  0.07933780  0.34589405  1.0
  Ni  Ni430  1  0.99494482  0.41267114  0.34589405  1.0
  Ni  Ni431  1  0.99494482  0.74600447  0.34589405  1.0
  Ni  Ni432  1  0.10514349  0.12072843  0.35417218  1.0
  Ni  Ni433  1  0.10514349  0.45406176  0.35417218  1.0
  Ni  Ni434  1  0.10514349  0.78739509  0.35417218  1.0
  Ni  Ni435  1  0.43847682  0.12072843  0.35417218  1.0
  Ni  Ni436  1  0.43847682  0.45406176  0.35417218  1.0
  Ni  Ni437  1  0.43847682  0.78739509  0.35417218  1.0
  Ni  Ni438  1  0.77181015  0.12072843  0.35417218  1.0
  Ni  Ni439  1  0.77181015  0.45406176  0.35417218  1.0
  Ni  Ni440  1  0.77181015  0.78739509  0.35417218  1.0
  Ni  Ni441  1  0.32736571  0.32906176  0.39583884  1.0
  Ni  Ni442  1  0.32736571  0.66239509  0.39583884  1.0
  Ni  Ni443  1  0.32736571  0.99572843  0.39583884  1.0
  Ni  Ni444  1  0.66069904  0.32906176  0.39583884  1.0
  Ni  Ni445  1  0.66069904  0.66239509  0.39583884  1.0
  Ni  Ni446  1  0.66069904  0.99572843  0.39583884  1.0
  Ni  Ni447  1  0.99403237  0.32906176  0.39583884  1.0
  Ni  Ni448  1  0.99403237  0.66239509  0.39583884  1.0
  Ni  Ni449  1  0.99403237  0.99572843  0.39583884  1.0
