# generated using pymatgen
data_Ni4Mo
_symmetry_space_group_name_H-M   'P 1'
_cell_length_a   24.27172521
_cell_length_b   31.50255757
_cell_length_c   79.53685380
_cell_angle_alpha   81.47015123
_cell_angle_beta   23.72462377
_cell_angle_gamma   67.34171947
_symmetry_Int_Tables_number   1
_chemical_formula_structural   Ni4Mo
_chemical_formula_sum   'Ni504 Mo126'
_cell_volume   18852.29698512
_cell_formula_units_Z   126
loop_
 _symmetry_equiv_pos_site_id
 _symmetry_equiv_pos_as_xyz
  1  'x, y, z'
loop_
 _atom_site_type_symbol
 _atom_site_label
 _atom_site_symmetry_multiplicity
 _atom_site_fract_x
 _atom_site_fract_y
 _atom_site_fract_z
 _atom_site_occupancy
  Ni  Ni0  1  0.19909483  0.20037533  0.04181571  1.0
  Ni  Ni1  1  0.19909483  0.53370867  0.04181571  1.0
  Ni  Ni2  1  0.19909483  0.86704200  0.04181571  1.0
  Ni  Ni3  1  0.53242817  0.20037533  0.04181571  1.0
  Ni  Ni4  1  0.53242817  0.53370867  0.04181571  1.0
  Ni  Ni5  1  0.53242817  0.86704200  0.04181571  1.0
  Ni  Ni6  1  0.86576150  0.20037533  0.04181571  1.0
  Ni  Ni7  1  0.86576150  0.53370867  0.04181571  1.0
  Ni  Ni8  1  0.86576150  0.86704200  0.04181571  1.0
  Ni  Ni9  1  0.03242817  0.03370867  0.01403793  1.0
  Ni  Ni10  1  0.03242817  0.36704200  0.01403793  1.0
  Ni  Ni11  1  0.03242817  0.70037533  0.01403793  1.0
  Ni  Ni12  1  0.36576150  0.03370867  0.01403793  1.0
  Ni  Ni13  1  0.36576150  0.36704200  0.01403793  1.0
  Ni  Ni14  1  0.36576150  0.70037533  0.01403793  1.0
  Ni  Ni15  1  0.69909483  0.03370867  0.01403793  1.0
  Ni  Ni16  1  0.69909483  0.36704200  0.01403793  1.0
  Ni  Ni17  1  0.69909483  0.70037533  0.01403793  1.0
  Ni  Ni18  1  0.30090517  0.29962467  0.03588482  1.0
  Ni  Ni19  1  0.30090517  0.63295800  0.03588482  1.0
  Ni  Ni20  1  0.30090517  0.96629133  0.03588482  1.0
  Ni  Ni21  1  0.63423850  0.29962467  0.03588482  1.0
  Ni  Ni22  1  0.63423850  0.63295800  0.03588482  1.0
  Ni  Ni23  1  0.63423850  0.96629133  0.03588482  1.0
  Ni  Ni24  1  0.96757183  0.29962467  0.03588482  1.0
  Ni  Ni25  1  0.96757183  0.63295800  0.03588482  1.0
  Ni  Ni26  1  0.96757183  0.96629133  0.03588482  1.0
  Ni  Ni27  1  0.13423850  0.13295800  0.00810704  1.0
  Ni  Ni28  1  0.13423850  0.46629133  0.00810704  1.0
  Ni  Ni29  1  0.13423850  0.79962467  0.00810704  1.0
  Ni  Ni30  1  0.46757183  0.13295800  0.00810704  1.0
  Ni  Ni31  1  0.46757183  0.46629133  0.00810704  1.0
  Ni  Ni32  1  0.46757183  0.79962467  0.00810704  1.0
  Ni  Ni33  1  0.80090517  0.13295800  0.00810704  1.0
  Ni  Ni34  1  0.80090517  0.46629133  0.00810704  1.0
  Ni  Ni35  1  0.80090517  0.79962467  0.00810704  1.0
  Ni  Ni36  1  0.23339967  0.23348783  0.00281640  1.0
  Ni  Ni37  1  0.23339967  0.56682117  0.00281640  1.0
  Ni  Ni38  1  0.23339967  0.90015450  0.00281640  1.0
  Ni  Ni39  1  0.56673300  0.23348783  0.00281640  1.0
  Ni  Ni40  1  0.56673300  0.56682117  0.00281640  1.0
  Ni  Ni41  1  0.56673300  0.90015450  0.00281640  1.0
  Ni  Ni42  1  0.90006633  0.23348783  0.00281640  1.0
  Ni  Ni43  1  0.90006633  0.56682117  0.00281640  1.0
  Ni  Ni44  1  0.90006633  0.90015450  0.00281640  1.0
  Ni  Ni45  1  0.06673300  0.06682117  0.03059418  1.0
  Ni  Ni46  1  0.06673300  0.40015450  0.03059418  1.0
  Ni  Ni47  1  0.06673300  0.73348783  0.03059418  1.0
  Ni  Ni48  1  0.40006633  0.06682117  0.03059418  1.0
  Ni  Ni49  1  0.40006633  0.40015450  0.03059418  1.0
  Ni  Ni50  1  0.40006633  0.73348783  0.03059418  1.0
  Ni  Ni51  1  0.73339967  0.06682117  0.03059418  1.0
  Ni  Ni52  1  0.73339967  0.40015450  0.03059418  1.0
  Ni  Ni53  1  0.73339967  0.73348783  0.03059418  1.0
  Ni  Ni54  1  0.26660033  0.26651217  0.01932857  1.0
  Ni  Ni55  1  0.26660033  0.59984550  0.01932857  1.0
  Ni  Ni56  1  0.26660033  0.93317883  0.01932857  1.0
  Ni  Ni57  1  0.59993367  0.26651217  0.01932857  1.0
  Ni  Ni58  1  0.59993367  0.59984550  0.01932857  1.0
  Ni  Ni59  1  0.59993367  0.93317883  0.01932857  1.0
  Ni  Ni60  1  0.93326700  0.26651217  0.01932857  1.0
  Ni  Ni61  1  0.93326700  0.59984550  0.01932857  1.0
  Ni  Ni62  1  0.93326700  0.93317883  0.01932857  1.0
  Ni  Ni63  1  0.09993367  0.09984550  0.04710635  1.0
  Ni  Ni64  1  0.09993367  0.43317883  0.04710635  1.0
  Ni  Ni65  1  0.09993367  0.76651217  0.04710635  1.0
  Ni  Ni66  1  0.43326700  0.09984550  0.04710635  1.0
  Ni  Ni67  1  0.43326700  0.43317883  0.04710635  1.0
  Ni  Ni68  1  0.43326700  0.76651217  0.04710635  1.0
  Ni  Ni69  1  0.76660033  0.09984550  0.04710635  1.0
  Ni  Ni70  1  0.76660033  0.43317883  0.04710635  1.0
  Ni  Ni71  1  0.76660033  0.76651217  0.04710635  1.0
  Mo  Mo72  1  0.16666667  0.16666667  0.02496137  1.0
  Mo  Mo73  1  0.16666667  0.50000000  0.02496137  1.0
  Mo  Mo74  1  0.16666667  0.83333333  0.02496138  1.0
  Mo  Mo75  1  0.50000000  0.16666667  0.02496137  1.0
  Mo  Mo76  1  0.50000000  0.50000000  0.02496138  1.0
  Mo  Mo77  1  0.50000000  0.83333333  0.02496138  1.0
  Mo  Mo78  1  0.83333333  0.16666667  0.02496138  1.0
  Mo  Mo79  1  0.83333333  0.50000000  0.02496137  1.0
  Mo  Mo80  1  0.83333333  0.83333333  0.02496138  1.0
  Mo  Mo81  1  0.00000000  0.00000000  0.05273915  1.0
  Mo  Mo82  1  0.00000000  0.33333333  0.05273915  1.0
  Mo  Mo83  1  0.00000000  0.66666667  0.05273915  1.0
  Mo  Mo84  1  0.33333333  0.00000000  0.05273915  1.0
  Mo  Mo85  1  0.33333333  0.33333333  0.05273915  1.0
  Mo  Mo86  1  0.33333333  0.66666667  0.05273915  1.0
  Mo  Mo87  1  0.66666667  0.00000000  0.05273915  1.0
  Mo  Mo88  1  0.66666667  0.33333333  0.05273915  1.0
  Mo  Mo89  1  0.66666667  0.66666667  0.05273915  1.0
  Ni  Ni90  1  0.19909483  0.20037533  0.09737126  1.0
  Ni  Ni91  1  0.19909483  0.53370867  0.09737126  1.0
  Ni  Ni92  1  0.19909483  0.86704200  0.09737126  1.0
  Ni  Ni93  1  0.53242817  0.20037533  0.09737126  1.0
  Ni  Ni94  1  0.53242817  0.53370867  0.09737126  1.0
  Ni  Ni95  1  0.53242817  0.86704200  0.09737126  1.0
  Ni  Ni96  1  0.86576150  0.20037533  0.09737126  1.0
  Ni  Ni97  1  0.86576150  0.53370867  0.09737126  1.0
  Ni  Ni98  1  0.86576150  0.86704200  0.09737126  1.0
  Ni  Ni99  1  0.03242817  0.03370867  0.06959349  1.0
  Ni  Ni100  1  0.03242817  0.36704200  0.06959349  1.0
  Ni  Ni101  1  0.03242817  0.70037533  0.06959349  1.0
  Ni  Ni102  1  0.36576150  0.03370867  0.06959349  1.0
  Ni  Ni103  1  0.36576150  0.36704200  0.06959349  1.0
  Ni  Ni104  1  0.36576150  0.70037533  0.06959349  1.0
  Ni  Ni105  1  0.69909483  0.03370867  0.06959349  1.0
  Ni  Ni106  1  0.69909483  0.36704200  0.06959349  1.0
  Ni  Ni107  1  0.69909483  0.70037533  0.06959349  1.0
  Ni  Ni108  1  0.30090517  0.29962467  0.09144037  1.0
  Ni  Ni109  1  0.30090517  0.63295800  0.09144037  1.0
  Ni  Ni110  1  0.30090517  0.96629133  0.09144038  1.0
  Ni  Ni111  1  0.63423850  0.29962467  0.09144037  1.0
  Ni  Ni112  1  0.63423850  0.63295800  0.09144037  1.0
  Ni  Ni113  1  0.63423850  0.96629133  0.09144038  1.0
  Ni  Ni114  1  0.96757183  0.29962467  0.09144037  1.0
  Ni  Ni115  1  0.96757183  0.63295800  0.09144037  1.0
  Ni  Ni116  1  0.96757183  0.96629133  0.09144038  1.0
  Ni  Ni117  1  0.13423850  0.13295800  0.06366260  1.0
  Ni  Ni118  1  0.13423850  0.46629133  0.06366260  1.0
  Ni  Ni119  1  0.13423850  0.79962467  0.06366260  1.0
  Ni  Ni120  1  0.46757183  0.13295800  0.06366260  1.0
  Ni  Ni121  1  0.46757183  0.46629133  0.06366260  1.0
  Ni  Ni122  1  0.46757183  0.79962467  0.06366260  1.0
  Ni  Ni123  1  0.80090517  0.13295800  0.06366260  1.0
  Ni  Ni124  1  0.80090517  0.46629133  0.06366260  1.0
  Ni  Ni125  1  0.80090517  0.79962467  0.06366260  1.0
  Ni  Ni126  1  0.23339967  0.23348783  0.05837196  1.0
  Ni  Ni127  1  0.23339967  0.56682117  0.05837196  1.0
  Ni  Ni128  1  0.23339967  0.90015450  0.05837196  1.0
  Ni  Ni129  1  0.56673300  0.23348783  0.05837196  1.0
  Ni  Ni130  1  0.56673300  0.56682117  0.05837196  1.0
  Ni  Ni131  1  0.56673300  0.90015450  0.05837196  1.0
  Ni  Ni132  1  0.90006633  0.23348783  0.05837196  1.0
  Ni  Ni133  1  0.90006633  0.56682117  0.05837196  1.0
  Ni  Ni134  1  0.90006633  0.90015450  0.05837196  1.0
  Ni  Ni135  1  0.06673300  0.06682117  0.08614974  1.0
  Ni  Ni136  1  0.06673300  0.40015450  0.08614974  1.0
  Ni  Ni137  1  0.06673300  0.73348783  0.08614974  1.0
  Ni  Ni138  1  0.40006633  0.06682117  0.08614974  1.0
  Ni  Ni139  1  0.40006633  0.40015450  0.08614974  1.0
  Ni  Ni140  1  0.40006633  0.73348783  0.08614974  1.0
  Ni  Ni141  1  0.73339967  0.06682117  0.08614974  1.0
  Ni  Ni142  1  0.73339967  0.40015450  0.08614974  1.0
  Ni  Ni143  1  0.73339967  0.73348783  0.08614974  1.0
  Ni  Ni144  1  0.26660033  0.26651217  0.07488412  1.0
  Ni  Ni145  1  0.26660033  0.59984550  0.07488412  1.0
  Ni  Ni146  1  0.26660033  0.93317883  0.07488412  1.0
  Ni  Ni147  1  0.59993367  0.26651217  0.07488412  1.0
  Ni  Ni148  1  0.59993367  0.59984550  0.07488413  1.0
  Ni  Ni149  1  0.59993367  0.93317883  0.07488412  1.0
  Ni  Ni150  1  0.93326700  0.26651217  0.07488412  1.0
  Ni  Ni151  1  0.93326700  0.59984550  0.07488412  1.0
  Ni  Ni152  1  0.93326700  0.93317883  0.07488412  1.0
  Ni  Ni153  1  0.09993367  0.09984550  0.10266190  1.0
  Ni  Ni154  1  0.09993367  0.43317883  0.10266190  1.0
  Ni  Ni155  1  0.09993367  0.76651217  0.10266190  1.0
  Ni  Ni156  1  0.43326700  0.09984550  0.10266190  1.0
  Ni  Ni157  1  0.43326700  0.43317883  0.10266190  1.0
  Ni  Ni158  1  0.43326700  0.76651217  0.10266190  1.0
  Ni  Ni159  1  0.76660033  0.09984550  0.10266190  1.0
  Ni  Ni160  1  0.76660033  0.43317883  0.10266190  1.0
  Ni  Ni161  1  0.76660033  0.76651217  0.10266190  1.0
  Mo  Mo162  1  0.16666667  0.16666667  0.08051693  1.0
  Mo  Mo163  1  0.16666667  0.50000000  0.08051693  1.0
  Mo  Mo164  1  0.16666667  0.83333333  0.08051693  1.0
  Mo  Mo165  1  0.50000000  0.16666667  0.08051693  1.0
  Mo  Mo166  1  0.50000000  0.50000000  0.08051693  1.0
  Mo  Mo167  1  0.50000000  0.83333333  0.08051693  1.0
  Mo  Mo168  1  0.83333333  0.16666667  0.08051693  1.0
  Mo  Mo169  1  0.83333333  0.50000000  0.08051693  1.0
  Mo  Mo170  1  0.83333333  0.83333333  0.08051693  1.0
  Mo  Mo171  1  0.00000000  0.00000000  0.10829471  1.0
  Mo  Mo172  1  0.00000000  0.33333333  0.10829471  1.0
  Mo  Mo173  1  0.00000000  0.66666667  0.10829471  1.0
  Mo  Mo174  1  0.33333333  0.00000000  0.10829471  1.0
  Mo  Mo175  1  0.33333333  0.33333333  0.10829471  1.0
  Mo  Mo176  1  0.33333333  0.66666667  0.10829471  1.0
  Mo  Mo177  1  0.66666667  0.00000000  0.10829471  1.0
  Mo  Mo178  1  0.66666667  0.33333333  0.10829471  1.0
  Mo  Mo179  1  0.66666667  0.66666667  0.10829471  1.0
  Ni  Ni180  1  0.19909483  0.20037533  0.15292682  1.0
  Ni  Ni181  1  0.19909483  0.53370867  0.15292682  1.0
  Ni  Ni182  1  0.19909483  0.86704200  0.15292682  1.0
  Ni  Ni183  1  0.53242817  0.20037533  0.15292682  1.0
  Ni  Ni184  1  0.53242817  0.53370867  0.15292682  1.0
  Ni  Ni185  1  0.53242817  0.86704200  0.15292682  1.0
  Ni  Ni186  1  0.86576150  0.20037533  0.15292682  1.0
  Ni  Ni187  1  0.86576150  0.53370867  0.15292682  1.0
  Ni  Ni188  1  0.86576150  0.86704200  0.15292682  1.0
  Ni  Ni189  1  0.03242817  0.03370867  0.12514904  1.0
  Ni  Ni190  1  0.03242817  0.36704200  0.12514904  1.0
  Ni  Ni191  1  0.03242817  0.70037533  0.12514904  1.0
  Ni  Ni192  1  0.36576150  0.03370867  0.12514904  1.0
  Ni  Ni193  1  0.36576150  0.36704200  0.12514904  1.0
  Ni  Ni194  1  0.36576150  0.70037533  0.12514904  1.0
  Ni  Ni195  1  0.69909483  0.03370867  0.12514904  1.0
  Ni  Ni196  1  0.69909483  0.36704200  0.12514904  1.0
  Ni  Ni197  1  0.69909483  0.70037533  0.12514904  1.0
  Ni  Ni198  1  0.30090517  0.29962467  0.14699593  1.0
  Ni  Ni199  1  0.30090517  0.63295800  0.14699593  1.0
  Ni  Ni200  1  0.30090517  0.96629133  0.14699593  1.0
  Ni  Ni201  1  0.63423850  0.29962467  0.14699593  1.0
  Ni  Ni202  1  0.63423850  0.63295800  0.14699593  1.0
  Ni  Ni203  1  0.63423850  0.96629133  0.14699593  1.0
  Ni  Ni204  1  0.96757183  0.29962467  0.14699593  1.0
  Ni  Ni205  1  0.96757183  0.63295800  0.14699593  1.0
  Ni  Ni206  1  0.96757183  0.96629133  0.14699593  1.0
  Ni  Ni207  1  0.13423850  0.13295800  0.11921815  1.0
  Ni  Ni208  1  0.13423850  0.46629133  0.11921815  1.0
  Ni  Ni209  1  0.13423850  0.79962467  0.11921815  1.0
  Ni  Ni210  1  0.46757183  0.13295800  0.11921815  1.0
  Ni  Ni211  1  0.46757183  0.46629133  0.11921815  1.0
  Ni  Ni212  1  0.46757183  0.79962467  0.11921815  1.0
  Ni  Ni213  1  0.80090517  0.13295800  0.11921815  1.0
  Ni  Ni214  1  0.80090517  0.46629133  0.11921815  1.0
  Ni  Ni215  1  0.80090517  0.79962467  0.11921815  1.0
  Ni  Ni216  1  0.23339967  0.23348783  0.11392751  1.0
  Ni  Ni217  1  0.23339967  0.56682117  0.11392751  1.0
  Ni  Ni218  1  0.23339967  0.90015450  0.11392751  1.0
  Ni  Ni219  1  0.56673300  0.23348783  0.11392751  1.0
  Ni  Ni220  1  0.56673300  0.56682117  0.11392751  1.0
  Ni  Ni221  1  0.56673300  0.90015450  0.11392751  1.0
  Ni  Ni222  1  0.90006633  0.23348783  0.11392751  1.0
  Ni  Ni223  1  0.90006633  0.56682117  0.11392751  1.0
  Ni  Ni224  1  0.90006633  0.90015450  0.11392751  1.0
  Ni  Ni225  1  0.06673300  0.06682117  0.14170529  1.0
  Ni  Ni226  1  0.06673300  0.40015450  0.14170529  1.0
  Ni  Ni227  1  0.06673300  0.73348783  0.14170529  1.0
  Ni  Ni228  1  0.40006633  0.06682117  0.14170529  1.0
  Ni  Ni229  1  0.40006633  0.40015450  0.14170529  1.0
  Ni  Ni230  1  0.40006633  0.73348783  0.14170529  1.0
  Ni  Ni231  1  0.73339967  0.06682117  0.14170529  1.0
  Ni  Ni232  1  0.73339967  0.40015450  0.14170529  1.0
  Ni  Ni233  1  0.73339967  0.73348783  0.14170529  1.0
  Ni  Ni234  1  0.26660033  0.26651217  0.13043968  1.0
  Ni  Ni235  1  0.26660033  0.59984550  0.13043968  1.0
  Ni  Ni236  1  0.26660033  0.93317883  0.13043968  1.0
  Ni  Ni237  1  0.59993367  0.26651217  0.13043968  1.0
  Ni  Ni238  1  0.59993367  0.59984550  0.13043968  1.0
  Ni  Ni239  1  0.59993367  0.93317883  0.13043968  1.0
  Ni  Ni240  1  0.93326700  0.26651217  0.13043968  1.0
  Ni  Ni241  1  0.93326700  0.59984550  0.13043968  1.0
  Ni  Ni242  1  0.93326700  0.93317883  0.13043968  1.0
  Ni  Ni243  1  0.09993367  0.09984550  0.15821746  1.0
  Ni  Ni244  1  0.09993367  0.43317883  0.15821746  1.0
  Ni  Ni245  1  0.09993367  0.76651217  0.15821746  1.0
  Ni  Ni246  1  0.43326700  0.09984550  0.15821746  1.0
  Ni  Ni247  1  0.43326700  0.43317883  0.15821746  1.0
  Ni  Ni248  1  0.43326700  0.76651217  0.15821746  1.0
  Ni  Ni249  1  0.76660033  0.09984550  0.15821746  1.0
  Ni  Ni250  1  0.76660033  0.43317883  0.15821746  1.0
  Ni  Ni251  1  0.76660033  0.76651217  0.15821746  1.0
  Mo  Mo252  1  0.16666667  0.16666667  0.13607249  1.0
  Mo  Mo253  1  0.16666667  0.50000000  0.13607249  1.0
  Mo  Mo254  1  0.16666667  0.83333333  0.13607249  1.0
  Mo  Mo255  1  0.50000000  0.16666667  0.13607249  1.0
  Mo  Mo256  1  0.50000000  0.50000000  0.13607249  1.0
  Mo  Mo257  1  0.50000000  0.83333333  0.13607249  1.0
  Mo  Mo258  1  0.83333333  0.16666667  0.13607249  1.0
  Mo  Mo259  1  0.83333333  0.50000000  0.13607249  1.0
  Mo  Mo260  1  0.83333333  0.83333333  0.13607249  1.0
  Mo  Mo261  1  0.00000000  0.00000000  0.16385026  1.0
  Mo  Mo262  1  0.00000000  0.33333333  0.16385026  1.0
  Mo  Mo263  1  0.00000000  0.66666667  0.16385026  1.0
  Mo  Mo264  1  0.33333333  0.00000000  0.16385026  1.0
  Mo  Mo265  1  0.33333333  0.33333333  0.16385026  1.0
  Mo  Mo266  1  0.33333333  0.66666667  0.16385026  1.0
  Mo  Mo267  1  0.66666667  0.00000000  0.16385026  1.0
  Mo  Mo268  1  0.66666667  0.33333333  0.16385026  1.0
  Mo  Mo269  1  0.66666667  0.66666667  0.16385026  1.0
  Ni  Ni270  1  0.19909483  0.20037533  0.20848238  1.0
  Ni  Ni271  1  0.19909483  0.53370867  0.20848237  1.0
  Ni  Ni272  1  0.19909483  0.86704200  0.20848237  1.0
  Ni  Ni273  1  0.53242817  0.20037533  0.20848237  1.0
  Ni  Ni274  1  0.53242817  0.53370867  0.20848238  1.0
  Ni  Ni275  1  0.53242817  0.86704200  0.20848238  1.0
  Ni  Ni276  1  0.86576150  0.20037533  0.20848238  1.0
  Ni  Ni277  1  0.86576150  0.53370867  0.20848237  1.0
  Ni  Ni278  1  0.86576150  0.86704200  0.20848238  1.0
  Ni  Ni279  1  0.03242817  0.03370867  0.18070460  1.0
  Ni  Ni280  1  0.03242817  0.36704200  0.18070460  1.0
  Ni  Ni281  1  0.03242817  0.70037533  0.18070460  1.0
  Ni  Ni282  1  0.36576150  0.03370867  0.18070460  1.0
  Ni  Ni283  1  0.36576150  0.36704200  0.18070460  1.0
  Ni  Ni284  1  0.36576150  0.70037533  0.18070460  1.0
  Ni  Ni285  1  0.69909483  0.03370867  0.18070460  1.0
  Ni  Ni286  1  0.69909483  0.36704200  0.18070460  1.0
  Ni  Ni287  1  0.69909483  0.70037533  0.18070460  1.0
  Ni  Ni288  1  0.30090517  0.29962467  0.20255149  1.0
  Ni  Ni289  1  0.30090517  0.63295800  0.20255149  1.0
  Ni  Ni290  1  0.30090517  0.96629133  0.20255149  1.0
  Ni  Ni291  1  0.63423850  0.29962467  0.20255149  1.0
  Ni  Ni292  1  0.63423850  0.63295800  0.20255149  1.0
  Ni  Ni293  1  0.63423850  0.96629133  0.20255149  1.0
  Ni  Ni294  1  0.96757183  0.29962467  0.20255149  1.0
  Ni  Ni295  1  0.96757183  0.63295800  0.20255149  1.0
  Ni  Ni296  1  0.96757183  0.96629133  0.20255149  1.0
  Ni  Ni297  1  0.13423850  0.13295800  0.17477371  1.0
  Ni  Ni298  1  0.13423850  0.46629133  0.17477371  1.0
  Ni  Ni299  1  0.13423850  0.79962467  0.17477371  1.0
  Ni  Ni300  1  0.46757183  0.13295800  0.17477371  1.0
  Ni  Ni301  1  0.46757183  0.46629133  0.17477371  1.0
  Ni  Ni302  1  0.46757183  0.79962467  0.17477371  1.0
  Ni  Ni303  1  0.80090517  0.13295800  0.17477371  1.0
  Ni  Ni304  1  0.80090517  0.46629133  0.17477371  1.0
  Ni  Ni305  1  0.80090517  0.79962467  0.17477371  1.0
  Ni  Ni306  1  0.23339967  0.23348783  0.16948307  1.0
  Ni  Ni307  1  0.23339967  0.56682117  0.16948307  1.0
  Ni  Ni308  1  0.23339967  0.90015450  0.16948307  1.0
  Ni  Ni309  1  0.56673300  0.23348783  0.16948307  1.0
  Ni  Ni310  1  0.56673300  0.56682117  0.16948307  1.0
  Ni  Ni311  1  0.56673300  0.90015450  0.16948307  1.0
  Ni  Ni312  1  0.90006633  0.23348783  0.16948307  1.0
  Ni  Ni313  1  0.90006633  0.56682117  0.16948307  1.0
  Ni  Ni314  1  0.90006633  0.90015450  0.16948307  1.0
  Ni  Ni315  1  0.06673300  0.06682117  0.19726085  1.0
  Ni  Ni316  1  0.06673300  0.40015450  0.19726085  1.0
  Ni  Ni317  1  0.06673300  0.73348783  0.19726085  1.0
  Ni  Ni318  1  0.40006633  0.06682117  0.19726085  1.0
  Ni  Ni319  1  0.40006633  0.40015450  0.19726085  1.0
  Ni  Ni320  1  0.40006633  0.73348783  0.19726085  1.0
  Ni  Ni321  1  0.73339967  0.06682117  0.19726085  1.0
  Ni  Ni322  1  0.73339967  0.40015450  0.19726085  1.0
  Ni  Ni323  1  0.73339967  0.73348783  0.19726085  1.0
  Ni  Ni324  1  0.26660033  0.26651217  0.18599524  1.0
  Ni  Ni325  1  0.26660033  0.59984550  0.18599524  1.0
  Ni  Ni326  1  0.26660033  0.93317883  0.18599524  1.0
  Ni  Ni327  1  0.59993367  0.26651217  0.18599524  1.0
  Ni  Ni328  1  0.59993367  0.59984550  0.18599524  1.0
  Ni  Ni329  1  0.59993367  0.93317883  0.18599524  1.0
  Ni  Ni330  1  0.93326700  0.26651217  0.18599524  1.0
  Ni  Ni331  1  0.93326700  0.59984550  0.18599524  1.0
  Ni  Ni332  1  0.93326700  0.93317883  0.18599524  1.0
  Ni  Ni333  1  0.09993367  0.09984550  0.21377301  1.0
  Ni  Ni334  1  0.09993367  0.43317883  0.21377301  1.0
  Ni  Ni335  1  0.09993367  0.76651217  0.21377301  1.0
  Ni  Ni336  1  0.43326700  0.09984550  0.21377301  1.0
  Ni  Ni337  1  0.43326700  0.43317883  0.21377301  1.0
  Ni  Ni338  1  0.43326700  0.76651217  0.21377301  1.0
  Ni  Ni339  1  0.76660033  0.09984550  0.21377301  1.0
  Ni  Ni340  1  0.76660033  0.43317883  0.21377301  1.0
  Ni  Ni341  1  0.76660033  0.76651217  0.21377301  1.0
  Mo  Mo342  1  0.16666667  0.16666667  0.19162804  1.0
  Mo  Mo343  1  0.16666667  0.50000000  0.19162804  1.0
  Mo  Mo344  1  0.16666667  0.83333333  0.19162804  1.0
  Mo  Mo345  1  0.50000000  0.16666667  0.19162804  1.0
  Mo  Mo346  1  0.50000000  0.50000000  0.19162804  1.0
  Mo  Mo347  1  0.50000000  0.83333333  0.19162804  1.0
  Mo  Mo348  1  0.83333333  0.16666667  0.19162804  1.0
  Mo  Mo349  1  0.83333333  0.50000000  0.19162804  1.0
  Mo  Mo350  1  0.83333333  0.83333333  0.19162804  1.0
  Mo  Mo351  1  0.00000000  0.00000000  0.21940582  1.0
  Mo  Mo352  1  0.00000000  0.33333333  0.21940582  1.0
  Mo  Mo353  1  0.00000000  0.66666667  0.21940582  1.0
  Mo  Mo354  1  0.33333333  0.00000000  0.21940582  1.0
  Mo  Mo355  1  0.33333333  0.33333333  0.21940582  1.0
  Mo  Mo356  1  0.33333333  0.66666667  0.21940582  1.0
  Mo  Mo357  1  0.66666667  0.00000000  0.21940582  1.0
  Mo  Mo358  1  0.66666667  0.33333333  0.21940582  1.0
  Mo  Mo359  1  0.66666667  0.66666667  0.21940582  1.0
  Ni  Ni360  1  0.19909483  0.20037533  0.26403793  1.0
  Ni  Ni361  1  0.19909483  0.53370867  0.26403793  1.0
  Ni  Ni362  1  0.19909483  0.86704200  0.26403793  1.0
  Ni  Ni363  1  0.53242817  0.20037533  0.26403793  1.0
  Ni  Ni364  1  0.53242817  0.53370867  0.26403793  1.0
  Ni  Ni365  1  0.53242817  0.86704200  0.26403793  1.0
  Ni  Ni366  1  0.86576150  0.20037533  0.26403793  1.0
  Ni  Ni367  1  0.86576150  0.53370867  0.26403793  1.0
  Ni  Ni368  1  0.86576150  0.86704200  0.26403793  1.0
  Ni  Ni369  1  0.03242817  0.03370867  0.23626015  1.0
  Ni  Ni370  1  0.03242817  0.36704200  0.23626015  1.0
  Ni  Ni371  1  0.03242817  0.70037533  0.23626015  1.0
  Ni  Ni372  1  0.36576150  0.03370867  0.23626015  1.0
  Ni  Ni373  1  0.36576150  0.36704200  0.23626015  1.0
  Ni  Ni374  1  0.36576150  0.70037533  0.23626015  1.0
  Ni  Ni375  1  0.69909483  0.03370867  0.23626015  1.0
  Ni  Ni376  1  0.69909483  0.36704200  0.23626015  1.0
  Ni  Ni377  1  0.69909483  0.70037533  0.23626015  1.0
  Ni  Ni378  1  0.30090517  0.29962467  0.25810704  1.0
  Ni  Ni379  1  0.30090517  0.63295800  0.25810704  1.0
  Ni  Ni380  1  0.30090517  0.96629133  0.25810704  1.0
  Ni  Ni381  1  0.63423850  0.29962467  0.25810704  1.0
  Ni  Ni382  1  0.63423850  0.63295800  0.25810704  1.0
  Ni  Ni383  1  0.63423850  0.96629133  0.25810704  1.0
  Ni  Ni384  1  0.96757183  0.29962467  0.25810704  1.0
  Ni  Ni385  1  0.96757183  0.63295800  0.25810704  1.0
  Ni  Ni386  1  0.96757183  0.96629133  0.25810704  1.0
  Ni  Ni387  1  0.13423850  0.13295800  0.23032926  1.0
  Ni  Ni388  1  0.13423850  0.46629133  0.23032926  1.0
  Ni  Ni389  1  0.13423850  0.79962467  0.23032926  1.0
  Ni  Ni390  1  0.46757183  0.13295800  0.23032926  1.0
  Ni  Ni391  1  0.46757183  0.46629133  0.23032926  1.0
  Ni  Ni392  1  0.46757183  0.79962467  0.23032926  1.0
  Ni  Ni393  1  0.80090517  0.13295800  0.23032926  1.0
  Ni  Ni394  1  0.80090517  0.46629133  0.23032926  1.0
  Ni  Ni395  1  0.80090517  0.79962467  0.23032926  1.0
  Ni  Ni396  1  0.23339967  0.23348783  0.22503862  1.0
  Ni  Ni397  1  0.23339967  0.56682117  0.22503862  1.0
  Ni  Ni398  1  0.23339967  0.90015450  0.22503863  1.0
  Ni  Ni399  1  0.56673300  0.23348783  0.22503863  1.0
  Ni  Ni400  1  0.56673300  0.56682117  0.22503862  1.0
  Ni  Ni401  1  0.56673300  0.90015450  0.22503862  1.0
  Ni  Ni402  1  0.90006633  0.23348783  0.22503863  1.0
  Ni  Ni403  1  0.90006633  0.56682117  0.22503862  1.0
  Ni  Ni404  1  0.90006633  0.90015450  0.22503862  1.0
  Ni  Ni405  1  0.06673300  0.06682117  0.25281640  1.0
  Ni  Ni406  1  0.06673300  0.40015450  0.25281640  1.0
  Ni  Ni407  1  0.06673300  0.73348783  0.25281640  1.0
  Ni  Ni408  1  0.40006633  0.06682117  0.25281640  1.0
  Ni  Ni409  1  0.40006633  0.40015450  0.25281640  1.0
  Ni  Ni410  1  0.40006633  0.73348783  0.25281640  1.0
  Ni  Ni411  1  0.73339967  0.06682117  0.25281640  1.0
  Ni  Ni412  1  0.73339967  0.40015450  0.25281640  1.0
  Ni  Ni413  1  0.73339967  0.73348783  0.25281640  1.0
  Ni  Ni414  1  0.26660033  0.26651217  0.24155079  1.0
  Ni  Ni415  1  0.26660033  0.59984550  0.24155079  1.0
  Ni  Ni416  1  0.26660033  0.93317883  0.24155079  1.0
  Ni  Ni417  1  0.59993367  0.26651217  0.24155079  1.0
  Ni  Ni418  1  0.59993367  0.59984550  0.24155079  1.0
  Ni  Ni419  1  0.59993367  0.93317883  0.24155079  1.0
  Ni  Ni420  1  0.93326700  0.26651217  0.24155079  1.0
  Ni  Ni421  1  0.93326700  0.59984550  0.24155079  1.0
  Ni  Ni422  1  0.93326700  0.93317883  0.24155079  1.0
  Ni  Ni423  1  0.09993367  0.09984550  0.26932857  1.0
  Ni  Ni424  1  0.09993367  0.43317883  0.26932857  1.0
  Ni  Ni425  1  0.09993367  0.76651217  0.26932857  1.0
  Ni  Ni426  1  0.43326700  0.09984550  0.26932857  1.0
  Ni  Ni427  1  0.43326700  0.43317883  0.26932857  1.0
  Ni  Ni428  1  0.43326700  0.76651217  0.26932857  1.0
  Ni  Ni429  1  0.76660033  0.09984550  0.26932857  1.0
  Ni  Ni430  1  0.76660033  0.43317883  0.26932857  1.0
  Ni  Ni431  1  0.76660033  0.76651217  0.26932857  1.0
  Mo  Mo432  1  0.16666667  0.16666667  0.24718360  1.0
  Mo  Mo433  1  0.16666667  0.50000000  0.24718360  1.0
  Mo  Mo434  1  0.16666667  0.83333333  0.24718360  1.0
  Mo  Mo435  1  0.50000000  0.16666667  0.24718360  1.0
  Mo  Mo436  1  0.50000000  0.50000000  0.24718360  1.0
  Mo  Mo437  1  0.50000000  0.83333333  0.24718360  1.0
  Mo  Mo438  1  0.83333333  0.16666667  0.24718360  1.0
  Mo  Mo439  1  0.83333333  0.50000000  0.24718360  1.0
  Mo  Mo440  1  0.83333333  0.83333333  0.24718360  1.0
  Mo  Mo441  1  0.00000000  0.00000000  0.27496138  1.0
  Mo  Mo442  1  0.00000000  0.33333333  0.27496137  1.0
  Mo  Mo443  1  0.00000000  0.66666667  0.27496138  1.0
  Mo  Mo444  1  0.33333333  0.00000000  0.27496138  1.0
  Mo  Mo445  1  0.33333333  0.33333333  0.27496137  1.0
  Mo  Mo446  1  0.33333333  0.66666667  0.27496138  1.0
  Mo  Mo447  1  0.66666667  0.00000000  0.27496138  1.0
  Mo  Mo448  1  0.66666667  0.33333333  0.27496137  1.0
  Mo  Mo449  1  0.66666667  0.66666667  0.27496138  1.0
  Ni  Ni450  1  0.19909483  0.20037533  0.31959349  1.0
  Ni  Ni451  1  0.19909483  0.53370867  0.31959349  1.0
  Ni  Ni452  1  0.19909483  0.86704200  0.31959349  1.0
  Ni  Ni453  1  0.53242817  0.20037533  0.31959349  1.0
  Ni  Ni454  1  0.53242817  0.53370867  0.31959349  1.0
  Ni  Ni455  1  0.53242817  0.86704200  0.31959349  1.0
  Ni  Ni456  1  0.86576150  0.20037533  0.31959349  1.0
  Ni  Ni457  1  0.86576150  0.53370867  0.31959349  1.0
  Ni  Ni458  1  0.86576150  0.86704200  0.31959349  1.0
  Ni  Ni459  1  0.03242817  0.03370867  0.29181571  1.0
  Ni  Ni460  1  0.03242817  0.36704200  0.29181571  1.0
  Ni  Ni461  1  0.03242817  0.70037533  0.29181571  1.0
  Ni  Ni462  1  0.36576150  0.03370867  0.29181571  1.0
  Ni  Ni463  1  0.36576150  0.36704200  0.29181571  1.0
  Ni  Ni464  1  0.36576150  0.70037533  0.29181571  1.0
  Ni  Ni465  1  0.69909483  0.03370867  0.29181571  1.0
  Ni  Ni466  1  0.69909483  0.36704200  0.29181571  1.0
  Ni  Ni467  1  0.69909483  0.70037533  0.29181571  1.0
  Ni  Ni468  1  0.30090517  0.29962467  0.31366260  1.0
  Ni  Ni469  1  0.30090517  0.63295800  0.31366260  1.0
  Ni  Ni470  1  0.30090517  0.96629133  0.31366260  1.0
  Ni  Ni471  1  0.63423850  0.29962467  0.31366260  1.0
  Ni  Ni472  1  0.63423850  0.63295800  0.31366260  1.0
  Ni  Ni473  1  0.63423850  0.96629133  0.31366260  1.0
  Ni  Ni474  1  0.96757183  0.29962467  0.31366260  1.0
  Ni  Ni475  1  0.96757183  0.63295800  0.31366260  1.0
  Ni  Ni476  1  0.96757183  0.96629133  0.31366260  1.0
  Ni  Ni477  1  0.13423850  0.13295800  0.28588482  1.0
  Ni  Ni478  1  0.13423850  0.46629133  0.28588482  1.0
  Ni  Ni479  1  0.13423850  0.79962467  0.28588482  1.0
  Ni  Ni480  1  0.46757183  0.13295800  0.28588482  1.0
  Ni  Ni481  1  0.46757183  0.46629133  0.28588482  1.0
  Ni  Ni482  1  0.46757183  0.79962467  0.28588482  1.0
  Ni  Ni483  1  0.80090517  0.13295800  0.28588482  1.0
  Ni  Ni484  1  0.80090517  0.46629133  0.28588482  1.0
  Ni  Ni485  1  0.80090517  0.79962467  0.28588482  1.0
  Ni  Ni486  1  0.23339967  0.23348783  0.28059418  1.0
  Ni  Ni487  1  0.23339967  0.56682117  0.28059418  1.0
  Ni  Ni488  1  0.23339967  0.90015450  0.28059418  1.0
  Ni  Ni489  1  0.56673300  0.23348783  0.28059418  1.0
  Ni  Ni490  1  0.56673300  0.56682117  0.28059418  1.0
  Ni  Ni491  1  0.56673300  0.90015450  0.28059418  1.0
  Ni  Ni492  1  0.90006633  0.23348783  0.28059418  1.0
  Ni  Ni493  1  0.90006633  0.56682117  0.28059418  1.0
  Ni  Ni494  1  0.90006633  0.90015450  0.28059418  1.0
  Ni  Ni495  1  0.06673300  0.06682117  0.30837196  1.0
  Ni  Ni496  1  0.06673300  0.40015450  0.30837196  1.0
  Ni  Ni497  1  0.06673300  0.73348783  0.30837196  1.0
  Ni  Ni498  1  0.40006633  0.06682117  0.30837196  1.0
  Ni  Ni499  1  0.40006633  0.40015450  0.30837196  1.0
  Ni  Ni500  1  0.40006633  0.73348783  0.30837196  1.0
  Ni  Ni501  1  0.73339967  0.06682117  0.30837196  1.0
  Ni  Ni502  1  0.73339967  0.40015450  0.30837196  1.0
  Ni  Ni503  1  0.73339967  0.73348783  0.30837196  1.0
  Ni  Ni504  1  0.26660033  0.26651217  0.29710635  1.0
  Ni  Ni505  1  0.26660033  0.59984550  0.29710635  1.0
  Ni  Ni506  1  0.26660033  0.93317883  0.29710635  1.0
  Ni  Ni507  1  0.59993367  0.26651217  0.29710635  1.0
  Ni  Ni508  1  0.59993367  0.59984550  0.29710635  1.0
  Ni  Ni509  1  0.59993367  0.93317883  0.29710635  1.0
  Ni  Ni510  1  0.93326700  0.26651217  0.29710635  1.0
  Ni  Ni511  1  0.93326700  0.59984550  0.29710635  1.0
  Ni  Ni512  1  0.93326700  0.93317883  0.29710635  1.0
  Ni  Ni513  1  0.09993367  0.09984550  0.32488413  1.0
  Ni  Ni514  1  0.09993367  0.43317883  0.32488413  1.0
  Ni  Ni515  1  0.09993367  0.76651217  0.32488413  1.0
  Ni  Ni516  1  0.43326700  0.09984550  0.32488413  1.0
  Ni  Ni517  1  0.43326700  0.43317883  0.32488413  1.0
  Ni  Ni518  1  0.43326700  0.76651217  0.32488413  1.0
  Ni  Ni519  1  0.76660033  0.09984550  0.32488413  1.0
  Ni  Ni520  1  0.76660033  0.43317883  0.32488412  1.0
  Ni  Ni521  1  0.76660033  0.76651217  0.32488413  1.0
  Mo  Mo522  1  0.16666667  0.16666667  0.30273915  1.0
  Mo  Mo523  1  0.16666667  0.50000000  0.30273915  1.0
  Mo  Mo524  1  0.16666667  0.83333333  0.30273915  1.0
  Mo  Mo525  1  0.50000000  0.16666667  0.30273915  1.0
  Mo  Mo526  1  0.50000000  0.50000000  0.30273915  1.0
  Mo  Mo527  1  0.50000000  0.83333333  0.30273915  1.0
  Mo  Mo528  1  0.83333333  0.16666667  0.30273915  1.0
  Mo  Mo529  1  0.83333333  0.50000000  0.30273915  1.0
  Mo  Mo530  1  0.83333333  0.83333333  0.30273915  1.0
  Mo  Mo531  1  0.00000000  0.00000000  0.33051693  1.0
  Mo  Mo532  1  0.00000000  0.33333333  0.33051693  1.0
  Mo  Mo533  1  0.00000000  0.66666667  0.33051693  1.0
  Mo  Mo534  1  0.33333333  0.00000000  0.33051693  1.0
  Mo  Mo535  1  0.33333333  0.33333333  0.33051693  1.0
  Mo  Mo536  1  0.33333333  0.66666667  0.33051693  1.0
  Mo  Mo537  1  0.66666667  0.00000000  0.33051693  1.0
  Mo  Mo538  1  0.66666667  0.33333333  0.33051693  1.0
  Mo  Mo539  1  0.66666667  0.66666667  0.33051693  1.0
  Ni  Ni540  1  0.19909483  0.20037533  0.37514904  1.0
  Ni  Ni541  1  0.19909483  0.53370867  0.37514904  1.0
  Ni  Ni542  1  0.19909483  0.86704200  0.37514904  1.0
  Ni  Ni543  1  0.53242817  0.20037533  0.37514904  1.0
  Ni  Ni544  1  0.53242817  0.53370867  0.37514904  1.0
  Ni  Ni545  1  0.53242817  0.86704200  0.37514904  1.0
  Ni  Ni546  1  0.86576150  0.20037533  0.37514904  1.0
  Ni  Ni547  1  0.86576150  0.53370867  0.37514904  1.0
  Ni  Ni548  1  0.86576150  0.86704200  0.37514904  1.0
  Ni  Ni549  1  0.03242817  0.03370867  0.34737126  1.0
  Ni  Ni550  1  0.03242817  0.36704200  0.34737126  1.0
  Ni  Ni551  1  0.03242817  0.70037533  0.34737126  1.0
  Ni  Ni552  1  0.36576150  0.03370867  0.34737126  1.0
  Ni  Ni553  1  0.36576150  0.36704200  0.34737126  1.0
  Ni  Ni554  1  0.36576150  0.70037533  0.34737126  1.0
  Ni  Ni555  1  0.69909483  0.03370867  0.34737126  1.0
  Ni  Ni556  1  0.69909483  0.36704200  0.34737126  1.0
  Ni  Ni557  1  0.69909483  0.70037533  0.34737126  1.0
  Ni  Ni558  1  0.30090517  0.29962467  0.36921815  1.0
  Ni  Ni559  1  0.30090517  0.63295800  0.36921815  1.0
  Ni  Ni560  1  0.30090517  0.96629133  0.36921815  1.0
  Ni  Ni561  1  0.63423850  0.29962467  0.36921815  1.0
  Ni  Ni562  1  0.63423850  0.63295800  0.36921815  1.0
  Ni  Ni563  1  0.63423850  0.96629133  0.36921815  1.0
  Ni  Ni564  1  0.96757183  0.29962467  0.36921815  1.0
  Ni  Ni565  1  0.96757183  0.63295800  0.36921815  1.0
  Ni  Ni566  1  0.96757183  0.96629133  0.36921815  1.0
  Ni  Ni567  1  0.13423850  0.13295800  0.34144038  1.0
  Ni  Ni568  1  0.13423850  0.46629133  0.34144038  1.0
  Ni  Ni569  1  0.13423850  0.79962467  0.34144037  1.0
  Ni  Ni570  1  0.46757183  0.13295800  0.34144037  1.0
  Ni  Ni571  1  0.46757183  0.46629133  0.34144038  1.0
  Ni  Ni572  1  0.46757183  0.79962467  0.34144038  1.0
  Ni  Ni573  1  0.80090517  0.13295800  0.34144037  1.0
  Ni  Ni574  1  0.80090517  0.46629133  0.34144038  1.0
  Ni  Ni575  1  0.80090517  0.79962467  0.34144038  1.0
  Ni  Ni576  1  0.23339967  0.23348783  0.33614974  1.0
  Ni  Ni577  1  0.23339967  0.56682117  0.33614974  1.0
  Ni  Ni578  1  0.23339967  0.90015450  0.33614974  1.0
  Ni  Ni579  1  0.56673300  0.23348783  0.33614974  1.0
  Ni  Ni580  1  0.56673300  0.56682117  0.33614974  1.0
  Ni  Ni581  1  0.56673300  0.90015450  0.33614974  1.0
  Ni  Ni582  1  0.90006633  0.23348783  0.33614974  1.0
  Ni  Ni583  1  0.90006633  0.56682117  0.33614974  1.0
  Ni  Ni584  1  0.90006633  0.90015450  0.33614974  1.0
  Ni  Ni585  1  0.06673300  0.06682117  0.36392751  1.0
  Ni  Ni586  1  0.06673300  0.40015450  0.36392751  1.0
  Ni  Ni587  1  0.06673300  0.73348783  0.36392751  1.0
  Ni  Ni588  1  0.40006633  0.06682117  0.36392751  1.0
  Ni  Ni589  1  0.40006633  0.40015450  0.36392751  1.0
  Ni  Ni590  1  0.40006633  0.73348783  0.36392751  1.0
  Ni  Ni591  1  0.73339967  0.06682117  0.36392751  1.0
  Ni  Ni592  1  0.73339967  0.40015450  0.36392751  1.0
  Ni  Ni593  1  0.73339967  0.73348783  0.36392751  1.0
  Ni  Ni594  1  0.26660033  0.26651217  0.35266190  1.0
  Ni  Ni595  1  0.26660033  0.59984550  0.35266190  1.0
  Ni  Ni596  1  0.26660033  0.93317883  0.35266190  1.0
  Ni  Ni597  1  0.59993367  0.26651217  0.35266190  1.0
  Ni  Ni598  1  0.59993367  0.59984550  0.35266190  1.0
  Ni  Ni599  1  0.59993367  0.93317883  0.35266190  1.0
  Ni  Ni600  1  0.93326700  0.26651217  0.35266190  1.0
  Ni  Ni601  1  0.93326700  0.59984550  0.35266190  1.0
  Ni  Ni602  1  0.93326700  0.93317883  0.35266190  1.0
  Ni  Ni603  1  0.09993367  0.09984550  0.38043968  1.0
  Ni  Ni604  1  0.09993367  0.43317883  0.38043968  1.0
  Ni  Ni605  1  0.09993367  0.76651217  0.38043968  1.0
  Ni  Ni606  1  0.43326700  0.09984550  0.38043968  1.0
  Ni  Ni607  1  0.43326700  0.43317883  0.38043968  1.0
  Ni  Ni608  1  0.43326700  0.76651217  0.38043968  1.0
  Ni  Ni609  1  0.76660033  0.09984550  0.38043968  1.0
  Ni  Ni610  1  0.76660033  0.43317883  0.38043968  1.0
  Ni  Ni611  1  0.76660033  0.76651217  0.38043968  1.0
  Mo  Mo612  1  0.16666667  0.16666667  0.35829471  1.0
  Mo  Mo613  1  0.16666667  0.50000000  0.35829471  1.0
  Mo  Mo614  1  0.16666667  0.83333333  0.35829471  1.0
  Mo  Mo615  1  0.50000000  0.16666667  0.35829471  1.0
  Mo  Mo616  1  0.50000000  0.50000000  0.35829471  1.0
  Mo  Mo617  1  0.50000000  0.83333333  0.35829471  1.0
  Mo  Mo618  1  0.83333333  0.16666667  0.35829471  1.0
  Mo  Mo619  1  0.83333333  0.50000000  0.35829471  1.0
  Mo  Mo620  1  0.83333333  0.83333333  0.35829471  1.0
  Mo  Mo621  1  0.00000000  0.00000000  0.38607249  1.0
  Mo  Mo622  1  0.00000000  0.33333333  0.38607249  1.0
  Mo  Mo623  1  0.00000000  0.66666667  0.38607249  1.0
  Mo  Mo624  1  0.33333333  0.00000000  0.38607249  1.0
  Mo  Mo625  1  0.33333333  0.33333333  0.38607249  1.0
  Mo  Mo626  1  0.33333333  0.66666667  0.38607249  1.0
  Mo  Mo627  1  0.66666667  0.00000000  0.38607249  1.0
  Mo  Mo628  1  0.66666667  0.33333333  0.38607249  1.0
  Mo  Mo629  1  0.66666667  0.66666667  0.38607249  1.0
