# generated using pymatgen
data_Ni4Mo
_symmetry_space_group_name_H-M   'P 1'
_cell_length_a   13.25614230
_cell_length_b   24.27172521
_cell_length_c   75.11813970
_cell_angle_alpha   23.72462377
_cell_angle_beta   99.31594731
_cell_angle_gamma   90.00000000
_symmetry_Int_Tables_number   1
_chemical_formula_structural   Ni4Mo
_chemical_formula_sum   'Ni252 Mo63'
_cell_volume   8902.47357631
_cell_formula_units_Z   63
loop_
 _symmetry_equiv_pos_site_id
 _symmetry_equiv_pos_as_xyz
  1  'x, y, z'
loop_
 _atom_site_type_symbol
 _atom_site_label
 _atom_site_symmetry_multiplicity
 _atom_site_fract_x
 _atom_site_fract_y
 _atom_site_fract_z
 _atom_site_occupancy
  Ni  Ni0  1  0.26591600  0.26719650  0.04097776  1.0
  Ni  Ni1  1  0.26591600  0.60052983  0.04097776  1.0
  Ni  Ni2  1  0.26591600  0.93386317  0.04097776  1.0
  Ni  Ni3  1  0.59924933  0.26719650  0.04097776  1.0
  Ni  Ni4  1  0.59924933  0.60052983  0.04097776  1.0
  Ni  Ni5  1  0.59924933  0.93386317  0.04097776  1.0
  Ni  Ni6  1  0.93258267  0.26719650  0.04097776  1.0
  Ni  Ni7  1  0.93258267  0.60052983  0.04097776  1.0
  Ni  Ni8  1  0.93258267  0.93386317  0.04097776  1.0
  Ni  Ni9  1  0.06741733  0.06613683  0.00594859  1.0
  Ni  Ni10  1  0.06741733  0.39947017  0.00594859  1.0
  Ni  Ni11  1  0.06741733  0.73280350  0.00594859  1.0
  Ni  Ni12  1  0.40075067  0.06613683  0.00594859  1.0
  Ni  Ni13  1  0.40075067  0.39947017  0.00594859  1.0
  Ni  Ni14  1  0.40075067  0.73280350  0.00594859  1.0
  Ni  Ni15  1  0.73408400  0.06613683  0.00594859  1.0
  Ni  Ni16  1  0.73408400  0.39947017  0.00594859  1.0
  Ni  Ni17  1  0.73408400  0.73280350  0.00594859  1.0
  Ni  Ni18  1  0.19969100  0.19977917  0.02929100  1.0
  Ni  Ni19  1  0.19969100  0.53311250  0.02929100  1.0
  Ni  Ni20  1  0.19969100  0.86644583  0.02929100  1.0
  Ni  Ni21  1  0.53302433  0.19977917  0.02929100  1.0
  Ni  Ni22  1  0.53302433  0.53311250  0.02929100  1.0
  Ni  Ni23  1  0.53302433  0.86644583  0.02929100  1.0
  Ni  Ni24  1  0.86635767  0.19977917  0.02929100  1.0
  Ni  Ni25  1  0.86635767  0.53311250  0.02929100  1.0
  Ni  Ni26  1  0.86635767  0.86644583  0.02929100  1.0
  Ni  Ni27  1  0.13364233  0.13355417  0.01763535  1.0
  Ni  Ni28  1  0.13364233  0.46688750  0.01763535  1.0
  Ni  Ni29  1  0.13364233  0.80022083  0.01763535  1.0
  Ni  Ni30  1  0.46697567  0.13355417  0.01763535  1.0
  Ni  Ni31  1  0.46697567  0.46688750  0.01763535  1.0
  Ni  Ni32  1  0.46697567  0.80022083  0.01763535  1.0
  Ni  Ni33  1  0.80030900  0.13355417  0.01763535  1.0
  Ni  Ni34  1  0.80030900  0.46688750  0.01763535  1.0
  Ni  Ni35  1  0.80030900  0.80022083  0.01763535  1.0
  Mo  Mo36  1  0.00000000  0.00000000  0.05287494  1.0
  Mo  Mo37  1  0.00000000  0.33333333  0.05287494  1.0
  Mo  Mo38  1  0.00000000  0.66666667  0.05287494  1.0
  Mo  Mo39  1  0.33333333  0.00000000  0.05287494  1.0
  Mo  Mo40  1  0.33333333  0.33333333  0.05287494  1.0
  Mo  Mo41  1  0.33333333  0.66666667  0.05287494  1.0
  Mo  Mo42  1  0.66666667  0.00000000  0.05287494  1.0
  Mo  Mo43  1  0.66666667  0.33333333  0.05287494  1.0
  Mo  Mo44  1  0.66666667  0.66666667  0.05287494  1.0
  Ni  Ni45  1  0.26591600  0.26719650  0.09980129  1.0
  Ni  Ni46  1  0.26591600  0.60052983  0.09980129  1.0
  Ni  Ni47  1  0.26591600  0.93386317  0.09980129  1.0
  Ni  Ni48  1  0.59924933  0.26719650  0.09980129  1.0
  Ni  Ni49  1  0.59924933  0.60052983  0.09980129  1.0
  Ni  Ni50  1  0.59924933  0.93386317  0.09980129  1.0
  Ni  Ni51  1  0.93258267  0.26719650  0.09980129  1.0
  Ni  Ni52  1  0.93258267  0.60052983  0.09980129  1.0
  Ni  Ni53  1  0.93258267  0.93386317  0.09980129  1.0
  Ni  Ni54  1  0.06741733  0.06613683  0.06477212  1.0
  Ni  Ni55  1  0.06741733  0.39947017  0.06477212  1.0
  Ni  Ni56  1  0.06741733  0.73280350  0.06477212  1.0
  Ni  Ni57  1  0.40075067  0.06613683  0.06477212  1.0
  Ni  Ni58  1  0.40075067  0.39947017  0.06477212  1.0
  Ni  Ni59  1  0.40075067  0.73280350  0.06477212  1.0
  Ni  Ni60  1  0.73408400  0.06613683  0.06477212  1.0
  Ni  Ni61  1  0.73408400  0.39947017  0.06477212  1.0
  Ni  Ni62  1  0.73408400  0.73280350  0.06477212  1.0
  Ni  Ni63  1  0.19969100  0.19977917  0.08811453  1.0
  Ni  Ni64  1  0.19969100  0.53311250  0.08811453  1.0
  Ni  Ni65  1  0.19969100  0.86644583  0.08811453  1.0
  Ni  Ni66  1  0.53302433  0.19977917  0.08811453  1.0
  Ni  Ni67  1  0.53302433  0.53311250  0.08811453  1.0
  Ni  Ni68  1  0.53302433  0.86644583  0.08811453  1.0
  Ni  Ni69  1  0.86635767  0.19977917  0.08811453  1.0
  Ni  Ni70  1  0.86635767  0.53311250  0.08811453  1.0
  Ni  Ni71  1  0.86635767  0.86644583  0.08811453  1.0
  Ni  Ni72  1  0.13364233  0.13355417  0.07645888  1.0
  Ni  Ni73  1  0.13364233  0.46688750  0.07645888  1.0
  Ni  Ni74  1  0.13364233  0.80022083  0.07645888  1.0
  Ni  Ni75  1  0.46697567  0.13355417  0.07645888  1.0
  Ni  Ni76  1  0.46697567  0.46688750  0.07645888  1.0
  Ni  Ni77  1  0.46697567  0.80022083  0.07645888  1.0
  Ni  Ni78  1  0.80030900  0.13355417  0.07645888  1.0
  Ni  Ni79  1  0.80030900  0.46688750  0.07645888  1.0
  Ni  Ni80  1  0.80030900  0.80022083  0.07645888  1.0
  Mo  Mo81  1  0.00000000  0.00000000  0.11169847  1.0
  Mo  Mo82  1  0.00000000  0.33333333  0.11169847  1.0
  Mo  Mo83  1  0.00000000  0.66666667  0.11169847  1.0
  Mo  Mo84  1  0.33333333  0.00000000  0.11169847  1.0
  Mo  Mo85  1  0.33333333  0.33333333  0.11169847  1.0
  Mo  Mo86  1  0.33333333  0.66666667  0.11169847  1.0
  Mo  Mo87  1  0.66666667  0.00000000  0.11169847  1.0
  Mo  Mo88  1  0.66666667  0.33333333  0.11169847  1.0
  Mo  Mo89  1  0.66666667  0.66666667  0.11169847  1.0
  Ni  Ni90  1  0.26591600  0.26719650  0.15862482  1.0
  Ni  Ni91  1  0.26591600  0.60052983  0.15862482  1.0
  Ni  Ni92  1  0.26591600  0.93386317  0.15862482  1.0
  Ni  Ni93  1  0.59924933  0.26719650  0.15862482  1.0
  Ni  Ni94  1  0.59924933  0.60052983  0.15862482  1.0
  Ni  Ni95  1  0.59924933  0.93386317  0.15862482  1.0
  Ni  Ni96  1  0.93258267  0.26719650  0.15862482  1.0
  Ni  Ni97  1  0.93258267  0.60052983  0.15862482  1.0
  Ni  Ni98  1  0.93258267  0.93386317  0.15862482  1.0
  Ni  Ni99  1  0.06741733  0.06613683  0.12359565  1.0
  Ni  Ni100  1  0.06741733  0.39947017  0.12359565  1.0
  Ni  Ni101  1  0.06741733  0.73280350  0.12359565  1.0
  Ni  Ni102  1  0.40075067  0.06613683  0.12359565  1.0
  Ni  Ni103  1  0.40075067  0.39947017  0.12359565  1.0
  Ni  Ni104  1  0.40075067  0.73280350  0.12359565  1.0
  Ni  Ni105  1  0.73408400  0.06613683  0.12359565  1.0
  Ni  Ni106  1  0.73408400  0.39947017  0.12359565  1.0
  Ni  Ni107  1  0.73408400  0.73280350  0.12359565  1.0
  Ni  Ni108  1  0.19969100  0.19977917  0.14693806  1.0
  Ni  Ni109  1  0.19969100  0.53311250  0.14693806  1.0
  Ni  Ni110  1  0.19969100  0.86644583  0.14693806  1.0
  Ni  Ni111  1  0.53302433  0.19977917  0.14693806  1.0
  Ni  Ni112  1  0.53302433  0.53311250  0.14693806  1.0
  Ni  Ni113  1  0.53302433  0.86644583  0.14693806  1.0
  Ni  Ni114  1  0.86635767  0.19977917  0.14693806  1.0
  Ni  Ni115  1  0.86635767  0.53311250  0.14693806  1.0
  Ni  Ni116  1  0.86635767  0.86644583  0.14693806  1.0
  Ni  Ni117  1  0.13364233  0.13355417  0.13528241  1.0
  Ni  Ni118  1  0.13364233  0.46688750  0.13528241  1.0
  Ni  Ni119  1  0.13364233  0.80022083  0.13528241  1.0
  Ni  Ni120  1  0.46697567  0.13355417  0.13528241  1.0
  Ni  Ni121  1  0.46697567  0.46688750  0.13528241  1.0
  Ni  Ni122  1  0.46697567  0.80022083  0.13528241  1.0
  Ni  Ni123  1  0.80030900  0.13355417  0.13528241  1.0
  Ni  Ni124  1  0.80030900  0.46688750  0.13528241  1.0
  Ni  Ni125  1  0.80030900  0.80022083  0.13528241  1.0
  Mo  Mo126  1  0.00000000  0.00000000  0.17052200  1.0
  Mo  Mo127  1  0.00000000  0.33333333  0.17052200  1.0
  Mo  Mo128  1  0.00000000  0.66666667  0.17052200  1.0
  Mo  Mo129  1  0.33333333  0.00000000  0.17052200  1.0
  Mo  Mo130  1  0.33333333  0.33333333  0.17052200  1.0
  Mo  Mo131  1  0.33333333  0.66666667  0.17052200  1.0
  Mo  Mo132  1  0.66666667  0.00000000  0.17052200  1.0
  Mo  Mo133  1  0.66666667  0.33333333  0.17052200  1.0
  Mo  Mo134  1  0.66666667  0.66666667  0.17052200  1.0
  Ni  Ni135  1  0.26591600  0.26719650  0.21744835  1.0
  Ni  Ni136  1  0.26591600  0.60052983  0.21744835  1.0
  Ni  Ni137  1  0.26591600  0.93386317  0.21744835  1.0
  Ni  Ni138  1  0.59924933  0.26719650  0.21744835  1.0
  Ni  Ni139  1  0.59924933  0.60052983  0.21744835  1.0
  Ni  Ni140  1  0.59924933  0.93386317  0.21744835  1.0
  Ni  Ni141  1  0.93258267  0.26719650  0.21744835  1.0
  Ni  Ni142  1  0.93258267  0.60052983  0.21744835  1.0
  Ni  Ni143  1  0.93258267  0.93386317  0.21744835  1.0
  Ni  Ni144  1  0.06741733  0.06613683  0.18241918  1.0
  Ni  Ni145  1  0.06741733  0.39947017  0.18241918  1.0
  Ni  Ni146  1  0.06741733  0.73280350  0.18241918  1.0
  Ni  Ni147  1  0.40075067  0.06613683  0.18241918  1.0
  Ni  Ni148  1  0.40075067  0.39947017  0.18241918  1.0
  Ni  Ni149  1  0.40075067  0.73280350  0.18241918  1.0
  Ni  Ni150  1  0.73408400  0.06613683  0.18241918  1.0
  Ni  Ni151  1  0.73408400  0.39947017  0.18241918  1.0
  Ni  Ni152  1  0.73408400  0.73280350  0.18241918  1.0
  Ni  Ni153  1  0.19969100  0.19977917  0.20576159  1.0
  Ni  Ni154  1  0.19969100  0.53311250  0.20576159  1.0
  Ni  Ni155  1  0.19969100  0.86644583  0.20576159  1.0
  Ni  Ni156  1  0.53302433  0.19977917  0.20576159  1.0
  Ni  Ni157  1  0.53302433  0.53311250  0.20576159  1.0
  Ni  Ni158  1  0.53302433  0.86644583  0.20576159  1.0
  Ni  Ni159  1  0.86635767  0.19977917  0.20576159  1.0
  Ni  Ni160  1  0.86635767  0.53311250  0.20576159  1.0
  Ni  Ni161  1  0.86635767  0.86644583  0.20576159  1.0
  Ni  Ni162  1  0.13364233  0.13355417  0.19410594  1.0
  Ni  Ni163  1  0.13364233  0.46688750  0.19410594  1.0
  Ni  Ni164  1  0.13364233  0.80022083  0.19410594  1.0
  Ni  Ni165  1  0.46697567  0.13355417  0.19410594  1.0
  Ni  Ni166  1  0.46697567  0.46688750  0.19410594  1.0
  Ni  Ni167  1  0.46697567  0.80022083  0.19410594  1.0
  Ni  Ni168  1  0.80030900  0.13355417  0.19410594  1.0
  Ni  Ni169  1  0.80030900  0.46688750  0.19410594  1.0
  Ni  Ni170  1  0.80030900  0.80022083  0.19410594  1.0
  Mo  Mo171  1  0.00000000  0.00000000  0.22934553  1.0
  Mo  Mo172  1  0.00000000  0.33333333  0.22934553  1.0
  Mo  Mo173  1  0.00000000  0.66666667  0.22934553  1.0
  Mo  Mo174  1  0.33333333  0.00000000  0.22934553  1.0
  Mo  Mo175  1  0.33333333  0.33333333  0.22934553  1.0
  Mo  Mo176  1  0.33333333  0.66666667  0.22934553  1.0
  Mo  Mo177  1  0.66666667  0.00000000  0.22934553  1.0
  Mo  Mo178  1  0.66666667  0.33333333  0.22934553  1.0
  Mo  Mo179  1  0.66666667  0.66666667  0.22934553  1.0
  Ni  Ni180  1  0.26591600  0.26719650  0.27627188  1.0
  Ni  Ni181  1  0.26591600  0.60052983  0.27627188  1.0
  Ni  Ni182  1  0.26591600  0.93386317  0.27627188  1.0
  Ni  Ni183  1  0.59924933  0.26719650  0.27627188  1.0
  Ni  Ni184  1  0.59924933  0.60052983  0.27627188  1.0
  Ni  Ni185  1  0.59924933  0.93386317  0.27627188  1.0
  Ni  Ni186  1  0.93258267  0.26719650  0.27627188  1.0
  Ni  Ni187  1  0.93258267  0.60052983  0.27627188  1.0
  Ni  Ni188  1  0.93258267  0.93386317  0.27627188  1.0
  Ni  Ni189  1  0.06741733  0.06613683  0.24124271  1.0
  Ni  Ni190  1  0.06741733  0.39947017  0.24124271  1.0
  Ni  Ni191  1  0.06741733  0.73280350  0.24124271  1.0
  Ni  Ni192  1  0.40075067  0.06613683  0.24124271  1.0
  Ni  Ni193  1  0.40075067  0.39947017  0.24124271  1.0
  Ni  Ni194  1  0.40075067  0.73280350  0.24124271  1.0
  Ni  Ni195  1  0.73408400  0.06613683  0.24124271  1.0
  Ni  Ni196  1  0.73408400  0.39947017  0.24124271  1.0
  Ni  Ni197  1  0.73408400  0.73280350  0.24124271  1.0
  Ni  Ni198  1  0.19969100  0.19977917  0.26458512  1.0
  Ni  Ni199  1  0.19969100  0.53311250  0.26458512  1.0
  Ni  Ni200  1  0.19969100  0.86644583  0.26458512  1.0
  Ni  Ni201  1  0.53302433  0.19977917  0.26458512  1.0
  Ni  Ni202  1  0.53302433  0.53311250  0.26458512  1.0
  Ni  Ni203  1  0.53302433  0.86644583  0.26458512  1.0
  Ni  Ni204  1  0.86635767  0.19977917  0.26458512  1.0
  Ni  Ni205  1  0.86635767  0.53311250  0.26458512  1.0
  Ni  Ni206  1  0.86635767  0.86644583  0.26458512  1.0
  Ni  Ni207  1  0.13364233  0.13355417  0.25292947  1.0
  Ni  Ni208  1  0.13364233  0.46688750  0.25292947  1.0
  Ni  Ni209  1  0.13364233  0.80022083  0.25292947  1.0
  Ni  Ni210  1  0.46697567  0.13355417  0.25292947  1.0
  Ni  Ni211  1  0.46697567  0.46688750  0.25292947  1.0
  Ni  Ni212  1  0.46697567  0.80022083  0.25292947  1.0
  Ni  Ni213  1  0.80030900  0.13355417  0.25292947  1.0
  Ni  Ni214  1  0.80030900  0.46688750  0.25292947  1.0
  Ni  Ni215  1  0.80030900  0.80022083  0.25292947  1.0
  Mo  Mo216  1  0.00000000  0.00000000  0.28816906  1.0
  Mo  Mo217  1  0.00000000  0.33333333  0.28816906  1.0
  Mo  Mo218  1  0.00000000  0.66666667  0.28816906  1.0
  Mo  Mo219  1  0.33333333  0.00000000  0.28816906  1.0
  Mo  Mo220  1  0.33333333  0.33333333  0.28816906  1.0
  Mo  Mo221  1  0.33333333  0.66666667  0.28816906  1.0
  Mo  Mo222  1  0.66666667  0.00000000  0.28816906  1.0
  Mo  Mo223  1  0.66666667  0.33333333  0.28816906  1.0
  Mo  Mo224  1  0.66666667  0.66666667  0.28816906  1.0
  Ni  Ni225  1  0.26591600  0.26719650  0.33509541  1.0
  Ni  Ni226  1  0.26591600  0.60052983  0.33509541  1.0
  Ni  Ni227  1  0.26591600  0.93386317  0.33509541  1.0
  Ni  Ni228  1  0.59924933  0.26719650  0.33509541  1.0
  Ni  Ni229  1  0.59924933  0.60052983  0.33509541  1.0
  Ni  Ni230  1  0.59924933  0.93386317  0.33509541  1.0
  Ni  Ni231  1  0.93258267  0.26719650  0.33509541  1.0
  Ni  Ni232  1  0.93258267  0.60052983  0.33509541  1.0
  Ni  Ni233  1  0.93258267  0.93386317  0.33509541  1.0
  Ni  Ni234  1  0.06741733  0.06613683  0.30006624  1.0
  Ni  Ni235  1  0.06741733  0.39947017  0.30006624  1.0
  Ni  Ni236  1  0.06741733  0.73280350  0.30006624  1.0
  Ni  Ni237  1  0.40075067  0.06613683  0.30006624  1.0
  Ni  Ni238  1  0.40075067  0.39947017  0.30006624  1.0
  Ni  Ni239  1  0.40075067  0.73280350  0.30006624  1.0
  Ni  Ni240  1  0.73408400  0.06613683  0.30006624  1.0
  Ni  Ni241  1  0.73408400  0.39947017  0.30006624  1.0
  Ni  Ni242  1  0.73408400  0.73280350  0.30006624  1.0
  Ni  Ni243  1  0.19969100  0.19977917  0.32340865  1.0
  Ni  Ni244  1  0.19969100  0.53311250  0.32340865  1.0
  Ni  Ni245  1  0.19969100  0.86644583  0.32340865  1.0
  Ni  Ni246  1  0.53302433  0.19977917  0.32340865  1.0
  Ni  Ni247  1  0.53302433  0.53311250  0.32340865  1.0
  Ni  Ni248  1  0.53302433  0.86644583  0.32340865  1.0
  Ni  Ni249  1  0.86635767  0.19977917  0.32340865  1.0
  Ni  Ni250  1  0.86635767  0.53311250  0.32340865  1.0
  Ni  Ni251  1  0.86635767  0.86644583  0.32340865  1.0
  Ni  Ni252  1  0.13364233  0.13355417  0.31175300  1.0
  Ni  Ni253  1  0.13364233  0.46688750  0.31175300  1.0
  Ni  Ni254  1  0.13364233  0.80022083  0.31175300  1.0
  Ni  Ni255  1  0.46697567  0.13355417  0.31175300  1.0
  Ni  Ni256  1  0.46697567  0.46688750  0.31175300  1.0
  Ni  Ni257  1  0.46697567  0.80022083  0.31175300  1.0
  Ni  Ni258  1  0.80030900  0.13355417  0.31175300  1.0
  Ni  Ni259  1  0.80030900  0.46688750  0.31175300  1.0
  Ni  Ni260  1  0.80030900  0.80022083  0.31175300  1.0
  Mo  Mo261  1  0.00000000  0.00000000  0.34699259  1.0
  Mo  Mo262  1  0.00000000  0.33333333  0.34699259  1.0
  Mo  Mo263  1  0.00000000  0.66666667  0.34699259  1.0
  Mo  Mo264  1  0.33333333  0.00000000  0.34699259  1.0
  Mo  Mo265  1  0.33333333  0.33333333  0.34699259  1.0
  Mo  Mo266  1  0.33333333  0.66666667  0.34699259  1.0
  Mo  Mo267  1  0.66666667  0.00000000  0.34699259  1.0
  Mo  Mo268  1  0.66666667  0.33333333  0.34699259  1.0
  Mo  Mo269  1  0.66666667  0.66666667  0.34699259  1.0
  Ni  Ni270  1  0.26591600  0.26719650  0.39391894  1.0
  Ni  Ni271  1  0.26591600  0.60052983  0.39391894  1.0
  Ni  Ni272  1  0.26591600  0.93386317  0.39391894  1.0
  Ni  Ni273  1  0.59924933  0.26719650  0.39391894  1.0
  Ni  Ni274  1  0.59924933  0.60052983  0.39391894  1.0
  Ni  Ni275  1  0.59924933  0.93386317  0.39391894  1.0
  Ni  Ni276  1  0.93258267  0.26719650  0.39391894  1.0
  Ni  Ni277  1  0.93258267  0.60052983  0.39391894  1.0
  Ni  Ni278  1  0.93258267  0.93386317  0.39391894  1.0
  Ni  Ni279  1  0.06741733  0.06613683  0.35888976  1.0
  Ni  Ni280  1  0.06741733  0.39947017  0.35888976  1.0
  Ni  Ni281  1  0.06741733  0.73280350  0.35888976  1.0
  Ni  Ni282  1  0.40075067  0.06613683  0.35888976  1.0
  Ni  Ni283  1  0.40075067  0.39947017  0.35888976  1.0
  Ni  Ni284  1  0.40075067  0.73280350  0.35888976  1.0
  Ni  Ni285  1  0.73408400  0.06613683  0.35888976  1.0
  Ni  Ni286  1  0.73408400  0.39947017  0.35888976  1.0
  Ni  Ni287  1  0.73408400  0.73280350  0.35888976  1.0
  Ni  Ni288  1  0.19969100  0.19977917  0.38223218  1.0
  Ni  Ni289  1  0.19969100  0.53311250  0.38223218  1.0
  Ni  Ni290  1  0.19969100  0.86644583  0.38223218  1.0
  Ni  Ni291  1  0.53302433  0.19977917  0.38223218  1.0
  Ni  Ni292  1  0.53302433  0.53311250  0.38223218  1.0
  Ni  Ni293  1  0.53302433  0.86644583  0.38223218  1.0
  Ni  Ni294  1  0.86635767  0.19977917  0.38223218  1.0
  Ni  Ni295  1  0.86635767  0.53311250  0.38223218  1.0
  Ni  Ni296  1  0.86635767  0.86644583  0.38223218  1.0
  Ni  Ni297  1  0.13364233  0.13355417  0.37057653  1.0
  Ni  Ni298  1  0.13364233  0.46688750  0.37057653  1.0
  Ni  Ni299  1  0.13364233  0.80022083  0.37057653  1.0
  Ni  Ni300  1  0.46697567  0.13355417  0.37057653  1.0
  Ni  Ni301  1  0.46697567  0.46688750  0.37057653  1.0
  Ni  Ni302  1  0.46697567  0.80022083  0.37057653  1.0
  Ni  Ni303  1  0.80030900  0.13355417  0.37057653  1.0
  Ni  Ni304  1  0.80030900  0.46688750  0.37057653  1.0
  Ni  Ni305  1  0.80030900  0.80022083  0.37057653  1.0
  Mo  Mo306  1  0.00000000  0.00000000  0.40581612  1.0
  Mo  Mo307  1  0.00000000  0.33333333  0.40581612  1.0
  Mo  Mo308  1  0.00000000  0.66666667  0.40581612  1.0
  Mo  Mo309  1  0.33333333  0.00000000  0.40581612  1.0
  Mo  Mo310  1  0.33333333  0.33333333  0.40581612  1.0
  Mo  Mo311  1  0.33333333  0.66666667  0.40581612  1.0
  Mo  Mo312  1  0.66666667  0.00000000  0.40581612  1.0
  Mo  Mo313  1  0.66666667  0.33333333  0.40581612  1.0
  Mo  Mo314  1  0.66666667  0.66666667  0.40581612  1.0
