# generated using pymatgen
data_Ni4Mo
_symmetry_space_group_name_H-M   'P 1'
_cell_length_a   13.25614230
_cell_length_b   20.20749644
_cell_length_c   57.44328330
_cell_angle_alpha   40.34202635
_cell_angle_beta   99.31594731
_cell_angle_gamma   70.28000689
_symmetry_Int_Tables_number   1
_chemical_formula_structural   Ni4Mo
_chemical_formula_sum   'Ni180 Mo45'
_cell_volume   6807.77391129
_cell_formula_units_Z   45
loop_
 _symmetry_equiv_pos_site_id
 _symmetry_equiv_pos_as_xyz
  1  'x, y, z'
loop_
 _atom_site_type_symbol
 _atom_site_label
 _atom_site_symmetry_multiplicity
 _atom_site_fract_x
 _atom_site_fract_y
 _atom_site_fract_z
 _atom_site_occupancy
  Ni  Ni0  1  0.13355417  0.06613683  0.03875704  1.0
  Ni  Ni1  1  0.13355417  0.39947017  0.03875704  1.0
  Ni  Ni2  1  0.13355417  0.73280350  0.03875704  1.0
  Ni  Ni3  1  0.46688750  0.06613683  0.03875704  1.0
  Ni  Ni4  1  0.46688750  0.39947017  0.03875704  1.0
  Ni  Ni5  1  0.46688750  0.73280350  0.03875704  1.0
  Ni  Ni6  1  0.80022083  0.06613683  0.03875704  1.0
  Ni  Ni7  1  0.80022083  0.39947017  0.03875704  1.0
  Ni  Ni8  1  0.80022083  0.73280350  0.03875704  1.0
  Ni  Ni9  1  0.19977917  0.26719650  0.03816604  1.0
  Ni  Ni10  1  0.19977917  0.60052983  0.03816604  1.0
  Ni  Ni11  1  0.19977917  0.93386317  0.03816604  1.0
  Ni  Ni12  1  0.53311250  0.26719650  0.03816604  1.0
  Ni  Ni13  1  0.53311250  0.60052983  0.03816604  1.0
  Ni  Ni14  1  0.53311250  0.93386317  0.03816604  1.0
  Ni  Ni15  1  0.86644583  0.26719650  0.03816604  1.0
  Ni  Ni16  1  0.86644583  0.60052983  0.03816604  1.0
  Ni  Ni17  1  0.86644583  0.93386317  0.03816604  1.0
  Ni  Ni18  1  0.26719650  0.13355417  0.03848188  1.0
  Ni  Ni19  1  0.26719650  0.46688750  0.03848188  1.0
  Ni  Ni20  1  0.26719650  0.80022083  0.03848188  1.0
  Ni  Ni21  1  0.60052983  0.13355417  0.03848188  1.0
  Ni  Ni22  1  0.60052983  0.46688750  0.03848188  1.0
  Ni  Ni23  1  0.60052983  0.80022083  0.03848188  1.0
  Ni  Ni24  1  0.93386317  0.13355417  0.03848188  1.0
  Ni  Ni25  1  0.93386317  0.46688750  0.03848188  1.0
  Ni  Ni26  1  0.93386317  0.80022083  0.03848188  1.0
  Ni  Ni27  1  0.06613683  0.19977917  0.03844119  1.0
  Ni  Ni28  1  0.06613683  0.53311250  0.03844119  1.0
  Ni  Ni29  1  0.06613683  0.86644583  0.03844119  1.0
  Ni  Ni30  1  0.39947017  0.19977917  0.03844119  1.0
  Ni  Ni31  1  0.39947017  0.53311250  0.03844119  1.0
  Ni  Ni32  1  0.39947017  0.86644583  0.03844119  1.0
  Ni  Ni33  1  0.73280350  0.19977917  0.03844119  1.0
  Ni  Ni34  1  0.73280350  0.53311250  0.03844119  1.0
  Ni  Ni35  1  0.73280350  0.86644583  0.03844119  1.0
  Mo  Mo36  1  0.00000000  0.00000000  0.03846154  1.0
  Mo  Mo37  1  0.00000000  0.33333333  0.03846154  1.0
  Mo  Mo38  1  0.00000000  0.66666667  0.03846154  1.0
  Mo  Mo39  1  0.33333333  0.00000000  0.03846154  1.0
  Mo  Mo40  1  0.33333333  0.33333333  0.03846154  1.0
  Mo  Mo41  1  0.33333333  0.66666667  0.03846154  1.0
  Mo  Mo42  1  0.66666667  0.00000000  0.03846154  1.0
  Mo  Mo43  1  0.66666667  0.33333333  0.03846154  1.0
  Mo  Mo44  1  0.66666667  0.66666667  0.03846154  1.0
  Ni  Ni45  1  0.13355417  0.06613683  0.11568012  1.0
  Ni  Ni46  1  0.13355417  0.39947017  0.11568012  1.0
  Ni  Ni47  1  0.13355417  0.73280350  0.11568012  1.0
  Ni  Ni48  1  0.46688750  0.06613683  0.11568012  1.0
  Ni  Ni49  1  0.46688750  0.39947017  0.11568012  1.0
  Ni  Ni50  1  0.46688750  0.73280350  0.11568012  1.0
  Ni  Ni51  1  0.80022083  0.06613683  0.11568012  1.0
  Ni  Ni52  1  0.80022083  0.39947017  0.11568012  1.0
  Ni  Ni53  1  0.80022083  0.73280350  0.11568012  1.0
  Ni  Ni54  1  0.19977917  0.26719650  0.11508912  1.0
  Ni  Ni55  1  0.19977917  0.60052983  0.11508912  1.0
  Ni  Ni56  1  0.19977917  0.93386317  0.11508912  1.0
  Ni  Ni57  1  0.53311250  0.26719650  0.11508912  1.0
  Ni  Ni58  1  0.53311250  0.60052983  0.11508912  1.0
  Ni  Ni59  1  0.53311250  0.93386317  0.11508912  1.0
  Ni  Ni60  1  0.86644583  0.26719650  0.11508912  1.0
  Ni  Ni61  1  0.86644583  0.60052983  0.11508912  1.0
  Ni  Ni62  1  0.86644583  0.93386317  0.11508912  1.0
  Ni  Ni63  1  0.26719650  0.13355417  0.11540496  1.0
  Ni  Ni64  1  0.26719650  0.46688750  0.11540496  1.0
  Ni  Ni65  1  0.26719650  0.80022083  0.11540496  1.0
  Ni  Ni66  1  0.60052983  0.13355417  0.11540496  1.0
  Ni  Ni67  1  0.60052983  0.46688750  0.11540496  1.0
  Ni  Ni68  1  0.60052983  0.80022083  0.11540496  1.0
  Ni  Ni69  1  0.93386317  0.13355417  0.11540496  1.0
  Ni  Ni70  1  0.93386317  0.46688750  0.11540496  1.0
  Ni  Ni71  1  0.93386317  0.80022083  0.11540496  1.0
  Ni  Ni72  1  0.06613683  0.19977917  0.11536427  1.0
  Ni  Ni73  1  0.06613683  0.53311250  0.11536427  1.0
  Ni  Ni74  1  0.06613683  0.86644583  0.11536427  1.0
  Ni  Ni75  1  0.39947017  0.19977917  0.11536427  1.0
  Ni  Ni76  1  0.39947017  0.53311250  0.11536427  1.0
  Ni  Ni77  1  0.39947017  0.86644583  0.11536427  1.0
  Ni  Ni78  1  0.73280350  0.19977917  0.11536427  1.0
  Ni  Ni79  1  0.73280350  0.53311250  0.11536427  1.0
  Ni  Ni80  1  0.73280350  0.86644583  0.11536427  1.0
  Mo  Mo81  1  0.00000000  0.00000000  0.11538462  1.0
  Mo  Mo82  1  0.00000000  0.33333333  0.11538462  1.0
  Mo  Mo83  1  0.00000000  0.66666667  0.11538462  1.0
  Mo  Mo84  1  0.33333333  0.00000000  0.11538462  1.0
  Mo  Mo85  1  0.33333333  0.33333333  0.11538462  1.0
  Mo  Mo86  1  0.33333333  0.66666667  0.11538462  1.0
  Mo  Mo87  1  0.66666667  0.00000000  0.11538462  1.0
  Mo  Mo88  1  0.66666667  0.33333333  0.11538462  1.0
  Mo  Mo89  1  0.66666667  0.66666667  0.11538462  1.0
  Ni  Ni90  1  0.13355417  0.06613683  0.19260319  1.0
  Ni  Ni91  1  0.13355417  0.39947017  0.19260319  1.0
  Ni  Ni92  1  0.13355417  0.73280350  0.19260319  1.0
  Ni  Ni93  1  0.46688750  0.06613683  0.19260319  1.0
  Ni  Ni94  1  0.46688750  0.39947017  0.19260319  1.0
  Ni  Ni95  1  0.46688750  0.73280350  0.19260319  1.0
  Ni  Ni96  1  0.80022083  0.06613683  0.19260319  1.0
  Ni  Ni97  1  0.80022083  0.39947017  0.19260319  1.0
  Ni  Ni98  1  0.80022083  0.73280350  0.19260319  1.0
  Ni  Ni99  1  0.19977917  0.26719650  0.19201219  1.0
  Ni  Ni100  1  0.19977917  0.60052983  0.19201219  1.0
  Ni  Ni101  1  0.19977917  0.93386317  0.19201219  1.0
  Ni  Ni102  1  0.53311250  0.26719650  0.19201219  1.0
  Ni  Ni103  1  0.53311250  0.60052983  0.19201219  1.0
  Ni  Ni104  1  0.53311250  0.93386317  0.19201219  1.0
  Ni  Ni105  1  0.86644583  0.26719650  0.19201219  1.0
  Ni  Ni106  1  0.86644583  0.60052983  0.19201219  1.0
  Ni  Ni107  1  0.86644583  0.93386317  0.19201219  1.0
  Ni  Ni108  1  0.26719650  0.13355417  0.19232804  1.0
  Ni  Ni109  1  0.26719650  0.46688750  0.19232804  1.0
  Ni  Ni110  1  0.26719650  0.80022083  0.19232804  1.0
  Ni  Ni111  1  0.60052983  0.13355417  0.19232804  1.0
  Ni  Ni112  1  0.60052983  0.46688750  0.19232804  1.0
  Ni  Ni113  1  0.60052983  0.80022083  0.19232804  1.0
  Ni  Ni114  1  0.93386317  0.13355417  0.19232804  1.0
  Ni  Ni115  1  0.93386317  0.46688750  0.19232804  1.0
  Ni  Ni116  1  0.93386317  0.80022083  0.19232804  1.0
  Ni  Ni117  1  0.06613683  0.19977917  0.19228735  1.0
  Ni  Ni118  1  0.06613683  0.53311250  0.19228735  1.0
  Ni  Ni119  1  0.06613683  0.86644583  0.19228735  1.0
  Ni  Ni120  1  0.39947017  0.19977917  0.19228735  1.0
  Ni  Ni121  1  0.39947017  0.53311250  0.19228735  1.0
  Ni  Ni122  1  0.39947017  0.86644583  0.19228735  1.0
  Ni  Ni123  1  0.73280350  0.19977917  0.19228735  1.0
  Ni  Ni124  1  0.73280350  0.53311250  0.19228735  1.0
  Ni  Ni125  1  0.73280350  0.86644583  0.19228735  1.0
  Mo  Mo126  1  0.00000000  0.00000000  0.19230769  1.0
  Mo  Mo127  1  0.00000000  0.33333333  0.19230769  1.0
  Mo  Mo128  1  0.00000000  0.66666667  0.19230769  1.0
  Mo  Mo129  1  0.33333333  0.00000000  0.19230769  1.0
  Mo  Mo130  1  0.33333333  0.33333333  0.19230769  1.0
  Mo  Mo131  1  0.33333333  0.66666667  0.19230769  1.0
  Mo  Mo132  1  0.66666667  0.00000000  0.19230769  1.0
  Mo  Mo133  1  0.66666667  0.33333333  0.19230769  1.0
  Mo  Mo134  1  0.66666667  0.66666667  0.19230769  1.0
  Ni  Ni135  1  0.13355417  0.06613683  0.26952627  1.0
  Ni  Ni136  1  0.13355417  0.39947017  0.26952627  1.0
  Ni  Ni137  1  0.13355417  0.73280350  0.26952627  1.0
  Ni  Ni138  1  0.46688750  0.06613683  0.26952627  1.0
  Ni  Ni139  1  0.46688750  0.39947017  0.26952627  1.0
  Ni  Ni140  1  0.46688750  0.73280350  0.26952627  1.0
  Ni  Ni141  1  0.80022083  0.06613683  0.26952627  1.0
  Ni  Ni142  1  0.80022083  0.39947017  0.26952627  1.0
  Ni  Ni143  1  0.80022083  0.73280350  0.26952627  1.0
  Ni  Ni144  1  0.19977917  0.26719650  0.26893527  1.0
  Ni  Ni145  1  0.19977917  0.60052983  0.26893527  1.0
  Ni  Ni146  1  0.19977917  0.93386317  0.26893527  1.0
  Ni  Ni147  1  0.53311250  0.26719650  0.26893527  1.0
  Ni  Ni148  1  0.53311250  0.60052983  0.26893527  1.0
  Ni  Ni149  1  0.53311250  0.93386317  0.26893527  1.0
  Ni  Ni150  1  0.86644583  0.26719650  0.26893527  1.0
  Ni  Ni151  1  0.86644583  0.60052983  0.26893527  1.0
  Ni  Ni152  1  0.86644583  0.93386317  0.26893527  1.0
  Ni  Ni153  1  0.26719650  0.13355417  0.26925112  1.0
  Ni  Ni154  1  0.26719650  0.46688750  0.26925112  1.0
  Ni  Ni155  1  0.26719650  0.80022083  0.26925112  1.0
  Ni  Ni156  1  0.60052983  0.13355417  0.26925112  1.0
  Ni  Ni157  1  0.60052983  0.46688750  0.26925112  1.0
  Ni  Ni158  1  0.60052983  0.80022083  0.26925112  1.0
  Ni  Ni159  1  0.93386317  0.13355417  0.26925112  1.0
  Ni  Ni160  1  0.93386317  0.46688750  0.26925112  1.0
  Ni  Ni161  1  0.93386317  0.80022083  0.26925112  1.0
  Ni  Ni162  1  0.06613683  0.19977917  0.26921042  1.0
  Ni  Ni163  1  0.06613683  0.53311250  0.26921042  1.0
  Ni  Ni164  1  0.06613683  0.86644583  0.26921042  1.0
  Ni  Ni165  1  0.39947017  0.19977917  0.26921042  1.0
  Ni  Ni166  1  0.39947017  0.53311250  0.26921042  1.0
  Ni  Ni167  1  0.39947017  0.86644583  0.26921042  1.0
  Ni  Ni168  1  0.73280350  0.19977917  0.26921042  1.0
  Ni  Ni169  1  0.73280350  0.53311250  0.26921042  1.0
  Ni  Ni170  1  0.73280350  0.86644583  0.26921042  1.0
  Mo  Mo171  1  0.00000000  0.00000000  0.26923077  1.0
  Mo  Mo172  1  0.00000000  0.33333333  0.26923077  1.0
  Mo  Mo173  1  0.00000000  0.66666667  0.26923077  1.0
  Mo  Mo174  1  0.33333333  0.00000000  0.26923077  1.0
  Mo  Mo175  1  0.33333333  0.33333333  0.26923077  1.0
  Mo  Mo176  1  0.33333333  0.66666667  0.26923077  1.0
  Mo  Mo177  1  0.66666667  0.00000000  0.26923077  1.0
  Mo  Mo178  1  0.66666667  0.33333333  0.26923077  1.0
  Mo  Mo179  1  0.66666667  0.66666667  0.26923077  1.0
  Ni  Ni180  1  0.13355417  0.06613683  0.34644935  1.0
  Ni  Ni181  1  0.13355417  0.39947017  0.34644935  1.0
  Ni  Ni182  1  0.13355417  0.73280350  0.34644935  1.0
  Ni  Ni183  1  0.46688750  0.06613683  0.34644935  1.0
  Ni  Ni184  1  0.46688750  0.39947017  0.34644935  1.0
  Ni  Ni185  1  0.46688750  0.73280350  0.34644935  1.0
  Ni  Ni186  1  0.80022083  0.06613683  0.34644935  1.0
  Ni  Ni187  1  0.80022083  0.39947017  0.34644935  1.0
  Ni  Ni188  1  0.80022083  0.73280350  0.34644935  1.0
  Ni  Ni189  1  0.19977917  0.26719650  0.34585835  1.0
  Ni  Ni190  1  0.19977917  0.60052983  0.34585835  1.0
  Ni  Ni191  1  0.19977917  0.93386317  0.34585835  1.0
  Ni  Ni192  1  0.53311250  0.26719650  0.34585835  1.0
  Ni  Ni193  1  0.53311250  0.60052983  0.34585835  1.0
  Ni  Ni194  1  0.53311250  0.93386317  0.34585835  1.0
  Ni  Ni195  1  0.86644583  0.26719650  0.34585835  1.0
  Ni  Ni196  1  0.86644583  0.60052983  0.34585835  1.0
  Ni  Ni197  1  0.86644583  0.93386317  0.34585835  1.0
  Ni  Ni198  1  0.26719650  0.13355417  0.34617419  1.0
  Ni  Ni199  1  0.26719650  0.46688750  0.34617419  1.0
  Ni  Ni200  1  0.26719650  0.80022083  0.34617419  1.0
  Ni  Ni201  1  0.60052983  0.13355417  0.34617419  1.0
  Ni  Ni202  1  0.60052983  0.46688750  0.34617419  1.0
  Ni  Ni203  1  0.60052983  0.80022083  0.34617419  1.0
  Ni  Ni204  1  0.93386317  0.13355417  0.34617419  1.0
  Ni  Ni205  1  0.93386317  0.46688750  0.34617419  1.0
  Ni  Ni206  1  0.93386317  0.80022083  0.34617419  1.0
  Ni  Ni207  1  0.06613683  0.19977917  0.34613350  1.0
  Ni  Ni208  1  0.06613683  0.53311250  0.34613350  1.0
  Ni  Ni209  1  0.06613683  0.86644583  0.34613350  1.0
  Ni  Ni210  1  0.39947017  0.19977917  0.34613350  1.0
  Ni  Ni211  1  0.39947017  0.53311250  0.34613350  1.0
  Ni  Ni212  1  0.39947017  0.86644583  0.34613350  1.0
  Ni  Ni213  1  0.73280350  0.19977917  0.34613350  1.0
  Ni  Ni214  1  0.73280350  0.53311250  0.34613350  1.0
  Ni  Ni215  1  0.73280350  0.86644583  0.34613350  1.0
  Mo  Mo216  1  0.00000000  0.00000000  0.34615385  1.0
  Mo  Mo217  1  0.00000000  0.33333333  0.34615385  1.0
  Mo  Mo218  1  0.00000000  0.66666667  0.34615385  1.0
  Mo  Mo219  1  0.33333333  0.00000000  0.34615385  1.0
  Mo  Mo220  1  0.33333333  0.33333333  0.34615385  1.0
  Mo  Mo221  1  0.33333333  0.66666667  0.34615385  1.0
  Mo  Mo222  1  0.66666667  0.00000000  0.34615385  1.0
  Mo  Mo223  1  0.66666667  0.33333333  0.34615385  1.0
  Mo  Mo224  1  0.66666667  0.66666667  0.34615385  1.0
