# generated using pymatgen
data_Ni4Mo
_symmetry_space_group_name_H-M   'P 1'
_cell_length_a   24.27172521
_cell_length_b   31.50255757
_cell_length_c   53.02456920
_cell_angle_alpha   56.14925941
_cell_angle_beta   90.00000000
_cell_angle_gamma   39.60403035
_symmetry_Int_Tables_number   1
_chemical_formula_structural   Ni4Mo
_chemical_formula_sum   'Ni360 Mo90'
_cell_volume   12568.19799008
_cell_formula_units_Z   90
loop_
 _symmetry_equiv_pos_site_id
 _symmetry_equiv_pos_as_xyz
  1  'x, y, z'
loop_
 _atom_site_type_symbol
 _atom_site_label
 _atom_site_symmetry_multiplicity
 _atom_site_fract_x
 _atom_site_fract_y
 _atom_site_fract_z
 _atom_site_occupancy
  Ni  Ni0  1  0.13355417  0.29962467  0.02105690  1.0
  Ni  Ni1  1  0.13355417  0.63295800  0.02105690  1.0
  Ni  Ni2  1  0.13355417  0.96629133  0.02105690  1.0
  Ni  Ni3  1  0.46688750  0.29962467  0.02105690  1.0
  Ni  Ni4  1  0.46688750  0.63295800  0.02105690  1.0
  Ni  Ni5  1  0.46688750  0.96629133  0.02105690  1.0
  Ni  Ni6  1  0.80022083  0.29962467  0.02105690  1.0
  Ni  Ni7  1  0.80022083  0.63295800  0.02105690  1.0
  Ni  Ni8  1  0.80022083  0.96629133  0.02105690  1.0
  Ni  Ni9  1  0.13355417  0.13295800  0.06272356  1.0
  Ni  Ni10  1  0.13355417  0.46629133  0.06272356  1.0
  Ni  Ni11  1  0.13355417  0.79962467  0.06272356  1.0
  Ni  Ni12  1  0.46688750  0.13295800  0.06272356  1.0
  Ni  Ni13  1  0.46688750  0.46629133  0.06272356  1.0
  Ni  Ni14  1  0.46688750  0.79962467  0.06272356  1.0
  Ni  Ni15  1  0.80022083  0.13295800  0.06272356  1.0
  Ni  Ni16  1  0.80022083  0.46629133  0.06272356  1.0
  Ni  Ni17  1  0.80022083  0.79962467  0.06272356  1.0
  Ni  Ni18  1  0.19977917  0.03370867  0.05382723  1.0
  Ni  Ni19  1  0.19977917  0.36704200  0.05382723  1.0
  Ni  Ni20  1  0.19977917  0.70037533  0.05382723  1.0
  Ni  Ni21  1  0.53311250  0.03370867  0.05382723  1.0
  Ni  Ni22  1  0.53311250  0.36704200  0.05382723  1.0
  Ni  Ni23  1  0.53311250  0.70037533  0.05382723  1.0
  Ni  Ni24  1  0.86644583  0.03370867  0.05382723  1.0
  Ni  Ni25  1  0.86644583  0.36704200  0.05382723  1.0
  Ni  Ni26  1  0.86644583  0.70037533  0.05382723  1.0
  Ni  Ni27  1  0.19977917  0.20037533  0.01216056  1.0
  Ni  Ni28  1  0.19977917  0.53370867  0.01216056  1.0
  Ni  Ni29  1  0.19977917  0.86704200  0.01216056  1.0
  Ni  Ni30  1  0.53311250  0.20037533  0.01216056  1.0
  Ni  Ni31  1  0.53311250  0.53370867  0.01216056  1.0
  Ni  Ni32  1  0.53311250  0.86704200  0.01216056  1.0
  Ni  Ni33  1  0.86644583  0.20037533  0.01216056  1.0
  Ni  Ni34  1  0.86644583  0.53370867  0.01216056  1.0
  Ni  Ni35  1  0.86644583  0.86704200  0.01216056  1.0
  Ni  Ni36  1  0.26719650  0.26651217  0.04589127  1.0
  Ni  Ni37  1  0.26719650  0.59984550  0.04589127  1.0
  Ni  Ni38  1  0.26719650  0.93317883  0.04589127  1.0
  Ni  Ni39  1  0.60052983  0.26651217  0.04589127  1.0
  Ni  Ni40  1  0.60052983  0.59984550  0.04589127  1.0
  Ni  Ni41  1  0.60052983  0.93317883  0.04589127  1.0
  Ni  Ni42  1  0.93386317  0.26651217  0.04589127  1.0
  Ni  Ni43  1  0.93386317  0.59984550  0.04589127  1.0
  Ni  Ni44  1  0.93386317  0.93317883  0.04589127  1.0
  Ni  Ni45  1  0.26719650  0.09984550  0.00422460  1.0
  Ni  Ni46  1  0.26719650  0.43317883  0.00422460  1.0
  Ni  Ni47  1  0.26719650  0.76651217  0.00422460  1.0
  Ni  Ni48  1  0.60052983  0.09984550  0.00422460  1.0
  Ni  Ni49  1  0.60052983  0.43317883  0.00422460  1.0
  Ni  Ni50  1  0.60052983  0.76651217  0.00422460  1.0
  Ni  Ni51  1  0.93386317  0.09984550  0.00422460  1.0
  Ni  Ni52  1  0.93386317  0.43317883  0.00422460  1.0
  Ni  Ni53  1  0.93386317  0.76651217  0.00422460  1.0
  Ni  Ni54  1  0.06613683  0.06682117  0.02899285  1.0
  Ni  Ni55  1  0.06613683  0.40015450  0.02899285  1.0
  Ni  Ni56  1  0.06613683  0.73348783  0.02899285  1.0
  Ni  Ni57  1  0.39947017  0.06682117  0.02899285  1.0
  Ni  Ni58  1  0.39947017  0.40015450  0.02899285  1.0
  Ni  Ni59  1  0.39947017  0.73348783  0.02899285  1.0
  Ni  Ni60  1  0.73280350  0.06682117  0.02899285  1.0
  Ni  Ni61  1  0.73280350  0.40015450  0.02899285  1.0
  Ni  Ni62  1  0.73280350  0.73348783  0.02899285  1.0
  Ni  Ni63  1  0.06613683  0.23348783  0.07065952  1.0
  Ni  Ni64  1  0.06613683  0.56682117  0.07065952  1.0
  Ni  Ni65  1  0.06613683  0.90015450  0.07065952  1.0
  Ni  Ni66  1  0.39947017  0.23348783  0.07065952  1.0
  Ni  Ni67  1  0.39947017  0.56682117  0.07065952  1.0
  Ni  Ni68  1  0.39947017  0.90015450  0.07065952  1.0
  Ni  Ni69  1  0.73280350  0.23348783  0.07065952  1.0
  Ni  Ni70  1  0.73280350  0.56682117  0.07065952  1.0
  Ni  Ni71  1  0.73280350  0.90015450  0.07065952  1.0
  Mo  Mo72  1  0.00000000  0.16666667  0.03744206  1.0
  Mo  Mo73  1  0.00000000  0.50000000  0.03744206  1.0
  Mo  Mo74  1  0.00000000  0.83333333  0.03744206  1.0
  Mo  Mo75  1  0.33333333  0.16666667  0.03744206  1.0
  Mo  Mo76  1  0.33333333  0.50000000  0.03744206  1.0
  Mo  Mo77  1  0.33333333  0.83333333  0.03744206  1.0
  Mo  Mo78  1  0.66666667  0.16666667  0.03744206  1.0
  Mo  Mo79  1  0.66666667  0.50000000  0.03744206  1.0
  Mo  Mo80  1  0.66666667  0.83333333  0.03744206  1.0
  Mo  Mo81  1  0.00000000  0.00000000  0.07910873  1.0
  Mo  Mo82  1  0.00000000  0.33333333  0.07910873  1.0
  Mo  Mo83  1  0.00000000  0.66666667  0.07910873  1.0
  Mo  Mo84  1  0.33333333  0.00000000  0.07910873  1.0
  Mo  Mo85  1  0.33333333  0.33333333  0.07910873  1.0
  Mo  Mo86  1  0.33333333  0.66666667  0.07910873  1.0
  Mo  Mo87  1  0.66666667  0.00000000  0.07910873  1.0
  Mo  Mo88  1  0.66666667  0.33333333  0.07910873  1.0
  Mo  Mo89  1  0.66666667  0.66666667  0.07910873  1.0
  Ni  Ni90  1  0.13355417  0.29962467  0.10439023  1.0
  Ni  Ni91  1  0.13355417  0.63295800  0.10439023  1.0
  Ni  Ni92  1  0.13355417  0.96629133  0.10439023  1.0
  Ni  Ni93  1  0.46688750  0.29962467  0.10439023  1.0
  Ni  Ni94  1  0.46688750  0.63295800  0.10439023  1.0
  Ni  Ni95  1  0.46688750  0.96629133  0.10439023  1.0
  Ni  Ni96  1  0.80022083  0.29962467  0.10439023  1.0
  Ni  Ni97  1  0.80022083  0.63295800  0.10439023  1.0
  Ni  Ni98  1  0.80022083  0.96629133  0.10439023  1.0
  Ni  Ni99  1  0.13355417  0.13295800  0.14605690  1.0
  Ni  Ni100  1  0.13355417  0.46629133  0.14605690  1.0
  Ni  Ni101  1  0.13355417  0.79962467  0.14605690  1.0
  Ni  Ni102  1  0.46688750  0.13295800  0.14605690  1.0
  Ni  Ni103  1  0.46688750  0.46629133  0.14605690  1.0
  Ni  Ni104  1  0.46688750  0.79962467  0.14605690  1.0
  Ni  Ni105  1  0.80022083  0.13295800  0.14605690  1.0
  Ni  Ni106  1  0.80022083  0.46629133  0.14605690  1.0
  Ni  Ni107  1  0.80022083  0.79962467  0.14605690  1.0
  Ni  Ni108  1  0.19977917  0.03370867  0.13716056  1.0
  Ni  Ni109  1  0.19977917  0.36704200  0.13716056  1.0
  Ni  Ni110  1  0.19977917  0.70037533  0.13716056  1.0
  Ni  Ni111  1  0.53311250  0.03370867  0.13716056  1.0
  Ni  Ni112  1  0.53311250  0.36704200  0.13716056  1.0
  Ni  Ni113  1  0.53311250  0.70037533  0.13716056  1.0
  Ni  Ni114  1  0.86644583  0.03370867  0.13716056  1.0
  Ni  Ni115  1  0.86644583  0.36704200  0.13716056  1.0
  Ni  Ni116  1  0.86644583  0.70037533  0.13716056  1.0
  Ni  Ni117  1  0.19977917  0.20037533  0.09549390  1.0
  Ni  Ni118  1  0.19977917  0.53370867  0.09549390  1.0
  Ni  Ni119  1  0.19977917  0.86704200  0.09549390  1.0
  Ni  Ni120  1  0.53311250  0.20037533  0.09549390  1.0
  Ni  Ni121  1  0.53311250  0.53370867  0.09549390  1.0
  Ni  Ni122  1  0.53311250  0.86704200  0.09549390  1.0
  Ni  Ni123  1  0.86644583  0.20037533  0.09549390  1.0
  Ni  Ni124  1  0.86644583  0.53370867  0.09549390  1.0
  Ni  Ni125  1  0.86644583  0.86704200  0.09549390  1.0
  Ni  Ni126  1  0.26719650  0.26651217  0.12922460  1.0
  Ni  Ni127  1  0.26719650  0.59984550  0.12922460  1.0
  Ni  Ni128  1  0.26719650  0.93317883  0.12922460  1.0
  Ni  Ni129  1  0.60052983  0.26651217  0.12922460  1.0
  Ni  Ni130  1  0.60052983  0.59984550  0.12922460  1.0
  Ni  Ni131  1  0.60052983  0.93317883  0.12922460  1.0
  Ni  Ni132  1  0.93386317  0.26651217  0.12922460  1.0
  Ni  Ni133  1  0.93386317  0.59984550  0.12922460  1.0
  Ni  Ni134  1  0.93386317  0.93317883  0.12922460  1.0
  Ni  Ni135  1  0.26719650  0.09984550  0.08755794  1.0
  Ni  Ni136  1  0.26719650  0.43317883  0.08755794  1.0
  Ni  Ni137  1  0.26719650  0.76651217  0.08755794  1.0
  Ni  Ni138  1  0.60052983  0.09984550  0.08755794  1.0
  Ni  Ni139  1  0.60052983  0.43317883  0.08755794  1.0
  Ni  Ni140  1  0.60052983  0.76651217  0.08755794  1.0
  Ni  Ni141  1  0.93386317  0.09984550  0.08755794  1.0
  Ni  Ni142  1  0.93386317  0.43317883  0.08755794  1.0
  Ni  Ni143  1  0.93386317  0.76651217  0.08755794  1.0
  Ni  Ni144  1  0.06613683  0.06682117  0.11232619  1.0
  Ni  Ni145  1  0.06613683  0.40015450  0.11232619  1.0
  Ni  Ni146  1  0.06613683  0.73348783  0.11232619  1.0
  Ni  Ni147  1  0.39947017  0.06682117  0.11232619  1.0
  Ni  Ni148  1  0.39947017  0.40015450  0.11232619  1.0
  Ni  Ni149  1  0.39947017  0.73348783  0.11232619  1.0
  Ni  Ni150  1  0.73280350  0.06682117  0.11232619  1.0
  Ni  Ni151  1  0.73280350  0.40015450  0.11232619  1.0
  Ni  Ni152  1  0.73280350  0.73348783  0.11232619  1.0
  Ni  Ni153  1  0.06613683  0.23348783  0.15399285  1.0
  Ni  Ni154  1  0.06613683  0.56682117  0.15399285  1.0
  Ni  Ni155  1  0.06613683  0.90015450  0.15399285  1.0
  Ni  Ni156  1  0.39947017  0.23348783  0.15399285  1.0
  Ni  Ni157  1  0.39947017  0.56682117  0.15399285  1.0
  Ni  Ni158  1  0.39947017  0.90015450  0.15399285  1.0
  Ni  Ni159  1  0.73280350  0.23348783  0.15399285  1.0
  Ni  Ni160  1  0.73280350  0.56682117  0.15399285  1.0
  Ni  Ni161  1  0.73280350  0.90015450  0.15399285  1.0
  Mo  Mo162  1  0.00000000  0.16666667  0.12077540  1.0
  Mo  Mo163  1  0.00000000  0.50000000  0.12077540  1.0
  Mo  Mo164  1  0.00000000  0.83333333  0.12077540  1.0
  Mo  Mo165  1  0.33333333  0.16666667  0.12077540  1.0
  Mo  Mo166  1  0.33333333  0.50000000  0.12077540  1.0
  Mo  Mo167  1  0.33333333  0.83333333  0.12077540  1.0
  Mo  Mo168  1  0.66666667  0.16666667  0.12077540  1.0
  Mo  Mo169  1  0.66666667  0.50000000  0.12077540  1.0
  Mo  Mo170  1  0.66666667  0.83333333  0.12077540  1.0
  Mo  Mo171  1  0.00000000  0.00000000  0.16244206  1.0
  Mo  Mo172  1  0.00000000  0.33333333  0.16244206  1.0
  Mo  Mo173  1  0.00000000  0.66666667  0.16244206  1.0
  Mo  Mo174  1  0.33333333  0.00000000  0.16244206  1.0
  Mo  Mo175  1  0.33333333  0.33333333  0.16244206  1.0
  Mo  Mo176  1  0.33333333  0.66666667  0.16244206  1.0
  Mo  Mo177  1  0.66666667  0.00000000  0.16244206  1.0
  Mo  Mo178  1  0.66666667  0.33333333  0.16244206  1.0
  Mo  Mo179  1  0.66666667  0.66666667  0.16244206  1.0
  Ni  Ni180  1  0.13355417  0.29962467  0.18772356  1.0
  Ni  Ni181  1  0.13355417  0.63295800  0.18772356  1.0
  Ni  Ni182  1  0.13355417  0.96629133  0.18772356  1.0
  Ni  Ni183  1  0.46688750  0.29962467  0.18772356  1.0
  Ni  Ni184  1  0.46688750  0.63295800  0.18772356  1.0
  Ni  Ni185  1  0.46688750  0.96629133  0.18772356  1.0
  Ni  Ni186  1  0.80022083  0.29962467  0.18772356  1.0
  Ni  Ni187  1  0.80022083  0.63295800  0.18772356  1.0
  Ni  Ni188  1  0.80022083  0.96629133  0.18772356  1.0
  Ni  Ni189  1  0.13355417  0.13295800  0.22939023  1.0
  Ni  Ni190  1  0.13355417  0.46629133  0.22939023  1.0
  Ni  Ni191  1  0.13355417  0.79962467  0.22939023  1.0
  Ni  Ni192  1  0.46688750  0.13295800  0.22939023  1.0
  Ni  Ni193  1  0.46688750  0.46629133  0.22939023  1.0
  Ni  Ni194  1  0.46688750  0.79962467  0.22939023  1.0
  Ni  Ni195  1  0.80022083  0.13295800  0.22939023  1.0
  Ni  Ni196  1  0.80022083  0.46629133  0.22939023  1.0
  Ni  Ni197  1  0.80022083  0.79962467  0.22939023  1.0
  Ni  Ni198  1  0.19977917  0.03370867  0.22049390  1.0
  Ni  Ni199  1  0.19977917  0.36704200  0.22049390  1.0
  Ni  Ni200  1  0.19977917  0.70037533  0.22049390  1.0
  Ni  Ni201  1  0.53311250  0.03370867  0.22049390  1.0
  Ni  Ni202  1  0.53311250  0.36704200  0.22049390  1.0
  Ni  Ni203  1  0.53311250  0.70037533  0.22049390  1.0
  Ni  Ni204  1  0.86644583  0.03370867  0.22049390  1.0
  Ni  Ni205  1  0.86644583  0.36704200  0.22049390  1.0
  Ni  Ni206  1  0.86644583  0.70037533  0.22049390  1.0
  Ni  Ni207  1  0.19977917  0.20037533  0.17882723  1.0
  Ni  Ni208  1  0.19977917  0.53370867  0.17882723  1.0
  Ni  Ni209  1  0.19977917  0.86704200  0.17882723  1.0
  Ni  Ni210  1  0.53311250  0.20037533  0.17882723  1.0
  Ni  Ni211  1  0.53311250  0.53370867  0.17882723  1.0
  Ni  Ni212  1  0.53311250  0.86704200  0.17882723  1.0
  Ni  Ni213  1  0.86644583  0.20037533  0.17882723  1.0
  Ni  Ni214  1  0.86644583  0.53370867  0.17882723  1.0
  Ni  Ni215  1  0.86644583  0.86704200  0.17882723  1.0
  Ni  Ni216  1  0.26719650  0.26651217  0.21255794  1.0
  Ni  Ni217  1  0.26719650  0.59984550  0.21255794  1.0
  Ni  Ni218  1  0.26719650  0.93317883  0.21255794  1.0
  Ni  Ni219  1  0.60052983  0.26651217  0.21255794  1.0
  Ni  Ni220  1  0.60052983  0.59984550  0.21255794  1.0
  Ni  Ni221  1  0.60052983  0.93317883  0.21255794  1.0
  Ni  Ni222  1  0.93386317  0.26651217  0.21255794  1.0
  Ni  Ni223  1  0.93386317  0.59984550  0.21255794  1.0
  Ni  Ni224  1  0.93386317  0.93317883  0.21255794  1.0
  Ni  Ni225  1  0.26719650  0.09984550  0.17089127  1.0
  Ni  Ni226  1  0.26719650  0.43317883  0.17089127  1.0
  Ni  Ni227  1  0.26719650  0.76651217  0.17089127  1.0
  Ni  Ni228  1  0.60052983  0.09984550  0.17089127  1.0
  Ni  Ni229  1  0.60052983  0.43317883  0.17089127  1.0
  Ni  Ni230  1  0.60052983  0.76651217  0.17089127  1.0
  Ni  Ni231  1  0.93386317  0.09984550  0.17089127  1.0
  Ni  Ni232  1  0.93386317  0.43317883  0.17089127  1.0
  Ni  Ni233  1  0.93386317  0.76651217  0.17089127  1.0
  Ni  Ni234  1  0.06613683  0.06682117  0.19565952  1.0
  Ni  Ni235  1  0.06613683  0.40015450  0.19565952  1.0
  Ni  Ni236  1  0.06613683  0.73348783  0.19565952  1.0
  Ni  Ni237  1  0.39947017  0.06682117  0.19565952  1.0
  Ni  Ni238  1  0.39947017  0.40015450  0.19565952  1.0
  Ni  Ni239  1  0.39947017  0.73348783  0.19565952  1.0
  Ni  Ni240  1  0.73280350  0.06682117  0.19565952  1.0
  Ni  Ni241  1  0.73280350  0.40015450  0.19565952  1.0
  Ni  Ni242  1  0.73280350  0.73348783  0.19565952  1.0
  Ni  Ni243  1  0.06613683  0.23348783  0.23732619  1.0
  Ni  Ni244  1  0.06613683  0.56682117  0.23732619  1.0
  Ni  Ni245  1  0.06613683  0.90015450  0.23732619  1.0
  Ni  Ni246  1  0.39947017  0.23348783  0.23732619  1.0
  Ni  Ni247  1  0.39947017  0.56682117  0.23732619  1.0
  Ni  Ni248  1  0.39947017  0.90015450  0.23732619  1.0
  Ni  Ni249  1  0.73280350  0.23348783  0.23732619  1.0
  Ni  Ni250  1  0.73280350  0.56682117  0.23732619  1.0
  Ni  Ni251  1  0.73280350  0.90015450  0.23732619  1.0
  Mo  Mo252  1  0.00000000  0.16666667  0.20410873  1.0
  Mo  Mo253  1  0.00000000  0.50000000  0.20410873  1.0
  Mo  Mo254  1  0.00000000  0.83333333  0.20410873  1.0
  Mo  Mo255  1  0.33333333  0.16666667  0.20410873  1.0
  Mo  Mo256  1  0.33333333  0.50000000  0.20410873  1.0
  Mo  Mo257  1  0.33333333  0.83333333  0.20410873  1.0
  Mo  Mo258  1  0.66666667  0.16666667  0.20410873  1.0
  Mo  Mo259  1  0.66666667  0.50000000  0.20410873  1.0
  Mo  Mo260  1  0.66666667  0.83333333  0.20410873  1.0
  Mo  Mo261  1  0.00000000  0.00000000  0.24577540  1.0
  Mo  Mo262  1  0.00000000  0.33333333  0.24577540  1.0
  Mo  Mo263  1  0.00000000  0.66666667  0.24577540  1.0
  Mo  Mo264  1  0.33333333  0.00000000  0.24577540  1.0
  Mo  Mo265  1  0.33333333  0.33333333  0.24577540  1.0
  Mo  Mo266  1  0.33333333  0.66666667  0.24577540  1.0
  Mo  Mo267  1  0.66666667  0.00000000  0.24577540  1.0
  Mo  Mo268  1  0.66666667  0.33333333  0.24577540  1.0
  Mo  Mo269  1  0.66666667  0.66666667  0.24577540  1.0
  Ni  Ni270  1  0.13355417  0.29962467  0.27105690  1.0
  Ni  Ni271  1  0.13355417  0.63295800  0.27105690  1.0
  Ni  Ni272  1  0.13355417  0.96629133  0.27105690  1.0
  Ni  Ni273  1  0.46688750  0.29962467  0.27105690  1.0
  Ni  Ni274  1  0.46688750  0.63295800  0.27105690  1.0
  Ni  Ni275  1  0.46688750  0.96629133  0.27105690  1.0
  Ni  Ni276  1  0.80022083  0.29962467  0.27105690  1.0
  Ni  Ni277  1  0.80022083  0.63295800  0.27105690  1.0
  Ni  Ni278  1  0.80022083  0.96629133  0.27105690  1.0
  Ni  Ni279  1  0.13355417  0.13295800  0.31272356  1.0
  Ni  Ni280  1  0.13355417  0.46629133  0.31272356  1.0
  Ni  Ni281  1  0.13355417  0.79962467  0.31272356  1.0
  Ni  Ni282  1  0.46688750  0.13295800  0.31272356  1.0
  Ni  Ni283  1  0.46688750  0.46629133  0.31272356  1.0
  Ni  Ni284  1  0.46688750  0.79962467  0.31272356  1.0
  Ni  Ni285  1  0.80022083  0.13295800  0.31272356  1.0
  Ni  Ni286  1  0.80022083  0.46629133  0.31272356  1.0
  Ni  Ni287  1  0.80022083  0.79962467  0.31272356  1.0
  Ni  Ni288  1  0.19977917  0.03370867  0.30382723  1.0
  Ni  Ni289  1  0.19977917  0.36704200  0.30382723  1.0
  Ni  Ni290  1  0.19977917  0.70037533  0.30382723  1.0
  Ni  Ni291  1  0.53311250  0.03370867  0.30382723  1.0
  Ni  Ni292  1  0.53311250  0.36704200  0.30382723  1.0
  Ni  Ni293  1  0.53311250  0.70037533  0.30382723  1.0
  Ni  Ni294  1  0.86644583  0.03370867  0.30382723  1.0
  Ni  Ni295  1  0.86644583  0.36704200  0.30382723  1.0
  Ni  Ni296  1  0.86644583  0.70037533  0.30382723  1.0
  Ni  Ni297  1  0.19977917  0.20037533  0.26216056  1.0
  Ni  Ni298  1  0.19977917  0.53370867  0.26216056  1.0
  Ni  Ni299  1  0.19977917  0.86704200  0.26216056  1.0
  Ni  Ni300  1  0.53311250  0.20037533  0.26216056  1.0
  Ni  Ni301  1  0.53311250  0.53370867  0.26216056  1.0
  Ni  Ni302  1  0.53311250  0.86704200  0.26216056  1.0
  Ni  Ni303  1  0.86644583  0.20037533  0.26216056  1.0
  Ni  Ni304  1  0.86644583  0.53370867  0.26216056  1.0
  Ni  Ni305  1  0.86644583  0.86704200  0.26216056  1.0
  Ni  Ni306  1  0.26719650  0.26651217  0.29589127  1.0
  Ni  Ni307  1  0.26719650  0.59984550  0.29589127  1.0
  Ni  Ni308  1  0.26719650  0.93317883  0.29589127  1.0
  Ni  Ni309  1  0.60052983  0.26651217  0.29589127  1.0
  Ni  Ni310  1  0.60052983  0.59984550  0.29589127  1.0
  Ni  Ni311  1  0.60052983  0.93317883  0.29589127  1.0
  Ni  Ni312  1  0.93386317  0.26651217  0.29589127  1.0
  Ni  Ni313  1  0.93386317  0.59984550  0.29589127  1.0
  Ni  Ni314  1  0.93386317  0.93317883  0.29589127  1.0
  Ni  Ni315  1  0.26719650  0.09984550  0.25422460  1.0
  Ni  Ni316  1  0.26719650  0.43317883  0.25422460  1.0
  Ni  Ni317  1  0.26719650  0.76651217  0.25422460  1.0
  Ni  Ni318  1  0.60052983  0.09984550  0.25422460  1.0
  Ni  Ni319  1  0.60052983  0.43317883  0.25422460  1.0
  Ni  Ni320  1  0.60052983  0.76651217  0.25422460  1.0
  Ni  Ni321  1  0.93386317  0.09984550  0.25422460  1.0
  Ni  Ni322  1  0.93386317  0.43317883  0.25422460  1.0
  Ni  Ni323  1  0.93386317  0.76651217  0.25422460  1.0
  Ni  Ni324  1  0.06613683  0.06682117  0.27899285  1.0
  Ni  Ni325  1  0.06613683  0.40015450  0.27899285  1.0
  Ni  Ni326  1  0.06613683  0.73348783  0.27899285  1.0
  Ni  Ni327  1  0.39947017  0.06682117  0.27899285  1.0
  Ni  Ni328  1  0.39947017  0.40015450  0.27899285  1.0
  Ni  Ni329  1  0.39947017  0.73348783  0.27899285  1.0
  Ni  Ni330  1  0.73280350  0.06682117  0.27899285  1.0
  Ni  Ni331  1  0.73280350  0.40015450  0.27899285  1.0
  Ni  Ni332  1  0.73280350  0.73348783  0.27899285  1.0
  Ni  Ni333  1  0.06613683  0.23348783  0.32065952  1.0
  Ni  Ni334  1  0.06613683  0.56682117  0.32065952  1.0
  Ni  Ni335  1  0.06613683  0.90015450  0.32065952  1.0
  Ni  Ni336  1  0.39947017  0.23348783  0.32065952  1.0
  Ni  Ni337  1  0.39947017  0.56682117  0.32065952  1.0
  Ni  Ni338  1  0.39947017  0.90015450  0.32065952  1.0
  Ni  Ni339  1  0.73280350  0.23348783  0.32065952  1.0
  Ni  Ni340  1  0.73280350  0.56682117  0.32065952  1.0
  Ni  Ni341  1  0.73280350  0.90015450  0.32065952  1.0
  Mo  Mo342  1  0.00000000  0.16666667  0.28744206  1.0
  Mo  Mo343  1  0.00000000  0.50000000  0.28744206  1.0
  Mo  Mo344  1  0.00000000  0.83333333  0.28744206  1.0
  Mo  Mo345  1  0.33333333  0.16666667  0.28744206  1.0
  Mo  Mo346  1  0.33333333  0.50000000  0.28744206  1.0
  Mo  Mo347  1  0.33333333  0.83333333  0.28744206  1.0
  Mo  Mo348  1  0.66666667  0.16666667  0.28744206  1.0
  Mo  Mo349  1  0.66666667  0.50000000  0.28744206  1.0
  Mo  Mo350  1  0.66666667  0.83333333  0.28744206  1.0
  Mo  Mo351  1  0.00000000  0.00000000  0.32910873  1.0
  Mo  Mo352  1  0.00000000  0.33333333  0.32910873  1.0
  Mo  Mo353  1  0.00000000  0.66666667  0.32910873  1.0
  Mo  Mo354  1  0.33333333  0.00000000  0.32910873  1.0
  Mo  Mo355  1  0.33333333  0.33333333  0.32910873  1.0
  Mo  Mo356  1  0.33333333  0.66666667  0.32910873  1.0
  Mo  Mo357  1  0.66666667  0.00000000  0.32910873  1.0
  Mo  Mo358  1  0.66666667  0.33333333  0.32910873  1.0
  Mo  Mo359  1  0.66666667  0.66666667  0.32910873  1.0
  Ni  Ni360  1  0.13355417  0.29962467  0.35439023  1.0
  Ni  Ni361  1  0.13355417  0.63295800  0.35439023  1.0
  Ni  Ni362  1  0.13355417  0.96629133  0.35439023  1.0
  Ni  Ni363  1  0.46688750  0.29962467  0.35439023  1.0
  Ni  Ni364  1  0.46688750  0.63295800  0.35439023  1.0
  Ni  Ni365  1  0.46688750  0.96629133  0.35439023  1.0
  Ni  Ni366  1  0.80022083  0.29962467  0.35439023  1.0
  Ni  Ni367  1  0.80022083  0.63295800  0.35439023  1.0
  Ni  Ni368  1  0.80022083  0.96629133  0.35439023  1.0
  Ni  Ni369  1  0.13355417  0.13295800  0.39605690  1.0
  Ni  Ni370  1  0.13355417  0.46629133  0.39605690  1.0
  Ni  Ni371  1  0.13355417  0.79962467  0.39605690  1.0
  Ni  Ni372  1  0.46688750  0.13295800  0.39605690  1.0
  Ni  Ni373  1  0.46688750  0.46629133  0.39605690  1.0
  Ni  Ni374  1  0.46688750  0.79962467  0.39605690  1.0
  Ni  Ni375  1  0.80022083  0.13295800  0.39605690  1.0
  Ni  Ni376  1  0.80022083  0.46629133  0.39605690  1.0
  Ni  Ni377  1  0.80022083  0.79962467  0.39605690  1.0
  Ni  Ni378  1  0.19977917  0.03370867  0.38716056  1.0
  Ni  Ni379  1  0.19977917  0.36704200  0.38716056  1.0
  Ni  Ni380  1  0.19977917  0.70037533  0.38716056  1.0
  Ni  Ni381  1  0.53311250  0.03370867  0.38716056  1.0
  Ni  Ni382  1  0.53311250  0.36704200  0.38716056  1.0
  Ni  Ni383  1  0.53311250  0.70037533  0.38716056  1.0
  Ni  Ni384  1  0.86644583  0.03370867  0.38716056  1.0
  Ni  Ni385  1  0.86644583  0.36704200  0.38716056  1.0
  Ni  Ni386  1  0.86644583  0.70037533  0.38716056  1.0
  Ni  Ni387  1  0.19977917  0.20037533  0.34549390  1.0
  Ni  Ni388  1  0.19977917  0.53370867  0.34549390  1.0
  Ni  Ni389  1  0.19977917  0.86704200  0.34549390  1.0
  Ni  Ni390  1  0.53311250  0.20037533  0.34549390  1.0
  Ni  Ni391  1  0.53311250  0.53370867  0.34549390  1.0
  Ni  Ni392  1  0.53311250  0.86704200  0.34549390  1.0
  Ni  Ni393  1  0.86644583  0.20037533  0.34549390  1.0
  Ni  Ni394  1  0.86644583  0.53370867  0.34549390  1.0
  Ni  Ni395  1  0.86644583  0.86704200  0.34549390  1.0
  Ni  Ni396  1  0.26719650  0.26651217  0.37922460  1.0
  Ni  Ni397  1  0.26719650  0.59984550  0.37922460  1.0
  Ni  Ni398  1  0.26719650  0.93317883  0.37922460  1.0
  Ni  Ni399  1  0.60052983  0.26651217  0.37922460  1.0
  Ni  Ni400  1  0.60052983  0.59984550  0.37922460  1.0
  Ni  Ni401  1  0.60052983  0.93317883  0.37922460  1.0
  Ni  Ni402  1  0.93386317  0.26651217  0.37922460  1.0
  Ni  Ni403  1  0.93386317  0.59984550  0.37922460  1.0
  Ni  Ni404  1  0.93386317  0.93317883  0.37922460  1.0
  Ni  Ni405  1  0.26719650  0.09984550  0.33755794  1.0
  Ni  Ni406  1  0.26719650  0.43317883  0.33755794  1.0
  Ni  Ni407  1  0.26719650  0.76651217  0.33755794  1.0
  Ni  Ni408  1  0.60052983  0.09984550  0.33755794  1.0
  Ni  Ni409  1  0.60052983  0.43317883  0.33755794  1.0
  Ni  Ni410  1  0.60052983  0.76651217  0.33755794  1.0
  Ni  Ni411  1  0.93386317  0.09984550  0.33755794  1.0
  Ni  Ni412  1  0.93386317  0.43317883  0.33755794  1.0
  Ni  Ni413  1  0.93386317  0.76651217  0.33755794  1.0
  Ni  Ni414  1  0.06613683  0.06682117  0.36232619  1.0
  Ni  Ni415  1  0.06613683  0.40015450  0.36232619  1.0
  Ni  Ni416  1  0.06613683  0.73348783  0.36232619  1.0
  Ni  Ni417  1  0.39947017  0.06682117  0.36232619  1.0
  Ni  Ni418  1  0.39947017  0.40015450  0.36232619  1.0
  Ni  Ni419  1  0.39947017  0.73348783  0.36232619  1.0
  Ni  Ni420  1  0.73280350  0.06682117  0.36232619  1.0
  Ni  Ni421  1  0.73280350  0.40015450  0.36232619  1.0
  Ni  Ni422  1  0.73280350  0.73348783  0.36232619  1.0
  Ni  Ni423  1  0.06613683  0.23348783  0.40399285  1.0
  Ni  Ni424  1  0.06613683  0.56682117  0.40399285  1.0
  Ni  Ni425  1  0.06613683  0.90015450  0.40399285  1.0
  Ni  Ni426  1  0.39947017  0.23348783  0.40399285  1.0
  Ni  Ni427  1  0.39947017  0.56682117  0.40399285  1.0
  Ni  Ni428  1  0.39947017  0.90015450  0.40399285  1.0
  Ni  Ni429  1  0.73280350  0.23348783  0.40399285  1.0
  Ni  Ni430  1  0.73280350  0.56682117  0.40399285  1.0
  Ni  Ni431  1  0.73280350  0.90015450  0.40399285  1.0
  Mo  Mo432  1  0.00000000  0.16666667  0.37077540  1.0
  Mo  Mo433  1  0.00000000  0.50000000  0.37077540  1.0
  Mo  Mo434  1  0.00000000  0.83333333  0.37077540  1.0
  Mo  Mo435  1  0.33333333  0.16666667  0.37077540  1.0
  Mo  Mo436  1  0.33333333  0.50000000  0.37077540  1.0
  Mo  Mo437  1  0.33333333  0.83333333  0.37077540  1.0
  Mo  Mo438  1  0.66666667  0.16666667  0.37077540  1.0
  Mo  Mo439  1  0.66666667  0.50000000  0.37077540  1.0
  Mo  Mo440  1  0.66666667  0.83333333  0.37077540  1.0
  Mo  Mo441  1  0.00000000  0.00000000  0.41244206  1.0
  Mo  Mo442  1  0.00000000  0.33333333  0.41244206  1.0
  Mo  Mo443  1  0.00000000  0.66666667  0.41244206  1.0
  Mo  Mo444  1  0.33333333  0.00000000  0.41244206  1.0
  Mo  Mo445  1  0.33333333  0.33333333  0.41244206  1.0
  Mo  Mo446  1  0.33333333  0.66666667  0.41244206  1.0
  Mo  Mo447  1  0.66666667  0.00000000  0.41244206  1.0
  Mo  Mo448  1  0.66666667  0.33333333  0.41244206  1.0
  Mo  Mo449  1  0.66666667  0.66666667  0.41244206  1.0
