# generated using pymatgen
data_Ni4Mo
_symmetry_space_group_name_H-M   'P 1'
_cell_length_a   10.66698599
_cell_length_b   31.50255757
_cell_length_c   35.34971280
_cell_angle_alpha   56.14925941
_cell_angle_beta   66.27537623
_cell_angle_gamma   59.47525250
_symmetry_Int_Tables_number   1
_chemical_formula_structural   Ni4Mo
_chemical_formula_sum   'Ni216 Mo54'
_cell_volume   8378.79866005
_cell_formula_units_Z   54
loop_
 _symmetry_equiv_pos_site_id
 _symmetry_equiv_pos_as_xyz
  1  'x, y, z'
loop_
 _atom_site_type_symbol
 _atom_site_label
 _atom_site_symmetry_multiplicity
 _atom_site_fract_x
 _atom_site_fract_y
 _atom_site_fract_z
 _atom_site_occupancy
  Ni  Ni0  1  0.19977917  0.20037533  0.09349338  1.0
  Ni  Ni1  1  0.19977917  0.53370867  0.09349338  1.0
  Ni  Ni2  1  0.19977917  0.86704200  0.09349338  1.0
  Ni  Ni3  1  0.53311250  0.20037533  0.09349338  1.0
  Ni  Ni4  1  0.53311250  0.53370867  0.09349337  1.0
  Ni  Ni5  1  0.53311250  0.86704200  0.09349338  1.0
  Ni  Ni6  1  0.86644583  0.20037533  0.09349338  1.0
  Ni  Ni7  1  0.86644583  0.53370867  0.09349337  1.0
  Ni  Ni8  1  0.86644583  0.86704200  0.09349337  1.0
  Ni  Ni9  1  0.19977917  0.03370867  0.03099337  1.0
  Ni  Ni10  1  0.19977917  0.36704200  0.03099338  1.0
  Ni  Ni11  1  0.19977917  0.70037533  0.03099338  1.0
  Ni  Ni12  1  0.53311250  0.03370867  0.03099337  1.0
  Ni  Ni13  1  0.53311250  0.36704200  0.03099338  1.0
  Ni  Ni14  1  0.53311250  0.70037533  0.03099338  1.0
  Ni  Ni15  1  0.86644583  0.03370867  0.03099338  1.0
  Ni  Ni16  1  0.86644583  0.36704200  0.03099338  1.0
  Ni  Ni17  1  0.86644583  0.70037533  0.03099338  1.0
  Ni  Ni18  1  0.13355417  0.29962467  0.03150662  1.0
  Ni  Ni19  1  0.13355417  0.63295800  0.03150663  1.0
  Ni  Ni20  1  0.13355417  0.96629133  0.03150663  1.0
  Ni  Ni21  1  0.46688750  0.29962467  0.03150663  1.0
  Ni  Ni22  1  0.46688750  0.63295800  0.03150663  1.0
  Ni  Ni23  1  0.46688750  0.96629133  0.03150663  1.0
  Ni  Ni24  1  0.80022083  0.29962467  0.03150662  1.0
  Ni  Ni25  1  0.80022083  0.63295800  0.03150663  1.0
  Ni  Ni26  1  0.80022083  0.96629133  0.03150663  1.0
  Ni  Ni27  1  0.13355417  0.13295800  0.09400663  1.0
  Ni  Ni28  1  0.13355417  0.46629133  0.09400663  1.0
  Ni  Ni29  1  0.13355417  0.79962467  0.09400663  1.0
  Ni  Ni30  1  0.46688750  0.13295800  0.09400662  1.0
  Ni  Ni31  1  0.46688750  0.46629133  0.09400663  1.0
  Ni  Ni32  1  0.46688750  0.79962467  0.09400663  1.0
  Ni  Ni33  1  0.80022083  0.13295800  0.09400662  1.0
  Ni  Ni34  1  0.80022083  0.46629133  0.09400663  1.0
  Ni  Ni35  1  0.80022083  0.79962467  0.09400663  1.0
  Ni  Ni36  1  0.06613683  0.23348783  0.03147356  1.0
  Ni  Ni37  1  0.06613683  0.56682117  0.03147356  1.0
  Ni  Ni38  1  0.06613683  0.90015450  0.03147356  1.0
  Ni  Ni39  1  0.39947017  0.23348783  0.03147356  1.0
  Ni  Ni40  1  0.39947017  0.56682117  0.03147356  1.0
  Ni  Ni41  1  0.39947017  0.90015450  0.03147356  1.0
  Ni  Ni42  1  0.73280350  0.23348783  0.03147356  1.0
  Ni  Ni43  1  0.73280350  0.56682117  0.03147356  1.0
  Ni  Ni44  1  0.73280350  0.90015450  0.03147356  1.0
  Ni  Ni45  1  0.06613683  0.06682117  0.09397356  1.0
  Ni  Ni46  1  0.06613683  0.40015450  0.09397356  1.0
  Ni  Ni47  1  0.06613683  0.73348783  0.09397356  1.0
  Ni  Ni48  1  0.39947017  0.06682117  0.09397356  1.0
  Ni  Ni49  1  0.39947017  0.40015450  0.09397356  1.0
  Ni  Ni50  1  0.39947017  0.73348783  0.09397356  1.0
  Ni  Ni51  1  0.73280350  0.06682117  0.09397356  1.0
  Ni  Ni52  1  0.73280350  0.40015450  0.09397356  1.0
  Ni  Ni53  1  0.73280350  0.73348783  0.09397356  1.0
  Ni  Ni54  1  0.26719650  0.26651217  0.09352644  1.0
  Ni  Ni55  1  0.26719650  0.59984550  0.09352644  1.0
  Ni  Ni56  1  0.26719650  0.93317883  0.09352644  1.0
  Ni  Ni57  1  0.60052983  0.26651217  0.09352644  1.0
  Ni  Ni58  1  0.60052983  0.59984550  0.09352644  1.0
  Ni  Ni59  1  0.60052983  0.93317883  0.09352644  1.0
  Ni  Ni60  1  0.93386317  0.26651217  0.09352644  1.0
  Ni  Ni61  1  0.93386317  0.59984550  0.09352644  1.0
  Ni  Ni62  1  0.93386317  0.93317883  0.09352644  1.0
  Ni  Ni63  1  0.26719650  0.09984550  0.03102644  1.0
  Ni  Ni64  1  0.26719650  0.43317883  0.03102644  1.0
  Ni  Ni65  1  0.26719650  0.76651217  0.03102644  1.0
  Ni  Ni66  1  0.60052983  0.09984550  0.03102644  1.0
  Ni  Ni67  1  0.60052983  0.43317883  0.03102644  1.0
  Ni  Ni68  1  0.60052983  0.76651217  0.03102644  1.0
  Ni  Ni69  1  0.93386317  0.09984550  0.03102644  1.0
  Ni  Ni70  1  0.93386317  0.43317883  0.03102644  1.0
  Ni  Ni71  1  0.93386317  0.76651217  0.03102644  1.0
  Mo  Mo72  1  0.00000000  0.16666667  0.03125000  1.0
  Mo  Mo73  1  0.00000000  0.50000000  0.03125000  1.0
  Mo  Mo74  1  0.00000000  0.83333333  0.03125000  1.0
  Mo  Mo75  1  0.33333333  0.16666667  0.03125000  1.0
  Mo  Mo76  1  0.33333333  0.50000000  0.03125000  1.0
  Mo  Mo77  1  0.33333333  0.83333333  0.03125000  1.0
  Mo  Mo78  1  0.66666667  0.16666667  0.03125000  1.0
  Mo  Mo79  1  0.66666667  0.50000000  0.03125000  1.0
  Mo  Mo80  1  0.66666667  0.83333333  0.03125000  1.0
  Mo  Mo81  1  0.00000000  0.00000000  0.09375000  1.0
  Mo  Mo82  1  0.00000000  0.33333333  0.09375000  1.0
  Mo  Mo83  1  0.00000000  0.66666667  0.09375000  1.0
  Mo  Mo84  1  0.33333333  0.00000000  0.09375000  1.0
  Mo  Mo85  1  0.33333333  0.33333333  0.09375000  1.0
  Mo  Mo86  1  0.33333333  0.66666667  0.09375000  1.0
  Mo  Mo87  1  0.66666667  0.00000000  0.09375000  1.0
  Mo  Mo88  1  0.66666667  0.33333333  0.09375000  1.0
  Mo  Mo89  1  0.66666667  0.66666667  0.09375000  1.0
  Ni  Ni90  1  0.19977917  0.20037533  0.21849337  1.0
  Ni  Ni91  1  0.19977917  0.53370867  0.21849337  1.0
  Ni  Ni92  1  0.19977917  0.86704200  0.21849338  1.0
  Ni  Ni93  1  0.53311250  0.20037533  0.21849337  1.0
  Ni  Ni94  1  0.53311250  0.53370867  0.21849337  1.0
  Ni  Ni95  1  0.53311250  0.86704200  0.21849338  1.0
  Ni  Ni96  1  0.86644583  0.20037533  0.21849338  1.0
  Ni  Ni97  1  0.86644583  0.53370867  0.21849337  1.0
  Ni  Ni98  1  0.86644583  0.86704200  0.21849338  1.0
  Ni  Ni99  1  0.19977917  0.03370867  0.15599337  1.0
  Ni  Ni100  1  0.19977917  0.36704200  0.15599338  1.0
  Ni  Ni101  1  0.19977917  0.70037533  0.15599337  1.0
  Ni  Ni102  1  0.53311250  0.03370867  0.15599337  1.0
  Ni  Ni103  1  0.53311250  0.36704200  0.15599338  1.0
  Ni  Ni104  1  0.53311250  0.70037533  0.15599338  1.0
  Ni  Ni105  1  0.86644583  0.03370867  0.15599338  1.0
  Ni  Ni106  1  0.86644583  0.36704200  0.15599338  1.0
  Ni  Ni107  1  0.86644583  0.70037533  0.15599338  1.0
  Ni  Ni108  1  0.13355417  0.29962467  0.15650662  1.0
  Ni  Ni109  1  0.13355417  0.63295800  0.15650663  1.0
  Ni  Ni110  1  0.13355417  0.96629133  0.15650663  1.0
  Ni  Ni111  1  0.46688750  0.29962467  0.15650662  1.0
  Ni  Ni112  1  0.46688750  0.63295800  0.15650663  1.0
  Ni  Ni113  1  0.46688750  0.96629133  0.15650663  1.0
  Ni  Ni114  1  0.80022083  0.29962467  0.15650662  1.0
  Ni  Ni115  1  0.80022083  0.63295800  0.15650663  1.0
  Ni  Ni116  1  0.80022083  0.96629133  0.15650663  1.0
  Ni  Ni117  1  0.13355417  0.13295800  0.21900663  1.0
  Ni  Ni118  1  0.13355417  0.46629133  0.21900663  1.0
  Ni  Ni119  1  0.13355417  0.79962467  0.21900663  1.0
  Ni  Ni120  1  0.46688750  0.13295800  0.21900663  1.0
  Ni  Ni121  1  0.46688750  0.46629133  0.21900663  1.0
  Ni  Ni122  1  0.46688750  0.79962467  0.21900663  1.0
  Ni  Ni123  1  0.80022083  0.13295800  0.21900663  1.0
  Ni  Ni124  1  0.80022083  0.46629133  0.21900663  1.0
  Ni  Ni125  1  0.80022083  0.79962467  0.21900663  1.0
  Ni  Ni126  1  0.06613683  0.23348783  0.15647356  1.0
  Ni  Ni127  1  0.06613683  0.56682117  0.15647356  1.0
  Ni  Ni128  1  0.06613683  0.90015450  0.15647356  1.0
  Ni  Ni129  1  0.39947017  0.23348783  0.15647356  1.0
  Ni  Ni130  1  0.39947017  0.56682117  0.15647356  1.0
  Ni  Ni131  1  0.39947017  0.90015450  0.15647356  1.0
  Ni  Ni132  1  0.73280350  0.23348783  0.15647356  1.0
  Ni  Ni133  1  0.73280350  0.56682117  0.15647356  1.0
  Ni  Ni134  1  0.73280350  0.90015450  0.15647356  1.0
  Ni  Ni135  1  0.06613683  0.06682117  0.21897356  1.0
  Ni  Ni136  1  0.06613683  0.40015450  0.21897356  1.0
  Ni  Ni137  1  0.06613683  0.73348783  0.21897356  1.0
  Ni  Ni138  1  0.39947017  0.06682117  0.21897356  1.0
  Ni  Ni139  1  0.39947017  0.40015450  0.21897356  1.0
  Ni  Ni140  1  0.39947017  0.73348783  0.21897356  1.0
  Ni  Ni141  1  0.73280350  0.06682117  0.21897356  1.0
  Ni  Ni142  1  0.73280350  0.40015450  0.21897356  1.0
  Ni  Ni143  1  0.73280350  0.73348783  0.21897356  1.0
  Ni  Ni144  1  0.26719650  0.26651217  0.21852644  1.0
  Ni  Ni145  1  0.26719650  0.59984550  0.21852644  1.0
  Ni  Ni146  1  0.26719650  0.93317883  0.21852644  1.0
  Ni  Ni147  1  0.60052983  0.26651217  0.21852644  1.0
  Ni  Ni148  1  0.60052983  0.59984550  0.21852644  1.0
  Ni  Ni149  1  0.60052983  0.93317883  0.21852644  1.0
  Ni  Ni150  1  0.93386317  0.26651217  0.21852644  1.0
  Ni  Ni151  1  0.93386317  0.59984550  0.21852644  1.0
  Ni  Ni152  1  0.93386317  0.93317883  0.21852644  1.0
  Ni  Ni153  1  0.26719650  0.09984550  0.15602644  1.0
  Ni  Ni154  1  0.26719650  0.43317883  0.15602644  1.0
  Ni  Ni155  1  0.26719650  0.76651217  0.15602644  1.0
  Ni  Ni156  1  0.60052983  0.09984550  0.15602644  1.0
  Ni  Ni157  1  0.60052983  0.43317883  0.15602644  1.0
  Ni  Ni158  1  0.60052983  0.76651217  0.15602644  1.0
  Ni  Ni159  1  0.93386317  0.09984550  0.15602644  1.0
  Ni  Ni160  1  0.93386317  0.43317883  0.15602644  1.0
  Ni  Ni161  1  0.93386317  0.76651217  0.15602644  1.0
  Mo  Mo162  1  0.00000000  0.16666667  0.15625000  1.0
  Mo  Mo163  1  0.00000000  0.50000000  0.15625000  1.0
  Mo  Mo164  1  0.00000000  0.83333333  0.15625000  1.0
  Mo  Mo165  1  0.33333333  0.16666667  0.15625000  1.0
  Mo  Mo166  1  0.33333333  0.50000000  0.15625000  1.0
  Mo  Mo167  1  0.33333333  0.83333333  0.15625000  1.0
  Mo  Mo168  1  0.66666667  0.16666667  0.15625000  1.0
  Mo  Mo169  1  0.66666667  0.50000000  0.15625000  1.0
  Mo  Mo170  1  0.66666667  0.83333333  0.15625000  1.0
  Mo  Mo171  1  0.00000000  0.00000000  0.21875000  1.0
  Mo  Mo172  1  0.00000000  0.33333333  0.21875000  1.0
  Mo  Mo173  1  0.00000000  0.66666667  0.21875000  1.0
  Mo  Mo174  1  0.33333333  0.00000000  0.21875000  1.0
  Mo  Mo175  1  0.33333333  0.33333333  0.21875000  1.0
  Mo  Mo176  1  0.33333333  0.66666667  0.21875000  1.0
  Mo  Mo177  1  0.66666667  0.00000000  0.21875000  1.0
  Mo  Mo178  1  0.66666667  0.33333333  0.21875000  1.0
  Mo  Mo179  1  0.66666667  0.66666667  0.21875000  1.0
  Ni  Ni180  1  0.19977917  0.20037533  0.34349337  1.0
  Ni  Ni181  1  0.19977917  0.53370867  0.34349338  1.0
  Ni  Ni182  1  0.19977917  0.86704200  0.34349338  1.0
  Ni  Ni183  1  0.53311250  0.20037533  0.34349337  1.0
  Ni  Ni184  1  0.53311250  0.53370867  0.34349337  1.0
  Ni  Ni185  1  0.53311250  0.86704200  0.34349338  1.0
  Ni  Ni186  1  0.86644583  0.20037533  0.34349338  1.0
  Ni  Ni187  1  0.86644583  0.53370867  0.34349337  1.0
  Ni  Ni188  1  0.86644583  0.86704200  0.34349338  1.0
  Ni  Ni189  1  0.19977917  0.03370867  0.28099337  1.0
  Ni  Ni190  1  0.19977917  0.36704200  0.28099338  1.0
  Ni  Ni191  1  0.19977917  0.70037533  0.28099338  1.0
  Ni  Ni192  1  0.53311250  0.03370867  0.28099337  1.0
  Ni  Ni193  1  0.53311250  0.36704200  0.28099337  1.0
  Ni  Ni194  1  0.53311250  0.70037533  0.28099338  1.0
  Ni  Ni195  1  0.86644583  0.03370867  0.28099337  1.0
  Ni  Ni196  1  0.86644583  0.36704200  0.28099337  1.0
  Ni  Ni197  1  0.86644583  0.70037533  0.28099338  1.0
  Ni  Ni198  1  0.13355417  0.29962467  0.28150662  1.0
  Ni  Ni199  1  0.13355417  0.63295800  0.28150663  1.0
  Ni  Ni200  1  0.13355417  0.96629133  0.28150663  1.0
  Ni  Ni201  1  0.46688750  0.29962467  0.28150663  1.0
  Ni  Ni202  1  0.46688750  0.63295800  0.28150663  1.0
  Ni  Ni203  1  0.46688750  0.96629133  0.28150663  1.0
  Ni  Ni204  1  0.80022083  0.29962467  0.28150663  1.0
  Ni  Ni205  1  0.80022083  0.63295800  0.28150663  1.0
  Ni  Ni206  1  0.80022083  0.96629133  0.28150663  1.0
  Ni  Ni207  1  0.13355417  0.13295800  0.34400663  1.0
  Ni  Ni208  1  0.13355417  0.46629133  0.34400663  1.0
  Ni  Ni209  1  0.13355417  0.79962467  0.34400663  1.0
  Ni  Ni210  1  0.46688750  0.13295800  0.34400663  1.0
  Ni  Ni211  1  0.46688750  0.46629133  0.34400663  1.0
  Ni  Ni212  1  0.46688750  0.79962467  0.34400663  1.0
  Ni  Ni213  1  0.80022083  0.13295800  0.34400663  1.0
  Ni  Ni214  1  0.80022083  0.46629133  0.34400663  1.0
  Ni  Ni215  1  0.80022083  0.79962467  0.34400663  1.0
  Ni  Ni216  1  0.06613683  0.23348783  0.28147356  1.0
  Ni  Ni217  1  0.06613683  0.56682117  0.28147356  1.0
  Ni  Ni218  1  0.06613683  0.90015450  0.28147356  1.0
  Ni  Ni219  1  0.39947017  0.23348783  0.28147356  1.0
  Ni  Ni220  1  0.39947017  0.56682117  0.28147356  1.0
  Ni  Ni221  1  0.39947017  0.90015450  0.28147356  1.0
  Ni  Ni222  1  0.73280350  0.23348783  0.28147356  1.0
  Ni  Ni223  1  0.73280350  0.56682117  0.28147356  1.0
  Ni  Ni224  1  0.73280350  0.90015450  0.28147356  1.0
  Ni  Ni225  1  0.06613683  0.06682117  0.34397356  1.0
  Ni  Ni226  1  0.06613683  0.40015450  0.34397356  1.0
  Ni  Ni227  1  0.06613683  0.73348783  0.34397356  1.0
  Ni  Ni228  1  0.39947017  0.06682117  0.34397356  1.0
  Ni  Ni229  1  0.39947017  0.40015450  0.34397356  1.0
  Ni  Ni230  1  0.39947017  0.73348783  0.34397356  1.0
  Ni  Ni231  1  0.73280350  0.06682117  0.34397356  1.0
  Ni  Ni232  1  0.73280350  0.40015450  0.34397356  1.0
  Ni  Ni233  1  0.73280350  0.73348783  0.34397356  1.0
  Ni  Ni234  1  0.26719650  0.26651217  0.34352644  1.0
  Ni  Ni235  1  0.26719650  0.59984550  0.34352644  1.0
  Ni  Ni236  1  0.26719650  0.93317883  0.34352644  1.0
  Ni  Ni237  1  0.60052983  0.26651217  0.34352644  1.0
  Ni  Ni238  1  0.60052983  0.59984550  0.34352644  1.0
  Ni  Ni239  1  0.60052983  0.93317883  0.34352644  1.0
  Ni  Ni240  1  0.93386317  0.26651217  0.34352644  1.0
  Ni  Ni241  1  0.93386317  0.59984550  0.34352644  1.0
  Ni  Ni242  1  0.93386317  0.93317883  0.34352644  1.0
  Ni  Ni243  1  0.26719650  0.09984550  0.28102644  1.0
  Ni  Ni244  1  0.26719650  0.43317883  0.28102644  1.0
  Ni  Ni245  1  0.26719650  0.76651217  0.28102644  1.0
  Ni  Ni246  1  0.60052983  0.09984550  0.28102644  1.0
  Ni  Ni247  1  0.60052983  0.43317883  0.28102644  1.0
  Ni  Ni248  1  0.60052983  0.76651217  0.28102644  1.0
  Ni  Ni249  1  0.93386317  0.09984550  0.28102644  1.0
  Ni  Ni250  1  0.93386317  0.43317883  0.28102644  1.0
  Ni  Ni251  1  0.93386317  0.76651217  0.28102644  1.0
  Mo  Mo252  1  0.00000000  0.16666667  0.28125000  1.0
  Mo  Mo253  1  0.00000000  0.50000000  0.28125000  1.0
  Mo  Mo254  1  0.00000000  0.83333333  0.28125000  1.0
  Mo  Mo255  1  0.33333333  0.16666667  0.28125000  1.0
  Mo  Mo256  1  0.33333333  0.50000000  0.28125000  1.0
  Mo  Mo257  1  0.33333333  0.83333333  0.28125000  1.0
  Mo  Mo258  1  0.66666667  0.16666667  0.28125000  1.0
  Mo  Mo259  1  0.66666667  0.50000000  0.28125000  1.0
  Mo  Mo260  1  0.66666667  0.83333333  0.28125000  1.0
  Mo  Mo261  1  0.00000000  0.00000000  0.34375000  1.0
  Mo  Mo262  1  0.00000000  0.33333333  0.34375000  1.0
  Mo  Mo263  1  0.00000000  0.66666667  0.34375000  1.0
  Mo  Mo264  1  0.33333333  0.00000000  0.34375000  1.0
  Mo  Mo265  1  0.33333333  0.33333333  0.34375000  1.0
  Mo  Mo266  1  0.33333333  0.66666667  0.34375000  1.0
  Mo  Mo267  1  0.66666667  0.00000000  0.34375000  1.0
  Mo  Mo268  1  0.66666667  0.33333333  0.34375000  1.0
  Mo  Mo269  1  0.66666667  0.66666667  0.34375000  1.0
