# generated using pymatgen
data_Ni4Sn3
_symmetry_space_group_name_H-M   'P 1'
_cell_length_a   21.19829400
_cell_length_b   15.64134900
_cell_length_c   49.15639596
_cell_angle_alpha   90.00000000
_cell_angle_beta   90.09939617
_cell_angle_gamma   90.00000000
_symmetry_Int_Tables_number   1
_chemical_formula_structural   Ni4Sn3
_chemical_formula_sum   'Ni288 Sn216'
_cell_volume   16298.75748781
_cell_formula_units_Z   72
loop_
 _symmetry_equiv_pos_site_id
 _symmetry_equiv_pos_as_xyz
  1  'x, y, z'
loop_
 _atom_site_type_symbol
 _atom_site_label
 _atom_site_symmetry_multiplicity
 _atom_site_fract_x
 _atom_site_fract_y
 _atom_site_fract_z
 _atom_site_occupancy
  Ni  Ni0  1  0.08586800  0.25087300  0.08571550  1.0
  Ni  Ni1  1  0.08586800  0.58420633  0.08571550  1.0
  Ni  Ni2  1  0.08586800  0.91753967  0.08571550  1.0
  Ni  Ni3  1  0.41920133  0.25087300  0.08571550  1.0
  Ni  Ni4  1  0.41920133  0.58420633  0.08571550  1.0
  Ni  Ni5  1  0.41920133  0.91753967  0.08571550  1.0
  Ni  Ni6  1  0.75253467  0.25087300  0.08571550  1.0
  Ni  Ni7  1  0.75253467  0.58420633  0.08571550  1.0
  Ni  Ni8  1  0.75253467  0.91753967  0.08571550  1.0
  Ni  Ni9  1  0.08708333  0.25162833  0.25222950  1.0
  Ni  Ni10  1  0.08708333  0.58496167  0.25222950  1.0
  Ni  Ni11  1  0.08708333  0.91829500  0.25222950  1.0
  Ni  Ni12  1  0.42041667  0.25162833  0.25222950  1.0
  Ni  Ni13  1  0.42041667  0.58496167  0.25222950  1.0
  Ni  Ni14  1  0.42041667  0.91829500  0.25222950  1.0
  Ni  Ni15  1  0.75375000  0.25162833  0.25222950  1.0
  Ni  Ni16  1  0.75375000  0.58496167  0.25222950  1.0
  Ni  Ni17  1  0.75375000  0.91829500  0.25222950  1.0
  Ni  Ni18  1  0.08676033  0.25151567  0.41899350  1.0
  Ni  Ni19  1  0.08676033  0.58484900  0.41899350  1.0
  Ni  Ni20  1  0.08676033  0.91818233  0.41899350  1.0
  Ni  Ni21  1  0.42009367  0.25151567  0.41899350  1.0
  Ni  Ni22  1  0.42009367  0.58484900  0.41899350  1.0
  Ni  Ni23  1  0.42009367  0.91818233  0.41899350  1.0
  Ni  Ni24  1  0.75342700  0.25151567  0.41899350  1.0
  Ni  Ni25  1  0.75342700  0.58484900  0.41899350  1.0
  Ni  Ni26  1  0.75342700  0.91818233  0.41899350  1.0
  Ni  Ni27  1  0.25248267  0.08281167  0.12752750  1.0
  Ni  Ni28  1  0.25248267  0.41614500  0.12752750  1.0
  Ni  Ni29  1  0.25248267  0.74947833  0.12752750  1.0
  Ni  Ni30  1  0.58581600  0.08281167  0.12752750  1.0
  Ni  Ni31  1  0.58581600  0.41614500  0.12752750  1.0
  Ni  Ni32  1  0.58581600  0.74947833  0.12752750  1.0
  Ni  Ni33  1  0.91914933  0.08281167  0.12752750  1.0
  Ni  Ni34  1  0.91914933  0.41614500  0.12752750  1.0
  Ni  Ni35  1  0.91914933  0.74947833  0.12752750  1.0
  Ni  Ni36  1  0.25547367  0.08262400  0.29417900  1.0
  Ni  Ni37  1  0.25547367  0.41595733  0.29417900  1.0
  Ni  Ni38  1  0.25547367  0.74929067  0.29417900  1.0
  Ni  Ni39  1  0.58880700  0.08262400  0.29417900  1.0
  Ni  Ni40  1  0.58880700  0.41595733  0.29417900  1.0
  Ni  Ni41  1  0.58880700  0.74929067  0.29417900  1.0
  Ni  Ni42  1  0.92214033  0.08262400  0.29417900  1.0
  Ni  Ni43  1  0.92214033  0.41595733  0.29417900  1.0
  Ni  Ni44  1  0.92214033  0.74929067  0.29417900  1.0
  Ni  Ni45  1  0.25565833  0.08247600  0.46112500  1.0
  Ni  Ni46  1  0.25565833  0.41580933  0.46112500  1.0
  Ni  Ni47  1  0.25565833  0.74914267  0.46112500  1.0
  Ni  Ni48  1  0.58899167  0.08247600  0.46112500  1.0
  Ni  Ni49  1  0.58899167  0.41580933  0.46112500  1.0
  Ni  Ni50  1  0.58899167  0.74914267  0.46112500  1.0
  Ni  Ni51  1  0.92232500  0.08247600  0.46112500  1.0
  Ni  Ni52  1  0.92232500  0.41580933  0.46112500  1.0
  Ni  Ni53  1  0.92232500  0.74914267  0.46112500  1.0
  Ni  Ni54  1  0.24631700  0.08475167  0.04485600  1.0
  Ni  Ni55  1  0.24631700  0.41808500  0.04485600  1.0
  Ni  Ni56  1  0.24631700  0.75141833  0.04485600  1.0
  Ni  Ni57  1  0.57965033  0.08475167  0.04485600  1.0
  Ni  Ni58  1  0.57965033  0.41808500  0.04485600  1.0
  Ni  Ni59  1  0.57965033  0.75141833  0.04485600  1.0
  Ni  Ni60  1  0.91298367  0.08475167  0.04485600  1.0
  Ni  Ni61  1  0.91298367  0.41808500  0.04485600  1.0
  Ni  Ni62  1  0.91298367  0.75141833  0.04485600  1.0
  Ni  Ni63  1  0.24639200  0.08520700  0.20967100  1.0
  Ni  Ni64  1  0.24639200  0.41854033  0.20967100  1.0
  Ni  Ni65  1  0.24639200  0.75187367  0.20967100  1.0
  Ni  Ni66  1  0.57972533  0.08520700  0.20967100  1.0
  Ni  Ni67  1  0.57972533  0.41854033  0.20967100  1.0
  Ni  Ni68  1  0.57972533  0.75187367  0.20967100  1.0
  Ni  Ni69  1  0.91305867  0.08520700  0.20967100  1.0
  Ni  Ni70  1  0.91305867  0.41854033  0.20967100  1.0
  Ni  Ni71  1  0.91305867  0.75187367  0.20967100  1.0
  Ni  Ni72  1  0.24508933  0.08557967  0.37727650  1.0
  Ni  Ni73  1  0.24508933  0.41891300  0.37727650  1.0
  Ni  Ni74  1  0.24508933  0.75224633  0.37727650  1.0
  Ni  Ni75  1  0.57842267  0.08557967  0.37727650  1.0
  Ni  Ni76  1  0.57842267  0.41891300  0.37727650  1.0
  Ni  Ni77  1  0.57842267  0.75224633  0.37727650  1.0
  Ni  Ni78  1  0.91175600  0.08557967  0.37727650  1.0
  Ni  Ni79  1  0.91175600  0.41891300  0.37727650  1.0
  Ni  Ni80  1  0.91175600  0.75224633  0.37727650  1.0
  Ni  Ni81  1  0.08054900  0.24933867  0.00235300  1.0
  Ni  Ni82  1  0.08054900  0.58267200  0.00235300  1.0
  Ni  Ni83  1  0.08054900  0.91600533  0.00235300  1.0
  Ni  Ni84  1  0.41388233  0.24933867  0.00235300  1.0
  Ni  Ni85  1  0.41388233  0.58267200  0.00235300  1.0
  Ni  Ni86  1  0.41388233  0.91600533  0.00235300  1.0
  Ni  Ni87  1  0.74721567  0.24933867  0.00235300  1.0
  Ni  Ni88  1  0.74721567  0.58267200  0.00235300  1.0
  Ni  Ni89  1  0.74721567  0.91600533  0.00235300  1.0
  Ni  Ni90  1  0.08020367  0.24898667  0.16912900  1.0
  Ni  Ni91  1  0.08020367  0.58232000  0.16912900  1.0
  Ni  Ni92  1  0.08020367  0.91565333  0.16912900  1.0
  Ni  Ni93  1  0.41353700  0.24898667  0.16912900  1.0
  Ni  Ni94  1  0.41353700  0.58232000  0.16912900  1.0
  Ni  Ni95  1  0.41353700  0.91565333  0.16912900  1.0
  Ni  Ni96  1  0.74687033  0.24898667  0.16912900  1.0
  Ni  Ni97  1  0.74687033  0.58232000  0.16912900  1.0
  Ni  Ni98  1  0.74687033  0.91565333  0.16912900  1.0
  Ni  Ni99  1  0.08013933  0.24915467  0.33567800  1.0
  Ni  Ni100  1  0.08013933  0.58248800  0.33567800  1.0
  Ni  Ni101  1  0.08013933  0.91582133  0.33567800  1.0
  Ni  Ni102  1  0.41347267  0.24915467  0.33567800  1.0
  Ni  Ni103  1  0.41347267  0.58248800  0.33567800  1.0
  Ni  Ni104  1  0.41347267  0.91582133  0.33567800  1.0
  Ni  Ni105  1  0.74680600  0.24915467  0.33567800  1.0
  Ni  Ni106  1  0.74680600  0.58248800  0.33567800  1.0
  Ni  Ni107  1  0.74680600  0.91582133  0.33567800  1.0
  Ni  Ni108  1  0.24631700  0.24858167  0.04485600  1.0
  Ni  Ni109  1  0.24631700  0.58191500  0.04485600  1.0
  Ni  Ni110  1  0.24631700  0.91524833  0.04485600  1.0
  Ni  Ni111  1  0.57965033  0.24858167  0.04485600  1.0
  Ni  Ni112  1  0.57965033  0.58191500  0.04485600  1.0
  Ni  Ni113  1  0.57965033  0.91524833  0.04485600  1.0
  Ni  Ni114  1  0.91298367  0.24858167  0.04485600  1.0
  Ni  Ni115  1  0.91298367  0.58191500  0.04485600  1.0
  Ni  Ni116  1  0.91298367  0.91524833  0.04485600  1.0
  Ni  Ni117  1  0.24639200  0.24812633  0.20967100  1.0
  Ni  Ni118  1  0.24639200  0.58145967  0.20967100  1.0
  Ni  Ni119  1  0.24639200  0.91479300  0.20967100  1.0
  Ni  Ni120  1  0.57972533  0.24812633  0.20967100  1.0
  Ni  Ni121  1  0.57972533  0.58145967  0.20967100  1.0
  Ni  Ni122  1  0.57972533  0.91479300  0.20967100  1.0
  Ni  Ni123  1  0.91305867  0.24812633  0.20967100  1.0
  Ni  Ni124  1  0.91305867  0.58145967  0.20967100  1.0
  Ni  Ni125  1  0.91305867  0.91479300  0.20967100  1.0
  Ni  Ni126  1  0.24508933  0.24775367  0.37727650  1.0
  Ni  Ni127  1  0.24508933  0.58108700  0.37727650  1.0
  Ni  Ni128  1  0.24508933  0.91442033  0.37727650  1.0
  Ni  Ni129  1  0.57842267  0.24775367  0.37727650  1.0
  Ni  Ni130  1  0.57842267  0.58108700  0.37727650  1.0
  Ni  Ni131  1  0.57842267  0.91442033  0.37727650  1.0
  Ni  Ni132  1  0.91175600  0.24775367  0.37727650  1.0
  Ni  Ni133  1  0.91175600  0.58108700  0.37727650  1.0
  Ni  Ni134  1  0.91175600  0.91442033  0.37727650  1.0
  Ni  Ni135  1  0.08054900  0.08399467  0.00235300  1.0
  Ni  Ni136  1  0.08054900  0.41732800  0.00235300  1.0
  Ni  Ni137  1  0.08054900  0.75066133  0.00235300  1.0
  Ni  Ni138  1  0.41388233  0.08399467  0.00235300  1.0
  Ni  Ni139  1  0.41388233  0.41732800  0.00235300  1.0
  Ni  Ni140  1  0.41388233  0.75066133  0.00235300  1.0
  Ni  Ni141  1  0.74721567  0.08399467  0.00235300  1.0
  Ni  Ni142  1  0.74721567  0.41732800  0.00235300  1.0
  Ni  Ni143  1  0.74721567  0.75066133  0.00235300  1.0
  Ni  Ni144  1  0.08020367  0.08434667  0.16912900  1.0
  Ni  Ni145  1  0.08020367  0.41768000  0.16912900  1.0
  Ni  Ni146  1  0.08020367  0.75101333  0.16912900  1.0
  Ni  Ni147  1  0.41353700  0.08434667  0.16912900  1.0
  Ni  Ni148  1  0.41353700  0.41768000  0.16912900  1.0
  Ni  Ni149  1  0.41353700  0.75101333  0.16912900  1.0
  Ni  Ni150  1  0.74687033  0.08434667  0.16912900  1.0
  Ni  Ni151  1  0.74687033  0.41768000  0.16912900  1.0
  Ni  Ni152  1  0.74687033  0.75101333  0.16912900  1.0
  Ni  Ni153  1  0.08013933  0.08417867  0.33567800  1.0
  Ni  Ni154  1  0.08013933  0.41751200  0.33567800  1.0
  Ni  Ni155  1  0.08013933  0.75084533  0.33567800  1.0
  Ni  Ni156  1  0.41347267  0.08417867  0.33567800  1.0
  Ni  Ni157  1  0.41347267  0.41751200  0.33567800  1.0
  Ni  Ni158  1  0.41347267  0.75084533  0.33567800  1.0
  Ni  Ni159  1  0.74680600  0.08417867  0.33567800  1.0
  Ni  Ni160  1  0.74680600  0.41751200  0.33567800  1.0
  Ni  Ni161  1  0.74680600  0.75084533  0.33567800  1.0
  Ni  Ni162  1  0.08586800  0.08246033  0.08571550  1.0
  Ni  Ni163  1  0.08586800  0.41579367  0.08571550  1.0
  Ni  Ni164  1  0.08586800  0.74912700  0.08571550  1.0
  Ni  Ni165  1  0.41920133  0.08246033  0.08571550  1.0
  Ni  Ni166  1  0.41920133  0.41579367  0.08571550  1.0
  Ni  Ni167  1  0.41920133  0.74912700  0.08571550  1.0
  Ni  Ni168  1  0.75253467  0.08246033  0.08571550  1.0
  Ni  Ni169  1  0.75253467  0.41579367  0.08571550  1.0
  Ni  Ni170  1  0.75253467  0.74912700  0.08571550  1.0
  Ni  Ni171  1  0.08708333  0.08170500  0.25222950  1.0
  Ni  Ni172  1  0.08708333  0.41503833  0.25222950  1.0
  Ni  Ni173  1  0.08708333  0.74837167  0.25222950  1.0
  Ni  Ni174  1  0.42041667  0.08170500  0.25222950  1.0
  Ni  Ni175  1  0.42041667  0.41503833  0.25222950  1.0
  Ni  Ni176  1  0.42041667  0.74837167  0.25222950  1.0
  Ni  Ni177  1  0.75375000  0.08170500  0.25222950  1.0
  Ni  Ni178  1  0.75375000  0.41503833  0.25222950  1.0
  Ni  Ni179  1  0.75375000  0.74837167  0.25222950  1.0
  Ni  Ni180  1  0.08676033  0.08181767  0.41899350  1.0
  Ni  Ni181  1  0.08676033  0.41515100  0.41899350  1.0
  Ni  Ni182  1  0.08676033  0.74848433  0.41899350  1.0
  Ni  Ni183  1  0.42009367  0.08181767  0.41899350  1.0
  Ni  Ni184  1  0.42009367  0.41515100  0.41899350  1.0
  Ni  Ni185  1  0.42009367  0.74848433  0.41899350  1.0
  Ni  Ni186  1  0.75342700  0.08181767  0.41899350  1.0
  Ni  Ni187  1  0.75342700  0.41515100  0.41899350  1.0
  Ni  Ni188  1  0.75342700  0.74848433  0.41899350  1.0
  Ni  Ni189  1  0.25248267  0.25052167  0.12752750  1.0
  Ni  Ni190  1  0.25248267  0.58385500  0.12752750  1.0
  Ni  Ni191  1  0.25248267  0.91718833  0.12752750  1.0
  Ni  Ni192  1  0.58581600  0.25052167  0.12752750  1.0
  Ni  Ni193  1  0.58581600  0.58385500  0.12752750  1.0
  Ni  Ni194  1  0.58581600  0.91718833  0.12752750  1.0
  Ni  Ni195  1  0.91914933  0.25052167  0.12752750  1.0
  Ni  Ni196  1  0.91914933  0.58385500  0.12752750  1.0
  Ni  Ni197  1  0.91914933  0.91718833  0.12752750  1.0
  Ni  Ni198  1  0.25547367  0.25070933  0.29417900  1.0
  Ni  Ni199  1  0.25547367  0.58404267  0.29417900  1.0
  Ni  Ni200  1  0.25547367  0.91737600  0.29417900  1.0
  Ni  Ni201  1  0.58880700  0.25070933  0.29417900  1.0
  Ni  Ni202  1  0.58880700  0.58404267  0.29417900  1.0
  Ni  Ni203  1  0.58880700  0.91737600  0.29417900  1.0
  Ni  Ni204  1  0.92214033  0.25070933  0.29417900  1.0
  Ni  Ni205  1  0.92214033  0.58404267  0.29417900  1.0
  Ni  Ni206  1  0.92214033  0.91737600  0.29417900  1.0
  Ni  Ni207  1  0.25565833  0.25085733  0.46112500  1.0
  Ni  Ni208  1  0.25565833  0.58419067  0.46112500  1.0
  Ni  Ni209  1  0.25565833  0.91752400  0.46112500  1.0
  Ni  Ni210  1  0.58899167  0.25085733  0.46112500  1.0
  Ni  Ni211  1  0.58899167  0.58419067  0.46112500  1.0
  Ni  Ni212  1  0.58899167  0.91752400  0.46112500  1.0
  Ni  Ni213  1  0.92232500  0.25085733  0.46112500  1.0
  Ni  Ni214  1  0.92232500  0.58419067  0.46112500  1.0
  Ni  Ni215  1  0.92232500  0.91752400  0.46112500  1.0
  Ni  Ni216  1  0.03178900  0.00000000  0.29307250  1.0
  Ni  Ni217  1  0.03178900  0.33333333  0.29307250  1.0
  Ni  Ni218  1  0.03178900  0.66666667  0.29307250  1.0
  Ni  Ni219  1  0.36512233  0.00000000  0.29307250  1.0
  Ni  Ni220  1  0.36512233  0.33333333  0.29307250  1.0
  Ni  Ni221  1  0.36512233  0.66666667  0.29307250  1.0
  Ni  Ni222  1  0.69845567  0.00000000  0.29307250  1.0
  Ni  Ni223  1  0.69845567  0.33333333  0.29307250  1.0
  Ni  Ni224  1  0.69845567  0.66666667  0.29307250  1.0
  Ni  Ni225  1  0.03188733  0.00000000  0.46006050  1.0
  Ni  Ni226  1  0.03188733  0.33333333  0.46006050  1.0
  Ni  Ni227  1  0.03188733  0.66666667  0.46006050  1.0
  Ni  Ni228  1  0.36522067  0.00000000  0.46006050  1.0
  Ni  Ni229  1  0.36522067  0.33333333  0.46006050  1.0
  Ni  Ni230  1  0.36522067  0.66666667  0.46006050  1.0
  Ni  Ni231  1  0.69855400  0.00000000  0.46006050  1.0
  Ni  Ni232  1  0.69855400  0.33333333  0.46006050  1.0
  Ni  Ni233  1  0.69855400  0.66666667  0.46006050  1.0
  Ni  Ni234  1  0.13706300  0.16666667  0.04343650  1.0
  Ni  Ni235  1  0.13706300  0.50000000  0.04343650  1.0
  Ni  Ni236  1  0.13706300  0.83333333  0.04343650  1.0
  Ni  Ni237  1  0.47039633  0.16666667  0.04343650  1.0
  Ni  Ni238  1  0.47039633  0.50000000  0.04343650  1.0
  Ni  Ni239  1  0.47039633  0.83333333  0.04343650  1.0
  Ni  Ni240  1  0.80372967  0.16666667  0.04343650  1.0
  Ni  Ni241  1  0.80372967  0.50000000  0.04343650  1.0
  Ni  Ni242  1  0.80372967  0.83333333  0.04343650  1.0
  Ni  Ni243  1  0.13756567  0.16666667  0.21125350  1.0
  Ni  Ni244  1  0.13756567  0.50000000  0.21125350  1.0
  Ni  Ni245  1  0.13756567  0.83333333  0.21125350  1.0
  Ni  Ni246  1  0.47089900  0.16666667  0.21125350  1.0
  Ni  Ni247  1  0.47089900  0.50000000  0.21125350  1.0
  Ni  Ni248  1  0.47089900  0.83333333  0.21125350  1.0
  Ni  Ni249  1  0.80423233  0.16666667  0.21125350  1.0
  Ni  Ni250  1  0.80423233  0.50000000  0.21125350  1.0
  Ni  Ni251  1  0.80423233  0.83333333  0.21125350  1.0
  Ni  Ni252  1  0.13652933  0.16666667  0.37723200  1.0
  Ni  Ni253  1  0.13652933  0.50000000  0.37723200  1.0
  Ni  Ni254  1  0.13652933  0.83333333  0.37723200  1.0
  Ni  Ni255  1  0.46986267  0.16666667  0.37723200  1.0
  Ni  Ni256  1  0.46986267  0.50000000  0.37723200  1.0
  Ni  Ni257  1  0.46986267  0.83333333  0.37723200  1.0
  Ni  Ni258  1  0.80319600  0.16666667  0.37723200  1.0
  Ni  Ni259  1  0.80319600  0.50000000  0.37723200  1.0
  Ni  Ni260  1  0.80319600  0.83333333  0.37723200  1.0
  Ni  Ni261  1  0.30438667  0.16666667  0.00297700  1.0
  Ni  Ni262  1  0.30438667  0.50000000  0.00297700  1.0
  Ni  Ni263  1  0.30438667  0.83333333  0.00297700  1.0
  Ni  Ni264  1  0.63772000  0.16666667  0.00297700  1.0
  Ni  Ni265  1  0.63772000  0.50000000  0.00297700  1.0
  Ni  Ni266  1  0.63772000  0.83333333  0.00297700  1.0
  Ni  Ni267  1  0.97105333  0.16666667  0.00297700  1.0
  Ni  Ni268  1  0.97105333  0.50000000  0.00297700  1.0
  Ni  Ni269  1  0.97105333  0.83333333  0.00297700  1.0
  Ni  Ni270  1  0.30446533  0.16666667  0.16869050  1.0
  Ni  Ni271  1  0.30446533  0.50000000  0.16869050  1.0
  Ni  Ni272  1  0.30446533  0.83333333  0.16869050  1.0
  Ni  Ni273  1  0.63779867  0.16666667  0.16869050  1.0
  Ni  Ni274  1  0.63779867  0.50000000  0.16869050  1.0
  Ni  Ni275  1  0.63779867  0.83333333  0.16869050  1.0
  Ni  Ni276  1  0.97113200  0.16666667  0.16869050  1.0
  Ni  Ni277  1  0.97113200  0.50000000  0.16869050  1.0
  Ni  Ni278  1  0.97113200  0.83333333  0.16869050  1.0
  Ni  Ni279  1  0.30439633  0.16666667  0.33592600  1.0
  Ni  Ni280  1  0.30439633  0.50000000  0.33592600  1.0
  Ni  Ni281  1  0.30439633  0.83333333  0.33592600  1.0
  Ni  Ni282  1  0.63772967  0.16666667  0.33592600  1.0
  Ni  Ni283  1  0.63772967  0.50000000  0.33592600  1.0
  Ni  Ni284  1  0.63772967  0.83333333  0.33592600  1.0
  Ni  Ni285  1  0.97106300  0.16666667  0.33592600  1.0
  Ni  Ni286  1  0.97106300  0.50000000  0.33592600  1.0
  Ni  Ni287  1  0.97106300  0.83333333  0.33592600  1.0
  Sn  Sn288  1  0.30282433  0.00000000  0.00612800  1.0
  Sn  Sn289  1  0.30282433  0.33333333  0.00612800  1.0
  Sn  Sn290  1  0.30282433  0.66666667  0.00612800  1.0
  Sn  Sn291  1  0.63615767  0.00000000  0.00612800  1.0
  Sn  Sn292  1  0.63615767  0.33333333  0.00612800  1.0
  Sn  Sn293  1  0.63615767  0.66666667  0.00612800  1.0
  Sn  Sn294  1  0.96949100  0.00000000  0.00612800  1.0
  Sn  Sn295  1  0.96949100  0.33333333  0.00612800  1.0
  Sn  Sn296  1  0.96949100  0.66666667  0.00612800  1.0
  Sn  Sn297  1  0.30564367  0.00000000  0.16924700  1.0
  Sn  Sn298  1  0.30564367  0.33333333  0.16924700  1.0
  Sn  Sn299  1  0.30564367  0.66666667  0.16924700  1.0
  Sn  Sn300  1  0.63897700  0.00000000  0.16924700  1.0
  Sn  Sn301  1  0.63897700  0.33333333  0.16924700  1.0
  Sn  Sn302  1  0.63897700  0.66666667  0.16924700  1.0
  Sn  Sn303  1  0.97231033  0.00000000  0.16924700  1.0
  Sn  Sn304  1  0.97231033  0.33333333  0.16924700  1.0
  Sn  Sn305  1  0.97231033  0.66666667  0.16924700  1.0
  Sn  Sn306  1  0.30266333  0.00000000  0.33885600  1.0
  Sn  Sn307  1  0.30266333  0.33333333  0.33885600  1.0
  Sn  Sn308  1  0.30266333  0.66666667  0.33885600  1.0
  Sn  Sn309  1  0.63599667  0.00000000  0.33885600  1.0
  Sn  Sn310  1  0.63599667  0.33333333  0.33885600  1.0
  Sn  Sn311  1  0.63599667  0.66666667  0.33885600  1.0
  Sn  Sn312  1  0.96933000  0.00000000  0.33885600  1.0
  Sn  Sn313  1  0.96933000  0.33333333  0.33885600  1.0
  Sn  Sn314  1  0.96933000  0.66666667  0.33885600  1.0
  Sn  Sn315  1  0.13836633  0.00000000  0.04354800  1.0
  Sn  Sn316  1  0.13836633  0.33333333  0.04354800  1.0
  Sn  Sn317  1  0.13836633  0.66666667  0.04354800  1.0
  Sn  Sn318  1  0.47169967  0.00000000  0.04354800  1.0
  Sn  Sn319  1  0.47169967  0.33333333  0.04354800  1.0
  Sn  Sn320  1  0.47169967  0.66666667  0.04354800  1.0
  Sn  Sn321  1  0.80503300  0.00000000  0.04354800  1.0
  Sn  Sn322  1  0.80503300  0.33333333  0.04354800  1.0
  Sn  Sn323  1  0.80503300  0.66666667  0.04354800  1.0
  Sn  Sn324  1  0.13810333  0.00000000  0.20968050  1.0
  Sn  Sn325  1  0.13810333  0.33333333  0.20968050  1.0
  Sn  Sn326  1  0.13810333  0.66666667  0.20968050  1.0
  Sn  Sn327  1  0.47143667  0.00000000  0.20968050  1.0
  Sn  Sn328  1  0.47143667  0.33333333  0.20968050  1.0
  Sn  Sn329  1  0.47143667  0.66666667  0.20968050  1.0
  Sn  Sn330  1  0.80477000  0.00000000  0.20968050  1.0
  Sn  Sn331  1  0.80477000  0.33333333  0.20968050  1.0
  Sn  Sn332  1  0.80477000  0.66666667  0.20968050  1.0
  Sn  Sn333  1  0.13720367  0.00000000  0.37648700  1.0
  Sn  Sn334  1  0.13720367  0.33333333  0.37648700  1.0
  Sn  Sn335  1  0.13720367  0.66666667  0.37648700  1.0
  Sn  Sn336  1  0.47053700  0.00000000  0.37648700  1.0
  Sn  Sn337  1  0.47053700  0.33333333  0.37648700  1.0
  Sn  Sn338  1  0.47053700  0.66666667  0.37648700  1.0
  Sn  Sn339  1  0.80387033  0.00000000  0.37648700  1.0
  Sn  Sn340  1  0.80387033  0.33333333  0.37648700  1.0
  Sn  Sn341  1  0.80387033  0.66666667  0.37648700  1.0
  Sn  Sn342  1  0.03274867  0.16666667  0.12477350  1.0
  Sn  Sn343  1  0.03274867  0.50000000  0.12477350  1.0
  Sn  Sn344  1  0.03274867  0.83333333  0.12477350  1.0
  Sn  Sn345  1  0.36608200  0.16666667  0.12477350  1.0
  Sn  Sn346  1  0.36608200  0.50000000  0.12477350  1.0
  Sn  Sn347  1  0.36608200  0.83333333  0.12477350  1.0
  Sn  Sn348  1  0.69941533  0.16666667  0.12477350  1.0
  Sn  Sn349  1  0.69941533  0.50000000  0.12477350  1.0
  Sn  Sn350  1  0.69941533  0.83333333  0.12477350  1.0
  Sn  Sn351  1  0.03386000  0.16666667  0.29133000  1.0
  Sn  Sn352  1  0.03386000  0.50000000  0.29133000  1.0
  Sn  Sn353  1  0.03386000  0.83333333  0.29133000  1.0
  Sn  Sn354  1  0.36719333  0.16666667  0.29133000  1.0
  Sn  Sn355  1  0.36719333  0.50000000  0.29133000  1.0
  Sn  Sn356  1  0.36719333  0.83333333  0.29133000  1.0
  Sn  Sn357  1  0.70052667  0.16666667  0.29133000  1.0
  Sn  Sn358  1  0.70052667  0.50000000  0.29133000  1.0
  Sn  Sn359  1  0.70052667  0.83333333  0.29133000  1.0
  Sn  Sn360  1  0.03383333  0.16666667  0.45832800  1.0
  Sn  Sn361  1  0.03383333  0.50000000  0.45832800  1.0
  Sn  Sn362  1  0.03383333  0.83333333  0.45832800  1.0
  Sn  Sn363  1  0.36716667  0.16666667  0.45832800  1.0
  Sn  Sn364  1  0.36716667  0.50000000  0.45832800  1.0
  Sn  Sn365  1  0.36716667  0.83333333  0.45832800  1.0
  Sn  Sn366  1  0.70050000  0.16666667  0.45832800  1.0
  Sn  Sn367  1  0.70050000  0.50000000  0.45832800  1.0
  Sn  Sn368  1  0.70050000  0.83333333  0.45832800  1.0
  Sn  Sn369  1  0.19796333  0.16666667  0.08835050  1.0
  Sn  Sn370  1  0.19796333  0.50000000  0.08835050  1.0
  Sn  Sn371  1  0.19796333  0.83333333  0.08835050  1.0
  Sn  Sn372  1  0.53129667  0.16666667  0.08835050  1.0
  Sn  Sn373  1  0.53129667  0.50000000  0.08835050  1.0
  Sn  Sn374  1  0.53129667  0.83333333  0.08835050  1.0
  Sn  Sn375  1  0.86463000  0.16666667  0.08835050  1.0
  Sn  Sn376  1  0.86463000  0.50000000  0.08835050  1.0
  Sn  Sn377  1  0.86463000  0.83333333  0.08835050  1.0
  Sn  Sn378  1  0.20036500  0.16666667  0.25490500  1.0
  Sn  Sn379  1  0.20036500  0.50000000  0.25490500  1.0
  Sn  Sn380  1  0.20036500  0.83333333  0.25490500  1.0
  Sn  Sn381  1  0.53369833  0.16666667  0.25490500  1.0
  Sn  Sn382  1  0.53369833  0.50000000  0.25490500  1.0
  Sn  Sn383  1  0.53369833  0.83333333  0.25490500  1.0
  Sn  Sn384  1  0.86703167  0.16666667  0.25490500  1.0
  Sn  Sn385  1  0.86703167  0.50000000  0.25490500  1.0
  Sn  Sn386  1  0.86703167  0.83333333  0.25490500  1.0
  Sn  Sn387  1  0.19942567  0.16666667  0.42176300  1.0
  Sn  Sn388  1  0.19942567  0.50000000  0.42176300  1.0
  Sn  Sn389  1  0.19942567  0.83333333  0.42176300  1.0
  Sn  Sn390  1  0.53275900  0.16666667  0.42176300  1.0
  Sn  Sn391  1  0.53275900  0.50000000  0.42176300  1.0
  Sn  Sn392  1  0.53275900  0.83333333  0.42176300  1.0
  Sn  Sn393  1  0.86609233  0.16666667  0.42176300  1.0
  Sn  Sn394  1  0.86609233  0.50000000  0.42176300  1.0
  Sn  Sn395  1  0.86609233  0.83333333  0.42176300  1.0
  Sn  Sn396  1  0.30497700  0.00000000  0.08592950  1.0
  Sn  Sn397  1  0.30497700  0.33333333  0.08592950  1.0
  Sn  Sn398  1  0.30497700  0.66666667  0.08592950  1.0
  Sn  Sn399  1  0.63831033  0.00000000  0.08592950  1.0
  Sn  Sn400  1  0.63831033  0.33333333  0.08592950  1.0
  Sn  Sn401  1  0.63831033  0.66666667  0.08592950  1.0
  Sn  Sn402  1  0.97164367  0.00000000  0.08592950  1.0
  Sn  Sn403  1  0.97164367  0.33333333  0.08592950  1.0
  Sn  Sn404  1  0.97164367  0.66666667  0.08592950  1.0
  Sn  Sn405  1  0.30103200  0.00000000  0.24912150  1.0
  Sn  Sn406  1  0.30103200  0.33333333  0.24912150  1.0
  Sn  Sn407  1  0.30103200  0.66666667  0.24912150  1.0
  Sn  Sn408  1  0.63436533  0.00000000  0.24912150  1.0
  Sn  Sn409  1  0.63436533  0.33333333  0.24912150  1.0
  Sn  Sn410  1  0.63436533  0.66666667  0.24912150  1.0
  Sn  Sn411  1  0.96769867  0.00000000  0.24912150  1.0
  Sn  Sn412  1  0.96769867  0.33333333  0.24912150  1.0
  Sn  Sn413  1  0.96769867  0.66666667  0.24912150  1.0
  Sn  Sn414  1  0.30079500  0.00000000  0.41632500  1.0
  Sn  Sn415  1  0.30079500  0.33333333  0.41632500  1.0
  Sn  Sn416  1  0.30079500  0.66666667  0.41632500  1.0
  Sn  Sn417  1  0.63412833  0.00000000  0.41632500  1.0
  Sn  Sn418  1  0.63412833  0.33333333  0.41632500  1.0
  Sn  Sn419  1  0.63412833  0.66666667  0.41632500  1.0
  Sn  Sn420  1  0.96746167  0.00000000  0.41632500  1.0
  Sn  Sn421  1  0.96746167  0.33333333  0.41632500  1.0
  Sn  Sn422  1  0.96746167  0.66666667  0.41632500  1.0
  Sn  Sn423  1  0.13877200  0.00000000  0.12782450  1.0
  Sn  Sn424  1  0.13877200  0.33333333  0.12782450  1.0
  Sn  Sn425  1  0.13877200  0.66666667  0.12782450  1.0
  Sn  Sn426  1  0.47210533  0.00000000  0.12782450  1.0
  Sn  Sn427  1  0.47210533  0.33333333  0.12782450  1.0
  Sn  Sn428  1  0.47210533  0.66666667  0.12782450  1.0
  Sn  Sn429  1  0.80543867  0.00000000  0.12782450  1.0
  Sn  Sn430  1  0.80543867  0.33333333  0.12782450  1.0
  Sn  Sn431  1  0.80543867  0.66666667  0.12782450  1.0
  Sn  Sn432  1  0.14919033  0.00000000  0.29447150  1.0
  Sn  Sn433  1  0.14919033  0.33333333  0.29447150  1.0
  Sn  Sn434  1  0.14919033  0.66666667  0.29447150  1.0
  Sn  Sn435  1  0.48252367  0.00000000  0.29447150  1.0
  Sn  Sn436  1  0.48252367  0.33333333  0.29447150  1.0
  Sn  Sn437  1  0.48252367  0.66666667  0.29447150  1.0
  Sn  Sn438  1  0.81585700  0.00000000  0.29447150  1.0
  Sn  Sn439  1  0.81585700  0.33333333  0.29447150  1.0
  Sn  Sn440  1  0.81585700  0.66666667  0.29447150  1.0
  Sn  Sn441  1  0.14943300  0.00000000  0.46102750  1.0
  Sn  Sn442  1  0.14943300  0.33333333  0.46102750  1.0
  Sn  Sn443  1  0.14943300  0.66666667  0.46102750  1.0
  Sn  Sn444  1  0.48276633  0.00000000  0.46102750  1.0
  Sn  Sn445  1  0.48276633  0.33333333  0.46102750  1.0
  Sn  Sn446  1  0.48276633  0.66666667  0.46102750  1.0
  Sn  Sn447  1  0.81609967  0.00000000  0.46102750  1.0
  Sn  Sn448  1  0.81609967  0.33333333  0.46102750  1.0
  Sn  Sn449  1  0.81609967  0.66666667  0.46102750  1.0
  Sn  Sn450  1  0.01970400  0.16666667  0.04983650  1.0
  Sn  Sn451  1  0.01970400  0.50000000  0.04983650  1.0
  Sn  Sn452  1  0.01970400  0.83333333  0.04983650  1.0
  Sn  Sn453  1  0.35303733  0.16666667  0.04983650  1.0
  Sn  Sn454  1  0.35303733  0.50000000  0.04983650  1.0
  Sn  Sn455  1  0.35303733  0.83333333  0.04983650  1.0
  Sn  Sn456  1  0.68637067  0.16666667  0.04983650  1.0
  Sn  Sn457  1  0.68637067  0.50000000  0.04983650  1.0
  Sn  Sn458  1  0.68637067  0.83333333  0.04983650  1.0
  Sn  Sn459  1  0.01980367  0.16666667  0.21573150  1.0
  Sn  Sn460  1  0.01980367  0.50000000  0.21573150  1.0
  Sn  Sn461  1  0.01980367  0.83333333  0.21573150  1.0
  Sn  Sn462  1  0.35313700  0.16666667  0.21573150  1.0
  Sn  Sn463  1  0.35313700  0.50000000  0.21573150  1.0
  Sn  Sn464  1  0.35313700  0.83333333  0.21573150  1.0
  Sn  Sn465  1  0.68647033  0.16666667  0.21573150  1.0
  Sn  Sn466  1  0.68647033  0.50000000  0.21573150  1.0
  Sn  Sn467  1  0.68647033  0.83333333  0.21573150  1.0
  Sn  Sn468  1  0.01912267  0.16666667  0.38306750  1.0
  Sn  Sn469  1  0.01912267  0.50000000  0.38306750  1.0
  Sn  Sn470  1  0.01912267  0.83333333  0.38306750  1.0
  Sn  Sn471  1  0.35245600  0.16666667  0.38306750  1.0
  Sn  Sn472  1  0.35245600  0.50000000  0.38306750  1.0
  Sn  Sn473  1  0.35245600  0.83333333  0.38306750  1.0
  Sn  Sn474  1  0.68578933  0.16666667  0.38306750  1.0
  Sn  Sn475  1  0.68578933  0.50000000  0.38306750  1.0
  Sn  Sn476  1  0.68578933  0.83333333  0.38306750  1.0
  Sn  Sn477  1  0.18753967  0.16666667  0.49702300  1.0
  Sn  Sn478  1  0.18753967  0.50000000  0.49702300  1.0
  Sn  Sn479  1  0.18753967  0.83333333  0.49702300  1.0
  Sn  Sn480  1  0.52087300  0.16666667  0.49702300  1.0
  Sn  Sn481  1  0.52087300  0.50000000  0.49702300  1.0
  Sn  Sn482  1  0.52087300  0.83333333  0.49702300  1.0
  Sn  Sn483  1  0.85420633  0.16666667  0.49702300  1.0
  Sn  Sn484  1  0.85420633  0.50000000  0.49702300  1.0
  Sn  Sn485  1  0.85420633  0.83333333  0.49702300  1.0
  Sn  Sn486  1  0.18603600  0.16666667  0.16389500  1.0
  Sn  Sn487  1  0.18603600  0.50000000  0.16389500  1.0
  Sn  Sn488  1  0.18603600  0.83333333  0.16389500  1.0
  Sn  Sn489  1  0.51936933  0.16666667  0.16389500  1.0
  Sn  Sn490  1  0.51936933  0.50000000  0.16389500  1.0
  Sn  Sn491  1  0.51936933  0.83333333  0.16389500  1.0
  Sn  Sn492  1  0.85270267  0.16666667  0.16389500  1.0
  Sn  Sn493  1  0.85270267  0.50000000  0.16389500  1.0
  Sn  Sn494  1  0.85270267  0.83333333  0.16389500  1.0
  Sn  Sn495  1  0.18714467  0.16666667  0.33045400  1.0
  Sn  Sn496  1  0.18714467  0.50000000  0.33045400  1.0
  Sn  Sn497  1  0.18714467  0.83333333  0.33045400  1.0
  Sn  Sn498  1  0.52047800  0.16666667  0.33045400  1.0
  Sn  Sn499  1  0.52047800  0.50000000  0.33045400  1.0
  Sn  Sn500  1  0.52047800  0.83333333  0.33045400  1.0
  Sn  Sn501  1  0.85381133  0.16666667  0.33045400  1.0
  Sn  Sn502  1  0.85381133  0.50000000  0.33045400  1.0
  Sn  Sn503  1  0.85381133  0.83333333  0.33045400  1.0
