# generated using pymatgen
data_Ni4W
_symmetry_space_group_name_H-M   'P 1'
_cell_length_a   20.24361659
_cell_length_b   27.72999157
_cell_length_c   26.78868841
_cell_angle_alpha   83.51492537
_cell_angle_beta   86.86259953
_cell_angle_gamma   80.63755729
_symmetry_Int_Tables_number   1
_chemical_formula_structural   Ni4W
_chemical_formula_sum   'Ni432 W108'
_cell_volume   14732.56915515
_cell_formula_units_Z   108
loop_
 _symmetry_equiv_pos_site_id
 _symmetry_equiv_pos_as_xyz
  1  'x, y, z'
loop_
 _atom_site_type_symbol
 _atom_site_label
 _atom_site_symmetry_multiplicity
 _atom_site_fract_x
 _atom_site_fract_y
 _atom_site_fract_z
 _atom_site_occupancy
  Ni  Ni0  1  0.05962015  0.17885961  0.01067090  1.0
  Ni  Ni1  1  0.05962015  0.51219295  0.01067090  1.0
  Ni  Ni2  1  0.05962015  0.84552628  0.01067090  1.0
  Ni  Ni3  1  0.39295348  0.17885961  0.01067090  1.0
  Ni  Ni4  1  0.39295348  0.51219295  0.01067090  1.0
  Ni  Ni5  1  0.39295348  0.84552628  0.01067090  1.0
  Ni  Ni6  1  0.72628682  0.17885961  0.01067090  1.0
  Ni  Ni7  1  0.72628682  0.51219295  0.01067090  1.0
  Ni  Ni8  1  0.72628682  0.84552628  0.01067090  1.0
  Ni  Ni9  1  0.20247729  0.27409771  0.04638519  1.0
  Ni  Ni10  1  0.20247729  0.60743104  0.04638519  1.0
  Ni  Ni11  1  0.20247729  0.94076437  0.04638519  1.0
  Ni  Ni12  1  0.53581062  0.27409771  0.04638519  1.0
  Ni  Ni13  1  0.53581062  0.60743104  0.04638519  1.0
  Ni  Ni14  1  0.53581062  0.94076437  0.04638519  1.0
  Ni  Ni15  1  0.86914396  0.27409771  0.04638519  1.0
  Ni  Ni16  1  0.86914396  0.60743104  0.04638519  1.0
  Ni  Ni17  1  0.86914396  0.94076437  0.04638519  1.0
  Ni  Ni18  1  0.03077953  0.09301109  0.00362908  1.0
  Ni  Ni19  1  0.03077953  0.42634442  0.00362908  1.0
  Ni  Ni20  1  0.03077953  0.75967776  0.00362908  1.0
  Ni  Ni21  1  0.36411286  0.09301109  0.00362908  1.0
  Ni  Ni22  1  0.36411286  0.42634442  0.00362908  1.0
  Ni  Ni23  1  0.36411286  0.75967776  0.00362908  1.0
  Ni  Ni24  1  0.69744620  0.09301109  0.00362908  1.0
  Ni  Ni25  1  0.69744620  0.42634442  0.00362908  1.0
  Ni  Ni26  1  0.69744620  0.75967776  0.00362908  1.0
  Ni  Ni27  1  0.17363667  0.18824918  0.03934337  1.0
  Ni  Ni28  1  0.17363667  0.52158252  0.03934337  1.0
  Ni  Ni29  1  0.17363667  0.85491585  0.03934337  1.0
  Ni  Ni30  1  0.50697001  0.18824918  0.03934337  1.0
  Ni  Ni31  1  0.50697001  0.52158252  0.03934337  1.0
  Ni  Ni32  1  0.50697001  0.85491585  0.03934337  1.0
  Ni  Ni33  1  0.84030334  0.18824918  0.03934337  1.0
  Ni  Ni34  1  0.84030334  0.52158252  0.03934337  1.0
  Ni  Ni35  1  0.84030334  0.85491585  0.03934337  1.0
  Ni  Ni36  1  0.25977353  0.11198142  0.06054133  1.0
  Ni  Ni37  1  0.25977353  0.44531476  0.06054133  1.0
  Ni  Ni38  1  0.25977353  0.77864809  0.06054133  1.0
  Ni  Ni39  1  0.59310686  0.11198142  0.06054133  1.0
  Ni  Ni40  1  0.59310686  0.44531476  0.06054133  1.0
  Ni  Ni41  1  0.59310686  0.77864809  0.06054133  1.0
  Ni  Ni42  1  0.92644020  0.11198142  0.06054133  1.0
  Ni  Ni43  1  0.92644020  0.44531476  0.06054133  1.0
  Ni  Ni44  1  0.92644020  0.77864809  0.06054133  1.0
  Ni  Ni45  1  0.11691639  0.01674333  0.02482704  1.0
  Ni  Ni46  1  0.11691639  0.35007666  0.02482704  1.0
  Ni  Ni47  1  0.11691639  0.68340999  0.02482704  1.0
  Ni  Ni48  1  0.45024972  0.01674333  0.02482704  1.0
  Ni  Ni49  1  0.45024972  0.35007666  0.02482704  1.0
  Ni  Ni50  1  0.45024972  0.68340999  0.02482704  1.0
  Ni  Ni51  1  0.78358305  0.01674333  0.02482704  1.0
  Ni  Ni52  1  0.78358305  0.35007666  0.02482704  1.0
  Ni  Ni53  1  0.78358305  0.68340999  0.02482704  1.0
  Ni  Ni54  1  0.23093291  0.02613290  0.05349951  1.0
  Ni  Ni55  1  0.23093291  0.35946623  0.05349951  1.0
  Ni  Ni56  1  0.23093291  0.69279957  0.05349951  1.0
  Ni  Ni57  1  0.56426624  0.02613290  0.05349951  1.0
  Ni  Ni58  1  0.56426624  0.35946623  0.05349951  1.0
  Ni  Ni59  1  0.56426624  0.69279957  0.05349951  1.0
  Ni  Ni60  1  0.89759958  0.02613290  0.05349951  1.0
  Ni  Ni61  1  0.89759958  0.35946623  0.05349951  1.0
  Ni  Ni62  1  0.89759958  0.69279957  0.05349951  1.0
  Ni  Ni63  1  0.08807577  0.26422814  0.01778522  1.0
  Ni  Ni64  1  0.08807577  0.59756147  0.01778522  1.0
  Ni  Ni65  1  0.08807577  0.93089480  0.01778522  1.0
  Ni  Ni66  1  0.42140910  0.26422814  0.01778522  1.0
  Ni  Ni67  1  0.42140910  0.59756147  0.01778522  1.0
  Ni  Ni68  1  0.42140910  0.93089480  0.01778522  1.0
  Ni  Ni69  1  0.75474243  0.26422814  0.01778522  1.0
  Ni  Ni70  1  0.75474243  0.59756147  0.01778522  1.0
  Ni  Ni71  1  0.75474243  0.93089480  0.01778522  1.0
  Ni  Ni72  1  0.01200110  0.03600247  0.08209947  1.0
  Ni  Ni73  1  0.01200110  0.36933580  0.08209947  1.0
  Ni  Ni74  1  0.01200110  0.70266914  0.08209947  1.0
  Ni  Ni75  1  0.34533443  0.03600247  0.08209947  1.0
  Ni  Ni76  1  0.34533443  0.36933580  0.08209947  1.0
  Ni  Ni77  1  0.34533443  0.70266914  0.08209947  1.0
  Ni  Ni78  1  0.67866777  0.03600247  0.08209947  1.0
  Ni  Ni79  1  0.67866777  0.36933580  0.08209947  1.0
  Ni  Ni80  1  0.67866777  0.70266914  0.08209947  1.0
  Ni  Ni81  1  0.15485824  0.13124057  0.11781376  1.0
  Ni  Ni82  1  0.15485824  0.46457390  0.11781376  1.0
  Ni  Ni83  1  0.15485824  0.79790723  0.11781376  1.0
  Ni  Ni84  1  0.48819158  0.13124057  0.11781376  1.0
  Ni  Ni85  1  0.48819158  0.46457390  0.11781376  1.0
  Ni  Ni86  1  0.48819158  0.79790723  0.11781376  1.0
  Ni  Ni87  1  0.82152491  0.13124057  0.11781376  1.0
  Ni  Ni88  1  0.82152491  0.46457390  0.11781376  1.0
  Ni  Ni89  1  0.82152491  0.79790723  0.11781376  1.0
  Ni  Ni90  1  0.31649382  0.28348728  0.07505765  1.0
  Ni  Ni91  1  0.31649382  0.61682061  0.07505765  1.0
  Ni  Ni92  1  0.31649382  0.95015395  0.07505765  1.0
  Ni  Ni93  1  0.64982715  0.28348728  0.07505765  1.0
  Ni  Ni94  1  0.64982715  0.61682061  0.07505765  1.0
  Ni  Ni95  1  0.64982715  0.95015395  0.07505765  1.0
  Ni  Ni96  1  0.98316048  0.28348728  0.07505765  1.0
  Ni  Ni97  1  0.98316048  0.61682061  0.07505765  1.0
  Ni  Ni98  1  0.98316048  0.95015395  0.07505765  1.0
  Ni  Ni99  1  0.12601763  0.04539204  0.11077194  1.0
  Ni  Ni100  1  0.12601763  0.37872537  0.11077194  1.0
  Ni  Ni101  1  0.12601763  0.71205871  0.11077194  1.0
  Ni  Ni102  1  0.45935096  0.04539204  0.11077194  1.0
  Ni  Ni103  1  0.45935096  0.37872537  0.11077194  1.0
  Ni  Ni104  1  0.45935096  0.71205871  0.11077194  1.0
  Ni  Ni105  1  0.79268429  0.04539204  0.11077194  1.0
  Ni  Ni106  1  0.79268429  0.37872537  0.11077194  1.0
  Ni  Ni107  1  0.79268429  0.71205871  0.11077194  1.0
  Ni  Ni108  1  0.21215448  0.30245761  0.13196990  1.0
  Ni  Ni109  1  0.21215448  0.63579095  0.13196990  1.0
  Ni  Ni110  1  0.21215448  0.96912428  0.13196990  1.0
  Ni  Ni111  1  0.54548782  0.30245761  0.13196990  1.0
  Ni  Ni112  1  0.54548782  0.63579095  0.13196990  1.0
  Ni  Ni113  1  0.54548782  0.96912428  0.13196990  1.0
  Ni  Ni114  1  0.87882115  0.30245761  0.13196990  1.0
  Ni  Ni115  1  0.87882115  0.63579095  0.13196990  1.0
  Ni  Ni116  1  0.87882115  0.96912428  0.13196990  1.0
  Ni  Ni117  1  0.06929734  0.20721952  0.09625562  1.0
  Ni  Ni118  1  0.06929734  0.54055285  0.09625562  1.0
  Ni  Ni119  1  0.06929734  0.87388618  0.09625562  1.0
  Ni  Ni120  1  0.40263067  0.20721952  0.09625562  1.0
  Ni  Ni121  1  0.40263067  0.54055285  0.09625562  1.0
  Ni  Ni122  1  0.40263067  0.87388618  0.09625562  1.0
  Ni  Ni123  1  0.73596401  0.20721952  0.09625562  1.0
  Ni  Ni124  1  0.73596401  0.54055285  0.09625562  1.0
  Ni  Ni125  1  0.73596401  0.87388618  0.09625562  1.0
  Ni  Ni126  1  0.18331386  0.21660909  0.12492808  1.0
  Ni  Ni127  1  0.18331386  0.54994242  0.12492808  1.0
  Ni  Ni128  1  0.18331386  0.88327576  0.12492808  1.0
  Ni  Ni129  1  0.51664720  0.21660909  0.12492808  1.0
  Ni  Ni130  1  0.51664720  0.54994242  0.12492808  1.0
  Ni  Ni131  1  0.51664720  0.88327576  0.12492808  1.0
  Ni  Ni132  1  0.84998053  0.21660909  0.12492808  1.0
  Ni  Ni133  1  0.84998053  0.54994242  0.12492808  1.0
  Ni  Ni134  1  0.84998053  0.88327576  0.12492808  1.0
  Ni  Ni135  1  0.04045672  0.12137099  0.08921379  1.0
  Ni  Ni136  1  0.04045672  0.45470433  0.08921379  1.0
  Ni  Ni137  1  0.04045672  0.78803766  0.08921379  1.0
  Ni  Ni138  1  0.37379005  0.12137099  0.08921379  1.0
  Ni  Ni139  1  0.37379005  0.45470433  0.08921379  1.0
  Ni  Ni140  1  0.37379005  0.78803766  0.08921379  1.0
  Ni  Ni141  1  0.70712339  0.12137099  0.08921379  1.0
  Ni  Ni142  1  0.70712339  0.45470433  0.08921379  1.0
  Ni  Ni143  1  0.70712339  0.78803766  0.08921379  1.0
  Ni  Ni144  1  0.29771539  0.22647866  0.15352804  1.0
  Ni  Ni145  1  0.29771539  0.55981199  0.15352804  1.0
  Ni  Ni146  1  0.29771539  0.89314533  0.15352804  1.0
  Ni  Ni147  1  0.63104872  0.22647866  0.15352804  1.0
  Ni  Ni148  1  0.63104872  0.55981199  0.15352804  1.0
  Ni  Ni149  1  0.63104872  0.89314533  0.15352804  1.0
  Ni  Ni150  1  0.96438205  0.22647866  0.15352804  1.0
  Ni  Ni151  1  0.96438205  0.55981199  0.15352804  1.0
  Ni  Ni152  1  0.96438205  0.89314533  0.15352804  1.0
  Ni  Ni153  1  0.10723920  0.32171676  0.18924233  1.0
  Ni  Ni154  1  0.10723920  0.65505009  0.18924233  1.0
  Ni  Ni155  1  0.10723920  0.98838342  0.18924233  1.0
  Ni  Ni156  1  0.44057253  0.32171676  0.18924233  1.0
  Ni  Ni157  1  0.44057253  0.65505009  0.18924233  1.0
  Ni  Ni158  1  0.44057253  0.98838342  0.18924233  1.0
  Ni  Ni159  1  0.77390586  0.32171676  0.18924233  1.0
  Ni  Ni160  1  0.77390586  0.65505009  0.18924233  1.0
  Ni  Ni161  1  0.77390586  0.98838342  0.18924233  1.0
  Ni  Ni162  1  0.26887477  0.14063014  0.14648622  1.0
  Ni  Ni163  1  0.26887477  0.47396347  0.14648622  1.0
  Ni  Ni164  1  0.26887477  0.80729680  0.14648622  1.0
  Ni  Ni165  1  0.60220810  0.14063014  0.14648622  1.0
  Ni  Ni166  1  0.60220810  0.47396347  0.14648622  1.0
  Ni  Ni167  1  0.60220810  0.80729680  0.14648622  1.0
  Ni  Ni168  1  0.93554143  0.14063014  0.14648622  1.0
  Ni  Ni169  1  0.93554143  0.47396347  0.14648622  1.0
  Ni  Ni170  1  0.93554143  0.80729680  0.14648622  1.0
  Ni  Ni171  1  0.07839858  0.23586823  0.18220051  1.0
  Ni  Ni172  1  0.07839858  0.56920157  0.18220051  1.0
  Ni  Ni173  1  0.07839858  0.90253490  0.18220051  1.0
  Ni  Ni174  1  0.41173191  0.23586823  0.18220051  1.0
  Ni  Ni175  1  0.41173191  0.56920157  0.18220051  1.0
  Ni  Ni176  1  0.41173191  0.90253490  0.18220051  1.0
  Ni  Ni177  1  0.74506524  0.23586823  0.18220051  1.0
  Ni  Ni178  1  0.74506524  0.56920157  0.18220051  1.0
  Ni  Ni179  1  0.74506524  0.90253490  0.18220051  1.0
  Ni  Ni180  1  0.16453543  0.15960047  0.20339847  1.0
  Ni  Ni181  1  0.16453543  0.49293380  0.20339847  1.0
  Ni  Ni182  1  0.16453543  0.82626714  0.20339847  1.0
  Ni  Ni183  1  0.49786877  0.15960047  0.20339847  1.0
  Ni  Ni184  1  0.49786877  0.49293380  0.20339847  1.0
  Ni  Ni185  1  0.49786877  0.82626714  0.20339847  1.0
  Ni  Ni186  1  0.83120210  0.15960047  0.20339847  1.0
  Ni  Ni187  1  0.83120210  0.49293380  0.20339847  1.0
  Ni  Ni188  1  0.83120210  0.82626714  0.20339847  1.0
  Ni  Ni189  1  0.02167829  0.06436237  0.16768419  1.0
  Ni  Ni190  1  0.02167829  0.39769571  0.16768419  1.0
  Ni  Ni191  1  0.02167829  0.73102904  0.16768419  1.0
  Ni  Ni192  1  0.35501162  0.06436237  0.16768419  1.0
  Ni  Ni193  1  0.35501162  0.39769571  0.16768419  1.0
  Ni  Ni194  1  0.35501162  0.73102904  0.16768419  1.0
  Ni  Ni195  1  0.68834496  0.06436237  0.16768419  1.0
  Ni  Ni196  1  0.68834496  0.39769571  0.16768419  1.0
  Ni  Ni197  1  0.68834496  0.73102904  0.16768419  1.0
  Ni  Ni198  1  0.13569482  0.07375195  0.19635665  1.0
  Ni  Ni199  1  0.13569482  0.40708528  0.19635665  1.0
  Ni  Ni200  1  0.13569482  0.74041861  0.19635665  1.0
  Ni  Ni201  1  0.46902815  0.07375195  0.19635665  1.0
  Ni  Ni202  1  0.46902815  0.40708528  0.19635665  1.0
  Ni  Ni203  1  0.46902815  0.74041861  0.19635665  1.0
  Ni  Ni204  1  0.80236148  0.07375195  0.19635665  1.0
  Ni  Ni205  1  0.80236148  0.40708528  0.19635665  1.0
  Ni  Ni206  1  0.80236148  0.74041861  0.19635665  1.0
  Ni  Ni207  1  0.32617101  0.31184718  0.16064237  1.0
  Ni  Ni208  1  0.32617101  0.64518052  0.16064237  1.0
  Ni  Ni209  1  0.32617101  0.97851385  0.16064237  1.0
  Ni  Ni210  1  0.65950434  0.31184718  0.16064237  1.0
  Ni  Ni211  1  0.65950434  0.64518052  0.16064237  1.0
  Ni  Ni212  1  0.65950434  0.97851385  0.16064237  1.0
  Ni  Ni213  1  0.99283767  0.31184718  0.16064237  1.0
  Ni  Ni214  1  0.99283767  0.64518052  0.16064237  1.0
  Ni  Ni215  1  0.99283767  0.97851385  0.16064237  1.0
  Ni  Ni216  1  0.25009634  0.08362152  0.22495662  1.0
  Ni  Ni217  1  0.25009634  0.41695485  0.22495662  1.0
  Ni  Ni218  1  0.25009634  0.75028818  0.22495662  1.0
  Ni  Ni219  1  0.58342967  0.08362152  0.22495662  1.0
  Ni  Ni220  1  0.58342967  0.41695485  0.22495662  1.0
  Ni  Ni221  1  0.58342967  0.75028818  0.22495662  1.0
  Ni  Ni222  1  0.91676301  0.08362152  0.22495662  1.0
  Ni  Ni223  1  0.91676301  0.41695485  0.22495662  1.0
  Ni  Ni224  1  0.91676301  0.75028818  0.22495662  1.0
  Ni  Ni225  1  0.05962015  0.17885961  0.26067090  1.0
  Ni  Ni226  1  0.05962015  0.51219295  0.26067090  1.0
  Ni  Ni227  1  0.05962015  0.84552628  0.26067090  1.0
  Ni  Ni228  1  0.39295348  0.17885961  0.26067090  1.0
  Ni  Ni229  1  0.39295348  0.51219295  0.26067090  1.0
  Ni  Ni230  1  0.39295348  0.84552628  0.26067090  1.0
  Ni  Ni231  1  0.72628682  0.17885961  0.26067090  1.0
  Ni  Ni232  1  0.72628682  0.51219295  0.26067090  1.0
  Ni  Ni233  1  0.72628682  0.84552628  0.26067090  1.0
  Ni  Ni234  1  0.22125572  0.33110633  0.21791479  1.0
  Ni  Ni235  1  0.22125572  0.66443966  0.21791479  1.0
  Ni  Ni236  1  0.22125572  0.99777299  0.21791479  1.0
  Ni  Ni237  1  0.55458905  0.33110633  0.21791479  1.0
  Ni  Ni238  1  0.55458905  0.66443966  0.21791479  1.0
  Ni  Ni239  1  0.55458905  0.99777299  0.21791479  1.0
  Ni  Ni240  1  0.88792239  0.33110633  0.21791479  1.0
  Ni  Ni241  1  0.88792239  0.66443966  0.21791479  1.0
  Ni  Ni242  1  0.88792239  0.99777299  0.21791479  1.0
  Ni  Ni243  1  0.03077953  0.09301109  0.25362908  1.0
  Ni  Ni244  1  0.03077953  0.42634442  0.25362908  1.0
  Ni  Ni245  1  0.03077953  0.75967776  0.25362908  1.0
  Ni  Ni246  1  0.36411286  0.09301109  0.25362908  1.0
  Ni  Ni247  1  0.36411286  0.42634442  0.25362908  1.0
  Ni  Ni248  1  0.36411286  0.75967776  0.25362908  1.0
  Ni  Ni249  1  0.69744620  0.09301109  0.25362908  1.0
  Ni  Ni250  1  0.69744620  0.42634442  0.25362908  1.0
  Ni  Ni251  1  0.69744620  0.75967776  0.25362908  1.0
  Ni  Ni252  1  0.11691639  0.01674333  0.27482704  1.0
  Ni  Ni253  1  0.11691639  0.35007666  0.27482704  1.0
  Ni  Ni254  1  0.11691639  0.68340999  0.27482704  1.0
  Ni  Ni255  1  0.45024972  0.01674333  0.27482704  1.0
  Ni  Ni256  1  0.45024972  0.35007666  0.27482704  1.0
  Ni  Ni257  1  0.45024972  0.68340999  0.27482704  1.0
  Ni  Ni258  1  0.78358305  0.01674333  0.27482704  1.0
  Ni  Ni259  1  0.78358305  0.35007666  0.27482704  1.0
  Ni  Ni260  1  0.78358305  0.68340999  0.27482704  1.0
  Ni  Ni261  1  0.30739258  0.25483857  0.23911276  1.0
  Ni  Ni262  1  0.30739258  0.58817190  0.23911276  1.0
  Ni  Ni263  1  0.30739258  0.92150523  0.23911276  1.0
  Ni  Ni264  1  0.64072591  0.25483857  0.23911276  1.0
  Ni  Ni265  1  0.64072591  0.58817190  0.23911276  1.0
  Ni  Ni266  1  0.64072591  0.92150523  0.23911276  1.0
  Ni  Ni267  1  0.97405924  0.25483857  0.23911276  1.0
  Ni  Ni268  1  0.97405924  0.58817190  0.23911276  1.0
  Ni  Ni269  1  0.97405924  0.92150523  0.23911276  1.0
  Ni  Ni270  1  0.08807577  0.26422814  0.26778522  1.0
  Ni  Ni271  1  0.08807577  0.59756147  0.26778522  1.0
  Ni  Ni272  1  0.08807577  0.93089480  0.26778522  1.0
  Ni  Ni273  1  0.42140910  0.26422814  0.26778522  1.0
  Ni  Ni274  1  0.42140910  0.59756147  0.26778522  1.0
  Ni  Ni275  1  0.42140910  0.93089480  0.26778522  1.0
  Ni  Ni276  1  0.75474243  0.26422814  0.26778522  1.0
  Ni  Ni277  1  0.75474243  0.59756147  0.26778522  1.0
  Ni  Ni278  1  0.75474243  0.93089480  0.26778522  1.0
  Ni  Ni279  1  0.27855196  0.16899004  0.23207094  1.0
  Ni  Ni280  1  0.27855196  0.50232338  0.23207094  1.0
  Ni  Ni281  1  0.27855196  0.83565671  0.23207094  1.0
  Ni  Ni282  1  0.61188529  0.16899004  0.23207094  1.0
  Ni  Ni283  1  0.61188529  0.50232338  0.23207094  1.0
  Ni  Ni284  1  0.61188529  0.83565671  0.23207094  1.0
  Ni  Ni285  1  0.94521863  0.16899004  0.23207094  1.0
  Ni  Ni286  1  0.94521863  0.50232338  0.23207094  1.0
  Ni  Ni287  1  0.94521863  0.83565671  0.23207094  1.0
  Ni  Ni288  1  0.20247729  0.27409771  0.29638519  1.0
  Ni  Ni289  1  0.20247729  0.60743104  0.29638519  1.0
  Ni  Ni290  1  0.20247729  0.94076437  0.29638519  1.0
  Ni  Ni291  1  0.53581062  0.27409771  0.29638519  1.0
  Ni  Ni292  1  0.53581063  0.60743104  0.29638519  1.0
  Ni  Ni293  1  0.53581062  0.94076437  0.29638519  1.0
  Ni  Ni294  1  0.86914396  0.27409771  0.29638519  1.0
  Ni  Ni295  1  0.86914396  0.60743104  0.29638519  1.0
  Ni  Ni296  1  0.86914396  0.94076437  0.29638519  1.0
  Ni  Ni297  1  0.01200110  0.03600247  0.33209947  1.0
  Ni  Ni298  1  0.01200110  0.36933580  0.33209947  1.0
  Ni  Ni299  1  0.01200110  0.70266914  0.33209947  1.0
  Ni  Ni300  1  0.34533443  0.03600247  0.33209947  1.0
  Ni  Ni301  1  0.34533443  0.36933580  0.33209947  1.0
  Ni  Ni302  1  0.34533443  0.70266914  0.33209947  1.0
  Ni  Ni303  1  0.67866777  0.03600247  0.33209947  1.0
  Ni  Ni304  1  0.67866777  0.36933580  0.33209947  1.0
  Ni  Ni305  1  0.67866777  0.70266914  0.33209947  1.0
  Ni  Ni306  1  0.17363667  0.18824918  0.28934337  1.0
  Ni  Ni307  1  0.17363667  0.52158252  0.28934337  1.0
  Ni  Ni308  1  0.17363667  0.85491585  0.28934337  1.0
  Ni  Ni309  1  0.50697001  0.18824918  0.28934337  1.0
  Ni  Ni310  1  0.50697001  0.52158252  0.28934337  1.0
  Ni  Ni311  1  0.50697001  0.85491585  0.28934337  1.0
  Ni  Ni312  1  0.84030334  0.18824918  0.28934337  1.0
  Ni  Ni313  1  0.84030334  0.52158252  0.28934337  1.0
  Ni  Ni314  1  0.84030334  0.85491585  0.28934337  1.0
  Ni  Ni315  1  0.31649382  0.28348728  0.32505765  1.0
  Ni  Ni316  1  0.31649382  0.61682061  0.32505765  1.0
  Ni  Ni317  1  0.31649382  0.95015395  0.32505765  1.0
  Ni  Ni318  1  0.64982715  0.28348728  0.32505765  1.0
  Ni  Ni319  1  0.64982715  0.61682061  0.32505765  1.0
  Ni  Ni320  1  0.64982715  0.95015395  0.32505765  1.0
  Ni  Ni321  1  0.98316048  0.28348728  0.32505765  1.0
  Ni  Ni322  1  0.98316048  0.61682061  0.32505765  1.0
  Ni  Ni323  1  0.98316048  0.95015395  0.32505765  1.0
  Ni  Ni324  1  0.06929734  0.20721952  0.34625562  1.0
  Ni  Ni325  1  0.06929734  0.54055285  0.34625562  1.0
  Ni  Ni326  1  0.06929734  0.87388618  0.34625562  1.0
  Ni  Ni327  1  0.40263067  0.20721952  0.34625562  1.0
  Ni  Ni328  1  0.40263067  0.54055285  0.34625562  1.0
  Ni  Ni329  1  0.40263067  0.87388618  0.34625562  1.0
  Ni  Ni330  1  0.73596401  0.20721952  0.34625562  1.0
  Ni  Ni331  1  0.73596401  0.54055285  0.34625562  1.0
  Ni  Ni332  1  0.73596401  0.87388618  0.34625562  1.0
  Ni  Ni333  1  0.25977353  0.11198142  0.31054133  1.0
  Ni  Ni334  1  0.25977353  0.44531476  0.31054133  1.0
  Ni  Ni335  1  0.25977353  0.77864809  0.31054133  1.0
  Ni  Ni336  1  0.59310686  0.11198142  0.31054133  1.0
  Ni  Ni337  1  0.59310686  0.44531476  0.31054133  1.0
  Ni  Ni338  1  0.59310686  0.77864809  0.31054133  1.0
  Ni  Ni339  1  0.92644020  0.11198142  0.31054133  1.0
  Ni  Ni340  1  0.92644020  0.44531476  0.31054133  1.0
  Ni  Ni341  1  0.92644020  0.77864809  0.31054133  1.0
  Ni  Ni342  1  0.04045672  0.12137099  0.33921379  1.0
  Ni  Ni343  1  0.04045672  0.45470433  0.33921379  1.0
  Ni  Ni344  1  0.04045672  0.78803766  0.33921379  1.0
  Ni  Ni345  1  0.37379005  0.12137099  0.33921379  1.0
  Ni  Ni346  1  0.37379005  0.45470433  0.33921379  1.0
  Ni  Ni347  1  0.37379005  0.78803766  0.33921379  1.0
  Ni  Ni348  1  0.70712339  0.12137099  0.33921379  1.0
  Ni  Ni349  1  0.70712339  0.45470433  0.33921379  1.0
  Ni  Ni350  1  0.70712339  0.78803766  0.33921379  1.0
  Ni  Ni351  1  0.23093291  0.02613290  0.30349951  1.0
  Ni  Ni352  1  0.23093291  0.35946623  0.30349951  1.0
  Ni  Ni353  1  0.23093291  0.69279957  0.30349951  1.0
  Ni  Ni354  1  0.56426624  0.02613290  0.30349951  1.0
  Ni  Ni355  1  0.56426624  0.35946623  0.30349951  1.0
  Ni  Ni356  1  0.56426624  0.69279957  0.30349951  1.0
  Ni  Ni357  1  0.89759958  0.02613290  0.30349951  1.0
  Ni  Ni358  1  0.89759958  0.35946623  0.30349951  1.0
  Ni  Ni359  1  0.89759958  0.69279957  0.30349951  1.0
  Ni  Ni360  1  0.15485824  0.13124057  0.36781376  1.0
  Ni  Ni361  1  0.15485824  0.46457390  0.36781376  1.0
  Ni  Ni362  1  0.15485824  0.79790723  0.36781376  1.0
  Ni  Ni363  1  0.48819158  0.13124057  0.36781376  1.0
  Ni  Ni364  1  0.48819158  0.46457390  0.36781376  1.0
  Ni  Ni365  1  0.48819158  0.79790723  0.36781376  1.0
  Ni  Ni366  1  0.82152491  0.13124057  0.36781376  1.0
  Ni  Ni367  1  0.82152491  0.46457390  0.36781376  1.0
  Ni  Ni368  1  0.82152491  0.79790723  0.36781376  1.0
  Ni  Ni369  1  0.29771539  0.22647866  0.40352804  1.0
  Ni  Ni370  1  0.29771539  0.55981199  0.40352804  1.0
  Ni  Ni371  1  0.29771539  0.89314533  0.40352804  1.0
  Ni  Ni372  1  0.63104872  0.22647866  0.40352804  1.0
  Ni  Ni373  1  0.63104872  0.55981199  0.40352804  1.0
  Ni  Ni374  1  0.63104872  0.89314533  0.40352804  1.0
  Ni  Ni375  1  0.96438205  0.22647866  0.40352804  1.0
  Ni  Ni376  1  0.96438205  0.55981199  0.40352804  1.0
  Ni  Ni377  1  0.96438205  0.89314533  0.40352804  1.0
  Ni  Ni378  1  0.12601763  0.04539204  0.36077194  1.0
  Ni  Ni379  1  0.12601763  0.37872537  0.36077194  1.0
  Ni  Ni380  1  0.12601762  0.71205871  0.36077194  1.0
  Ni  Ni381  1  0.45935096  0.04539204  0.36077194  1.0
  Ni  Ni382  1  0.45935096  0.37872537  0.36077194  1.0
  Ni  Ni383  1  0.45935096  0.71205871  0.36077194  1.0
  Ni  Ni384  1  0.79268429  0.04539204  0.36077194  1.0
  Ni  Ni385  1  0.79268429  0.37872537  0.36077194  1.0
  Ni  Ni386  1  0.79268429  0.71205871  0.36077194  1.0
  Ni  Ni387  1  0.26887477  0.14063014  0.39648622  1.0
  Ni  Ni388  1  0.26887477  0.47396347  0.39648622  1.0
  Ni  Ni389  1  0.26887477  0.80729680  0.39648622  1.0
  Ni  Ni390  1  0.60220810  0.14063014  0.39648622  1.0
  Ni  Ni391  1  0.60220810  0.47396347  0.39648622  1.0
  Ni  Ni392  1  0.60220810  0.80729680  0.39648622  1.0
  Ni  Ni393  1  0.93554143  0.14063014  0.39648622  1.0
  Ni  Ni394  1  0.93554143  0.47396347  0.39648622  1.0
  Ni  Ni395  1  0.93554143  0.80729680  0.39648622  1.0
  Ni  Ni396  1  0.02167829  0.06436237  0.41768419  1.0
  Ni  Ni397  1  0.02167829  0.39769571  0.41768419  1.0
  Ni  Ni398  1  0.02167829  0.73102904  0.41768419  1.0
  Ni  Ni399  1  0.35501162  0.06436237  0.41768419  1.0
  Ni  Ni400  1  0.35501162  0.39769571  0.41768419  1.0
  Ni  Ni401  1  0.35501162  0.73102904  0.41768419  1.0
  Ni  Ni402  1  0.68834496  0.06436237  0.41768419  1.0
  Ni  Ni403  1  0.68834496  0.39769571  0.41768419  1.0
  Ni  Ni404  1  0.68834496  0.73102904  0.41768419  1.0
  Ni  Ni405  1  0.21215448  0.30245761  0.38196990  1.0
  Ni  Ni406  1  0.21215448  0.63579095  0.38196990  1.0
  Ni  Ni407  1  0.21215448  0.96912428  0.38196990  1.0
  Ni  Ni408  1  0.54548782  0.30245761  0.38196990  1.0
  Ni  Ni409  1  0.54548782  0.63579095  0.38196990  1.0
  Ni  Ni410  1  0.54548782  0.96912428  0.38196990  1.0
  Ni  Ni411  1  0.87882115  0.30245761  0.38196990  1.0
  Ni  Ni412  1  0.87882115  0.63579095  0.38196990  1.0
  Ni  Ni413  1  0.87882115  0.96912428  0.38196990  1.0
  Ni  Ni414  1  0.32617101  0.31184718  0.41064237  1.0
  Ni  Ni415  1  0.32617101  0.64518052  0.41064237  1.0
  Ni  Ni416  1  0.32617101  0.97851385  0.41064237  1.0
  Ni  Ni417  1  0.65950434  0.31184718  0.41064237  1.0
  Ni  Ni418  1  0.65950434  0.64518052  0.41064237  1.0
  Ni  Ni419  1  0.65950434  0.97851385  0.41064237  1.0
  Ni  Ni420  1  0.99283767  0.31184718  0.41064237  1.0
  Ni  Ni421  1  0.99283767  0.64518052  0.41064237  1.0
  Ni  Ni422  1  0.99283767  0.97851385  0.41064237  1.0
  Ni  Ni423  1  0.18331386  0.21660909  0.37492808  1.0
  Ni  Ni424  1  0.18331386  0.54994242  0.37492808  1.0
  Ni  Ni425  1  0.18331386  0.88327576  0.37492808  1.0
  Ni  Ni426  1  0.51664720  0.21660909  0.37492808  1.0
  Ni  Ni427  1  0.51664720  0.54994242  0.37492808  1.0
  Ni  Ni428  1  0.51664720  0.88327576  0.37492808  1.0
  Ni  Ni429  1  0.84998053  0.21660909  0.37492808  1.0
  Ni  Ni430  1  0.84998053  0.54994242  0.37492808  1.0
  Ni  Ni431  1  0.84998053  0.88327576  0.37492808  1.0
  W  W432  1  0.28813367  0.19773435  0.06779949  1.0
  W  W433  1  0.28813367  0.53106768  0.06779949  1.0
  W  W434  1  0.28813367  0.86440102  0.06779949  1.0
  W  W435  1  0.62146701  0.19773435  0.06779949  1.0
  W  W436  1  0.62146701  0.53106768  0.06779949  1.0
  W  W437  1  0.62146701  0.86440102  0.06779949  1.0
  W  W438  1  0.95480034  0.19773435  0.06779949  1.0
  W  W439  1  0.95480034  0.53106768  0.06779949  1.0
  W  W440  1  0.95480034  0.86440102  0.06779949  1.0
  W  W441  1  0.14527653  0.10249626  0.03208521  1.0
  W  W442  1  0.14527653  0.43582959  0.03208521  1.0
  W  W443  1  0.14527653  0.76916292  0.03208521  1.0
  W  W444  1  0.47860986  0.10249626  0.03208521  1.0
  W  W445  1  0.47860986  0.43582959  0.03208521  1.0
  W  W446  1  0.47860986  0.76916292  0.03208521  1.0
  W  W447  1  0.81194320  0.10249626  0.03208521  1.0
  W  W448  1  0.81194320  0.43582959  0.03208521  1.0
  W  W449  1  0.81194320  0.76916292  0.03208521  1.0
  W  W450  1  0.24051462  0.05487721  0.13922806  1.0
  W  W451  1  0.24051462  0.38821054  0.13922806  1.0
  W  W452  1  0.24051463  0.72154387  0.13922806  1.0
  W  W453  1  0.57384796  0.05487721  0.13922806  1.0
  W  W454  1  0.57384796  0.38821054  0.13922806  1.0
  W  W455  1  0.57384796  0.72154387  0.13922806  1.0
  W  W456  1  0.90718129  0.05487721  0.13922806  1.0
  W  W457  1  0.90718129  0.38821054  0.13922806  1.0
  W  W458  1  0.90718129  0.72154387  0.13922806  1.0
  W  W459  1  0.09765748  0.29297245  0.10351378  1.0
  W  W460  1  0.09765748  0.62630578  0.10351378  1.0
  W  W461  1  0.09765748  0.95963911  0.10351378  1.0
  W  W462  1  0.43099082  0.29297245  0.10351378  1.0
  W  W463  1  0.43099082  0.62630578  0.10351378  1.0
  W  W464  1  0.43099082  0.95963911  0.10351378  1.0
  W  W465  1  0.76432415  0.29297245  0.10351378  1.0
  W  W466  1  0.76432415  0.62630578  0.10351378  1.0
  W  W467  1  0.76432415  0.95963911  0.10351378  1.0
  W  W468  1  0.19289558  0.24535340  0.21065663  1.0
  W  W469  1  0.19289558  0.57868673  0.21065663  1.0
  W  W470  1  0.19289558  0.91202007  0.21065663  1.0
  W  W471  1  0.52622891  0.24535340  0.21065663  1.0
  W  W472  1  0.52622891  0.57868673  0.21065663  1.0
  W  W473  1  0.52622891  0.91202007  0.21065663  1.0
  W  W474  1  0.85956224  0.24535340  0.21065663  1.0
  W  W475  1  0.85956224  0.57868673  0.21065663  1.0
  W  W476  1  0.85956224  0.91202007  0.21065663  1.0
  W  W477  1  0.05003843  0.15011530  0.17494235  1.0
  W  W478  1  0.05003843  0.48344864  0.17494235  1.0
  W  W479  1  0.05003843  0.81678197  0.17494235  1.0
  W  W480  1  0.38337177  0.15011530  0.17494235  1.0
  W  W481  1  0.38337177  0.48344864  0.17494235  1.0
  W  W482  1  0.38337177  0.81678197  0.17494235  1.0
  W  W483  1  0.71670510  0.15011530  0.17494235  1.0
  W  W484  1  0.71670510  0.48344864  0.17494235  1.0
  W  W485  1  0.71670510  0.81678197  0.17494235  1.0
  W  W486  1  0.14527653  0.10249626  0.28208521  1.0
  W  W487  1  0.14527653  0.43582959  0.28208521  1.0
  W  W488  1  0.14527653  0.76916292  0.28208521  1.0
  W  W489  1  0.47860986  0.10249626  0.28208521  1.0
  W  W490  1  0.47860986  0.43582959  0.28208521  1.0
  W  W491  1  0.47860986  0.76916292  0.28208521  1.0
  W  W492  1  0.81194320  0.10249626  0.28208521  1.0
  W  W493  1  0.81194320  0.43582959  0.28208521  1.0
  W  W494  1  0.81194320  0.76916292  0.28208521  1.0
  W  W495  1  0.00241939  0.00725816  0.24637092  1.0
  W  W496  1  0.00241939  0.34059149  0.24637092  1.0
  W  W497  1  0.00241939  0.67392483  0.24637092  1.0
  W  W498  1  0.33575272  0.00725816  0.24637092  1.0
  W  W499  1  0.33575272  0.34059149  0.24637092  1.0
  W  W500  1  0.33575272  0.67392483  0.24637092  1.0
  W  W501  1  0.66908605  0.00725816  0.24637092  1.0
  W  W502  1  0.66908605  0.34059149  0.24637092  1.0
  W  W503  1  0.66908605  0.67392483  0.24637092  1.0
  W  W504  1  0.09765748  0.29297245  0.35351378  1.0
  W  W505  1  0.09765748  0.62630578  0.35351378  1.0
  W  W506  1  0.09765748  0.95963911  0.35351378  1.0
  W  W507  1  0.43099082  0.29297245  0.35351378  1.0
  W  W508  1  0.43099082  0.62630578  0.35351378  1.0
  W  W509  1  0.43099082  0.95963911  0.35351378  1.0
  W  W510  1  0.76432415  0.29297245  0.35351378  1.0
  W  W511  1  0.76432415  0.62630578  0.35351378  1.0
  W  W512  1  0.76432415  0.95963911  0.35351378  1.0
  W  W513  1  0.28813367  0.19773435  0.31779949  1.0
  W  W514  1  0.28813367  0.53106768  0.31779949  1.0
  W  W515  1  0.28813367  0.86440102  0.31779949  1.0
  W  W516  1  0.62146701  0.19773435  0.31779949  1.0
  W  W517  1  0.62146701  0.53106768  0.31779949  1.0
  W  W518  1  0.62146701  0.86440102  0.31779949  1.0
  W  W519  1  0.95480034  0.19773435  0.31779949  1.0
  W  W520  1  0.95480034  0.53106768  0.31779949  1.0
  W  W521  1  0.95480034  0.86440102  0.31779949  1.0
  W  W522  1  0.05003843  0.15011530  0.42494235  1.0
  W  W523  1  0.05003843  0.48344864  0.42494235  1.0
  W  W524  1  0.05003843  0.81678197  0.42494235  1.0
  W  W525  1  0.38337177  0.15011530  0.42494235  1.0
  W  W526  1  0.38337177  0.48344864  0.42494235  1.0
  W  W527  1  0.38337177  0.81678197  0.42494235  1.0
  W  W528  1  0.71670510  0.15011530  0.42494235  1.0
  W  W529  1  0.71670510  0.48344864  0.42494235  1.0
  W  W530  1  0.71670510  0.81678197  0.42494235  1.0
  W  W531  1  0.24051463  0.05487721  0.38922806  1.0
  W  W532  1  0.24051462  0.38821054  0.38922806  1.0
  W  W533  1  0.24051463  0.72154387  0.38922806  1.0
  W  W534  1  0.57384796  0.05487721  0.38922806  1.0
  W  W535  1  0.57384796  0.38821054  0.38922806  1.0
  W  W536  1  0.57384796  0.72154387  0.38922806  1.0
  W  W537  1  0.90718129  0.05487721  0.38922806  1.0
  W  W538  1  0.90718129  0.38821054  0.38922806  1.0
  W  W539  1  0.90718129  0.72154387  0.38922806  1.0
