# generated using pymatgen
data_Ni4W
_symmetry_space_group_name_H-M   'P 1'
_cell_length_a   17.21112598
_cell_length_b   20.09151631
_cell_length_c   26.99148878
_cell_angle_alpha   93.13740047
_cell_angle_beta   90.00000000
_cell_angle_gamma   115.36087896
_symmetry_Int_Tables_number   1
_chemical_formula_structural   Ni4W
_chemical_formula_sum   'Ni216 W54'
_cell_volume   8418.61094580
_cell_formula_units_Z   54
loop_
 _symmetry_equiv_pos_site_id
 _symmetry_equiv_pos_as_xyz
  1  'x, y, z'
loop_
 _atom_site_type_symbol
 _atom_site_label
 _atom_site_symmetry_multiplicity
 _atom_site_fract_x
 _atom_site_fract_y
 _atom_site_fract_z
 _atom_site_occupancy
  Ni  Ni0  1  0.14185123  0.09993258  0.99371208  1.0
  Ni  Ni1  1  0.14185123  0.43326592  0.99371208  1.0
  Ni  Ni2  1  0.14185123  0.76659925  0.99371208  1.0
  Ni  Ni3  1  0.47518456  0.09993258  0.99371208  1.0
  Ni  Ni4  1  0.47518456  0.43326592  0.99371208  1.0
  Ni  Ni5  1  0.47518456  0.76659925  0.99371208  1.0
  Ni  Ni6  1  0.80851790  0.09993258  0.99371208  1.0
  Ni  Ni7  1  0.80851790  0.43326592  0.99371208  1.0
  Ni  Ni8  1  0.80851790  0.76659925  0.99371208  1.0
  Ni  Ni9  1  0.22518456  0.26659925  0.93121208  1.0
  Ni  Ni10  1  0.22518456  0.59993258  0.93121208  1.0
  Ni  Ni11  1  0.22518456  0.93326592  0.93121208  1.0
  Ni  Ni12  1  0.55851790  0.26659925  0.93121208  1.0
  Ni  Ni13  1  0.55851790  0.59993258  0.93121208  1.0
  Ni  Ni14  1  0.55851790  0.93326592  0.93121208  1.0
  Ni  Ni15  1  0.89185123  0.26659925  0.93121208  1.0
  Ni  Ni16  1  0.89185123  0.59993258  0.93121208  1.0
  Ni  Ni17  1  0.89185123  0.93326592  0.93121208  1.0
  Ni  Ni18  1  0.19181815  0.13346775  0.90643914  1.0
  Ni  Ni19  1  0.19181815  0.46680108  0.90643914  1.0
  Ni  Ni20  1  0.19181815  0.80013442  0.90643914  1.0
  Ni  Ni21  1  0.52515148  0.13346775  0.90643914  1.0
  Ni  Ni22  1  0.52515148  0.46680108  0.90643914  1.0
  Ni  Ni23  1  0.52515148  0.80013442  0.90643914  1.0
  Ni  Ni24  1  0.85848481  0.13346775  0.90643914  1.0
  Ni  Ni25  1  0.85848481  0.46680108  0.90643914  1.0
  Ni  Ni26  1  0.85848481  0.80013442  0.90643914  1.0
  Ni  Ni27  1  0.10848481  0.30013442  0.96893914  1.0
  Ni  Ni28  1  0.10848481  0.63346775  0.96893914  1.0
  Ni  Ni29  1  0.10848481  0.96680108  0.96893914  1.0
  Ni  Ni30  1  0.44181815  0.30013442  0.96893914  1.0
  Ni  Ni31  1  0.44181815  0.63346775  0.96893914  1.0
  Ni  Ni32  1  0.44181815  0.96680108  0.96893914  1.0
  Ni  Ni33  1  0.77515148  0.30013442  0.96893914  1.0
  Ni  Ni34  1  0.77515148  0.63346775  0.96893914  1.0
  Ni  Ni35  1  0.77515148  0.96680108  0.96893914  1.0
  Ni  Ni36  1  0.29141406  0.19986558  0.98113670  1.0
  Ni  Ni37  1  0.29141406  0.53319892  0.98113670  1.0
  Ni  Ni38  1  0.29141406  0.86653225  0.98113670  1.0
  Ni  Ni39  1  0.62474740  0.19986558  0.98113670  1.0
  Ni  Ni40  1  0.62474740  0.53319892  0.98113670  1.0
  Ni  Ni41  1  0.62474740  0.86653225  0.98113670  1.0
  Ni  Ni42  1  0.95808073  0.19986558  0.98113670  1.0
  Ni  Ni43  1  0.95808073  0.53319892  0.98113670  1.0
  Ni  Ni44  1  0.95808073  0.86653225  0.98113670  1.0
  Ni  Ni45  1  0.04141406  0.03319892  0.91863670  1.0
  Ni  Ni46  1  0.04141406  0.36653225  0.91863670  1.0
  Ni  Ni47  1  0.04141406  0.69986558  0.91863670  1.0
  Ni  Ni48  1  0.37474740  0.03319892  0.91863670  1.0
  Ni  Ni49  1  0.37474740  0.36653225  0.91863670  1.0
  Ni  Ni50  1  0.37474740  0.69986558  0.91863670  1.0
  Ni  Ni51  1  0.70808073  0.03319892  0.91863670  1.0
  Ni  Ni52  1  0.70808073  0.36653225  0.91863670  1.0
  Ni  Ni53  1  0.70808073  0.69986558  0.91863670  1.0
  Ni  Ni54  1  0.00804765  0.23340075  0.89386377  1.0
  Ni  Ni55  1  0.00804765  0.56673408  0.89386377  1.0
  Ni  Ni56  1  0.00804765  0.90006742  0.89386377  1.0
  Ni  Ni57  1  0.34138098  0.23340075  0.89386377  1.0
  Ni  Ni58  1  0.34138098  0.56673408  0.89386377  1.0
  Ni  Ni59  1  0.34138098  0.90006742  0.89386377  1.0
  Ni  Ni60  1  0.67471431  0.23340075  0.89386377  1.0
  Ni  Ni61  1  0.67471431  0.56673408  0.89386377  1.0
  Ni  Ni62  1  0.67471431  0.90006742  0.89386377  1.0
  Ni  Ni63  1  0.25804765  0.06673408  0.95636377  1.0
  Ni  Ni64  1  0.25804765  0.40006742  0.95636377  1.0
  Ni  Ni65  1  0.25804765  0.73340075  0.95636377  1.0
  Ni  Ni66  1  0.59138098  0.06673408  0.95636377  1.0
  Ni  Ni67  1  0.59138098  0.40006742  0.95636377  1.0
  Ni  Ni68  1  0.59138098  0.73340075  0.95636377  1.0
  Ni  Ni69  1  0.92471431  0.06673408  0.95636377  1.0
  Ni  Ni70  1  0.92471431  0.40006742  0.95636377  1.0
  Ni  Ni71  1  0.92471431  0.73340075  0.95636377  1.0
  Ni  Ni72  1  0.30851790  0.09993258  0.86871208  1.0
  Ni  Ni73  1  0.30851790  0.43326592  0.86871208  1.0
  Ni  Ni74  1  0.30851790  0.76659925  0.86871208  1.0
  Ni  Ni75  1  0.64185123  0.09993258  0.86871208  1.0
  Ni  Ni76  1  0.64185123  0.43326592  0.86871208  1.0
  Ni  Ni77  1  0.64185123  0.76659925  0.86871208  1.0
  Ni  Ni78  1  0.97518456  0.09993258  0.86871208  1.0
  Ni  Ni79  1  0.97518456  0.43326592  0.86871208  1.0
  Ni  Ni80  1  0.97518456  0.76659925  0.86871208  1.0
  Ni  Ni81  1  0.05851790  0.26659925  0.80621208  1.0
  Ni  Ni82  1  0.05851790  0.59993258  0.80621208  1.0
  Ni  Ni83  1  0.05851790  0.93326592  0.80621208  1.0
  Ni  Ni84  1  0.39185123  0.26659925  0.80621208  1.0
  Ni  Ni85  1  0.39185123  0.59993258  0.80621208  1.0
  Ni  Ni86  1  0.39185123  0.93326592  0.80621208  1.0
  Ni  Ni87  1  0.72518456  0.26659925  0.80621208  1.0
  Ni  Ni88  1  0.72518456  0.59993258  0.80621208  1.0
  Ni  Ni89  1  0.72518456  0.93326592  0.80621208  1.0
  Ni  Ni90  1  0.02515148  0.13346775  0.78143914  1.0
  Ni  Ni91  1  0.02515148  0.46680108  0.78143914  1.0
  Ni  Ni92  1  0.02515148  0.80013442  0.78143914  1.0
  Ni  Ni93  1  0.35848481  0.13346775  0.78143914  1.0
  Ni  Ni94  1  0.35848481  0.46680108  0.78143914  1.0
  Ni  Ni95  1  0.35848481  0.80013442  0.78143914  1.0
  Ni  Ni96  1  0.69181815  0.13346775  0.78143914  1.0
  Ni  Ni97  1  0.69181815  0.46680108  0.78143914  1.0
  Ni  Ni98  1  0.69181815  0.80013442  0.78143914  1.0
  Ni  Ni99  1  0.27515148  0.30013442  0.84393914  1.0
  Ni  Ni100  1  0.27515148  0.63346775  0.84393914  1.0
  Ni  Ni101  1  0.27515148  0.96680108  0.84393914  1.0
  Ni  Ni102  1  0.60848481  0.30013442  0.84393914  1.0
  Ni  Ni103  1  0.60848481  0.63346775  0.84393914  1.0
  Ni  Ni104  1  0.60848481  0.96680108  0.84393914  1.0
  Ni  Ni105  1  0.94181815  0.30013442  0.84393914  1.0
  Ni  Ni106  1  0.94181815  0.63346775  0.84393914  1.0
  Ni  Ni107  1  0.94181815  0.96680108  0.84393914  1.0
  Ni  Ni108  1  0.12474740  0.19986558  0.85613670  1.0
  Ni  Ni109  1  0.12474740  0.53319892  0.85613670  1.0
  Ni  Ni110  1  0.12474740  0.86653225  0.85613670  1.0
  Ni  Ni111  1  0.45808073  0.19986558  0.85613670  1.0
  Ni  Ni112  1  0.45808073  0.53319892  0.85613670  1.0
  Ni  Ni113  1  0.45808073  0.86653225  0.85613670  1.0
  Ni  Ni114  1  0.79141406  0.19986558  0.85613670  1.0
  Ni  Ni115  1  0.79141406  0.53319892  0.85613670  1.0
  Ni  Ni116  1  0.79141406  0.86653225  0.85613670  1.0
  Ni  Ni117  1  0.20808073  0.03319892  0.79363670  1.0
  Ni  Ni118  1  0.20808073  0.36653225  0.79363670  1.0
  Ni  Ni119  1  0.20808073  0.69986558  0.79363670  1.0
  Ni  Ni120  1  0.54141406  0.03319892  0.79363670  1.0
  Ni  Ni121  1  0.54141406  0.36653225  0.79363670  1.0
  Ni  Ni122  1  0.54141406  0.69986558  0.79363670  1.0
  Ni  Ni123  1  0.87474740  0.03319892  0.79363670  1.0
  Ni  Ni124  1  0.87474740  0.36653225  0.79363670  1.0
  Ni  Ni125  1  0.87474740  0.69986558  0.79363670  1.0
  Ni  Ni126  1  0.17471431  0.23340075  0.76886377  1.0
  Ni  Ni127  1  0.17471431  0.56673408  0.76886377  1.0
  Ni  Ni128  1  0.17471431  0.90006742  0.76886377  1.0
  Ni  Ni129  1  0.50804765  0.23340075  0.76886377  1.0
  Ni  Ni130  1  0.50804765  0.56673408  0.76886377  1.0
  Ni  Ni131  1  0.50804765  0.90006742  0.76886377  1.0
  Ni  Ni132  1  0.84138098  0.23340075  0.76886377  1.0
  Ni  Ni133  1  0.84138098  0.56673408  0.76886377  1.0
  Ni  Ni134  1  0.84138098  0.90006742  0.76886377  1.0
  Ni  Ni135  1  0.09138098  0.06673408  0.83136377  1.0
  Ni  Ni136  1  0.09138098  0.40006742  0.83136377  1.0
  Ni  Ni137  1  0.09138098  0.73340075  0.83136377  1.0
  Ni  Ni138  1  0.42471431  0.06673408  0.83136377  1.0
  Ni  Ni139  1  0.42471431  0.40006742  0.83136377  1.0
  Ni  Ni140  1  0.42471431  0.73340075  0.83136377  1.0
  Ni  Ni141  1  0.75804765  0.06673408  0.83136377  1.0
  Ni  Ni142  1  0.75804765  0.40006742  0.83136377  1.0
  Ni  Ni143  1  0.75804765  0.73340075  0.83136377  1.0
  Ni  Ni144  1  0.14185123  0.09993258  0.74371208  1.0
  Ni  Ni145  1  0.14185123  0.43326592  0.74371208  1.0
  Ni  Ni146  1  0.14185123  0.76659925  0.74371208  1.0
  Ni  Ni147  1  0.47518456  0.09993258  0.74371208  1.0
  Ni  Ni148  1  0.47518456  0.43326592  0.74371208  1.0
  Ni  Ni149  1  0.47518456  0.76659925  0.74371208  1.0
  Ni  Ni150  1  0.80851790  0.09993258  0.74371208  1.0
  Ni  Ni151  1  0.80851790  0.43326592  0.74371208  1.0
  Ni  Ni152  1  0.80851790  0.76659925  0.74371208  1.0
  Ni  Ni153  1  0.22518456  0.26659925  0.68121208  1.0
  Ni  Ni154  1  0.22518456  0.59993258  0.68121208  1.0
  Ni  Ni155  1  0.22518456  0.93326592  0.68121208  1.0
  Ni  Ni156  1  0.55851790  0.26659925  0.68121208  1.0
  Ni  Ni157  1  0.55851790  0.59993258  0.68121208  1.0
  Ni  Ni158  1  0.55851790  0.93326592  0.68121208  1.0
  Ni  Ni159  1  0.89185123  0.26659925  0.68121208  1.0
  Ni  Ni160  1  0.89185123  0.59993258  0.68121208  1.0
  Ni  Ni161  1  0.89185123  0.93326592  0.68121208  1.0
  Ni  Ni162  1  0.19181815  0.13346775  0.65643914  1.0
  Ni  Ni163  1  0.19181815  0.46680108  0.65643914  1.0
  Ni  Ni164  1  0.19181815  0.80013442  0.65643914  1.0
  Ni  Ni165  1  0.52515148  0.13346775  0.65643914  1.0
  Ni  Ni166  1  0.52515148  0.46680108  0.65643914  1.0
  Ni  Ni167  1  0.52515148  0.80013442  0.65643914  1.0
  Ni  Ni168  1  0.85848481  0.13346775  0.65643914  1.0
  Ni  Ni169  1  0.85848481  0.46680108  0.65643914  1.0
  Ni  Ni170  1  0.85848481  0.80013442  0.65643914  1.0
  Ni  Ni171  1  0.10848481  0.30013442  0.71893914  1.0
  Ni  Ni172  1  0.10848481  0.63346775  0.71893914  1.0
  Ni  Ni173  1  0.10848481  0.96680108  0.71893914  1.0
  Ni  Ni174  1  0.44181815  0.30013442  0.71893914  1.0
  Ni  Ni175  1  0.44181815  0.63346775  0.71893914  1.0
  Ni  Ni176  1  0.44181815  0.96680108  0.71893914  1.0
  Ni  Ni177  1  0.77515148  0.30013442  0.71893914  1.0
  Ni  Ni178  1  0.77515148  0.63346775  0.71893914  1.0
  Ni  Ni179  1  0.77515148  0.96680108  0.71893914  1.0
  Ni  Ni180  1  0.29141406  0.19986558  0.73113670  1.0
  Ni  Ni181  1  0.29141406  0.53319892  0.73113670  1.0
  Ni  Ni182  1  0.29141406  0.86653225  0.73113670  1.0
  Ni  Ni183  1  0.62474740  0.19986558  0.73113670  1.0
  Ni  Ni184  1  0.62474740  0.53319892  0.73113670  1.0
  Ni  Ni185  1  0.62474740  0.86653225  0.73113670  1.0
  Ni  Ni186  1  0.95808073  0.19986558  0.73113670  1.0
  Ni  Ni187  1  0.95808073  0.53319892  0.73113670  1.0
  Ni  Ni188  1  0.95808073  0.86653225  0.73113670  1.0
  Ni  Ni189  1  0.04141406  0.03319892  0.66863670  1.0
  Ni  Ni190  1  0.04141406  0.36653225  0.66863670  1.0
  Ni  Ni191  1  0.04141406  0.69986558  0.66863670  1.0
  Ni  Ni192  1  0.37474740  0.03319892  0.66863670  1.0
  Ni  Ni193  1  0.37474740  0.36653225  0.66863670  1.0
  Ni  Ni194  1  0.37474740  0.69986558  0.66863670  1.0
  Ni  Ni195  1  0.70808073  0.03319892  0.66863670  1.0
  Ni  Ni196  1  0.70808073  0.36653225  0.66863670  1.0
  Ni  Ni197  1  0.70808073  0.69986558  0.66863670  1.0
  Ni  Ni198  1  0.00804765  0.23340075  0.64386377  1.0
  Ni  Ni199  1  0.00804765  0.56673408  0.64386377  1.0
  Ni  Ni200  1  0.00804765  0.90006742  0.64386377  1.0
  Ni  Ni201  1  0.34138098  0.23340075  0.64386377  1.0
  Ni  Ni202  1  0.34138098  0.56673408  0.64386377  1.0
  Ni  Ni203  1  0.34138098  0.90006742  0.64386377  1.0
  Ni  Ni204  1  0.67471431  0.23340075  0.64386377  1.0
  Ni  Ni205  1  0.67471431  0.56673408  0.64386377  1.0
  Ni  Ni206  1  0.67471431  0.90006742  0.64386377  1.0
  Ni  Ni207  1  0.25804765  0.06673408  0.70636377  1.0
  Ni  Ni208  1  0.25804765  0.40006742  0.70636377  1.0
  Ni  Ni209  1  0.25804765  0.73340075  0.70636377  1.0
  Ni  Ni210  1  0.59138098  0.06673408  0.70636377  1.0
  Ni  Ni211  1  0.59138098  0.40006742  0.70636377  1.0
  Ni  Ni212  1  0.59138098  0.73340075  0.70636377  1.0
  Ni  Ni213  1  0.92471431  0.06673408  0.70636377  1.0
  Ni  Ni214  1  0.92471431  0.40006742  0.70636377  1.0
  Ni  Ni215  1  0.92471431  0.73340075  0.70636377  1.0
  W  W216  1  0.07494944  0.16666667  0.94378792  1.0
  W  W217  1  0.07494944  0.50000000  0.94378792  1.0
  W  W218  1  0.07494944  0.83333333  0.94378792  1.0
  W  W219  1  0.40828277  0.16666667  0.94378792  1.0
  W  W220  1  0.40828277  0.50000000  0.94378792  1.0
  W  W221  1  0.40828277  0.83333333  0.94378792  1.0
  W  W222  1  0.74161610  0.16666667  0.94378792  1.0
  W  W223  1  0.74161610  0.50000000  0.94378792  1.0
  W  W224  1  0.74161610  0.83333333  0.94378792  1.0
  W  W225  1  0.15828277  0.00000000  0.88128792  1.0
  W  W226  1  0.15828277  0.33333333  0.88128792  1.0
  W  W227  1  0.15828277  0.66666667  0.88128792  1.0
  W  W228  1  0.49161610  0.00000000  0.88128792  1.0
  W  W229  1  0.49161610  0.33333333  0.88128792  1.0
  W  W230  1  0.49161610  0.66666667  0.88128792  1.0
  W  W231  1  0.82494944  0.00000000  0.88128792  1.0
  W  W232  1  0.82494944  0.33333333  0.88128792  1.0
  W  W233  1  0.82494944  0.66666667  0.88128792  1.0
  W  W234  1  0.24161610  0.16666667  0.81878792  1.0
  W  W235  1  0.24161610  0.50000000  0.81878792  1.0
  W  W236  1  0.24161610  0.83333333  0.81878792  1.0
  W  W237  1  0.57494944  0.16666667  0.81878792  1.0
  W  W238  1  0.57494944  0.50000000  0.81878792  1.0
  W  W239  1  0.57494944  0.83333333  0.81878792  1.0
  W  W240  1  0.90828277  0.16666667  0.81878792  1.0
  W  W241  1  0.90828277  0.50000000  0.81878792  1.0
  W  W242  1  0.90828277  0.83333333  0.81878792  1.0
  W  W243  1  0.32494944  0.00000000  0.75628792  1.0
  W  W244  1  0.32494944  0.33333333  0.75628792  1.0
  W  W245  1  0.32494944  0.66666667  0.75628792  1.0
  W  W246  1  0.65828277  0.00000000  0.75628792  1.0
  W  W247  1  0.65828277  0.33333333  0.75628792  1.0
  W  W248  1  0.65828277  0.66666667  0.75628792  1.0
  W  W249  1  0.99161610  0.00000000  0.75628792  1.0
  W  W250  1  0.99161610  0.33333333  0.75628792  1.0
  W  W251  1  0.99161610  0.66666667  0.75628792  1.0
  W  W252  1  0.07494944  0.16666667  0.69378792  1.0
  W  W253  1  0.07494944  0.50000000  0.69378792  1.0
  W  W254  1  0.07494944  0.83333333  0.69378792  1.0
  W  W255  1  0.40828277  0.16666667  0.69378792  1.0
  W  W256  1  0.40828277  0.50000000  0.69378792  1.0
  W  W257  1  0.40828277  0.83333333  0.69378792  1.0
  W  W258  1  0.74161610  0.16666667  0.69378792  1.0
  W  W259  1  0.74161610  0.50000000  0.69378792  1.0
  W  W260  1  0.74161610  0.83333333  0.69378792  1.0
  W  W261  1  0.15828277  0.00000000  0.63128792  1.0
  W  W262  1  0.15828277  0.33333333  0.63128792  1.0
  W  W263  1  0.15828277  0.66666667  0.63128792  1.0
  W  W264  1  0.49161610  0.00000000  0.63128792  1.0
  W  W265  1  0.49161610  0.33333333  0.63128792  1.0
  W  W266  1  0.49161610  0.66666667  0.63128792  1.0
  W  W267  1  0.82494944  0.00000000  0.63128792  1.0
  W  W268  1  0.82494944  0.33333333  0.63128792  1.0
  W  W269  1  0.82494944  0.66666667  0.63128792  1.0
