# generated using pymatgen
data_Ni4W
_symmetry_space_group_name_H-M   'P 1'
_cell_length_a   24.34020779
_cell_length_b   31.56128550
_cell_length_c   79.71349842
_cell_angle_alpha   81.36905845
_cell_angle_beta   23.64637727
_cell_angle_gamma   67.31886389
_symmetry_Int_Tables_number   1
_chemical_formula_structural   Ni4W
_chemical_formula_sum   'Ni504 W126'
_cell_volume   18941.87462805
_cell_formula_units_Z   126
loop_
 _symmetry_equiv_pos_site_id
 _symmetry_equiv_pos_as_xyz
  1  'x, y, z'
loop_
 _atom_site_type_symbol
 _atom_site_label
 _atom_site_symmetry_multiplicity
 _atom_site_fract_x
 _atom_site_fract_y
 _atom_site_fract_z
 _atom_site_occupancy
  Ni  Ni0  1  0.23340117  0.23340033  0.00279453  1.0
  Ni  Ni1  1  0.23340117  0.56673367  0.00279453  1.0
  Ni  Ni2  1  0.23340117  0.90006700  0.00279453  1.0
  Ni  Ni3  1  0.56673450  0.23340033  0.00279453  1.0
  Ni  Ni4  1  0.56673450  0.56673367  0.00279453  1.0
  Ni  Ni5  1  0.56673450  0.90006700  0.00279453  1.0
  Ni  Ni6  1  0.90006783  0.23340033  0.00279453  1.0
  Ni  Ni7  1  0.90006783  0.56673367  0.00279453  1.0
  Ni  Ni8  1  0.90006783  0.90006700  0.00279453  1.0
  Ni  Ni9  1  0.06673450  0.06673367  0.03057231  1.0
  Ni  Ni10  1  0.06673450  0.40006700  0.03057231  1.0
  Ni  Ni11  1  0.06673450  0.73340033  0.03057231  1.0
  Ni  Ni12  1  0.40006783  0.06673367  0.03057231  1.0
  Ni  Ni13  1  0.40006783  0.40006700  0.03057231  1.0
  Ni  Ni14  1  0.40006783  0.73340033  0.03057231  1.0
  Ni  Ni15  1  0.73340117  0.06673367  0.03057231  1.0
  Ni  Ni16  1  0.73340117  0.40006700  0.03057231  1.0
  Ni  Ni17  1  0.73340117  0.73340033  0.03057231  1.0
  Ni  Ni18  1  0.19952933  0.20020183  0.04175083  1.0
  Ni  Ni19  1  0.19952933  0.53353517  0.04175083  1.0
  Ni  Ni20  1  0.19952933  0.86686850  0.04175083  1.0
  Ni  Ni21  1  0.53286267  0.20020183  0.04175083  1.0
  Ni  Ni22  1  0.53286267  0.53353517  0.04175083  1.0
  Ni  Ni23  1  0.53286267  0.86686850  0.04175083  1.0
  Ni  Ni24  1  0.86619600  0.20020183  0.04175083  1.0
  Ni  Ni25  1  0.86619600  0.53353517  0.04175083  1.0
  Ni  Ni26  1  0.86619600  0.86686850  0.04175083  1.0
  Ni  Ni27  1  0.03286267  0.03353517  0.01397306  1.0
  Ni  Ni28  1  0.03286267  0.36686850  0.01397306  1.0
  Ni  Ni29  1  0.03286267  0.70020183  0.01397306  1.0
  Ni  Ni30  1  0.36619600  0.03353517  0.01397306  1.0
  Ni  Ni31  1  0.36619600  0.36686850  0.01397306  1.0
  Ni  Ni32  1  0.36619600  0.70020183  0.01397306  1.0
  Ni  Ni33  1  0.69952933  0.03353517  0.01397306  1.0
  Ni  Ni34  1  0.69952933  0.36686850  0.01397306  1.0
  Ni  Ni35  1  0.69952933  0.70020183  0.01397306  1.0
  Ni  Ni36  1  0.30047067  0.29979817  0.03599344  1.0
  Ni  Ni37  1  0.30047067  0.63313150  0.03599344  1.0
  Ni  Ni38  1  0.30047067  0.96646483  0.03599344  1.0
  Ni  Ni39  1  0.63380400  0.29979817  0.03599344  1.0
  Ni  Ni40  1  0.63380400  0.63313150  0.03599344  1.0
  Ni  Ni41  1  0.63380400  0.96646483  0.03599344  1.0
  Ni  Ni42  1  0.96713733  0.29979817  0.03599344  1.0
  Ni  Ni43  1  0.96713733  0.63313150  0.03599344  1.0
  Ni  Ni44  1  0.96713733  0.96646483  0.03599344  1.0
  Ni  Ni45  1  0.13380400  0.13313150  0.00821567  1.0
  Ni  Ni46  1  0.13380400  0.46646483  0.00821567  1.0
  Ni  Ni47  1  0.13380400  0.79979817  0.00821567  1.0
  Ni  Ni48  1  0.46713733  0.13313150  0.00821567  1.0
  Ni  Ni49  1  0.46713733  0.46646483  0.00821567  1.0
  Ni  Ni50  1  0.46713733  0.79979817  0.00821567  1.0
  Ni  Ni51  1  0.80047067  0.13313150  0.00821567  1.0
  Ni  Ni52  1  0.80047067  0.46646483  0.00821567  1.0
  Ni  Ni53  1  0.80047067  0.79979817  0.00821567  1.0
  Ni  Ni54  1  0.26659883  0.26659967  0.01939419  1.0
  Ni  Ni55  1  0.26659883  0.59993300  0.01939419  1.0
  Ni  Ni56  1  0.26659883  0.93326633  0.01939419  1.0
  Ni  Ni57  1  0.59993217  0.26659967  0.01939419  1.0
  Ni  Ni58  1  0.59993217  0.59993300  0.01939419  1.0
  Ni  Ni59  1  0.59993217  0.93326633  0.01939419  1.0
  Ni  Ni60  1  0.93326550  0.26659967  0.01939419  1.0
  Ni  Ni61  1  0.93326550  0.59993300  0.01939419  1.0
  Ni  Ni62  1  0.93326550  0.93326633  0.01939419  1.0
  Ni  Ni63  1  0.09993217  0.09993300  0.04717197  1.0
  Ni  Ni64  1  0.09993217  0.43326633  0.04717197  1.0
  Ni  Ni65  1  0.09993217  0.76659967  0.04717197  1.0
  Ni  Ni66  1  0.43326550  0.09993300  0.04717197  1.0
  Ni  Ni67  1  0.43326550  0.43326633  0.04717197  1.0
  Ni  Ni68  1  0.43326550  0.76659967  0.04717197  1.0
  Ni  Ni69  1  0.76659883  0.09993300  0.04717197  1.0
  Ni  Ni70  1  0.76659883  0.43326633  0.04717197  1.0
  Ni  Ni71  1  0.76659883  0.76659967  0.04717197  1.0
  W  W72  1  0.16666667  0.16666667  0.02498325  1.0
  W  W73  1  0.16666667  0.50000000  0.02498325  1.0
  W  W74  1  0.16666667  0.83333333  0.02498325  1.0
  W  W75  1  0.50000000  0.16666667  0.02498325  1.0
  W  W76  1  0.50000000  0.50000000  0.02498325  1.0
  W  W77  1  0.50000000  0.83333333  0.02498325  1.0
  W  W78  1  0.83333333  0.16666667  0.02498325  1.0
  W  W79  1  0.83333333  0.50000000  0.02498325  1.0
  W  W80  1  0.83333333  0.83333333  0.02498325  1.0
  W  W81  1  0.00000000  0.00000000  0.05276103  1.0
  W  W82  1  0.00000000  0.33333333  0.05276103  1.0
  W  W83  1  0.00000000  0.66666667  0.05276103  1.0
  W  W84  1  0.33333333  0.00000000  0.05276103  1.0
  W  W85  1  0.33333333  0.33333333  0.05276103  1.0
  W  W86  1  0.33333333  0.66666667  0.05276103  1.0
  W  W87  1  0.66666667  0.00000000  0.05276103  1.0
  W  W88  1  0.66666667  0.33333333  0.05276103  1.0
  W  W89  1  0.66666667  0.66666667  0.05276103  1.0
  Ni  Ni90  1  0.23340117  0.23340033  0.05835008  1.0
  Ni  Ni91  1  0.23340117  0.56673367  0.05835008  1.0
  Ni  Ni92  1  0.23340117  0.90006700  0.05835008  1.0
  Ni  Ni93  1  0.56673450  0.23340033  0.05835008  1.0
  Ni  Ni94  1  0.56673450  0.56673367  0.05835008  1.0
  Ni  Ni95  1  0.56673450  0.90006700  0.05835008  1.0
  Ni  Ni96  1  0.90006783  0.23340033  0.05835008  1.0
  Ni  Ni97  1  0.90006783  0.56673367  0.05835008  1.0
  Ni  Ni98  1  0.90006783  0.90006700  0.05835008  1.0
  Ni  Ni99  1  0.06673450  0.06673367  0.08612786  1.0
  Ni  Ni100  1  0.06673450  0.40006700  0.08612786  1.0
  Ni  Ni101  1  0.06673450  0.73340033  0.08612786  1.0
  Ni  Ni102  1  0.40006783  0.06673367  0.08612786  1.0
  Ni  Ni103  1  0.40006783  0.40006700  0.08612786  1.0
  Ni  Ni104  1  0.40006783  0.73340033  0.08612786  1.0
  Ni  Ni105  1  0.73340117  0.06673367  0.08612786  1.0
  Ni  Ni106  1  0.73340117  0.40006700  0.08612786  1.0
  Ni  Ni107  1  0.73340117  0.73340033  0.08612786  1.0
  Ni  Ni108  1  0.19952933  0.20020183  0.09730639  1.0
  Ni  Ni109  1  0.19952933  0.53353517  0.09730639  1.0
  Ni  Ni110  1  0.19952933  0.86686850  0.09730639  1.0
  Ni  Ni111  1  0.53286267  0.20020183  0.09730639  1.0
  Ni  Ni112  1  0.53286267  0.53353517  0.09730639  1.0
  Ni  Ni113  1  0.53286267  0.86686850  0.09730639  1.0
  Ni  Ni114  1  0.86619600  0.20020183  0.09730639  1.0
  Ni  Ni115  1  0.86619600  0.53353517  0.09730639  1.0
  Ni  Ni116  1  0.86619600  0.86686850  0.09730639  1.0
  Ni  Ni117  1  0.03286267  0.03353517  0.06952861  1.0
  Ni  Ni118  1  0.03286267  0.36686850  0.06952861  1.0
  Ni  Ni119  1  0.03286267  0.70020183  0.06952861  1.0
  Ni  Ni120  1  0.36619600  0.03353517  0.06952861  1.0
  Ni  Ni121  1  0.36619600  0.36686850  0.06952861  1.0
  Ni  Ni122  1  0.36619600  0.70020183  0.06952861  1.0
  Ni  Ni123  1  0.69952933  0.03353517  0.06952861  1.0
  Ni  Ni124  1  0.69952933  0.36686850  0.06952861  1.0
  Ni  Ni125  1  0.69952933  0.70020183  0.06952861  1.0
  Ni  Ni126  1  0.30047067  0.29979817  0.09154900  1.0
  Ni  Ni127  1  0.30047067  0.63313150  0.09154900  1.0
  Ni  Ni128  1  0.30047067  0.96646483  0.09154900  1.0
  Ni  Ni129  1  0.63380400  0.29979817  0.09154900  1.0
  Ni  Ni130  1  0.63380400  0.63313150  0.09154900  1.0
  Ni  Ni131  1  0.63380400  0.96646483  0.09154900  1.0
  Ni  Ni132  1  0.96713733  0.29979817  0.09154900  1.0
  Ni  Ni133  1  0.96713733  0.63313150  0.09154900  1.0
  Ni  Ni134  1  0.96713733  0.96646483  0.09154900  1.0
  Ni  Ni135  1  0.13380400  0.13313150  0.06377122  1.0
  Ni  Ni136  1  0.13380400  0.46646483  0.06377122  1.0
  Ni  Ni137  1  0.13380400  0.79979817  0.06377122  1.0
  Ni  Ni138  1  0.46713733  0.13313150  0.06377122  1.0
  Ni  Ni139  1  0.46713733  0.46646483  0.06377122  1.0
  Ni  Ni140  1  0.46713733  0.79979817  0.06377122  1.0
  Ni  Ni141  1  0.80047067  0.13313150  0.06377122  1.0
  Ni  Ni142  1  0.80047067  0.46646483  0.06377122  1.0
  Ni  Ni143  1  0.80047067  0.79979817  0.06377122  1.0
  Ni  Ni144  1  0.26659883  0.26659967  0.07494975  1.0
  Ni  Ni145  1  0.26659883  0.59993300  0.07494975  1.0
  Ni  Ni146  1  0.26659883  0.93326633  0.07494975  1.0
  Ni  Ni147  1  0.59993217  0.26659967  0.07494975  1.0
  Ni  Ni148  1  0.59993217  0.59993300  0.07494975  1.0
  Ni  Ni149  1  0.59993217  0.93326633  0.07494975  1.0
  Ni  Ni150  1  0.93326550  0.26659967  0.07494975  1.0
  Ni  Ni151  1  0.93326550  0.59993300  0.07494975  1.0
  Ni  Ni152  1  0.93326550  0.93326633  0.07494975  1.0
  Ni  Ni153  1  0.09993217  0.09993300  0.10272753  1.0
  Ni  Ni154  1  0.09993217  0.43326633  0.10272753  1.0
  Ni  Ni155  1  0.09993217  0.76659967  0.10272753  1.0
  Ni  Ni156  1  0.43326550  0.09993300  0.10272753  1.0
  Ni  Ni157  1  0.43326550  0.43326633  0.10272753  1.0
  Ni  Ni158  1  0.43326550  0.76659967  0.10272753  1.0
  Ni  Ni159  1  0.76659883  0.09993300  0.10272753  1.0
  Ni  Ni160  1  0.76659883  0.43326633  0.10272753  1.0
  Ni  Ni161  1  0.76659883  0.76659967  0.10272753  1.0
  W  W162  1  0.16666667  0.16666667  0.08053881  1.0
  W  W163  1  0.16666667  0.50000000  0.08053881  1.0
  W  W164  1  0.16666667  0.83333333  0.08053881  1.0
  W  W165  1  0.50000000  0.16666667  0.08053881  1.0
  W  W166  1  0.50000000  0.50000000  0.08053881  1.0
  W  W167  1  0.50000000  0.83333333  0.08053881  1.0
  W  W168  1  0.83333333  0.16666667  0.08053881  1.0
  W  W169  1  0.83333333  0.50000000  0.08053881  1.0
  W  W170  1  0.83333333  0.83333333  0.08053881  1.0
  W  W171  1  0.00000000  0.00000000  0.10831658  1.0
  W  W172  1  0.00000000  0.33333333  0.10831658  1.0
  W  W173  1  0.00000000  0.66666667  0.10831658  1.0
  W  W174  1  0.33333333  0.00000000  0.10831658  1.0
  W  W175  1  0.33333333  0.33333333  0.10831658  1.0
  W  W176  1  0.33333333  0.66666667  0.10831658  1.0
  W  W177  1  0.66666667  0.00000000  0.10831658  1.0
  W  W178  1  0.66666667  0.33333333  0.10831658  1.0
  W  W179  1  0.66666667  0.66666667  0.10831658  1.0
  Ni  Ni180  1  0.23340117  0.23340033  0.11390564  1.0
  Ni  Ni181  1  0.23340117  0.56673367  0.11390564  1.0
  Ni  Ni182  1  0.23340117  0.90006700  0.11390564  1.0
  Ni  Ni183  1  0.56673450  0.23340033  0.11390564  1.0
  Ni  Ni184  1  0.56673450  0.56673367  0.11390564  1.0
  Ni  Ni185  1  0.56673450  0.90006700  0.11390564  1.0
  Ni  Ni186  1  0.90006783  0.23340033  0.11390564  1.0
  Ni  Ni187  1  0.90006783  0.56673367  0.11390564  1.0
  Ni  Ni188  1  0.90006783  0.90006700  0.11390564  1.0
  Ni  Ni189  1  0.06673450  0.06673367  0.14168342  1.0
  Ni  Ni190  1  0.06673450  0.40006700  0.14168342  1.0
  Ni  Ni191  1  0.06673450  0.73340033  0.14168342  1.0
  Ni  Ni192  1  0.40006783  0.06673367  0.14168342  1.0
  Ni  Ni193  1  0.40006783  0.40006700  0.14168342  1.0
  Ni  Ni194  1  0.40006783  0.73340033  0.14168342  1.0
  Ni  Ni195  1  0.73340117  0.06673367  0.14168342  1.0
  Ni  Ni196  1  0.73340117  0.40006700  0.14168342  1.0
  Ni  Ni197  1  0.73340117  0.73340033  0.14168342  1.0
  Ni  Ni198  1  0.19952933  0.20020183  0.15286194  1.0
  Ni  Ni199  1  0.19952933  0.53353517  0.15286194  1.0
  Ni  Ni200  1  0.19952933  0.86686850  0.15286194  1.0
  Ni  Ni201  1  0.53286267  0.20020183  0.15286194  1.0
  Ni  Ni202  1  0.53286267  0.53353517  0.15286194  1.0
  Ni  Ni203  1  0.53286267  0.86686850  0.15286194  1.0
  Ni  Ni204  1  0.86619600  0.20020183  0.15286194  1.0
  Ni  Ni205  1  0.86619600  0.53353517  0.15286194  1.0
  Ni  Ni206  1  0.86619600  0.86686850  0.15286194  1.0
  Ni  Ni207  1  0.03286267  0.03353517  0.12508417  1.0
  Ni  Ni208  1  0.03286267  0.36686850  0.12508417  1.0
  Ni  Ni209  1  0.03286267  0.70020183  0.12508417  1.0
  Ni  Ni210  1  0.36619600  0.03353517  0.12508417  1.0
  Ni  Ni211  1  0.36619600  0.36686850  0.12508417  1.0
  Ni  Ni212  1  0.36619600  0.70020183  0.12508417  1.0
  Ni  Ni213  1  0.69952933  0.03353517  0.12508417  1.0
  Ni  Ni214  1  0.69952933  0.36686850  0.12508417  1.0
  Ni  Ni215  1  0.69952933  0.70020183  0.12508417  1.0
  Ni  Ni216  1  0.30047067  0.29979817  0.14710456  1.0
  Ni  Ni217  1  0.30047067  0.63313150  0.14710456  1.0
  Ni  Ni218  1  0.30047067  0.96646483  0.14710456  1.0
  Ni  Ni219  1  0.63380400  0.29979817  0.14710456  1.0
  Ni  Ni220  1  0.63380400  0.63313150  0.14710456  1.0
  Ni  Ni221  1  0.63380400  0.96646483  0.14710456  1.0
  Ni  Ni222  1  0.96713733  0.29979817  0.14710456  1.0
  Ni  Ni223  1  0.96713733  0.63313150  0.14710456  1.0
  Ni  Ni224  1  0.96713733  0.96646483  0.14710456  1.0
  Ni  Ni225  1  0.13380400  0.13313150  0.11932678  1.0
  Ni  Ni226  1  0.13380400  0.46646483  0.11932678  1.0
  Ni  Ni227  1  0.13380400  0.79979817  0.11932678  1.0
  Ni  Ni228  1  0.46713733  0.13313150  0.11932678  1.0
  Ni  Ni229  1  0.46713733  0.46646483  0.11932678  1.0
  Ni  Ni230  1  0.46713733  0.79979817  0.11932678  1.0
  Ni  Ni231  1  0.80047067  0.13313150  0.11932678  1.0
  Ni  Ni232  1  0.80047067  0.46646483  0.11932678  1.0
  Ni  Ni233  1  0.80047067  0.79979817  0.11932678  1.0
  Ni  Ni234  1  0.26659883  0.26659967  0.13050531  1.0
  Ni  Ni235  1  0.26659883  0.59993300  0.13050531  1.0
  Ni  Ni236  1  0.26659883  0.93326633  0.13050531  1.0
  Ni  Ni237  1  0.59993217  0.26659967  0.13050531  1.0
  Ni  Ni238  1  0.59993217  0.59993300  0.13050531  1.0
  Ni  Ni239  1  0.59993217  0.93326633  0.13050531  1.0
  Ni  Ni240  1  0.93326550  0.26659967  0.13050531  1.0
  Ni  Ni241  1  0.93326550  0.59993300  0.13050531  1.0
  Ni  Ni242  1  0.93326550  0.93326633  0.13050531  1.0
  Ni  Ni243  1  0.09993217  0.09993300  0.15828308  1.0
  Ni  Ni244  1  0.09993217  0.43326633  0.15828308  1.0
  Ni  Ni245  1  0.09993217  0.76659967  0.15828308  1.0
  Ni  Ni246  1  0.43326550  0.09993300  0.15828308  1.0
  Ni  Ni247  1  0.43326550  0.43326633  0.15828308  1.0
  Ni  Ni248  1  0.43326550  0.76659967  0.15828308  1.0
  Ni  Ni249  1  0.76659883  0.09993300  0.15828308  1.0
  Ni  Ni250  1  0.76659883  0.43326633  0.15828308  1.0
  Ni  Ni251  1  0.76659883  0.76659967  0.15828308  1.0
  W  W252  1  0.16666667  0.16666667  0.13609436  1.0
  W  W253  1  0.16666667  0.50000000  0.13609436  1.0
  W  W254  1  0.16666667  0.83333333  0.13609436  1.0
  W  W255  1  0.50000000  0.16666667  0.13609436  1.0
  W  W256  1  0.50000000  0.50000000  0.13609436  1.0
  W  W257  1  0.50000000  0.83333333  0.13609436  1.0
  W  W258  1  0.83333333  0.16666667  0.13609436  1.0
  W  W259  1  0.83333333  0.50000000  0.13609436  1.0
  W  W260  1  0.83333333  0.83333333  0.13609436  1.0
  W  W261  1  0.00000000  0.00000000  0.16387214  1.0
  W  W262  1  0.00000000  0.33333333  0.16387214  1.0
  W  W263  1  0.00000000  0.66666667  0.16387214  1.0
  W  W264  1  0.33333333  0.00000000  0.16387214  1.0
  W  W265  1  0.33333333  0.33333333  0.16387214  1.0
  W  W266  1  0.33333333  0.66666667  0.16387214  1.0
  W  W267  1  0.66666667  0.00000000  0.16387214  1.0
  W  W268  1  0.66666667  0.33333333  0.16387214  1.0
  W  W269  1  0.66666667  0.66666667  0.16387214  1.0
  Ni  Ni270  1  0.23340117  0.23340033  0.16946119  1.0
  Ni  Ni271  1  0.23340117  0.56673367  0.16946119  1.0
  Ni  Ni272  1  0.23340117  0.90006700  0.16946119  1.0
  Ni  Ni273  1  0.56673450  0.23340033  0.16946119  1.0
  Ni  Ni274  1  0.56673450  0.56673367  0.16946119  1.0
  Ni  Ni275  1  0.56673450  0.90006700  0.16946119  1.0
  Ni  Ni276  1  0.90006783  0.23340033  0.16946119  1.0
  Ni  Ni277  1  0.90006783  0.56673367  0.16946119  1.0
  Ni  Ni278  1  0.90006783  0.90006700  0.16946119  1.0
  Ni  Ni279  1  0.06673450  0.06673367  0.19723897  1.0
  Ni  Ni280  1  0.06673450  0.40006700  0.19723897  1.0
  Ni  Ni281  1  0.06673450  0.73340033  0.19723897  1.0
  Ni  Ni282  1  0.40006783  0.06673367  0.19723897  1.0
  Ni  Ni283  1  0.40006783  0.40006700  0.19723897  1.0
  Ni  Ni284  1  0.40006783  0.73340033  0.19723897  1.0
  Ni  Ni285  1  0.73340117  0.06673367  0.19723897  1.0
  Ni  Ni286  1  0.73340117  0.40006700  0.19723897  1.0
  Ni  Ni287  1  0.73340117  0.73340033  0.19723897  1.0
  Ni  Ni288  1  0.19952933  0.20020183  0.20841750  1.0
  Ni  Ni289  1  0.19952933  0.53353517  0.20841750  1.0
  Ni  Ni290  1  0.19952933  0.86686850  0.20841750  1.0
  Ni  Ni291  1  0.53286267  0.20020183  0.20841750  1.0
  Ni  Ni292  1  0.53286267  0.53353517  0.20841750  1.0
  Ni  Ni293  1  0.53286267  0.86686850  0.20841750  1.0
  Ni  Ni294  1  0.86619600  0.20020183  0.20841750  1.0
  Ni  Ni295  1  0.86619600  0.53353517  0.20841750  1.0
  Ni  Ni296  1  0.86619600  0.86686850  0.20841750  1.0
  Ni  Ni297  1  0.03286267  0.03353517  0.18063972  1.0
  Ni  Ni298  1  0.03286267  0.36686850  0.18063972  1.0
  Ni  Ni299  1  0.03286267  0.70020183  0.18063972  1.0
  Ni  Ni300  1  0.36619600  0.03353517  0.18063972  1.0
  Ni  Ni301  1  0.36619600  0.36686850  0.18063972  1.0
  Ni  Ni302  1  0.36619600  0.70020183  0.18063972  1.0
  Ni  Ni303  1  0.69952933  0.03353517  0.18063972  1.0
  Ni  Ni304  1  0.69952933  0.36686850  0.18063972  1.0
  Ni  Ni305  1  0.69952933  0.70020183  0.18063972  1.0
  Ni  Ni306  1  0.30047067  0.29979817  0.20266011  1.0
  Ni  Ni307  1  0.30047067  0.63313150  0.20266011  1.0
  Ni  Ni308  1  0.30047067  0.96646483  0.20266011  1.0
  Ni  Ni309  1  0.63380400  0.29979817  0.20266011  1.0
  Ni  Ni310  1  0.63380400  0.63313150  0.20266011  1.0
  Ni  Ni311  1  0.63380400  0.96646483  0.20266011  1.0
  Ni  Ni312  1  0.96713733  0.29979817  0.20266011  1.0
  Ni  Ni313  1  0.96713733  0.63313150  0.20266011  1.0
  Ni  Ni314  1  0.96713733  0.96646483  0.20266011  1.0
  Ni  Ni315  1  0.13380400  0.13313150  0.17488233  1.0
  Ni  Ni316  1  0.13380400  0.46646483  0.17488233  1.0
  Ni  Ni317  1  0.13380400  0.79979817  0.17488233  1.0
  Ni  Ni318  1  0.46713733  0.13313150  0.17488233  1.0
  Ni  Ni319  1  0.46713733  0.46646483  0.17488233  1.0
  Ni  Ni320  1  0.46713733  0.79979817  0.17488233  1.0
  Ni  Ni321  1  0.80047067  0.13313150  0.17488233  1.0
  Ni  Ni322  1  0.80047067  0.46646483  0.17488233  1.0
  Ni  Ni323  1  0.80047067  0.79979817  0.17488233  1.0
  Ni  Ni324  1  0.26659883  0.26659967  0.18606086  1.0
  Ni  Ni325  1  0.26659883  0.59993300  0.18606086  1.0
  Ni  Ni326  1  0.26659883  0.93326633  0.18606086  1.0
  Ni  Ni327  1  0.59993217  0.26659967  0.18606086  1.0
  Ni  Ni328  1  0.59993217  0.59993300  0.18606086  1.0
  Ni  Ni329  1  0.59993217  0.93326633  0.18606086  1.0
  Ni  Ni330  1  0.93326550  0.26659967  0.18606086  1.0
  Ni  Ni331  1  0.93326550  0.59993300  0.18606086  1.0
  Ni  Ni332  1  0.93326550  0.93326633  0.18606086  1.0
  Ni  Ni333  1  0.09993217  0.09993300  0.21383864  1.0
  Ni  Ni334  1  0.09993217  0.43326633  0.21383864  1.0
  Ni  Ni335  1  0.09993217  0.76659967  0.21383864  1.0
  Ni  Ni336  1  0.43326550  0.09993300  0.21383864  1.0
  Ni  Ni337  1  0.43326550  0.43326633  0.21383864  1.0
  Ni  Ni338  1  0.43326550  0.76659967  0.21383864  1.0
  Ni  Ni339  1  0.76659883  0.09993300  0.21383864  1.0
  Ni  Ni340  1  0.76659883  0.43326633  0.21383864  1.0
  Ni  Ni341  1  0.76659883  0.76659967  0.21383864  1.0
  W  W342  1  0.16666667  0.16666667  0.19164992  1.0
  W  W343  1  0.16666667  0.50000000  0.19164992  1.0
  W  W344  1  0.16666667  0.83333333  0.19164992  1.0
  W  W345  1  0.50000000  0.16666667  0.19164992  1.0
  W  W346  1  0.50000000  0.50000000  0.19164992  1.0
  W  W347  1  0.50000000  0.83333333  0.19164992  1.0
  W  W348  1  0.83333333  0.16666667  0.19164992  1.0
  W  W349  1  0.83333333  0.50000000  0.19164992  1.0
  W  W350  1  0.83333333  0.83333333  0.19164992  1.0
  W  W351  1  0.00000000  0.00000000  0.21942769  1.0
  W  W352  1  0.00000000  0.33333333  0.21942769  1.0
  W  W353  1  0.00000000  0.66666667  0.21942769  1.0
  W  W354  1  0.33333333  0.00000000  0.21942769  1.0
  W  W355  1  0.33333333  0.33333333  0.21942769  1.0
  W  W356  1  0.33333333  0.66666667  0.21942769  1.0
  W  W357  1  0.66666667  0.00000000  0.21942769  1.0
  W  W358  1  0.66666667  0.33333333  0.21942769  1.0
  W  W359  1  0.66666667  0.66666667  0.21942769  1.0
  Ni  Ni360  1  0.23340117  0.23340033  0.22501675  1.0
  Ni  Ni361  1  0.23340117  0.56673367  0.22501675  1.0
  Ni  Ni362  1  0.23340117  0.90006700  0.22501675  1.0
  Ni  Ni363  1  0.56673450  0.23340033  0.22501675  1.0
  Ni  Ni364  1  0.56673450  0.56673367  0.22501675  1.0
  Ni  Ni365  1  0.56673450  0.90006700  0.22501675  1.0
  Ni  Ni366  1  0.90006783  0.23340033  0.22501675  1.0
  Ni  Ni367  1  0.90006783  0.56673367  0.22501675  1.0
  Ni  Ni368  1  0.90006783  0.90006700  0.22501675  1.0
  Ni  Ni369  1  0.06673450  0.06673367  0.25279453  1.0
  Ni  Ni370  1  0.06673450  0.40006700  0.25279453  1.0
  Ni  Ni371  1  0.06673450  0.73340033  0.25279453  1.0
  Ni  Ni372  1  0.40006783  0.06673367  0.25279453  1.0
  Ni  Ni373  1  0.40006783  0.40006700  0.25279453  1.0
  Ni  Ni374  1  0.40006783  0.73340033  0.25279453  1.0
  Ni  Ni375  1  0.73340117  0.06673367  0.25279453  1.0
  Ni  Ni376  1  0.73340117  0.40006700  0.25279453  1.0
  Ni  Ni377  1  0.73340117  0.73340033  0.25279453  1.0
  Ni  Ni378  1  0.19952933  0.20020183  0.26397306  1.0
  Ni  Ni379  1  0.19952933  0.53353517  0.26397306  1.0
  Ni  Ni380  1  0.19952933  0.86686850  0.26397306  1.0
  Ni  Ni381  1  0.53286267  0.20020183  0.26397306  1.0
  Ni  Ni382  1  0.53286267  0.53353517  0.26397306  1.0
  Ni  Ni383  1  0.53286267  0.86686850  0.26397306  1.0
  Ni  Ni384  1  0.86619600  0.20020183  0.26397306  1.0
  Ni  Ni385  1  0.86619600  0.53353517  0.26397306  1.0
  Ni  Ni386  1  0.86619600  0.86686850  0.26397306  1.0
  Ni  Ni387  1  0.03286267  0.03353517  0.23619528  1.0
  Ni  Ni388  1  0.03286267  0.36686850  0.23619528  1.0
  Ni  Ni389  1  0.03286267  0.70020183  0.23619528  1.0
  Ni  Ni390  1  0.36619600  0.03353517  0.23619528  1.0
  Ni  Ni391  1  0.36619600  0.36686850  0.23619528  1.0
  Ni  Ni392  1  0.36619600  0.70020183  0.23619528  1.0
  Ni  Ni393  1  0.69952933  0.03353517  0.23619528  1.0
  Ni  Ni394  1  0.69952933  0.36686850  0.23619528  1.0
  Ni  Ni395  1  0.69952933  0.70020183  0.23619528  1.0
  Ni  Ni396  1  0.30047067  0.29979817  0.25821567  1.0
  Ni  Ni397  1  0.30047067  0.63313150  0.25821567  1.0
  Ni  Ni398  1  0.30047067  0.96646483  0.25821567  1.0
  Ni  Ni399  1  0.63380400  0.29979817  0.25821567  1.0
  Ni  Ni400  1  0.63380400  0.63313150  0.25821567  1.0
  Ni  Ni401  1  0.63380400  0.96646483  0.25821567  1.0
  Ni  Ni402  1  0.96713733  0.29979817  0.25821567  1.0
  Ni  Ni403  1  0.96713733  0.63313150  0.25821567  1.0
  Ni  Ni404  1  0.96713733  0.96646483  0.25821567  1.0
  Ni  Ni405  1  0.13380400  0.13313150  0.23043789  1.0
  Ni  Ni406  1  0.13380400  0.46646483  0.23043789  1.0
  Ni  Ni407  1  0.13380400  0.79979817  0.23043789  1.0
  Ni  Ni408  1  0.46713733  0.13313150  0.23043789  1.0
  Ni  Ni409  1  0.46713733  0.46646483  0.23043789  1.0
  Ni  Ni410  1  0.46713733  0.79979817  0.23043789  1.0
  Ni  Ni411  1  0.80047067  0.13313150  0.23043789  1.0
  Ni  Ni412  1  0.80047067  0.46646483  0.23043789  1.0
  Ni  Ni413  1  0.80047067  0.79979817  0.23043789  1.0
  Ni  Ni414  1  0.26659883  0.26659967  0.24161642  1.0
  Ni  Ni415  1  0.26659883  0.59993300  0.24161642  1.0
  Ni  Ni416  1  0.26659883  0.93326633  0.24161642  1.0
  Ni  Ni417  1  0.59993217  0.26659967  0.24161642  1.0
  Ni  Ni418  1  0.59993217  0.59993300  0.24161642  1.0
  Ni  Ni419  1  0.59993217  0.93326633  0.24161642  1.0
  Ni  Ni420  1  0.93326550  0.26659967  0.24161642  1.0
  Ni  Ni421  1  0.93326550  0.59993300  0.24161642  1.0
  Ni  Ni422  1  0.93326550  0.93326633  0.24161642  1.0
  Ni  Ni423  1  0.09993217  0.09993300  0.26939419  1.0
  Ni  Ni424  1  0.09993217  0.43326633  0.26939419  1.0
  Ni  Ni425  1  0.09993217  0.76659967  0.26939419  1.0
  Ni  Ni426  1  0.43326550  0.09993300  0.26939419  1.0
  Ni  Ni427  1  0.43326550  0.43326633  0.26939419  1.0
  Ni  Ni428  1  0.43326550  0.76659967  0.26939419  1.0
  Ni  Ni429  1  0.76659883  0.09993300  0.26939419  1.0
  Ni  Ni430  1  0.76659883  0.43326633  0.26939419  1.0
  Ni  Ni431  1  0.76659883  0.76659967  0.26939419  1.0
  W  W432  1  0.16666667  0.16666667  0.24720547  1.0
  W  W433  1  0.16666667  0.50000000  0.24720547  1.0
  W  W434  1  0.16666667  0.83333333  0.24720547  1.0
  W  W435  1  0.50000000  0.16666667  0.24720547  1.0
  W  W436  1  0.50000000  0.50000000  0.24720547  1.0
  W  W437  1  0.50000000  0.83333333  0.24720547  1.0
  W  W438  1  0.83333333  0.16666667  0.24720547  1.0
  W  W439  1  0.83333333  0.50000000  0.24720547  1.0
  W  W440  1  0.83333333  0.83333333  0.24720547  1.0
  W  W441  1  0.00000000  0.00000000  0.27498325  1.0
  W  W442  1  0.00000000  0.33333333  0.27498325  1.0
  W  W443  1  0.00000000  0.66666667  0.27498325  1.0
  W  W444  1  0.33333333  0.00000000  0.27498325  1.0
  W  W445  1  0.33333333  0.33333333  0.27498325  1.0
  W  W446  1  0.33333333  0.66666667  0.27498325  1.0
  W  W447  1  0.66666667  0.00000000  0.27498325  1.0
  W  W448  1  0.66666667  0.33333333  0.27498325  1.0
  W  W449  1  0.66666667  0.66666667  0.27498325  1.0
  Ni  Ni450  1  0.23340117  0.23340033  0.28057231  1.0
  Ni  Ni451  1  0.23340117  0.56673367  0.28057231  1.0
  Ni  Ni452  1  0.23340117  0.90006700  0.28057231  1.0
  Ni  Ni453  1  0.56673450  0.23340033  0.28057231  1.0
  Ni  Ni454  1  0.56673450  0.56673367  0.28057231  1.0
  Ni  Ni455  1  0.56673450  0.90006700  0.28057231  1.0
  Ni  Ni456  1  0.90006783  0.23340033  0.28057231  1.0
  Ni  Ni457  1  0.90006783  0.56673367  0.28057231  1.0
  Ni  Ni458  1  0.90006783  0.90006700  0.28057231  1.0
  Ni  Ni459  1  0.06673450  0.06673367  0.30835008  1.0
  Ni  Ni460  1  0.06673450  0.40006700  0.30835008  1.0
  Ni  Ni461  1  0.06673450  0.73340033  0.30835008  1.0
  Ni  Ni462  1  0.40006783  0.06673367  0.30835008  1.0
  Ni  Ni463  1  0.40006783  0.40006700  0.30835008  1.0
  Ni  Ni464  1  0.40006783  0.73340033  0.30835008  1.0
  Ni  Ni465  1  0.73340117  0.06673367  0.30835008  1.0
  Ni  Ni466  1  0.73340117  0.40006700  0.30835008  1.0
  Ni  Ni467  1  0.73340117  0.73340033  0.30835008  1.0
  Ni  Ni468  1  0.19952933  0.20020183  0.31952861  1.0
  Ni  Ni469  1  0.19952933  0.53353517  0.31952861  1.0
  Ni  Ni470  1  0.19952933  0.86686850  0.31952861  1.0
  Ni  Ni471  1  0.53286267  0.20020183  0.31952861  1.0
  Ni  Ni472  1  0.53286267  0.53353517  0.31952861  1.0
  Ni  Ni473  1  0.53286267  0.86686850  0.31952861  1.0
  Ni  Ni474  1  0.86619600  0.20020183  0.31952861  1.0
  Ni  Ni475  1  0.86619600  0.53353517  0.31952861  1.0
  Ni  Ni476  1  0.86619600  0.86686850  0.31952861  1.0
  Ni  Ni477  1  0.03286267  0.03353517  0.29175083  1.0
  Ni  Ni478  1  0.03286267  0.36686850  0.29175083  1.0
  Ni  Ni479  1  0.03286267  0.70020183  0.29175083  1.0
  Ni  Ni480  1  0.36619600  0.03353517  0.29175083  1.0
  Ni  Ni481  1  0.36619600  0.36686850  0.29175083  1.0
  Ni  Ni482  1  0.36619600  0.70020183  0.29175083  1.0
  Ni  Ni483  1  0.69952933  0.03353517  0.29175083  1.0
  Ni  Ni484  1  0.69952933  0.36686850  0.29175083  1.0
  Ni  Ni485  1  0.69952933  0.70020183  0.29175083  1.0
  Ni  Ni486  1  0.30047067  0.29979817  0.31377122  1.0
  Ni  Ni487  1  0.30047067  0.63313150  0.31377122  1.0
  Ni  Ni488  1  0.30047067  0.96646483  0.31377122  1.0
  Ni  Ni489  1  0.63380400  0.29979817  0.31377122  1.0
  Ni  Ni490  1  0.63380400  0.63313150  0.31377122  1.0
  Ni  Ni491  1  0.63380400  0.96646483  0.31377122  1.0
  Ni  Ni492  1  0.96713733  0.29979817  0.31377122  1.0
  Ni  Ni493  1  0.96713733  0.63313150  0.31377122  1.0
  Ni  Ni494  1  0.96713733  0.96646483  0.31377122  1.0
  Ni  Ni495  1  0.13380400  0.13313150  0.28599344  1.0
  Ni  Ni496  1  0.13380400  0.46646483  0.28599344  1.0
  Ni  Ni497  1  0.13380400  0.79979817  0.28599344  1.0
  Ni  Ni498  1  0.46713733  0.13313150  0.28599344  1.0
  Ni  Ni499  1  0.46713733  0.46646483  0.28599344  1.0
  Ni  Ni500  1  0.46713733  0.79979817  0.28599344  1.0
  Ni  Ni501  1  0.80047067  0.13313150  0.28599344  1.0
  Ni  Ni502  1  0.80047067  0.46646483  0.28599344  1.0
  Ni  Ni503  1  0.80047067  0.79979817  0.28599344  1.0
  Ni  Ni504  1  0.26659883  0.26659967  0.29717197  1.0
  Ni  Ni505  1  0.26659883  0.59993300  0.29717197  1.0
  Ni  Ni506  1  0.26659883  0.93326633  0.29717197  1.0
  Ni  Ni507  1  0.59993217  0.26659967  0.29717197  1.0
  Ni  Ni508  1  0.59993217  0.59993300  0.29717197  1.0
  Ni  Ni509  1  0.59993217  0.93326633  0.29717197  1.0
  Ni  Ni510  1  0.93326550  0.26659967  0.29717197  1.0
  Ni  Ni511  1  0.93326550  0.59993300  0.29717197  1.0
  Ni  Ni512  1  0.93326550  0.93326633  0.29717197  1.0
  Ni  Ni513  1  0.09993217  0.09993300  0.32494975  1.0
  Ni  Ni514  1  0.09993217  0.43326633  0.32494975  1.0
  Ni  Ni515  1  0.09993217  0.76659967  0.32494975  1.0
  Ni  Ni516  1  0.43326550  0.09993300  0.32494975  1.0
  Ni  Ni517  1  0.43326550  0.43326633  0.32494975  1.0
  Ni  Ni518  1  0.43326550  0.76659967  0.32494975  1.0
  Ni  Ni519  1  0.76659883  0.09993300  0.32494975  1.0
  Ni  Ni520  1  0.76659883  0.43326633  0.32494975  1.0
  Ni  Ni521  1  0.76659883  0.76659967  0.32494975  1.0
  W  W522  1  0.16666667  0.16666667  0.30276103  1.0
  W  W523  1  0.16666667  0.50000000  0.30276103  1.0
  W  W524  1  0.16666667  0.83333333  0.30276103  1.0
  W  W525  1  0.50000000  0.16666667  0.30276103  1.0
  W  W526  1  0.50000000  0.50000000  0.30276103  1.0
  W  W527  1  0.50000000  0.83333333  0.30276103  1.0
  W  W528  1  0.83333333  0.16666667  0.30276103  1.0
  W  W529  1  0.83333333  0.50000000  0.30276103  1.0
  W  W530  1  0.83333333  0.83333333  0.30276103  1.0
  W  W531  1  0.00000000  0.00000000  0.33053881  1.0
  W  W532  1  0.00000000  0.33333333  0.33053881  1.0
  W  W533  1  0.00000000  0.66666667  0.33053881  1.0
  W  W534  1  0.33333333  0.00000000  0.33053881  1.0
  W  W535  1  0.33333333  0.33333333  0.33053881  1.0
  W  W536  1  0.33333333  0.66666667  0.33053881  1.0
  W  W537  1  0.66666667  0.00000000  0.33053881  1.0
  W  W538  1  0.66666667  0.33333333  0.33053881  1.0
  W  W539  1  0.66666667  0.66666667  0.33053881  1.0
  Ni  Ni540  1  0.23340117  0.23340033  0.33612786  1.0
  Ni  Ni541  1  0.23340117  0.56673367  0.33612786  1.0
  Ni  Ni542  1  0.23340117  0.90006700  0.33612786  1.0
  Ni  Ni543  1  0.56673450  0.23340033  0.33612786  1.0
  Ni  Ni544  1  0.56673450  0.56673367  0.33612786  1.0
  Ni  Ni545  1  0.56673450  0.90006700  0.33612786  1.0
  Ni  Ni546  1  0.90006783  0.23340033  0.33612786  1.0
  Ni  Ni547  1  0.90006783  0.56673367  0.33612786  1.0
  Ni  Ni548  1  0.90006783  0.90006700  0.33612786  1.0
  Ni  Ni549  1  0.06673450  0.06673367  0.36390564  1.0
  Ni  Ni550  1  0.06673450  0.40006700  0.36390564  1.0
  Ni  Ni551  1  0.06673450  0.73340033  0.36390564  1.0
  Ni  Ni552  1  0.40006783  0.06673367  0.36390564  1.0
  Ni  Ni553  1  0.40006783  0.40006700  0.36390564  1.0
  Ni  Ni554  1  0.40006783  0.73340033  0.36390564  1.0
  Ni  Ni555  1  0.73340117  0.06673367  0.36390564  1.0
  Ni  Ni556  1  0.73340117  0.40006700  0.36390564  1.0
  Ni  Ni557  1  0.73340117  0.73340033  0.36390564  1.0
  Ni  Ni558  1  0.19952933  0.20020183  0.37508417  1.0
  Ni  Ni559  1  0.19952933  0.53353517  0.37508417  1.0
  Ni  Ni560  1  0.19952933  0.86686850  0.37508417  1.0
  Ni  Ni561  1  0.53286267  0.20020183  0.37508417  1.0
  Ni  Ni562  1  0.53286267  0.53353517  0.37508417  1.0
  Ni  Ni563  1  0.53286267  0.86686850  0.37508417  1.0
  Ni  Ni564  1  0.86619600  0.20020183  0.37508417  1.0
  Ni  Ni565  1  0.86619600  0.53353517  0.37508417  1.0
  Ni  Ni566  1  0.86619600  0.86686850  0.37508417  1.0
  Ni  Ni567  1  0.03286267  0.03353517  0.34730639  1.0
  Ni  Ni568  1  0.03286267  0.36686850  0.34730639  1.0
  Ni  Ni569  1  0.03286267  0.70020183  0.34730639  1.0
  Ni  Ni570  1  0.36619600  0.03353517  0.34730639  1.0
  Ni  Ni571  1  0.36619600  0.36686850  0.34730639  1.0
  Ni  Ni572  1  0.36619600  0.70020183  0.34730639  1.0
  Ni  Ni573  1  0.69952933  0.03353517  0.34730639  1.0
  Ni  Ni574  1  0.69952933  0.36686850  0.34730639  1.0
  Ni  Ni575  1  0.69952933  0.70020183  0.34730639  1.0
  Ni  Ni576  1  0.30047067  0.29979817  0.36932678  1.0
  Ni  Ni577  1  0.30047067  0.63313150  0.36932678  1.0
  Ni  Ni578  1  0.30047067  0.96646483  0.36932678  1.0
  Ni  Ni579  1  0.63380400  0.29979817  0.36932678  1.0
  Ni  Ni580  1  0.63380400  0.63313150  0.36932678  1.0
  Ni  Ni581  1  0.63380400  0.96646483  0.36932678  1.0
  Ni  Ni582  1  0.96713733  0.29979817  0.36932678  1.0
  Ni  Ni583  1  0.96713733  0.63313150  0.36932678  1.0
  Ni  Ni584  1  0.96713733  0.96646483  0.36932678  1.0
  Ni  Ni585  1  0.13380400  0.13313150  0.34154900  1.0
  Ni  Ni586  1  0.13380400  0.46646483  0.34154900  1.0
  Ni  Ni587  1  0.13380400  0.79979817  0.34154900  1.0
  Ni  Ni588  1  0.46713733  0.13313150  0.34154900  1.0
  Ni  Ni589  1  0.46713733  0.46646483  0.34154900  1.0
  Ni  Ni590  1  0.46713733  0.79979817  0.34154900  1.0
  Ni  Ni591  1  0.80047067  0.13313150  0.34154900  1.0
  Ni  Ni592  1  0.80047067  0.46646483  0.34154900  1.0
  Ni  Ni593  1  0.80047067  0.79979817  0.34154900  1.0
  Ni  Ni594  1  0.26659883  0.26659967  0.35272753  1.0
  Ni  Ni595  1  0.26659883  0.59993300  0.35272753  1.0
  Ni  Ni596  1  0.26659883  0.93326633  0.35272753  1.0
  Ni  Ni597  1  0.59993217  0.26659967  0.35272753  1.0
  Ni  Ni598  1  0.59993217  0.59993300  0.35272753  1.0
  Ni  Ni599  1  0.59993217  0.93326633  0.35272753  1.0
  Ni  Ni600  1  0.93326550  0.26659967  0.35272753  1.0
  Ni  Ni601  1  0.93326550  0.59993300  0.35272753  1.0
  Ni  Ni602  1  0.93326550  0.93326633  0.35272753  1.0
  Ni  Ni603  1  0.09993217  0.09993300  0.38050531  1.0
  Ni  Ni604  1  0.09993217  0.43326633  0.38050531  1.0
  Ni  Ni605  1  0.09993217  0.76659967  0.38050531  1.0
  Ni  Ni606  1  0.43326550  0.09993300  0.38050531  1.0
  Ni  Ni607  1  0.43326550  0.43326633  0.38050531  1.0
  Ni  Ni608  1  0.43326550  0.76659967  0.38050531  1.0
  Ni  Ni609  1  0.76659883  0.09993300  0.38050531  1.0
  Ni  Ni610  1  0.76659883  0.43326633  0.38050531  1.0
  Ni  Ni611  1  0.76659883  0.76659967  0.38050531  1.0
  W  W612  1  0.16666667  0.16666667  0.35831658  1.0
  W  W613  1  0.16666667  0.50000000  0.35831658  1.0
  W  W614  1  0.16666667  0.83333333  0.35831658  1.0
  W  W615  1  0.50000000  0.16666667  0.35831658  1.0
  W  W616  1  0.50000000  0.50000000  0.35831658  1.0
  W  W617  1  0.50000000  0.83333333  0.35831658  1.0
  W  W618  1  0.83333333  0.16666667  0.35831658  1.0
  W  W619  1  0.83333333  0.50000000  0.35831658  1.0
  W  W620  1  0.83333333  0.83333333  0.35831658  1.0
  W  W621  1  0.00000000  0.00000000  0.38609436  1.0
  W  W622  1  0.00000000  0.33333333  0.38609436  1.0
  W  W623  1  0.00000000  0.66666667  0.38609436  1.0
  W  W624  1  0.33333333  0.00000000  0.38609436  1.0
  W  W625  1  0.33333333  0.33333333  0.38609436  1.0
  W  W626  1  0.33333333  0.66666667  0.38609436  1.0
  W  W627  1  0.66666667  0.00000000  0.38609436  1.0
  W  W628  1  0.66666667  0.33333333  0.38609436  1.0
  W  W629  1  0.66666667  0.66666667  0.38609436  1.0
