# generated using pymatgen
data_Ni4W
_symmetry_space_group_name_H-M   'P 1'
_cell_length_a   13.28558307
_cell_length_b   10.65744599
_cell_length_c   30.99969383
_cell_angle_alpha   66.35362273
_cell_angle_beta   99.25761253
_cell_angle_gamma   113.64637727
_symmetry_Int_Tables_number   1
_chemical_formula_structural   Ni4W
_chemical_formula_sum   'Ni108 W27'
_cell_volume   3683.14228879
_cell_formula_units_Z   27
loop_
 _symmetry_equiv_pos_site_id
 _symmetry_equiv_pos_as_xyz
  1  'x, y, z'
loop_
 _atom_site_type_symbol
 _atom_site_label
 _atom_site_symmetry_multiplicity
 _atom_site_fract_x
 _atom_site_fract_y
 _atom_site_fract_z
 _atom_site_occupancy
  Ni  Ni0  1  0.19986600  0.06639783  0.01437221  1.0
  Ni  Ni1  1  0.19986600  0.39973117  0.01437221  1.0
  Ni  Ni2  1  0.19986600  0.73306450  0.01437221  1.0
  Ni  Ni3  1  0.53319933  0.06639783  0.01437221  1.0
  Ni  Ni4  1  0.53319933  0.39973117  0.01437221  1.0
  Ni  Ni5  1  0.53319933  0.73306450  0.01437221  1.0
  Ni  Ni6  1  0.86653267  0.06639783  0.01437221  1.0
  Ni  Ni7  1  0.86653267  0.39973117  0.01437221  1.0
  Ni  Ni8  1  0.86653267  0.73306450  0.01437221  1.0
  Ni  Ni9  1  0.26626300  0.19986517  0.07128464  1.0
  Ni  Ni10  1  0.26626300  0.53319850  0.07128464  1.0
  Ni  Ni11  1  0.26626300  0.86653183  0.07128464  1.0
  Ni  Ni12  1  0.59959633  0.19986517  0.07128464  1.0
  Ni  Ni13  1  0.59959633  0.53319850  0.07128464  1.0
  Ni  Ni14  1  0.59959633  0.86653183  0.07128464  1.0
  Ni  Ni15  1  0.93292967  0.19986517  0.07128464  1.0
  Ni  Ni16  1  0.93292967  0.53319850  0.07128464  1.0
  Ni  Ni17  1  0.93292967  0.86653183  0.07128464  1.0
  Ni  Ni18  1  0.06707033  0.13346817  0.04282807  1.0
  Ni  Ni19  1  0.06707033  0.46680150  0.04282807  1.0
  Ni  Ni20  1  0.06707033  0.80013483  0.04282807  1.0
  Ni  Ni21  1  0.40040367  0.13346817  0.04282807  1.0
  Ni  Ni22  1  0.40040367  0.46680150  0.04282807  1.0
  Ni  Ni23  1  0.40040367  0.80013483  0.04282807  1.0
  Ni  Ni24  1  0.73373700  0.13346817  0.04282807  1.0
  Ni  Ni25  1  0.73373700  0.46680150  0.04282807  1.0
  Ni  Ni26  1  0.73373700  0.80013483  0.04282807  1.0
  Ni  Ni27  1  0.13346733  0.26693550  0.09974050  1.0
  Ni  Ni28  1  0.13346733  0.60026883  0.09974050  1.0
  Ni  Ni29  1  0.13346733  0.93360217  0.09974050  1.0
  Ni  Ni30  1  0.46680067  0.26693550  0.09974050  1.0
  Ni  Ni31  1  0.46680067  0.60026883  0.09974050  1.0
  Ni  Ni32  1  0.46680067  0.93360217  0.09974050  1.0
  Ni  Ni33  1  0.80013400  0.26693550  0.09974050  1.0
  Ni  Ni34  1  0.80013400  0.60026883  0.09974050  1.0
  Ni  Ni35  1  0.80013400  0.93360217  0.09974050  1.0
  W  W36  1  0.00000000  0.00000000  0.12848493  1.0
  W  W37  1  0.00000000  0.33333333  0.12848493  1.0
  W  W38  1  0.00000000  0.66666667  0.12848493  1.0
  W  W39  1  0.33333333  0.00000000  0.12848493  1.0
  W  W40  1  0.33333333  0.33333333  0.12848493  1.0
  W  W41  1  0.33333333  0.66666667  0.12848493  1.0
  W  W42  1  0.66666667  0.00000000  0.12848493  1.0
  W  W43  1  0.66666667  0.33333333  0.12848493  1.0
  W  W44  1  0.66666667  0.66666667  0.12848493  1.0
  Ni  Ni45  1  0.19986600  0.06639783  0.15722936  1.0
  Ni  Ni46  1  0.19986600  0.39973117  0.15722936  1.0
  Ni  Ni47  1  0.19986600  0.73306450  0.15722936  1.0
  Ni  Ni48  1  0.53319933  0.06639783  0.15722936  1.0
  Ni  Ni49  1  0.53319933  0.39973117  0.15722936  1.0
  Ni  Ni50  1  0.53319933  0.73306450  0.15722936  1.0
  Ni  Ni51  1  0.86653267  0.06639783  0.15722936  1.0
  Ni  Ni52  1  0.86653267  0.39973117  0.15722936  1.0
  Ni  Ni53  1  0.86653267  0.73306450  0.15722936  1.0
  Ni  Ni54  1  0.26626300  0.19986517  0.21414179  1.0
  Ni  Ni55  1  0.26626300  0.53319850  0.21414179  1.0
  Ni  Ni56  1  0.26626300  0.86653183  0.21414179  1.0
  Ni  Ni57  1  0.59959633  0.19986517  0.21414179  1.0
  Ni  Ni58  1  0.59959633  0.53319850  0.21414179  1.0
  Ni  Ni59  1  0.59959633  0.86653183  0.21414179  1.0
  Ni  Ni60  1  0.93292967  0.19986517  0.21414179  1.0
  Ni  Ni61  1  0.93292967  0.53319850  0.21414179  1.0
  Ni  Ni62  1  0.93292967  0.86653183  0.21414179  1.0
  Ni  Ni63  1  0.06707033  0.13346817  0.18568521  1.0
  Ni  Ni64  1  0.06707033  0.46680150  0.18568521  1.0
  Ni  Ni65  1  0.06707033  0.80013483  0.18568521  1.0
  Ni  Ni66  1  0.40040367  0.13346817  0.18568521  1.0
  Ni  Ni67  1  0.40040367  0.46680150  0.18568521  1.0
  Ni  Ni68  1  0.40040367  0.80013483  0.18568521  1.0
  Ni  Ni69  1  0.73373700  0.13346817  0.18568521  1.0
  Ni  Ni70  1  0.73373700  0.46680150  0.18568521  1.0
  Ni  Ni71  1  0.73373700  0.80013483  0.18568521  1.0
  Ni  Ni72  1  0.13346733  0.26693550  0.24259764  1.0
  Ni  Ni73  1  0.13346733  0.60026883  0.24259764  1.0
  Ni  Ni74  1  0.13346733  0.93360217  0.24259764  1.0
  Ni  Ni75  1  0.46680067  0.26693550  0.24259764  1.0
  Ni  Ni76  1  0.46680067  0.60026883  0.24259764  1.0
  Ni  Ni77  1  0.46680067  0.93360217  0.24259764  1.0
  Ni  Ni78  1  0.80013400  0.26693550  0.24259764  1.0
  Ni  Ni79  1  0.80013400  0.60026883  0.24259764  1.0
  Ni  Ni80  1  0.80013400  0.93360217  0.24259764  1.0
  W  W81  1  0.00000000  0.00000000  0.27134207  1.0
  W  W82  1  0.00000000  0.33333333  0.27134207  1.0
  W  W83  1  0.00000000  0.66666667  0.27134207  1.0
  W  W84  1  0.33333333  0.00000000  0.27134207  1.0
  W  W85  1  0.33333333  0.33333333  0.27134207  1.0
  W  W86  1  0.33333333  0.66666667  0.27134207  1.0
  W  W87  1  0.66666667  0.00000000  0.27134207  1.0
  W  W88  1  0.66666667  0.33333333  0.27134207  1.0
  W  W89  1  0.66666667  0.66666667  0.27134207  1.0
  Ni  Ni90  1  0.19986600  0.06639783  0.30008650  1.0
  Ni  Ni91  1  0.19986600  0.39973117  0.30008650  1.0
  Ni  Ni92  1  0.19986600  0.73306450  0.30008650  1.0
  Ni  Ni93  1  0.53319933  0.06639783  0.30008650  1.0
  Ni  Ni94  1  0.53319933  0.39973117  0.30008650  1.0
  Ni  Ni95  1  0.53319933  0.73306450  0.30008650  1.0
  Ni  Ni96  1  0.86653267  0.06639783  0.30008650  1.0
  Ni  Ni97  1  0.86653267  0.39973117  0.30008650  1.0
  Ni  Ni98  1  0.86653267  0.73306450  0.30008650  1.0
  Ni  Ni99  1  0.26626300  0.19986517  0.35699893  1.0
  Ni  Ni100  1  0.26626300  0.53319850  0.35699893  1.0
  Ni  Ni101  1  0.26626300  0.86653183  0.35699893  1.0
  Ni  Ni102  1  0.59959633  0.19986517  0.35699893  1.0
  Ni  Ni103  1  0.59959633  0.53319850  0.35699893  1.0
  Ni  Ni104  1  0.59959633  0.86653183  0.35699893  1.0
  Ni  Ni105  1  0.93292967  0.19986517  0.35699893  1.0
  Ni  Ni106  1  0.93292967  0.53319850  0.35699893  1.0
  Ni  Ni107  1  0.93292967  0.86653183  0.35699893  1.0
  Ni  Ni108  1  0.06707033  0.13346817  0.32854236  1.0
  Ni  Ni109  1  0.06707033  0.46680150  0.32854236  1.0
  Ni  Ni110  1  0.06707033  0.80013483  0.32854236  1.0
  Ni  Ni111  1  0.40040367  0.13346817  0.32854236  1.0
  Ni  Ni112  1  0.40040367  0.46680150  0.32854236  1.0
  Ni  Ni113  1  0.40040367  0.80013483  0.32854236  1.0
  Ni  Ni114  1  0.73373700  0.13346817  0.32854236  1.0
  Ni  Ni115  1  0.73373700  0.46680150  0.32854236  1.0
  Ni  Ni116  1  0.73373700  0.80013483  0.32854236  1.0
  Ni  Ni117  1  0.13346733  0.26693550  0.38545479  1.0
  Ni  Ni118  1  0.13346733  0.60026883  0.38545479  1.0
  Ni  Ni119  1  0.13346733  0.93360217  0.38545479  1.0
  Ni  Ni120  1  0.46680067  0.26693550  0.38545479  1.0
  Ni  Ni121  1  0.46680067  0.60026883  0.38545479  1.0
  Ni  Ni122  1  0.46680067  0.93360217  0.38545479  1.0
  Ni  Ni123  1  0.80013400  0.26693550  0.38545479  1.0
  Ni  Ni124  1  0.80013400  0.60026883  0.38545479  1.0
  Ni  Ni125  1  0.80013400  0.93360217  0.38545479  1.0
  W  W126  1  0.00000000  0.00000000  0.41419921  1.0
  W  W127  1  0.00000000  0.33333333  0.41419921  1.0
  W  W128  1  0.00000000  0.66666667  0.41419921  1.0
  W  W129  1  0.33333333  0.00000000  0.41419921  1.0
  W  W130  1  0.33333333  0.33333333  0.41419921  1.0
  W  W131  1  0.33333333  0.66666667  0.41419921  1.0
  W  W132  1  0.66666667  0.00000000  0.41419921  1.0
  W  W133  1  0.66666667  0.33333333  0.41419921  1.0
  W  W134  1  0.66666667  0.66666667  0.41419921  1.0
