# generated using pymatgen
data_Ni4W
_symmetry_space_group_name_H-M   'P 1'
_cell_length_a   13.28558307
_cell_length_b   36.89712926
_cell_length_c   53.14233228
_cell_angle_alpha   148.04986648
_cell_angle_beta   99.25761253
_cell_angle_gamma   93.32077077
_symmetry_Int_Tables_number   1
_chemical_formula_structural   Ni4W
_chemical_formula_sum   'Ni360 W90'
_cell_volume   12627.91641870
_cell_formula_units_Z   90
loop_
 _symmetry_equiv_pos_site_id
 _symmetry_equiv_pos_as_xyz
  1  'x, y, z'
loop_
 _atom_site_type_symbol
 _atom_site_label
 _atom_site_symmetry_multiplicity
 _atom_site_fract_x
 _atom_site_fract_y
 _atom_site_fract_z
 _atom_site_occupancy
  Ni  Ni0  1  0.19986600  0.03319892  0.02083344  1.0
  Ni  Ni1  1  0.19986600  0.36653225  0.02083344  1.0
  Ni  Ni2  1  0.19986600  0.69986558  0.02083344  1.0
  Ni  Ni3  1  0.53319933  0.03319892  0.02083344  1.0
  Ni  Ni4  1  0.53319933  0.36653225  0.02083344  1.0
  Ni  Ni5  1  0.53319933  0.69986558  0.02083344  1.0
  Ni  Ni6  1  0.86653267  0.03319892  0.02083344  1.0
  Ni  Ni7  1  0.86653267  0.36653225  0.02083344  1.0
  Ni  Ni8  1  0.86653267  0.69986558  0.02083344  1.0
  Ni  Ni9  1  0.19986600  0.19986558  0.06250010  1.0
  Ni  Ni10  1  0.19986600  0.53319892  0.06250010  1.0
  Ni  Ni11  1  0.19986600  0.86653225  0.06250010  1.0
  Ni  Ni12  1  0.53319933  0.19986558  0.06250010  1.0
  Ni  Ni13  1  0.53319933  0.53319892  0.06250010  1.0
  Ni  Ni14  1  0.53319933  0.86653225  0.06250010  1.0
  Ni  Ni15  1  0.86653267  0.19986558  0.06250010  1.0
  Ni  Ni16  1  0.86653267  0.53319892  0.06250010  1.0
  Ni  Ni17  1  0.86653267  0.86653225  0.06250010  1.0
  Ni  Ni18  1  0.26626300  0.09993258  0.02074927  1.0
  Ni  Ni19  1  0.26626300  0.43326592  0.02074927  1.0
  Ni  Ni20  1  0.26626300  0.76659925  0.02074927  1.0
  Ni  Ni21  1  0.59959633  0.09993258  0.02074927  1.0
  Ni  Ni22  1  0.59959633  0.43326592  0.02074927  1.0
  Ni  Ni23  1  0.59959633  0.76659925  0.02074927  1.0
  Ni  Ni24  1  0.93292967  0.09993258  0.02074927  1.0
  Ni  Ni25  1  0.93292967  0.43326592  0.02074927  1.0
  Ni  Ni26  1  0.93292967  0.76659925  0.02074927  1.0
  Ni  Ni27  1  0.26626300  0.26659925  0.06241594  1.0
  Ni  Ni28  1  0.26626300  0.59993258  0.06241594  1.0
  Ni  Ni29  1  0.26626300  0.93326592  0.06241594  1.0
  Ni  Ni30  1  0.59959633  0.26659925  0.06241594  1.0
  Ni  Ni31  1  0.59959633  0.59993258  0.06241594  1.0
  Ni  Ni32  1  0.59959633  0.93326592  0.06241594  1.0
  Ni  Ni33  1  0.93292967  0.26659925  0.06241594  1.0
  Ni  Ni34  1  0.93292967  0.59993258  0.06241594  1.0
  Ni  Ni35  1  0.93292967  0.93326592  0.06241594  1.0
  Ni  Ni36  1  0.06707033  0.06673408  0.06258406  1.0
  Ni  Ni37  1  0.06707033  0.40006742  0.06258406  1.0
  Ni  Ni38  1  0.06707033  0.73340075  0.06258406  1.0
  Ni  Ni39  1  0.40040367  0.06673408  0.06258406  1.0
  Ni  Ni40  1  0.40040367  0.40006742  0.06258406  1.0
  Ni  Ni41  1  0.40040367  0.73340075  0.06258406  1.0
  Ni  Ni42  1  0.73373700  0.06673408  0.06258406  1.0
  Ni  Ni43  1  0.73373700  0.40006742  0.06258406  1.0
  Ni  Ni44  1  0.73373700  0.73340075  0.06258406  1.0
  Ni  Ni45  1  0.06707033  0.23340075  0.02091740  1.0
  Ni  Ni46  1  0.06707033  0.56673408  0.02091740  1.0
  Ni  Ni47  1  0.06707033  0.90006742  0.02091740  1.0
  Ni  Ni48  1  0.40040367  0.23340075  0.02091740  1.0
  Ni  Ni49  1  0.40040367  0.56673408  0.02091740  1.0
  Ni  Ni50  1  0.40040367  0.90006742  0.02091740  1.0
  Ni  Ni51  1  0.73373700  0.23340075  0.02091740  1.0
  Ni  Ni52  1  0.73373700  0.56673408  0.02091740  1.0
  Ni  Ni53  1  0.73373700  0.90006742  0.02091740  1.0
  Ni  Ni54  1  0.13346733  0.13346775  0.06249990  1.0
  Ni  Ni55  1  0.13346733  0.46680108  0.06249990  1.0
  Ni  Ni56  1  0.13346733  0.80013442  0.06249990  1.0
  Ni  Ni57  1  0.46680067  0.13346775  0.06249990  1.0
  Ni  Ni58  1  0.46680067  0.46680108  0.06249990  1.0
  Ni  Ni59  1  0.46680067  0.80013442  0.06249990  1.0
  Ni  Ni60  1  0.80013400  0.13346775  0.06249990  1.0
  Ni  Ni61  1  0.80013400  0.46680108  0.06249990  1.0
  Ni  Ni62  1  0.80013400  0.80013442  0.06249990  1.0
  Ni  Ni63  1  0.13346733  0.30013442  0.02083323  1.0
  Ni  Ni64  1  0.13346733  0.63346775  0.02083323  1.0
  Ni  Ni65  1  0.13346733  0.96680108  0.02083323  1.0
  Ni  Ni66  1  0.46680067  0.30013442  0.02083323  1.0
  Ni  Ni67  1  0.46680067  0.63346775  0.02083323  1.0
  Ni  Ni68  1  0.46680067  0.96680108  0.02083323  1.0
  Ni  Ni69  1  0.80013400  0.30013442  0.02083323  1.0
  Ni  Ni70  1  0.80013400  0.63346775  0.02083323  1.0
  Ni  Ni71  1  0.80013400  0.96680108  0.02083323  1.0
  W  W72  1  0.00000000  0.16666667  0.02083333  1.0
  W  W73  1  0.00000000  0.50000000  0.02083333  1.0
  W  W74  1  0.00000000  0.83333333  0.02083333  1.0
  W  W75  1  0.33333333  0.16666667  0.02083333  1.0
  W  W76  1  0.33333333  0.50000000  0.02083333  1.0
  W  W77  1  0.33333333  0.83333333  0.02083333  1.0
  W  W78  1  0.66666667  0.16666667  0.02083333  1.0
  W  W79  1  0.66666667  0.50000000  0.02083333  1.0
  W  W80  1  0.66666667  0.83333333  0.02083333  1.0
  W  W81  1  0.00000000  0.00000000  0.06250000  1.0
  W  W82  1  0.00000000  0.33333333  0.06250000  1.0
  W  W83  1  0.00000000  0.66666667  0.06250000  1.0
  W  W84  1  0.33333333  0.00000000  0.06250000  1.0
  W  W85  1  0.33333333  0.33333333  0.06250000  1.0
  W  W86  1  0.33333333  0.66666667  0.06250000  1.0
  W  W87  1  0.66666667  0.00000000  0.06250000  1.0
  W  W88  1  0.66666667  0.33333333  0.06250000  1.0
  W  W89  1  0.66666667  0.66666667  0.06250000  1.0
  Ni  Ni90  1  0.19986600  0.03319892  0.10416677  1.0
  Ni  Ni91  1  0.19986600  0.36653225  0.10416677  1.0
  Ni  Ni92  1  0.19986600  0.69986558  0.10416677  1.0
  Ni  Ni93  1  0.53319933  0.03319892  0.10416677  1.0
  Ni  Ni94  1  0.53319933  0.36653225  0.10416677  1.0
  Ni  Ni95  1  0.53319933  0.69986558  0.10416677  1.0
  Ni  Ni96  1  0.86653267  0.03319892  0.10416677  1.0
  Ni  Ni97  1  0.86653267  0.36653225  0.10416677  1.0
  Ni  Ni98  1  0.86653267  0.69986558  0.10416677  1.0
  Ni  Ni99  1  0.19986600  0.19986558  0.14583344  1.0
  Ni  Ni100  1  0.19986600  0.53319892  0.14583344  1.0
  Ni  Ni101  1  0.19986600  0.86653225  0.14583344  1.0
  Ni  Ni102  1  0.53319933  0.19986558  0.14583344  1.0
  Ni  Ni103  1  0.53319933  0.53319892  0.14583344  1.0
  Ni  Ni104  1  0.53319933  0.86653225  0.14583344  1.0
  Ni  Ni105  1  0.86653267  0.19986558  0.14583344  1.0
  Ni  Ni106  1  0.86653267  0.53319892  0.14583344  1.0
  Ni  Ni107  1  0.86653267  0.86653225  0.14583344  1.0
  Ni  Ni108  1  0.26626300  0.09993258  0.10408260  1.0
  Ni  Ni109  1  0.26626300  0.43326592  0.10408260  1.0
  Ni  Ni110  1  0.26626300  0.76659925  0.10408260  1.0
  Ni  Ni111  1  0.59959633  0.09993258  0.10408260  1.0
  Ni  Ni112  1  0.59959633  0.43326592  0.10408260  1.0
  Ni  Ni113  1  0.59959633  0.76659925  0.10408260  1.0
  Ni  Ni114  1  0.93292967  0.09993258  0.10408260  1.0
  Ni  Ni115  1  0.93292967  0.43326592  0.10408260  1.0
  Ni  Ni116  1  0.93292967  0.76659925  0.10408260  1.0
  Ni  Ni117  1  0.26626300  0.26659925  0.14574927  1.0
  Ni  Ni118  1  0.26626300  0.59993258  0.14574927  1.0
  Ni  Ni119  1  0.26626300  0.93326592  0.14574927  1.0
  Ni  Ni120  1  0.59959633  0.26659925  0.14574927  1.0
  Ni  Ni121  1  0.59959633  0.59993258  0.14574927  1.0
  Ni  Ni122  1  0.59959633  0.93326592  0.14574927  1.0
  Ni  Ni123  1  0.93292967  0.26659925  0.14574927  1.0
  Ni  Ni124  1  0.93292967  0.59993258  0.14574927  1.0
  Ni  Ni125  1  0.93292967  0.93326592  0.14574927  1.0
  Ni  Ni126  1  0.06707033  0.06673408  0.14591740  1.0
  Ni  Ni127  1  0.06707033  0.40006742  0.14591740  1.0
  Ni  Ni128  1  0.06707033  0.73340075  0.14591740  1.0
  Ni  Ni129  1  0.40040367  0.06673408  0.14591740  1.0
  Ni  Ni130  1  0.40040367  0.40006742  0.14591740  1.0
  Ni  Ni131  1  0.40040367  0.73340075  0.14591740  1.0
  Ni  Ni132  1  0.73373700  0.06673408  0.14591740  1.0
  Ni  Ni133  1  0.73373700  0.40006742  0.14591740  1.0
  Ni  Ni134  1  0.73373700  0.73340075  0.14591740  1.0
  Ni  Ni135  1  0.06707033  0.23340075  0.10425073  1.0
  Ni  Ni136  1  0.06707033  0.56673408  0.10425073  1.0
  Ni  Ni137  1  0.06707033  0.90006742  0.10425073  1.0
  Ni  Ni138  1  0.40040367  0.23340075  0.10425073  1.0
  Ni  Ni139  1  0.40040367  0.56673408  0.10425073  1.0
  Ni  Ni140  1  0.40040367  0.90006742  0.10425073  1.0
  Ni  Ni141  1  0.73373700  0.23340075  0.10425073  1.0
  Ni  Ni142  1  0.73373700  0.56673408  0.10425073  1.0
  Ni  Ni143  1  0.73373700  0.90006742  0.10425073  1.0
  Ni  Ni144  1  0.13346733  0.13346775  0.14583323  1.0
  Ni  Ni145  1  0.13346733  0.46680108  0.14583323  1.0
  Ni  Ni146  1  0.13346733  0.80013442  0.14583323  1.0
  Ni  Ni147  1  0.46680067  0.13346775  0.14583323  1.0
  Ni  Ni148  1  0.46680067  0.46680108  0.14583323  1.0
  Ni  Ni149  1  0.46680067  0.80013442  0.14583323  1.0
  Ni  Ni150  1  0.80013400  0.13346775  0.14583323  1.0
  Ni  Ni151  1  0.80013400  0.46680108  0.14583323  1.0
  Ni  Ni152  1  0.80013400  0.80013442  0.14583323  1.0
  Ni  Ni153  1  0.13346733  0.30013442  0.10416656  1.0
  Ni  Ni154  1  0.13346733  0.63346775  0.10416656  1.0
  Ni  Ni155  1  0.13346733  0.96680108  0.10416656  1.0
  Ni  Ni156  1  0.46680067  0.30013442  0.10416656  1.0
  Ni  Ni157  1  0.46680067  0.63346775  0.10416656  1.0
  Ni  Ni158  1  0.46680067  0.96680108  0.10416656  1.0
  Ni  Ni159  1  0.80013400  0.30013442  0.10416656  1.0
  Ni  Ni160  1  0.80013400  0.63346775  0.10416656  1.0
  Ni  Ni161  1  0.80013400  0.96680108  0.10416656  1.0
  W  W162  1  0.00000000  0.16666667  0.10416667  1.0
  W  W163  1  0.00000000  0.50000000  0.10416667  1.0
  W  W164  1  0.00000000  0.83333333  0.10416667  1.0
  W  W165  1  0.33333333  0.16666667  0.10416667  1.0
  W  W166  1  0.33333333  0.50000000  0.10416667  1.0
  W  W167  1  0.33333333  0.83333333  0.10416667  1.0
  W  W168  1  0.66666667  0.16666667  0.10416667  1.0
  W  W169  1  0.66666667  0.50000000  0.10416667  1.0
  W  W170  1  0.66666667  0.83333333  0.10416667  1.0
  W  W171  1  0.00000000  0.00000000  0.14583333  1.0
  W  W172  1  0.00000000  0.33333333  0.14583333  1.0
  W  W173  1  0.00000000  0.66666667  0.14583333  1.0
  W  W174  1  0.33333333  0.00000000  0.14583333  1.0
  W  W175  1  0.33333333  0.33333333  0.14583333  1.0
  W  W176  1  0.33333333  0.66666667  0.14583333  1.0
  W  W177  1  0.66666667  0.00000000  0.14583333  1.0
  W  W178  1  0.66666667  0.33333333  0.14583333  1.0
  W  W179  1  0.66666667  0.66666667  0.14583333  1.0
  Ni  Ni180  1  0.19986600  0.03319892  0.18750010  1.0
  Ni  Ni181  1  0.19986600  0.36653225  0.18750010  1.0
  Ni  Ni182  1  0.19986600  0.69986558  0.18750010  1.0
  Ni  Ni183  1  0.53319933  0.03319892  0.18750010  1.0
  Ni  Ni184  1  0.53319933  0.36653225  0.18750010  1.0
  Ni  Ni185  1  0.53319933  0.69986558  0.18750010  1.0
  Ni  Ni186  1  0.86653267  0.03319892  0.18750010  1.0
  Ni  Ni187  1  0.86653267  0.36653225  0.18750010  1.0
  Ni  Ni188  1  0.86653267  0.69986558  0.18750010  1.0
  Ni  Ni189  1  0.19986600  0.19986558  0.22916677  1.0
  Ni  Ni190  1  0.19986600  0.53319892  0.22916677  1.0
  Ni  Ni191  1  0.19986600  0.86653225  0.22916677  1.0
  Ni  Ni192  1  0.53319933  0.19986558  0.22916677  1.0
  Ni  Ni193  1  0.53319933  0.53319892  0.22916677  1.0
  Ni  Ni194  1  0.53319933  0.86653225  0.22916677  1.0
  Ni  Ni195  1  0.86653267  0.19986558  0.22916677  1.0
  Ni  Ni196  1  0.86653267  0.53319892  0.22916677  1.0
  Ni  Ni197  1  0.86653267  0.86653225  0.22916677  1.0
  Ni  Ni198  1  0.26626300  0.09993258  0.18741594  1.0
  Ni  Ni199  1  0.26626300  0.43326592  0.18741594  1.0
  Ni  Ni200  1  0.26626300  0.76659925  0.18741594  1.0
  Ni  Ni201  1  0.59959633  0.09993258  0.18741594  1.0
  Ni  Ni202  1  0.59959633  0.43326592  0.18741594  1.0
  Ni  Ni203  1  0.59959633  0.76659925  0.18741594  1.0
  Ni  Ni204  1  0.93292967  0.09993258  0.18741594  1.0
  Ni  Ni205  1  0.93292967  0.43326592  0.18741594  1.0
  Ni  Ni206  1  0.93292967  0.76659925  0.18741594  1.0
  Ni  Ni207  1  0.26626300  0.26659925  0.22908260  1.0
  Ni  Ni208  1  0.26626300  0.59993258  0.22908260  1.0
  Ni  Ni209  1  0.26626300  0.93326592  0.22908260  1.0
  Ni  Ni210  1  0.59959633  0.26659925  0.22908260  1.0
  Ni  Ni211  1  0.59959633  0.59993258  0.22908260  1.0
  Ni  Ni212  1  0.59959633  0.93326592  0.22908260  1.0
  Ni  Ni213  1  0.93292967  0.26659925  0.22908260  1.0
  Ni  Ni214  1  0.93292967  0.59993258  0.22908260  1.0
  Ni  Ni215  1  0.93292967  0.93326592  0.22908260  1.0
  Ni  Ni216  1  0.06707033  0.06673408  0.22925073  1.0
  Ni  Ni217  1  0.06707033  0.40006742  0.22925073  1.0
  Ni  Ni218  1  0.06707033  0.73340075  0.22925073  1.0
  Ni  Ni219  1  0.40040367  0.06673408  0.22925073  1.0
  Ni  Ni220  1  0.40040367  0.40006742  0.22925073  1.0
  Ni  Ni221  1  0.40040367  0.73340075  0.22925073  1.0
  Ni  Ni222  1  0.73373700  0.06673408  0.22925073  1.0
  Ni  Ni223  1  0.73373700  0.40006742  0.22925073  1.0
  Ni  Ni224  1  0.73373700  0.73340075  0.22925073  1.0
  Ni  Ni225  1  0.06707033  0.23340075  0.18758406  1.0
  Ni  Ni226  1  0.06707033  0.56673408  0.18758406  1.0
  Ni  Ni227  1  0.06707033  0.90006742  0.18758406  1.0
  Ni  Ni228  1  0.40040367  0.23340075  0.18758406  1.0
  Ni  Ni229  1  0.40040367  0.56673408  0.18758406  1.0
  Ni  Ni230  1  0.40040367  0.90006742  0.18758406  1.0
  Ni  Ni231  1  0.73373700  0.23340075  0.18758406  1.0
  Ni  Ni232  1  0.73373700  0.56673408  0.18758406  1.0
  Ni  Ni233  1  0.73373700  0.90006742  0.18758406  1.0
  Ni  Ni234  1  0.13346733  0.13346775  0.22916656  1.0
  Ni  Ni235  1  0.13346733  0.46680108  0.22916656  1.0
  Ni  Ni236  1  0.13346733  0.80013442  0.22916656  1.0
  Ni  Ni237  1  0.46680067  0.13346775  0.22916656  1.0
  Ni  Ni238  1  0.46680067  0.46680108  0.22916656  1.0
  Ni  Ni239  1  0.46680067  0.80013442  0.22916656  1.0
  Ni  Ni240  1  0.80013400  0.13346775  0.22916656  1.0
  Ni  Ni241  1  0.80013400  0.46680108  0.22916656  1.0
  Ni  Ni242  1  0.80013400  0.80013442  0.22916656  1.0
  Ni  Ni243  1  0.13346733  0.30013442  0.18749990  1.0
  Ni  Ni244  1  0.13346733  0.63346775  0.18749990  1.0
  Ni  Ni245  1  0.13346733  0.96680108  0.18749990  1.0
  Ni  Ni246  1  0.46680067  0.30013442  0.18749990  1.0
  Ni  Ni247  1  0.46680067  0.63346775  0.18749990  1.0
  Ni  Ni248  1  0.46680067  0.96680108  0.18749990  1.0
  Ni  Ni249  1  0.80013400  0.30013442  0.18749990  1.0
  Ni  Ni250  1  0.80013400  0.63346775  0.18749990  1.0
  Ni  Ni251  1  0.80013400  0.96680108  0.18749990  1.0
  W  W252  1  0.00000000  0.16666667  0.18750000  1.0
  W  W253  1  0.00000000  0.50000000  0.18750000  1.0
  W  W254  1  0.00000000  0.83333333  0.18750000  1.0
  W  W255  1  0.33333333  0.16666667  0.18750000  1.0
  W  W256  1  0.33333333  0.50000000  0.18750000  1.0
  W  W257  1  0.33333333  0.83333333  0.18750000  1.0
  W  W258  1  0.66666667  0.16666667  0.18750000  1.0
  W  W259  1  0.66666667  0.50000000  0.18750000  1.0
  W  W260  1  0.66666667  0.83333333  0.18750000  1.0
  W  W261  1  0.00000000  0.00000000  0.22916667  1.0
  W  W262  1  0.00000000  0.33333333  0.22916667  1.0
  W  W263  1  0.00000000  0.66666667  0.22916667  1.0
  W  W264  1  0.33333333  0.00000000  0.22916667  1.0
  W  W265  1  0.33333333  0.33333333  0.22916667  1.0
  W  W266  1  0.33333333  0.66666667  0.22916667  1.0
  W  W267  1  0.66666667  0.00000000  0.22916667  1.0
  W  W268  1  0.66666667  0.33333333  0.22916667  1.0
  W  W269  1  0.66666667  0.66666667  0.22916667  1.0
  Ni  Ni270  1  0.19986600  0.03319892  0.27083344  1.0
  Ni  Ni271  1  0.19986600  0.36653225  0.27083344  1.0
  Ni  Ni272  1  0.19986600  0.69986558  0.27083344  1.0
  Ni  Ni273  1  0.53319933  0.03319892  0.27083344  1.0
  Ni  Ni274  1  0.53319933  0.36653225  0.27083344  1.0
  Ni  Ni275  1  0.53319933  0.69986558  0.27083344  1.0
  Ni  Ni276  1  0.86653267  0.03319892  0.27083344  1.0
  Ni  Ni277  1  0.86653267  0.36653225  0.27083344  1.0
  Ni  Ni278  1  0.86653267  0.69986558  0.27083344  1.0
  Ni  Ni279  1  0.19986600  0.19986558  0.31250010  1.0
  Ni  Ni280  1  0.19986600  0.53319892  0.31250010  1.0
  Ni  Ni281  1  0.19986600  0.86653225  0.31250010  1.0
  Ni  Ni282  1  0.53319933  0.19986558  0.31250010  1.0
  Ni  Ni283  1  0.53319933  0.53319892  0.31250010  1.0
  Ni  Ni284  1  0.53319933  0.86653225  0.31250010  1.0
  Ni  Ni285  1  0.86653267  0.19986558  0.31250010  1.0
  Ni  Ni286  1  0.86653267  0.53319892  0.31250010  1.0
  Ni  Ni287  1  0.86653267  0.86653225  0.31250010  1.0
  Ni  Ni288  1  0.26626300  0.09993258  0.27074927  1.0
  Ni  Ni289  1  0.26626300  0.43326592  0.27074927  1.0
  Ni  Ni290  1  0.26626300  0.76659925  0.27074927  1.0
  Ni  Ni291  1  0.59959633  0.09993258  0.27074927  1.0
  Ni  Ni292  1  0.59959633  0.43326592  0.27074927  1.0
  Ni  Ni293  1  0.59959633  0.76659925  0.27074927  1.0
  Ni  Ni294  1  0.93292967  0.09993258  0.27074927  1.0
  Ni  Ni295  1  0.93292967  0.43326592  0.27074927  1.0
  Ni  Ni296  1  0.93292967  0.76659925  0.27074927  1.0
  Ni  Ni297  1  0.26626300  0.26659925  0.31241594  1.0
  Ni  Ni298  1  0.26626300  0.59993258  0.31241594  1.0
  Ni  Ni299  1  0.26626300  0.93326592  0.31241594  1.0
  Ni  Ni300  1  0.59959633  0.26659925  0.31241594  1.0
  Ni  Ni301  1  0.59959633  0.59993258  0.31241594  1.0
  Ni  Ni302  1  0.59959633  0.93326592  0.31241594  1.0
  Ni  Ni303  1  0.93292967  0.26659925  0.31241594  1.0
  Ni  Ni304  1  0.93292967  0.59993258  0.31241594  1.0
  Ni  Ni305  1  0.93292967  0.93326592  0.31241594  1.0
  Ni  Ni306  1  0.06707033  0.06673408  0.31258406  1.0
  Ni  Ni307  1  0.06707033  0.40006742  0.31258406  1.0
  Ni  Ni308  1  0.06707033  0.73340075  0.31258406  1.0
  Ni  Ni309  1  0.40040367  0.06673408  0.31258406  1.0
  Ni  Ni310  1  0.40040367  0.40006742  0.31258406  1.0
  Ni  Ni311  1  0.40040367  0.73340075  0.31258406  1.0
  Ni  Ni312  1  0.73373700  0.06673408  0.31258406  1.0
  Ni  Ni313  1  0.73373700  0.40006742  0.31258406  1.0
  Ni  Ni314  1  0.73373700  0.73340075  0.31258406  1.0
  Ni  Ni315  1  0.06707033  0.23340075  0.27091740  1.0
  Ni  Ni316  1  0.06707033  0.56673408  0.27091740  1.0
  Ni  Ni317  1  0.06707033  0.90006742  0.27091740  1.0
  Ni  Ni318  1  0.40040367  0.23340075  0.27091740  1.0
  Ni  Ni319  1  0.40040367  0.56673408  0.27091740  1.0
  Ni  Ni320  1  0.40040367  0.90006742  0.27091740  1.0
  Ni  Ni321  1  0.73373700  0.23340075  0.27091740  1.0
  Ni  Ni322  1  0.73373700  0.56673408  0.27091740  1.0
  Ni  Ni323  1  0.73373700  0.90006742  0.27091740  1.0
  Ni  Ni324  1  0.13346733  0.13346775  0.31249990  1.0
  Ni  Ni325  1  0.13346733  0.46680108  0.31249990  1.0
  Ni  Ni326  1  0.13346733  0.80013442  0.31249990  1.0
  Ni  Ni327  1  0.46680067  0.13346775  0.31249990  1.0
  Ni  Ni328  1  0.46680067  0.46680108  0.31249990  1.0
  Ni  Ni329  1  0.46680067  0.80013442  0.31249990  1.0
  Ni  Ni330  1  0.80013400  0.13346775  0.31249990  1.0
  Ni  Ni331  1  0.80013400  0.46680108  0.31249990  1.0
  Ni  Ni332  1  0.80013400  0.80013442  0.31249990  1.0
  Ni  Ni333  1  0.13346733  0.30013442  0.27083323  1.0
  Ni  Ni334  1  0.13346733  0.63346775  0.27083323  1.0
  Ni  Ni335  1  0.13346733  0.96680108  0.27083323  1.0
  Ni  Ni336  1  0.46680067  0.30013442  0.27083323  1.0
  Ni  Ni337  1  0.46680067  0.63346775  0.27083323  1.0
  Ni  Ni338  1  0.46680067  0.96680108  0.27083323  1.0
  Ni  Ni339  1  0.80013400  0.30013442  0.27083323  1.0
  Ni  Ni340  1  0.80013400  0.63346775  0.27083323  1.0
  Ni  Ni341  1  0.80013400  0.96680108  0.27083323  1.0
  W  W342  1  0.00000000  0.16666667  0.27083333  1.0
  W  W343  1  0.00000000  0.50000000  0.27083333  1.0
  W  W344  1  0.00000000  0.83333333  0.27083333  1.0
  W  W345  1  0.33333333  0.16666667  0.27083333  1.0
  W  W346  1  0.33333333  0.50000000  0.27083333  1.0
  W  W347  1  0.33333333  0.83333333  0.27083333  1.0
  W  W348  1  0.66666667  0.16666667  0.27083333  1.0
  W  W349  1  0.66666667  0.50000000  0.27083333  1.0
  W  W350  1  0.66666667  0.83333333  0.27083333  1.0
  W  W351  1  0.00000000  0.00000000  0.31250000  1.0
  W  W352  1  0.00000000  0.33333333  0.31250000  1.0
  W  W353  1  0.00000000  0.66666667  0.31250000  1.0
  W  W354  1  0.33333333  0.00000000  0.31250000  1.0
  W  W355  1  0.33333333  0.33333333  0.31250000  1.0
  W  W356  1  0.33333333  0.66666667  0.31250000  1.0
  W  W357  1  0.66666667  0.00000000  0.31250000  1.0
  W  W358  1  0.66666667  0.33333333  0.31250000  1.0
  W  W359  1  0.66666667  0.66666667  0.31250000  1.0
  Ni  Ni360  1  0.19986600  0.03319892  0.35416677  1.0
  Ni  Ni361  1  0.19986600  0.36653225  0.35416677  1.0
  Ni  Ni362  1  0.19986600  0.69986558  0.35416677  1.0
  Ni  Ni363  1  0.53319933  0.03319892  0.35416677  1.0
  Ni  Ni364  1  0.53319933  0.36653225  0.35416677  1.0
  Ni  Ni365  1  0.53319933  0.69986558  0.35416677  1.0
  Ni  Ni366  1  0.86653267  0.03319892  0.35416677  1.0
  Ni  Ni367  1  0.86653267  0.36653225  0.35416677  1.0
  Ni  Ni368  1  0.86653267  0.69986558  0.35416677  1.0
  Ni  Ni369  1  0.19986600  0.19986558  0.39583344  1.0
  Ni  Ni370  1  0.19986600  0.53319892  0.39583344  1.0
  Ni  Ni371  1  0.19986600  0.86653225  0.39583344  1.0
  Ni  Ni372  1  0.53319933  0.19986558  0.39583344  1.0
  Ni  Ni373  1  0.53319933  0.53319892  0.39583344  1.0
  Ni  Ni374  1  0.53319933  0.86653225  0.39583344  1.0
  Ni  Ni375  1  0.86653267  0.19986558  0.39583344  1.0
  Ni  Ni376  1  0.86653267  0.53319892  0.39583344  1.0
  Ni  Ni377  1  0.86653267  0.86653225  0.39583344  1.0
  Ni  Ni378  1  0.26626300  0.09993258  0.35408260  1.0
  Ni  Ni379  1  0.26626300  0.43326592  0.35408260  1.0
  Ni  Ni380  1  0.26626300  0.76659925  0.35408260  1.0
  Ni  Ni381  1  0.59959633  0.09993258  0.35408260  1.0
  Ni  Ni382  1  0.59959633  0.43326592  0.35408260  1.0
  Ni  Ni383  1  0.59959633  0.76659925  0.35408260  1.0
  Ni  Ni384  1  0.93292967  0.09993258  0.35408260  1.0
  Ni  Ni385  1  0.93292967  0.43326592  0.35408260  1.0
  Ni  Ni386  1  0.93292967  0.76659925  0.35408260  1.0
  Ni  Ni387  1  0.26626300  0.26659925  0.39574927  1.0
  Ni  Ni388  1  0.26626300  0.59993258  0.39574927  1.0
  Ni  Ni389  1  0.26626300  0.93326592  0.39574927  1.0
  Ni  Ni390  1  0.59959633  0.26659925  0.39574927  1.0
  Ni  Ni391  1  0.59959633  0.59993258  0.39574927  1.0
  Ni  Ni392  1  0.59959633  0.93326592  0.39574927  1.0
  Ni  Ni393  1  0.93292967  0.26659925  0.39574927  1.0
  Ni  Ni394  1  0.93292967  0.59993258  0.39574927  1.0
  Ni  Ni395  1  0.93292967  0.93326592  0.39574927  1.0
  Ni  Ni396  1  0.06707033  0.06673408  0.39591740  1.0
  Ni  Ni397  1  0.06707033  0.40006742  0.39591740  1.0
  Ni  Ni398  1  0.06707033  0.73340075  0.39591740  1.0
  Ni  Ni399  1  0.40040367  0.06673408  0.39591740  1.0
  Ni  Ni400  1  0.40040367  0.40006742  0.39591740  1.0
  Ni  Ni401  1  0.40040367  0.73340075  0.39591740  1.0
  Ni  Ni402  1  0.73373700  0.06673408  0.39591740  1.0
  Ni  Ni403  1  0.73373700  0.40006742  0.39591740  1.0
  Ni  Ni404  1  0.73373700  0.73340075  0.39591740  1.0
  Ni  Ni405  1  0.06707033  0.23340075  0.35425073  1.0
  Ni  Ni406  1  0.06707033  0.56673408  0.35425073  1.0
  Ni  Ni407  1  0.06707033  0.90006742  0.35425073  1.0
  Ni  Ni408  1  0.40040367  0.23340075  0.35425073  1.0
  Ni  Ni409  1  0.40040367  0.56673408  0.35425073  1.0
  Ni  Ni410  1  0.40040367  0.90006742  0.35425073  1.0
  Ni  Ni411  1  0.73373700  0.23340075  0.35425073  1.0
  Ni  Ni412  1  0.73373700  0.56673408  0.35425073  1.0
  Ni  Ni413  1  0.73373700  0.90006742  0.35425073  1.0
  Ni  Ni414  1  0.13346733  0.13346775  0.39583323  1.0
  Ni  Ni415  1  0.13346733  0.46680108  0.39583323  1.0
  Ni  Ni416  1  0.13346733  0.80013442  0.39583323  1.0
  Ni  Ni417  1  0.46680067  0.13346775  0.39583323  1.0
  Ni  Ni418  1  0.46680067  0.46680108  0.39583323  1.0
  Ni  Ni419  1  0.46680067  0.80013442  0.39583323  1.0
  Ni  Ni420  1  0.80013400  0.13346775  0.39583323  1.0
  Ni  Ni421  1  0.80013400  0.46680108  0.39583323  1.0
  Ni  Ni422  1  0.80013400  0.80013442  0.39583323  1.0
  Ni  Ni423  1  0.13346733  0.30013442  0.35416656  1.0
  Ni  Ni424  1  0.13346733  0.63346775  0.35416656  1.0
  Ni  Ni425  1  0.13346733  0.96680108  0.35416656  1.0
  Ni  Ni426  1  0.46680067  0.30013442  0.35416656  1.0
  Ni  Ni427  1  0.46680067  0.63346775  0.35416656  1.0
  Ni  Ni428  1  0.46680067  0.96680108  0.35416656  1.0
  Ni  Ni429  1  0.80013400  0.30013442  0.35416656  1.0
  Ni  Ni430  1  0.80013400  0.63346775  0.35416656  1.0
  Ni  Ni431  1  0.80013400  0.96680108  0.35416656  1.0
  W  W432  1  0.00000000  0.16666667  0.35416667  1.0
  W  W433  1  0.00000000  0.50000000  0.35416667  1.0
  W  W434  1  0.00000000  0.83333333  0.35416667  1.0
  W  W435  1  0.33333333  0.16666667  0.35416667  1.0
  W  W436  1  0.33333333  0.50000000  0.35416667  1.0
  W  W437  1  0.33333333  0.83333333  0.35416667  1.0
  W  W438  1  0.66666667  0.16666667  0.35416667  1.0
  W  W439  1  0.66666667  0.50000000  0.35416667  1.0
  W  W440  1  0.66666667  0.83333333  0.35416667  1.0
  W  W441  1  0.00000000  0.00000000  0.39583333  1.0
  W  W442  1  0.00000000  0.33333333  0.39583333  1.0
  W  W443  1  0.00000000  0.66666667  0.39583333  1.0
  W  W444  1  0.33333333  0.00000000  0.39583333  1.0
  W  W445  1  0.33333333  0.33333333  0.39583333  1.0
  W  W446  1  0.33333333  0.66666667  0.39583333  1.0
  W  W447  1  0.66666667  0.00000000  0.39583333  1.0
  W  W448  1  0.66666667  0.33333333  0.39583333  1.0
  W  W449  1  0.66666667  0.66666667  0.39583333  1.0
