# generated using pymatgen
data_Ni4W
_symmetry_space_group_name_H-M   'P 1'
_cell_length_a   10.65744599
_cell_length_b   20.24361659
_cell_length_c   44.28527690
_cell_angle_alpha   109.84934066
_cell_angle_beta   66.35362273
_cell_angle_gamma   58.23344613
_symmetry_Int_Tables_number   1
_chemical_formula_structural   Ni4W
_chemical_formula_sum   'Ni144 W36'
_cell_volume   5261.63184113
_cell_formula_units_Z   36
loop_
 _symmetry_equiv_pos_site_id
 _symmetry_equiv_pos_as_xyz
  1  'x, y, z'
loop_
 _atom_site_type_symbol
 _atom_site_label
 _atom_site_symmetry_multiplicity
 _atom_site_fract_x
 _atom_site_fract_y
 _atom_site_fract_z
 _atom_site_occupancy
  Ni  Ni0  1  0.33333250  0.19986600  0.07012135  1.0
  Ni  Ni1  1  0.33333250  0.53319933  0.07012135  1.0
  Ni  Ni2  1  0.33333250  0.86653267  0.07012135  1.0
  Ni  Ni3  1  0.66666583  0.19986600  0.07012135  1.0
  Ni  Ni4  1  0.66666583  0.53319933  0.07012135  1.0
  Ni  Ni5  1  0.66666583  0.86653267  0.07012135  1.0
  Ni  Ni6  1  0.99999917  0.19986600  0.07012135  1.0
  Ni  Ni7  1  0.99999917  0.53319933  0.07012135  1.0
  Ni  Ni8  1  0.99999917  0.86653267  0.07012135  1.0
  Ni  Ni9  1  0.00067250  0.26626300  0.02987915  1.0
  Ni  Ni10  1  0.00067250  0.59959633  0.02987915  1.0
  Ni  Ni11  1  0.00067250  0.93292967  0.02987915  1.0
  Ni  Ni12  1  0.33400583  0.26626300  0.02987915  1.0
  Ni  Ni13  1  0.33400583  0.59959633  0.02987915  1.0
  Ni  Ni14  1  0.33400583  0.93292967  0.02987915  1.0
  Ni  Ni15  1  0.66733917  0.26626300  0.02987915  1.0
  Ni  Ni16  1  0.66733917  0.59959633  0.02987915  1.0
  Ni  Ni17  1  0.66733917  0.93292967  0.02987915  1.0
  Ni  Ni18  1  0.33266083  0.06707033  0.05020175  1.0
  Ni  Ni19  1  0.33266083  0.40040367  0.05020175  1.0
  Ni  Ni20  1  0.33266083  0.73373700  0.05020175  1.0
  Ni  Ni21  1  0.66599417  0.06707033  0.05020175  1.0
  Ni  Ni22  1  0.66599417  0.40040367  0.05020175  1.0
  Ni  Ni23  1  0.66599417  0.73373700  0.05020175  1.0
  Ni  Ni24  1  0.99932750  0.06707033  0.05020175  1.0
  Ni  Ni25  1  0.99932750  0.40040367  0.05020175  1.0
  Ni  Ni26  1  0.99932750  0.73373700  0.05020175  1.0
  Ni  Ni27  1  0.00000083  0.13346733  0.00995955  1.0
  Ni  Ni28  1  0.00000083  0.46680067  0.00995955  1.0
  Ni  Ni29  1  0.00000083  0.80013400  0.00995955  1.0
  Ni  Ni30  1  0.33333417  0.13346733  0.00995955  1.0
  Ni  Ni31  1  0.33333417  0.46680067  0.00995955  1.0
  Ni  Ni32  1  0.33333417  0.80013400  0.00995955  1.0
  Ni  Ni33  1  0.66666750  0.13346733  0.00995955  1.0
  Ni  Ni34  1  0.66666750  0.46680067  0.00995955  1.0
  Ni  Ni35  1  0.66666750  0.80013400  0.00995955  1.0
  W  W36  1  0.00000000  0.00000000  0.09004045  1.0
  W  W37  1  0.00000000  0.33333333  0.09004045  1.0
  W  W38  1  0.00000000  0.66666667  0.09004045  1.0
  W  W39  1  0.33333333  0.00000000  0.09004045  1.0
  W  W40  1  0.33333333  0.33333333  0.09004045  1.0
  W  W41  1  0.33333333  0.66666667  0.09004045  1.0
  W  W42  1  0.66666667  0.00000000  0.09004045  1.0
  W  W43  1  0.66666667  0.33333333  0.09004045  1.0
  W  W44  1  0.66666667  0.66666667  0.09004045  1.0
  Ni  Ni45  1  0.33333250  0.19986600  0.17012135  1.0
  Ni  Ni46  1  0.33333250  0.53319933  0.17012135  1.0
  Ni  Ni47  1  0.33333250  0.86653267  0.17012135  1.0
  Ni  Ni48  1  0.66666583  0.19986600  0.17012135  1.0
  Ni  Ni49  1  0.66666583  0.53319933  0.17012135  1.0
  Ni  Ni50  1  0.66666583  0.86653267  0.17012135  1.0
  Ni  Ni51  1  0.99999917  0.19986600  0.17012135  1.0
  Ni  Ni52  1  0.99999917  0.53319933  0.17012135  1.0
  Ni  Ni53  1  0.99999917  0.86653267  0.17012135  1.0
  Ni  Ni54  1  0.00067250  0.26626300  0.12987915  1.0
  Ni  Ni55  1  0.00067250  0.59959633  0.12987915  1.0
  Ni  Ni56  1  0.00067250  0.93292967  0.12987915  1.0
  Ni  Ni57  1  0.33400583  0.26626300  0.12987915  1.0
  Ni  Ni58  1  0.33400583  0.59959633  0.12987915  1.0
  Ni  Ni59  1  0.33400583  0.93292967  0.12987915  1.0
  Ni  Ni60  1  0.66733917  0.26626300  0.12987915  1.0
  Ni  Ni61  1  0.66733917  0.59959633  0.12987915  1.0
  Ni  Ni62  1  0.66733917  0.93292967  0.12987915  1.0
  Ni  Ni63  1  0.33266083  0.06707033  0.15020175  1.0
  Ni  Ni64  1  0.33266083  0.40040367  0.15020175  1.0
  Ni  Ni65  1  0.33266083  0.73373700  0.15020175  1.0
  Ni  Ni66  1  0.66599417  0.06707033  0.15020175  1.0
  Ni  Ni67  1  0.66599417  0.40040367  0.15020175  1.0
  Ni  Ni68  1  0.66599417  0.73373700  0.15020175  1.0
  Ni  Ni69  1  0.99932750  0.06707033  0.15020175  1.0
  Ni  Ni70  1  0.99932750  0.40040367  0.15020175  1.0
  Ni  Ni71  1  0.99932750  0.73373700  0.15020175  1.0
  Ni  Ni72  1  0.00000083  0.13346733  0.10995955  1.0
  Ni  Ni73  1  0.00000083  0.46680067  0.10995955  1.0
  Ni  Ni74  1  0.00000083  0.80013400  0.10995955  1.0
  Ni  Ni75  1  0.33333417  0.13346733  0.10995955  1.0
  Ni  Ni76  1  0.33333417  0.46680067  0.10995955  1.0
  Ni  Ni77  1  0.33333417  0.80013400  0.10995955  1.0
  Ni  Ni78  1  0.66666750  0.13346733  0.10995955  1.0
  Ni  Ni79  1  0.66666750  0.46680067  0.10995955  1.0
  Ni  Ni80  1  0.66666750  0.80013400  0.10995955  1.0
  W  W81  1  0.00000000  0.00000000  0.19004045  1.0
  W  W82  1  0.00000000  0.33333333  0.19004045  1.0
  W  W83  1  0.00000000  0.66666667  0.19004045  1.0
  W  W84  1  0.33333333  0.00000000  0.19004045  1.0
  W  W85  1  0.33333333  0.33333333  0.19004045  1.0
  W  W86  1  0.33333333  0.66666667  0.19004045  1.0
  W  W87  1  0.66666667  0.00000000  0.19004045  1.0
  W  W88  1  0.66666667  0.33333333  0.19004045  1.0
  W  W89  1  0.66666667  0.66666667  0.19004045  1.0
  Ni  Ni90  1  0.33333250  0.19986600  0.27012135  1.0
  Ni  Ni91  1  0.33333250  0.53319933  0.27012135  1.0
  Ni  Ni92  1  0.33333250  0.86653267  0.27012135  1.0
  Ni  Ni93  1  0.66666583  0.19986600  0.27012135  1.0
  Ni  Ni94  1  0.66666583  0.53319933  0.27012135  1.0
  Ni  Ni95  1  0.66666583  0.86653267  0.27012135  1.0
  Ni  Ni96  1  0.99999917  0.19986600  0.27012135  1.0
  Ni  Ni97  1  0.99999917  0.53319933  0.27012135  1.0
  Ni  Ni98  1  0.99999917  0.86653267  0.27012135  1.0
  Ni  Ni99  1  0.00067250  0.26626300  0.22987915  1.0
  Ni  Ni100  1  0.00067250  0.59959633  0.22987915  1.0
  Ni  Ni101  1  0.00067250  0.93292967  0.22987915  1.0
  Ni  Ni102  1  0.33400583  0.26626300  0.22987915  1.0
  Ni  Ni103  1  0.33400583  0.59959633  0.22987915  1.0
  Ni  Ni104  1  0.33400583  0.93292967  0.22987915  1.0
  Ni  Ni105  1  0.66733917  0.26626300  0.22987915  1.0
  Ni  Ni106  1  0.66733917  0.59959633  0.22987915  1.0
  Ni  Ni107  1  0.66733917  0.93292967  0.22987915  1.0
  Ni  Ni108  1  0.33266083  0.06707033  0.25020175  1.0
  Ni  Ni109  1  0.33266083  0.40040367  0.25020175  1.0
  Ni  Ni110  1  0.33266083  0.73373700  0.25020175  1.0
  Ni  Ni111  1  0.66599417  0.06707033  0.25020175  1.0
  Ni  Ni112  1  0.66599417  0.40040367  0.25020175  1.0
  Ni  Ni113  1  0.66599417  0.73373700  0.25020175  1.0
  Ni  Ni114  1  0.99932750  0.06707033  0.25020175  1.0
  Ni  Ni115  1  0.99932750  0.40040367  0.25020175  1.0
  Ni  Ni116  1  0.99932750  0.73373700  0.25020175  1.0
  Ni  Ni117  1  0.00000083  0.13346733  0.20995955  1.0
  Ni  Ni118  1  0.00000083  0.46680067  0.20995955  1.0
  Ni  Ni119  1  0.00000083  0.80013400  0.20995955  1.0
  Ni  Ni120  1  0.33333417  0.13346733  0.20995955  1.0
  Ni  Ni121  1  0.33333417  0.46680067  0.20995955  1.0
  Ni  Ni122  1  0.33333417  0.80013400  0.20995955  1.0
  Ni  Ni123  1  0.66666750  0.13346733  0.20995955  1.0
  Ni  Ni124  1  0.66666750  0.46680067  0.20995955  1.0
  Ni  Ni125  1  0.66666750  0.80013400  0.20995955  1.0
  W  W126  1  0.00000000  0.00000000  0.29004045  1.0
  W  W127  1  0.00000000  0.33333333  0.29004045  1.0
  W  W128  1  0.00000000  0.66666667  0.29004045  1.0
  W  W129  1  0.33333333  0.00000000  0.29004045  1.0
  W  W130  1  0.33333333  0.33333333  0.29004045  1.0
  W  W131  1  0.33333333  0.66666667  0.29004045  1.0
  W  W132  1  0.66666667  0.00000000  0.29004045  1.0
  W  W133  1  0.66666667  0.33333333  0.29004045  1.0
  W  W134  1  0.66666667  0.66666667  0.29004045  1.0
  Ni  Ni135  1  0.33333250  0.19986600  0.37012135  1.0
  Ni  Ni136  1  0.33333250  0.53319933  0.37012135  1.0
  Ni  Ni137  1  0.33333250  0.86653267  0.37012135  1.0
  Ni  Ni138  1  0.66666583  0.19986600  0.37012135  1.0
  Ni  Ni139  1  0.66666583  0.53319933  0.37012135  1.0
  Ni  Ni140  1  0.66666583  0.86653267  0.37012135  1.0
  Ni  Ni141  1  0.99999917  0.19986600  0.37012135  1.0
  Ni  Ni142  1  0.99999917  0.53319933  0.37012135  1.0
  Ni  Ni143  1  0.99999917  0.86653267  0.37012135  1.0
  Ni  Ni144  1  0.00067250  0.26626300  0.32987915  1.0
  Ni  Ni145  1  0.00067250  0.59959633  0.32987915  1.0
  Ni  Ni146  1  0.00067250  0.93292967  0.32987915  1.0
  Ni  Ni147  1  0.33400583  0.26626300  0.32987915  1.0
  Ni  Ni148  1  0.33400583  0.59959633  0.32987915  1.0
  Ni  Ni149  1  0.33400583  0.93292967  0.32987915  1.0
  Ni  Ni150  1  0.66733917  0.26626300  0.32987915  1.0
  Ni  Ni151  1  0.66733917  0.59959633  0.32987915  1.0
  Ni  Ni152  1  0.66733917  0.93292967  0.32987915  1.0
  Ni  Ni153  1  0.33266083  0.06707033  0.35020175  1.0
  Ni  Ni154  1  0.33266083  0.40040367  0.35020175  1.0
  Ni  Ni155  1  0.33266083  0.73373700  0.35020175  1.0
  Ni  Ni156  1  0.66599417  0.06707033  0.35020175  1.0
  Ni  Ni157  1  0.66599417  0.40040367  0.35020175  1.0
  Ni  Ni158  1  0.66599417  0.73373700  0.35020175  1.0
  Ni  Ni159  1  0.99932750  0.06707033  0.35020175  1.0
  Ni  Ni160  1  0.99932750  0.40040367  0.35020175  1.0
  Ni  Ni161  1  0.99932750  0.73373700  0.35020175  1.0
  Ni  Ni162  1  0.00000083  0.13346733  0.30995955  1.0
  Ni  Ni163  1  0.00000083  0.46680067  0.30995955  1.0
  Ni  Ni164  1  0.00000083  0.80013400  0.30995955  1.0
  Ni  Ni165  1  0.33333417  0.13346733  0.30995955  1.0
  Ni  Ni166  1  0.33333417  0.46680067  0.30995955  1.0
  Ni  Ni167  1  0.33333417  0.80013400  0.30995955  1.0
  Ni  Ni168  1  0.66666750  0.13346733  0.30995955  1.0
  Ni  Ni169  1  0.66666750  0.46680067  0.30995955  1.0
  Ni  Ni170  1  0.66666750  0.80013400  0.30995955  1.0
  W  W171  1  0.00000000  0.00000000  0.39004045  1.0
  W  W172  1  0.00000000  0.33333333  0.39004045  1.0
  W  W173  1  0.00000000  0.66666667  0.39004045  1.0
  W  W174  1  0.33333333  0.00000000  0.39004045  1.0
  W  W175  1  0.33333333  0.33333333  0.39004045  1.0
  W  W176  1  0.33333333  0.66666667  0.39004045  1.0
  W  W177  1  0.66666667  0.00000000  0.39004045  1.0
  W  W178  1  0.66666667  0.33333333  0.39004045  1.0
  W  W179  1  0.66666667  0.66666667  0.39004045  1.0
