# generated using pymatgen
data_Ni4W
_symmetry_space_group_name_H-M   'P 1'
_cell_length_a   10.65744599
_cell_length_b   31.56128550
_cell_length_c   35.42822152
_cell_angle_alpha   56.19392625
_cell_angle_beta   66.35362273
_cell_angle_gamma   59.56822798
_symmetry_Int_Tables_number   1
_chemical_formula_structural   Ni4W
_chemical_formula_sum   'Ni216 W54'
_cell_volume   8418.61094580
_cell_formula_units_Z   54
loop_
 _symmetry_equiv_pos_site_id
 _symmetry_equiv_pos_as_xyz
  1  'x, y, z'
loop_
 _atom_site_type_symbol
 _atom_site_label
 _atom_site_symmetry_multiplicity
 _atom_site_fract_x
 _atom_site_fract_y
 _atom_site_fract_z
 _atom_site_occupancy
  Ni  Ni0  1  0.06639783  0.23340033  0.03137625  1.0
  Ni  Ni1  1  0.06639783  0.56673367  0.03137625  1.0
  Ni  Ni2  1  0.06639783  0.90006700  0.03137625  1.0
  Ni  Ni3  1  0.39973117  0.23340033  0.03137625  1.0
  Ni  Ni4  1  0.39973117  0.56673367  0.03137625  1.0
  Ni  Ni5  1  0.39973117  0.90006700  0.03137625  1.0
  Ni  Ni6  1  0.73306450  0.23340033  0.03137625  1.0
  Ni  Ni7  1  0.73306450  0.56673367  0.03137625  1.0
  Ni  Ni8  1  0.73306450  0.90006700  0.03137625  1.0
  Ni  Ni9  1  0.06639783  0.06673367  0.09387625  1.0
  Ni  Ni10  1  0.06639783  0.40006700  0.09387625  1.0
  Ni  Ni11  1  0.06639783  0.73340033  0.09387625  1.0
  Ni  Ni12  1  0.39973117  0.06673367  0.09387625  1.0
  Ni  Ni13  1  0.39973117  0.40006700  0.09387625  1.0
  Ni  Ni14  1  0.39973117  0.73340033  0.09387625  1.0
  Ni  Ni15  1  0.73306450  0.06673367  0.09387625  1.0
  Ni  Ni16  1  0.73306450  0.40006700  0.09387625  1.0
  Ni  Ni17  1  0.73306450  0.73340033  0.09387625  1.0
  Ni  Ni18  1  0.19986517  0.20020183  0.09362406  1.0
  Ni  Ni19  1  0.19986517  0.53353517  0.09362406  1.0
  Ni  Ni20  1  0.19986517  0.86686850  0.09362406  1.0
  Ni  Ni21  1  0.53319850  0.20020183  0.09362406  1.0
  Ni  Ni22  1  0.53319850  0.53353517  0.09362406  1.0
  Ni  Ni23  1  0.53319850  0.86686850  0.09362406  1.0
  Ni  Ni24  1  0.86653183  0.20020183  0.09362406  1.0
  Ni  Ni25  1  0.86653183  0.53353517  0.09362406  1.0
  Ni  Ni26  1  0.86653183  0.86686850  0.09362406  1.0
  Ni  Ni27  1  0.19986517  0.03353517  0.03112406  1.0
  Ni  Ni28  1  0.19986517  0.36686850  0.03112406  1.0
  Ni  Ni29  1  0.19986517  0.70020183  0.03112406  1.0
  Ni  Ni30  1  0.53319850  0.03353517  0.03112406  1.0
  Ni  Ni31  1  0.53319850  0.36686850  0.03112406  1.0
  Ni  Ni32  1  0.53319850  0.70020183  0.03112406  1.0
  Ni  Ni33  1  0.86653183  0.03353517  0.03112406  1.0
  Ni  Ni34  1  0.86653183  0.36686850  0.03112406  1.0
  Ni  Ni35  1  0.86653183  0.70020183  0.03112406  1.0
  Ni  Ni36  1  0.13346817  0.29979817  0.03137594  1.0
  Ni  Ni37  1  0.13346817  0.63313150  0.03137594  1.0
  Ni  Ni38  1  0.13346817  0.96646483  0.03137594  1.0
  Ni  Ni39  1  0.46680150  0.29979817  0.03137594  1.0
  Ni  Ni40  1  0.46680150  0.63313150  0.03137594  1.0
  Ni  Ni41  1  0.46680150  0.96646483  0.03137594  1.0
  Ni  Ni42  1  0.80013483  0.29979817  0.03137594  1.0
  Ni  Ni43  1  0.80013483  0.63313150  0.03137594  1.0
  Ni  Ni44  1  0.80013483  0.96646483  0.03137594  1.0
  Ni  Ni45  1  0.13346817  0.13313150  0.09387594  1.0
  Ni  Ni46  1  0.13346817  0.46646483  0.09387594  1.0
  Ni  Ni47  1  0.13346817  0.79979817  0.09387594  1.0
  Ni  Ni48  1  0.46680150  0.13313150  0.09387594  1.0
  Ni  Ni49  1  0.46680150  0.46646483  0.09387594  1.0
  Ni  Ni50  1  0.46680150  0.79979817  0.09387594  1.0
  Ni  Ni51  1  0.80013483  0.13313150  0.09387594  1.0
  Ni  Ni52  1  0.80013483  0.46646483  0.09387594  1.0
  Ni  Ni53  1  0.80013483  0.79979817  0.09387594  1.0
  Ni  Ni54  1  0.26693550  0.26659967  0.09362375  1.0
  Ni  Ni55  1  0.26693550  0.59993300  0.09362375  1.0
  Ni  Ni56  1  0.26693550  0.93326633  0.09362375  1.0
  Ni  Ni57  1  0.60026883  0.26659967  0.09362375  1.0
  Ni  Ni58  1  0.60026883  0.59993300  0.09362375  1.0
  Ni  Ni59  1  0.60026883  0.93326633  0.09362375  1.0
  Ni  Ni60  1  0.93360217  0.26659967  0.09362375  1.0
  Ni  Ni61  1  0.93360217  0.59993300  0.09362375  1.0
  Ni  Ni62  1  0.93360217  0.93326633  0.09362375  1.0
  Ni  Ni63  1  0.26693550  0.09993300  0.03112375  1.0
  Ni  Ni64  1  0.26693550  0.43326633  0.03112375  1.0
  Ni  Ni65  1  0.26693550  0.76659967  0.03112375  1.0
  Ni  Ni66  1  0.60026883  0.09993300  0.03112375  1.0
  Ni  Ni67  1  0.60026883  0.43326633  0.03112375  1.0
  Ni  Ni68  1  0.60026883  0.76659967  0.03112375  1.0
  Ni  Ni69  1  0.93360217  0.09993300  0.03112375  1.0
  Ni  Ni70  1  0.93360217  0.43326633  0.03112375  1.0
  Ni  Ni71  1  0.93360217  0.76659967  0.03112375  1.0
  W  W72  1  0.00000000  0.16666667  0.03125000  1.0
  W  W73  1  0.00000000  0.50000000  0.03125000  1.0
  W  W74  1  0.00000000  0.83333333  0.03125000  1.0
  W  W75  1  0.33333333  0.16666667  0.03125000  1.0
  W  W76  1  0.33333333  0.50000000  0.03125000  1.0
  W  W77  1  0.33333333  0.83333333  0.03125000  1.0
  W  W78  1  0.66666667  0.16666667  0.03125000  1.0
  W  W79  1  0.66666667  0.50000000  0.03125000  1.0
  W  W80  1  0.66666667  0.83333333  0.03125000  1.0
  W  W81  1  0.00000000  0.00000000  0.09375000  1.0
  W  W82  1  0.00000000  0.33333333  0.09375000  1.0
  W  W83  1  0.00000000  0.66666667  0.09375000  1.0
  W  W84  1  0.33333333  0.00000000  0.09375000  1.0
  W  W85  1  0.33333333  0.33333333  0.09375000  1.0
  W  W86  1  0.33333333  0.66666667  0.09375000  1.0
  W  W87  1  0.66666667  0.00000000  0.09375000  1.0
  W  W88  1  0.66666667  0.33333333  0.09375000  1.0
  W  W89  1  0.66666667  0.66666667  0.09375000  1.0
  Ni  Ni90  1  0.06639783  0.23340033  0.15637625  1.0
  Ni  Ni91  1  0.06639783  0.56673367  0.15637625  1.0
  Ni  Ni92  1  0.06639783  0.90006700  0.15637625  1.0
  Ni  Ni93  1  0.39973117  0.23340033  0.15637625  1.0
  Ni  Ni94  1  0.39973117  0.56673367  0.15637625  1.0
  Ni  Ni95  1  0.39973117  0.90006700  0.15637625  1.0
  Ni  Ni96  1  0.73306450  0.23340033  0.15637625  1.0
  Ni  Ni97  1  0.73306450  0.56673367  0.15637625  1.0
  Ni  Ni98  1  0.73306450  0.90006700  0.15637625  1.0
  Ni  Ni99  1  0.06639783  0.06673367  0.21887625  1.0
  Ni  Ni100  1  0.06639783  0.40006700  0.21887625  1.0
  Ni  Ni101  1  0.06639783  0.73340033  0.21887625  1.0
  Ni  Ni102  1  0.39973117  0.06673367  0.21887625  1.0
  Ni  Ni103  1  0.39973117  0.40006700  0.21887625  1.0
  Ni  Ni104  1  0.39973117  0.73340033  0.21887625  1.0
  Ni  Ni105  1  0.73306450  0.06673367  0.21887625  1.0
  Ni  Ni106  1  0.73306450  0.40006700  0.21887625  1.0
  Ni  Ni107  1  0.73306450  0.73340033  0.21887625  1.0
  Ni  Ni108  1  0.19986517  0.20020183  0.21862406  1.0
  Ni  Ni109  1  0.19986517  0.53353517  0.21862406  1.0
  Ni  Ni110  1  0.19986517  0.86686850  0.21862406  1.0
  Ni  Ni111  1  0.53319850  0.20020183  0.21862406  1.0
  Ni  Ni112  1  0.53319850  0.53353517  0.21862406  1.0
  Ni  Ni113  1  0.53319850  0.86686850  0.21862406  1.0
  Ni  Ni114  1  0.86653183  0.20020183  0.21862406  1.0
  Ni  Ni115  1  0.86653183  0.53353517  0.21862406  1.0
  Ni  Ni116  1  0.86653183  0.86686850  0.21862406  1.0
  Ni  Ni117  1  0.19986517  0.03353517  0.15612406  1.0
  Ni  Ni118  1  0.19986517  0.36686850  0.15612406  1.0
  Ni  Ni119  1  0.19986517  0.70020183  0.15612406  1.0
  Ni  Ni120  1  0.53319850  0.03353517  0.15612406  1.0
  Ni  Ni121  1  0.53319850  0.36686850  0.15612406  1.0
  Ni  Ni122  1  0.53319850  0.70020183  0.15612406  1.0
  Ni  Ni123  1  0.86653183  0.03353517  0.15612406  1.0
  Ni  Ni124  1  0.86653183  0.36686850  0.15612406  1.0
  Ni  Ni125  1  0.86653183  0.70020183  0.15612406  1.0
  Ni  Ni126  1  0.13346817  0.29979817  0.15637594  1.0
  Ni  Ni127  1  0.13346817  0.63313150  0.15637594  1.0
  Ni  Ni128  1  0.13346817  0.96646483  0.15637594  1.0
  Ni  Ni129  1  0.46680150  0.29979817  0.15637594  1.0
  Ni  Ni130  1  0.46680150  0.63313150  0.15637594  1.0
  Ni  Ni131  1  0.46680150  0.96646483  0.15637594  1.0
  Ni  Ni132  1  0.80013483  0.29979817  0.15637594  1.0
  Ni  Ni133  1  0.80013483  0.63313150  0.15637594  1.0
  Ni  Ni134  1  0.80013483  0.96646483  0.15637594  1.0
  Ni  Ni135  1  0.13346817  0.13313150  0.21887594  1.0
  Ni  Ni136  1  0.13346817  0.46646483  0.21887594  1.0
  Ni  Ni137  1  0.13346817  0.79979817  0.21887594  1.0
  Ni  Ni138  1  0.46680150  0.13313150  0.21887594  1.0
  Ni  Ni139  1  0.46680150  0.46646483  0.21887594  1.0
  Ni  Ni140  1  0.46680150  0.79979817  0.21887594  1.0
  Ni  Ni141  1  0.80013483  0.13313150  0.21887594  1.0
  Ni  Ni142  1  0.80013483  0.46646483  0.21887594  1.0
  Ni  Ni143  1  0.80013483  0.79979817  0.21887594  1.0
  Ni  Ni144  1  0.26693550  0.26659967  0.21862375  1.0
  Ni  Ni145  1  0.26693550  0.59993300  0.21862375  1.0
  Ni  Ni146  1  0.26693550  0.93326633  0.21862375  1.0
  Ni  Ni147  1  0.60026883  0.26659967  0.21862375  1.0
  Ni  Ni148  1  0.60026883  0.59993300  0.21862375  1.0
  Ni  Ni149  1  0.60026883  0.93326633  0.21862375  1.0
  Ni  Ni150  1  0.93360217  0.26659967  0.21862375  1.0
  Ni  Ni151  1  0.93360217  0.59993300  0.21862375  1.0
  Ni  Ni152  1  0.93360217  0.93326633  0.21862375  1.0
  Ni  Ni153  1  0.26693550  0.09993300  0.15612375  1.0
  Ni  Ni154  1  0.26693550  0.43326633  0.15612375  1.0
  Ni  Ni155  1  0.26693550  0.76659967  0.15612375  1.0
  Ni  Ni156  1  0.60026883  0.09993300  0.15612375  1.0
  Ni  Ni157  1  0.60026883  0.43326633  0.15612375  1.0
  Ni  Ni158  1  0.60026883  0.76659967  0.15612375  1.0
  Ni  Ni159  1  0.93360217  0.09993300  0.15612375  1.0
  Ni  Ni160  1  0.93360217  0.43326633  0.15612375  1.0
  Ni  Ni161  1  0.93360217  0.76659967  0.15612375  1.0
  W  W162  1  0.00000000  0.16666667  0.15625000  1.0
  W  W163  1  0.00000000  0.50000000  0.15625000  1.0
  W  W164  1  0.00000000  0.83333333  0.15625000  1.0
  W  W165  1  0.33333333  0.16666667  0.15625000  1.0
  W  W166  1  0.33333333  0.50000000  0.15625000  1.0
  W  W167  1  0.33333333  0.83333333  0.15625000  1.0
  W  W168  1  0.66666667  0.16666667  0.15625000  1.0
  W  W169  1  0.66666667  0.50000000  0.15625000  1.0
  W  W170  1  0.66666667  0.83333333  0.15625000  1.0
  W  W171  1  0.00000000  0.00000000  0.21875000  1.0
  W  W172  1  0.00000000  0.33333333  0.21875000  1.0
  W  W173  1  0.00000000  0.66666667  0.21875000  1.0
  W  W174  1  0.33333333  0.00000000  0.21875000  1.0
  W  W175  1  0.33333333  0.33333333  0.21875000  1.0
  W  W176  1  0.33333333  0.66666667  0.21875000  1.0
  W  W177  1  0.66666667  0.00000000  0.21875000  1.0
  W  W178  1  0.66666667  0.33333333  0.21875000  1.0
  W  W179  1  0.66666667  0.66666667  0.21875000  1.0
  Ni  Ni180  1  0.06639783  0.23340033  0.28137625  1.0
  Ni  Ni181  1  0.06639783  0.56673367  0.28137625  1.0
  Ni  Ni182  1  0.06639783  0.90006700  0.28137625  1.0
  Ni  Ni183  1  0.39973117  0.23340033  0.28137625  1.0
  Ni  Ni184  1  0.39973117  0.56673367  0.28137625  1.0
  Ni  Ni185  1  0.39973117  0.90006700  0.28137625  1.0
  Ni  Ni186  1  0.73306450  0.23340033  0.28137625  1.0
  Ni  Ni187  1  0.73306450  0.56673367  0.28137625  1.0
  Ni  Ni188  1  0.73306450  0.90006700  0.28137625  1.0
  Ni  Ni189  1  0.06639783  0.06673367  0.34387625  1.0
  Ni  Ni190  1  0.06639783  0.40006700  0.34387625  1.0
  Ni  Ni191  1  0.06639783  0.73340033  0.34387625  1.0
  Ni  Ni192  1  0.39973117  0.06673367  0.34387625  1.0
  Ni  Ni193  1  0.39973117  0.40006700  0.34387625  1.0
  Ni  Ni194  1  0.39973117  0.73340033  0.34387625  1.0
  Ni  Ni195  1  0.73306450  0.06673367  0.34387625  1.0
  Ni  Ni196  1  0.73306450  0.40006700  0.34387625  1.0
  Ni  Ni197  1  0.73306450  0.73340033  0.34387625  1.0
  Ni  Ni198  1  0.19986517  0.20020183  0.34362406  1.0
  Ni  Ni199  1  0.19986517  0.53353517  0.34362406  1.0
  Ni  Ni200  1  0.19986517  0.86686850  0.34362406  1.0
  Ni  Ni201  1  0.53319850  0.20020183  0.34362406  1.0
  Ni  Ni202  1  0.53319850  0.53353517  0.34362406  1.0
  Ni  Ni203  1  0.53319850  0.86686850  0.34362406  1.0
  Ni  Ni204  1  0.86653183  0.20020183  0.34362406  1.0
  Ni  Ni205  1  0.86653183  0.53353517  0.34362406  1.0
  Ni  Ni206  1  0.86653183  0.86686850  0.34362406  1.0
  Ni  Ni207  1  0.19986517  0.03353517  0.28112406  1.0
  Ni  Ni208  1  0.19986517  0.36686850  0.28112406  1.0
  Ni  Ni209  1  0.19986517  0.70020183  0.28112406  1.0
  Ni  Ni210  1  0.53319850  0.03353517  0.28112406  1.0
  Ni  Ni211  1  0.53319850  0.36686850  0.28112406  1.0
  Ni  Ni212  1  0.53319850  0.70020183  0.28112406  1.0
  Ni  Ni213  1  0.86653183  0.03353517  0.28112406  1.0
  Ni  Ni214  1  0.86653183  0.36686850  0.28112406  1.0
  Ni  Ni215  1  0.86653183  0.70020183  0.28112406  1.0
  Ni  Ni216  1  0.13346817  0.29979817  0.28137594  1.0
  Ni  Ni217  1  0.13346817  0.63313150  0.28137594  1.0
  Ni  Ni218  1  0.13346817  0.96646483  0.28137594  1.0
  Ni  Ni219  1  0.46680150  0.29979817  0.28137594  1.0
  Ni  Ni220  1  0.46680150  0.63313150  0.28137594  1.0
  Ni  Ni221  1  0.46680150  0.96646483  0.28137594  1.0
  Ni  Ni222  1  0.80013483  0.29979817  0.28137594  1.0
  Ni  Ni223  1  0.80013483  0.63313150  0.28137594  1.0
  Ni  Ni224  1  0.80013483  0.96646483  0.28137594  1.0
  Ni  Ni225  1  0.13346817  0.13313150  0.34387594  1.0
  Ni  Ni226  1  0.13346817  0.46646483  0.34387594  1.0
  Ni  Ni227  1  0.13346817  0.79979817  0.34387594  1.0
  Ni  Ni228  1  0.46680150  0.13313150  0.34387594  1.0
  Ni  Ni229  1  0.46680150  0.46646483  0.34387594  1.0
  Ni  Ni230  1  0.46680150  0.79979817  0.34387594  1.0
  Ni  Ni231  1  0.80013483  0.13313150  0.34387594  1.0
  Ni  Ni232  1  0.80013483  0.46646483  0.34387594  1.0
  Ni  Ni233  1  0.80013483  0.79979817  0.34387594  1.0
  Ni  Ni234  1  0.26693550  0.26659967  0.34362375  1.0
  Ni  Ni235  1  0.26693550  0.59993300  0.34362375  1.0
  Ni  Ni236  1  0.26693550  0.93326633  0.34362375  1.0
  Ni  Ni237  1  0.60026883  0.26659967  0.34362375  1.0
  Ni  Ni238  1  0.60026883  0.59993300  0.34362375  1.0
  Ni  Ni239  1  0.60026883  0.93326633  0.34362375  1.0
  Ni  Ni240  1  0.93360217  0.26659967  0.34362375  1.0
  Ni  Ni241  1  0.93360217  0.59993300  0.34362375  1.0
  Ni  Ni242  1  0.93360217  0.93326633  0.34362375  1.0
  Ni  Ni243  1  0.26693550  0.09993300  0.28112375  1.0
  Ni  Ni244  1  0.26693550  0.43326633  0.28112375  1.0
  Ni  Ni245  1  0.26693550  0.76659967  0.28112375  1.0
  Ni  Ni246  1  0.60026883  0.09993300  0.28112375  1.0
  Ni  Ni247  1  0.60026883  0.43326633  0.28112375  1.0
  Ni  Ni248  1  0.60026883  0.76659967  0.28112375  1.0
  Ni  Ni249  1  0.93360217  0.09993300  0.28112375  1.0
  Ni  Ni250  1  0.93360217  0.43326633  0.28112375  1.0
  Ni  Ni251  1  0.93360217  0.76659967  0.28112375  1.0
  W  W252  1  0.00000000  0.16666667  0.28125000  1.0
  W  W253  1  0.00000000  0.50000000  0.28125000  1.0
  W  W254  1  0.00000000  0.83333333  0.28125000  1.0
  W  W255  1  0.33333333  0.16666667  0.28125000  1.0
  W  W256  1  0.33333333  0.50000000  0.28125000  1.0
  W  W257  1  0.33333333  0.83333333  0.28125000  1.0
  W  W258  1  0.66666667  0.16666667  0.28125000  1.0
  W  W259  1  0.66666667  0.50000000  0.28125000  1.0
  W  W260  1  0.66666667  0.83333333  0.28125000  1.0
  W  W261  1  0.00000000  0.00000000  0.34375000  1.0
  W  W262  1  0.00000000  0.33333333  0.34375000  1.0
  W  W263  1  0.00000000  0.66666667  0.34375000  1.0
  W  W264  1  0.33333333  0.00000000  0.34375000  1.0
  W  W265  1  0.33333333  0.33333333  0.34375000  1.0
  W  W266  1  0.33333333  0.66666667  0.34375000  1.0
  W  W267  1  0.66666667  0.00000000  0.34375000  1.0
  W  W268  1  0.66666667  0.33333333  0.34375000  1.0
  W  W269  1  0.66666667  0.66666667  0.34375000  1.0
