# generated using pymatgen
data_Ni4W
_symmetry_space_group_name_H-M   'P 1'
_cell_length_a   17.21112598
_cell_length_b   27.72999157
_cell_length_c   28.14544983
_cell_angle_alpha   82.27752916
_cell_angle_beta   84.15038607
_cell_angle_gamma   71.92063174
_symmetry_Int_Tables_number   1
_chemical_formula_structural   Ni4W
_chemical_formula_sum   'Ni360 W90'
_cell_volume   12627.91641870
_cell_formula_units_Z   90
loop_
 _symmetry_equiv_pos_site_id
 _symmetry_equiv_pos_as_xyz
  1  'x, y, z'
loop_
 _atom_site_type_symbol
 _atom_site_label
 _atom_site_symmetry_multiplicity
 _atom_site_fract_x
 _atom_site_fract_y
 _atom_site_fract_z
 _atom_site_occupancy
  Ni  Ni0  1  0.10580185  0.28760107  0.05420032  1.0
  Ni  Ni1  1  0.10580185  0.62093441  0.05420032  1.0
  Ni  Ni2  1  0.10580185  0.95426774  0.05420032  1.0
  Ni  Ni3  1  0.43913518  0.28760107  0.05420032  1.0
  Ni  Ni4  1  0.43913518  0.62093441  0.05420032  1.0
  Ni  Ni5  1  0.43913518  0.95426774  0.05420032  1.0
  Ni  Ni6  1  0.77246851  0.28760107  0.05420032  1.0
  Ni  Ni7  1  0.77246851  0.62093441  0.05420032  1.0
  Ni  Ni8  1  0.77246851  0.95426774  0.05420032  1.0
  Ni  Ni9  1  0.21691296  0.07926774  0.01253366  1.0
  Ni  Ni10  1  0.21691296  0.41260107  0.01253366  1.0
  Ni  Ni11  1  0.21691296  0.74593441  0.01253366  1.0
  Ni  Ni12  1  0.55024629  0.07926774  0.01253366  1.0
  Ni  Ni13  1  0.55024629  0.41260107  0.01253366  1.0
  Ni  Ni14  1  0.55024629  0.74593441  0.01253366  1.0
  Ni  Ni15  1  0.88357962  0.07926774  0.01253366  1.0
  Ni  Ni16  1  0.88357962  0.41260107  0.01253366  1.0
  Ni  Ni17  1  0.88357962  0.74593441  0.01253366  1.0
  Ni  Ni18  1  0.32802463  0.24568211  0.04581653  1.0
  Ni  Ni19  1  0.32802463  0.57901545  0.04581653  1.0
  Ni  Ni20  1  0.32802463  0.91234878  0.04581653  1.0
  Ni  Ni21  1  0.66135796  0.24568211  0.04581653  1.0
  Ni  Ni22  1  0.66135796  0.57901545  0.04581653  1.0
  Ni  Ni23  1  0.66135796  0.91234878  0.04581653  1.0
  Ni  Ni24  1  0.99469129  0.24568211  0.04581653  1.0
  Ni  Ni25  1  0.99469129  0.57901545  0.04581653  1.0
  Ni  Ni26  1  0.99469129  0.91234878  0.04581653  1.0
  Ni  Ni27  1  0.10580240  0.03734878  0.00414986  1.0
  Ni  Ni28  1  0.10580240  0.37068211  0.00414986  1.0
  Ni  Ni29  1  0.10580240  0.70401545  0.00414986  1.0
  Ni  Ni30  1  0.43913574  0.03734878  0.00414986  1.0
  Ni  Ni31  1  0.43913574  0.37068211  0.00414986  1.0
  Ni  Ni32  1  0.43913574  0.70401545  0.00414986  1.0
  Ni  Ni33  1  0.77246907  0.03734878  0.00414986  1.0
  Ni  Ni34  1  0.77246907  0.37068211  0.00414986  1.0
  Ni  Ni35  1  0.77246907  0.70401545  0.00414986  1.0
  Ni  Ni36  1  0.10535351  0.16268482  0.02921707  1.0
  Ni  Ni37  1  0.10535351  0.49601816  0.02921707  1.0
  Ni  Ni38  1  0.10535351  0.82935149  0.02921707  1.0
  Ni  Ni39  1  0.43868685  0.16268482  0.02921707  1.0
  Ni  Ni40  1  0.43868685  0.49601816  0.02921707  1.0
  Ni  Ni41  1  0.43868685  0.82935149  0.02921707  1.0
  Ni  Ni42  1  0.77202018  0.16268482  0.02921707  1.0
  Ni  Ni43  1  0.77202018  0.49601816  0.02921707  1.0
  Ni  Ni44  1  0.77202018  0.82935149  0.02921707  1.0
  Ni  Ni45  1  0.32757574  0.03768482  0.07088374  1.0
  Ni  Ni46  1  0.32757574  0.37101816  0.07088374  1.0
  Ni  Ni47  1  0.32757574  0.70435149  0.07088374  1.0
  Ni  Ni48  1  0.66090907  0.03768482  0.07088374  1.0
  Ni  Ni49  1  0.66090907  0.37101816  0.07088374  1.0
  Ni  Ni50  1  0.66090907  0.70435149  0.07088374  1.0
  Ni  Ni51  1  0.99424240  0.03768482  0.07088374  1.0
  Ni  Ni52  1  0.99424240  0.37101816  0.07088374  1.0
  Ni  Ni53  1  0.99424240  0.70435149  0.07088374  1.0
  Ni  Ni54  1  0.32757629  0.12076586  0.02083328  1.0
  Ni  Ni55  1  0.32757629  0.45409920  0.02083328  1.0
  Ni  Ni56  1  0.32757629  0.78743253  0.02083328  1.0
  Ni  Ni57  1  0.66090962  0.12076586  0.02083328  1.0
  Ni  Ni58  1  0.66090962  0.45409920  0.02083328  1.0
  Ni  Ni59  1  0.66090962  0.78743253  0.02083328  1.0
  Ni  Ni60  1  0.99424296  0.12076586  0.02083328  1.0
  Ni  Ni61  1  0.99424296  0.45409920  0.02083328  1.0
  Ni  Ni62  1  0.99424296  0.78743253  0.02083328  1.0
  Ni  Ni63  1  0.21646518  0.32909920  0.06249995  1.0
  Ni  Ni64  1  0.21646518  0.66243253  0.06249995  1.0
  Ni  Ni65  1  0.21646518  0.99576586  0.06249995  1.0
  Ni  Ni66  1  0.54979851  0.32909920  0.06249995  1.0
  Ni  Ni67  1  0.54979851  0.66243253  0.06249995  1.0
  Ni  Ni68  1  0.54979851  0.99576586  0.06249995  1.0
  Ni  Ni69  1  0.88313185  0.32909920  0.06249995  1.0
  Ni  Ni70  1  0.88313185  0.66243253  0.06249995  1.0
  Ni  Ni71  1  0.88313185  0.99576586  0.06249995  1.0
  Ni  Ni72  1  0.21691296  0.03760107  0.13753366  1.0
  Ni  Ni73  1  0.21691296  0.37093441  0.13753366  1.0
  Ni  Ni74  1  0.21691296  0.70426774  0.13753366  1.0
  Ni  Ni75  1  0.55024629  0.03760107  0.13753366  1.0
  Ni  Ni76  1  0.55024629  0.37093441  0.13753366  1.0
  Ni  Ni77  1  0.55024629  0.70426774  0.13753366  1.0
  Ni  Ni78  1  0.88357962  0.03760107  0.13753366  1.0
  Ni  Ni79  1  0.88357963  0.37093441  0.13753366  1.0
  Ni  Ni80  1  0.88357962  0.70426774  0.13753366  1.0
  Ni  Ni81  1  0.32802407  0.16260107  0.09586699  1.0
  Ni  Ni82  1  0.32802407  0.49593441  0.09586699  1.0
  Ni  Ni83  1  0.32802407  0.82926774  0.09586699  1.0
  Ni  Ni84  1  0.66135740  0.16260107  0.09586699  1.0
  Ni  Ni85  1  0.66135740  0.49593441  0.09586699  1.0
  Ni  Ni86  1  0.66135740  0.82926774  0.09586699  1.0
  Ni  Ni87  1  0.99469074  0.16260107  0.09586699  1.0
  Ni  Ni88  1  0.99469074  0.49593441  0.09586699  1.0
  Ni  Ni89  1  0.99469074  0.82926774  0.09586699  1.0
  Ni  Ni90  1  0.10580240  0.32901545  0.12914986  1.0
  Ni  Ni91  1  0.10580240  0.66234878  0.12914986  1.0
  Ni  Ni92  1  0.10580240  0.99568211  0.12914986  1.0
  Ni  Ni93  1  0.43913574  0.32901545  0.12914986  1.0
  Ni  Ni94  1  0.43913574  0.66234878  0.12914986  1.0
  Ni  Ni95  1  0.43913574  0.99568211  0.12914986  1.0
  Ni  Ni96  1  0.77246907  0.32901545  0.12914986  1.0
  Ni  Ni97  1  0.77246907  0.66234878  0.12914986  1.0
  Ni  Ni98  1  0.77246907  0.99568211  0.12914986  1.0
  Ni  Ni99  1  0.21691351  0.12068211  0.08748320  1.0
  Ni  Ni100  1  0.21691351  0.45401545  0.08748320  1.0
  Ni  Ni101  1  0.21691351  0.78734878  0.08748320  1.0
  Ni  Ni102  1  0.55024685  0.12068211  0.08748320  1.0
  Ni  Ni103  1  0.55024685  0.45401545  0.08748320  1.0
  Ni  Ni104  1  0.55024685  0.78734878  0.08748320  1.0
  Ni  Ni105  1  0.88358018  0.12068211  0.08748320  1.0
  Ni  Ni106  1  0.88358018  0.45401545  0.08748320  1.0
  Ni  Ni107  1  0.88358018  0.78734878  0.08748320  1.0
  Ni  Ni108  1  0.21646463  0.24601816  0.11255041  1.0
  Ni  Ni109  1  0.21646463  0.57935149  0.11255041  1.0
  Ni  Ni110  1  0.21646462  0.91268482  0.11255041  1.0
  Ni  Ni111  1  0.54979796  0.24601816  0.11255041  1.0
  Ni  Ni112  1  0.54979796  0.57935149  0.11255041  1.0
  Ni  Ni113  1  0.54979796  0.91268482  0.11255041  1.0
  Ni  Ni114  1  0.88313129  0.24601816  0.11255041  1.0
  Ni  Ni115  1  0.88313129  0.57935149  0.11255041  1.0
  Ni  Ni116  1  0.88313129  0.91268482  0.11255041  1.0
  Ni  Ni117  1  0.10535351  0.12101816  0.15421707  1.0
  Ni  Ni118  1  0.10535351  0.45435149  0.15421707  1.0
  Ni  Ni119  1  0.10535351  0.78768482  0.15421707  1.0
  Ni  Ni120  1  0.43868685  0.12101816  0.15421707  1.0
  Ni  Ni121  1  0.43868685  0.45435149  0.15421707  1.0
  Ni  Ni122  1  0.43868685  0.78768482  0.15421707  1.0
  Ni  Ni123  1  0.77202018  0.12101816  0.15421707  1.0
  Ni  Ni124  1  0.77202018  0.45435149  0.15421707  1.0
  Ni  Ni125  1  0.77202018  0.78768482  0.15421707  1.0
  Ni  Ni126  1  0.10535407  0.20409920  0.10416661  1.0
  Ni  Ni127  1  0.10535407  0.53743253  0.10416661  1.0
  Ni  Ni128  1  0.10535407  0.87076586  0.10416661  1.0
  Ni  Ni129  1  0.43868740  0.20409920  0.10416661  1.0
  Ni  Ni130  1  0.43868740  0.53743253  0.10416661  1.0
  Ni  Ni131  1  0.43868740  0.87076586  0.10416661  1.0
  Ni  Ni132  1  0.77202074  0.20409920  0.10416661  1.0
  Ni  Ni133  1  0.77202074  0.53743253  0.10416661  1.0
  Ni  Ni134  1  0.77202074  0.87076586  0.10416661  1.0
  Ni  Ni135  1  0.32757629  0.07909920  0.14583328  1.0
  Ni  Ni136  1  0.32757629  0.41243253  0.14583328  1.0
  Ni  Ni137  1  0.32757629  0.74576586  0.14583328  1.0
  Ni  Ni138  1  0.66090963  0.07909920  0.14583328  1.0
  Ni  Ni139  1  0.66090963  0.41243253  0.14583328  1.0
  Ni  Ni140  1  0.66090963  0.74576586  0.14583328  1.0
  Ni  Ni141  1  0.99424296  0.07909920  0.14583328  1.0
  Ni  Ni142  1  0.99424296  0.41243253  0.14583328  1.0
  Ni  Ni143  1  0.99424296  0.74576586  0.14583328  1.0
  Ni  Ni144  1  0.32802407  0.12093441  0.22086699  1.0
  Ni  Ni145  1  0.32802407  0.45426774  0.22086699  1.0
  Ni  Ni146  1  0.32802407  0.78760107  0.22086699  1.0
  Ni  Ni147  1  0.66135740  0.12093441  0.22086699  1.0
  Ni  Ni148  1  0.66135740  0.45426774  0.22086699  1.0
  Ni  Ni149  1  0.66135740  0.78760107  0.22086699  1.0
  Ni  Ni150  1  0.99469074  0.12093441  0.22086699  1.0
  Ni  Ni151  1  0.99469074  0.45426774  0.22086699  1.0
  Ni  Ni152  1  0.99469074  0.78760107  0.22086699  1.0
  Ni  Ni153  1  0.10580185  0.24593441  0.17920032  1.0
  Ni  Ni154  1  0.10580185  0.57926774  0.17920032  1.0
  Ni  Ni155  1  0.10580185  0.91260107  0.17920032  1.0
  Ni  Ni156  1  0.43913518  0.24593441  0.17920032  1.0
  Ni  Ni157  1  0.43913518  0.57926774  0.17920032  1.0
  Ni  Ni158  1  0.43913518  0.91260107  0.17920032  1.0
  Ni  Ni159  1  0.77246851  0.24593441  0.17920032  1.0
  Ni  Ni160  1  0.77246851  0.57926774  0.17920032  1.0
  Ni  Ni161  1  0.77246851  0.91260107  0.17920032  1.0
  Ni  Ni162  1  0.21691351  0.07901545  0.21248320  1.0
  Ni  Ni163  1  0.21691351  0.41234878  0.21248320  1.0
  Ni  Ni164  1  0.21691351  0.74568211  0.21248320  1.0
  Ni  Ni165  1  0.55024685  0.07901545  0.21248320  1.0
  Ni  Ni166  1  0.55024685  0.41234878  0.21248320  1.0
  Ni  Ni167  1  0.55024685  0.74568211  0.21248320  1.0
  Ni  Ni168  1  0.88358018  0.07901545  0.21248320  1.0
  Ni  Ni169  1  0.88358018  0.41234878  0.21248320  1.0
  Ni  Ni170  1  0.88358018  0.74568211  0.21248320  1.0
  Ni  Ni171  1  0.32802463  0.20401545  0.17081653  1.0
  Ni  Ni172  1  0.32802463  0.53734878  0.17081653  1.0
  Ni  Ni173  1  0.32802463  0.87068211  0.17081653  1.0
  Ni  Ni174  1  0.66135796  0.20401545  0.17081653  1.0
  Ni  Ni175  1  0.66135796  0.53734878  0.17081653  1.0
  Ni  Ni176  1  0.66135796  0.87068211  0.17081653  1.0
  Ni  Ni177  1  0.99469129  0.20401545  0.17081653  1.0
  Ni  Ni178  1  0.99469129  0.53734878  0.17081653  1.0
  Ni  Ni179  1  0.99469129  0.87068211  0.17081653  1.0
  Ni  Ni180  1  0.32757574  0.32935149  0.19588374  1.0
  Ni  Ni181  1  0.32757574  0.66268482  0.19588374  1.0
  Ni  Ni182  1  0.32757574  0.99601816  0.19588374  1.0
  Ni  Ni183  1  0.66090907  0.32935149  0.19588374  1.0
  Ni  Ni184  1  0.66090907  0.66268482  0.19588374  1.0
  Ni  Ni185  1  0.66090907  0.99601816  0.19588374  1.0
  Ni  Ni186  1  0.99424240  0.32935149  0.19588374  1.0
  Ni  Ni187  1  0.99424240  0.66268482  0.19588374  1.0
  Ni  Ni188  1  0.99424240  0.99601816  0.19588374  1.0
  Ni  Ni189  1  0.21646463  0.20435149  0.23755041  1.0
  Ni  Ni190  1  0.21646463  0.53768482  0.23755041  1.0
  Ni  Ni191  1  0.21646463  0.87101816  0.23755041  1.0
  Ni  Ni192  1  0.54979796  0.20435149  0.23755041  1.0
  Ni  Ni193  1  0.54979796  0.53768482  0.23755041  1.0
  Ni  Ni194  1  0.54979796  0.87101816  0.23755041  1.0
  Ni  Ni195  1  0.88313129  0.20435149  0.23755041  1.0
  Ni  Ni196  1  0.88313129  0.53768482  0.23755041  1.0
  Ni  Ni197  1  0.88313129  0.87101816  0.23755041  1.0
  Ni  Ni198  1  0.21646518  0.28743253  0.18749995  1.0
  Ni  Ni199  1  0.21646518  0.62076586  0.18749995  1.0
  Ni  Ni200  1  0.21646518  0.95409920  0.18749995  1.0
  Ni  Ni201  1  0.54979851  0.28743253  0.18749995  1.0
  Ni  Ni202  1  0.54979851  0.62076586  0.18749995  1.0
  Ni  Ni203  1  0.54979851  0.95409920  0.18749995  1.0
  Ni  Ni204  1  0.88313185  0.28743253  0.18749995  1.0
  Ni  Ni205  1  0.88313185  0.62076586  0.18749995  1.0
  Ni  Ni206  1  0.88313185  0.95409920  0.18749995  1.0
  Ni  Ni207  1  0.10535407  0.16243253  0.22916661  1.0
  Ni  Ni208  1  0.10535407  0.49576586  0.22916661  1.0
  Ni  Ni209  1  0.10535407  0.82909920  0.22916661  1.0
  Ni  Ni210  1  0.43868740  0.16243253  0.22916661  1.0
  Ni  Ni211  1  0.43868740  0.49576586  0.22916661  1.0
  Ni  Ni212  1  0.43868740  0.82909920  0.22916661  1.0
  Ni  Ni213  1  0.77202074  0.16243253  0.22916661  1.0
  Ni  Ni214  1  0.77202074  0.49576586  0.22916661  1.0
  Ni  Ni215  1  0.77202074  0.82909920  0.22916661  1.0
  Ni  Ni216  1  0.10580185  0.20426774  0.30420032  1.0
  Ni  Ni217  1  0.10580185  0.53760107  0.30420032  1.0
  Ni  Ni218  1  0.10580185  0.87093441  0.30420032  1.0
  Ni  Ni219  1  0.43913518  0.20426774  0.30420032  1.0
  Ni  Ni220  1  0.43913518  0.53760107  0.30420032  1.0
  Ni  Ni221  1  0.43913518  0.87093441  0.30420032  1.0
  Ni  Ni222  1  0.77246851  0.20426774  0.30420032  1.0
  Ni  Ni223  1  0.77246851  0.53760107  0.30420032  1.0
  Ni  Ni224  1  0.77246851  0.87093441  0.30420032  1.0
  Ni  Ni225  1  0.21691296  0.32926774  0.26253366  1.0
  Ni  Ni226  1  0.21691296  0.66260107  0.26253366  1.0
  Ni  Ni227  1  0.21691296  0.99593441  0.26253366  1.0
  Ni  Ni228  1  0.55024629  0.32926774  0.26253366  1.0
  Ni  Ni229  1  0.55024629  0.66260107  0.26253366  1.0
  Ni  Ni230  1  0.55024629  0.99593441  0.26253366  1.0
  Ni  Ni231  1  0.88357962  0.32926774  0.26253366  1.0
  Ni  Ni232  1  0.88357962  0.66260107  0.26253366  1.0
  Ni  Ni233  1  0.88357962  0.99593441  0.26253366  1.0
  Ni  Ni234  1  0.32802463  0.16234878  0.29581653  1.0
  Ni  Ni235  1  0.32802463  0.49568211  0.29581653  1.0
  Ni  Ni236  1  0.32802463  0.82901545  0.29581653  1.0
  Ni  Ni237  1  0.66135796  0.16234878  0.29581653  1.0
  Ni  Ni238  1  0.66135796  0.49568211  0.29581653  1.0
  Ni  Ni239  1  0.66135796  0.82901545  0.29581653  1.0
  Ni  Ni240  1  0.99469129  0.16234878  0.29581653  1.0
  Ni  Ni241  1  0.99469129  0.49568211  0.29581653  1.0
  Ni  Ni242  1  0.99469129  0.82901545  0.29581653  1.0
  Ni  Ni243  1  0.10580240  0.28734878  0.25414986  1.0
  Ni  Ni244  1  0.10580240  0.62068211  0.25414986  1.0
  Ni  Ni245  1  0.10580240  0.95401545  0.25414986  1.0
  Ni  Ni246  1  0.43913574  0.28734878  0.25414986  1.0
  Ni  Ni247  1  0.43913574  0.62068211  0.25414986  1.0
  Ni  Ni248  1  0.43913574  0.95401545  0.25414986  1.0
  Ni  Ni249  1  0.77246907  0.28734878  0.25414986  1.0
  Ni  Ni250  1  0.77246907  0.62068211  0.25414986  1.0
  Ni  Ni251  1  0.77246907  0.95401545  0.25414986  1.0
  Ni  Ni252  1  0.10535351  0.07935149  0.27921707  1.0
  Ni  Ni253  1  0.10535351  0.41268482  0.27921707  1.0
  Ni  Ni254  1  0.10535351  0.74601816  0.27921707  1.0
  Ni  Ni255  1  0.43868685  0.07935149  0.27921707  1.0
  Ni  Ni256  1  0.43868685  0.41268482  0.27921707  1.0
  Ni  Ni257  1  0.43868685  0.74601816  0.27921707  1.0
  Ni  Ni258  1  0.77202018  0.07935149  0.27921707  1.0
  Ni  Ni259  1  0.77202018  0.41268482  0.27921707  1.0
  Ni  Ni260  1  0.77202018  0.74601816  0.27921707  1.0
  Ni  Ni261  1  0.32757574  0.28768482  0.32088374  1.0
  Ni  Ni262  1  0.32757574  0.62101816  0.32088374  1.0
  Ni  Ni263  1  0.32757574  0.95435149  0.32088374  1.0
  Ni  Ni264  1  0.66090907  0.28768482  0.32088374  1.0
  Ni  Ni265  1  0.66090907  0.62101816  0.32088374  1.0
  Ni  Ni266  1  0.66090907  0.95435149  0.32088374  1.0
  Ni  Ni267  1  0.99424240  0.28768482  0.32088374  1.0
  Ni  Ni268  1  0.99424240  0.62101816  0.32088374  1.0
  Ni  Ni269  1  0.99424240  0.95435149  0.32088374  1.0
  Ni  Ni270  1  0.32757629  0.03743253  0.27083328  1.0
  Ni  Ni271  1  0.32757629  0.37076586  0.27083328  1.0
  Ni  Ni272  1  0.32757629  0.70409920  0.27083328  1.0
  Ni  Ni273  1  0.66090963  0.03743253  0.27083328  1.0
  Ni  Ni274  1  0.66090963  0.37076586  0.27083328  1.0
  Ni  Ni275  1  0.66090963  0.70409920  0.27083328  1.0
  Ni  Ni276  1  0.99424296  0.03743253  0.27083328  1.0
  Ni  Ni277  1  0.99424296  0.37076586  0.27083328  1.0
  Ni  Ni278  1  0.99424296  0.70409920  0.27083328  1.0
  Ni  Ni279  1  0.21646518  0.24576586  0.31249995  1.0
  Ni  Ni280  1  0.21646518  0.57909920  0.31249995  1.0
  Ni  Ni281  1  0.21646518  0.91243253  0.31249995  1.0
  Ni  Ni282  1  0.54979851  0.24576586  0.31249995  1.0
  Ni  Ni283  1  0.54979851  0.57909920  0.31249995  1.0
  Ni  Ni284  1  0.54979851  0.91243253  0.31249995  1.0
  Ni  Ni285  1  0.88313185  0.24576586  0.31249995  1.0
  Ni  Ni286  1  0.88313185  0.57909920  0.31249995  1.0
  Ni  Ni287  1  0.88313185  0.91243253  0.31249995  1.0
  Ni  Ni288  1  0.21691296  0.28760107  0.38753366  1.0
  Ni  Ni289  1  0.21691296  0.62093441  0.38753366  1.0
  Ni  Ni290  1  0.21691296  0.95426774  0.38753366  1.0
  Ni  Ni291  1  0.55024629  0.28760107  0.38753366  1.0
  Ni  Ni292  1  0.55024629  0.62093441  0.38753366  1.0
  Ni  Ni293  1  0.55024629  0.95426774  0.38753366  1.0
  Ni  Ni294  1  0.88357963  0.28760107  0.38753366  1.0
  Ni  Ni295  1  0.88357963  0.62093441  0.38753366  1.0
  Ni  Ni296  1  0.88357963  0.95426774  0.38753366  1.0
  Ni  Ni297  1  0.32802407  0.07926774  0.34586699  1.0
  Ni  Ni298  1  0.32802407  0.41260107  0.34586699  1.0
  Ni  Ni299  1  0.32802407  0.74593441  0.34586699  1.0
  Ni  Ni300  1  0.66135740  0.07926774  0.34586699  1.0
  Ni  Ni301  1  0.66135740  0.41260107  0.34586699  1.0
  Ni  Ni302  1  0.66135740  0.74593441  0.34586699  1.0
  Ni  Ni303  1  0.99469074  0.07926774  0.34586699  1.0
  Ni  Ni304  1  0.99469074  0.41260107  0.34586699  1.0
  Ni  Ni305  1  0.99469074  0.74593441  0.34586699  1.0
  Ni  Ni306  1  0.10580240  0.24568211  0.37914986  1.0
  Ni  Ni307  1  0.10580240  0.57901545  0.37914986  1.0
  Ni  Ni308  1  0.10580240  0.91234878  0.37914986  1.0
  Ni  Ni309  1  0.43913574  0.24568211  0.37914986  1.0
  Ni  Ni310  1  0.43913574  0.57901545  0.37914986  1.0
  Ni  Ni311  1  0.43913574  0.91234878  0.37914986  1.0
  Ni  Ni312  1  0.77246907  0.24568211  0.37914986  1.0
  Ni  Ni313  1  0.77246907  0.57901545  0.37914986  1.0
  Ni  Ni314  1  0.77246907  0.91234878  0.37914986  1.0
  Ni  Ni315  1  0.21691351  0.03734878  0.33748320  1.0
  Ni  Ni316  1  0.21691351  0.37068211  0.33748320  1.0
  Ni  Ni317  1  0.21691351  0.70401545  0.33748320  1.0
  Ni  Ni318  1  0.55024685  0.03734878  0.33748320  1.0
  Ni  Ni319  1  0.55024685  0.37068211  0.33748320  1.0
  Ni  Ni320  1  0.55024685  0.70401545  0.33748320  1.0
  Ni  Ni321  1  0.88358018  0.03734878  0.33748320  1.0
  Ni  Ni322  1  0.88358018  0.37068211  0.33748320  1.0
  Ni  Ni323  1  0.88358018  0.70401545  0.33748320  1.0
  Ni  Ni324  1  0.21646463  0.16268482  0.36255041  1.0
  Ni  Ni325  1  0.21646463  0.49601816  0.36255041  1.0
  Ni  Ni326  1  0.21646463  0.82935149  0.36255041  1.0
  Ni  Ni327  1  0.54979796  0.16268482  0.36255041  1.0
  Ni  Ni328  1  0.54979796  0.49601816  0.36255041  1.0
  Ni  Ni329  1  0.54979796  0.82935149  0.36255041  1.0
  Ni  Ni330  1  0.88313129  0.16268482  0.36255041  1.0
  Ni  Ni331  1  0.88313129  0.49601816  0.36255041  1.0
  Ni  Ni332  1  0.88313129  0.82935149  0.36255041  1.0
  Ni  Ni333  1  0.10535351  0.03768482  0.40421707  1.0
  Ni  Ni334  1  0.10535351  0.37101816  0.40421707  1.0
  Ni  Ni335  1  0.10535351  0.70435149  0.40421707  1.0
  Ni  Ni336  1  0.43868685  0.03768482  0.40421707  1.0
  Ni  Ni337  1  0.43868685  0.37101816  0.40421707  1.0
  Ni  Ni338  1  0.43868685  0.70435149  0.40421707  1.0
  Ni  Ni339  1  0.77202018  0.03768482  0.40421707  1.0
  Ni  Ni340  1  0.77202018  0.37101816  0.40421707  1.0
  Ni  Ni341  1  0.77202018  0.70435149  0.40421707  1.0
  Ni  Ni342  1  0.10535407  0.12076586  0.35416661  1.0
  Ni  Ni343  1  0.10535407  0.45409920  0.35416661  1.0
  Ni  Ni344  1  0.10535407  0.78743253  0.35416661  1.0
  Ni  Ni345  1  0.43868740  0.12076586  0.35416661  1.0
  Ni  Ni346  1  0.43868740  0.45409920  0.35416661  1.0
  Ni  Ni347  1  0.43868740  0.78743253  0.35416661  1.0
  Ni  Ni348  1  0.77202074  0.12076586  0.35416661  1.0
  Ni  Ni349  1  0.77202074  0.45409920  0.35416661  1.0
  Ni  Ni350  1  0.77202074  0.78743253  0.35416661  1.0
  Ni  Ni351  1  0.32757629  0.32909920  0.39583328  1.0
  Ni  Ni352  1  0.32757629  0.66243253  0.39583328  1.0
  Ni  Ni353  1  0.32757629  0.99576586  0.39583328  1.0
  Ni  Ni354  1  0.66090962  0.32909920  0.39583328  1.0
  Ni  Ni355  1  0.66090962  0.66243253  0.39583328  1.0
  Ni  Ni356  1  0.66090962  0.99576586  0.39583328  1.0
  Ni  Ni357  1  0.99424296  0.32909920  0.39583328  1.0
  Ni  Ni358  1  0.99424296  0.66243253  0.39583328  1.0
  Ni  Ni359  1  0.99424296  0.99576586  0.39583328  1.0
  W  W360  1  0.21668907  0.20418347  0.03751680  1.0
  W  W361  1  0.21668907  0.53751680  0.03751680  1.0
  W  W362  1  0.21668907  0.87085014  0.03751680  1.0
  W  W363  1  0.55002240  0.20418347  0.03751680  1.0
  W  W364  1  0.55002240  0.53751680  0.03751680  1.0
  W  W365  1  0.55002240  0.87085014  0.03751680  1.0
  W  W366  1  0.88335574  0.20418347  0.03751680  1.0
  W  W367  1  0.88335574  0.53751680  0.03751680  1.0
  W  W368  1  0.88335574  0.87085014  0.03751680  1.0
  W  W369  1  0.10557796  0.07918347  0.07918347  1.0
  W  W370  1  0.10557796  0.41251680  0.07918347  1.0
  W  W371  1  0.10557796  0.74585014  0.07918347  1.0
  W  W372  1  0.43891129  0.07918347  0.07918347  1.0
  W  W373  1  0.43891129  0.41251680  0.07918347  1.0
  W  W374  1  0.43891129  0.74585014  0.07918347  1.0
  W  W375  1  0.77224462  0.07918347  0.07918347  1.0
  W  W376  1  0.77224462  0.41251680  0.07918347  1.0
  W  W377  1  0.77224462  0.74585014  0.07918347  1.0
  W  W378  1  0.32780018  0.28751680  0.12085014  1.0
  W  W379  1  0.32780018  0.62085014  0.12085014  1.0
  W  W380  1  0.32780018  0.95418347  0.12085014  1.0
  W  W381  1  0.66113351  0.28751680  0.12085014  1.0
  W  W382  1  0.66113351  0.62085014  0.12085014  1.0
  W  W383  1  0.66113351  0.95418347  0.12085014  1.0
  W  W384  1  0.99446685  0.28751680  0.12085014  1.0
  W  W385  1  0.99446685  0.62085014  0.12085014  1.0
  W  W386  1  0.99446685  0.95418347  0.12085014  1.0
  W  W387  1  0.21668907  0.16251680  0.16251680  1.0
  W  W388  1  0.21668907  0.49585014  0.16251680  1.0
  W  W389  1  0.21668907  0.82918347  0.16251680  1.0
  W  W390  1  0.55002240  0.16251680  0.16251680  1.0
  W  W391  1  0.55002240  0.49585014  0.16251680  1.0
  W  W392  1  0.55002240  0.82918347  0.16251680  1.0
  W  W393  1  0.88335574  0.16251680  0.16251680  1.0
  W  W394  1  0.88335574  0.49585014  0.16251680  1.0
  W  W395  1  0.88335574  0.82918347  0.16251680  1.0
  W  W396  1  0.10557796  0.03751680  0.20418347  1.0
  W  W397  1  0.10557796  0.37085014  0.20418347  1.0
  W  W398  1  0.10557796  0.70418347  0.20418347  1.0
  W  W399  1  0.43891129  0.03751680  0.20418347  1.0
  W  W400  1  0.43891129  0.37085014  0.20418347  1.0
  W  W401  1  0.43891129  0.70418347  0.20418347  1.0
  W  W402  1  0.77224463  0.03751680  0.20418347  1.0
  W  W403  1  0.77224463  0.37085014  0.20418347  1.0
  W  W404  1  0.77224463  0.70418347  0.20418347  1.0
  W  W405  1  0.32780018  0.24585014  0.24585014  1.0
  W  W406  1  0.32780018  0.57918347  0.24585014  1.0
  W  W407  1  0.32780018  0.91251680  0.24585014  1.0
  W  W408  1  0.66113351  0.24585014  0.24585014  1.0
  W  W409  1  0.66113351  0.57918347  0.24585014  1.0
  W  W410  1  0.66113351  0.91251680  0.24585014  1.0
  W  W411  1  0.99446685  0.24585014  0.24585014  1.0
  W  W412  1  0.99446685  0.57918347  0.24585014  1.0
  W  W413  1  0.99446685  0.91251680  0.24585014  1.0
  W  W414  1  0.21668907  0.12085014  0.28751680  1.0
  W  W415  1  0.21668907  0.45418347  0.28751680  1.0
  W  W416  1  0.21668907  0.78751680  0.28751680  1.0
  W  W417  1  0.55002240  0.12085014  0.28751680  1.0
  W  W418  1  0.55002240  0.45418347  0.28751680  1.0
  W  W419  1  0.55002240  0.78751680  0.28751680  1.0
  W  W420  1  0.88335574  0.12085014  0.28751680  1.0
  W  W421  1  0.88335574  0.45418347  0.28751680  1.0
  W  W422  1  0.88335574  0.78751680  0.28751680  1.0
  W  W423  1  0.10557796  0.32918347  0.32918347  1.0
  W  W424  1  0.10557796  0.66251680  0.32918347  1.0
  W  W425  1  0.10557796  0.99585014  0.32918347  1.0
  W  W426  1  0.43891129  0.32918347  0.32918347  1.0
  W  W427  1  0.43891129  0.66251680  0.32918347  1.0
  W  W428  1  0.43891129  0.99585014  0.32918347  1.0
  W  W429  1  0.77224463  0.32918347  0.32918347  1.0
  W  W430  1  0.77224463  0.66251680  0.32918347  1.0
  W  W431  1  0.77224463  0.99585014  0.32918347  1.0
  W  W432  1  0.32780018  0.20418347  0.37085014  1.0
  W  W433  1  0.32780018  0.53751680  0.37085014  1.0
  W  W434  1  0.32780018  0.87085014  0.37085014  1.0
  W  W435  1  0.66113351  0.20418347  0.37085014  1.0
  W  W436  1  0.66113351  0.53751680  0.37085014  1.0
  W  W437  1  0.66113351  0.87085014  0.37085014  1.0
  W  W438  1  0.99446685  0.20418347  0.37085014  1.0
  W  W439  1  0.99446685  0.53751680  0.37085014  1.0
  W  W440  1  0.99446685  0.87085014  0.37085014  1.0
  W  W441  1  0.21668907  0.07918347  0.41251680  1.0
  W  W442  1  0.21668907  0.41251680  0.41251680  1.0
  W  W443  1  0.21668907  0.74585014  0.41251680  1.0
  W  W444  1  0.55002240  0.07918347  0.41251680  1.0
  W  W445  1  0.55002240  0.41251680  0.41251680  1.0
  W  W446  1  0.55002240  0.74585014  0.41251680  1.0
  W  W447  1  0.88335574  0.07918347  0.41251680  1.0
  W  W448  1  0.88335574  0.41251680  0.41251680  1.0
  W  W449  1  0.88335574  0.74585014  0.41251680  1.0
