# generated using pymatgen
data_Ni4W
_symmetry_space_group_name_H-M   'P 1'
_cell_length_a   24.34020779
_cell_length_b   31.56128550
_cell_length_c   53.14233228
_cell_angle_alpha   56.19392625
_cell_angle_beta   90.00000000
_cell_angle_gamma   39.53781776
_symmetry_Int_Tables_number   1
_chemical_formula_structural   Ni4W
_chemical_formula_sum   'Ni360 W90'
_cell_volume   12627.91641870
_cell_formula_units_Z   90
loop_
 _symmetry_equiv_pos_site_id
 _symmetry_equiv_pos_as_xyz
  1  'x, y, z'
loop_
 _atom_site_type_symbol
 _atom_site_label
 _atom_site_symmetry_multiplicity
 _atom_site_fract_x
 _atom_site_fract_y
 _atom_site_fract_z
 _atom_site_occupancy
  Ni  Ni0  1  0.26693550  0.26659967  0.04585846  1.0
  Ni  Ni1  1  0.26693550  0.59993300  0.04585846  1.0
  Ni  Ni2  1  0.26693550  0.93326633  0.04585846  1.0
  Ni  Ni3  1  0.60026883  0.26659967  0.04585846  1.0
  Ni  Ni4  1  0.60026883  0.59993300  0.04585846  1.0
  Ni  Ni5  1  0.60026883  0.93326633  0.04585846  1.0
  Ni  Ni6  1  0.93360217  0.26659967  0.04585846  1.0
  Ni  Ni7  1  0.93360217  0.59993300  0.04585846  1.0
  Ni  Ni8  1  0.93360217  0.93326633  0.04585846  1.0
  Ni  Ni9  1  0.26693550  0.09993300  0.00419179  1.0
  Ni  Ni10  1  0.26693550  0.43326633  0.00419179  1.0
  Ni  Ni11  1  0.26693550  0.76659967  0.00419179  1.0
  Ni  Ni12  1  0.60026883  0.09993300  0.00419179  1.0
  Ni  Ni13  1  0.60026883  0.43326633  0.00419179  1.0
  Ni  Ni14  1  0.60026883  0.76659967  0.00419179  1.0
  Ni  Ni15  1  0.93360217  0.09993300  0.00419179  1.0
  Ni  Ni16  1  0.93360217  0.43326633  0.00419179  1.0
  Ni  Ni17  1  0.93360217  0.76659967  0.00419179  1.0
  Ni  Ni18  1  0.13346817  0.29979817  0.02095958  1.0
  Ni  Ni19  1  0.13346817  0.63313150  0.02095958  1.0
  Ni  Ni20  1  0.13346817  0.96646483  0.02095958  1.0
  Ni  Ni21  1  0.46680150  0.29979817  0.02095958  1.0
  Ni  Ni22  1  0.46680150  0.63313150  0.02095958  1.0
  Ni  Ni23  1  0.46680150  0.96646483  0.02095958  1.0
  Ni  Ni24  1  0.80013483  0.29979817  0.02095958  1.0
  Ni  Ni25  1  0.80013483  0.63313150  0.02095958  1.0
  Ni  Ni26  1  0.80013483  0.96646483  0.02095958  1.0
  Ni  Ni27  1  0.13346817  0.13313150  0.06262625  1.0
  Ni  Ni28  1  0.13346817  0.46646483  0.06262625  1.0
  Ni  Ni29  1  0.13346817  0.79979817  0.06262625  1.0
  Ni  Ni30  1  0.46680150  0.13313150  0.06262625  1.0
  Ni  Ni31  1  0.46680150  0.46646483  0.06262625  1.0
  Ni  Ni32  1  0.46680150  0.79979817  0.06262625  1.0
  Ni  Ni33  1  0.80013483  0.13313150  0.06262625  1.0
  Ni  Ni34  1  0.80013483  0.46646483  0.06262625  1.0
  Ni  Ni35  1  0.80013483  0.79979817  0.06262625  1.0
  Ni  Ni36  1  0.19986517  0.03353517  0.05399017  1.0
  Ni  Ni37  1  0.19986517  0.36686850  0.05399017  1.0
  Ni  Ni38  1  0.19986517  0.70020183  0.05399017  1.0
  Ni  Ni39  1  0.53319850  0.03353517  0.05399017  1.0
  Ni  Ni40  1  0.53319850  0.36686850  0.05399017  1.0
  Ni  Ni41  1  0.53319850  0.70020183  0.05399017  1.0
  Ni  Ni42  1  0.86653183  0.03353517  0.05399017  1.0
  Ni  Ni43  1  0.86653183  0.36686850  0.05399017  1.0
  Ni  Ni44  1  0.86653183  0.70020183  0.05399017  1.0
  Ni  Ni45  1  0.19986517  0.20020183  0.01232350  1.0
  Ni  Ni46  1  0.19986517  0.53353517  0.01232350  1.0
  Ni  Ni47  1  0.19986517  0.86686850  0.01232350  1.0
  Ni  Ni48  1  0.53319850  0.20020183  0.01232350  1.0
  Ni  Ni49  1  0.53319850  0.53353517  0.01232350  1.0
  Ni  Ni50  1  0.53319850  0.86686850  0.01232350  1.0
  Ni  Ni51  1  0.86653183  0.20020183  0.01232350  1.0
  Ni  Ni52  1  0.86653183  0.53353517  0.01232350  1.0
  Ni  Ni53  1  0.86653183  0.86686850  0.01232350  1.0
  Ni  Ni54  1  0.06639783  0.06673367  0.02909129  1.0
  Ni  Ni55  1  0.06639783  0.40006700  0.02909129  1.0
  Ni  Ni56  1  0.06639783  0.73340033  0.02909129  1.0
  Ni  Ni57  1  0.39973117  0.06673367  0.02909129  1.0
  Ni  Ni58  1  0.39973117  0.40006700  0.02909129  1.0
  Ni  Ni59  1  0.39973117  0.73340033  0.02909129  1.0
  Ni  Ni60  1  0.73306450  0.06673367  0.02909129  1.0
  Ni  Ni61  1  0.73306450  0.40006700  0.02909129  1.0
  Ni  Ni62  1  0.73306450  0.73340033  0.02909129  1.0
  Ni  Ni63  1  0.06639783  0.23340033  0.07075796  1.0
  Ni  Ni64  1  0.06639783  0.56673367  0.07075796  1.0
  Ni  Ni65  1  0.06639783  0.90006700  0.07075796  1.0
  Ni  Ni66  1  0.39973117  0.23340033  0.07075796  1.0
  Ni  Ni67  1  0.39973117  0.56673367  0.07075796  1.0
  Ni  Ni68  1  0.39973117  0.90006700  0.07075796  1.0
  Ni  Ni69  1  0.73306450  0.23340033  0.07075796  1.0
  Ni  Ni70  1  0.73306450  0.56673367  0.07075796  1.0
  Ni  Ni71  1  0.73306450  0.90006700  0.07075796  1.0
  W  W72  1  0.00000000  0.16666667  0.03747488  1.0
  W  W73  1  0.00000000  0.50000000  0.03747488  1.0
  W  W74  1  0.00000000  0.83333333  0.03747488  1.0
  W  W75  1  0.33333333  0.16666667  0.03747488  1.0
  W  W76  1  0.33333333  0.50000000  0.03747487  1.0
  W  W77  1  0.33333333  0.83333333  0.03747488  1.0
  W  W78  1  0.66666667  0.16666667  0.03747488  1.0
  W  W79  1  0.66666667  0.50000000  0.03747487  1.0
  W  W80  1  0.66666667  0.83333333  0.03747488  1.0
  W  W81  1  0.00000000  0.00000000  0.07914154  1.0
  W  W82  1  0.00000000  0.33333333  0.07914154  1.0
  W  W83  1  0.00000000  0.66666667  0.07914154  1.0
  W  W84  1  0.33333333  0.00000000  0.07914154  1.0
  W  W85  1  0.33333333  0.33333333  0.07914154  1.0
  W  W86  1  0.33333333  0.66666667  0.07914154  1.0
  W  W87  1  0.66666667  0.00000000  0.07914154  1.0
  W  W88  1  0.66666667  0.33333333  0.07914154  1.0
  W  W89  1  0.66666667  0.66666667  0.07914154  1.0
  Ni  Ni90  1  0.26693550  0.26659967  0.12919179  1.0
  Ni  Ni91  1  0.26693550  0.59993300  0.12919179  1.0
  Ni  Ni92  1  0.26693550  0.93326633  0.12919179  1.0
  Ni  Ni93  1  0.60026883  0.26659967  0.12919179  1.0
  Ni  Ni94  1  0.60026883  0.59993300  0.12919179  1.0
  Ni  Ni95  1  0.60026883  0.93326633  0.12919179  1.0
  Ni  Ni96  1  0.93360217  0.26659967  0.12919179  1.0
  Ni  Ni97  1  0.93360217  0.59993300  0.12919179  1.0
  Ni  Ni98  1  0.93360217  0.93326633  0.12919179  1.0
  Ni  Ni99  1  0.26693550  0.09993300  0.08752512  1.0
  Ni  Ni100  1  0.26693550  0.43326633  0.08752512  1.0
  Ni  Ni101  1  0.26693550  0.76659967  0.08752512  1.0
  Ni  Ni102  1  0.60026883  0.09993300  0.08752512  1.0
  Ni  Ni103  1  0.60026883  0.43326633  0.08752512  1.0
  Ni  Ni104  1  0.60026883  0.76659967  0.08752512  1.0
  Ni  Ni105  1  0.93360217  0.09993300  0.08752512  1.0
  Ni  Ni106  1  0.93360217  0.43326633  0.08752512  1.0
  Ni  Ni107  1  0.93360217  0.76659967  0.08752512  1.0
  Ni  Ni108  1  0.13346817  0.29979817  0.10429292  1.0
  Ni  Ni109  1  0.13346817  0.63313150  0.10429292  1.0
  Ni  Ni110  1  0.13346817  0.96646483  0.10429292  1.0
  Ni  Ni111  1  0.46680150  0.29979817  0.10429292  1.0
  Ni  Ni112  1  0.46680150  0.63313150  0.10429292  1.0
  Ni  Ni113  1  0.46680150  0.96646483  0.10429292  1.0
  Ni  Ni114  1  0.80013483  0.29979817  0.10429292  1.0
  Ni  Ni115  1  0.80013483  0.63313150  0.10429292  1.0
  Ni  Ni116  1  0.80013483  0.96646483  0.10429292  1.0
  Ni  Ni117  1  0.13346817  0.13313150  0.14595958  1.0
  Ni  Ni118  1  0.13346817  0.46646483  0.14595958  1.0
  Ni  Ni119  1  0.13346817  0.79979817  0.14595958  1.0
  Ni  Ni120  1  0.46680150  0.13313150  0.14595958  1.0
  Ni  Ni121  1  0.46680150  0.46646483  0.14595958  1.0
  Ni  Ni122  1  0.46680150  0.79979817  0.14595958  1.0
  Ni  Ni123  1  0.80013483  0.13313150  0.14595958  1.0
  Ni  Ni124  1  0.80013483  0.46646483  0.14595958  1.0
  Ni  Ni125  1  0.80013483  0.79979817  0.14595958  1.0
  Ni  Ni126  1  0.19986517  0.03353517  0.13732350  1.0
  Ni  Ni127  1  0.19986517  0.36686850  0.13732350  1.0
  Ni  Ni128  1  0.19986517  0.70020183  0.13732350  1.0
  Ni  Ni129  1  0.53319850  0.03353517  0.13732350  1.0
  Ni  Ni130  1  0.53319850  0.36686850  0.13732350  1.0
  Ni  Ni131  1  0.53319850  0.70020183  0.13732350  1.0
  Ni  Ni132  1  0.86653183  0.03353517  0.13732350  1.0
  Ni  Ni133  1  0.86653183  0.36686850  0.13732350  1.0
  Ni  Ni134  1  0.86653183  0.70020183  0.13732350  1.0
  Ni  Ni135  1  0.19986517  0.20020183  0.09565683  1.0
  Ni  Ni136  1  0.19986517  0.53353517  0.09565683  1.0
  Ni  Ni137  1  0.19986517  0.86686850  0.09565683  1.0
  Ni  Ni138  1  0.53319850  0.20020183  0.09565683  1.0
  Ni  Ni139  1  0.53319850  0.53353517  0.09565683  1.0
  Ni  Ni140  1  0.53319850  0.86686850  0.09565683  1.0
  Ni  Ni141  1  0.86653183  0.20020183  0.09565683  1.0
  Ni  Ni142  1  0.86653183  0.53353517  0.09565683  1.0
  Ni  Ni143  1  0.86653183  0.86686850  0.09565683  1.0
  Ni  Ni144  1  0.06639783  0.06673367  0.11242463  1.0
  Ni  Ni145  1  0.06639783  0.40006700  0.11242463  1.0
  Ni  Ni146  1  0.06639783  0.73340033  0.11242463  1.0
  Ni  Ni147  1  0.39973117  0.06673367  0.11242463  1.0
  Ni  Ni148  1  0.39973117  0.40006700  0.11242463  1.0
  Ni  Ni149  1  0.39973117  0.73340033  0.11242463  1.0
  Ni  Ni150  1  0.73306450  0.06673367  0.11242463  1.0
  Ni  Ni151  1  0.73306450  0.40006700  0.11242463  1.0
  Ni  Ni152  1  0.73306450  0.73340033  0.11242463  1.0
  Ni  Ni153  1  0.06639783  0.23340033  0.15409129  1.0
  Ni  Ni154  1  0.06639783  0.56673367  0.15409129  1.0
  Ni  Ni155  1  0.06639783  0.90006700  0.15409129  1.0
  Ni  Ni156  1  0.39973117  0.23340033  0.15409129  1.0
  Ni  Ni157  1  0.39973117  0.56673367  0.15409129  1.0
  Ni  Ni158  1  0.39973117  0.90006700  0.15409129  1.0
  Ni  Ni159  1  0.73306450  0.23340033  0.15409129  1.0
  Ni  Ni160  1  0.73306450  0.56673367  0.15409129  1.0
  Ni  Ni161  1  0.73306450  0.90006700  0.15409129  1.0
  W  W162  1  0.00000000  0.16666667  0.12080821  1.0
  W  W163  1  0.00000000  0.50000000  0.12080821  1.0
  W  W164  1  0.00000000  0.83333333  0.12080821  1.0
  W  W165  1  0.33333333  0.16666667  0.12080821  1.0
  W  W166  1  0.33333333  0.50000000  0.12080821  1.0
  W  W167  1  0.33333333  0.83333333  0.12080821  1.0
  W  W168  1  0.66666667  0.16666667  0.12080821  1.0
  W  W169  1  0.66666667  0.50000000  0.12080821  1.0
  W  W170  1  0.66666667  0.83333333  0.12080821  1.0
  W  W171  1  0.00000000  0.00000000  0.16247488  1.0
  W  W172  1  0.00000000  0.33333333  0.16247488  1.0
  W  W173  1  0.00000000  0.66666667  0.16247488  1.0
  W  W174  1  0.33333333  0.00000000  0.16247487  1.0
  W  W175  1  0.33333333  0.33333333  0.16247487  1.0
  W  W176  1  0.33333333  0.66666667  0.16247488  1.0
  W  W177  1  0.66666667  0.00000000  0.16247488  1.0
  W  W178  1  0.66666667  0.33333333  0.16247487  1.0
  W  W179  1  0.66666667  0.66666667  0.16247487  1.0
  Ni  Ni180  1  0.26693550  0.26659967  0.21252513  1.0
  Ni  Ni181  1  0.26693550  0.59993300  0.21252513  1.0
  Ni  Ni182  1  0.26693550  0.93326633  0.21252512  1.0
  Ni  Ni183  1  0.60026883  0.26659967  0.21252513  1.0
  Ni  Ni184  1  0.60026883  0.59993300  0.21252513  1.0
  Ni  Ni185  1  0.60026883  0.93326633  0.21252512  1.0
  Ni  Ni186  1  0.93360217  0.26659967  0.21252513  1.0
  Ni  Ni187  1  0.93360217  0.59993300  0.21252513  1.0
  Ni  Ni188  1  0.93360217  0.93326633  0.21252512  1.0
  Ni  Ni189  1  0.26693550  0.09993300  0.17085846  1.0
  Ni  Ni190  1  0.26693550  0.43326633  0.17085846  1.0
  Ni  Ni191  1  0.26693550  0.76659967  0.17085846  1.0
  Ni  Ni192  1  0.60026883  0.09993300  0.17085846  1.0
  Ni  Ni193  1  0.60026883  0.43326633  0.17085846  1.0
  Ni  Ni194  1  0.60026883  0.76659967  0.17085846  1.0
  Ni  Ni195  1  0.93360217  0.09993300  0.17085846  1.0
  Ni  Ni196  1  0.93360217  0.43326633  0.17085846  1.0
  Ni  Ni197  1  0.93360217  0.76659967  0.17085846  1.0
  Ni  Ni198  1  0.13346817  0.29979817  0.18762625  1.0
  Ni  Ni199  1  0.13346817  0.63313150  0.18762625  1.0
  Ni  Ni200  1  0.13346817  0.96646483  0.18762625  1.0
  Ni  Ni201  1  0.46680150  0.29979817  0.18762625  1.0
  Ni  Ni202  1  0.46680150  0.63313150  0.18762625  1.0
  Ni  Ni203  1  0.46680150  0.96646483  0.18762625  1.0
  Ni  Ni204  1  0.80013483  0.29979817  0.18762625  1.0
  Ni  Ni205  1  0.80013483  0.63313150  0.18762625  1.0
  Ni  Ni206  1  0.80013483  0.96646483  0.18762625  1.0
  Ni  Ni207  1  0.13346817  0.13313150  0.22929292  1.0
  Ni  Ni208  1  0.13346817  0.46646483  0.22929292  1.0
  Ni  Ni209  1  0.13346817  0.79979817  0.22929292  1.0
  Ni  Ni210  1  0.46680150  0.13313150  0.22929292  1.0
  Ni  Ni211  1  0.46680150  0.46646483  0.22929292  1.0
  Ni  Ni212  1  0.46680150  0.79979817  0.22929292  1.0
  Ni  Ni213  1  0.80013483  0.13313150  0.22929292  1.0
  Ni  Ni214  1  0.80013483  0.46646483  0.22929292  1.0
  Ni  Ni215  1  0.80013483  0.79979817  0.22929292  1.0
  Ni  Ni216  1  0.19986517  0.03353517  0.22065683  1.0
  Ni  Ni217  1  0.19986517  0.36686850  0.22065683  1.0
  Ni  Ni218  1  0.19986517  0.70020183  0.22065683  1.0
  Ni  Ni219  1  0.53319850  0.03353517  0.22065683  1.0
  Ni  Ni220  1  0.53319850  0.36686850  0.22065683  1.0
  Ni  Ni221  1  0.53319850  0.70020183  0.22065683  1.0
  Ni  Ni222  1  0.86653183  0.03353517  0.22065683  1.0
  Ni  Ni223  1  0.86653183  0.36686850  0.22065683  1.0
  Ni  Ni224  1  0.86653183  0.70020183  0.22065683  1.0
  Ni  Ni225  1  0.19986517  0.20020183  0.17899017  1.0
  Ni  Ni226  1  0.19986517  0.53353517  0.17899017  1.0
  Ni  Ni227  1  0.19986517  0.86686850  0.17899017  1.0
  Ni  Ni228  1  0.53319850  0.20020183  0.17899017  1.0
  Ni  Ni229  1  0.53319850  0.53353517  0.17899017  1.0
  Ni  Ni230  1  0.53319850  0.86686850  0.17899017  1.0
  Ni  Ni231  1  0.86653183  0.20020183  0.17899017  1.0
  Ni  Ni232  1  0.86653183  0.53353517  0.17899017  1.0
  Ni  Ni233  1  0.86653183  0.86686850  0.17899017  1.0
  Ni  Ni234  1  0.06639783  0.06673367  0.19575796  1.0
  Ni  Ni235  1  0.06639783  0.40006700  0.19575796  1.0
  Ni  Ni236  1  0.06639783  0.73340033  0.19575796  1.0
  Ni  Ni237  1  0.39973117  0.06673367  0.19575796  1.0
  Ni  Ni238  1  0.39973117  0.40006700  0.19575796  1.0
  Ni  Ni239  1  0.39973117  0.73340033  0.19575796  1.0
  Ni  Ni240  1  0.73306450  0.06673367  0.19575796  1.0
  Ni  Ni241  1  0.73306450  0.40006700  0.19575796  1.0
  Ni  Ni242  1  0.73306450  0.73340033  0.19575796  1.0
  Ni  Ni243  1  0.06639783  0.23340033  0.23742463  1.0
  Ni  Ni244  1  0.06639783  0.56673367  0.23742463  1.0
  Ni  Ni245  1  0.06639783  0.90006700  0.23742463  1.0
  Ni  Ni246  1  0.39973117  0.23340033  0.23742463  1.0
  Ni  Ni247  1  0.39973117  0.56673367  0.23742463  1.0
  Ni  Ni248  1  0.39973117  0.90006700  0.23742463  1.0
  Ni  Ni249  1  0.73306450  0.23340033  0.23742463  1.0
  Ni  Ni250  1  0.73306450  0.56673367  0.23742463  1.0
  Ni  Ni251  1  0.73306450  0.90006700  0.23742463  1.0
  W  W252  1  0.00000000  0.16666667  0.20414154  1.0
  W  W253  1  0.00000000  0.50000000  0.20414154  1.0
  W  W254  1  0.00000000  0.83333333  0.20414154  1.0
  W  W255  1  0.33333333  0.16666667  0.20414154  1.0
  W  W256  1  0.33333333  0.50000000  0.20414154  1.0
  W  W257  1  0.33333333  0.83333333  0.20414154  1.0
  W  W258  1  0.66666667  0.16666667  0.20414154  1.0
  W  W259  1  0.66666667  0.50000000  0.20414154  1.0
  W  W260  1  0.66666667  0.83333333  0.20414154  1.0
  W  W261  1  0.00000000  0.00000000  0.24580821  1.0
  W  W262  1  0.00000000  0.33333333  0.24580821  1.0
  W  W263  1  0.00000000  0.66666667  0.24580821  1.0
  W  W264  1  0.33333333  0.00000000  0.24580821  1.0
  W  W265  1  0.33333333  0.33333333  0.24580821  1.0
  W  W266  1  0.33333333  0.66666667  0.24580821  1.0
  W  W267  1  0.66666667  0.00000000  0.24580821  1.0
  W  W268  1  0.66666667  0.33333333  0.24580821  1.0
  W  W269  1  0.66666667  0.66666667  0.24580821  1.0
  Ni  Ni270  1  0.26693550  0.26659967  0.29585846  1.0
  Ni  Ni271  1  0.26693550  0.59993300  0.29585846  1.0
  Ni  Ni272  1  0.26693550  0.93326633  0.29585846  1.0
  Ni  Ni273  1  0.60026883  0.26659967  0.29585846  1.0
  Ni  Ni274  1  0.60026883  0.59993300  0.29585846  1.0
  Ni  Ni275  1  0.60026883  0.93326633  0.29585846  1.0
  Ni  Ni276  1  0.93360217  0.26659967  0.29585846  1.0
  Ni  Ni277  1  0.93360217  0.59993300  0.29585846  1.0
  Ni  Ni278  1  0.93360217  0.93326633  0.29585846  1.0
  Ni  Ni279  1  0.26693550  0.09993300  0.25419179  1.0
  Ni  Ni280  1  0.26693550  0.43326633  0.25419179  1.0
  Ni  Ni281  1  0.26693550  0.76659967  0.25419179  1.0
  Ni  Ni282  1  0.60026883  0.09993300  0.25419179  1.0
  Ni  Ni283  1  0.60026883  0.43326633  0.25419179  1.0
  Ni  Ni284  1  0.60026883  0.76659967  0.25419179  1.0
  Ni  Ni285  1  0.93360217  0.09993300  0.25419179  1.0
  Ni  Ni286  1  0.93360217  0.43326633  0.25419179  1.0
  Ni  Ni287  1  0.93360217  0.76659967  0.25419179  1.0
  Ni  Ni288  1  0.13346817  0.29979817  0.27095958  1.0
  Ni  Ni289  1  0.13346817  0.63313150  0.27095958  1.0
  Ni  Ni290  1  0.13346817  0.96646483  0.27095958  1.0
  Ni  Ni291  1  0.46680150  0.29979817  0.27095958  1.0
  Ni  Ni292  1  0.46680150  0.63313150  0.27095958  1.0
  Ni  Ni293  1  0.46680150  0.96646483  0.27095958  1.0
  Ni  Ni294  1  0.80013483  0.29979817  0.27095958  1.0
  Ni  Ni295  1  0.80013483  0.63313150  0.27095958  1.0
  Ni  Ni296  1  0.80013483  0.96646483  0.27095958  1.0
  Ni  Ni297  1  0.13346817  0.13313150  0.31262625  1.0
  Ni  Ni298  1  0.13346817  0.46646483  0.31262625  1.0
  Ni  Ni299  1  0.13346817  0.79979817  0.31262625  1.0
  Ni  Ni300  1  0.46680150  0.13313150  0.31262625  1.0
  Ni  Ni301  1  0.46680150  0.46646483  0.31262625  1.0
  Ni  Ni302  1  0.46680150  0.79979817  0.31262625  1.0
  Ni  Ni303  1  0.80013483  0.13313150  0.31262625  1.0
  Ni  Ni304  1  0.80013483  0.46646483  0.31262625  1.0
  Ni  Ni305  1  0.80013483  0.79979817  0.31262625  1.0
  Ni  Ni306  1  0.19986517  0.03353517  0.30399017  1.0
  Ni  Ni307  1  0.19986517  0.36686850  0.30399017  1.0
  Ni  Ni308  1  0.19986517  0.70020183  0.30399017  1.0
  Ni  Ni309  1  0.53319850  0.03353517  0.30399017  1.0
  Ni  Ni310  1  0.53319850  0.36686850  0.30399017  1.0
  Ni  Ni311  1  0.53319850  0.70020183  0.30399017  1.0
  Ni  Ni312  1  0.86653183  0.03353517  0.30399017  1.0
  Ni  Ni313  1  0.86653183  0.36686850  0.30399017  1.0
  Ni  Ni314  1  0.86653183  0.70020183  0.30399017  1.0
  Ni  Ni315  1  0.19986517  0.20020183  0.26232350  1.0
  Ni  Ni316  1  0.19986517  0.53353517  0.26232350  1.0
  Ni  Ni317  1  0.19986517  0.86686850  0.26232350  1.0
  Ni  Ni318  1  0.53319850  0.20020183  0.26232350  1.0
  Ni  Ni319  1  0.53319850  0.53353517  0.26232350  1.0
  Ni  Ni320  1  0.53319850  0.86686850  0.26232350  1.0
  Ni  Ni321  1  0.86653183  0.20020183  0.26232350  1.0
  Ni  Ni322  1  0.86653183  0.53353517  0.26232350  1.0
  Ni  Ni323  1  0.86653183  0.86686850  0.26232350  1.0
  Ni  Ni324  1  0.06639783  0.06673367  0.27909129  1.0
  Ni  Ni325  1  0.06639783  0.40006700  0.27909129  1.0
  Ni  Ni326  1  0.06639783  0.73340033  0.27909129  1.0
  Ni  Ni327  1  0.39973117  0.06673367  0.27909129  1.0
  Ni  Ni328  1  0.39973117  0.40006700  0.27909129  1.0
  Ni  Ni329  1  0.39973117  0.73340033  0.27909129  1.0
  Ni  Ni330  1  0.73306450  0.06673367  0.27909129  1.0
  Ni  Ni331  1  0.73306450  0.40006700  0.27909129  1.0
  Ni  Ni332  1  0.73306450  0.73340033  0.27909129  1.0
  Ni  Ni333  1  0.06639783  0.23340033  0.32075796  1.0
  Ni  Ni334  1  0.06639783  0.56673367  0.32075796  1.0
  Ni  Ni335  1  0.06639783  0.90006700  0.32075796  1.0
  Ni  Ni336  1  0.39973117  0.23340033  0.32075796  1.0
  Ni  Ni337  1  0.39973117  0.56673367  0.32075796  1.0
  Ni  Ni338  1  0.39973117  0.90006700  0.32075796  1.0
  Ni  Ni339  1  0.73306450  0.23340033  0.32075796  1.0
  Ni  Ni340  1  0.73306450  0.56673367  0.32075796  1.0
  Ni  Ni341  1  0.73306450  0.90006700  0.32075796  1.0
  W  W342  1  0.00000000  0.16666667  0.28747488  1.0
  W  W343  1  0.00000000  0.50000000  0.28747488  1.0
  W  W344  1  0.00000000  0.83333333  0.28747487  1.0
  W  W345  1  0.33333333  0.16666667  0.28747487  1.0
  W  W346  1  0.33333333  0.50000000  0.28747488  1.0
  W  W347  1  0.33333333  0.83333333  0.28747487  1.0
  W  W348  1  0.66666667  0.16666667  0.28747487  1.0
  W  W349  1  0.66666667  0.50000000  0.28747488  1.0
  W  W350  1  0.66666667  0.83333333  0.28747488  1.0
  W  W351  1  0.00000000  0.00000000  0.32914154  1.0
  W  W352  1  0.00000000  0.33333333  0.32914154  1.0
  W  W353  1  0.00000000  0.66666667  0.32914154  1.0
  W  W354  1  0.33333333  0.00000000  0.32914154  1.0
  W  W355  1  0.33333333  0.33333333  0.32914154  1.0
  W  W356  1  0.33333333  0.66666667  0.32914154  1.0
  W  W357  1  0.66666667  0.00000000  0.32914154  1.0
  W  W358  1  0.66666667  0.33333333  0.32914154  1.0
  W  W359  1  0.66666667  0.66666667  0.32914154  1.0
  Ni  Ni360  1  0.26693550  0.26659967  0.37919179  1.0
  Ni  Ni361  1  0.26693550  0.59993300  0.37919179  1.0
  Ni  Ni362  1  0.26693550  0.93326633  0.37919179  1.0
  Ni  Ni363  1  0.60026883  0.26659967  0.37919179  1.0
  Ni  Ni364  1  0.60026883  0.59993300  0.37919179  1.0
  Ni  Ni365  1  0.60026883  0.93326633  0.37919179  1.0
  Ni  Ni366  1  0.93360217  0.26659967  0.37919179  1.0
  Ni  Ni367  1  0.93360217  0.59993300  0.37919179  1.0
  Ni  Ni368  1  0.93360217  0.93326633  0.37919179  1.0
  Ni  Ni369  1  0.26693550  0.09993300  0.33752513  1.0
  Ni  Ni370  1  0.26693550  0.43326633  0.33752512  1.0
  Ni  Ni371  1  0.26693550  0.76659967  0.33752512  1.0
  Ni  Ni372  1  0.60026883  0.09993300  0.33752512  1.0
  Ni  Ni373  1  0.60026883  0.43326633  0.33752513  1.0
  Ni  Ni374  1  0.60026883  0.76659967  0.33752512  1.0
  Ni  Ni375  1  0.93360217  0.09993300  0.33752512  1.0
  Ni  Ni376  1  0.93360217  0.43326633  0.33752512  1.0
  Ni  Ni377  1  0.93360217  0.76659967  0.33752512  1.0
  Ni  Ni378  1  0.13346817  0.29979817  0.35429292  1.0
  Ni  Ni379  1  0.13346817  0.63313150  0.35429292  1.0
  Ni  Ni380  1  0.13346817  0.96646483  0.35429292  1.0
  Ni  Ni381  1  0.46680150  0.29979817  0.35429292  1.0
  Ni  Ni382  1  0.46680150  0.63313150  0.35429292  1.0
  Ni  Ni383  1  0.46680150  0.96646483  0.35429292  1.0
  Ni  Ni384  1  0.80013483  0.29979817  0.35429292  1.0
  Ni  Ni385  1  0.80013483  0.63313150  0.35429292  1.0
  Ni  Ni386  1  0.80013483  0.96646483  0.35429292  1.0
  Ni  Ni387  1  0.13346817  0.13313150  0.39595958  1.0
  Ni  Ni388  1  0.13346817  0.46646483  0.39595958  1.0
  Ni  Ni389  1  0.13346817  0.79979817  0.39595958  1.0
  Ni  Ni390  1  0.46680150  0.13313150  0.39595958  1.0
  Ni  Ni391  1  0.46680150  0.46646483  0.39595958  1.0
  Ni  Ni392  1  0.46680150  0.79979817  0.39595958  1.0
  Ni  Ni393  1  0.80013483  0.13313150  0.39595958  1.0
  Ni  Ni394  1  0.80013483  0.46646483  0.39595958  1.0
  Ni  Ni395  1  0.80013483  0.79979817  0.39595958  1.0
  Ni  Ni396  1  0.19986517  0.03353517  0.38732350  1.0
  Ni  Ni397  1  0.19986517  0.36686850  0.38732350  1.0
  Ni  Ni398  1  0.19986517  0.70020183  0.38732350  1.0
  Ni  Ni399  1  0.53319850  0.03353517  0.38732350  1.0
  Ni  Ni400  1  0.53319850  0.36686850  0.38732350  1.0
  Ni  Ni401  1  0.53319850  0.70020183  0.38732350  1.0
  Ni  Ni402  1  0.86653183  0.03353517  0.38732350  1.0
  Ni  Ni403  1  0.86653183  0.36686850  0.38732350  1.0
  Ni  Ni404  1  0.86653183  0.70020183  0.38732350  1.0
  Ni  Ni405  1  0.19986517  0.20020183  0.34565683  1.0
  Ni  Ni406  1  0.19986517  0.53353517  0.34565683  1.0
  Ni  Ni407  1  0.19986517  0.86686850  0.34565683  1.0
  Ni  Ni408  1  0.53319850  0.20020183  0.34565683  1.0
  Ni  Ni409  1  0.53319850  0.53353517  0.34565683  1.0
  Ni  Ni410  1  0.53319850  0.86686850  0.34565683  1.0
  Ni  Ni411  1  0.86653183  0.20020183  0.34565683  1.0
  Ni  Ni412  1  0.86653183  0.53353517  0.34565683  1.0
  Ni  Ni413  1  0.86653183  0.86686850  0.34565683  1.0
  Ni  Ni414  1  0.06639783  0.06673367  0.36242463  1.0
  Ni  Ni415  1  0.06639783  0.40006700  0.36242463  1.0
  Ni  Ni416  1  0.06639783  0.73340033  0.36242463  1.0
  Ni  Ni417  1  0.39973117  0.06673367  0.36242463  1.0
  Ni  Ni418  1  0.39973117  0.40006700  0.36242463  1.0
  Ni  Ni419  1  0.39973117  0.73340033  0.36242463  1.0
  Ni  Ni420  1  0.73306450  0.06673367  0.36242463  1.0
  Ni  Ni421  1  0.73306450  0.40006700  0.36242463  1.0
  Ni  Ni422  1  0.73306450  0.73340033  0.36242463  1.0
  Ni  Ni423  1  0.06639783  0.23340033  0.40409129  1.0
  Ni  Ni424  1  0.06639783  0.56673367  0.40409129  1.0
  Ni  Ni425  1  0.06639783  0.90006700  0.40409129  1.0
  Ni  Ni426  1  0.39973117  0.23340033  0.40409129  1.0
  Ni  Ni427  1  0.39973117  0.56673367  0.40409129  1.0
  Ni  Ni428  1  0.39973117  0.90006700  0.40409129  1.0
  Ni  Ni429  1  0.73306450  0.23340033  0.40409129  1.0
  Ni  Ni430  1  0.73306450  0.56673367  0.40409129  1.0
  Ni  Ni431  1  0.73306450  0.90006700  0.40409129  1.0
  W  W432  1  0.00000000  0.16666667  0.37080821  1.0
  W  W433  1  0.00000000  0.50000000  0.37080821  1.0
  W  W434  1  0.00000000  0.83333333  0.37080821  1.0
  W  W435  1  0.33333333  0.16666667  0.37080821  1.0
  W  W436  1  0.33333333  0.50000000  0.37080821  1.0
  W  W437  1  0.33333333  0.83333333  0.37080821  1.0
  W  W438  1  0.66666667  0.16666667  0.37080821  1.0
  W  W439  1  0.66666667  0.50000000  0.37080821  1.0
  W  W440  1  0.66666667  0.83333333  0.37080821  1.0
  W  W441  1  0.00000000  0.00000000  0.41247488  1.0
  W  W442  1  0.00000000  0.33333333  0.41247488  1.0
  W  W443  1  0.00000000  0.66666667  0.41247488  1.0
  W  W444  1  0.33333333  0.00000000  0.41247488  1.0
  W  W445  1  0.33333333  0.33333333  0.41247487  1.0
  W  W446  1  0.33333333  0.66666667  0.41247487  1.0
  W  W447  1  0.66666667  0.00000000  0.41247487  1.0
  W  W448  1  0.66666667  0.33333333  0.41247487  1.0
  W  W449  1  0.66666667  0.66666667  0.41247488  1.0
