# generated using pymatgen
data_Ni4W
_symmetry_space_group_name_H-M   'P 1'
_cell_length_a   13.28558307
_cell_length_b   24.34020779
_cell_length_c   75.28497073
_cell_angle_alpha   23.64637727
_cell_angle_beta   99.25761253
_cell_angle_gamma   90.00000000
_symmetry_Int_Tables_number   1
_chemical_formula_structural   Ni4W
_chemical_formula_sum   'Ni252 W63'
_cell_volume   8944.77412991
_cell_formula_units_Z   63
loop_
 _symmetry_equiv_pos_site_id
 _symmetry_equiv_pos_as_xyz
  1  'x, y, z'
loop_
 _atom_site_type_symbol
 _atom_site_label
 _atom_site_symmetry_multiplicity
 _atom_site_fract_x
 _atom_site_fract_y
 _atom_site_fract_z
 _atom_site_occupancy
  Ni  Ni0  1  0.19986600  0.19986517  0.02935250  1.0
  Ni  Ni1  1  0.19986600  0.53319850  0.02935250  1.0
  Ni  Ni2  1  0.19986600  0.86653183  0.02935250  1.0
  Ni  Ni3  1  0.53319933  0.19986517  0.02935250  1.0
  Ni  Ni4  1  0.53319933  0.53319850  0.02935250  1.0
  Ni  Ni5  1  0.53319933  0.86653183  0.02935250  1.0
  Ni  Ni6  1  0.86653267  0.19986517  0.02935250  1.0
  Ni  Ni7  1  0.86653267  0.53319850  0.02935250  1.0
  Ni  Ni8  1  0.86653267  0.86653183  0.02935250  1.0
  Ni  Ni9  1  0.26626300  0.26693550  0.04106962  1.0
  Ni  Ni10  1  0.26626300  0.60026883  0.04106962  1.0
  Ni  Ni11  1  0.26626300  0.93360217  0.04106962  1.0
  Ni  Ni12  1  0.59959633  0.26693550  0.04106962  1.0
  Ni  Ni13  1  0.59959633  0.60026883  0.04106962  1.0
  Ni  Ni14  1  0.59959633  0.93360217  0.04106962  1.0
  Ni  Ni15  1  0.93292967  0.26693550  0.04106962  1.0
  Ni  Ni16  1  0.93292967  0.60026883  0.04106962  1.0
  Ni  Ni17  1  0.93292967  0.93360217  0.04106962  1.0
  Ni  Ni18  1  0.06707033  0.06639783  0.00591797  1.0
  Ni  Ni19  1  0.06707033  0.39973117  0.00591797  1.0
  Ni  Ni20  1  0.06707033  0.73306450  0.00591797  1.0
  Ni  Ni21  1  0.40040367  0.06639783  0.00591797  1.0
  Ni  Ni22  1  0.40040367  0.39973117  0.00591797  1.0
  Ni  Ni23  1  0.40040367  0.73306450  0.00591797  1.0
  Ni  Ni24  1  0.73373700  0.06639783  0.00591797  1.0
  Ni  Ni25  1  0.73373700  0.39973117  0.00591797  1.0
  Ni  Ni26  1  0.73373700  0.73306450  0.00591797  1.0
  Ni  Ni27  1  0.13346733  0.13346817  0.01763509  1.0
  Ni  Ni28  1  0.13346733  0.46680150  0.01763509  1.0
  Ni  Ni29  1  0.13346733  0.80013483  0.01763509  1.0
  Ni  Ni30  1  0.46680067  0.13346817  0.01763509  1.0
  Ni  Ni31  1  0.46680067  0.46680150  0.01763509  1.0
  Ni  Ni32  1  0.46680067  0.80013483  0.01763509  1.0
  Ni  Ni33  1  0.80013400  0.13346817  0.01763509  1.0
  Ni  Ni34  1  0.80013400  0.46680150  0.01763509  1.0
  Ni  Ni35  1  0.80013400  0.80013483  0.01763509  1.0
  W  W36  1  0.00000000  0.00000000  0.05290556  1.0
  W  W37  1  0.00000000  0.33333333  0.05290556  1.0
  W  W38  1  0.00000000  0.66666667  0.05290556  1.0
  W  W39  1  0.33333333  0.00000000  0.05290556  1.0
  W  W40  1  0.33333333  0.33333333  0.05290556  1.0
  W  W41  1  0.33333333  0.66666667  0.05290556  1.0
  W  W42  1  0.66666667  0.00000000  0.05290556  1.0
  W  W43  1  0.66666667  0.33333333  0.05290556  1.0
  W  W44  1  0.66666667  0.66666667  0.05290556  1.0
  Ni  Ni45  1  0.19986600  0.19986517  0.08817603  1.0
  Ni  Ni46  1  0.19986600  0.53319850  0.08817603  1.0
  Ni  Ni47  1  0.19986600  0.86653183  0.08817603  1.0
  Ni  Ni48  1  0.53319933  0.19986517  0.08817603  1.0
  Ni  Ni49  1  0.53319933  0.53319850  0.08817603  1.0
  Ni  Ni50  1  0.53319933  0.86653183  0.08817603  1.0
  Ni  Ni51  1  0.86653267  0.19986517  0.08817603  1.0
  Ni  Ni52  1  0.86653267  0.53319850  0.08817603  1.0
  Ni  Ni53  1  0.86653267  0.86653183  0.08817603  1.0
  Ni  Ni54  1  0.26626300  0.26693550  0.09989315  1.0
  Ni  Ni55  1  0.26626300  0.60026883  0.09989315  1.0
  Ni  Ni56  1  0.26626300  0.93360217  0.09989315  1.0
  Ni  Ni57  1  0.59959633  0.26693550  0.09989315  1.0
  Ni  Ni58  1  0.59959633  0.60026883  0.09989315  1.0
  Ni  Ni59  1  0.59959633  0.93360217  0.09989315  1.0
  Ni  Ni60  1  0.93292967  0.26693550  0.09989315  1.0
  Ni  Ni61  1  0.93292967  0.60026883  0.09989315  1.0
  Ni  Ni62  1  0.93292967  0.93360217  0.09989315  1.0
  Ni  Ni63  1  0.06707033  0.06639783  0.06474150  1.0
  Ni  Ni64  1  0.06707033  0.39973117  0.06474150  1.0
  Ni  Ni65  1  0.06707033  0.73306450  0.06474150  1.0
  Ni  Ni66  1  0.40040367  0.06639783  0.06474150  1.0
  Ni  Ni67  1  0.40040367  0.39973117  0.06474150  1.0
  Ni  Ni68  1  0.40040367  0.73306450  0.06474150  1.0
  Ni  Ni69  1  0.73373700  0.06639783  0.06474150  1.0
  Ni  Ni70  1  0.73373700  0.39973117  0.06474150  1.0
  Ni  Ni71  1  0.73373700  0.73306450  0.06474150  1.0
  Ni  Ni72  1  0.13346733  0.13346817  0.07645862  1.0
  Ni  Ni73  1  0.13346733  0.46680150  0.07645862  1.0
  Ni  Ni74  1  0.13346733  0.80013483  0.07645862  1.0
  Ni  Ni75  1  0.46680067  0.13346817  0.07645862  1.0
  Ni  Ni76  1  0.46680067  0.46680150  0.07645862  1.0
  Ni  Ni77  1  0.46680067  0.80013483  0.07645862  1.0
  Ni  Ni78  1  0.80013400  0.13346817  0.07645862  1.0
  Ni  Ni79  1  0.80013400  0.46680150  0.07645862  1.0
  Ni  Ni80  1  0.80013400  0.80013483  0.07645862  1.0
  W  W81  1  0.00000000  0.00000000  0.11172909  1.0
  W  W82  1  0.00000000  0.33333333  0.11172909  1.0
  W  W83  1  0.00000000  0.66666667  0.11172909  1.0
  W  W84  1  0.33333333  0.00000000  0.11172909  1.0
  W  W85  1  0.33333333  0.33333333  0.11172909  1.0
  W  W86  1  0.33333333  0.66666667  0.11172909  1.0
  W  W87  1  0.66666667  0.00000000  0.11172909  1.0
  W  W88  1  0.66666667  0.33333333  0.11172909  1.0
  W  W89  1  0.66666667  0.66666667  0.11172909  1.0
  Ni  Ni90  1  0.19986600  0.19986517  0.14699956  1.0
  Ni  Ni91  1  0.19986600  0.53319850  0.14699956  1.0
  Ni  Ni92  1  0.19986600  0.86653183  0.14699956  1.0
  Ni  Ni93  1  0.53319933  0.19986517  0.14699956  1.0
  Ni  Ni94  1  0.53319933  0.53319850  0.14699956  1.0
  Ni  Ni95  1  0.53319933  0.86653183  0.14699956  1.0
  Ni  Ni96  1  0.86653267  0.19986517  0.14699956  1.0
  Ni  Ni97  1  0.86653267  0.53319850  0.14699956  1.0
  Ni  Ni98  1  0.86653267  0.86653183  0.14699956  1.0
  Ni  Ni99  1  0.26626300  0.26693550  0.15871668  1.0
  Ni  Ni100  1  0.26626300  0.60026883  0.15871668  1.0
  Ni  Ni101  1  0.26626300  0.93360217  0.15871668  1.0
  Ni  Ni102  1  0.59959633  0.26693550  0.15871668  1.0
  Ni  Ni103  1  0.59959633  0.60026883  0.15871668  1.0
  Ni  Ni104  1  0.59959633  0.93360217  0.15871668  1.0
  Ni  Ni105  1  0.93292967  0.26693550  0.15871668  1.0
  Ni  Ni106  1  0.93292967  0.60026883  0.15871668  1.0
  Ni  Ni107  1  0.93292967  0.93360217  0.15871668  1.0
  Ni  Ni108  1  0.06707033  0.06639783  0.12356503  1.0
  Ni  Ni109  1  0.06707033  0.39973117  0.12356503  1.0
  Ni  Ni110  1  0.06707033  0.73306450  0.12356503  1.0
  Ni  Ni111  1  0.40040367  0.06639783  0.12356503  1.0
  Ni  Ni112  1  0.40040367  0.39973117  0.12356503  1.0
  Ni  Ni113  1  0.40040367  0.73306450  0.12356503  1.0
  Ni  Ni114  1  0.73373700  0.06639783  0.12356503  1.0
  Ni  Ni115  1  0.73373700  0.39973117  0.12356503  1.0
  Ni  Ni116  1  0.73373700  0.73306450  0.12356503  1.0
  Ni  Ni117  1  0.13346733  0.13346817  0.13528215  1.0
  Ni  Ni118  1  0.13346733  0.46680150  0.13528215  1.0
  Ni  Ni119  1  0.13346733  0.80013483  0.13528215  1.0
  Ni  Ni120  1  0.46680067  0.13346817  0.13528215  1.0
  Ni  Ni121  1  0.46680067  0.46680150  0.13528215  1.0
  Ni  Ni122  1  0.46680067  0.80013483  0.13528215  1.0
  Ni  Ni123  1  0.80013400  0.13346817  0.13528215  1.0
  Ni  Ni124  1  0.80013400  0.46680150  0.13528215  1.0
  Ni  Ni125  1  0.80013400  0.80013483  0.13528215  1.0
  W  W126  1  0.00000000  0.00000000  0.17055262  1.0
  W  W127  1  0.00000000  0.33333333  0.17055262  1.0
  W  W128  1  0.00000000  0.66666667  0.17055262  1.0
  W  W129  1  0.33333333  0.00000000  0.17055262  1.0
  W  W130  1  0.33333333  0.33333333  0.17055262  1.0
  W  W131  1  0.33333333  0.66666667  0.17055262  1.0
  W  W132  1  0.66666667  0.00000000  0.17055262  1.0
  W  W133  1  0.66666667  0.33333333  0.17055262  1.0
  W  W134  1  0.66666667  0.66666667  0.17055262  1.0
  Ni  Ni135  1  0.19986600  0.19986517  0.20582309  1.0
  Ni  Ni136  1  0.19986600  0.53319850  0.20582309  1.0
  Ni  Ni137  1  0.19986600  0.86653183  0.20582309  1.0
  Ni  Ni138  1  0.53319933  0.19986517  0.20582309  1.0
  Ni  Ni139  1  0.53319933  0.53319850  0.20582309  1.0
  Ni  Ni140  1  0.53319933  0.86653183  0.20582309  1.0
  Ni  Ni141  1  0.86653267  0.19986517  0.20582309  1.0
  Ni  Ni142  1  0.86653267  0.53319850  0.20582309  1.0
  Ni  Ni143  1  0.86653267  0.86653183  0.20582309  1.0
  Ni  Ni144  1  0.26626300  0.26693550  0.21754021  1.0
  Ni  Ni145  1  0.26626300  0.60026883  0.21754021  1.0
  Ni  Ni146  1  0.26626300  0.93360217  0.21754021  1.0
  Ni  Ni147  1  0.59959633  0.26693550  0.21754021  1.0
  Ni  Ni148  1  0.59959633  0.60026883  0.21754021  1.0
  Ni  Ni149  1  0.59959633  0.93360217  0.21754021  1.0
  Ni  Ni150  1  0.93292967  0.26693550  0.21754021  1.0
  Ni  Ni151  1  0.93292967  0.60026883  0.21754021  1.0
  Ni  Ni152  1  0.93292967  0.93360217  0.21754021  1.0
  Ni  Ni153  1  0.06707033  0.06639783  0.18238856  1.0
  Ni  Ni154  1  0.06707033  0.39973117  0.18238856  1.0
  Ni  Ni155  1  0.06707033  0.73306450  0.18238856  1.0
  Ni  Ni156  1  0.40040367  0.06639783  0.18238856  1.0
  Ni  Ni157  1  0.40040367  0.39973117  0.18238856  1.0
  Ni  Ni158  1  0.40040367  0.73306450  0.18238856  1.0
  Ni  Ni159  1  0.73373700  0.06639783  0.18238856  1.0
  Ni  Ni160  1  0.73373700  0.39973117  0.18238856  1.0
  Ni  Ni161  1  0.73373700  0.73306450  0.18238856  1.0
  Ni  Ni162  1  0.13346733  0.13346817  0.19410568  1.0
  Ni  Ni163  1  0.13346733  0.46680150  0.19410568  1.0
  Ni  Ni164  1  0.13346733  0.80013483  0.19410568  1.0
  Ni  Ni165  1  0.46680067  0.13346817  0.19410568  1.0
  Ni  Ni166  1  0.46680067  0.46680150  0.19410568  1.0
  Ni  Ni167  1  0.46680067  0.80013483  0.19410568  1.0
  Ni  Ni168  1  0.80013400  0.13346817  0.19410568  1.0
  Ni  Ni169  1  0.80013400  0.46680150  0.19410568  1.0
  Ni  Ni170  1  0.80013400  0.80013483  0.19410568  1.0
  W  W171  1  0.00000000  0.00000000  0.22937615  1.0
  W  W172  1  0.00000000  0.33333333  0.22937615  1.0
  W  W173  1  0.00000000  0.66666667  0.22937615  1.0
  W  W174  1  0.33333333  0.00000000  0.22937615  1.0
  W  W175  1  0.33333333  0.33333333  0.22937615  1.0
  W  W176  1  0.33333333  0.66666667  0.22937615  1.0
  W  W177  1  0.66666667  0.00000000  0.22937615  1.0
  W  W178  1  0.66666667  0.33333333  0.22937615  1.0
  W  W179  1  0.66666667  0.66666667  0.22937615  1.0
  Ni  Ni180  1  0.19986600  0.19986517  0.26464662  1.0
  Ni  Ni181  1  0.19986600  0.53319850  0.26464662  1.0
  Ni  Ni182  1  0.19986600  0.86653183  0.26464662  1.0
  Ni  Ni183  1  0.53319933  0.19986517  0.26464662  1.0
  Ni  Ni184  1  0.53319933  0.53319850  0.26464662  1.0
  Ni  Ni185  1  0.53319933  0.86653183  0.26464662  1.0
  Ni  Ni186  1  0.86653267  0.19986517  0.26464662  1.0
  Ni  Ni187  1  0.86653267  0.53319850  0.26464662  1.0
  Ni  Ni188  1  0.86653267  0.86653183  0.26464662  1.0
  Ni  Ni189  1  0.26626300  0.26693550  0.27636374  1.0
  Ni  Ni190  1  0.26626300  0.60026883  0.27636374  1.0
  Ni  Ni191  1  0.26626300  0.93360217  0.27636374  1.0
  Ni  Ni192  1  0.59959633  0.26693550  0.27636374  1.0
  Ni  Ni193  1  0.59959633  0.60026883  0.27636374  1.0
  Ni  Ni194  1  0.59959633  0.93360217  0.27636374  1.0
  Ni  Ni195  1  0.93292967  0.26693550  0.27636374  1.0
  Ni  Ni196  1  0.93292967  0.60026883  0.27636374  1.0
  Ni  Ni197  1  0.93292967  0.93360217  0.27636374  1.0
  Ni  Ni198  1  0.06707033  0.06639783  0.24121209  1.0
  Ni  Ni199  1  0.06707033  0.39973117  0.24121209  1.0
  Ni  Ni200  1  0.06707033  0.73306450  0.24121209  1.0
  Ni  Ni201  1  0.40040367  0.06639783  0.24121209  1.0
  Ni  Ni202  1  0.40040367  0.39973117  0.24121209  1.0
  Ni  Ni203  1  0.40040367  0.73306450  0.24121209  1.0
  Ni  Ni204  1  0.73373700  0.06639783  0.24121209  1.0
  Ni  Ni205  1  0.73373700  0.39973117  0.24121209  1.0
  Ni  Ni206  1  0.73373700  0.73306450  0.24121209  1.0
  Ni  Ni207  1  0.13346733  0.13346817  0.25292921  1.0
  Ni  Ni208  1  0.13346733  0.46680150  0.25292921  1.0
  Ni  Ni209  1  0.13346733  0.80013483  0.25292921  1.0
  Ni  Ni210  1  0.46680067  0.13346817  0.25292921  1.0
  Ni  Ni211  1  0.46680067  0.46680150  0.25292921  1.0
  Ni  Ni212  1  0.46680067  0.80013483  0.25292921  1.0
  Ni  Ni213  1  0.80013400  0.13346817  0.25292921  1.0
  Ni  Ni214  1  0.80013400  0.46680150  0.25292921  1.0
  Ni  Ni215  1  0.80013400  0.80013483  0.25292921  1.0
  W  W216  1  0.00000000  0.00000000  0.28819968  1.0
  W  W217  1  0.00000000  0.33333333  0.28819968  1.0
  W  W218  1  0.00000000  0.66666667  0.28819968  1.0
  W  W219  1  0.33333333  0.00000000  0.28819968  1.0
  W  W220  1  0.33333333  0.33333333  0.28819968  1.0
  W  W221  1  0.33333333  0.66666667  0.28819968  1.0
  W  W222  1  0.66666667  0.00000000  0.28819968  1.0
  W  W223  1  0.66666667  0.33333333  0.28819968  1.0
  W  W224  1  0.66666667  0.66666667  0.28819968  1.0
  Ni  Ni225  1  0.19986600  0.19986517  0.32347015  1.0
  Ni  Ni226  1  0.19986600  0.53319850  0.32347015  1.0
  Ni  Ni227  1  0.19986600  0.86653183  0.32347015  1.0
  Ni  Ni228  1  0.53319933  0.19986517  0.32347015  1.0
  Ni  Ni229  1  0.53319933  0.53319850  0.32347015  1.0
  Ni  Ni230  1  0.53319933  0.86653183  0.32347015  1.0
  Ni  Ni231  1  0.86653267  0.19986517  0.32347015  1.0
  Ni  Ni232  1  0.86653267  0.53319850  0.32347015  1.0
  Ni  Ni233  1  0.86653267  0.86653183  0.32347015  1.0
  Ni  Ni234  1  0.26626300  0.26693550  0.33518726  1.0
  Ni  Ni235  1  0.26626300  0.60026883  0.33518726  1.0
  Ni  Ni236  1  0.26626300  0.93360217  0.33518726  1.0
  Ni  Ni237  1  0.59959633  0.26693550  0.33518726  1.0
  Ni  Ni238  1  0.59959633  0.60026883  0.33518726  1.0
  Ni  Ni239  1  0.59959633  0.93360217  0.33518726  1.0
  Ni  Ni240  1  0.93292967  0.26693550  0.33518726  1.0
  Ni  Ni241  1  0.93292967  0.60026883  0.33518726  1.0
  Ni  Ni242  1  0.93292967  0.93360217  0.33518726  1.0
  Ni  Ni243  1  0.06707033  0.06639783  0.30003562  1.0
  Ni  Ni244  1  0.06707033  0.39973117  0.30003562  1.0
  Ni  Ni245  1  0.06707033  0.73306450  0.30003562  1.0
  Ni  Ni246  1  0.40040367  0.06639783  0.30003562  1.0
  Ni  Ni247  1  0.40040367  0.39973117  0.30003562  1.0
  Ni  Ni248  1  0.40040367  0.73306450  0.30003562  1.0
  Ni  Ni249  1  0.73373700  0.06639783  0.30003562  1.0
  Ni  Ni250  1  0.73373700  0.39973117  0.30003562  1.0
  Ni  Ni251  1  0.73373700  0.73306450  0.30003562  1.0
  Ni  Ni252  1  0.13346733  0.13346817  0.31175274  1.0
  Ni  Ni253  1  0.13346733  0.46680150  0.31175274  1.0
  Ni  Ni254  1  0.13346733  0.80013483  0.31175274  1.0
  Ni  Ni255  1  0.46680067  0.13346817  0.31175274  1.0
  Ni  Ni256  1  0.46680067  0.46680150  0.31175274  1.0
  Ni  Ni257  1  0.46680067  0.80013483  0.31175274  1.0
  Ni  Ni258  1  0.80013400  0.13346817  0.31175274  1.0
  Ni  Ni259  1  0.80013400  0.46680150  0.31175274  1.0
  Ni  Ni260  1  0.80013400  0.80013483  0.31175274  1.0
  W  W261  1  0.00000000  0.00000000  0.34702321  1.0
  W  W262  1  0.00000000  0.33333333  0.34702321  1.0
  W  W263  1  0.00000000  0.66666667  0.34702321  1.0
  W  W264  1  0.33333333  0.00000000  0.34702321  1.0
  W  W265  1  0.33333333  0.33333333  0.34702321  1.0
  W  W266  1  0.33333333  0.66666667  0.34702321  1.0
  W  W267  1  0.66666667  0.00000000  0.34702321  1.0
  W  W268  1  0.66666667  0.33333333  0.34702321  1.0
  W  W269  1  0.66666667  0.66666667  0.34702321  1.0
  Ni  Ni270  1  0.19986600  0.19986517  0.38229368  1.0
  Ni  Ni271  1  0.19986600  0.53319850  0.38229368  1.0
  Ni  Ni272  1  0.19986600  0.86653183  0.38229368  1.0
  Ni  Ni273  1  0.53319933  0.19986517  0.38229368  1.0
  Ni  Ni274  1  0.53319933  0.53319850  0.38229368  1.0
  Ni  Ni275  1  0.53319933  0.86653183  0.38229368  1.0
  Ni  Ni276  1  0.86653267  0.19986517  0.38229368  1.0
  Ni  Ni277  1  0.86653267  0.53319850  0.38229368  1.0
  Ni  Ni278  1  0.86653267  0.86653183  0.38229368  1.0
  Ni  Ni279  1  0.26626300  0.26693550  0.39401079  1.0
  Ni  Ni280  1  0.26626300  0.60026883  0.39401079  1.0
  Ni  Ni281  1  0.26626300  0.93360217  0.39401079  1.0
  Ni  Ni282  1  0.59959633  0.26693550  0.39401079  1.0
  Ni  Ni283  1  0.59959633  0.60026883  0.39401079  1.0
  Ni  Ni284  1  0.59959633  0.93360217  0.39401079  1.0
  Ni  Ni285  1  0.93292967  0.26693550  0.39401079  1.0
  Ni  Ni286  1  0.93292967  0.60026883  0.39401079  1.0
  Ni  Ni287  1  0.93292967  0.93360217  0.39401079  1.0
  Ni  Ni288  1  0.06707033  0.06639783  0.35885915  1.0
  Ni  Ni289  1  0.06707033  0.39973117  0.35885915  1.0
  Ni  Ni290  1  0.06707033  0.73306450  0.35885915  1.0
  Ni  Ni291  1  0.40040367  0.06639783  0.35885915  1.0
  Ni  Ni292  1  0.40040367  0.39973117  0.35885915  1.0
  Ni  Ni293  1  0.40040367  0.73306450  0.35885915  1.0
  Ni  Ni294  1  0.73373700  0.06639783  0.35885915  1.0
  Ni  Ni295  1  0.73373700  0.39973117  0.35885915  1.0
  Ni  Ni296  1  0.73373700  0.73306450  0.35885915  1.0
  Ni  Ni297  1  0.13346733  0.13346817  0.37057626  1.0
  Ni  Ni298  1  0.13346733  0.46680150  0.37057626  1.0
  Ni  Ni299  1  0.13346733  0.80013483  0.37057626  1.0
  Ni  Ni300  1  0.46680067  0.13346817  0.37057626  1.0
  Ni  Ni301  1  0.46680067  0.46680150  0.37057626  1.0
  Ni  Ni302  1  0.46680067  0.80013483  0.37057626  1.0
  Ni  Ni303  1  0.80013400  0.13346817  0.37057626  1.0
  Ni  Ni304  1  0.80013400  0.46680150  0.37057626  1.0
  Ni  Ni305  1  0.80013400  0.80013483  0.37057626  1.0
  W  W306  1  0.00000000  0.00000000  0.40584674  1.0
  W  W307  1  0.00000000  0.33333333  0.40584674  1.0
  W  W308  1  0.00000000  0.66666667  0.40584674  1.0
  W  W309  1  0.33333333  0.00000000  0.40584674  1.0
  W  W310  1  0.33333333  0.33333333  0.40584674  1.0
  W  W311  1  0.33333333  0.66666667  0.40584674  1.0
  W  W312  1  0.66666667  0.00000000  0.40584674  1.0
  W  W313  1  0.66666667  0.33333333  0.40584674  1.0
  W  W314  1  0.66666667  0.66666667  0.40584674  1.0
