# generated using pymatgen
data_Ni5Ge2
_symmetry_space_group_name_H-M   'P 1'
_cell_length_a   20.39465970
_cell_length_b   20.39465970
_cell_length_c   37.34965800
_cell_angle_alpha   90.00000000
_cell_angle_beta   90.00000000
_cell_angle_gamma   120.00000000
_symmetry_Int_Tables_number   1
_chemical_formula_structural   Ni5Ge2
_chemical_formula_sum   'Ni270 Ge108'
_cell_volume   13453.96171583
_cell_formula_units_Z   54
loop_
 _symmetry_equiv_pos_site_id
 _symmetry_equiv_pos_as_xyz
  1  'x, y, z'
loop_
 _atom_site_type_symbol
 _atom_site_label
 _atom_site_symmetry_multiplicity
 _atom_site_fract_x
 _atom_site_fract_y
 _atom_site_fract_z
 _atom_site_occupancy
  Ni  Ni0  1  0.00000000  0.00000000  0.01142467  1.0
  Ni  Ni1  1  0.00000000  0.33333333  0.01142467  1.0
  Ni  Ni2  1  0.00000000  0.66666667  0.01142467  1.0
  Ni  Ni3  1  0.33333333  0.00000000  0.01142467  1.0
  Ni  Ni4  1  0.33333333  0.33333333  0.01142467  1.0
  Ni  Ni5  1  0.33333333  0.66666667  0.01142467  1.0
  Ni  Ni6  1  0.66666667  0.00000000  0.01142467  1.0
  Ni  Ni7  1  0.66666667  0.33333333  0.01142467  1.0
  Ni  Ni8  1  0.66666667  0.66666667  0.01142467  1.0
  Ni  Ni9  1  0.00000000  0.00000000  0.17809133  1.0
  Ni  Ni10  1  0.00000000  0.33333333  0.17809133  1.0
  Ni  Ni11  1  0.00000000  0.66666667  0.17809133  1.0
  Ni  Ni12  1  0.33333333  0.00000000  0.17809133  1.0
  Ni  Ni13  1  0.33333333  0.33333333  0.17809133  1.0
  Ni  Ni14  1  0.33333333  0.66666667  0.17809133  1.0
  Ni  Ni15  1  0.66666667  0.00000000  0.17809133  1.0
  Ni  Ni16  1  0.66666667  0.33333333  0.17809133  1.0
  Ni  Ni17  1  0.66666667  0.66666667  0.17809133  1.0
  Ni  Ni18  1  0.11111111  0.22222222  0.29663300  1.0
  Ni  Ni19  1  0.11111111  0.55555556  0.29663300  1.0
  Ni  Ni20  1  0.11111111  0.88888889  0.29663300  1.0
  Ni  Ni21  1  0.44444444  0.22222222  0.29663300  1.0
  Ni  Ni22  1  0.44444444  0.55555556  0.29663300  1.0
  Ni  Ni23  1  0.44444444  0.88888889  0.29663300  1.0
  Ni  Ni24  1  0.77777778  0.22222222  0.29663300  1.0
  Ni  Ni25  1  0.77777778  0.55555556  0.29663300  1.0
  Ni  Ni26  1  0.77777778  0.88888889  0.29663300  1.0
  Ni  Ni27  1  0.22222222  0.11111111  0.29663300  1.0
  Ni  Ni28  1  0.22222222  0.44444444  0.29663300  1.0
  Ni  Ni29  1  0.22222222  0.77777778  0.29663300  1.0
  Ni  Ni30  1  0.55555556  0.11111111  0.29663300  1.0
  Ni  Ni31  1  0.55555556  0.44444444  0.29663300  1.0
  Ni  Ni32  1  0.55555556  0.77777778  0.29663300  1.0
  Ni  Ni33  1  0.88888889  0.11111111  0.29663300  1.0
  Ni  Ni34  1  0.88888889  0.44444444  0.29663300  1.0
  Ni  Ni35  1  0.88888889  0.77777778  0.29663300  1.0
  Ni  Ni36  1  0.22222222  0.11111111  0.12996633  1.0
  Ni  Ni37  1  0.22222222  0.44444444  0.12996633  1.0
  Ni  Ni38  1  0.22222222  0.77777778  0.12996633  1.0
  Ni  Ni39  1  0.55555556  0.11111111  0.12996633  1.0
  Ni  Ni40  1  0.55555556  0.44444444  0.12996633  1.0
  Ni  Ni41  1  0.55555556  0.77777778  0.12996633  1.0
  Ni  Ni42  1  0.88888889  0.11111111  0.12996633  1.0
  Ni  Ni43  1  0.88888889  0.44444444  0.12996633  1.0
  Ni  Ni44  1  0.88888889  0.77777778  0.12996633  1.0
  Ni  Ni45  1  0.11111111  0.22222222  0.12996633  1.0
  Ni  Ni46  1  0.11111111  0.55555556  0.12996633  1.0
  Ni  Ni47  1  0.11111111  0.88888889  0.12996633  1.0
  Ni  Ni48  1  0.44444444  0.22222222  0.12996633  1.0
  Ni  Ni49  1  0.44444444  0.55555556  0.12996633  1.0
  Ni  Ni50  1  0.44444444  0.88888889  0.12996633  1.0
  Ni  Ni51  1  0.77777778  0.22222222  0.12996633  1.0
  Ni  Ni52  1  0.77777778  0.55555556  0.12996633  1.0
  Ni  Ni53  1  0.77777778  0.88888889  0.12996633  1.0
  Ni  Ni54  1  0.00000000  0.08826400  0.28865700  1.0
  Ni  Ni55  1  0.00000000  0.42159733  0.28865700  1.0
  Ni  Ni56  1  0.00000000  0.75493067  0.28865700  1.0
  Ni  Ni57  1  0.33333333  0.08826400  0.28865700  1.0
  Ni  Ni58  1  0.33333333  0.42159733  0.28865700  1.0
  Ni  Ni59  1  0.33333333  0.75493067  0.28865700  1.0
  Ni  Ni60  1  0.66666667  0.08826400  0.28865700  1.0
  Ni  Ni61  1  0.66666667  0.42159733  0.28865700  1.0
  Ni  Ni62  1  0.66666667  0.75493067  0.28865700  1.0
  Ni  Ni63  1  0.08826400  0.00000000  0.28865700  1.0
  Ni  Ni64  1  0.08826400  0.33333333  0.28865700  1.0
  Ni  Ni65  1  0.08826400  0.66666667  0.28865700  1.0
  Ni  Ni66  1  0.42159733  0.00000000  0.28865700  1.0
  Ni  Ni67  1  0.42159733  0.33333333  0.28865700  1.0
  Ni  Ni68  1  0.42159733  0.66666667  0.28865700  1.0
  Ni  Ni69  1  0.75493067  0.00000000  0.28865700  1.0
  Ni  Ni70  1  0.75493067  0.33333333  0.28865700  1.0
  Ni  Ni71  1  0.75493067  0.66666667  0.28865700  1.0
  Ni  Ni72  1  0.24506933  0.24506933  0.28865700  1.0
  Ni  Ni73  1  0.24506933  0.57840267  0.28865700  1.0
  Ni  Ni74  1  0.24506933  0.91173600  0.28865700  1.0
  Ni  Ni75  1  0.57840267  0.24506933  0.28865700  1.0
  Ni  Ni76  1  0.57840267  0.57840267  0.28865700  1.0
  Ni  Ni77  1  0.57840267  0.91173600  0.28865700  1.0
  Ni  Ni78  1  0.91173600  0.24506933  0.28865700  1.0
  Ni  Ni79  1  0.91173600  0.57840267  0.28865700  1.0
  Ni  Ni80  1  0.91173600  0.91173600  0.28865700  1.0
  Ni  Ni81  1  0.00000000  0.24506933  0.12199033  1.0
  Ni  Ni82  1  0.00000000  0.57840267  0.12199033  1.0
  Ni  Ni83  1  0.00000000  0.91173600  0.12199033  1.0
  Ni  Ni84  1  0.33333333  0.24506933  0.12199033  1.0
  Ni  Ni85  1  0.33333333  0.57840267  0.12199033  1.0
  Ni  Ni86  1  0.33333333  0.91173600  0.12199033  1.0
  Ni  Ni87  1  0.66666667  0.24506933  0.12199033  1.0
  Ni  Ni88  1  0.66666667  0.57840267  0.12199033  1.0
  Ni  Ni89  1  0.66666667  0.91173600  0.12199033  1.0
  Ni  Ni90  1  0.24506933  0.00000000  0.12199033  1.0
  Ni  Ni91  1  0.24506933  0.33333333  0.12199033  1.0
  Ni  Ni92  1  0.24506933  0.66666667  0.12199033  1.0
  Ni  Ni93  1  0.57840267  0.00000000  0.12199033  1.0
  Ni  Ni94  1  0.57840267  0.33333333  0.12199033  1.0
  Ni  Ni95  1  0.57840267  0.66666667  0.12199033  1.0
  Ni  Ni96  1  0.91173600  0.00000000  0.12199033  1.0
  Ni  Ni97  1  0.91173600  0.33333333  0.12199033  1.0
  Ni  Ni98  1  0.91173600  0.66666667  0.12199033  1.0
  Ni  Ni99  1  0.08826400  0.08826400  0.12199033  1.0
  Ni  Ni100  1  0.08826400  0.42159733  0.12199033  1.0
  Ni  Ni101  1  0.08826400  0.75493067  0.12199033  1.0
  Ni  Ni102  1  0.42159733  0.08826400  0.12199033  1.0
  Ni  Ni103  1  0.42159733  0.42159733  0.12199033  1.0
  Ni  Ni104  1  0.42159733  0.75493067  0.12199033  1.0
  Ni  Ni105  1  0.75493067  0.08826400  0.12199033  1.0
  Ni  Ni106  1  0.75493067  0.42159733  0.12199033  1.0
  Ni  Ni107  1  0.75493067  0.75493067  0.12199033  1.0
  Ni  Ni108  1  0.00000000  0.20874533  0.25672367  1.0
  Ni  Ni109  1  0.00000000  0.54207867  0.25672367  1.0
  Ni  Ni110  1  0.00000000  0.87541200  0.25672367  1.0
  Ni  Ni111  1  0.33333333  0.20874533  0.25672367  1.0
  Ni  Ni112  1  0.33333333  0.54207867  0.25672367  1.0
  Ni  Ni113  1  0.33333333  0.87541200  0.25672367  1.0
  Ni  Ni114  1  0.66666667  0.20874533  0.25672367  1.0
  Ni  Ni115  1  0.66666667  0.54207867  0.25672367  1.0
  Ni  Ni116  1  0.66666667  0.87541200  0.25672367  1.0
  Ni  Ni117  1  0.20874533  0.00000000  0.25672367  1.0
  Ni  Ni118  1  0.20874533  0.33333333  0.25672367  1.0
  Ni  Ni119  1  0.20874533  0.66666667  0.25672367  1.0
  Ni  Ni120  1  0.54207867  0.00000000  0.25672367  1.0
  Ni  Ni121  1  0.54207867  0.33333333  0.25672367  1.0
  Ni  Ni122  1  0.54207867  0.66666667  0.25672367  1.0
  Ni  Ni123  1  0.87541200  0.00000000  0.25672367  1.0
  Ni  Ni124  1  0.87541200  0.33333333  0.25672367  1.0
  Ni  Ni125  1  0.87541200  0.66666667  0.25672367  1.0
  Ni  Ni126  1  0.12458800  0.12458800  0.25672367  1.0
  Ni  Ni127  1  0.12458800  0.45792133  0.25672367  1.0
  Ni  Ni128  1  0.12458800  0.79125467  0.25672367  1.0
  Ni  Ni129  1  0.45792133  0.12458800  0.25672367  1.0
  Ni  Ni130  1  0.45792133  0.45792133  0.25672367  1.0
  Ni  Ni131  1  0.45792133  0.79125467  0.25672367  1.0
  Ni  Ni132  1  0.79125467  0.12458800  0.25672367  1.0
  Ni  Ni133  1  0.79125467  0.45792133  0.25672367  1.0
  Ni  Ni134  1  0.79125467  0.79125467  0.25672367  1.0
  Ni  Ni135  1  0.00000000  0.12458800  0.09005700  1.0
  Ni  Ni136  1  0.00000000  0.45792133  0.09005700  1.0
  Ni  Ni137  1  0.00000000  0.79125467  0.09005700  1.0
  Ni  Ni138  1  0.33333333  0.12458800  0.09005700  1.0
  Ni  Ni139  1  0.33333333  0.45792133  0.09005700  1.0
  Ni  Ni140  1  0.33333333  0.79125467  0.09005700  1.0
  Ni  Ni141  1  0.66666667  0.12458800  0.09005700  1.0
  Ni  Ni142  1  0.66666667  0.45792133  0.09005700  1.0
  Ni  Ni143  1  0.66666667  0.79125467  0.09005700  1.0
  Ni  Ni144  1  0.12458800  0.00000000  0.09005700  1.0
  Ni  Ni145  1  0.12458800  0.33333333  0.09005700  1.0
  Ni  Ni146  1  0.12458800  0.66666667  0.09005700  1.0
  Ni  Ni147  1  0.45792133  0.00000000  0.09005700  1.0
  Ni  Ni148  1  0.45792133  0.33333333  0.09005700  1.0
  Ni  Ni149  1  0.45792133  0.66666667  0.09005700  1.0
  Ni  Ni150  1  0.79125467  0.00000000  0.09005700  1.0
  Ni  Ni151  1  0.79125467  0.33333333  0.09005700  1.0
  Ni  Ni152  1  0.79125467  0.66666667  0.09005700  1.0
  Ni  Ni153  1  0.20874533  0.20874533  0.09005700  1.0
  Ni  Ni154  1  0.20874533  0.54207867  0.09005700  1.0
  Ni  Ni155  1  0.20874533  0.87541200  0.09005700  1.0
  Ni  Ni156  1  0.54207867  0.20874533  0.09005700  1.0
  Ni  Ni157  1  0.54207867  0.54207867  0.09005700  1.0
  Ni  Ni158  1  0.54207867  0.87541200  0.09005700  1.0
  Ni  Ni159  1  0.87541200  0.20874533  0.09005700  1.0
  Ni  Ni160  1  0.87541200  0.54207867  0.09005700  1.0
  Ni  Ni161  1  0.87541200  0.87541200  0.09005700  1.0
  Ni  Ni162  1  0.00000000  0.10275633  0.21945967  1.0
  Ni  Ni163  1  0.00000000  0.43608967  0.21945967  1.0
  Ni  Ni164  1  0.00000000  0.76942300  0.21945967  1.0
  Ni  Ni165  1  0.33333333  0.10275633  0.21945967  1.0
  Ni  Ni166  1  0.33333333  0.43608967  0.21945967  1.0
  Ni  Ni167  1  0.33333333  0.76942300  0.21945967  1.0
  Ni  Ni168  1  0.66666667  0.10275633  0.21945967  1.0
  Ni  Ni169  1  0.66666667  0.43608967  0.21945967  1.0
  Ni  Ni170  1  0.66666667  0.76942300  0.21945967  1.0
  Ni  Ni171  1  0.10275633  0.00000000  0.21945967  1.0
  Ni  Ni172  1  0.10275633  0.33333333  0.21945967  1.0
  Ni  Ni173  1  0.10275633  0.66666667  0.21945967  1.0
  Ni  Ni174  1  0.43608967  0.00000000  0.21945967  1.0
  Ni  Ni175  1  0.43608967  0.33333333  0.21945967  1.0
  Ni  Ni176  1  0.43608967  0.66666667  0.21945967  1.0
  Ni  Ni177  1  0.76942300  0.00000000  0.21945967  1.0
  Ni  Ni178  1  0.76942300  0.33333333  0.21945967  1.0
  Ni  Ni179  1  0.76942300  0.66666667  0.21945967  1.0
  Ni  Ni180  1  0.23057700  0.23057700  0.21945967  1.0
  Ni  Ni181  1  0.23057700  0.56391033  0.21945967  1.0
  Ni  Ni182  1  0.23057700  0.89724367  0.21945967  1.0
  Ni  Ni183  1  0.56391033  0.23057700  0.21945967  1.0
  Ni  Ni184  1  0.56391033  0.56391033  0.21945967  1.0
  Ni  Ni185  1  0.56391033  0.89724367  0.21945967  1.0
  Ni  Ni186  1  0.89724367  0.23057700  0.21945967  1.0
  Ni  Ni187  1  0.89724367  0.56391033  0.21945967  1.0
  Ni  Ni188  1  0.89724367  0.89724367  0.21945967  1.0
  Ni  Ni189  1  0.00000000  0.23057700  0.05279300  1.0
  Ni  Ni190  1  0.00000000  0.56391033  0.05279300  1.0
  Ni  Ni191  1  0.00000000  0.89724367  0.05279300  1.0
  Ni  Ni192  1  0.33333333  0.23057700  0.05279300  1.0
  Ni  Ni193  1  0.33333333  0.56391033  0.05279300  1.0
  Ni  Ni194  1  0.33333333  0.89724367  0.05279300  1.0
  Ni  Ni195  1  0.66666667  0.23057700  0.05279300  1.0
  Ni  Ni196  1  0.66666667  0.56391033  0.05279300  1.0
  Ni  Ni197  1  0.66666667  0.89724367  0.05279300  1.0
  Ni  Ni198  1  0.23057700  0.00000000  0.05279300  1.0
  Ni  Ni199  1  0.23057700  0.33333333  0.05279300  1.0
  Ni  Ni200  1  0.23057700  0.66666667  0.05279300  1.0
  Ni  Ni201  1  0.56391033  0.00000000  0.05279300  1.0
  Ni  Ni202  1  0.56391033  0.33333333  0.05279300  1.0
  Ni  Ni203  1  0.56391033  0.66666667  0.05279300  1.0
  Ni  Ni204  1  0.89724367  0.00000000  0.05279300  1.0
  Ni  Ni205  1  0.89724367  0.33333333  0.05279300  1.0
  Ni  Ni206  1  0.89724367  0.66666667  0.05279300  1.0
  Ni  Ni207  1  0.10275633  0.10275633  0.05279300  1.0
  Ni  Ni208  1  0.10275633  0.43608967  0.05279300  1.0
  Ni  Ni209  1  0.10275633  0.76942300  0.05279300  1.0
  Ni  Ni210  1  0.43608967  0.10275633  0.05279300  1.0
  Ni  Ni211  1  0.43608967  0.43608967  0.05279300  1.0
  Ni  Ni212  1  0.43608967  0.76942300  0.05279300  1.0
  Ni  Ni213  1  0.76942300  0.10275633  0.05279300  1.0
  Ni  Ni214  1  0.76942300  0.43608967  0.05279300  1.0
  Ni  Ni215  1  0.76942300  0.76942300  0.05279300  1.0
  Ni  Ni216  1  0.00000000  0.21095567  0.18698033  1.0
  Ni  Ni217  1  0.00000000  0.54428900  0.18698033  1.0
  Ni  Ni218  1  0.00000000  0.87762233  0.18698033  1.0
  Ni  Ni219  1  0.33333333  0.21095567  0.18698033  1.0
  Ni  Ni220  1  0.33333333  0.54428900  0.18698033  1.0
  Ni  Ni221  1  0.33333333  0.87762233  0.18698033  1.0
  Ni  Ni222  1  0.66666667  0.21095567  0.18698033  1.0
  Ni  Ni223  1  0.66666667  0.54428900  0.18698033  1.0
  Ni  Ni224  1  0.66666667  0.87762233  0.18698033  1.0
  Ni  Ni225  1  0.21095567  0.00000000  0.18698033  1.0
  Ni  Ni226  1  0.21095567  0.33333333  0.18698033  1.0
  Ni  Ni227  1  0.21095567  0.66666667  0.18698033  1.0
  Ni  Ni228  1  0.54428900  0.00000000  0.18698033  1.0
  Ni  Ni229  1  0.54428900  0.33333333  0.18698033  1.0
  Ni  Ni230  1  0.54428900  0.66666667  0.18698033  1.0
  Ni  Ni231  1  0.87762233  0.00000000  0.18698033  1.0
  Ni  Ni232  1  0.87762233  0.33333333  0.18698033  1.0
  Ni  Ni233  1  0.87762233  0.66666667  0.18698033  1.0
  Ni  Ni234  1  0.12237767  0.12237767  0.18698033  1.0
  Ni  Ni235  1  0.12237767  0.45571100  0.18698033  1.0
  Ni  Ni236  1  0.12237767  0.78904433  0.18698033  1.0
  Ni  Ni237  1  0.45571100  0.12237767  0.18698033  1.0
  Ni  Ni238  1  0.45571100  0.45571100  0.18698033  1.0
  Ni  Ni239  1  0.45571100  0.78904433  0.18698033  1.0
  Ni  Ni240  1  0.78904433  0.12237767  0.18698033  1.0
  Ni  Ni241  1  0.78904433  0.45571100  0.18698033  1.0
  Ni  Ni242  1  0.78904433  0.78904433  0.18698033  1.0
  Ni  Ni243  1  0.00000000  0.12237767  0.02031367  1.0
  Ni  Ni244  1  0.00000000  0.45571100  0.02031367  1.0
  Ni  Ni245  1  0.00000000  0.78904433  0.02031367  1.0
  Ni  Ni246  1  0.33333333  0.12237767  0.02031367  1.0
  Ni  Ni247  1  0.33333333  0.45571100  0.02031367  1.0
  Ni  Ni248  1  0.33333333  0.78904433  0.02031367  1.0
  Ni  Ni249  1  0.66666667  0.12237767  0.02031367  1.0
  Ni  Ni250  1  0.66666667  0.45571100  0.02031367  1.0
  Ni  Ni251  1  0.66666667  0.78904433  0.02031367  1.0
  Ni  Ni252  1  0.12237767  0.00000000  0.02031367  1.0
  Ni  Ni253  1  0.12237767  0.33333333  0.02031367  1.0
  Ni  Ni254  1  0.12237767  0.66666667  0.02031367  1.0
  Ni  Ni255  1  0.45571100  0.00000000  0.02031367  1.0
  Ni  Ni256  1  0.45571100  0.33333333  0.02031367  1.0
  Ni  Ni257  1  0.45571100  0.66666667  0.02031367  1.0
  Ni  Ni258  1  0.78904433  0.00000000  0.02031367  1.0
  Ni  Ni259  1  0.78904433  0.33333333  0.02031367  1.0
  Ni  Ni260  1  0.78904433  0.66666667  0.02031367  1.0
  Ni  Ni261  1  0.21095567  0.21095567  0.02031367  1.0
  Ni  Ni262  1  0.21095567  0.54428900  0.02031367  1.0
  Ni  Ni263  1  0.21095567  0.87762233  0.02031367  1.0
  Ni  Ni264  1  0.54428900  0.21095567  0.02031367  1.0
  Ni  Ni265  1  0.54428900  0.54428900  0.02031367  1.0
  Ni  Ni266  1  0.54428900  0.87762233  0.02031367  1.0
  Ni  Ni267  1  0.87762233  0.21095567  0.02031367  1.0
  Ni  Ni268  1  0.87762233  0.54428900  0.02031367  1.0
  Ni  Ni269  1  0.87762233  0.87762233  0.02031367  1.0
  Ge  Ge270  1  0.00000000  0.00000000  0.24594533  1.0
  Ge  Ge271  1  0.00000000  0.33333333  0.24594533  1.0
  Ge  Ge272  1  0.00000000  0.66666667  0.24594533  1.0
  Ge  Ge273  1  0.33333333  0.00000000  0.24594533  1.0
  Ge  Ge274  1  0.33333333  0.33333333  0.24594533  1.0
  Ge  Ge275  1  0.33333333  0.66666667  0.24594533  1.0
  Ge  Ge276  1  0.66666667  0.00000000  0.24594533  1.0
  Ge  Ge277  1  0.66666667  0.33333333  0.24594533  1.0
  Ge  Ge278  1  0.66666667  0.66666667  0.24594533  1.0
  Ge  Ge279  1  0.00000000  0.00000000  0.07927867  1.0
  Ge  Ge280  1  0.00000000  0.33333333  0.07927867  1.0
  Ge  Ge281  1  0.00000000  0.66666667  0.07927867  1.0
  Ge  Ge282  1  0.33333333  0.00000000  0.07927867  1.0
  Ge  Ge283  1  0.33333333  0.33333333  0.07927867  1.0
  Ge  Ge284  1  0.33333333  0.66666667  0.07927867  1.0
  Ge  Ge285  1  0.66666667  0.00000000  0.07927867  1.0
  Ge  Ge286  1  0.66666667  0.33333333  0.07927867  1.0
  Ge  Ge287  1  0.66666667  0.66666667  0.07927867  1.0
  Ge  Ge288  1  0.11111111  0.22222222  0.22782733  1.0
  Ge  Ge289  1  0.11111111  0.55555556  0.22782733  1.0
  Ge  Ge290  1  0.11111111  0.88888889  0.22782733  1.0
  Ge  Ge291  1  0.44444444  0.22222222  0.22782733  1.0
  Ge  Ge292  1  0.44444444  0.55555556  0.22782733  1.0
  Ge  Ge293  1  0.44444444  0.88888889  0.22782733  1.0
  Ge  Ge294  1  0.77777778  0.22222222  0.22782733  1.0
  Ge  Ge295  1  0.77777778  0.55555556  0.22782733  1.0
  Ge  Ge296  1  0.77777778  0.88888889  0.22782733  1.0
  Ge  Ge297  1  0.22222222  0.11111111  0.22782733  1.0
  Ge  Ge298  1  0.22222222  0.44444444  0.22782733  1.0
  Ge  Ge299  1  0.22222222  0.77777778  0.22782733  1.0
  Ge  Ge300  1  0.55555556  0.11111111  0.22782733  1.0
  Ge  Ge301  1  0.55555556  0.44444444  0.22782733  1.0
  Ge  Ge302  1  0.55555556  0.77777778  0.22782733  1.0
  Ge  Ge303  1  0.88888889  0.11111111  0.22782733  1.0
  Ge  Ge304  1  0.88888889  0.44444444  0.22782733  1.0
  Ge  Ge305  1  0.88888889  0.77777778  0.22782733  1.0
  Ge  Ge306  1  0.22222222  0.11111111  0.06116067  1.0
  Ge  Ge307  1  0.22222222  0.44444444  0.06116067  1.0
  Ge  Ge308  1  0.22222222  0.77777778  0.06116067  1.0
  Ge  Ge309  1  0.55555556  0.11111111  0.06116067  1.0
  Ge  Ge310  1  0.55555556  0.44444444  0.06116067  1.0
  Ge  Ge311  1  0.55555556  0.77777778  0.06116067  1.0
  Ge  Ge312  1  0.88888889  0.11111111  0.06116067  1.0
  Ge  Ge313  1  0.88888889  0.44444444  0.06116067  1.0
  Ge  Ge314  1  0.88888889  0.77777778  0.06116067  1.0
  Ge  Ge315  1  0.11111111  0.22222222  0.06116067  1.0
  Ge  Ge316  1  0.11111111  0.55555556  0.06116067  1.0
  Ge  Ge317  1  0.11111111  0.88888889  0.06116067  1.0
  Ge  Ge318  1  0.44444444  0.22222222  0.06116067  1.0
  Ge  Ge319  1  0.44444444  0.55555556  0.06116067  1.0
  Ge  Ge320  1  0.44444444  0.88888889  0.06116067  1.0
  Ge  Ge321  1  0.77777778  0.22222222  0.06116067  1.0
  Ge  Ge322  1  0.77777778  0.55555556  0.06116067  1.0
  Ge  Ge323  1  0.77777778  0.88888889  0.06116067  1.0
  Ge  Ge324  1  0.00000000  0.22184833  0.32190867  1.0
  Ge  Ge325  1  0.00000000  0.55518167  0.32190867  1.0
  Ge  Ge326  1  0.00000000  0.88851500  0.32190867  1.0
  Ge  Ge327  1  0.33333333  0.22184833  0.32190867  1.0
  Ge  Ge328  1  0.33333333  0.55518167  0.32190867  1.0
  Ge  Ge329  1  0.33333333  0.88851500  0.32190867  1.0
  Ge  Ge330  1  0.66666667  0.22184833  0.32190867  1.0
  Ge  Ge331  1  0.66666667  0.55518167  0.32190867  1.0
  Ge  Ge332  1  0.66666667  0.88851500  0.32190867  1.0
  Ge  Ge333  1  0.22184833  0.00000000  0.32190867  1.0
  Ge  Ge334  1  0.22184833  0.33333333  0.32190867  1.0
  Ge  Ge335  1  0.22184833  0.66666667  0.32190867  1.0
  Ge  Ge336  1  0.55518167  0.00000000  0.32190867  1.0
  Ge  Ge337  1  0.55518167  0.33333333  0.32190867  1.0
  Ge  Ge338  1  0.55518167  0.66666667  0.32190867  1.0
  Ge  Ge339  1  0.88851500  0.00000000  0.32190867  1.0
  Ge  Ge340  1  0.88851500  0.33333333  0.32190867  1.0
  Ge  Ge341  1  0.88851500  0.66666667  0.32190867  1.0
  Ge  Ge342  1  0.11148500  0.11148500  0.32190867  1.0
  Ge  Ge343  1  0.11148500  0.44481833  0.32190867  1.0
  Ge  Ge344  1  0.11148500  0.77815167  0.32190867  1.0
  Ge  Ge345  1  0.44481833  0.11148500  0.32190867  1.0
  Ge  Ge346  1  0.44481833  0.44481833  0.32190867  1.0
  Ge  Ge347  1  0.44481833  0.77815167  0.32190867  1.0
  Ge  Ge348  1  0.77815167  0.11148500  0.32190867  1.0
  Ge  Ge349  1  0.77815167  0.44481833  0.32190867  1.0
  Ge  Ge350  1  0.77815167  0.77815167  0.32190867  1.0
  Ge  Ge351  1  0.00000000  0.11148500  0.15524200  1.0
  Ge  Ge352  1  0.00000000  0.44481833  0.15524200  1.0
  Ge  Ge353  1  0.00000000  0.77815167  0.15524200  1.0
  Ge  Ge354  1  0.33333333  0.11148500  0.15524200  1.0
  Ge  Ge355  1  0.33333333  0.44481833  0.15524200  1.0
  Ge  Ge356  1  0.33333333  0.77815167  0.15524200  1.0
  Ge  Ge357  1  0.66666667  0.11148500  0.15524200  1.0
  Ge  Ge358  1  0.66666667  0.44481833  0.15524200  1.0
  Ge  Ge359  1  0.66666667  0.77815167  0.15524200  1.0
  Ge  Ge360  1  0.11148500  0.00000000  0.15524200  1.0
  Ge  Ge361  1  0.11148500  0.33333333  0.15524200  1.0
  Ge  Ge362  1  0.11148500  0.66666667  0.15524200  1.0
  Ge  Ge363  1  0.44481833  0.00000000  0.15524200  1.0
  Ge  Ge364  1  0.44481833  0.33333333  0.15524200  1.0
  Ge  Ge365  1  0.44481833  0.66666667  0.15524200  1.0
  Ge  Ge366  1  0.77815167  0.00000000  0.15524200  1.0
  Ge  Ge367  1  0.77815167  0.33333333  0.15524200  1.0
  Ge  Ge368  1  0.77815167  0.66666667  0.15524200  1.0
  Ge  Ge369  1  0.22184833  0.22184833  0.15524200  1.0
  Ge  Ge370  1  0.22184833  0.55518167  0.15524200  1.0
  Ge  Ge371  1  0.22184833  0.88851500  0.15524200  1.0
  Ge  Ge372  1  0.55518167  0.22184833  0.15524200  1.0
  Ge  Ge373  1  0.55518167  0.55518167  0.15524200  1.0
  Ge  Ge374  1  0.55518167  0.88851500  0.15524200  1.0
  Ge  Ge375  1  0.88851500  0.22184833  0.15524200  1.0
  Ge  Ge376  1  0.88851500  0.55518167  0.15524200  1.0
  Ge  Ge377  1  0.88851500  0.88851500  0.15524200  1.0
