# generated using pymatgen
data_Ni5Ge3
_symmetry_space_group_name_H-M   'P 1'
_cell_length_a   19.10647533
_cell_length_b   19.04775153
_cell_length_c   31.84412555
_cell_angle_alpha   115.92699343
_cell_angle_beta   116.30210971
_cell_angle_gamma   64.07300657
_symmetry_Int_Tables_number   1
_chemical_formula_structural   Ni5Ge3
_chemical_formula_sum   'Ni180 Ge108'
_cell_volume   8907.41294738
_cell_formula_units_Z   36
loop_
 _symmetry_equiv_pos_site_id
 _symmetry_equiv_pos_as_xyz
  1  'x, y, z'
loop_
 _atom_site_type_symbol
 _atom_site_label
 _atom_site_symmetry_multiplicity
 _atom_site_fract_x
 _atom_site_fract_y
 _atom_site_fract_z
 _atom_site_occupancy
  Ni  Ni0  1  0.10961133  0.28493667  0.02625190  1.0
  Ni  Ni1  1  0.10961133  0.61827000  0.02625190  1.0
  Ni  Ni2  1  0.10961133  0.95160333  0.02625190  1.0
  Ni  Ni3  1  0.44294467  0.28493667  0.02625190  1.0
  Ni  Ni4  1  0.44294467  0.61827000  0.02625190  1.0
  Ni  Ni5  1  0.44294467  0.95160333  0.02625190  1.0
  Ni  Ni6  1  0.77627800  0.28493667  0.02625190  1.0
  Ni  Ni7  1  0.77627800  0.61827000  0.02625190  1.0
  Ni  Ni8  1  0.77627800  0.95160333  0.02625190  1.0
  Ni  Ni9  1  0.06113600  0.21506333  0.05533710  1.0
  Ni  Ni10  1  0.06113600  0.54839667  0.05533710  1.0
  Ni  Ni11  1  0.06113600  0.88173000  0.05533710  1.0
  Ni  Ni12  1  0.39446933  0.21506333  0.05533710  1.0
  Ni  Ni13  1  0.39446933  0.54839667  0.05533710  1.0
  Ni  Ni14  1  0.39446933  0.88173000  0.05533710  1.0
  Ni  Ni15  1  0.72780267  0.21506333  0.05533710  1.0
  Ni  Ni16  1  0.72780267  0.54839667  0.05533710  1.0
  Ni  Ni17  1  0.72780267  0.88173000  0.05533710  1.0
  Ni  Ni18  1  0.22372200  0.04839667  0.15288870  1.0
  Ni  Ni19  1  0.22372200  0.38173000  0.15288870  1.0
  Ni  Ni20  1  0.22372200  0.71506333  0.15288870  1.0
  Ni  Ni21  1  0.55705533  0.04839667  0.15288870  1.0
  Ni  Ni22  1  0.55705533  0.38173000  0.15288870  1.0
  Ni  Ni23  1  0.55705533  0.71506333  0.15288870  1.0
  Ni  Ni24  1  0.89038867  0.04839667  0.15288870  1.0
  Ni  Ni25  1  0.89038867  0.38173000  0.15288870  1.0
  Ni  Ni26  1  0.89038867  0.71506333  0.15288870  1.0
  Ni  Ni27  1  0.27219733  0.11827000  0.12380350  1.0
  Ni  Ni28  1  0.27219733  0.45160333  0.12380350  1.0
  Ni  Ni29  1  0.27219733  0.78493667  0.12380350  1.0
  Ni  Ni30  1  0.60553067  0.11827000  0.12380350  1.0
  Ni  Ni31  1  0.60553067  0.45160333  0.12380350  1.0
  Ni  Ni32  1  0.60553067  0.78493667  0.12380350  1.0
  Ni  Ni33  1  0.93886400  0.11827000  0.12380350  1.0
  Ni  Ni34  1  0.93886400  0.45160333  0.12380350  1.0
  Ni  Ni35  1  0.93886400  0.78493667  0.12380350  1.0
  Ni  Ni36  1  0.00000000  0.16666667  0.08957030  1.0
  Ni  Ni37  1  0.00000000  0.50000000  0.08957030  1.0
  Ni  Ni38  1  0.00000000  0.83333333  0.08957030  1.0
  Ni  Ni39  1  0.33333333  0.16666667  0.08957030  1.0
  Ni  Ni40  1  0.33333333  0.50000000  0.08957030  1.0
  Ni  Ni41  1  0.33333333  0.83333333  0.08957030  1.0
  Ni  Ni42  1  0.66666667  0.16666667  0.08957030  1.0
  Ni  Ni43  1  0.66666667  0.50000000  0.08957030  1.0
  Ni  Ni44  1  0.66666667  0.83333333  0.08957030  1.0
  Ni  Ni45  1  0.16666667  0.00000000  0.18957030  1.0
  Ni  Ni46  1  0.16666667  0.33333333  0.18957030  1.0
  Ni  Ni47  1  0.16666667  0.66666667  0.18957030  1.0
  Ni  Ni48  1  0.50000000  0.00000000  0.18957030  1.0
  Ni  Ni49  1  0.50000000  0.33333333  0.18957030  1.0
  Ni  Ni50  1  0.50000000  0.66666667  0.18957030  1.0
  Ni  Ni51  1  0.83333333  0.00000000  0.18957030  1.0
  Ni  Ni52  1  0.83333333  0.33333333  0.18957030  1.0
  Ni  Ni53  1  0.83333333  0.66666667  0.18957030  1.0
  Ni  Ni54  1  0.08743300  0.13867233  0.17224550  1.0
  Ni  Ni55  1  0.08743300  0.47200567  0.17224550  1.0
  Ni  Ni56  1  0.08743300  0.80533900  0.17224550  1.0
  Ni  Ni57  1  0.42076633  0.13867233  0.17224550  1.0
  Ni  Ni58  1  0.42076633  0.47200567  0.17224550  1.0
  Ni  Ni59  1  0.42076633  0.80533900  0.17224550  1.0
  Ni  Ni60  1  0.75409967  0.13867233  0.17224550  1.0
  Ni  Ni61  1  0.75409967  0.47200567  0.17224550  1.0
  Ni  Ni62  1  0.75409967  0.80533900  0.17224550  1.0
  Ni  Ni63  1  0.30445867  0.02799433  0.04203010  1.0
  Ni  Ni64  1  0.30445867  0.36132767  0.04203010  1.0
  Ni  Ni65  1  0.30445867  0.69466100  0.04203010  1.0
  Ni  Ni66  1  0.63779200  0.02799433  0.04203010  1.0
  Ni  Ni67  1  0.63779200  0.36132767  0.04203010  1.0
  Ni  Ni68  1  0.63779200  0.69466100  0.04203010  1.0
  Ni  Ni69  1  0.97112533  0.02799433  0.04203010  1.0
  Ni  Ni70  1  0.97112533  0.36132767  0.04203010  1.0
  Ni  Ni71  1  0.97112533  0.69466100  0.04203010  1.0
  Ni  Ni72  1  0.24590033  0.19466100  0.00689510  1.0
  Ni  Ni73  1  0.24590033  0.52799433  0.00689510  1.0
  Ni  Ni74  1  0.24590033  0.86132767  0.00689510  1.0
  Ni  Ni75  1  0.57923367  0.19466100  0.00689510  1.0
  Ni  Ni76  1  0.57923367  0.52799433  0.00689510  1.0
  Ni  Ni77  1  0.57923367  0.86132767  0.00689510  1.0
  Ni  Ni78  1  0.91256700  0.19466100  0.00689510  1.0
  Ni  Ni79  1  0.91256700  0.52799433  0.00689510  1.0
  Ni  Ni80  1  0.91256700  0.86132767  0.00689510  1.0
  Ni  Ni81  1  0.02887467  0.30533900  0.13711050  1.0
  Ni  Ni82  1  0.02887467  0.63867233  0.13711050  1.0
  Ni  Ni83  1  0.02887467  0.97200567  0.13711050  1.0
  Ni  Ni84  1  0.36220800  0.30533900  0.13711050  1.0
  Ni  Ni85  1  0.36220800  0.63867233  0.13711050  1.0
  Ni  Ni86  1  0.36220800  0.97200567  0.13711050  1.0
  Ni  Ni87  1  0.69554133  0.30533900  0.13711050  1.0
  Ni  Ni88  1  0.69554133  0.63867233  0.13711050  1.0
  Ni  Ni89  1  0.69554133  0.97200567  0.13711050  1.0
  Ge  Ge90  1  0.03476567  0.08333333  0.01042970  1.0
  Ge  Ge91  1  0.03476567  0.41666667  0.01042970  1.0
  Ge  Ge92  1  0.03476567  0.75000000  0.01042970  1.0
  Ge  Ge93  1  0.36809900  0.08333333  0.01042970  1.0
  Ge  Ge94  1  0.36809900  0.41666667  0.01042970  1.0
  Ge  Ge95  1  0.36809900  0.75000000  0.01042970  1.0
  Ge  Ge96  1  0.70143233  0.08333333  0.01042970  1.0
  Ge  Ge97  1  0.70143233  0.41666667  0.01042970  1.0
  Ge  Ge98  1  0.70143233  0.75000000  0.01042970  1.0
  Ge  Ge99  1  0.29856767  0.25000000  0.16871090  1.0
  Ge  Ge100  1  0.29856767  0.58333333  0.16871090  1.0
  Ge  Ge101  1  0.29856767  0.91666667  0.16871090  1.0
  Ge  Ge102  1  0.63190100  0.25000000  0.16871090  1.0
  Ge  Ge103  1  0.63190100  0.58333333  0.16871090  1.0
  Ge  Ge104  1  0.63190100  0.91666667  0.16871090  1.0
  Ge  Ge105  1  0.96523433  0.25000000  0.16871090  1.0
  Ge  Ge106  1  0.96523433  0.58333333  0.16871090  1.0
  Ge  Ge107  1  0.96523433  0.91666667  0.16871090  1.0
  Ge  Ge108  1  0.13908667  0.18222200  0.13249970  1.0
  Ge  Ge109  1  0.13908667  0.51555533  0.13249970  1.0
  Ge  Ge110  1  0.13908667  0.84888867  0.13249970  1.0
  Ge  Ge111  1  0.47242000  0.18222200  0.13249970  1.0
  Ge  Ge112  1  0.47242000  0.51555533  0.13249970  1.0
  Ge  Ge113  1  0.47242000  0.84888867  0.13249970  1.0
  Ge  Ge114  1  0.80575333  0.18222200  0.13249970  1.0
  Ge  Ge115  1  0.80575333  0.51555533  0.13249970  1.0
  Ge  Ge116  1  0.80575333  0.84888867  0.13249970  1.0
  Ge  Ge117  1  0.23821567  0.31777800  0.07302230  1.0
  Ge  Ge118  1  0.23821567  0.65111133  0.07302230  1.0
  Ge  Ge119  1  0.23821567  0.98444467  0.07302230  1.0
  Ge  Ge120  1  0.57154900  0.31777800  0.07302230  1.0
  Ge  Ge121  1  0.57154900  0.65111133  0.07302230  1.0
  Ge  Ge122  1  0.57154900  0.98444467  0.07302230  1.0
  Ge  Ge123  1  0.90488233  0.31777800  0.07302230  1.0
  Ge  Ge124  1  0.90488233  0.65111133  0.07302230  1.0
  Ge  Ge125  1  0.90488233  0.98444467  0.07302230  1.0
  Ge  Ge126  1  0.19424667  0.15111133  0.04664090  1.0
  Ge  Ge127  1  0.19424667  0.48444467  0.04664090  1.0
  Ge  Ge128  1  0.19424667  0.81777800  0.04664090  1.0
  Ge  Ge129  1  0.52758000  0.15111133  0.04664090  1.0
  Ge  Ge130  1  0.52758000  0.48444467  0.04664090  1.0
  Ge  Ge131  1  0.52758000  0.81777800  0.04664090  1.0
  Ge  Ge132  1  0.86091333  0.15111133  0.04664090  1.0
  Ge  Ge133  1  0.86091333  0.48444467  0.04664090  1.0
  Ge  Ge134  1  0.86091333  0.81777800  0.04664090  1.0
  Ge  Ge135  1  0.09511767  0.01555533  0.10611830  1.0
  Ge  Ge136  1  0.09511767  0.34888867  0.10611830  1.0
  Ge  Ge137  1  0.09511767  0.68222200  0.10611830  1.0
  Ge  Ge138  1  0.42845100  0.01555533  0.10611830  1.0
  Ge  Ge139  1  0.42845100  0.34888867  0.10611830  1.0
  Ge  Ge140  1  0.42845100  0.68222200  0.10611830  1.0
  Ge  Ge141  1  0.76178433  0.01555533  0.10611830  1.0
  Ge  Ge142  1  0.76178433  0.34888867  0.10611830  1.0
  Ge  Ge143  1  0.76178433  0.68222200  0.10611830  1.0
  Ni  Ni144  1  0.10961133  0.28493667  0.22625190  1.0
  Ni  Ni145  1  0.10961133  0.61827000  0.22625190  1.0
  Ni  Ni146  1  0.10961133  0.95160333  0.22625190  1.0
  Ni  Ni147  1  0.44294467  0.28493667  0.22625190  1.0
  Ni  Ni148  1  0.44294467  0.61827000  0.22625190  1.0
  Ni  Ni149  1  0.44294467  0.95160333  0.22625190  1.0
  Ni  Ni150  1  0.77627800  0.28493667  0.22625190  1.0
  Ni  Ni151  1  0.77627800  0.61827000  0.22625190  1.0
  Ni  Ni152  1  0.77627800  0.95160333  0.22625190  1.0
  Ni  Ni153  1  0.06113600  0.21506333  0.25533710  1.0
  Ni  Ni154  1  0.06113600  0.54839667  0.25533710  1.0
  Ni  Ni155  1  0.06113600  0.88173000  0.25533710  1.0
  Ni  Ni156  1  0.39446933  0.21506333  0.25533710  1.0
  Ni  Ni157  1  0.39446933  0.54839667  0.25533710  1.0
  Ni  Ni158  1  0.39446933  0.88173000  0.25533710  1.0
  Ni  Ni159  1  0.72780267  0.21506333  0.25533710  1.0
  Ni  Ni160  1  0.72780267  0.54839667  0.25533710  1.0
  Ni  Ni161  1  0.72780267  0.88173000  0.25533710  1.0
  Ni  Ni162  1  0.22372200  0.04839667  0.35288870  1.0
  Ni  Ni163  1  0.22372200  0.38173000  0.35288870  1.0
  Ni  Ni164  1  0.22372200  0.71506333  0.35288870  1.0
  Ni  Ni165  1  0.55705533  0.04839667  0.35288870  1.0
  Ni  Ni166  1  0.55705533  0.38173000  0.35288870  1.0
  Ni  Ni167  1  0.55705533  0.71506333  0.35288870  1.0
  Ni  Ni168  1  0.89038867  0.04839667  0.35288870  1.0
  Ni  Ni169  1  0.89038867  0.38173000  0.35288870  1.0
  Ni  Ni170  1  0.89038867  0.71506333  0.35288870  1.0
  Ni  Ni171  1  0.27219733  0.11827000  0.32380350  1.0
  Ni  Ni172  1  0.27219733  0.45160333  0.32380350  1.0
  Ni  Ni173  1  0.27219733  0.78493667  0.32380350  1.0
  Ni  Ni174  1  0.60553067  0.11827000  0.32380350  1.0
  Ni  Ni175  1  0.60553067  0.45160333  0.32380350  1.0
  Ni  Ni176  1  0.60553067  0.78493667  0.32380350  1.0
  Ni  Ni177  1  0.93886400  0.11827000  0.32380350  1.0
  Ni  Ni178  1  0.93886400  0.45160333  0.32380350  1.0
  Ni  Ni179  1  0.93886400  0.78493667  0.32380350  1.0
  Ni  Ni180  1  0.00000000  0.16666667  0.28957030  1.0
  Ni  Ni181  1  0.00000000  0.50000000  0.28957030  1.0
  Ni  Ni182  1  0.00000000  0.83333333  0.28957030  1.0
  Ni  Ni183  1  0.33333333  0.16666667  0.28957030  1.0
  Ni  Ni184  1  0.33333333  0.50000000  0.28957030  1.0
  Ni  Ni185  1  0.33333333  0.83333333  0.28957030  1.0
  Ni  Ni186  1  0.66666667  0.16666667  0.28957030  1.0
  Ni  Ni187  1  0.66666667  0.50000000  0.28957030  1.0
  Ni  Ni188  1  0.66666667  0.83333333  0.28957030  1.0
  Ni  Ni189  1  0.16666667  0.00000000  0.38957030  1.0
  Ni  Ni190  1  0.16666667  0.33333333  0.38957030  1.0
  Ni  Ni191  1  0.16666667  0.66666667  0.38957030  1.0
  Ni  Ni192  1  0.50000000  0.00000000  0.38957030  1.0
  Ni  Ni193  1  0.50000000  0.33333333  0.38957030  1.0
  Ni  Ni194  1  0.50000000  0.66666667  0.38957030  1.0
  Ni  Ni195  1  0.83333333  0.00000000  0.38957030  1.0
  Ni  Ni196  1  0.83333333  0.33333333  0.38957030  1.0
  Ni  Ni197  1  0.83333333  0.66666667  0.38957030  1.0
  Ni  Ni198  1  0.08743300  0.13867233  0.37224550  1.0
  Ni  Ni199  1  0.08743300  0.47200567  0.37224550  1.0
  Ni  Ni200  1  0.08743300  0.80533900  0.37224550  1.0
  Ni  Ni201  1  0.42076633  0.13867233  0.37224550  1.0
  Ni  Ni202  1  0.42076633  0.47200567  0.37224550  1.0
  Ni  Ni203  1  0.42076633  0.80533900  0.37224550  1.0
  Ni  Ni204  1  0.75409967  0.13867233  0.37224550  1.0
  Ni  Ni205  1  0.75409967  0.47200567  0.37224550  1.0
  Ni  Ni206  1  0.75409967  0.80533900  0.37224550  1.0
  Ni  Ni207  1  0.30445867  0.02799433  0.24203010  1.0
  Ni  Ni208  1  0.30445867  0.36132767  0.24203010  1.0
  Ni  Ni209  1  0.30445867  0.69466100  0.24203010  1.0
  Ni  Ni210  1  0.63779200  0.02799433  0.24203010  1.0
  Ni  Ni211  1  0.63779200  0.36132767  0.24203010  1.0
  Ni  Ni212  1  0.63779200  0.69466100  0.24203010  1.0
  Ni  Ni213  1  0.97112533  0.02799433  0.24203010  1.0
  Ni  Ni214  1  0.97112533  0.36132767  0.24203010  1.0
  Ni  Ni215  1  0.97112533  0.69466100  0.24203010  1.0
  Ni  Ni216  1  0.24590033  0.19466100  0.20689510  1.0
  Ni  Ni217  1  0.24590033  0.52799433  0.20689510  1.0
  Ni  Ni218  1  0.24590033  0.86132767  0.20689510  1.0
  Ni  Ni219  1  0.57923367  0.19466100  0.20689510  1.0
  Ni  Ni220  1  0.57923367  0.52799433  0.20689510  1.0
  Ni  Ni221  1  0.57923367  0.86132767  0.20689510  1.0
  Ni  Ni222  1  0.91256700  0.19466100  0.20689510  1.0
  Ni  Ni223  1  0.91256700  0.52799433  0.20689510  1.0
  Ni  Ni224  1  0.91256700  0.86132767  0.20689510  1.0
  Ni  Ni225  1  0.02887467  0.30533900  0.33711050  1.0
  Ni  Ni226  1  0.02887467  0.63867233  0.33711050  1.0
  Ni  Ni227  1  0.02887467  0.97200567  0.33711050  1.0
  Ni  Ni228  1  0.36220800  0.30533900  0.33711050  1.0
  Ni  Ni229  1  0.36220800  0.63867233  0.33711050  1.0
  Ni  Ni230  1  0.36220800  0.97200567  0.33711050  1.0
  Ni  Ni231  1  0.69554133  0.30533900  0.33711050  1.0
  Ni  Ni232  1  0.69554133  0.63867233  0.33711050  1.0
  Ni  Ni233  1  0.69554133  0.97200567  0.33711050  1.0
  Ge  Ge234  1  0.03476567  0.08333333  0.21042970  1.0
  Ge  Ge235  1  0.03476567  0.41666667  0.21042970  1.0
  Ge  Ge236  1  0.03476567  0.75000000  0.21042970  1.0
  Ge  Ge237  1  0.36809900  0.08333333  0.21042970  1.0
  Ge  Ge238  1  0.36809900  0.41666667  0.21042970  1.0
  Ge  Ge239  1  0.36809900  0.75000000  0.21042970  1.0
  Ge  Ge240  1  0.70143233  0.08333333  0.21042970  1.0
  Ge  Ge241  1  0.70143233  0.41666667  0.21042970  1.0
  Ge  Ge242  1  0.70143233  0.75000000  0.21042970  1.0
  Ge  Ge243  1  0.29856767  0.25000000  0.36871090  1.0
  Ge  Ge244  1  0.29856767  0.58333333  0.36871090  1.0
  Ge  Ge245  1  0.29856767  0.91666667  0.36871090  1.0
  Ge  Ge246  1  0.63190100  0.25000000  0.36871090  1.0
  Ge  Ge247  1  0.63190100  0.58333333  0.36871090  1.0
  Ge  Ge248  1  0.63190100  0.91666667  0.36871090  1.0
  Ge  Ge249  1  0.96523433  0.25000000  0.36871090  1.0
  Ge  Ge250  1  0.96523433  0.58333333  0.36871090  1.0
  Ge  Ge251  1  0.96523433  0.91666667  0.36871090  1.0
  Ge  Ge252  1  0.13908667  0.18222200  0.33249970  1.0
  Ge  Ge253  1  0.13908667  0.51555533  0.33249970  1.0
  Ge  Ge254  1  0.13908667  0.84888867  0.33249970  1.0
  Ge  Ge255  1  0.47242000  0.18222200  0.33249970  1.0
  Ge  Ge256  1  0.47242000  0.51555533  0.33249970  1.0
  Ge  Ge257  1  0.47242000  0.84888867  0.33249970  1.0
  Ge  Ge258  1  0.80575333  0.18222200  0.33249970  1.0
  Ge  Ge259  1  0.80575333  0.51555533  0.33249970  1.0
  Ge  Ge260  1  0.80575333  0.84888867  0.33249970  1.0
  Ge  Ge261  1  0.23821567  0.31777800  0.27302230  1.0
  Ge  Ge262  1  0.23821567  0.65111133  0.27302230  1.0
  Ge  Ge263  1  0.23821567  0.98444467  0.27302230  1.0
  Ge  Ge264  1  0.57154900  0.31777800  0.27302230  1.0
  Ge  Ge265  1  0.57154900  0.65111133  0.27302230  1.0
  Ge  Ge266  1  0.57154900  0.98444467  0.27302230  1.0
  Ge  Ge267  1  0.90488233  0.31777800  0.27302230  1.0
  Ge  Ge268  1  0.90488233  0.65111133  0.27302230  1.0
  Ge  Ge269  1  0.90488233  0.98444467  0.27302230  1.0
  Ge  Ge270  1  0.19424667  0.15111133  0.24664090  1.0
  Ge  Ge271  1  0.19424667  0.48444467  0.24664090  1.0
  Ge  Ge272  1  0.19424667  0.81777800  0.24664090  1.0
  Ge  Ge273  1  0.52758000  0.15111133  0.24664090  1.0
  Ge  Ge274  1  0.52758000  0.48444467  0.24664090  1.0
  Ge  Ge275  1  0.52758000  0.81777800  0.24664090  1.0
  Ge  Ge276  1  0.86091333  0.15111133  0.24664090  1.0
  Ge  Ge277  1  0.86091333  0.48444467  0.24664090  1.0
  Ge  Ge278  1  0.86091333  0.81777800  0.24664090  1.0
  Ge  Ge279  1  0.09511767  0.01555533  0.30611830  1.0
  Ge  Ge280  1  0.09511767  0.34888867  0.30611830  1.0
  Ge  Ge281  1  0.09511767  0.68222200  0.30611830  1.0
  Ge  Ge282  1  0.42845100  0.01555533  0.30611830  1.0
  Ge  Ge283  1  0.42845100  0.34888867  0.30611830  1.0
  Ge  Ge284  1  0.42845100  0.68222200  0.30611830  1.0
  Ge  Ge285  1  0.76178433  0.01555533  0.30611830  1.0
  Ge  Ge286  1  0.76178433  0.34888867  0.30611830  1.0
  Ge  Ge287  1  0.76178433  0.68222200  0.30611830  1.0
