# generated using pymatgen
data_Ni5Ge3
_symmetry_space_group_name_H-M   'P 1'
_cell_length_a   20.16427199
_cell_length_b   20.23933142
_cell_length_c   31.74625255
_cell_angle_alpha   121.89557813
_cell_angle_beta   90.00000000
_cell_angle_gamma   60.12260362
_symmetry_Int_Tables_number   1
_chemical_formula_structural   Ni5Ge3
_chemical_formula_sum   'Ni180 Ge108'
_cell_volume   8907.41294738
_cell_formula_units_Z   36
loop_
 _symmetry_equiv_pos_site_id
 _symmetry_equiv_pos_as_xyz
  1  'x, y, z'
loop_
 _atom_site_type_symbol
 _atom_site_label
 _atom_site_symmetry_multiplicity
 _atom_site_fract_x
 _atom_site_fract_y
 _atom_site_fract_z
 _atom_site_occupancy
  Ni  Ni0  1  0.10961133  0.28485800  0.17488070  1.0
  Ni  Ni1  1  0.10961133  0.61819133  0.17488070  1.0
  Ni  Ni2  1  0.10961133  0.95152467  0.17488070  1.0
  Ni  Ni3  1  0.44294467  0.28485800  0.17488070  1.0
  Ni  Ni4  1  0.44294467  0.61819133  0.17488070  1.0
  Ni  Ni5  1  0.44294467  0.95152467  0.17488070  1.0
  Ni  Ni6  1  0.77627800  0.28485800  0.17488070  1.0
  Ni  Ni7  1  0.77627800  0.61819133  0.17488070  1.0
  Ni  Ni8  1  0.77627800  0.95152467  0.17488070  1.0
  Ni  Ni9  1  0.06113600  0.04847533  0.07497510  1.0
  Ni  Ni10  1  0.06113600  0.38180867  0.07497510  1.0
  Ni  Ni11  1  0.06113600  0.71514200  0.07497510  1.0
  Ni  Ni12  1  0.39446933  0.04847533  0.07497510  1.0
  Ni  Ni13  1  0.39446933  0.38180867  0.07497510  1.0
  Ni  Ni14  1  0.39446933  0.71514200  0.07497510  1.0
  Ni  Ni15  1  0.72780267  0.04847533  0.07497510  1.0
  Ni  Ni16  1  0.72780267  0.38180867  0.07497510  1.0
  Ni  Ni17  1  0.72780267  0.71514200  0.07497510  1.0
  Ni  Ni18  1  0.22372200  0.04847533  0.17497510  1.0
  Ni  Ni19  1  0.22372200  0.38180867  0.17497510  1.0
  Ni  Ni20  1  0.22372200  0.71514200  0.17497510  1.0
  Ni  Ni21  1  0.55705533  0.04847533  0.17497510  1.0
  Ni  Ni22  1  0.55705533  0.38180867  0.17497510  1.0
  Ni  Ni23  1  0.55705533  0.71514200  0.17497510  1.0
  Ni  Ni24  1  0.89038867  0.04847533  0.17497510  1.0
  Ni  Ni25  1  0.89038867  0.38180867  0.17497510  1.0
  Ni  Ni26  1  0.89038867  0.71514200  0.17497510  1.0
  Ni  Ni27  1  0.27219733  0.28485800  0.07488070  1.0
  Ni  Ni28  1  0.27219733  0.61819133  0.07488070  1.0
  Ni  Ni29  1  0.27219733  0.95152467  0.07488070  1.0
  Ni  Ni30  1  0.60553067  0.28485800  0.07488070  1.0
  Ni  Ni31  1  0.60553067  0.61819133  0.07488070  1.0
  Ni  Ni32  1  0.60553067  0.95152467  0.07488070  1.0
  Ni  Ni33  1  0.93886400  0.28485800  0.07488070  1.0
  Ni  Ni34  1  0.93886400  0.61819133  0.07488070  1.0
  Ni  Ni35  1  0.93886400  0.95152467  0.07488070  1.0
  Ni  Ni36  1  0.00000000  0.16666667  0.17492790  1.0
  Ni  Ni37  1  0.00000000  0.50000000  0.17492790  1.0
  Ni  Ni38  1  0.00000000  0.83333333  0.17492790  1.0
  Ni  Ni39  1  0.33333333  0.16666667  0.17492790  1.0
  Ni  Ni40  1  0.33333333  0.50000000  0.17492790  1.0
  Ni  Ni41  1  0.33333333  0.83333333  0.17492790  1.0
  Ni  Ni42  1  0.66666667  0.16666667  0.17492790  1.0
  Ni  Ni43  1  0.66666667  0.50000000  0.17492790  1.0
  Ni  Ni44  1  0.66666667  0.83333333  0.17492790  1.0
  Ni  Ni45  1  0.16666667  0.16666667  0.07492790  1.0
  Ni  Ni46  1  0.16666667  0.50000000  0.07492790  1.0
  Ni  Ni47  1  0.16666667  0.83333333  0.07492790  1.0
  Ni  Ni48  1  0.50000000  0.16666667  0.07492790  1.0
  Ni  Ni49  1  0.50000000  0.50000000  0.07492790  1.0
  Ni  Ni50  1  0.50000000  0.83333333  0.07492790  1.0
  Ni  Ni51  1  0.83333333  0.16666667  0.07492790  1.0
  Ni  Ni52  1  0.83333333  0.50000000  0.07492790  1.0
  Ni  Ni53  1  0.83333333  0.83333333  0.07492790  1.0
  Ni  Ni54  1  0.08743300  0.21702567  0.02193990  1.0
  Ni  Ni55  1  0.08743300  0.55035900  0.02193990  1.0
  Ni  Ni56  1  0.08743300  0.88369233  0.02193990  1.0
  Ni  Ni57  1  0.42076633  0.21702567  0.02193990  1.0
  Ni  Ni58  1  0.42076633  0.55035900  0.02193990  1.0
  Ni  Ni59  1  0.42076633  0.88369233  0.02193990  1.0
  Ni  Ni60  1  0.75409967  0.21702567  0.02193990  1.0
  Ni  Ni61  1  0.75409967  0.55035900  0.02193990  1.0
  Ni  Ni62  1  0.75409967  0.88369233  0.02193990  1.0
  Ni  Ni63  1  0.30445867  0.11630767  0.02791590  1.0
  Ni  Ni64  1  0.30445867  0.44964100  0.02791590  1.0
  Ni  Ni65  1  0.30445867  0.78297433  0.02791590  1.0
  Ni  Ni66  1  0.63779200  0.11630767  0.02791590  1.0
  Ni  Ni67  1  0.63779200  0.44964100  0.02791590  1.0
  Ni  Ni68  1  0.63779200  0.78297433  0.02791590  1.0
  Ni  Ni69  1  0.97112533  0.11630767  0.02791590  1.0
  Ni  Ni70  1  0.97112533  0.44964100  0.02791590  1.0
  Ni  Ni71  1  0.97112533  0.78297433  0.02791590  1.0
  Ni  Ni72  1  0.24590033  0.11630767  0.12791590  1.0
  Ni  Ni73  1  0.24590033  0.44964100  0.12791590  1.0
  Ni  Ni74  1  0.24590033  0.78297433  0.12791590  1.0
  Ni  Ni75  1  0.57923367  0.11630767  0.12791590  1.0
  Ni  Ni76  1  0.57923367  0.44964100  0.12791590  1.0
  Ni  Ni77  1  0.57923367  0.78297433  0.12791590  1.0
  Ni  Ni78  1  0.91256700  0.11630767  0.12791590  1.0
  Ni  Ni79  1  0.91256700  0.44964100  0.12791590  1.0
  Ni  Ni80  1  0.91256700  0.78297433  0.12791590  1.0
  Ni  Ni81  1  0.02887467  0.21702567  0.12193990  1.0
  Ni  Ni82  1  0.02887467  0.55035900  0.12193990  1.0
  Ni  Ni83  1  0.02887467  0.88369233  0.12193990  1.0
  Ni  Ni84  1  0.36220800  0.21702567  0.12193990  1.0
  Ni  Ni85  1  0.36220800  0.55035900  0.12193990  1.0
  Ni  Ni86  1  0.36220800  0.88369233  0.12193990  1.0
  Ni  Ni87  1  0.69554133  0.21702567  0.12193990  1.0
  Ni  Ni88  1  0.69554133  0.55035900  0.12193990  1.0
  Ni  Ni89  1  0.69554133  0.88369233  0.12193990  1.0
  Ge  Ge90  1  0.03476567  0.00000000  0.12492790  1.0
  Ge  Ge91  1  0.03476567  0.33333333  0.12492790  1.0
  Ge  Ge92  1  0.03476567  0.66666667  0.12492790  1.0
  Ge  Ge93  1  0.36809900  0.00000000  0.12492790  1.0
  Ge  Ge94  1  0.36809900  0.33333333  0.12492790  1.0
  Ge  Ge95  1  0.36809900  0.66666667  0.12492790  1.0
  Ge  Ge96  1  0.70143233  0.00000000  0.12492790  1.0
  Ge  Ge97  1  0.70143233  0.33333333  0.12492790  1.0
  Ge  Ge98  1  0.70143233  0.66666667  0.12492790  1.0
  Ge  Ge99  1  0.29856767  0.33333333  0.02492790  1.0
  Ge  Ge100  1  0.29856767  0.66666667  0.02492790  1.0
  Ge  Ge101  1  0.29856767  0.00000000  0.02492790  1.0
  Ge  Ge102  1  0.63190100  0.33333333  0.02492790  1.0
  Ge  Ge103  1  0.63190100  0.66666667  0.02492790  1.0
  Ge  Ge104  1  0.63190100  0.00000000  0.02492790  1.0
  Ge  Ge105  1  0.96523433  0.33333333  0.02492790  1.0
  Ge  Ge106  1  0.96523433  0.66666667  0.02492790  1.0
  Ge  Ge107  1  0.96523433  0.00000000  0.02492790  1.0
  Ge  Ge108  1  0.13908667  0.09912900  0.12507210  1.0
  Ge  Ge109  1  0.13908667  0.43246233  0.12507210  1.0
  Ge  Ge110  1  0.13908667  0.76579567  0.12507210  1.0
  Ge  Ge111  1  0.47242000  0.09912900  0.12507210  1.0
  Ge  Ge112  1  0.47242000  0.43246233  0.12507210  1.0
  Ge  Ge113  1  0.47242000  0.76579567  0.12507210  1.0
  Ge  Ge114  1  0.80575333  0.09912900  0.12507210  1.0
  Ge  Ge115  1  0.80575333  0.43246233  0.12507210  1.0
  Ge  Ge116  1  0.80575333  0.76579567  0.12507210  1.0
  Ge  Ge117  1  0.23821567  0.23420433  0.12478370  1.0
  Ge  Ge118  1  0.23821567  0.56753767  0.12478370  1.0
  Ge  Ge119  1  0.23821567  0.90087100  0.12478370  1.0
  Ge  Ge120  1  0.57154900  0.23420433  0.12478370  1.0
  Ge  Ge121  1  0.57154900  0.56753767  0.12478370  1.0
  Ge  Ge122  1  0.57154900  0.90087100  0.12478370  1.0
  Ge  Ge123  1  0.90488233  0.23420433  0.12478370  1.0
  Ge  Ge124  1  0.90488233  0.56753767  0.12478370  1.0
  Ge  Ge125  1  0.90488233  0.90087100  0.12478370  1.0
  Ge  Ge126  1  0.19424667  0.23420433  0.02478370  1.0
  Ge  Ge127  1  0.19424667  0.56753767  0.02478370  1.0
  Ge  Ge128  1  0.19424667  0.90087100  0.02478370  1.0
  Ge  Ge129  1  0.52758000  0.23420433  0.02478370  1.0
  Ge  Ge130  1  0.52758000  0.56753767  0.02478370  1.0
  Ge  Ge131  1  0.52758000  0.90087100  0.02478370  1.0
  Ge  Ge132  1  0.86091333  0.23420433  0.02478370  1.0
  Ge  Ge133  1  0.86091333  0.56753767  0.02478370  1.0
  Ge  Ge134  1  0.86091333  0.90087100  0.02478370  1.0
  Ge  Ge135  1  0.09511767  0.09912900  0.02507210  1.0
  Ge  Ge136  1  0.09511767  0.43246233  0.02507210  1.0
  Ge  Ge137  1  0.09511767  0.76579567  0.02507210  1.0
  Ge  Ge138  1  0.42845100  0.09912900  0.02507210  1.0
  Ge  Ge139  1  0.42845100  0.43246233  0.02507210  1.0
  Ge  Ge140  1  0.42845100  0.76579567  0.02507210  1.0
  Ge  Ge141  1  0.76178433  0.09912900  0.02507210  1.0
  Ge  Ge142  1  0.76178433  0.43246233  0.02507210  1.0
  Ge  Ge143  1  0.76178433  0.76579567  0.02507210  1.0
  Ni  Ni144  1  0.10961133  0.28485800  0.37488070  1.0
  Ni  Ni145  1  0.10961133  0.61819133  0.37488070  1.0
  Ni  Ni146  1  0.10961133  0.95152467  0.37488070  1.0
  Ni  Ni147  1  0.44294467  0.28485800  0.37488070  1.0
  Ni  Ni148  1  0.44294467  0.61819133  0.37488070  1.0
  Ni  Ni149  1  0.44294467  0.95152467  0.37488070  1.0
  Ni  Ni150  1  0.77627800  0.28485800  0.37488070  1.0
  Ni  Ni151  1  0.77627800  0.61819133  0.37488070  1.0
  Ni  Ni152  1  0.77627800  0.95152467  0.37488070  1.0
  Ni  Ni153  1  0.06113600  0.04847533  0.27497510  1.0
  Ni  Ni154  1  0.06113600  0.38180867  0.27497510  1.0
  Ni  Ni155  1  0.06113600  0.71514200  0.27497510  1.0
  Ni  Ni156  1  0.39446933  0.04847533  0.27497510  1.0
  Ni  Ni157  1  0.39446933  0.38180867  0.27497510  1.0
  Ni  Ni158  1  0.39446933  0.71514200  0.27497510  1.0
  Ni  Ni159  1  0.72780267  0.04847533  0.27497510  1.0
  Ni  Ni160  1  0.72780267  0.38180867  0.27497510  1.0
  Ni  Ni161  1  0.72780267  0.71514200  0.27497510  1.0
  Ni  Ni162  1  0.22372200  0.04847533  0.37497510  1.0
  Ni  Ni163  1  0.22372200  0.38180867  0.37497510  1.0
  Ni  Ni164  1  0.22372200  0.71514200  0.37497510  1.0
  Ni  Ni165  1  0.55705533  0.04847533  0.37497510  1.0
  Ni  Ni166  1  0.55705533  0.38180867  0.37497510  1.0
  Ni  Ni167  1  0.55705533  0.71514200  0.37497510  1.0
  Ni  Ni168  1  0.89038867  0.04847533  0.37497510  1.0
  Ni  Ni169  1  0.89038867  0.38180867  0.37497510  1.0
  Ni  Ni170  1  0.89038867  0.71514200  0.37497510  1.0
  Ni  Ni171  1  0.27219733  0.28485800  0.27488070  1.0
  Ni  Ni172  1  0.27219733  0.61819133  0.27488070  1.0
  Ni  Ni173  1  0.27219733  0.95152467  0.27488070  1.0
  Ni  Ni174  1  0.60553067  0.28485800  0.27488070  1.0
  Ni  Ni175  1  0.60553067  0.61819133  0.27488070  1.0
  Ni  Ni176  1  0.60553067  0.95152467  0.27488070  1.0
  Ni  Ni177  1  0.93886400  0.28485800  0.27488070  1.0
  Ni  Ni178  1  0.93886400  0.61819133  0.27488070  1.0
  Ni  Ni179  1  0.93886400  0.95152467  0.27488070  1.0
  Ni  Ni180  1  0.00000000  0.16666667  0.37492790  1.0
  Ni  Ni181  1  0.00000000  0.50000000  0.37492790  1.0
  Ni  Ni182  1  0.00000000  0.83333333  0.37492790  1.0
  Ni  Ni183  1  0.33333333  0.16666667  0.37492790  1.0
  Ni  Ni184  1  0.33333333  0.50000000  0.37492790  1.0
  Ni  Ni185  1  0.33333333  0.83333333  0.37492790  1.0
  Ni  Ni186  1  0.66666667  0.16666667  0.37492790  1.0
  Ni  Ni187  1  0.66666667  0.50000000  0.37492790  1.0
  Ni  Ni188  1  0.66666667  0.83333333  0.37492790  1.0
  Ni  Ni189  1  0.16666667  0.16666667  0.27492790  1.0
  Ni  Ni190  1  0.16666667  0.50000000  0.27492790  1.0
  Ni  Ni191  1  0.16666667  0.83333333  0.27492790  1.0
  Ni  Ni192  1  0.50000000  0.16666667  0.27492790  1.0
  Ni  Ni193  1  0.50000000  0.50000000  0.27492790  1.0
  Ni  Ni194  1  0.50000000  0.83333333  0.27492790  1.0
  Ni  Ni195  1  0.83333333  0.16666667  0.27492790  1.0
  Ni  Ni196  1  0.83333333  0.50000000  0.27492790  1.0
  Ni  Ni197  1  0.83333333  0.83333333  0.27492790  1.0
  Ni  Ni198  1  0.08743300  0.21702567  0.22193990  1.0
  Ni  Ni199  1  0.08743300  0.55035900  0.22193990  1.0
  Ni  Ni200  1  0.08743300  0.88369233  0.22193990  1.0
  Ni  Ni201  1  0.42076633  0.21702567  0.22193990  1.0
  Ni  Ni202  1  0.42076633  0.55035900  0.22193990  1.0
  Ni  Ni203  1  0.42076633  0.88369233  0.22193990  1.0
  Ni  Ni204  1  0.75409967  0.21702567  0.22193990  1.0
  Ni  Ni205  1  0.75409967  0.55035900  0.22193990  1.0
  Ni  Ni206  1  0.75409967  0.88369233  0.22193990  1.0
  Ni  Ni207  1  0.30445867  0.11630767  0.22791590  1.0
  Ni  Ni208  1  0.30445867  0.44964100  0.22791590  1.0
  Ni  Ni209  1  0.30445867  0.78297433  0.22791590  1.0
  Ni  Ni210  1  0.63779200  0.11630767  0.22791590  1.0
  Ni  Ni211  1  0.63779200  0.44964100  0.22791590  1.0
  Ni  Ni212  1  0.63779200  0.78297433  0.22791590  1.0
  Ni  Ni213  1  0.97112533  0.11630767  0.22791590  1.0
  Ni  Ni214  1  0.97112533  0.44964100  0.22791590  1.0
  Ni  Ni215  1  0.97112533  0.78297433  0.22791590  1.0
  Ni  Ni216  1  0.24590033  0.11630767  0.32791590  1.0
  Ni  Ni217  1  0.24590033  0.44964100  0.32791590  1.0
  Ni  Ni218  1  0.24590033  0.78297433  0.32791590  1.0
  Ni  Ni219  1  0.57923367  0.11630767  0.32791590  1.0
  Ni  Ni220  1  0.57923367  0.44964100  0.32791590  1.0
  Ni  Ni221  1  0.57923367  0.78297433  0.32791590  1.0
  Ni  Ni222  1  0.91256700  0.11630767  0.32791590  1.0
  Ni  Ni223  1  0.91256700  0.44964100  0.32791590  1.0
  Ni  Ni224  1  0.91256700  0.78297433  0.32791590  1.0
  Ni  Ni225  1  0.02887467  0.21702567  0.32193990  1.0
  Ni  Ni226  1  0.02887467  0.55035900  0.32193990  1.0
  Ni  Ni227  1  0.02887467  0.88369233  0.32193990  1.0
  Ni  Ni228  1  0.36220800  0.21702567  0.32193990  1.0
  Ni  Ni229  1  0.36220800  0.55035900  0.32193990  1.0
  Ni  Ni230  1  0.36220800  0.88369233  0.32193990  1.0
  Ni  Ni231  1  0.69554133  0.21702567  0.32193990  1.0
  Ni  Ni232  1  0.69554133  0.55035900  0.32193990  1.0
  Ni  Ni233  1  0.69554133  0.88369233  0.32193990  1.0
  Ge  Ge234  1  0.03476567  0.00000000  0.32492790  1.0
  Ge  Ge235  1  0.03476567  0.33333333  0.32492790  1.0
  Ge  Ge236  1  0.03476567  0.66666667  0.32492790  1.0
  Ge  Ge237  1  0.36809900  0.00000000  0.32492790  1.0
  Ge  Ge238  1  0.36809900  0.33333333  0.32492790  1.0
  Ge  Ge239  1  0.36809900  0.66666667  0.32492790  1.0
  Ge  Ge240  1  0.70143233  0.00000000  0.32492790  1.0
  Ge  Ge241  1  0.70143233  0.33333333  0.32492790  1.0
  Ge  Ge242  1  0.70143233  0.66666667  0.32492790  1.0
  Ge  Ge243  1  0.29856767  0.33333333  0.22492790  1.0
  Ge  Ge244  1  0.29856767  0.66666667  0.22492790  1.0
  Ge  Ge245  1  0.29856767  0.00000000  0.22492790  1.0
  Ge  Ge246  1  0.63190100  0.33333333  0.22492790  1.0
  Ge  Ge247  1  0.63190100  0.66666667  0.22492790  1.0
  Ge  Ge248  1  0.63190100  0.00000000  0.22492790  1.0
  Ge  Ge249  1  0.96523433  0.33333333  0.22492790  1.0
  Ge  Ge250  1  0.96523433  0.66666667  0.22492790  1.0
  Ge  Ge251  1  0.96523433  0.00000000  0.22492790  1.0
  Ge  Ge252  1  0.13908667  0.09912900  0.32507210  1.0
  Ge  Ge253  1  0.13908667  0.43246233  0.32507210  1.0
  Ge  Ge254  1  0.13908667  0.76579567  0.32507210  1.0
  Ge  Ge255  1  0.47242000  0.09912900  0.32507210  1.0
  Ge  Ge256  1  0.47242000  0.43246233  0.32507210  1.0
  Ge  Ge257  1  0.47242000  0.76579567  0.32507210  1.0
  Ge  Ge258  1  0.80575333  0.09912900  0.32507210  1.0
  Ge  Ge259  1  0.80575333  0.43246233  0.32507210  1.0
  Ge  Ge260  1  0.80575333  0.76579567  0.32507210  1.0
  Ge  Ge261  1  0.23821567  0.23420433  0.32478370  1.0
  Ge  Ge262  1  0.23821567  0.56753767  0.32478370  1.0
  Ge  Ge263  1  0.23821567  0.90087100  0.32478370  1.0
  Ge  Ge264  1  0.57154900  0.23420433  0.32478370  1.0
  Ge  Ge265  1  0.57154900  0.56753767  0.32478370  1.0
  Ge  Ge266  1  0.57154900  0.90087100  0.32478370  1.0
  Ge  Ge267  1  0.90488233  0.23420433  0.32478370  1.0
  Ge  Ge268  1  0.90488233  0.56753767  0.32478370  1.0
  Ge  Ge269  1  0.90488233  0.90087100  0.32478370  1.0
  Ge  Ge270  1  0.19424667  0.23420433  0.22478370  1.0
  Ge  Ge271  1  0.19424667  0.56753767  0.22478370  1.0
  Ge  Ge272  1  0.19424667  0.90087100  0.22478370  1.0
  Ge  Ge273  1  0.52758000  0.23420433  0.22478370  1.0
  Ge  Ge274  1  0.52758000  0.56753767  0.22478370  1.0
  Ge  Ge275  1  0.52758000  0.90087100  0.22478370  1.0
  Ge  Ge276  1  0.86091333  0.23420433  0.22478370  1.0
  Ge  Ge277  1  0.86091333  0.56753767  0.22478370  1.0
  Ge  Ge278  1  0.86091333  0.90087100  0.22478370  1.0
  Ge  Ge279  1  0.09511767  0.09912900  0.22507210  1.0
  Ge  Ge280  1  0.09511767  0.43246233  0.22507210  1.0
  Ge  Ge281  1  0.09511767  0.76579567  0.22507210  1.0
  Ge  Ge282  1  0.42845100  0.09912900  0.22507210  1.0
  Ge  Ge283  1  0.42845100  0.43246233  0.22507210  1.0
  Ge  Ge284  1  0.42845100  0.76579567  0.22507210  1.0
  Ge  Ge285  1  0.76178433  0.09912900  0.22507210  1.0
  Ge  Ge286  1  0.76178433  0.43246233  0.22507210  1.0
  Ge  Ge287  1  0.76178433  0.76579567  0.22507210  1.0
