# generated using pymatgen
data_Ni5Ge3
_symmetry_space_group_name_H-M   'P 1'
_cell_length_a   20.23933142
_cell_length_b   27.73832553
_cell_length_c   31.84412555
_cell_angle_alpha   85.21851221
_cell_angle_beta   89.60934246
_cell_angle_gamma   89.95957947
_symmetry_Int_Tables_number   1
_chemical_formula_structural   Ni5Ge3
_chemical_formula_sum   'Ni360 Ge216'
_cell_volume   17814.82589475
_cell_formula_units_Z   72
loop_
 _symmetry_equiv_pos_site_id
 _symmetry_equiv_pos_as_xyz
  1  'x, y, z'
loop_
 _atom_site_type_symbol
 _atom_site_label
 _atom_site_symmetry_multiplicity
 _atom_site_fract_x
 _atom_site_fract_y
 _atom_site_fract_z
 _atom_site_occupancy
  Ge  Ge0  1  0.30904950  0.27428383  0.81457030  1.0
  Ge  Ge1  1  0.30904950  0.60761717  0.81457030  1.0
  Ge  Ge2  1  0.30904950  0.94095050  0.81457030  1.0
  Ge  Ge3  1  0.64238283  0.27428383  0.81457030  1.0
  Ge  Ge4  1  0.64238283  0.60761717  0.81457030  1.0
  Ge  Ge5  1  0.64238283  0.94095050  0.81457030  1.0
  Ge  Ge6  1  0.97571617  0.27428383  0.81457030  1.0
  Ge  Ge7  1  0.97571617  0.60761717  0.81457030  1.0
  Ge  Ge8  1  0.97571617  0.94095050  0.81457030  1.0
  Ge  Ge9  1  0.14238283  0.10761717  0.91457030  1.0
  Ge  Ge10  1  0.14238283  0.44095050  0.91457030  1.0
  Ge  Ge11  1  0.14238283  0.77428383  0.91457030  1.0
  Ge  Ge12  1  0.47571617  0.10761717  0.91457030  1.0
  Ge  Ge13  1  0.47571617  0.44095050  0.91457030  1.0
  Ge  Ge14  1  0.47571617  0.77428383  0.91457030  1.0
  Ge  Ge15  1  0.80904950  0.10761717  0.91457030  1.0
  Ge  Ge16  1  0.80904950  0.44095050  0.91457030  1.0
  Ge  Ge17  1  0.80904950  0.77428383  0.91457030  1.0
  Ge  Ge18  1  0.02428383  0.05904950  0.98542970  1.0
  Ge  Ge19  1  0.02428383  0.39238283  0.98542970  1.0
  Ge  Ge20  1  0.02428383  0.72571617  0.98542970  1.0
  Ge  Ge21  1  0.35761717  0.05904950  0.98542970  1.0
  Ge  Ge22  1  0.35761717  0.39238283  0.98542970  1.0
  Ge  Ge23  1  0.35761717  0.72571617  0.98542970  1.0
  Ge  Ge24  1  0.69095050  0.05904950  0.98542970  1.0
  Ge  Ge25  1  0.69095050  0.39238283  0.98542970  1.0
  Ge  Ge26  1  0.69095050  0.72571617  0.98542970  1.0
  Ge  Ge27  1  0.19095050  0.22571617  0.88542970  1.0
  Ge  Ge28  1  0.19095050  0.55904950  0.88542970  1.0
  Ge  Ge29  1  0.19095050  0.89238283  0.88542970  1.0
  Ge  Ge30  1  0.52428383  0.22571617  0.88542970  1.0
  Ge  Ge31  1  0.52428383  0.55904950  0.88542970  1.0
  Ge  Ge32  1  0.52428383  0.89238283  0.88542970  1.0
  Ge  Ge33  1  0.85761717  0.22571617  0.88542970  1.0
  Ge  Ge34  1  0.85761717  0.55904950  0.88542970  1.0
  Ge  Ge35  1  0.85761717  0.89238283  0.88542970  1.0
  Ge  Ge36  1  0.31176567  0.17267900  0.95346320  1.0
  Ge  Ge37  1  0.31176567  0.50601233  0.95346320  1.0
  Ge  Ge38  1  0.31176567  0.83934567  0.95346320  1.0
  Ge  Ge39  1  0.64509900  0.17267900  0.95346320  1.0
  Ge  Ge40  1  0.64509900  0.50601233  0.95346320  1.0
  Ge  Ge41  1  0.64509900  0.83934567  0.95346320  1.0
  Ge  Ge42  1  0.97843233  0.17267900  0.95346320  1.0
  Ge  Ge43  1  0.97843233  0.50601233  0.95346320  1.0
  Ge  Ge44  1  0.97843233  0.83934567  0.95346320  1.0
  Ge  Ge45  1  0.14509900  0.00601233  0.85346320  1.0
  Ge  Ge46  1  0.14509900  0.33934567  0.85346320  1.0
  Ge  Ge47  1  0.14509900  0.67267900  0.85346320  1.0
  Ge  Ge48  1  0.47843233  0.00601233  0.85346320  1.0
  Ge  Ge49  1  0.47843233  0.33934567  0.85346320  1.0
  Ge  Ge50  1  0.47843233  0.67267900  0.85346320  1.0
  Ge  Ge51  1  0.81176567  0.00601233  0.85346320  1.0
  Ge  Ge52  1  0.81176567  0.33934567  0.85346320  1.0
  Ge  Ge53  1  0.81176567  0.67267900  0.85346320  1.0
  Ge  Ge54  1  0.29355217  0.05533650  0.88334610  1.0
  Ge  Ge55  1  0.29355217  0.38866983  0.88334610  1.0
  Ge  Ge56  1  0.29355217  0.72200317  0.88334610  1.0
  Ge  Ge57  1  0.62688550  0.05533650  0.88334610  1.0
  Ge  Ge58  1  0.62688550  0.38866983  0.88334610  1.0
  Ge  Ge59  1  0.62688550  0.72200317  0.88334610  1.0
  Ge  Ge60  1  0.96021883  0.05533650  0.88334610  1.0
  Ge  Ge61  1  0.96021883  0.38866983  0.88334610  1.0
  Ge  Ge62  1  0.96021883  0.72200317  0.88334610  1.0
  Ge  Ge63  1  0.12688550  0.22200317  0.98334610  1.0
  Ge  Ge64  1  0.12688550  0.55533650  0.98334610  1.0
  Ge  Ge65  1  0.12688550  0.88866983  0.98334610  1.0
  Ge  Ge66  1  0.46021883  0.22200317  0.98334610  1.0
  Ge  Ge67  1  0.46021883  0.55533650  0.98334610  1.0
  Ge  Ge68  1  0.46021883  0.88866983  0.98334610  1.0
  Ge  Ge69  1  0.79355217  0.22200317  0.98334610  1.0
  Ge  Ge70  1  0.79355217  0.55533650  0.98334610  1.0
  Ge  Ge71  1  0.79355217  0.88866983  0.98334610  1.0
  Ge  Ge72  1  0.02156767  0.16065433  0.84653680  1.0
  Ge  Ge73  1  0.02156767  0.49398767  0.84653680  1.0
  Ge  Ge74  1  0.02156767  0.82732100  0.84653680  1.0
  Ge  Ge75  1  0.35490100  0.16065433  0.84653680  1.0
  Ge  Ge76  1  0.35490100  0.49398767  0.84653680  1.0
  Ge  Ge77  1  0.35490100  0.82732100  0.84653680  1.0
  Ge  Ge78  1  0.68823433  0.16065433  0.84653680  1.0
  Ge  Ge79  1  0.68823433  0.49398767  0.84653680  1.0
  Ge  Ge80  1  0.68823433  0.82732100  0.84653680  1.0
  Ge  Ge81  1  0.18823433  0.32732100  0.94653680  1.0
  Ge  Ge82  1  0.18823433  0.66065433  0.94653680  1.0
  Ge  Ge83  1  0.18823433  0.99398767  0.94653680  1.0
  Ge  Ge84  1  0.52156767  0.32732100  0.94653680  1.0
  Ge  Ge85  1  0.52156767  0.66065433  0.94653680  1.0
  Ge  Ge86  1  0.52156767  0.99398767  0.94653680  1.0
  Ge  Ge87  1  0.85490100  0.32732100  0.94653680  1.0
  Ge  Ge88  1  0.85490100  0.66065433  0.94653680  1.0
  Ge  Ge89  1  0.85490100  0.99398767  0.94653680  1.0
  Ge  Ge90  1  0.03978117  0.27799683  0.91665390  1.0
  Ge  Ge91  1  0.03978117  0.61133017  0.91665390  1.0
  Ge  Ge92  1  0.03978117  0.94466350  0.91665390  1.0
  Ge  Ge93  1  0.37311450  0.27799683  0.91665390  1.0
  Ge  Ge94  1  0.37311450  0.61133017  0.91665390  1.0
  Ge  Ge95  1  0.37311450  0.94466350  0.91665390  1.0
  Ge  Ge96  1  0.70644783  0.27799683  0.91665390  1.0
  Ge  Ge97  1  0.70644783  0.61133017  0.91665390  1.0
  Ge  Ge98  1  0.70644783  0.94466350  0.91665390  1.0
  Ge  Ge99  1  0.20644783  0.11133017  0.81665390  1.0
  Ge  Ge100  1  0.20644783  0.44466350  0.81665390  1.0
  Ge  Ge101  1  0.20644783  0.77799683  0.81665390  1.0
  Ge  Ge102  1  0.53978117  0.11133017  0.81665390  1.0
  Ge  Ge103  1  0.53978117  0.44466350  0.81665390  1.0
  Ge  Ge104  1  0.53978117  0.77799683  0.81665390  1.0
  Ge  Ge105  1  0.87311450  0.11133017  0.81665390  1.0
  Ge  Ge106  1  0.87311450  0.44466350  0.81665390  1.0
  Ge  Ge107  1  0.87311450  0.77799683  0.81665390  1.0
  Ge  Ge108  1  0.30904950  0.27428383  0.61457030  1.0
  Ge  Ge109  1  0.30904950  0.60761717  0.61457030  1.0
  Ge  Ge110  1  0.30904950  0.94095050  0.61457030  1.0
  Ge  Ge111  1  0.64238283  0.27428383  0.61457030  1.0
  Ge  Ge112  1  0.64238283  0.60761717  0.61457030  1.0
  Ge  Ge113  1  0.64238283  0.94095050  0.61457030  1.0
  Ge  Ge114  1  0.97571617  0.27428383  0.61457030  1.0
  Ge  Ge115  1  0.97571617  0.60761717  0.61457030  1.0
  Ge  Ge116  1  0.97571617  0.94095050  0.61457030  1.0
  Ge  Ge117  1  0.14238283  0.10761717  0.71457030  1.0
  Ge  Ge118  1  0.14238283  0.44095050  0.71457030  1.0
  Ge  Ge119  1  0.14238283  0.77428383  0.71457030  1.0
  Ge  Ge120  1  0.47571617  0.10761717  0.71457030  1.0
  Ge  Ge121  1  0.47571617  0.44095050  0.71457030  1.0
  Ge  Ge122  1  0.47571617  0.77428383  0.71457030  1.0
  Ge  Ge123  1  0.80904950  0.10761717  0.71457030  1.0
  Ge  Ge124  1  0.80904950  0.44095050  0.71457030  1.0
  Ge  Ge125  1  0.80904950  0.77428383  0.71457030  1.0
  Ge  Ge126  1  0.02428383  0.05904950  0.78542970  1.0
  Ge  Ge127  1  0.02428383  0.39238283  0.78542970  1.0
  Ge  Ge128  1  0.02428383  0.72571617  0.78542970  1.0
  Ge  Ge129  1  0.35761717  0.05904950  0.78542970  1.0
  Ge  Ge130  1  0.35761717  0.39238283  0.78542970  1.0
  Ge  Ge131  1  0.35761717  0.72571617  0.78542970  1.0
  Ge  Ge132  1  0.69095050  0.05904950  0.78542970  1.0
  Ge  Ge133  1  0.69095050  0.39238283  0.78542970  1.0
  Ge  Ge134  1  0.69095050  0.72571617  0.78542970  1.0
  Ge  Ge135  1  0.19095050  0.22571617  0.68542970  1.0
  Ge  Ge136  1  0.19095050  0.55904950  0.68542970  1.0
  Ge  Ge137  1  0.19095050  0.89238283  0.68542970  1.0
  Ge  Ge138  1  0.52428383  0.22571617  0.68542970  1.0
  Ge  Ge139  1  0.52428383  0.55904950  0.68542970  1.0
  Ge  Ge140  1  0.52428383  0.89238283  0.68542970  1.0
  Ge  Ge141  1  0.85761717  0.22571617  0.68542970  1.0
  Ge  Ge142  1  0.85761717  0.55904950  0.68542970  1.0
  Ge  Ge143  1  0.85761717  0.89238283  0.68542970  1.0
  Ge  Ge144  1  0.31176567  0.17267900  0.75346320  1.0
  Ge  Ge145  1  0.31176567  0.50601233  0.75346320  1.0
  Ge  Ge146  1  0.31176567  0.83934567  0.75346320  1.0
  Ge  Ge147  1  0.64509900  0.17267900  0.75346320  1.0
  Ge  Ge148  1  0.64509900  0.50601233  0.75346320  1.0
  Ge  Ge149  1  0.64509900  0.83934567  0.75346320  1.0
  Ge  Ge150  1  0.97843233  0.17267900  0.75346320  1.0
  Ge  Ge151  1  0.97843233  0.50601233  0.75346320  1.0
  Ge  Ge152  1  0.97843233  0.83934567  0.75346320  1.0
  Ge  Ge153  1  0.14509900  0.00601233  0.65346320  1.0
  Ge  Ge154  1  0.14509900  0.33934567  0.65346320  1.0
  Ge  Ge155  1  0.14509900  0.67267900  0.65346320  1.0
  Ge  Ge156  1  0.47843233  0.00601233  0.65346320  1.0
  Ge  Ge157  1  0.47843233  0.33934567  0.65346320  1.0
  Ge  Ge158  1  0.47843233  0.67267900  0.65346320  1.0
  Ge  Ge159  1  0.81176567  0.00601233  0.65346320  1.0
  Ge  Ge160  1  0.81176567  0.33934567  0.65346320  1.0
  Ge  Ge161  1  0.81176567  0.67267900  0.65346320  1.0
  Ge  Ge162  1  0.29355217  0.05533650  0.68334610  1.0
  Ge  Ge163  1  0.29355217  0.38866983  0.68334610  1.0
  Ge  Ge164  1  0.29355217  0.72200317  0.68334610  1.0
  Ge  Ge165  1  0.62688550  0.05533650  0.68334610  1.0
  Ge  Ge166  1  0.62688550  0.38866983  0.68334610  1.0
  Ge  Ge167  1  0.62688550  0.72200317  0.68334610  1.0
  Ge  Ge168  1  0.96021883  0.05533650  0.68334610  1.0
  Ge  Ge169  1  0.96021883  0.38866983  0.68334610  1.0
  Ge  Ge170  1  0.96021883  0.72200317  0.68334610  1.0
  Ge  Ge171  1  0.12688550  0.22200317  0.78334610  1.0
  Ge  Ge172  1  0.12688550  0.55533650  0.78334610  1.0
  Ge  Ge173  1  0.12688550  0.88866983  0.78334610  1.0
  Ge  Ge174  1  0.46021883  0.22200317  0.78334610  1.0
  Ge  Ge175  1  0.46021883  0.55533650  0.78334610  1.0
  Ge  Ge176  1  0.46021883  0.88866983  0.78334610  1.0
  Ge  Ge177  1  0.79355217  0.22200317  0.78334610  1.0
  Ge  Ge178  1  0.79355217  0.55533650  0.78334610  1.0
  Ge  Ge179  1  0.79355217  0.88866983  0.78334610  1.0
  Ge  Ge180  1  0.02156767  0.16065433  0.64653680  1.0
  Ge  Ge181  1  0.02156767  0.49398767  0.64653680  1.0
  Ge  Ge182  1  0.02156767  0.82732100  0.64653680  1.0
  Ge  Ge183  1  0.35490100  0.16065433  0.64653680  1.0
  Ge  Ge184  1  0.35490100  0.49398767  0.64653680  1.0
  Ge  Ge185  1  0.35490100  0.82732100  0.64653680  1.0
  Ge  Ge186  1  0.68823433  0.16065433  0.64653680  1.0
  Ge  Ge187  1  0.68823433  0.49398767  0.64653680  1.0
  Ge  Ge188  1  0.68823433  0.82732100  0.64653680  1.0
  Ge  Ge189  1  0.18823433  0.32732100  0.74653680  1.0
  Ge  Ge190  1  0.18823433  0.66065433  0.74653680  1.0
  Ge  Ge191  1  0.18823433  0.99398767  0.74653680  1.0
  Ge  Ge192  1  0.52156767  0.32732100  0.74653680  1.0
  Ge  Ge193  1  0.52156767  0.66065433  0.74653680  1.0
  Ge  Ge194  1  0.52156767  0.99398767  0.74653680  1.0
  Ge  Ge195  1  0.85490100  0.32732100  0.74653680  1.0
  Ge  Ge196  1  0.85490100  0.66065433  0.74653680  1.0
  Ge  Ge197  1  0.85490100  0.99398767  0.74653680  1.0
  Ge  Ge198  1  0.03978117  0.27799683  0.71665390  1.0
  Ge  Ge199  1  0.03978117  0.61133017  0.71665390  1.0
  Ge  Ge200  1  0.03978117  0.94466350  0.71665390  1.0
  Ge  Ge201  1  0.37311450  0.27799683  0.71665390  1.0
  Ge  Ge202  1  0.37311450  0.61133017  0.71665390  1.0
  Ge  Ge203  1  0.37311450  0.94466350  0.71665390  1.0
  Ge  Ge204  1  0.70644783  0.27799683  0.71665390  1.0
  Ge  Ge205  1  0.70644783  0.61133017  0.71665390  1.0
  Ge  Ge206  1  0.70644783  0.94466350  0.71665390  1.0
  Ge  Ge207  1  0.20644783  0.11133017  0.61665390  1.0
  Ge  Ge208  1  0.20644783  0.44466350  0.61665390  1.0
  Ge  Ge209  1  0.20644783  0.77799683  0.61665390  1.0
  Ge  Ge210  1  0.53978117  0.11133017  0.61665390  1.0
  Ge  Ge211  1  0.53978117  0.44466350  0.61665390  1.0
  Ge  Ge212  1  0.53978117  0.77799683  0.61665390  1.0
  Ge  Ge213  1  0.87311450  0.11133017  0.61665390  1.0
  Ge  Ge214  1  0.87311450  0.44466350  0.61665390  1.0
  Ge  Ge215  1  0.87311450  0.77799683  0.61665390  1.0
  Ni  Ni216  1  0.24567067  0.13605933  0.88168280  1.0
  Ni  Ni217  1  0.24567067  0.46939267  0.88168280  1.0
  Ni  Ni218  1  0.24567067  0.80272600  0.88168280  1.0
  Ni  Ni219  1  0.57900400  0.13605933  0.88168280  1.0
  Ni  Ni220  1  0.57900400  0.46939267  0.88168280  1.0
  Ni  Ni221  1  0.57900400  0.80272600  0.88168280  1.0
  Ni  Ni222  1  0.91233733  0.13605933  0.88168280  1.0
  Ni  Ni223  1  0.91233733  0.46939267  0.88168280  1.0
  Ni  Ni224  1  0.91233733  0.80272600  0.88168280  1.0
  Ni  Ni225  1  0.07900400  0.30272600  0.98168280  1.0
  Ni  Ni226  1  0.07900400  0.63605933  0.98168280  1.0
  Ni  Ni227  1  0.07900400  0.96939267  0.98168280  1.0
  Ni  Ni228  1  0.41233733  0.30272600  0.98168280  1.0
  Ni  Ni229  1  0.41233733  0.63605933  0.98168280  1.0
  Ni  Ni230  1  0.41233733  0.96939267  0.98168280  1.0
  Ni  Ni231  1  0.74567067  0.30272600  0.98168280  1.0
  Ni  Ni232  1  0.74567067  0.63605933  0.98168280  1.0
  Ni  Ni233  1  0.74567067  0.96939267  0.98168280  1.0
  Ni  Ni234  1  0.25636967  0.19523367  0.81709300  1.0
  Ni  Ni235  1  0.25636967  0.52856700  0.81709300  1.0
  Ni  Ni236  1  0.25636967  0.86190033  0.81709300  1.0
  Ni  Ni237  1  0.58970300  0.19523367  0.81709300  1.0
  Ni  Ni238  1  0.58970300  0.52856700  0.81709300  1.0
  Ni  Ni239  1  0.58970300  0.86190033  0.81709300  1.0
  Ni  Ni240  1  0.92303633  0.19523367  0.81709300  1.0
  Ni  Ni241  1  0.92303633  0.52856700  0.81709300  1.0
  Ni  Ni242  1  0.92303633  0.86190033  0.81709300  1.0
  Ni  Ni243  1  0.08970300  0.02856700  0.91709300  1.0
  Ni  Ni244  1  0.08970300  0.36190033  0.91709300  1.0
  Ni  Ni245  1  0.08970300  0.69523367  0.91709300  1.0
  Ni  Ni246  1  0.42303633  0.02856700  0.91709300  1.0
  Ni  Ni247  1  0.42303633  0.36190033  0.91709300  1.0
  Ni  Ni248  1  0.42303633  0.69523367  0.91709300  1.0
  Ni  Ni249  1  0.75636967  0.02856700  0.91709300  1.0
  Ni  Ni250  1  0.75636967  0.36190033  0.91709300  1.0
  Ni  Ni251  1  0.75636967  0.69523367  0.91709300  1.0
  Ni  Ni252  1  0.08766267  0.19727400  0.91831720  1.0
  Ni  Ni253  1  0.08766267  0.53060733  0.91831720  1.0
  Ni  Ni254  1  0.08766267  0.86394067  0.91831720  1.0
  Ni  Ni255  1  0.42099600  0.19727400  0.91831720  1.0
  Ni  Ni256  1  0.42099600  0.53060733  0.91831720  1.0
  Ni  Ni257  1  0.42099600  0.86394067  0.91831720  1.0
  Ni  Ni258  1  0.75432933  0.19727400  0.91831720  1.0
  Ni  Ni259  1  0.75432933  0.53060733  0.91831720  1.0
  Ni  Ni260  1  0.75432933  0.86394067  0.91831720  1.0
  Ni  Ni261  1  0.25432933  0.03060733  0.81831720  1.0
  Ni  Ni262  1  0.25432933  0.36394067  0.81831720  1.0
  Ni  Ni263  1  0.25432933  0.69727400  0.81831720  1.0
  Ni  Ni264  1  0.58766267  0.03060733  0.81831720  1.0
  Ni  Ni265  1  0.58766267  0.36394067  0.81831720  1.0
  Ni  Ni266  1  0.58766267  0.69727400  0.81831720  1.0
  Ni  Ni267  1  0.92099600  0.03060733  0.81831720  1.0
  Ni  Ni268  1  0.92099600  0.36394067  0.81831720  1.0
  Ni  Ni269  1  0.92099600  0.69727400  0.81831720  1.0
  Ni  Ni270  1  0.07696367  0.13809967  0.98290700  1.0
  Ni  Ni271  1  0.07696367  0.47143300  0.98290700  1.0
  Ni  Ni272  1  0.07696367  0.80476633  0.98290700  1.0
  Ni  Ni273  1  0.41029700  0.13809967  0.98290700  1.0
  Ni  Ni274  1  0.41029700  0.47143300  0.98290700  1.0
  Ni  Ni275  1  0.41029700  0.80476633  0.98290700  1.0
  Ni  Ni276  1  0.74363033  0.13809967  0.98290700  1.0
  Ni  Ni277  1  0.74363033  0.47143300  0.98290700  1.0
  Ni  Ni278  1  0.74363033  0.80476633  0.98290700  1.0
  Ni  Ni279  1  0.24363033  0.30476633  0.88290700  1.0
  Ni  Ni280  1  0.24363033  0.63809967  0.88290700  1.0
  Ni  Ni281  1  0.24363033  0.97143300  0.88290700  1.0
  Ni  Ni282  1  0.57696367  0.30476633  0.88290700  1.0
  Ni  Ni283  1  0.57696367  0.63809967  0.88290700  1.0
  Ni  Ni284  1  0.57696367  0.97143300  0.88290700  1.0
  Ni  Ni285  1  0.91029700  0.30476633  0.88290700  1.0
  Ni  Ni286  1  0.91029700  0.63809967  0.88290700  1.0
  Ni  Ni287  1  0.91029700  0.97143300  0.88290700  1.0
  Ni  Ni288  1  0.25000000  0.25000000  0.95000000  1.0
  Ni  Ni289  1  0.25000000  0.58333333  0.95000000  1.0
  Ni  Ni290  1  0.25000000  0.91666667  0.95000000  1.0
  Ni  Ni291  1  0.58333333  0.25000000  0.95000000  1.0
  Ni  Ni292  1  0.58333333  0.58333333  0.95000000  1.0
  Ni  Ni293  1  0.58333333  0.91666667  0.95000000  1.0
  Ni  Ni294  1  0.91666667  0.25000000  0.95000000  1.0
  Ni  Ni295  1  0.91666667  0.58333333  0.95000000  1.0
  Ni  Ni296  1  0.91666667  0.91666667  0.95000000  1.0
  Ni  Ni297  1  0.08333333  0.08333333  0.85000000  1.0
  Ni  Ni298  1  0.08333333  0.41666667  0.85000000  1.0
  Ni  Ni299  1  0.08333333  0.75000000  0.85000000  1.0
  Ni  Ni300  1  0.41666667  0.08333333  0.85000000  1.0
  Ni  Ni301  1  0.41666667  0.41666667  0.85000000  1.0
  Ni  Ni302  1  0.41666667  0.75000000  0.85000000  1.0
  Ni  Ni303  1  0.75000000  0.08333333  0.85000000  1.0
  Ni  Ni304  1  0.75000000  0.41666667  0.85000000  1.0
  Ni  Ni305  1  0.75000000  0.75000000  0.85000000  1.0
  Ni  Ni306  1  0.08333333  0.25000000  0.85000000  1.0
  Ni  Ni307  1  0.08333333  0.58333333  0.85000000  1.0
  Ni  Ni308  1  0.08333333  0.91666667  0.85000000  1.0
  Ni  Ni309  1  0.41666667  0.25000000  0.85000000  1.0
  Ni  Ni310  1  0.41666667  0.58333333  0.85000000  1.0
  Ni  Ni311  1  0.41666667  0.91666667  0.85000000  1.0
  Ni  Ni312  1  0.75000000  0.25000000  0.85000000  1.0
  Ni  Ni313  1  0.75000000  0.58333333  0.85000000  1.0
  Ni  Ni314  1  0.75000000  0.91666667  0.85000000  1.0
  Ni  Ni315  1  0.25000000  0.08333333  0.95000000  1.0
  Ni  Ni316  1  0.25000000  0.41666667  0.95000000  1.0
  Ni  Ni317  1  0.25000000  0.75000000  0.95000000  1.0
  Ni  Ni318  1  0.58333333  0.08333333  0.95000000  1.0
  Ni  Ni319  1  0.58333333  0.41666667  0.95000000  1.0
  Ni  Ni320  1  0.58333333  0.75000000  0.95000000  1.0
  Ni  Ni321  1  0.91666667  0.08333333  0.95000000  1.0
  Ni  Ni322  1  0.91666667  0.41666667  0.95000000  1.0
  Ni  Ni323  1  0.91666667  0.75000000  0.95000000  1.0
  Ni  Ni324  1  0.30771367  0.22028067  0.88515640  1.0
  Ni  Ni325  1  0.30771367  0.55361400  0.88515640  1.0
  Ni  Ni326  1  0.30771367  0.88694733  0.88515640  1.0
  Ni  Ni327  1  0.64104700  0.22028067  0.88515640  1.0
  Ni  Ni328  1  0.64104700  0.55361400  0.88515640  1.0
  Ni  Ni329  1  0.64104700  0.88694733  0.88515640  1.0
  Ni  Ni330  1  0.97438033  0.22028067  0.88515640  1.0
  Ni  Ni331  1  0.97438033  0.55361400  0.88515640  1.0
  Ni  Ni332  1  0.97438033  0.88694733  0.88515640  1.0
  Ni  Ni333  1  0.14104700  0.05361400  0.98515640  1.0
  Ni  Ni334  1  0.14104700  0.38694733  0.98515640  1.0
  Ni  Ni335  1  0.14104700  0.72028067  0.98515640  1.0
  Ni  Ni336  1  0.47438033  0.05361400  0.98515640  1.0
  Ni  Ni337  1  0.47438033  0.38694733  0.98515640  1.0
  Ni  Ni338  1  0.47438033  0.72028067  0.98515640  1.0
  Ni  Ni339  1  0.80771367  0.05361400  0.98515640  1.0
  Ni  Ni340  1  0.80771367  0.38694733  0.98515640  1.0
  Ni  Ni341  1  0.80771367  0.72028067  0.98515640  1.0
  Ni  Ni342  1  0.13823217  0.16710683  0.84727610  1.0
  Ni  Ni343  1  0.13823217  0.50044017  0.84727610  1.0
  Ni  Ni344  1  0.13823217  0.83377350  0.84727610  1.0
  Ni  Ni345  1  0.47156550  0.16710683  0.84727610  1.0
  Ni  Ni346  1  0.47156550  0.50044017  0.84727610  1.0
  Ni  Ni347  1  0.47156550  0.83377350  0.84727610  1.0
  Ni  Ni348  1  0.80489883  0.16710683  0.84727610  1.0
  Ni  Ni349  1  0.80489883  0.50044017  0.84727610  1.0
  Ni  Ni350  1  0.80489883  0.83377350  0.84727610  1.0
  Ni  Ni351  1  0.30489883  0.00044017  0.94727610  1.0
  Ni  Ni352  1  0.30489883  0.33377350  0.94727610  1.0
  Ni  Ni353  1  0.30489883  0.66710683  0.94727610  1.0
  Ni  Ni354  1  0.63823217  0.00044017  0.94727610  1.0
  Ni  Ni355  1  0.63823217  0.33377350  0.94727610  1.0
  Ni  Ni356  1  0.63823217  0.66710683  0.94727610  1.0
  Ni  Ni357  1  0.97156550  0.00044017  0.94727610  1.0
  Ni  Ni358  1  0.97156550  0.33377350  0.94727610  1.0
  Ni  Ni359  1  0.97156550  0.66710683  0.94727610  1.0
  Ni  Ni360  1  0.02561967  0.11305267  0.91484360  1.0
  Ni  Ni361  1  0.02561967  0.44638600  0.91484360  1.0
  Ni  Ni362  1  0.02561967  0.77971933  0.91484360  1.0
  Ni  Ni363  1  0.35895300  0.11305267  0.91484360  1.0
  Ni  Ni364  1  0.35895300  0.44638600  0.91484360  1.0
  Ni  Ni365  1  0.35895300  0.77971933  0.91484360  1.0
  Ni  Ni366  1  0.69228633  0.11305267  0.91484360  1.0
  Ni  Ni367  1  0.69228633  0.44638600  0.91484360  1.0
  Ni  Ni368  1  0.69228633  0.77971933  0.91484360  1.0
  Ni  Ni369  1  0.19228633  0.27971933  0.81484360  1.0
  Ni  Ni370  1  0.19228633  0.61305267  0.81484360  1.0
  Ni  Ni371  1  0.19228633  0.94638600  0.81484360  1.0
  Ni  Ni372  1  0.52561967  0.27971933  0.81484360  1.0
  Ni  Ni373  1  0.52561967  0.61305267  0.81484360  1.0
  Ni  Ni374  1  0.52561967  0.94638600  0.81484360  1.0
  Ni  Ni375  1  0.85895300  0.27971933  0.81484360  1.0
  Ni  Ni376  1  0.85895300  0.61305267  0.81484360  1.0
  Ni  Ni377  1  0.85895300  0.94638600  0.81484360  1.0
  Ni  Ni378  1  0.19510117  0.16622650  0.95272390  1.0
  Ni  Ni379  1  0.19510117  0.49955983  0.95272390  1.0
  Ni  Ni380  1  0.19510117  0.83289317  0.95272390  1.0
  Ni  Ni381  1  0.52843450  0.16622650  0.95272390  1.0
  Ni  Ni382  1  0.52843450  0.49955983  0.95272390  1.0
  Ni  Ni383  1  0.52843450  0.83289317  0.95272390  1.0
  Ni  Ni384  1  0.86176783  0.16622650  0.95272390  1.0
  Ni  Ni385  1  0.86176783  0.49955983  0.95272390  1.0
  Ni  Ni386  1  0.86176783  0.83289317  0.95272390  1.0
  Ni  Ni387  1  0.02843450  0.33289317  0.85272390  1.0
  Ni  Ni388  1  0.02843450  0.66622650  0.85272390  1.0
  Ni  Ni389  1  0.02843450  0.99955983  0.85272390  1.0
  Ni  Ni390  1  0.36176783  0.33289317  0.85272390  1.0
  Ni  Ni391  1  0.36176783  0.66622650  0.85272390  1.0
  Ni  Ni392  1  0.36176783  0.99955983  0.85272390  1.0
  Ni  Ni393  1  0.69510117  0.33289317  0.85272390  1.0
  Ni  Ni394  1  0.69510117  0.66622650  0.85272390  1.0
  Ni  Ni395  1  0.69510117  0.99955983  0.85272390  1.0
  Ni  Ni396  1  0.24567067  0.13605933  0.68168280  1.0
  Ni  Ni397  1  0.24567067  0.46939267  0.68168280  1.0
  Ni  Ni398  1  0.24567067  0.80272600  0.68168280  1.0
  Ni  Ni399  1  0.57900400  0.13605933  0.68168280  1.0
  Ni  Ni400  1  0.57900400  0.46939267  0.68168280  1.0
  Ni  Ni401  1  0.57900400  0.80272600  0.68168280  1.0
  Ni  Ni402  1  0.91233733  0.13605933  0.68168280  1.0
  Ni  Ni403  1  0.91233733  0.46939267  0.68168280  1.0
  Ni  Ni404  1  0.91233733  0.80272600  0.68168280  1.0
  Ni  Ni405  1  0.07900400  0.30272600  0.78168280  1.0
  Ni  Ni406  1  0.07900400  0.63605933  0.78168280  1.0
  Ni  Ni407  1  0.07900400  0.96939267  0.78168280  1.0
  Ni  Ni408  1  0.41233733  0.30272600  0.78168280  1.0
  Ni  Ni409  1  0.41233733  0.63605933  0.78168280  1.0
  Ni  Ni410  1  0.41233733  0.96939267  0.78168280  1.0
  Ni  Ni411  1  0.74567067  0.30272600  0.78168280  1.0
  Ni  Ni412  1  0.74567067  0.63605933  0.78168280  1.0
  Ni  Ni413  1  0.74567067  0.96939267  0.78168280  1.0
  Ni  Ni414  1  0.25636967  0.19523367  0.61709300  1.0
  Ni  Ni415  1  0.25636967  0.52856700  0.61709300  1.0
  Ni  Ni416  1  0.25636967  0.86190033  0.61709300  1.0
  Ni  Ni417  1  0.58970300  0.19523367  0.61709300  1.0
  Ni  Ni418  1  0.58970300  0.52856700  0.61709300  1.0
  Ni  Ni419  1  0.58970300  0.86190033  0.61709300  1.0
  Ni  Ni420  1  0.92303633  0.19523367  0.61709300  1.0
  Ni  Ni421  1  0.92303633  0.52856700  0.61709300  1.0
  Ni  Ni422  1  0.92303633  0.86190033  0.61709300  1.0
  Ni  Ni423  1  0.08970300  0.02856700  0.71709300  1.0
  Ni  Ni424  1  0.08970300  0.36190033  0.71709300  1.0
  Ni  Ni425  1  0.08970300  0.69523367  0.71709300  1.0
  Ni  Ni426  1  0.42303633  0.02856700  0.71709300  1.0
  Ni  Ni427  1  0.42303633  0.36190033  0.71709300  1.0
  Ni  Ni428  1  0.42303633  0.69523367  0.71709300  1.0
  Ni  Ni429  1  0.75636967  0.02856700  0.71709300  1.0
  Ni  Ni430  1  0.75636967  0.36190033  0.71709300  1.0
  Ni  Ni431  1  0.75636967  0.69523367  0.71709300  1.0
  Ni  Ni432  1  0.08766267  0.19727400  0.71831720  1.0
  Ni  Ni433  1  0.08766267  0.53060733  0.71831720  1.0
  Ni  Ni434  1  0.08766267  0.86394067  0.71831720  1.0
  Ni  Ni435  1  0.42099600  0.19727400  0.71831720  1.0
  Ni  Ni436  1  0.42099600  0.53060733  0.71831720  1.0
  Ni  Ni437  1  0.42099600  0.86394067  0.71831720  1.0
  Ni  Ni438  1  0.75432933  0.19727400  0.71831720  1.0
  Ni  Ni439  1  0.75432933  0.53060733  0.71831720  1.0
  Ni  Ni440  1  0.75432933  0.86394067  0.71831720  1.0
  Ni  Ni441  1  0.25432933  0.03060733  0.61831720  1.0
  Ni  Ni442  1  0.25432933  0.36394067  0.61831720  1.0
  Ni  Ni443  1  0.25432933  0.69727400  0.61831720  1.0
  Ni  Ni444  1  0.58766267  0.03060733  0.61831720  1.0
  Ni  Ni445  1  0.58766267  0.36394067  0.61831720  1.0
  Ni  Ni446  1  0.58766267  0.69727400  0.61831720  1.0
  Ni  Ni447  1  0.92099600  0.03060733  0.61831720  1.0
  Ni  Ni448  1  0.92099600  0.36394067  0.61831720  1.0
  Ni  Ni449  1  0.92099600  0.69727400  0.61831720  1.0
  Ni  Ni450  1  0.07696367  0.13809967  0.78290700  1.0
  Ni  Ni451  1  0.07696367  0.47143300  0.78290700  1.0
  Ni  Ni452  1  0.07696367  0.80476633  0.78290700  1.0
  Ni  Ni453  1  0.41029700  0.13809967  0.78290700  1.0
  Ni  Ni454  1  0.41029700  0.47143300  0.78290700  1.0
  Ni  Ni455  1  0.41029700  0.80476633  0.78290700  1.0
  Ni  Ni456  1  0.74363033  0.13809967  0.78290700  1.0
  Ni  Ni457  1  0.74363033  0.47143300  0.78290700  1.0
  Ni  Ni458  1  0.74363033  0.80476633  0.78290700  1.0
  Ni  Ni459  1  0.24363033  0.30476633  0.68290700  1.0
  Ni  Ni460  1  0.24363033  0.63809967  0.68290700  1.0
  Ni  Ni461  1  0.24363033  0.97143300  0.68290700  1.0
  Ni  Ni462  1  0.57696367  0.30476633  0.68290700  1.0
  Ni  Ni463  1  0.57696367  0.63809967  0.68290700  1.0
  Ni  Ni464  1  0.57696367  0.97143300  0.68290700  1.0
  Ni  Ni465  1  0.91029700  0.30476633  0.68290700  1.0
  Ni  Ni466  1  0.91029700  0.63809967  0.68290700  1.0
  Ni  Ni467  1  0.91029700  0.97143300  0.68290700  1.0
  Ni  Ni468  1  0.25000000  0.25000000  0.75000000  1.0
  Ni  Ni469  1  0.25000000  0.58333333  0.75000000  1.0
  Ni  Ni470  1  0.25000000  0.91666667  0.75000000  1.0
  Ni  Ni471  1  0.58333333  0.25000000  0.75000000  1.0
  Ni  Ni472  1  0.58333333  0.58333333  0.75000000  1.0
  Ni  Ni473  1  0.58333333  0.91666667  0.75000000  1.0
  Ni  Ni474  1  0.91666667  0.25000000  0.75000000  1.0
  Ni  Ni475  1  0.91666667  0.58333333  0.75000000  1.0
  Ni  Ni476  1  0.91666667  0.91666667  0.75000000  1.0
  Ni  Ni477  1  0.08333333  0.08333333  0.65000000  1.0
  Ni  Ni478  1  0.08333333  0.41666667  0.65000000  1.0
  Ni  Ni479  1  0.08333333  0.75000000  0.65000000  1.0
  Ni  Ni480  1  0.41666667  0.08333333  0.65000000  1.0
  Ni  Ni481  1  0.41666667  0.41666667  0.65000000  1.0
  Ni  Ni482  1  0.41666667  0.75000000  0.65000000  1.0
  Ni  Ni483  1  0.75000000  0.08333333  0.65000000  1.0
  Ni  Ni484  1  0.75000000  0.41666667  0.65000000  1.0
  Ni  Ni485  1  0.75000000  0.75000000  0.65000000  1.0
  Ni  Ni486  1  0.08333333  0.25000000  0.65000000  1.0
  Ni  Ni487  1  0.08333333  0.58333333  0.65000000  1.0
  Ni  Ni488  1  0.08333333  0.91666667  0.65000000  1.0
  Ni  Ni489  1  0.41666667  0.25000000  0.65000000  1.0
  Ni  Ni490  1  0.41666667  0.58333333  0.65000000  1.0
  Ni  Ni491  1  0.41666667  0.91666667  0.65000000  1.0
  Ni  Ni492  1  0.75000000  0.25000000  0.65000000  1.0
  Ni  Ni493  1  0.75000000  0.58333333  0.65000000  1.0
  Ni  Ni494  1  0.75000000  0.91666667  0.65000000  1.0
  Ni  Ni495  1  0.25000000  0.08333333  0.75000000  1.0
  Ni  Ni496  1  0.25000000  0.41666667  0.75000000  1.0
  Ni  Ni497  1  0.25000000  0.75000000  0.75000000  1.0
  Ni  Ni498  1  0.58333333  0.08333333  0.75000000  1.0
  Ni  Ni499  1  0.58333333  0.41666667  0.75000000  1.0
  Ni  Ni500  1  0.58333333  0.75000000  0.75000000  1.0
  Ni  Ni501  1  0.91666667  0.08333333  0.75000000  1.0
  Ni  Ni502  1  0.91666667  0.41666667  0.75000000  1.0
  Ni  Ni503  1  0.91666667  0.75000000  0.75000000  1.0
  Ni  Ni504  1  0.30771367  0.22028067  0.68515640  1.0
  Ni  Ni505  1  0.30771367  0.55361400  0.68515640  1.0
  Ni  Ni506  1  0.30771367  0.88694733  0.68515640  1.0
  Ni  Ni507  1  0.64104700  0.22028067  0.68515640  1.0
  Ni  Ni508  1  0.64104700  0.55361400  0.68515640  1.0
  Ni  Ni509  1  0.64104700  0.88694733  0.68515640  1.0
  Ni  Ni510  1  0.97438033  0.22028067  0.68515640  1.0
  Ni  Ni511  1  0.97438033  0.55361400  0.68515640  1.0
  Ni  Ni512  1  0.97438033  0.88694733  0.68515640  1.0
  Ni  Ni513  1  0.14104700  0.05361400  0.78515640  1.0
  Ni  Ni514  1  0.14104700  0.38694733  0.78515640  1.0
  Ni  Ni515  1  0.14104700  0.72028067  0.78515640  1.0
  Ni  Ni516  1  0.47438033  0.05361400  0.78515640  1.0
  Ni  Ni517  1  0.47438033  0.38694733  0.78515640  1.0
  Ni  Ni518  1  0.47438033  0.72028067  0.78515640  1.0
  Ni  Ni519  1  0.80771367  0.05361400  0.78515640  1.0
  Ni  Ni520  1  0.80771367  0.38694733  0.78515640  1.0
  Ni  Ni521  1  0.80771367  0.72028067  0.78515640  1.0
  Ni  Ni522  1  0.13823217  0.16710683  0.64727610  1.0
  Ni  Ni523  1  0.13823217  0.50044017  0.64727610  1.0
  Ni  Ni524  1  0.13823217  0.83377350  0.64727610  1.0
  Ni  Ni525  1  0.47156550  0.16710683  0.64727610  1.0
  Ni  Ni526  1  0.47156550  0.50044017  0.64727610  1.0
  Ni  Ni527  1  0.47156550  0.83377350  0.64727610  1.0
  Ni  Ni528  1  0.80489883  0.16710683  0.64727610  1.0
  Ni  Ni529  1  0.80489883  0.50044017  0.64727610  1.0
  Ni  Ni530  1  0.80489883  0.83377350  0.64727610  1.0
  Ni  Ni531  1  0.30489883  0.00044017  0.74727610  1.0
  Ni  Ni532  1  0.30489883  0.33377350  0.74727610  1.0
  Ni  Ni533  1  0.30489883  0.66710683  0.74727610  1.0
  Ni  Ni534  1  0.63823217  0.00044017  0.74727610  1.0
  Ni  Ni535  1  0.63823217  0.33377350  0.74727610  1.0
  Ni  Ni536  1  0.63823217  0.66710683  0.74727610  1.0
  Ni  Ni537  1  0.97156550  0.00044017  0.74727610  1.0
  Ni  Ni538  1  0.97156550  0.33377350  0.74727610  1.0
  Ni  Ni539  1  0.97156550  0.66710683  0.74727610  1.0
  Ni  Ni540  1  0.02561967  0.11305267  0.71484360  1.0
  Ni  Ni541  1  0.02561967  0.44638600  0.71484360  1.0
  Ni  Ni542  1  0.02561967  0.77971933  0.71484360  1.0
  Ni  Ni543  1  0.35895300  0.11305267  0.71484360  1.0
  Ni  Ni544  1  0.35895300  0.44638600  0.71484360  1.0
  Ni  Ni545  1  0.35895300  0.77971933  0.71484360  1.0
  Ni  Ni546  1  0.69228633  0.11305267  0.71484360  1.0
  Ni  Ni547  1  0.69228633  0.44638600  0.71484360  1.0
  Ni  Ni548  1  0.69228633  0.77971933  0.71484360  1.0
  Ni  Ni549  1  0.19228633  0.27971933  0.61484360  1.0
  Ni  Ni550  1  0.19228633  0.61305267  0.61484360  1.0
  Ni  Ni551  1  0.19228633  0.94638600  0.61484360  1.0
  Ni  Ni552  1  0.52561967  0.27971933  0.61484360  1.0
  Ni  Ni553  1  0.52561967  0.61305267  0.61484360  1.0
  Ni  Ni554  1  0.52561967  0.94638600  0.61484360  1.0
  Ni  Ni555  1  0.85895300  0.27971933  0.61484360  1.0
  Ni  Ni556  1  0.85895300  0.61305267  0.61484360  1.0
  Ni  Ni557  1  0.85895300  0.94638600  0.61484360  1.0
  Ni  Ni558  1  0.19510117  0.16622650  0.75272390  1.0
  Ni  Ni559  1  0.19510117  0.49955983  0.75272390  1.0
  Ni  Ni560  1  0.19510117  0.83289317  0.75272390  1.0
  Ni  Ni561  1  0.52843450  0.16622650  0.75272390  1.0
  Ni  Ni562  1  0.52843450  0.49955983  0.75272390  1.0
  Ni  Ni563  1  0.52843450  0.83289317  0.75272390  1.0
  Ni  Ni564  1  0.86176783  0.16622650  0.75272390  1.0
  Ni  Ni565  1  0.86176783  0.49955983  0.75272390  1.0
  Ni  Ni566  1  0.86176783  0.83289317  0.75272390  1.0
  Ni  Ni567  1  0.02843450  0.33289317  0.65272390  1.0
  Ni  Ni568  1  0.02843450  0.66622650  0.65272390  1.0
  Ni  Ni569  1  0.02843450  0.99955983  0.65272390  1.0
  Ni  Ni570  1  0.36176783  0.33289317  0.65272390  1.0
  Ni  Ni571  1  0.36176783  0.66622650  0.65272390  1.0
  Ni  Ni572  1  0.36176783  0.99955983  0.65272390  1.0
  Ni  Ni573  1  0.69510117  0.33289317  0.65272390  1.0
  Ni  Ni574  1  0.69510117  0.66622650  0.65272390  1.0
  Ni  Ni575  1  0.69510117  0.99955983  0.65272390  1.0
