# generated using pymatgen
data_Ni5Ge3
_symmetry_space_group_name_H-M   'P 1'
_cell_length_a   32.45969398
_cell_length_b   32.34374652
_cell_length_c   63.49250510
_cell_angle_alpha   32.09168545
_cell_angle_beta   59.02120847
_cell_angle_gamma   36.39749526
_symmetry_Int_Tables_number   1
_chemical_formula_structural   Ni5Ge3
_chemical_formula_sum   'Ni360 Ge216'
_cell_volume   17814.82589475
_cell_formula_units_Z   72
loop_
 _symmetry_equiv_pos_site_id
 _symmetry_equiv_pos_as_xyz
  1  'x, y, z'
loop_
 _atom_site_type_symbol
 _atom_site_label
 _atom_site_symmetry_multiplicity
 _atom_site_fract_x
 _atom_site_fract_y
 _atom_site_fract_z
 _atom_site_occupancy
  Ni  Ni0  1  0.10961133  0.16258600  0.03244315  1.0
  Ni  Ni1  1  0.10961133  0.49591933  0.03244315  1.0
  Ni  Ni2  1  0.10961133  0.82925267  0.03244315  1.0
  Ni  Ni3  1  0.44294467  0.16258600  0.03244315  1.0
  Ni  Ni4  1  0.44294467  0.49591933  0.03244315  1.0
  Ni  Ni5  1  0.44294467  0.82925267  0.03244315  1.0
  Ni  Ni6  1  0.77627800  0.16258600  0.03244315  1.0
  Ni  Ni7  1  0.77627800  0.49591933  0.03244315  1.0
  Ni  Ni8  1  0.77627800  0.82925267  0.03244315  1.0
  Ni  Ni9  1  0.06113600  0.16258600  0.01148115  1.0
  Ni  Ni10  1  0.06113600  0.49591933  0.01148115  1.0
  Ni  Ni11  1  0.06113600  0.82925267  0.01148115  1.0
  Ni  Ni12  1  0.39446933  0.16258600  0.01148115  1.0
  Ni  Ni13  1  0.39446933  0.49591933  0.01148115  1.0
  Ni  Ni14  1  0.39446933  0.82925267  0.01148115  1.0
  Ni  Ni15  1  0.72780267  0.16258600  0.01148115  1.0
  Ni  Ni16  1  0.72780267  0.49591933  0.01148115  1.0
  Ni  Ni17  1  0.72780267  0.82925267  0.01148115  1.0
  Ni  Ni18  1  0.22372200  0.17074733  0.05903275  1.0
  Ni  Ni19  1  0.22372200  0.50408067  0.05903275  1.0
  Ni  Ni20  1  0.22372200  0.83741400  0.05903275  1.0
  Ni  Ni21  1  0.55705533  0.17074733  0.05903275  1.0
  Ni  Ni22  1  0.55705533  0.50408067  0.05903275  1.0
  Ni  Ni23  1  0.55705533  0.83741400  0.05903275  1.0
  Ni  Ni24  1  0.89038867  0.17074733  0.05903275  1.0
  Ni  Ni25  1  0.89038867  0.50408067  0.05903275  1.0
  Ni  Ni26  1  0.89038867  0.83741400  0.05903275  1.0
  Ni  Ni27  1  0.27219733  0.17074733  0.07999475  1.0
  Ni  Ni28  1  0.27219733  0.50408067  0.07999475  1.0
  Ni  Ni29  1  0.27219733  0.83741400  0.07999475  1.0
  Ni  Ni30  1  0.60553067  0.17074733  0.07999475  1.0
  Ni  Ni31  1  0.60553067  0.50408067  0.07999475  1.0
  Ni  Ni32  1  0.60553067  0.83741400  0.07999475  1.0
  Ni  Ni33  1  0.93886400  0.17074733  0.07999475  1.0
  Ni  Ni34  1  0.93886400  0.50408067  0.07999475  1.0
  Ni  Ni35  1  0.93886400  0.83741400  0.07999475  1.0
  Ni  Ni36  1  0.00000000  0.16666667  0.09573795  1.0
  Ni  Ni37  1  0.00000000  0.50000000  0.09573795  1.0
  Ni  Ni38  1  0.00000000  0.83333333  0.09573795  1.0
  Ni  Ni39  1  0.33333333  0.16666667  0.09573795  1.0
  Ni  Ni40  1  0.33333333  0.50000000  0.09573795  1.0
  Ni  Ni41  1  0.33333333  0.83333333  0.09573795  1.0
  Ni  Ni42  1  0.66666667  0.16666667  0.09573795  1.0
  Ni  Ni43  1  0.66666667  0.50000000  0.09573795  1.0
  Ni  Ni44  1  0.66666667  0.83333333  0.09573795  1.0
  Ni  Ni45  1  0.16666667  0.16666667  0.04573795  1.0
  Ni  Ni46  1  0.16666667  0.50000000  0.04573795  1.0
  Ni  Ni47  1  0.16666667  0.83333333  0.04573795  1.0
  Ni  Ni48  1  0.50000000  0.16666667  0.04573795  1.0
  Ni  Ni49  1  0.50000000  0.50000000  0.04573795  1.0
  Ni  Ni50  1  0.50000000  0.83333333  0.04573795  1.0
  Ni  Ni51  1  0.83333333  0.16666667  0.04573795  1.0
  Ni  Ni52  1  0.83333333  0.50000000  0.04573795  1.0
  Ni  Ni53  1  0.83333333  0.83333333  0.04573795  1.0
  Ni  Ni54  1  0.08743300  0.27477500  0.05490715  1.0
  Ni  Ni55  1  0.08743300  0.60810833  0.05490715  1.0
  Ni  Ni56  1  0.08743300  0.94144167  0.05490715  1.0
  Ni  Ni57  1  0.42076633  0.27477500  0.05490715  1.0
  Ni  Ni58  1  0.42076633  0.60810833  0.05490715  1.0
  Ni  Ni59  1  0.42076633  0.94144167  0.05490715  1.0
  Ni  Ni60  1  0.75409967  0.27477500  0.05490715  1.0
  Ni  Ni61  1  0.75409967  0.60810833  0.05490715  1.0
  Ni  Ni62  1  0.75409967  0.94144167  0.05490715  1.0
  Ni  Ni63  1  0.30445867  0.27477500  0.02170375  1.0
  Ni  Ni64  1  0.30445867  0.60810833  0.02170375  1.0
  Ni  Ni65  1  0.30445867  0.94144167  0.02170375  1.0
  Ni  Ni66  1  0.63779200  0.27477500  0.02170375  1.0
  Ni  Ni67  1  0.63779200  0.60810833  0.02170375  1.0
  Ni  Ni68  1  0.63779200  0.94144167  0.02170375  1.0
  Ni  Ni69  1  0.97112533  0.27477500  0.02170375  1.0
  Ni  Ni70  1  0.97112533  0.60810833  0.02170375  1.0
  Ni  Ni71  1  0.97112533  0.94144167  0.02170375  1.0
  Ni  Ni72  1  0.24590033  0.05855833  0.03656875  1.0
  Ni  Ni73  1  0.24590033  0.39189167  0.03656875  1.0
  Ni  Ni74  1  0.24590033  0.72522500  0.03656875  1.0
  Ni  Ni75  1  0.57923367  0.05855833  0.03656875  1.0
  Ni  Ni76  1  0.57923367  0.39189167  0.03656875  1.0
  Ni  Ni77  1  0.57923367  0.72522500  0.03656875  1.0
  Ni  Ni78  1  0.91256700  0.05855833  0.03656875  1.0
  Ni  Ni79  1  0.91256700  0.39189167  0.03656875  1.0
  Ni  Ni80  1  0.91256700  0.72522500  0.03656875  1.0
  Ni  Ni81  1  0.02887467  0.05855833  0.06977215  1.0
  Ni  Ni82  1  0.02887467  0.39189167  0.06977215  1.0
  Ni  Ni83  1  0.02887467  0.72522500  0.06977215  1.0
  Ni  Ni84  1  0.36220800  0.05855833  0.06977215  1.0
  Ni  Ni85  1  0.36220800  0.39189167  0.06977215  1.0
  Ni  Ni86  1  0.36220800  0.72522500  0.06977215  1.0
  Ni  Ni87  1  0.69554133  0.05855833  0.06977215  1.0
  Ni  Ni88  1  0.69554133  0.39189167  0.06977215  1.0
  Ni  Ni89  1  0.69554133  0.72522500  0.06977215  1.0
  Ge  Ge90  1  0.03476567  0.26380200  0.04159735  1.0
  Ge  Ge91  1  0.03476567  0.59713533  0.04159735  1.0
  Ge  Ge92  1  0.03476567  0.93046867  0.04159735  1.0
  Ge  Ge93  1  0.36809900  0.26380200  0.04159735  1.0
  Ge  Ge94  1  0.36809900  0.59713533  0.04159735  1.0
  Ge  Ge95  1  0.36809900  0.93046867  0.04159735  1.0
  Ge  Ge96  1  0.70143233  0.26380200  0.04159735  1.0
  Ge  Ge97  1  0.70143233  0.59713533  0.04159735  1.0
  Ge  Ge98  1  0.70143233  0.93046867  0.04159735  1.0
  Ge  Ge99  1  0.29856767  0.06953133  0.04987855  1.0
  Ge  Ge100  1  0.29856767  0.40286467  0.04987855  1.0
  Ge  Ge101  1  0.29856767  0.73619800  0.04987855  1.0
  Ge  Ge102  1  0.63190100  0.06953133  0.04987855  1.0
  Ge  Ge103  1  0.63190100  0.40286467  0.04987855  1.0
  Ge  Ge104  1  0.63190100  0.73619800  0.04987855  1.0
  Ge  Ge105  1  0.96523433  0.06953133  0.04987855  1.0
  Ge  Ge106  1  0.96523433  0.40286467  0.04987855  1.0
  Ge  Ge107  1  0.96523433  0.73619800  0.04987855  1.0
  Ge  Ge108  1  0.13908667  0.28936433  0.06359525  1.0
  Ge  Ge109  1  0.13908667  0.62269767  0.06359525  1.0
  Ge  Ge110  1  0.13908667  0.95603100  0.06359525  1.0
  Ge  Ge111  1  0.47242000  0.28936433  0.06359525  1.0
  Ge  Ge112  1  0.47242000  0.62269767  0.06359525  1.0
  Ge  Ge113  1  0.47242000  0.95603100  0.06359525  1.0
  Ge  Ge114  1  0.80575333  0.28936433  0.06359525  1.0
  Ge  Ge115  1  0.80575333  0.62269767  0.06359525  1.0
  Ge  Ge116  1  0.80575333  0.95603100  0.06359525  1.0
  Ge  Ge117  1  0.23821567  0.28936433  0.00426205  1.0
  Ge  Ge118  1  0.23821567  0.62269767  0.00426205  1.0
  Ge  Ge119  1  0.23821567  0.95603100  0.00426205  1.0
  Ge  Ge120  1  0.57154900  0.28936433  0.00426205  1.0
  Ge  Ge121  1  0.57154900  0.62269767  0.00426205  1.0
  Ge  Ge122  1  0.57154900  0.95603100  0.00426205  1.0
  Ge  Ge123  1  0.90488233  0.28936433  0.00426205  1.0
  Ge  Ge124  1  0.90488233  0.62269767  0.00426205  1.0
  Ge  Ge125  1  0.90488233  0.95603100  0.00426205  1.0
  Ge  Ge126  1  0.19424667  0.04396900  0.02788065  1.0
  Ge  Ge127  1  0.19424667  0.37730233  0.02788065  1.0
  Ge  Ge128  1  0.19424667  0.71063567  0.02788065  1.0
  Ge  Ge129  1  0.52758000  0.04396900  0.02788065  1.0
  Ge  Ge130  1  0.52758000  0.37730233  0.02788065  1.0
  Ge  Ge131  1  0.52758000  0.71063567  0.02788065  1.0
  Ge  Ge132  1  0.86091333  0.04396900  0.02788065  1.0
  Ge  Ge133  1  0.86091333  0.37730233  0.02788065  1.0
  Ge  Ge134  1  0.86091333  0.71063567  0.02788065  1.0
  Ge  Ge135  1  0.09511767  0.04396900  0.08721385  1.0
  Ge  Ge136  1  0.09511767  0.37730233  0.08721385  1.0
  Ge  Ge137  1  0.09511767  0.71063567  0.08721385  1.0
  Ge  Ge138  1  0.42845100  0.04396900  0.08721385  1.0
  Ge  Ge139  1  0.42845100  0.37730233  0.08721385  1.0
  Ge  Ge140  1  0.42845100  0.71063567  0.08721385  1.0
  Ge  Ge141  1  0.76178433  0.04396900  0.08721385  1.0
  Ge  Ge142  1  0.76178433  0.37730233  0.08721385  1.0
  Ge  Ge143  1  0.76178433  0.71063567  0.08721385  1.0
  Ni  Ni144  1  0.10961133  0.16258600  0.13244315  1.0
  Ni  Ni145  1  0.10961133  0.49591933  0.13244315  1.0
  Ni  Ni146  1  0.10961133  0.82925267  0.13244315  1.0
  Ni  Ni147  1  0.44294467  0.16258600  0.13244315  1.0
  Ni  Ni148  1  0.44294467  0.49591933  0.13244315  1.0
  Ni  Ni149  1  0.44294467  0.82925267  0.13244315  1.0
  Ni  Ni150  1  0.77627800  0.16258600  0.13244315  1.0
  Ni  Ni151  1  0.77627800  0.49591933  0.13244315  1.0
  Ni  Ni152  1  0.77627800  0.82925267  0.13244315  1.0
  Ni  Ni153  1  0.06113600  0.16258600  0.11148115  1.0
  Ni  Ni154  1  0.06113600  0.49591933  0.11148115  1.0
  Ni  Ni155  1  0.06113600  0.82925267  0.11148115  1.0
  Ni  Ni156  1  0.39446933  0.16258600  0.11148115  1.0
  Ni  Ni157  1  0.39446933  0.49591933  0.11148115  1.0
  Ni  Ni158  1  0.39446933  0.82925267  0.11148115  1.0
  Ni  Ni159  1  0.72780267  0.16258600  0.11148115  1.0
  Ni  Ni160  1  0.72780267  0.49591933  0.11148115  1.0
  Ni  Ni161  1  0.72780267  0.82925267  0.11148115  1.0
  Ni  Ni162  1  0.22372200  0.17074733  0.15903275  1.0
  Ni  Ni163  1  0.22372200  0.50408067  0.15903275  1.0
  Ni  Ni164  1  0.22372200  0.83741400  0.15903275  1.0
  Ni  Ni165  1  0.55705533  0.17074733  0.15903275  1.0
  Ni  Ni166  1  0.55705533  0.50408067  0.15903275  1.0
  Ni  Ni167  1  0.55705533  0.83741400  0.15903275  1.0
  Ni  Ni168  1  0.89038867  0.17074733  0.15903275  1.0
  Ni  Ni169  1  0.89038867  0.50408067  0.15903275  1.0
  Ni  Ni170  1  0.89038867  0.83741400  0.15903275  1.0
  Ni  Ni171  1  0.27219733  0.17074733  0.17999475  1.0
  Ni  Ni172  1  0.27219733  0.50408067  0.17999475  1.0
  Ni  Ni173  1  0.27219733  0.83741400  0.17999475  1.0
  Ni  Ni174  1  0.60553067  0.17074733  0.17999475  1.0
  Ni  Ni175  1  0.60553067  0.50408067  0.17999475  1.0
  Ni  Ni176  1  0.60553067  0.83741400  0.17999475  1.0
  Ni  Ni177  1  0.93886400  0.17074733  0.17999475  1.0
  Ni  Ni178  1  0.93886400  0.50408067  0.17999475  1.0
  Ni  Ni179  1  0.93886400  0.83741400  0.17999475  1.0
  Ni  Ni180  1  0.00000000  0.16666667  0.19573795  1.0
  Ni  Ni181  1  0.00000000  0.50000000  0.19573795  1.0
  Ni  Ni182  1  0.00000000  0.83333333  0.19573795  1.0
  Ni  Ni183  1  0.33333333  0.16666667  0.19573795  1.0
  Ni  Ni184  1  0.33333333  0.50000000  0.19573795  1.0
  Ni  Ni185  1  0.33333333  0.83333333  0.19573795  1.0
  Ni  Ni186  1  0.66666667  0.16666667  0.19573795  1.0
  Ni  Ni187  1  0.66666667  0.50000000  0.19573795  1.0
  Ni  Ni188  1  0.66666667  0.83333333  0.19573795  1.0
  Ni  Ni189  1  0.16666667  0.16666667  0.14573795  1.0
  Ni  Ni190  1  0.16666667  0.50000000  0.14573795  1.0
  Ni  Ni191  1  0.16666667  0.83333333  0.14573795  1.0
  Ni  Ni192  1  0.50000000  0.16666667  0.14573795  1.0
  Ni  Ni193  1  0.50000000  0.50000000  0.14573795  1.0
  Ni  Ni194  1  0.50000000  0.83333333  0.14573795  1.0
  Ni  Ni195  1  0.83333333  0.16666667  0.14573795  1.0
  Ni  Ni196  1  0.83333333  0.50000000  0.14573795  1.0
  Ni  Ni197  1  0.83333333  0.83333333  0.14573795  1.0
  Ni  Ni198  1  0.08743300  0.27477500  0.15490715  1.0
  Ni  Ni199  1  0.08743300  0.60810833  0.15490715  1.0
  Ni  Ni200  1  0.08743300  0.94144167  0.15490715  1.0
  Ni  Ni201  1  0.42076633  0.27477500  0.15490715  1.0
  Ni  Ni202  1  0.42076633  0.60810833  0.15490715  1.0
  Ni  Ni203  1  0.42076633  0.94144167  0.15490715  1.0
  Ni  Ni204  1  0.75409967  0.27477500  0.15490715  1.0
  Ni  Ni205  1  0.75409967  0.60810833  0.15490715  1.0
  Ni  Ni206  1  0.75409967  0.94144167  0.15490715  1.0
  Ni  Ni207  1  0.30445867  0.27477500  0.12170375  1.0
  Ni  Ni208  1  0.30445867  0.60810833  0.12170375  1.0
  Ni  Ni209  1  0.30445867  0.94144167  0.12170375  1.0
  Ni  Ni210  1  0.63779200  0.27477500  0.12170375  1.0
  Ni  Ni211  1  0.63779200  0.60810833  0.12170375  1.0
  Ni  Ni212  1  0.63779200  0.94144167  0.12170375  1.0
  Ni  Ni213  1  0.97112533  0.27477500  0.12170375  1.0
  Ni  Ni214  1  0.97112533  0.60810833  0.12170375  1.0
  Ni  Ni215  1  0.97112533  0.94144167  0.12170375  1.0
  Ni  Ni216  1  0.24590033  0.05855833  0.13656875  1.0
  Ni  Ni217  1  0.24590033  0.39189167  0.13656875  1.0
  Ni  Ni218  1  0.24590033  0.72522500  0.13656875  1.0
  Ni  Ni219  1  0.57923367  0.05855833  0.13656875  1.0
  Ni  Ni220  1  0.57923367  0.39189167  0.13656875  1.0
  Ni  Ni221  1  0.57923367  0.72522500  0.13656875  1.0
  Ni  Ni222  1  0.91256700  0.05855833  0.13656875  1.0
  Ni  Ni223  1  0.91256700  0.39189167  0.13656875  1.0
  Ni  Ni224  1  0.91256700  0.72522500  0.13656875  1.0
  Ni  Ni225  1  0.02887467  0.05855833  0.16977215  1.0
  Ni  Ni226  1  0.02887467  0.39189167  0.16977215  1.0
  Ni  Ni227  1  0.02887467  0.72522500  0.16977215  1.0
  Ni  Ni228  1  0.36220800  0.05855833  0.16977215  1.0
  Ni  Ni229  1  0.36220800  0.39189167  0.16977215  1.0
  Ni  Ni230  1  0.36220800  0.72522500  0.16977215  1.0
  Ni  Ni231  1  0.69554133  0.05855833  0.16977215  1.0
  Ni  Ni232  1  0.69554133  0.39189167  0.16977215  1.0
  Ni  Ni233  1  0.69554133  0.72522500  0.16977215  1.0
  Ge  Ge234  1  0.03476567  0.26380200  0.14159735  1.0
  Ge  Ge235  1  0.03476567  0.59713533  0.14159735  1.0
  Ge  Ge236  1  0.03476567  0.93046867  0.14159735  1.0
  Ge  Ge237  1  0.36809900  0.26380200  0.14159735  1.0
  Ge  Ge238  1  0.36809900  0.59713533  0.14159735  1.0
  Ge  Ge239  1  0.36809900  0.93046867  0.14159735  1.0
  Ge  Ge240  1  0.70143233  0.26380200  0.14159735  1.0
  Ge  Ge241  1  0.70143233  0.59713533  0.14159735  1.0
  Ge  Ge242  1  0.70143233  0.93046867  0.14159735  1.0
  Ge  Ge243  1  0.29856767  0.06953133  0.14987855  1.0
  Ge  Ge244  1  0.29856767  0.40286467  0.14987855  1.0
  Ge  Ge245  1  0.29856767  0.73619800  0.14987855  1.0
  Ge  Ge246  1  0.63190100  0.06953133  0.14987855  1.0
  Ge  Ge247  1  0.63190100  0.40286467  0.14987855  1.0
  Ge  Ge248  1  0.63190100  0.73619800  0.14987855  1.0
  Ge  Ge249  1  0.96523433  0.06953133  0.14987855  1.0
  Ge  Ge250  1  0.96523433  0.40286467  0.14987855  1.0
  Ge  Ge251  1  0.96523433  0.73619800  0.14987855  1.0
  Ge  Ge252  1  0.13908667  0.28936433  0.16359525  1.0
  Ge  Ge253  1  0.13908667  0.62269767  0.16359525  1.0
  Ge  Ge254  1  0.13908667  0.95603100  0.16359525  1.0
  Ge  Ge255  1  0.47242000  0.28936433  0.16359525  1.0
  Ge  Ge256  1  0.47242000  0.62269767  0.16359525  1.0
  Ge  Ge257  1  0.47242000  0.95603100  0.16359525  1.0
  Ge  Ge258  1  0.80575333  0.28936433  0.16359525  1.0
  Ge  Ge259  1  0.80575333  0.62269767  0.16359525  1.0
  Ge  Ge260  1  0.80575333  0.95603100  0.16359525  1.0
  Ge  Ge261  1  0.23821567  0.28936433  0.10426205  1.0
  Ge  Ge262  1  0.23821567  0.62269767  0.10426205  1.0
  Ge  Ge263  1  0.23821567  0.95603100  0.10426205  1.0
  Ge  Ge264  1  0.57154900  0.28936433  0.10426205  1.0
  Ge  Ge265  1  0.57154900  0.62269767  0.10426205  1.0
  Ge  Ge266  1  0.57154900  0.95603100  0.10426205  1.0
  Ge  Ge267  1  0.90488233  0.28936433  0.10426205  1.0
  Ge  Ge268  1  0.90488233  0.62269767  0.10426205  1.0
  Ge  Ge269  1  0.90488233  0.95603100  0.10426205  1.0
  Ge  Ge270  1  0.19424667  0.04396900  0.12788065  1.0
  Ge  Ge271  1  0.19424667  0.37730233  0.12788065  1.0
  Ge  Ge272  1  0.19424667  0.71063567  0.12788065  1.0
  Ge  Ge273  1  0.52758000  0.04396900  0.12788065  1.0
  Ge  Ge274  1  0.52758000  0.37730233  0.12788065  1.0
  Ge  Ge275  1  0.52758000  0.71063567  0.12788065  1.0
  Ge  Ge276  1  0.86091333  0.04396900  0.12788065  1.0
  Ge  Ge277  1  0.86091333  0.37730233  0.12788065  1.0
  Ge  Ge278  1  0.86091333  0.71063567  0.12788065  1.0
  Ge  Ge279  1  0.09511767  0.04396900  0.18721385  1.0
  Ge  Ge280  1  0.09511767  0.37730233  0.18721385  1.0
  Ge  Ge281  1  0.09511767  0.71063567  0.18721385  1.0
  Ge  Ge282  1  0.42845100  0.04396900  0.18721385  1.0
  Ge  Ge283  1  0.42845100  0.37730233  0.18721385  1.0
  Ge  Ge284  1  0.42845100  0.71063567  0.18721385  1.0
  Ge  Ge285  1  0.76178433  0.04396900  0.18721385  1.0
  Ge  Ge286  1  0.76178433  0.37730233  0.18721385  1.0
  Ge  Ge287  1  0.76178433  0.71063567  0.18721385  1.0
  Ni  Ni288  1  0.10961133  0.16258600  0.23244315  1.0
  Ni  Ni289  1  0.10961133  0.49591933  0.23244315  1.0
  Ni  Ni290  1  0.10961133  0.82925267  0.23244315  1.0
  Ni  Ni291  1  0.44294467  0.16258600  0.23244315  1.0
  Ni  Ni292  1  0.44294467  0.49591933  0.23244315  1.0
  Ni  Ni293  1  0.44294467  0.82925267  0.23244315  1.0
  Ni  Ni294  1  0.77627800  0.16258600  0.23244315  1.0
  Ni  Ni295  1  0.77627800  0.49591933  0.23244315  1.0
  Ni  Ni296  1  0.77627800  0.82925267  0.23244315  1.0
  Ni  Ni297  1  0.06113600  0.16258600  0.21148115  1.0
  Ni  Ni298  1  0.06113600  0.49591933  0.21148115  1.0
  Ni  Ni299  1  0.06113600  0.82925267  0.21148115  1.0
  Ni  Ni300  1  0.39446933  0.16258600  0.21148115  1.0
  Ni  Ni301  1  0.39446933  0.49591933  0.21148115  1.0
  Ni  Ni302  1  0.39446933  0.82925267  0.21148115  1.0
  Ni  Ni303  1  0.72780267  0.16258600  0.21148115  1.0
  Ni  Ni304  1  0.72780267  0.49591933  0.21148115  1.0
  Ni  Ni305  1  0.72780267  0.82925267  0.21148115  1.0
  Ni  Ni306  1  0.22372200  0.17074733  0.25903275  1.0
  Ni  Ni307  1  0.22372200  0.50408067  0.25903275  1.0
  Ni  Ni308  1  0.22372200  0.83741400  0.25903275  1.0
  Ni  Ni309  1  0.55705533  0.17074733  0.25903275  1.0
  Ni  Ni310  1  0.55705533  0.50408067  0.25903275  1.0
  Ni  Ni311  1  0.55705533  0.83741400  0.25903275  1.0
  Ni  Ni312  1  0.89038867  0.17074733  0.25903275  1.0
  Ni  Ni313  1  0.89038867  0.50408067  0.25903275  1.0
  Ni  Ni314  1  0.89038867  0.83741400  0.25903275  1.0
  Ni  Ni315  1  0.27219733  0.17074733  0.27999475  1.0
  Ni  Ni316  1  0.27219733  0.50408067  0.27999475  1.0
  Ni  Ni317  1  0.27219733  0.83741400  0.27999475  1.0
  Ni  Ni318  1  0.60553067  0.17074733  0.27999475  1.0
  Ni  Ni319  1  0.60553067  0.50408067  0.27999475  1.0
  Ni  Ni320  1  0.60553067  0.83741400  0.27999475  1.0
  Ni  Ni321  1  0.93886400  0.17074733  0.27999475  1.0
  Ni  Ni322  1  0.93886400  0.50408067  0.27999475  1.0
  Ni  Ni323  1  0.93886400  0.83741400  0.27999475  1.0
  Ni  Ni324  1  0.00000000  0.16666667  0.29573795  1.0
  Ni  Ni325  1  0.00000000  0.50000000  0.29573795  1.0
  Ni  Ni326  1  0.00000000  0.83333333  0.29573795  1.0
  Ni  Ni327  1  0.33333333  0.16666667  0.29573795  1.0
  Ni  Ni328  1  0.33333333  0.50000000  0.29573795  1.0
  Ni  Ni329  1  0.33333333  0.83333333  0.29573795  1.0
  Ni  Ni330  1  0.66666667  0.16666667  0.29573795  1.0
  Ni  Ni331  1  0.66666667  0.50000000  0.29573795  1.0
  Ni  Ni332  1  0.66666667  0.83333333  0.29573795  1.0
  Ni  Ni333  1  0.16666667  0.16666667  0.24573795  1.0
  Ni  Ni334  1  0.16666667  0.50000000  0.24573795  1.0
  Ni  Ni335  1  0.16666667  0.83333333  0.24573795  1.0
  Ni  Ni336  1  0.50000000  0.16666667  0.24573795  1.0
  Ni  Ni337  1  0.50000000  0.50000000  0.24573795  1.0
  Ni  Ni338  1  0.50000000  0.83333333  0.24573795  1.0
  Ni  Ni339  1  0.83333333  0.16666667  0.24573795  1.0
  Ni  Ni340  1  0.83333333  0.50000000  0.24573795  1.0
  Ni  Ni341  1  0.83333333  0.83333333  0.24573795  1.0
  Ni  Ni342  1  0.08743300  0.27477500  0.25490715  1.0
  Ni  Ni343  1  0.08743300  0.60810833  0.25490715  1.0
  Ni  Ni344  1  0.08743300  0.94144167  0.25490715  1.0
  Ni  Ni345  1  0.42076633  0.27477500  0.25490715  1.0
  Ni  Ni346  1  0.42076633  0.60810833  0.25490715  1.0
  Ni  Ni347  1  0.42076633  0.94144167  0.25490715  1.0
  Ni  Ni348  1  0.75409967  0.27477500  0.25490715  1.0
  Ni  Ni349  1  0.75409967  0.60810833  0.25490715  1.0
  Ni  Ni350  1  0.75409967  0.94144167  0.25490715  1.0
  Ni  Ni351  1  0.30445867  0.27477500  0.22170375  1.0
  Ni  Ni352  1  0.30445867  0.60810833  0.22170375  1.0
  Ni  Ni353  1  0.30445867  0.94144167  0.22170375  1.0
  Ni  Ni354  1  0.63779200  0.27477500  0.22170375  1.0
  Ni  Ni355  1  0.63779200  0.60810833  0.22170375  1.0
  Ni  Ni356  1  0.63779200  0.94144167  0.22170375  1.0
  Ni  Ni357  1  0.97112533  0.27477500  0.22170375  1.0
  Ni  Ni358  1  0.97112533  0.60810833  0.22170375  1.0
  Ni  Ni359  1  0.97112533  0.94144167  0.22170375  1.0
  Ni  Ni360  1  0.24590033  0.05855833  0.23656875  1.0
  Ni  Ni361  1  0.24590033  0.39189167  0.23656875  1.0
  Ni  Ni362  1  0.24590033  0.72522500  0.23656875  1.0
  Ni  Ni363  1  0.57923367  0.05855833  0.23656875  1.0
  Ni  Ni364  1  0.57923367  0.39189167  0.23656875  1.0
  Ni  Ni365  1  0.57923367  0.72522500  0.23656875  1.0
  Ni  Ni366  1  0.91256700  0.05855833  0.23656875  1.0
  Ni  Ni367  1  0.91256700  0.39189167  0.23656875  1.0
  Ni  Ni368  1  0.91256700  0.72522500  0.23656875  1.0
  Ni  Ni369  1  0.02887467  0.05855833  0.26977215  1.0
  Ni  Ni370  1  0.02887467  0.39189167  0.26977215  1.0
  Ni  Ni371  1  0.02887467  0.72522500  0.26977215  1.0
  Ni  Ni372  1  0.36220800  0.05855833  0.26977215  1.0
  Ni  Ni373  1  0.36220800  0.39189167  0.26977215  1.0
  Ni  Ni374  1  0.36220800  0.72522500  0.26977215  1.0
  Ni  Ni375  1  0.69554133  0.05855833  0.26977215  1.0
  Ni  Ni376  1  0.69554133  0.39189167  0.26977215  1.0
  Ni  Ni377  1  0.69554133  0.72522500  0.26977215  1.0
  Ge  Ge378  1  0.03476567  0.26380200  0.24159735  1.0
  Ge  Ge379  1  0.03476567  0.59713533  0.24159735  1.0
  Ge  Ge380  1  0.03476567  0.93046867  0.24159735  1.0
  Ge  Ge381  1  0.36809900  0.26380200  0.24159735  1.0
  Ge  Ge382  1  0.36809900  0.59713533  0.24159735  1.0
  Ge  Ge383  1  0.36809900  0.93046867  0.24159735  1.0
  Ge  Ge384  1  0.70143233  0.26380200  0.24159735  1.0
  Ge  Ge385  1  0.70143233  0.59713533  0.24159735  1.0
  Ge  Ge386  1  0.70143233  0.93046867  0.24159735  1.0
  Ge  Ge387  1  0.29856767  0.06953133  0.24987855  1.0
  Ge  Ge388  1  0.29856767  0.40286467  0.24987855  1.0
  Ge  Ge389  1  0.29856767  0.73619800  0.24987855  1.0
  Ge  Ge390  1  0.63190100  0.06953133  0.24987855  1.0
  Ge  Ge391  1  0.63190100  0.40286467  0.24987855  1.0
  Ge  Ge392  1  0.63190100  0.73619800  0.24987855  1.0
  Ge  Ge393  1  0.96523433  0.06953133  0.24987855  1.0
  Ge  Ge394  1  0.96523433  0.40286467  0.24987855  1.0
  Ge  Ge395  1  0.96523433  0.73619800  0.24987855  1.0
  Ge  Ge396  1  0.13908667  0.28936433  0.26359525  1.0
  Ge  Ge397  1  0.13908667  0.62269767  0.26359525  1.0
  Ge  Ge398  1  0.13908667  0.95603100  0.26359525  1.0
  Ge  Ge399  1  0.47242000  0.28936433  0.26359525  1.0
  Ge  Ge400  1  0.47242000  0.62269767  0.26359525  1.0
  Ge  Ge401  1  0.47242000  0.95603100  0.26359525  1.0
  Ge  Ge402  1  0.80575333  0.28936433  0.26359525  1.0
  Ge  Ge403  1  0.80575333  0.62269767  0.26359525  1.0
  Ge  Ge404  1  0.80575333  0.95603100  0.26359525  1.0
  Ge  Ge405  1  0.23821567  0.28936433  0.20426205  1.0
  Ge  Ge406  1  0.23821567  0.62269767  0.20426205  1.0
  Ge  Ge407  1  0.23821567  0.95603100  0.20426205  1.0
  Ge  Ge408  1  0.57154900  0.28936433  0.20426205  1.0
  Ge  Ge409  1  0.57154900  0.62269767  0.20426205  1.0
  Ge  Ge410  1  0.57154900  0.95603100  0.20426205  1.0
  Ge  Ge411  1  0.90488233  0.28936433  0.20426205  1.0
  Ge  Ge412  1  0.90488233  0.62269767  0.20426205  1.0
  Ge  Ge413  1  0.90488233  0.95603100  0.20426205  1.0
  Ge  Ge414  1  0.19424667  0.04396900  0.22788065  1.0
  Ge  Ge415  1  0.19424667  0.37730233  0.22788065  1.0
  Ge  Ge416  1  0.19424667  0.71063567  0.22788065  1.0
  Ge  Ge417  1  0.52758000  0.04396900  0.22788065  1.0
  Ge  Ge418  1  0.52758000  0.37730233  0.22788065  1.0
  Ge  Ge419  1  0.52758000  0.71063567  0.22788065  1.0
  Ge  Ge420  1  0.86091333  0.04396900  0.22788065  1.0
  Ge  Ge421  1  0.86091333  0.37730233  0.22788065  1.0
  Ge  Ge422  1  0.86091333  0.71063567  0.22788065  1.0
  Ge  Ge423  1  0.09511767  0.04396900  0.28721385  1.0
  Ge  Ge424  1  0.09511767  0.37730233  0.28721385  1.0
  Ge  Ge425  1  0.09511767  0.71063567  0.28721385  1.0
  Ge  Ge426  1  0.42845100  0.04396900  0.28721385  1.0
  Ge  Ge427  1  0.42845100  0.37730233  0.28721385  1.0
  Ge  Ge428  1  0.42845100  0.71063567  0.28721385  1.0
  Ge  Ge429  1  0.76178433  0.04396900  0.28721385  1.0
  Ge  Ge430  1  0.76178433  0.37730233  0.28721385  1.0
  Ge  Ge431  1  0.76178433  0.71063567  0.28721385  1.0
  Ni  Ni432  1  0.10961133  0.16258600  0.33244315  1.0
  Ni  Ni433  1  0.10961133  0.49591933  0.33244315  1.0
  Ni  Ni434  1  0.10961133  0.82925267  0.33244315  1.0
  Ni  Ni435  1  0.44294467  0.16258600  0.33244315  1.0
  Ni  Ni436  1  0.44294467  0.49591933  0.33244315  1.0
  Ni  Ni437  1  0.44294467  0.82925267  0.33244315  1.0
  Ni  Ni438  1  0.77627800  0.16258600  0.33244315  1.0
  Ni  Ni439  1  0.77627800  0.49591933  0.33244315  1.0
  Ni  Ni440  1  0.77627800  0.82925267  0.33244315  1.0
  Ni  Ni441  1  0.06113600  0.16258600  0.31148115  1.0
  Ni  Ni442  1  0.06113600  0.49591933  0.31148115  1.0
  Ni  Ni443  1  0.06113600  0.82925267  0.31148115  1.0
  Ni  Ni444  1  0.39446933  0.16258600  0.31148115  1.0
  Ni  Ni445  1  0.39446933  0.49591933  0.31148115  1.0
  Ni  Ni446  1  0.39446933  0.82925267  0.31148115  1.0
  Ni  Ni447  1  0.72780267  0.16258600  0.31148115  1.0
  Ni  Ni448  1  0.72780267  0.49591933  0.31148115  1.0
  Ni  Ni449  1  0.72780267  0.82925267  0.31148115  1.0
  Ni  Ni450  1  0.22372200  0.17074733  0.35903275  1.0
  Ni  Ni451  1  0.22372200  0.50408067  0.35903275  1.0
  Ni  Ni452  1  0.22372200  0.83741400  0.35903275  1.0
  Ni  Ni453  1  0.55705533  0.17074733  0.35903275  1.0
  Ni  Ni454  1  0.55705533  0.50408067  0.35903275  1.0
  Ni  Ni455  1  0.55705533  0.83741400  0.35903275  1.0
  Ni  Ni456  1  0.89038867  0.17074733  0.35903275  1.0
  Ni  Ni457  1  0.89038867  0.50408067  0.35903275  1.0
  Ni  Ni458  1  0.89038867  0.83741400  0.35903275  1.0
  Ni  Ni459  1  0.27219733  0.17074733  0.37999475  1.0
  Ni  Ni460  1  0.27219733  0.50408067  0.37999475  1.0
  Ni  Ni461  1  0.27219733  0.83741400  0.37999475  1.0
  Ni  Ni462  1  0.60553067  0.17074733  0.37999475  1.0
  Ni  Ni463  1  0.60553067  0.50408067  0.37999475  1.0
  Ni  Ni464  1  0.60553067  0.83741400  0.37999475  1.0
  Ni  Ni465  1  0.93886400  0.17074733  0.37999475  1.0
  Ni  Ni466  1  0.93886400  0.50408067  0.37999475  1.0
  Ni  Ni467  1  0.93886400  0.83741400  0.37999475  1.0
  Ni  Ni468  1  0.00000000  0.16666667  0.39573795  1.0
  Ni  Ni469  1  0.00000000  0.50000000  0.39573795  1.0
  Ni  Ni470  1  0.00000000  0.83333333  0.39573795  1.0
  Ni  Ni471  1  0.33333333  0.16666667  0.39573795  1.0
  Ni  Ni472  1  0.33333333  0.50000000  0.39573795  1.0
  Ni  Ni473  1  0.33333333  0.83333333  0.39573795  1.0
  Ni  Ni474  1  0.66666667  0.16666667  0.39573795  1.0
  Ni  Ni475  1  0.66666667  0.50000000  0.39573795  1.0
  Ni  Ni476  1  0.66666667  0.83333333  0.39573795  1.0
  Ni  Ni477  1  0.16666667  0.16666667  0.34573795  1.0
  Ni  Ni478  1  0.16666667  0.50000000  0.34573795  1.0
  Ni  Ni479  1  0.16666667  0.83333333  0.34573795  1.0
  Ni  Ni480  1  0.50000000  0.16666667  0.34573795  1.0
  Ni  Ni481  1  0.50000000  0.50000000  0.34573795  1.0
  Ni  Ni482  1  0.50000000  0.83333333  0.34573795  1.0
  Ni  Ni483  1  0.83333333  0.16666667  0.34573795  1.0
  Ni  Ni484  1  0.83333333  0.50000000  0.34573795  1.0
  Ni  Ni485  1  0.83333333  0.83333333  0.34573795  1.0
  Ni  Ni486  1  0.08743300  0.27477500  0.35490715  1.0
  Ni  Ni487  1  0.08743300  0.60810833  0.35490715  1.0
  Ni  Ni488  1  0.08743300  0.94144167  0.35490715  1.0
  Ni  Ni489  1  0.42076633  0.27477500  0.35490715  1.0
  Ni  Ni490  1  0.42076633  0.60810833  0.35490715  1.0
  Ni  Ni491  1  0.42076633  0.94144167  0.35490715  1.0
  Ni  Ni492  1  0.75409967  0.27477500  0.35490715  1.0
  Ni  Ni493  1  0.75409967  0.60810833  0.35490715  1.0
  Ni  Ni494  1  0.75409967  0.94144167  0.35490715  1.0
  Ni  Ni495  1  0.30445867  0.27477500  0.32170375  1.0
  Ni  Ni496  1  0.30445867  0.60810833  0.32170375  1.0
  Ni  Ni497  1  0.30445867  0.94144167  0.32170375  1.0
  Ni  Ni498  1  0.63779200  0.27477500  0.32170375  1.0
  Ni  Ni499  1  0.63779200  0.60810833  0.32170375  1.0
  Ni  Ni500  1  0.63779200  0.94144167  0.32170375  1.0
  Ni  Ni501  1  0.97112533  0.27477500  0.32170375  1.0
  Ni  Ni502  1  0.97112533  0.60810833  0.32170375  1.0
  Ni  Ni503  1  0.97112533  0.94144167  0.32170375  1.0
  Ni  Ni504  1  0.24590033  0.05855833  0.33656875  1.0
  Ni  Ni505  1  0.24590033  0.39189167  0.33656875  1.0
  Ni  Ni506  1  0.24590033  0.72522500  0.33656875  1.0
  Ni  Ni507  1  0.57923367  0.05855833  0.33656875  1.0
  Ni  Ni508  1  0.57923367  0.39189167  0.33656875  1.0
  Ni  Ni509  1  0.57923367  0.72522500  0.33656875  1.0
  Ni  Ni510  1  0.91256700  0.05855833  0.33656875  1.0
  Ni  Ni511  1  0.91256700  0.39189167  0.33656875  1.0
  Ni  Ni512  1  0.91256700  0.72522500  0.33656875  1.0
  Ni  Ni513  1  0.02887467  0.05855833  0.36977215  1.0
  Ni  Ni514  1  0.02887467  0.39189167  0.36977215  1.0
  Ni  Ni515  1  0.02887467  0.72522500  0.36977215  1.0
  Ni  Ni516  1  0.36220800  0.05855833  0.36977215  1.0
  Ni  Ni517  1  0.36220800  0.39189167  0.36977215  1.0
  Ni  Ni518  1  0.36220800  0.72522500  0.36977215  1.0
  Ni  Ni519  1  0.69554133  0.05855833  0.36977215  1.0
  Ni  Ni520  1  0.69554133  0.39189167  0.36977215  1.0
  Ni  Ni521  1  0.69554133  0.72522500  0.36977215  1.0
  Ge  Ge522  1  0.03476567  0.26380200  0.34159735  1.0
  Ge  Ge523  1  0.03476567  0.59713533  0.34159735  1.0
  Ge  Ge524  1  0.03476567  0.93046867  0.34159735  1.0
  Ge  Ge525  1  0.36809900  0.26380200  0.34159735  1.0
  Ge  Ge526  1  0.36809900  0.59713533  0.34159735  1.0
  Ge  Ge527  1  0.36809900  0.93046867  0.34159735  1.0
  Ge  Ge528  1  0.70143233  0.26380200  0.34159735  1.0
  Ge  Ge529  1  0.70143233  0.59713533  0.34159735  1.0
  Ge  Ge530  1  0.70143233  0.93046867  0.34159735  1.0
  Ge  Ge531  1  0.29856767  0.06953133  0.34987855  1.0
  Ge  Ge532  1  0.29856767  0.40286467  0.34987855  1.0
  Ge  Ge533  1  0.29856767  0.73619800  0.34987855  1.0
  Ge  Ge534  1  0.63190100  0.06953133  0.34987855  1.0
  Ge  Ge535  1  0.63190100  0.40286467  0.34987855  1.0
  Ge  Ge536  1  0.63190100  0.73619800  0.34987855  1.0
  Ge  Ge537  1  0.96523433  0.06953133  0.34987855  1.0
  Ge  Ge538  1  0.96523433  0.40286467  0.34987855  1.0
  Ge  Ge539  1  0.96523433  0.73619800  0.34987855  1.0
  Ge  Ge540  1  0.13908667  0.28936433  0.36359525  1.0
  Ge  Ge541  1  0.13908667  0.62269767  0.36359525  1.0
  Ge  Ge542  1  0.13908667  0.95603100  0.36359525  1.0
  Ge  Ge543  1  0.47242000  0.28936433  0.36359525  1.0
  Ge  Ge544  1  0.47242000  0.62269767  0.36359525  1.0
  Ge  Ge545  1  0.47242000  0.95603100  0.36359525  1.0
  Ge  Ge546  1  0.80575333  0.28936433  0.36359525  1.0
  Ge  Ge547  1  0.80575333  0.62269767  0.36359525  1.0
  Ge  Ge548  1  0.80575333  0.95603100  0.36359525  1.0
  Ge  Ge549  1  0.23821567  0.28936433  0.30426205  1.0
  Ge  Ge550  1  0.23821567  0.62269767  0.30426205  1.0
  Ge  Ge551  1  0.23821567  0.95603100  0.30426205  1.0
  Ge  Ge552  1  0.57154900  0.28936433  0.30426205  1.0
  Ge  Ge553  1  0.57154900  0.62269767  0.30426205  1.0
  Ge  Ge554  1  0.57154900  0.95603100  0.30426205  1.0
  Ge  Ge555  1  0.90488233  0.28936433  0.30426205  1.0
  Ge  Ge556  1  0.90488233  0.62269767  0.30426205  1.0
  Ge  Ge557  1  0.90488233  0.95603100  0.30426205  1.0
  Ge  Ge558  1  0.19424667  0.04396900  0.32788065  1.0
  Ge  Ge559  1  0.19424667  0.37730233  0.32788065  1.0
  Ge  Ge560  1  0.19424667  0.71063567  0.32788065  1.0
  Ge  Ge561  1  0.52758000  0.04396900  0.32788065  1.0
  Ge  Ge562  1  0.52758000  0.37730233  0.32788065  1.0
  Ge  Ge563  1  0.52758000  0.71063567  0.32788065  1.0
  Ge  Ge564  1  0.86091333  0.04396900  0.32788065  1.0
  Ge  Ge565  1  0.86091333  0.37730233  0.32788065  1.0
  Ge  Ge566  1  0.86091333  0.71063567  0.32788065  1.0
  Ge  Ge567  1  0.09511767  0.04396900  0.38721385  1.0
  Ge  Ge568  1  0.09511767  0.37730233  0.38721385  1.0
  Ge  Ge569  1  0.09511767  0.71063567  0.38721385  1.0
  Ge  Ge570  1  0.42845100  0.04396900  0.38721385  1.0
  Ge  Ge571  1  0.42845100  0.37730233  0.38721385  1.0
  Ge  Ge572  1  0.42845100  0.71063567  0.38721385  1.0
  Ge  Ge573  1  0.76178433  0.04396900  0.38721385  1.0
  Ge  Ge574  1  0.76178433  0.37730233  0.38721385  1.0
  Ge  Ge575  1  0.76178433  0.71063567  0.38721385  1.0
