# generated using pymatgen
data_Ni5Ge3
_symmetry_space_group_name_H-M   'P 1'
_cell_length_a   34.32569197
_cell_length_b   20.23933142
_cell_length_c   31.74625255
_cell_angle_alpha   121.89557813
_cell_angle_beta   104.08551833
_cell_angle_gamma   73.21175652
_symmetry_Int_Tables_number   1
_chemical_formula_structural   Ni5Ge3
_chemical_formula_sum   'Ni360 Ge216'
_cell_volume   17814.82589475
_cell_formula_units_Z   72
loop_
 _symmetry_equiv_pos_site_id
 _symmetry_equiv_pos_as_xyz
  1  'x, y, z'
loop_
 _atom_site_type_symbol
 _atom_site_label
 _atom_site_symmetry_multiplicity
 _atom_site_fract_x
 _atom_site_fract_y
 _atom_site_fract_z
 _atom_site_occupancy
  Ni  Ni0  1  0.05480567  0.00633033  0.02877130  1.0
  Ni  Ni1  1  0.05480567  0.33966367  0.02877130  1.0
  Ni  Ni2  1  0.05480567  0.67299700  0.02877130  1.0
  Ni  Ni3  1  0.38813900  0.00633033  0.02877130  1.0
  Ni  Ni4  1  0.38813900  0.33966367  0.02877130  1.0
  Ni  Ni5  1  0.38813900  0.67299700  0.02877130  1.0
  Ni  Ni6  1  0.72147233  0.00633033  0.02877130  1.0
  Ni  Ni7  1  0.72147233  0.33966367  0.02877130  1.0
  Ni  Ni8  1  0.72147233  0.67299700  0.02877130  1.0
  Ni  Ni9  1  0.22147233  0.17299700  0.12877130  1.0
  Ni  Ni10  1  0.22147233  0.50633033  0.12877130  1.0
  Ni  Ni11  1  0.22147233  0.83966367  0.12877130  1.0
  Ni  Ni12  1  0.55480567  0.17299700  0.12877130  1.0
  Ni  Ni13  1  0.55480567  0.50633033  0.12877130  1.0
  Ni  Ni14  1  0.55480567  0.83966367  0.12877130  1.0
  Ni  Ni15  1  0.88813900  0.17299700  0.12877130  1.0
  Ni  Ni16  1  0.88813900  0.50633033  0.12877130  1.0
  Ni  Ni17  1  0.88813900  0.83966367  0.12877130  1.0
  Ni  Ni18  1  0.03056800  0.07904333  0.11432310  1.0
  Ni  Ni19  1  0.03056800  0.41237667  0.11432310  1.0
  Ni  Ni20  1  0.03056800  0.74571000  0.11432310  1.0
  Ni  Ni21  1  0.36390133  0.07904333  0.11432310  1.0
  Ni  Ni22  1  0.36390133  0.41237667  0.11432310  1.0
  Ni  Ni23  1  0.36390133  0.74571000  0.11432310  1.0
  Ni  Ni24  1  0.69723467  0.07904333  0.11432310  1.0
  Ni  Ni25  1  0.69723467  0.41237667  0.11432310  1.0
  Ni  Ni26  1  0.69723467  0.74571000  0.11432310  1.0
  Ni  Ni27  1  0.19723467  0.24571000  0.01432310  1.0
  Ni  Ni28  1  0.19723467  0.57904333  0.01432310  1.0
  Ni  Ni29  1  0.19723467  0.91237667  0.01432310  1.0
  Ni  Ni30  1  0.53056800  0.24571000  0.01432310  1.0
  Ni  Ni31  1  0.53056800  0.57904333  0.01432310  1.0
  Ni  Ni32  1  0.53056800  0.91237667  0.01432310  1.0
  Ni  Ni33  1  0.86390133  0.24571000  0.01432310  1.0
  Ni  Ni34  1  0.86390133  0.57904333  0.01432310  1.0
  Ni  Ni35  1  0.86390133  0.91237667  0.01432310  1.0
  Ni  Ni36  1  0.11186100  0.16033633  0.06309890  1.0
  Ni  Ni37  1  0.11186100  0.49366967  0.06309890  1.0
  Ni  Ni38  1  0.11186100  0.82700300  0.06309890  1.0
  Ni  Ni39  1  0.44519433  0.16033633  0.06309890  1.0
  Ni  Ni40  1  0.44519433  0.49366967  0.06309890  1.0
  Ni  Ni41  1  0.44519433  0.82700300  0.06309890  1.0
  Ni  Ni42  1  0.77852767  0.16033633  0.06309890  1.0
  Ni  Ni43  1  0.77852767  0.49366967  0.06309890  1.0
  Ni  Ni44  1  0.77852767  0.82700300  0.06309890  1.0
  Ni  Ni45  1  0.27852767  0.32700300  0.16309890  1.0
  Ni  Ni46  1  0.27852767  0.66033633  0.16309890  1.0
  Ni  Ni47  1  0.27852767  0.99366967  0.16309890  1.0
  Ni  Ni48  1  0.61186100  0.32700300  0.16309890  1.0
  Ni  Ni49  1  0.61186100  0.66033633  0.16309890  1.0
  Ni  Ni50  1  0.61186100  0.99366967  0.16309890  1.0
  Ni  Ni51  1  0.94519433  0.32700300  0.16309890  1.0
  Ni  Ni52  1  0.94519433  0.66033633  0.16309890  1.0
  Ni  Ni53  1  0.94519433  0.99366967  0.16309890  1.0
  Ni  Ni54  1  0.13609867  0.08762333  0.17754710  1.0
  Ni  Ni55  1  0.13609867  0.42095667  0.17754710  1.0
  Ni  Ni56  1  0.13609867  0.75429000  0.17754710  1.0
  Ni  Ni57  1  0.46943200  0.08762333  0.17754710  1.0
  Ni  Ni58  1  0.46943200  0.42095667  0.17754710  1.0
  Ni  Ni59  1  0.46943200  0.75429000  0.17754710  1.0
  Ni  Ni60  1  0.80276533  0.08762333  0.17754710  1.0
  Ni  Ni61  1  0.80276533  0.42095667  0.17754710  1.0
  Ni  Ni62  1  0.80276533  0.75429000  0.17754710  1.0
  Ni  Ni63  1  0.30276533  0.25429000  0.07754710  1.0
  Ni  Ni64  1  0.30276533  0.58762333  0.07754710  1.0
  Ni  Ni65  1  0.30276533  0.92095667  0.07754710  1.0
  Ni  Ni66  1  0.63609867  0.25429000  0.07754710  1.0
  Ni  Ni67  1  0.63609867  0.58762333  0.07754710  1.0
  Ni  Ni68  1  0.63609867  0.92095667  0.07754710  1.0
  Ni  Ni69  1  0.96943200  0.25429000  0.07754710  1.0
  Ni  Ni70  1  0.96943200  0.58762333  0.07754710  1.0
  Ni  Ni71  1  0.96943200  0.92095667  0.07754710  1.0
  Ni  Ni72  1  0.00000000  0.16666667  0.19593510  1.0
  Ni  Ni73  1  0.00000000  0.50000000  0.19593510  1.0
  Ni  Ni74  1  0.00000000  0.83333333  0.19593510  1.0
  Ni  Ni75  1  0.33333333  0.16666667  0.19593510  1.0
  Ni  Ni76  1  0.33333333  0.50000000  0.19593510  1.0
  Ni  Ni77  1  0.33333333  0.83333333  0.19593510  1.0
  Ni  Ni78  1  0.66666667  0.16666667  0.19593510  1.0
  Ni  Ni79  1  0.66666667  0.50000000  0.19593510  1.0
  Ni  Ni80  1  0.66666667  0.83333333  0.19593510  1.0
  Ni  Ni81  1  0.16666667  0.00000000  0.09593510  1.0
  Ni  Ni82  1  0.16666667  0.33333333  0.09593510  1.0
  Ni  Ni83  1  0.16666667  0.66666667  0.09593510  1.0
  Ni  Ni84  1  0.50000000  0.00000000  0.09593510  1.0
  Ni  Ni85  1  0.50000000  0.33333333  0.09593510  1.0
  Ni  Ni86  1  0.50000000  0.66666667  0.09593510  1.0
  Ni  Ni87  1  0.83333333  0.00000000  0.09593510  1.0
  Ni  Ni88  1  0.83333333  0.33333333  0.09593510  1.0
  Ni  Ni89  1  0.83333333  0.66666667  0.09593510  1.0
  Ni  Ni90  1  0.08333333  0.25000000  0.14593510  1.0
  Ni  Ni91  1  0.08333333  0.58333333  0.14593510  1.0
  Ni  Ni92  1  0.08333333  0.91666667  0.14593510  1.0
  Ni  Ni93  1  0.41666667  0.25000000  0.14593510  1.0
  Ni  Ni94  1  0.41666667  0.58333333  0.14593510  1.0
  Ni  Ni95  1  0.41666667  0.91666667  0.14593510  1.0
  Ni  Ni96  1  0.75000000  0.25000000  0.14593510  1.0
  Ni  Ni97  1  0.75000000  0.58333333  0.14593510  1.0
  Ni  Ni98  1  0.75000000  0.91666667  0.14593510  1.0
  Ni  Ni99  1  0.25000000  0.08333333  0.04593510  1.0
  Ni  Ni100  1  0.25000000  0.41666667  0.04593510  1.0
  Ni  Ni101  1  0.25000000  0.75000000  0.04593510  1.0
  Ni  Ni102  1  0.58333333  0.08333333  0.04593510  1.0
  Ni  Ni103  1  0.58333333  0.41666667  0.04593510  1.0
  Ni  Ni104  1  0.58333333  0.75000000  0.04593510  1.0
  Ni  Ni105  1  0.91666667  0.08333333  0.04593510  1.0
  Ni  Ni106  1  0.91666667  0.41666667  0.04593510  1.0
  Ni  Ni107  1  0.91666667  0.75000000  0.04593510  1.0
  Ni  Ni108  1  0.04371650  0.26074217  0.06917700  1.0
  Ni  Ni109  1  0.04371650  0.59407550  0.06917700  1.0
  Ni  Ni110  1  0.04371650  0.92740883  0.06917700  1.0
  Ni  Ni111  1  0.37704983  0.26074217  0.06917700  1.0
  Ni  Ni112  1  0.37704983  0.59407550  0.06917700  1.0
  Ni  Ni113  1  0.37704983  0.92740883  0.06917700  1.0
  Ni  Ni114  1  0.71038317  0.26074217  0.06917700  1.0
  Ni  Ni115  1  0.71038317  0.59407550  0.06917700  1.0
  Ni  Ni116  1  0.71038317  0.92740883  0.06917700  1.0
  Ni  Ni117  1  0.21038317  0.09407550  0.16917700  1.0
  Ni  Ni118  1  0.21038317  0.42740883  0.16917700  1.0
  Ni  Ni119  1  0.21038317  0.76074217  0.16917700  1.0
  Ni  Ni120  1  0.54371650  0.09407550  0.16917700  1.0
  Ni  Ni121  1  0.54371650  0.42740883  0.16917700  1.0
  Ni  Ni122  1  0.54371650  0.76074217  0.16917700  1.0
  Ni  Ni123  1  0.87704983  0.09407550  0.16917700  1.0
  Ni  Ni124  1  0.87704983  0.42740883  0.16917700  1.0
  Ni  Ni125  1  0.87704983  0.76074217  0.16917700  1.0
  Ni  Ni126  1  0.15222933  0.26853700  0.14026070  1.0
  Ni  Ni127  1  0.15222933  0.60187033  0.14026070  1.0
  Ni  Ni128  1  0.15222933  0.93520367  0.14026070  1.0
  Ni  Ni129  1  0.48556267  0.26853700  0.14026070  1.0
  Ni  Ni130  1  0.48556267  0.60187033  0.14026070  1.0
  Ni  Ni131  1  0.48556267  0.93520367  0.14026070  1.0
  Ni  Ni132  1  0.81889600  0.26853700  0.14026070  1.0
  Ni  Ni133  1  0.81889600  0.60187033  0.14026070  1.0
  Ni  Ni134  1  0.81889600  0.93520367  0.14026070  1.0
  Ni  Ni135  1  0.31889600  0.10187033  0.04026070  1.0
  Ni  Ni136  1  0.31889600  0.43520367  0.04026070  1.0
  Ni  Ni137  1  0.31889600  0.76853700  0.04026070  1.0
  Ni  Ni138  1  0.65222933  0.10187033  0.04026070  1.0
  Ni  Ni139  1  0.65222933  0.43520367  0.04026070  1.0
  Ni  Ni140  1  0.65222933  0.76853700  0.04026070  1.0
  Ni  Ni141  1  0.98556267  0.10187033  0.04026070  1.0
  Ni  Ni142  1  0.98556267  0.43520367  0.04026070  1.0
  Ni  Ni143  1  0.98556267  0.76853700  0.04026070  1.0
  Ni  Ni144  1  0.12295017  0.23925783  0.02269320  1.0
  Ni  Ni145  1  0.12295017  0.57259117  0.02269320  1.0
  Ni  Ni146  1  0.12295017  0.90592450  0.02269320  1.0
  Ni  Ni147  1  0.45628350  0.23925783  0.02269320  1.0
  Ni  Ni148  1  0.45628350  0.57259117  0.02269320  1.0
  Ni  Ni149  1  0.45628350  0.90592450  0.02269320  1.0
  Ni  Ni150  1  0.78961683  0.23925783  0.02269320  1.0
  Ni  Ni151  1  0.78961683  0.57259117  0.02269320  1.0
  Ni  Ni152  1  0.78961683  0.90592450  0.02269320  1.0
  Ni  Ni153  1  0.28961683  0.07259117  0.12269320  1.0
  Ni  Ni154  1  0.28961683  0.40592450  0.12269320  1.0
  Ni  Ni155  1  0.28961683  0.73925783  0.12269320  1.0
  Ni  Ni156  1  0.62295017  0.07259117  0.12269320  1.0
  Ni  Ni157  1  0.62295017  0.40592450  0.12269320  1.0
  Ni  Ni158  1  0.62295017  0.73925783  0.12269320  1.0
  Ni  Ni159  1  0.95628350  0.07259117  0.12269320  1.0
  Ni  Ni160  1  0.95628350  0.40592450  0.12269320  1.0
  Ni  Ni161  1  0.95628350  0.73925783  0.12269320  1.0
  Ni  Ni162  1  0.01443733  0.23146300  0.15160950  1.0
  Ni  Ni163  1  0.01443733  0.56479633  0.15160950  1.0
  Ni  Ni164  1  0.01443733  0.89812967  0.15160950  1.0
  Ni  Ni165  1  0.34777067  0.23146300  0.15160950  1.0
  Ni  Ni166  1  0.34777067  0.56479633  0.15160950  1.0
  Ni  Ni167  1  0.34777067  0.89812967  0.15160950  1.0
  Ni  Ni168  1  0.68110400  0.23146300  0.15160950  1.0
  Ni  Ni169  1  0.68110400  0.56479633  0.15160950  1.0
  Ni  Ni170  1  0.68110400  0.89812967  0.15160950  1.0
  Ni  Ni171  1  0.18110400  0.06479633  0.05160950  1.0
  Ni  Ni172  1  0.18110400  0.39812967  0.05160950  1.0
  Ni  Ni173  1  0.18110400  0.73146300  0.05160950  1.0
  Ni  Ni174  1  0.51443733  0.06479633  0.05160950  1.0
  Ni  Ni175  1  0.51443733  0.39812967  0.05160950  1.0
  Ni  Ni176  1  0.51443733  0.73146300  0.05160950  1.0
  Ni  Ni177  1  0.84777067  0.06479633  0.05160950  1.0
  Ni  Ni178  1  0.84777067  0.39812967  0.05160950  1.0
  Ni  Ni179  1  0.84777067  0.73146300  0.05160950  1.0
  Ge  Ge180  1  0.01738283  0.01738283  0.15636480  1.0
  Ge  Ge181  1  0.01738283  0.35071617  0.15636480  1.0
  Ge  Ge182  1  0.01738283  0.68404950  0.15636480  1.0
  Ge  Ge183  1  0.35071617  0.01738283  0.15636480  1.0
  Ge  Ge184  1  0.35071617  0.35071617  0.15636480  1.0
  Ge  Ge185  1  0.35071617  0.68404950  0.15636480  1.0
  Ge  Ge186  1  0.68404950  0.01738283  0.15636480  1.0
  Ge  Ge187  1  0.68404950  0.35071617  0.15636480  1.0
  Ge  Ge188  1  0.68404950  0.68404950  0.15636480  1.0
  Ge  Ge189  1  0.18404950  0.18404950  0.05636480  1.0
  Ge  Ge190  1  0.18404950  0.51738283  0.05636480  1.0
  Ge  Ge191  1  0.18404950  0.85071617  0.05636480  1.0
  Ge  Ge192  1  0.51738283  0.18404950  0.05636480  1.0
  Ge  Ge193  1  0.51738283  0.51738283  0.05636480  1.0
  Ge  Ge194  1  0.51738283  0.85071617  0.05636480  1.0
  Ge  Ge195  1  0.85071617  0.18404950  0.05636480  1.0
  Ge  Ge196  1  0.85071617  0.51738283  0.05636480  1.0
  Ge  Ge197  1  0.85071617  0.85071617  0.05636480  1.0
  Ge  Ge198  1  0.14928383  0.14928383  0.13550540  1.0
  Ge  Ge199  1  0.14928383  0.48261717  0.13550540  1.0
  Ge  Ge200  1  0.14928383  0.81595050  0.13550540  1.0
  Ge  Ge201  1  0.48261717  0.14928383  0.13550540  1.0
  Ge  Ge202  1  0.48261717  0.48261717  0.13550540  1.0
  Ge  Ge203  1  0.48261717  0.81595050  0.13550540  1.0
  Ge  Ge204  1  0.81595050  0.14928383  0.13550540  1.0
  Ge  Ge205  1  0.81595050  0.48261717  0.13550540  1.0
  Ge  Ge206  1  0.81595050  0.81595050  0.13550540  1.0
  Ge  Ge207  1  0.31595050  0.31595050  0.03550540  1.0
  Ge  Ge208  1  0.31595050  0.64928383  0.03550540  1.0
  Ge  Ge209  1  0.31595050  0.98261717  0.03550540  1.0
  Ge  Ge210  1  0.64928383  0.31595050  0.03550540  1.0
  Ge  Ge211  1  0.64928383  0.64928383  0.03550540  1.0
  Ge  Ge212  1  0.64928383  0.98261717  0.03550540  1.0
  Ge  Ge213  1  0.98261717  0.31595050  0.03550540  1.0
  Ge  Ge214  1  0.98261717  0.64928383  0.03550540  1.0
  Ge  Ge215  1  0.98261717  0.98261717  0.03550540  1.0
  Ge  Ge216  1  0.06954333  0.16867233  0.18780530  1.0
  Ge  Ge217  1  0.06954333  0.50200567  0.18780530  1.0
  Ge  Ge218  1  0.06954333  0.83533900  0.18780530  1.0
  Ge  Ge219  1  0.40287667  0.16867233  0.18780530  1.0
  Ge  Ge220  1  0.40287667  0.50200567  0.18780530  1.0
  Ge  Ge221  1  0.40287667  0.83533900  0.18780530  1.0
  Ge  Ge222  1  0.73621000  0.16867233  0.18780530  1.0
  Ge  Ge223  1  0.73621000  0.50200567  0.18780530  1.0
  Ge  Ge224  1  0.73621000  0.83533900  0.18780530  1.0
  Ge  Ge225  1  0.23621000  0.00200567  0.08780530  1.0
  Ge  Ge226  1  0.23621000  0.33533900  0.08780530  1.0
  Ge  Ge227  1  0.23621000  0.66867233  0.08780530  1.0
  Ge  Ge228  1  0.56954333  0.00200567  0.08780530  1.0
  Ge  Ge229  1  0.56954333  0.33533900  0.08780530  1.0
  Ge  Ge230  1  0.56954333  0.66867233  0.08780530  1.0
  Ge  Ge231  1  0.90287667  0.00200567  0.08780530  1.0
  Ge  Ge232  1  0.90287667  0.33533900  0.08780530  1.0
  Ge  Ge233  1  0.90287667  0.66867233  0.08780530  1.0
  Ge  Ge234  1  0.11910783  0.01997883  0.01725560  1.0
  Ge  Ge235  1  0.11910783  0.35331217  0.01725560  1.0
  Ge  Ge236  1  0.11910783  0.68664550  0.01725560  1.0
  Ge  Ge237  1  0.45244117  0.01997883  0.01725560  1.0
  Ge  Ge238  1  0.45244117  0.35331217  0.01725560  1.0
  Ge  Ge239  1  0.45244117  0.68664550  0.01725560  1.0
  Ge  Ge240  1  0.78577450  0.01997883  0.01725560  1.0
  Ge  Ge241  1  0.78577450  0.35331217  0.01725560  1.0
  Ge  Ge242  1  0.78577450  0.68664550  0.01725560  1.0
  Ge  Ge243  1  0.28577450  0.18664550  0.11725560  1.0
  Ge  Ge244  1  0.28577450  0.51997883  0.11725560  1.0
  Ge  Ge245  1  0.28577450  0.85331217  0.11725560  1.0
  Ge  Ge246  1  0.61910783  0.18664550  0.11725560  1.0
  Ge  Ge247  1  0.61910783  0.51997883  0.11725560  1.0
  Ge  Ge248  1  0.61910783  0.85331217  0.11725560  1.0
  Ge  Ge249  1  0.95244117  0.18664550  0.11725560  1.0
  Ge  Ge250  1  0.95244117  0.51997883  0.11725560  1.0
  Ge  Ge251  1  0.95244117  0.85331217  0.11725560  1.0
  Ge  Ge252  1  0.09712333  0.33132767  0.10406490  1.0
  Ge  Ge253  1  0.09712333  0.66466100  0.10406490  1.0
  Ge  Ge254  1  0.09712333  0.99799433  0.10406490  1.0
  Ge  Ge255  1  0.43045667  0.33132767  0.10406490  1.0
  Ge  Ge256  1  0.43045667  0.66466100  0.10406490  1.0
  Ge  Ge257  1  0.43045667  0.99799433  0.10406490  1.0
  Ge  Ge258  1  0.76379000  0.33132767  0.10406490  1.0
  Ge  Ge259  1  0.76379000  0.66466100  0.10406490  1.0
  Ge  Ge260  1  0.76379000  0.99799433  0.10406490  1.0
  Ge  Ge261  1  0.26379000  0.16466100  0.00406490  1.0
  Ge  Ge262  1  0.26379000  0.49799433  0.00406490  1.0
  Ge  Ge263  1  0.26379000  0.83132767  0.00406490  1.0
  Ge  Ge264  1  0.59712333  0.16466100  0.00406490  1.0
  Ge  Ge265  1  0.59712333  0.49799433  0.00406490  1.0
  Ge  Ge266  1  0.59712333  0.83132767  0.00406490  1.0
  Ge  Ge267  1  0.93045667  0.16466100  0.00406490  1.0
  Ge  Ge268  1  0.93045667  0.49799433  0.00406490  1.0
  Ge  Ge269  1  0.93045667  0.83132767  0.00406490  1.0
  Ge  Ge270  1  0.04755883  0.14668783  0.07461460  1.0
  Ge  Ge271  1  0.04755883  0.48002117  0.07461460  1.0
  Ge  Ge272  1  0.04755883  0.81335450  0.07461460  1.0
  Ge  Ge273  1  0.38089217  0.14668783  0.07461460  1.0
  Ge  Ge274  1  0.38089217  0.48002117  0.07461460  1.0
  Ge  Ge275  1  0.38089217  0.81335450  0.07461460  1.0
  Ge  Ge276  1  0.71422550  0.14668783  0.07461460  1.0
  Ge  Ge277  1  0.71422550  0.48002117  0.07461460  1.0
  Ge  Ge278  1  0.71422550  0.81335450  0.07461460  1.0
  Ge  Ge279  1  0.21422550  0.31335450  0.17461460  1.0
  Ge  Ge280  1  0.21422550  0.64668783  0.17461460  1.0
  Ge  Ge281  1  0.21422550  0.98002117  0.17461460  1.0
  Ge  Ge282  1  0.54755883  0.31335450  0.17461460  1.0
  Ge  Ge283  1  0.54755883  0.64668783  0.17461460  1.0
  Ge  Ge284  1  0.54755883  0.98002117  0.17461460  1.0
  Ge  Ge285  1  0.88089217  0.31335450  0.17461460  1.0
  Ge  Ge286  1  0.88089217  0.64668783  0.17461460  1.0
  Ge  Ge287  1  0.88089217  0.98002117  0.17461460  1.0
  Ni  Ni288  1  0.05480567  0.00633033  0.22877130  1.0
  Ni  Ni289  1  0.05480567  0.33966367  0.22877130  1.0
  Ni  Ni290  1  0.05480567  0.67299700  0.22877130  1.0
  Ni  Ni291  1  0.38813900  0.00633033  0.22877130  1.0
  Ni  Ni292  1  0.38813900  0.33966367  0.22877130  1.0
  Ni  Ni293  1  0.38813900  0.67299700  0.22877130  1.0
  Ni  Ni294  1  0.72147233  0.00633033  0.22877130  1.0
  Ni  Ni295  1  0.72147233  0.33966367  0.22877130  1.0
  Ni  Ni296  1  0.72147233  0.67299700  0.22877130  1.0
  Ni  Ni297  1  0.22147233  0.17299700  0.32877130  1.0
  Ni  Ni298  1  0.22147233  0.50633033  0.32877130  1.0
  Ni  Ni299  1  0.22147233  0.83966367  0.32877130  1.0
  Ni  Ni300  1  0.55480567  0.17299700  0.32877130  1.0
  Ni  Ni301  1  0.55480567  0.50633033  0.32877130  1.0
  Ni  Ni302  1  0.55480567  0.83966367  0.32877130  1.0
  Ni  Ni303  1  0.88813900  0.17299700  0.32877130  1.0
  Ni  Ni304  1  0.88813900  0.50633033  0.32877130  1.0
  Ni  Ni305  1  0.88813900  0.83966367  0.32877130  1.0
  Ni  Ni306  1  0.03056800  0.07904333  0.31432310  1.0
  Ni  Ni307  1  0.03056800  0.41237667  0.31432310  1.0
  Ni  Ni308  1  0.03056800  0.74571000  0.31432310  1.0
  Ni  Ni309  1  0.36390133  0.07904333  0.31432310  1.0
  Ni  Ni310  1  0.36390133  0.41237667  0.31432310  1.0
  Ni  Ni311  1  0.36390133  0.74571000  0.31432310  1.0
  Ni  Ni312  1  0.69723467  0.07904333  0.31432310  1.0
  Ni  Ni313  1  0.69723467  0.41237667  0.31432310  1.0
  Ni  Ni314  1  0.69723467  0.74571000  0.31432310  1.0
  Ni  Ni315  1  0.19723467  0.24571000  0.21432310  1.0
  Ni  Ni316  1  0.19723467  0.57904333  0.21432310  1.0
  Ni  Ni317  1  0.19723467  0.91237667  0.21432310  1.0
  Ni  Ni318  1  0.53056800  0.24571000  0.21432310  1.0
  Ni  Ni319  1  0.53056800  0.57904333  0.21432310  1.0
  Ni  Ni320  1  0.53056800  0.91237667  0.21432310  1.0
  Ni  Ni321  1  0.86390133  0.24571000  0.21432310  1.0
  Ni  Ni322  1  0.86390133  0.57904333  0.21432310  1.0
  Ni  Ni323  1  0.86390133  0.91237667  0.21432310  1.0
  Ni  Ni324  1  0.11186100  0.16033633  0.26309890  1.0
  Ni  Ni325  1  0.11186100  0.49366967  0.26309890  1.0
  Ni  Ni326  1  0.11186100  0.82700300  0.26309890  1.0
  Ni  Ni327  1  0.44519433  0.16033633  0.26309890  1.0
  Ni  Ni328  1  0.44519433  0.49366967  0.26309890  1.0
  Ni  Ni329  1  0.44519433  0.82700300  0.26309890  1.0
  Ni  Ni330  1  0.77852767  0.16033633  0.26309890  1.0
  Ni  Ni331  1  0.77852767  0.49366967  0.26309890  1.0
  Ni  Ni332  1  0.77852767  0.82700300  0.26309890  1.0
  Ni  Ni333  1  0.27852767  0.32700300  0.36309890  1.0
  Ni  Ni334  1  0.27852767  0.66033633  0.36309890  1.0
  Ni  Ni335  1  0.27852767  0.99366967  0.36309890  1.0
  Ni  Ni336  1  0.61186100  0.32700300  0.36309890  1.0
  Ni  Ni337  1  0.61186100  0.66033633  0.36309890  1.0
  Ni  Ni338  1  0.61186100  0.99366967  0.36309890  1.0
  Ni  Ni339  1  0.94519433  0.32700300  0.36309890  1.0
  Ni  Ni340  1  0.94519433  0.66033633  0.36309890  1.0
  Ni  Ni341  1  0.94519433  0.99366967  0.36309890  1.0
  Ni  Ni342  1  0.13609867  0.08762333  0.37754710  1.0
  Ni  Ni343  1  0.13609867  0.42095667  0.37754710  1.0
  Ni  Ni344  1  0.13609867  0.75429000  0.37754710  1.0
  Ni  Ni345  1  0.46943200  0.08762333  0.37754710  1.0
  Ni  Ni346  1  0.46943200  0.42095667  0.37754710  1.0
  Ni  Ni347  1  0.46943200  0.75429000  0.37754710  1.0
  Ni  Ni348  1  0.80276533  0.08762333  0.37754710  1.0
  Ni  Ni349  1  0.80276533  0.42095667  0.37754710  1.0
  Ni  Ni350  1  0.80276533  0.75429000  0.37754710  1.0
  Ni  Ni351  1  0.30276533  0.25429000  0.27754710  1.0
  Ni  Ni352  1  0.30276533  0.58762333  0.27754710  1.0
  Ni  Ni353  1  0.30276533  0.92095667  0.27754710  1.0
  Ni  Ni354  1  0.63609867  0.25429000  0.27754710  1.0
  Ni  Ni355  1  0.63609867  0.58762333  0.27754710  1.0
  Ni  Ni356  1  0.63609867  0.92095667  0.27754710  1.0
  Ni  Ni357  1  0.96943200  0.25429000  0.27754710  1.0
  Ni  Ni358  1  0.96943200  0.58762333  0.27754710  1.0
  Ni  Ni359  1  0.96943200  0.92095667  0.27754710  1.0
  Ni  Ni360  1  0.00000000  0.16666667  0.39593510  1.0
  Ni  Ni361  1  0.00000000  0.50000000  0.39593510  1.0
  Ni  Ni362  1  0.00000000  0.83333333  0.39593510  1.0
  Ni  Ni363  1  0.33333333  0.16666667  0.39593510  1.0
  Ni  Ni364  1  0.33333333  0.50000000  0.39593510  1.0
  Ni  Ni365  1  0.33333333  0.83333333  0.39593510  1.0
  Ni  Ni366  1  0.66666667  0.16666667  0.39593510  1.0
  Ni  Ni367  1  0.66666667  0.50000000  0.39593510  1.0
  Ni  Ni368  1  0.66666667  0.83333333  0.39593510  1.0
  Ni  Ni369  1  0.16666667  0.00000000  0.29593510  1.0
  Ni  Ni370  1  0.16666667  0.33333333  0.29593510  1.0
  Ni  Ni371  1  0.16666667  0.66666667  0.29593510  1.0
  Ni  Ni372  1  0.50000000  0.00000000  0.29593510  1.0
  Ni  Ni373  1  0.50000000  0.33333333  0.29593510  1.0
  Ni  Ni374  1  0.50000000  0.66666667  0.29593510  1.0
  Ni  Ni375  1  0.83333333  0.00000000  0.29593510  1.0
  Ni  Ni376  1  0.83333333  0.33333333  0.29593510  1.0
  Ni  Ni377  1  0.83333333  0.66666667  0.29593510  1.0
  Ni  Ni378  1  0.08333333  0.25000000  0.34593510  1.0
  Ni  Ni379  1  0.08333333  0.58333333  0.34593510  1.0
  Ni  Ni380  1  0.08333333  0.91666667  0.34593510  1.0
  Ni  Ni381  1  0.41666667  0.25000000  0.34593510  1.0
  Ni  Ni382  1  0.41666667  0.58333333  0.34593510  1.0
  Ni  Ni383  1  0.41666667  0.91666667  0.34593510  1.0
  Ni  Ni384  1  0.75000000  0.25000000  0.34593510  1.0
  Ni  Ni385  1  0.75000000  0.58333333  0.34593510  1.0
  Ni  Ni386  1  0.75000000  0.91666667  0.34593510  1.0
  Ni  Ni387  1  0.25000000  0.08333333  0.24593510  1.0
  Ni  Ni388  1  0.25000000  0.41666667  0.24593510  1.0
  Ni  Ni389  1  0.25000000  0.75000000  0.24593510  1.0
  Ni  Ni390  1  0.58333333  0.08333333  0.24593510  1.0
  Ni  Ni391  1  0.58333333  0.41666667  0.24593510  1.0
  Ni  Ni392  1  0.58333333  0.75000000  0.24593510  1.0
  Ni  Ni393  1  0.91666667  0.08333333  0.24593510  1.0
  Ni  Ni394  1  0.91666667  0.41666667  0.24593510  1.0
  Ni  Ni395  1  0.91666667  0.75000000  0.24593510  1.0
  Ni  Ni396  1  0.04371650  0.26074217  0.26917700  1.0
  Ni  Ni397  1  0.04371650  0.59407550  0.26917700  1.0
  Ni  Ni398  1  0.04371650  0.92740883  0.26917700  1.0
  Ni  Ni399  1  0.37704983  0.26074217  0.26917700  1.0
  Ni  Ni400  1  0.37704983  0.59407550  0.26917700  1.0
  Ni  Ni401  1  0.37704983  0.92740883  0.26917700  1.0
  Ni  Ni402  1  0.71038317  0.26074217  0.26917700  1.0
  Ni  Ni403  1  0.71038317  0.59407550  0.26917700  1.0
  Ni  Ni404  1  0.71038317  0.92740883  0.26917700  1.0
  Ni  Ni405  1  0.21038317  0.09407550  0.36917700  1.0
  Ni  Ni406  1  0.21038317  0.42740883  0.36917700  1.0
  Ni  Ni407  1  0.21038317  0.76074217  0.36917700  1.0
  Ni  Ni408  1  0.54371650  0.09407550  0.36917700  1.0
  Ni  Ni409  1  0.54371650  0.42740883  0.36917700  1.0
  Ni  Ni410  1  0.54371650  0.76074217  0.36917700  1.0
  Ni  Ni411  1  0.87704983  0.09407550  0.36917700  1.0
  Ni  Ni412  1  0.87704983  0.42740883  0.36917700  1.0
  Ni  Ni413  1  0.87704983  0.76074217  0.36917700  1.0
  Ni  Ni414  1  0.15222933  0.26853700  0.34026070  1.0
  Ni  Ni415  1  0.15222933  0.60187033  0.34026070  1.0
  Ni  Ni416  1  0.15222933  0.93520367  0.34026070  1.0
  Ni  Ni417  1  0.48556267  0.26853700  0.34026070  1.0
  Ni  Ni418  1  0.48556267  0.60187033  0.34026070  1.0
  Ni  Ni419  1  0.48556267  0.93520367  0.34026070  1.0
  Ni  Ni420  1  0.81889600  0.26853700  0.34026070  1.0
  Ni  Ni421  1  0.81889600  0.60187033  0.34026070  1.0
  Ni  Ni422  1  0.81889600  0.93520367  0.34026070  1.0
  Ni  Ni423  1  0.31889600  0.10187033  0.24026070  1.0
  Ni  Ni424  1  0.31889600  0.43520367  0.24026070  1.0
  Ni  Ni425  1  0.31889600  0.76853700  0.24026070  1.0
  Ni  Ni426  1  0.65222933  0.10187033  0.24026070  1.0
  Ni  Ni427  1  0.65222933  0.43520367  0.24026070  1.0
  Ni  Ni428  1  0.65222933  0.76853700  0.24026070  1.0
  Ni  Ni429  1  0.98556267  0.10187033  0.24026070  1.0
  Ni  Ni430  1  0.98556267  0.43520367  0.24026070  1.0
  Ni  Ni431  1  0.98556267  0.76853700  0.24026070  1.0
  Ni  Ni432  1  0.12295017  0.23925783  0.22269320  1.0
  Ni  Ni433  1  0.12295017  0.57259117  0.22269320  1.0
  Ni  Ni434  1  0.12295017  0.90592450  0.22269320  1.0
  Ni  Ni435  1  0.45628350  0.23925783  0.22269320  1.0
  Ni  Ni436  1  0.45628350  0.57259117  0.22269320  1.0
  Ni  Ni437  1  0.45628350  0.90592450  0.22269320  1.0
  Ni  Ni438  1  0.78961683  0.23925783  0.22269320  1.0
  Ni  Ni439  1  0.78961683  0.57259117  0.22269320  1.0
  Ni  Ni440  1  0.78961683  0.90592450  0.22269320  1.0
  Ni  Ni441  1  0.28961683  0.07259117  0.32269320  1.0
  Ni  Ni442  1  0.28961683  0.40592450  0.32269320  1.0
  Ni  Ni443  1  0.28961683  0.73925783  0.32269320  1.0
  Ni  Ni444  1  0.62295017  0.07259117  0.32269320  1.0
  Ni  Ni445  1  0.62295017  0.40592450  0.32269320  1.0
  Ni  Ni446  1  0.62295017  0.73925783  0.32269320  1.0
  Ni  Ni447  1  0.95628350  0.07259117  0.32269320  1.0
  Ni  Ni448  1  0.95628350  0.40592450  0.32269320  1.0
  Ni  Ni449  1  0.95628350  0.73925783  0.32269320  1.0
  Ni  Ni450  1  0.01443733  0.23146300  0.35160950  1.0
  Ni  Ni451  1  0.01443733  0.56479633  0.35160950  1.0
  Ni  Ni452  1  0.01443733  0.89812967  0.35160950  1.0
  Ni  Ni453  1  0.34777067  0.23146300  0.35160950  1.0
  Ni  Ni454  1  0.34777067  0.56479633  0.35160950  1.0
  Ni  Ni455  1  0.34777067  0.89812967  0.35160950  1.0
  Ni  Ni456  1  0.68110400  0.23146300  0.35160950  1.0
  Ni  Ni457  1  0.68110400  0.56479633  0.35160950  1.0
  Ni  Ni458  1  0.68110400  0.89812967  0.35160950  1.0
  Ni  Ni459  1  0.18110400  0.06479633  0.25160950  1.0
  Ni  Ni460  1  0.18110400  0.39812967  0.25160950  1.0
  Ni  Ni461  1  0.18110400  0.73146300  0.25160950  1.0
  Ni  Ni462  1  0.51443733  0.06479633  0.25160950  1.0
  Ni  Ni463  1  0.51443733  0.39812967  0.25160950  1.0
  Ni  Ni464  1  0.51443733  0.73146300  0.25160950  1.0
  Ni  Ni465  1  0.84777067  0.06479633  0.25160950  1.0
  Ni  Ni466  1  0.84777067  0.39812967  0.25160950  1.0
  Ni  Ni467  1  0.84777067  0.73146300  0.25160950  1.0
  Ge  Ge468  1  0.01738283  0.01738283  0.35636480  1.0
  Ge  Ge469  1  0.01738283  0.35071617  0.35636480  1.0
  Ge  Ge470  1  0.01738283  0.68404950  0.35636480  1.0
  Ge  Ge471  1  0.35071617  0.01738283  0.35636480  1.0
  Ge  Ge472  1  0.35071617  0.35071617  0.35636480  1.0
  Ge  Ge473  1  0.35071617  0.68404950  0.35636480  1.0
  Ge  Ge474  1  0.68404950  0.01738283  0.35636480  1.0
  Ge  Ge475  1  0.68404950  0.35071617  0.35636480  1.0
  Ge  Ge476  1  0.68404950  0.68404950  0.35636480  1.0
  Ge  Ge477  1  0.18404950  0.18404950  0.25636480  1.0
  Ge  Ge478  1  0.18404950  0.51738283  0.25636480  1.0
  Ge  Ge479  1  0.18404950  0.85071617  0.25636480  1.0
  Ge  Ge480  1  0.51738283  0.18404950  0.25636480  1.0
  Ge  Ge481  1  0.51738283  0.51738283  0.25636480  1.0
  Ge  Ge482  1  0.51738283  0.85071617  0.25636480  1.0
  Ge  Ge483  1  0.85071617  0.18404950  0.25636480  1.0
  Ge  Ge484  1  0.85071617  0.51738283  0.25636480  1.0
  Ge  Ge485  1  0.85071617  0.85071617  0.25636480  1.0
  Ge  Ge486  1  0.14928383  0.14928383  0.33550540  1.0
  Ge  Ge487  1  0.14928383  0.48261717  0.33550540  1.0
  Ge  Ge488  1  0.14928383  0.81595050  0.33550540  1.0
  Ge  Ge489  1  0.48261717  0.14928383  0.33550540  1.0
  Ge  Ge490  1  0.48261717  0.48261717  0.33550540  1.0
  Ge  Ge491  1  0.48261717  0.81595050  0.33550540  1.0
  Ge  Ge492  1  0.81595050  0.14928383  0.33550540  1.0
  Ge  Ge493  1  0.81595050  0.48261717  0.33550540  1.0
  Ge  Ge494  1  0.81595050  0.81595050  0.33550540  1.0
  Ge  Ge495  1  0.31595050  0.31595050  0.23550540  1.0
  Ge  Ge496  1  0.31595050  0.64928383  0.23550540  1.0
  Ge  Ge497  1  0.31595050  0.98261717  0.23550540  1.0
  Ge  Ge498  1  0.64928383  0.31595050  0.23550540  1.0
  Ge  Ge499  1  0.64928383  0.64928383  0.23550540  1.0
  Ge  Ge500  1  0.64928383  0.98261717  0.23550540  1.0
  Ge  Ge501  1  0.98261717  0.31595050  0.23550540  1.0
  Ge  Ge502  1  0.98261717  0.64928383  0.23550540  1.0
  Ge  Ge503  1  0.98261717  0.98261717  0.23550540  1.0
  Ge  Ge504  1  0.06954333  0.16867233  0.38780530  1.0
  Ge  Ge505  1  0.06954333  0.50200567  0.38780530  1.0
  Ge  Ge506  1  0.06954333  0.83533900  0.38780530  1.0
  Ge  Ge507  1  0.40287667  0.16867233  0.38780530  1.0
  Ge  Ge508  1  0.40287667  0.50200567  0.38780530  1.0
  Ge  Ge509  1  0.40287667  0.83533900  0.38780530  1.0
  Ge  Ge510  1  0.73621000  0.16867233  0.38780530  1.0
  Ge  Ge511  1  0.73621000  0.50200567  0.38780530  1.0
  Ge  Ge512  1  0.73621000  0.83533900  0.38780530  1.0
  Ge  Ge513  1  0.23621000  0.00200567  0.28780530  1.0
  Ge  Ge514  1  0.23621000  0.33533900  0.28780530  1.0
  Ge  Ge515  1  0.23621000  0.66867233  0.28780530  1.0
  Ge  Ge516  1  0.56954333  0.00200567  0.28780530  1.0
  Ge  Ge517  1  0.56954333  0.33533900  0.28780530  1.0
  Ge  Ge518  1  0.56954333  0.66867233  0.28780530  1.0
  Ge  Ge519  1  0.90287667  0.00200567  0.28780530  1.0
  Ge  Ge520  1  0.90287667  0.33533900  0.28780530  1.0
  Ge  Ge521  1  0.90287667  0.66867233  0.28780530  1.0
  Ge  Ge522  1  0.11910783  0.01997883  0.21725560  1.0
  Ge  Ge523  1  0.11910783  0.35331217  0.21725560  1.0
  Ge  Ge524  1  0.11910783  0.68664550  0.21725560  1.0
  Ge  Ge525  1  0.45244117  0.01997883  0.21725560  1.0
  Ge  Ge526  1  0.45244117  0.35331217  0.21725560  1.0
  Ge  Ge527  1  0.45244117  0.68664550  0.21725560  1.0
  Ge  Ge528  1  0.78577450  0.01997883  0.21725560  1.0
  Ge  Ge529  1  0.78577450  0.35331217  0.21725560  1.0
  Ge  Ge530  1  0.78577450  0.68664550  0.21725560  1.0
  Ge  Ge531  1  0.28577450  0.18664550  0.31725560  1.0
  Ge  Ge532  1  0.28577450  0.51997883  0.31725560  1.0
  Ge  Ge533  1  0.28577450  0.85331217  0.31725560  1.0
  Ge  Ge534  1  0.61910783  0.18664550  0.31725560  1.0
  Ge  Ge535  1  0.61910783  0.51997883  0.31725560  1.0
  Ge  Ge536  1  0.61910783  0.85331217  0.31725560  1.0
  Ge  Ge537  1  0.95244117  0.18664550  0.31725560  1.0
  Ge  Ge538  1  0.95244117  0.51997883  0.31725560  1.0
  Ge  Ge539  1  0.95244117  0.85331217  0.31725560  1.0
  Ge  Ge540  1  0.09712333  0.33132767  0.30406490  1.0
  Ge  Ge541  1  0.09712333  0.66466100  0.30406490  1.0
  Ge  Ge542  1  0.09712333  0.99799433  0.30406490  1.0
  Ge  Ge543  1  0.43045667  0.33132767  0.30406490  1.0
  Ge  Ge544  1  0.43045667  0.66466100  0.30406490  1.0
  Ge  Ge545  1  0.43045667  0.99799433  0.30406490  1.0
  Ge  Ge546  1  0.76379000  0.33132767  0.30406490  1.0
  Ge  Ge547  1  0.76379000  0.66466100  0.30406490  1.0
  Ge  Ge548  1  0.76379000  0.99799433  0.30406490  1.0
  Ge  Ge549  1  0.26379000  0.16466100  0.20406490  1.0
  Ge  Ge550  1  0.26379000  0.49799433  0.20406490  1.0
  Ge  Ge551  1  0.26379000  0.83132767  0.20406490  1.0
  Ge  Ge552  1  0.59712333  0.16466100  0.20406490  1.0
  Ge  Ge553  1  0.59712333  0.49799433  0.20406490  1.0
  Ge  Ge554  1  0.59712333  0.83132767  0.20406490  1.0
  Ge  Ge555  1  0.93045667  0.16466100  0.20406490  1.0
  Ge  Ge556  1  0.93045667  0.49799433  0.20406490  1.0
  Ge  Ge557  1  0.93045667  0.83132767  0.20406490  1.0
  Ge  Ge558  1  0.04755883  0.14668783  0.27461460  1.0
  Ge  Ge559  1  0.04755883  0.48002117  0.27461460  1.0
  Ge  Ge560  1  0.04755883  0.81335450  0.27461460  1.0
  Ge  Ge561  1  0.38089217  0.14668783  0.27461460  1.0
  Ge  Ge562  1  0.38089217  0.48002117  0.27461460  1.0
  Ge  Ge563  1  0.38089217  0.81335450  0.27461460  1.0
  Ge  Ge564  1  0.71422550  0.14668783  0.27461460  1.0
  Ge  Ge565  1  0.71422550  0.48002117  0.27461460  1.0
  Ge  Ge566  1  0.71422550  0.81335450  0.27461460  1.0
  Ge  Ge567  1  0.21422550  0.31335450  0.37461460  1.0
  Ge  Ge568  1  0.21422550  0.64668783  0.37461460  1.0
  Ge  Ge569  1  0.21422550  0.98002117  0.37461460  1.0
  Ge  Ge570  1  0.54755883  0.31335450  0.37461460  1.0
  Ge  Ge571  1  0.54755883  0.64668783  0.37461460  1.0
  Ge  Ge572  1  0.54755883  0.98002117  0.37461460  1.0
  Ge  Ge573  1  0.88089217  0.31335450  0.37461460  1.0
  Ge  Ge574  1  0.88089217  0.64668783  0.37461460  1.0
  Ge  Ge575  1  0.88089217  0.98002117  0.37461460  1.0
