# generated using pymatgen
data_Ni5Ge3
_symmetry_space_group_name_H-M   'P 1'
_cell_length_a   19.10647533
_cell_length_b   34.34876053
_cell_length_c   31.84412555
_cell_angle_alpha   85.90953276
_cell_angle_beta   116.30210971
_cell_angle_gamma   76.20542951
_symmetry_Int_Tables_number   1
_chemical_formula_structural   Ni5Ge3
_chemical_formula_sum   'Ni360 Ge216'
_cell_volume   17814.82589475
_cell_formula_units_Z   72
loop_
 _symmetry_equiv_pos_site_id
 _symmetry_equiv_pos_as_xyz
  1  'x, y, z'
loop_
 _atom_site_type_symbol
 _atom_site_label
 _atom_site_symmetry_multiplicity
 _atom_site_fract_x
 _atom_site_fract_y
 _atom_site_fract_z
 _atom_site_occupancy
  Ni  Ni0  1  0.10961133  0.14246833  0.14318960  1.0
  Ni  Ni1  1  0.10961133  0.47580167  0.14318960  1.0
  Ni  Ni2  1  0.10961133  0.80913500  0.14318960  1.0
  Ni  Ni3  1  0.44294467  0.14246833  0.14318960  1.0
  Ni  Ni4  1  0.44294467  0.47580167  0.14318960  1.0
  Ni  Ni5  1  0.44294467  0.80913500  0.14318960  1.0
  Ni  Ni6  1  0.77627800  0.14246833  0.14318960  1.0
  Ni  Ni7  1  0.77627800  0.47580167  0.14318960  1.0
  Ni  Ni8  1  0.77627800  0.80913500  0.14318960  1.0
  Ni  Ni9  1  0.10961133  0.30913500  0.04318960  1.0
  Ni  Ni10  1  0.10961133  0.64246833  0.04318960  1.0
  Ni  Ni11  1  0.10961133  0.97580167  0.04318960  1.0
  Ni  Ni12  1  0.44294467  0.30913500  0.04318960  1.0
  Ni  Ni13  1  0.44294467  0.64246833  0.04318960  1.0
  Ni  Ni14  1  0.44294467  0.97580167  0.04318960  1.0
  Ni  Ni15  1  0.77627800  0.30913500  0.04318960  1.0
  Ni  Ni16  1  0.77627800  0.64246833  0.04318960  1.0
  Ni  Ni17  1  0.77627800  0.97580167  0.04318960  1.0
  Ni  Ni18  1  0.06113600  0.10753167  0.19323680  1.0
  Ni  Ni19  1  0.06113600  0.44086500  0.19323680  1.0
  Ni  Ni20  1  0.06113600  0.77419833  0.19323680  1.0
  Ni  Ni21  1  0.39446933  0.10753167  0.19323680  1.0
  Ni  Ni22  1  0.39446933  0.44086500  0.19323680  1.0
  Ni  Ni23  1  0.39446933  0.77419833  0.19323680  1.0
  Ni  Ni24  1  0.72780267  0.10753167  0.19323680  1.0
  Ni  Ni25  1  0.72780267  0.44086500  0.19323680  1.0
  Ni  Ni26  1  0.72780267  0.77419833  0.19323680  1.0
  Ni  Ni27  1  0.06113600  0.27419833  0.09323680  1.0
  Ni  Ni28  1  0.06113600  0.60753167  0.09323680  1.0
  Ni  Ni29  1  0.06113600  0.94086500  0.09323680  1.0
  Ni  Ni30  1  0.39446933  0.27419833  0.09323680  1.0
  Ni  Ni31  1  0.39446933  0.60753167  0.09323680  1.0
  Ni  Ni32  1  0.39446933  0.94086500  0.09323680  1.0
  Ni  Ni33  1  0.72780267  0.27419833  0.09323680  1.0
  Ni  Ni34  1  0.72780267  0.60753167  0.09323680  1.0
  Ni  Ni35  1  0.72780267  0.94086500  0.09323680  1.0
  Ni  Ni36  1  0.22372200  0.02419833  0.14078840  1.0
  Ni  Ni37  1  0.22372200  0.35753167  0.14078840  1.0
  Ni  Ni38  1  0.22372200  0.69086500  0.14078840  1.0
  Ni  Ni39  1  0.55705533  0.02419833  0.14078840  1.0
  Ni  Ni40  1  0.55705533  0.35753167  0.14078840  1.0
  Ni  Ni41  1  0.55705533  0.69086500  0.14078840  1.0
  Ni  Ni42  1  0.89038867  0.02419833  0.14078840  1.0
  Ni  Ni43  1  0.89038867  0.35753167  0.14078840  1.0
  Ni  Ni44  1  0.89038867  0.69086500  0.14078840  1.0
  Ni  Ni45  1  0.22372200  0.19086500  0.04078840  1.0
  Ni  Ni46  1  0.22372200  0.52419833  0.04078840  1.0
  Ni  Ni47  1  0.22372200  0.85753167  0.04078840  1.0
  Ni  Ni48  1  0.55705533  0.19086500  0.04078840  1.0
  Ni  Ni49  1  0.55705533  0.52419833  0.04078840  1.0
  Ni  Ni50  1  0.55705533  0.85753167  0.04078840  1.0
  Ni  Ni51  1  0.89038867  0.19086500  0.04078840  1.0
  Ni  Ni52  1  0.89038867  0.52419833  0.04078840  1.0
  Ni  Ni53  1  0.89038867  0.85753167  0.04078840  1.0
  Ni  Ni54  1  0.27219733  0.05913500  0.09074120  1.0
  Ni  Ni55  1  0.27219733  0.39246833  0.09074120  1.0
  Ni  Ni56  1  0.27219733  0.72580167  0.09074120  1.0
  Ni  Ni57  1  0.60553067  0.05913500  0.09074120  1.0
  Ni  Ni58  1  0.60553067  0.39246833  0.09074120  1.0
  Ni  Ni59  1  0.60553067  0.72580167  0.09074120  1.0
  Ni  Ni60  1  0.93886400  0.05913500  0.09074120  1.0
  Ni  Ni61  1  0.93886400  0.39246833  0.09074120  1.0
  Ni  Ni62  1  0.93886400  0.72580167  0.09074120  1.0
  Ni  Ni63  1  0.27219733  0.22580167  0.19074120  1.0
  Ni  Ni64  1  0.27219733  0.55913500  0.19074120  1.0
  Ni  Ni65  1  0.27219733  0.89246833  0.19074120  1.0
  Ni  Ni66  1  0.60553067  0.22580167  0.19074120  1.0
  Ni  Ni67  1  0.60553067  0.55913500  0.19074120  1.0
  Ni  Ni68  1  0.60553067  0.89246833  0.19074120  1.0
  Ni  Ni69  1  0.93886400  0.22580167  0.19074120  1.0
  Ni  Ni70  1  0.93886400  0.55913500  0.19074120  1.0
  Ni  Ni71  1  0.93886400  0.89246833  0.19074120  1.0
  Ni  Ni72  1  0.00000000  0.08333333  0.04198900  1.0
  Ni  Ni73  1  0.00000000  0.41666667  0.04198900  1.0
  Ni  Ni74  1  0.00000000  0.75000000  0.04198900  1.0
  Ni  Ni75  1  0.33333333  0.08333333  0.04198900  1.0
  Ni  Ni76  1  0.33333333  0.41666667  0.04198900  1.0
  Ni  Ni77  1  0.33333333  0.75000000  0.04198900  1.0
  Ni  Ni78  1  0.66666667  0.08333333  0.04198900  1.0
  Ni  Ni79  1  0.66666667  0.41666667  0.04198900  1.0
  Ni  Ni80  1  0.66666667  0.75000000  0.04198900  1.0
  Ni  Ni81  1  0.00000000  0.25000000  0.14198900  1.0
  Ni  Ni82  1  0.00000000  0.58333333  0.14198900  1.0
  Ni  Ni83  1  0.00000000  0.91666667  0.14198900  1.0
  Ni  Ni84  1  0.33333333  0.25000000  0.14198900  1.0
  Ni  Ni85  1  0.33333333  0.58333333  0.14198900  1.0
  Ni  Ni86  1  0.33333333  0.91666667  0.14198900  1.0
  Ni  Ni87  1  0.66666667  0.25000000  0.14198900  1.0
  Ni  Ni88  1  0.66666667  0.58333333  0.14198900  1.0
  Ni  Ni89  1  0.66666667  0.91666667  0.14198900  1.0
  Ni  Ni90  1  0.16666667  0.00000000  0.19198900  1.0
  Ni  Ni91  1  0.16666667  0.33333333  0.19198900  1.0
  Ni  Ni92  1  0.16666667  0.66666667  0.19198900  1.0
  Ni  Ni93  1  0.50000000  0.00000000  0.19198900  1.0
  Ni  Ni94  1  0.50000000  0.33333333  0.19198900  1.0
  Ni  Ni95  1  0.50000000  0.66666667  0.19198900  1.0
  Ni  Ni96  1  0.83333333  0.00000000  0.19198900  1.0
  Ni  Ni97  1  0.83333333  0.33333333  0.19198900  1.0
  Ni  Ni98  1  0.83333333  0.66666667  0.19198900  1.0
  Ni  Ni99  1  0.16666667  0.16666667  0.09198900  1.0
  Ni  Ni100  1  0.16666667  0.50000000  0.09198900  1.0
  Ni  Ni101  1  0.16666667  0.83333333  0.09198900  1.0
  Ni  Ni102  1  0.50000000  0.16666667  0.09198900  1.0
  Ni  Ni103  1  0.50000000  0.50000000  0.09198900  1.0
  Ni  Ni104  1  0.50000000  0.83333333  0.09198900  1.0
  Ni  Ni105  1  0.83333333  0.16666667  0.09198900  1.0
  Ni  Ni106  1  0.83333333  0.50000000  0.09198900  1.0
  Ni  Ni107  1  0.83333333  0.83333333  0.09198900  1.0
  Ni  Ni108  1  0.08743300  0.06933617  0.13306250  1.0
  Ni  Ni109  1  0.08743300  0.40266950  0.13306250  1.0
  Ni  Ni110  1  0.08743300  0.73600283  0.13306250  1.0
  Ni  Ni111  1  0.42076633  0.06933617  0.13306250  1.0
  Ni  Ni112  1  0.42076633  0.40266950  0.13306250  1.0
  Ni  Ni113  1  0.42076633  0.73600283  0.13306250  1.0
  Ni  Ni114  1  0.75409967  0.06933617  0.13306250  1.0
  Ni  Ni115  1  0.75409967  0.40266950  0.13306250  1.0
  Ni  Ni116  1  0.75409967  0.73600283  0.13306250  1.0
  Ni  Ni117  1  0.08743300  0.23600283  0.03306250  1.0
  Ni  Ni118  1  0.08743300  0.56933617  0.03306250  1.0
  Ni  Ni119  1  0.08743300  0.90266950  0.03306250  1.0
  Ni  Ni120  1  0.42076633  0.23600283  0.03306250  1.0
  Ni  Ni121  1  0.42076633  0.56933617  0.03306250  1.0
  Ni  Ni122  1  0.42076633  0.90266950  0.03306250  1.0
  Ni  Ni123  1  0.75409967  0.23600283  0.03306250  1.0
  Ni  Ni124  1  0.75409967  0.56933617  0.03306250  1.0
  Ni  Ni125  1  0.75409967  0.90266950  0.03306250  1.0
  Ni  Ni126  1  0.30445867  0.01399717  0.03605050  1.0
  Ni  Ni127  1  0.30445867  0.34733050  0.03605050  1.0
  Ni  Ni128  1  0.30445867  0.68066383  0.03605050  1.0
  Ni  Ni129  1  0.63779200  0.01399717  0.03605050  1.0
  Ni  Ni130  1  0.63779200  0.34733050  0.03605050  1.0
  Ni  Ni131  1  0.63779200  0.68066383  0.03605050  1.0
  Ni  Ni132  1  0.97112533  0.01399717  0.03605050  1.0
  Ni  Ni133  1  0.97112533  0.34733050  0.03605050  1.0
  Ni  Ni134  1  0.97112533  0.68066383  0.03605050  1.0
  Ni  Ni135  1  0.30445867  0.18066383  0.13605050  1.0
  Ni  Ni136  1  0.30445867  0.51399717  0.13605050  1.0
  Ni  Ni137  1  0.30445867  0.84733050  0.13605050  1.0
  Ni  Ni138  1  0.63779200  0.18066383  0.13605050  1.0
  Ni  Ni139  1  0.63779200  0.51399717  0.13605050  1.0
  Ni  Ni140  1  0.63779200  0.84733050  0.13605050  1.0
  Ni  Ni141  1  0.97112533  0.18066383  0.13605050  1.0
  Ni  Ni142  1  0.97112533  0.51399717  0.13605050  1.0
  Ni  Ni143  1  0.97112533  0.84733050  0.13605050  1.0
  Ni  Ni144  1  0.24590033  0.09733050  0.15091550  1.0
  Ni  Ni145  1  0.24590033  0.43066383  0.15091550  1.0
  Ni  Ni146  1  0.24590033  0.76399717  0.15091550  1.0
  Ni  Ni147  1  0.57923367  0.09733050  0.15091550  1.0
  Ni  Ni148  1  0.57923367  0.43066383  0.15091550  1.0
  Ni  Ni149  1  0.57923367  0.76399717  0.15091550  1.0
  Ni  Ni150  1  0.91256700  0.09733050  0.15091550  1.0
  Ni  Ni151  1  0.91256700  0.43066383  0.15091550  1.0
  Ni  Ni152  1  0.91256700  0.76399717  0.15091550  1.0
  Ni  Ni153  1  0.24590033  0.26399717  0.05091550  1.0
  Ni  Ni154  1  0.24590033  0.59733050  0.05091550  1.0
  Ni  Ni155  1  0.24590033  0.93066383  0.05091550  1.0
  Ni  Ni156  1  0.57923367  0.26399717  0.05091550  1.0
  Ni  Ni157  1  0.57923367  0.59733050  0.05091550  1.0
  Ni  Ni158  1  0.57923367  0.93066383  0.05091550  1.0
  Ni  Ni159  1  0.91256700  0.26399717  0.05091550  1.0
  Ni  Ni160  1  0.91256700  0.59733050  0.05091550  1.0
  Ni  Ni161  1  0.91256700  0.93066383  0.05091550  1.0
  Ni  Ni162  1  0.02887467  0.15266950  0.04792750  1.0
  Ni  Ni163  1  0.02887467  0.48600283  0.04792750  1.0
  Ni  Ni164  1  0.02887467  0.81933617  0.04792750  1.0
  Ni  Ni165  1  0.36220800  0.15266950  0.04792750  1.0
  Ni  Ni166  1  0.36220800  0.48600283  0.04792750  1.0
  Ni  Ni167  1  0.36220800  0.81933617  0.04792750  1.0
  Ni  Ni168  1  0.69554133  0.15266950  0.04792750  1.0
  Ni  Ni169  1  0.69554133  0.48600283  0.04792750  1.0
  Ni  Ni170  1  0.69554133  0.81933617  0.04792750  1.0
  Ni  Ni171  1  0.02887467  0.31933617  0.14792750  1.0
  Ni  Ni172  1  0.02887467  0.65266950  0.14792750  1.0
  Ni  Ni173  1  0.02887467  0.98600283  0.14792750  1.0
  Ni  Ni174  1  0.36220800  0.31933617  0.14792750  1.0
  Ni  Ni175  1  0.36220800  0.65266950  0.14792750  1.0
  Ni  Ni176  1  0.36220800  0.98600283  0.14792750  1.0
  Ni  Ni177  1  0.69554133  0.31933617  0.14792750  1.0
  Ni  Ni178  1  0.69554133  0.65266950  0.14792750  1.0
  Ni  Ni179  1  0.69554133  0.98600283  0.14792750  1.0
  Ge  Ge180  1  0.03476567  0.04166667  0.18784840  1.0
  Ge  Ge181  1  0.03476567  0.37500000  0.18784840  1.0
  Ge  Ge182  1  0.03476567  0.70833333  0.18784840  1.0
  Ge  Ge183  1  0.36809900  0.04166667  0.18784840  1.0
  Ge  Ge184  1  0.36809900  0.37500000  0.18784840  1.0
  Ge  Ge185  1  0.36809900  0.70833333  0.18784840  1.0
  Ge  Ge186  1  0.70143233  0.04166667  0.18784840  1.0
  Ge  Ge187  1  0.70143233  0.37500000  0.18784840  1.0
  Ge  Ge188  1  0.70143233  0.70833333  0.18784840  1.0
  Ge  Ge189  1  0.03476567  0.20833333  0.08784840  1.0
  Ge  Ge190  1  0.03476567  0.54166667  0.08784840  1.0
  Ge  Ge191  1  0.03476567  0.87500000  0.08784840  1.0
  Ge  Ge192  1  0.36809900  0.20833333  0.08784840  1.0
  Ge  Ge193  1  0.36809900  0.54166667  0.08784840  1.0
  Ge  Ge194  1  0.36809900  0.87500000  0.08784840  1.0
  Ge  Ge195  1  0.70143233  0.20833333  0.08784840  1.0
  Ge  Ge196  1  0.70143233  0.54166667  0.08784840  1.0
  Ge  Ge197  1  0.70143233  0.87500000  0.08784840  1.0
  Ge  Ge198  1  0.29856767  0.12500000  0.09612960  1.0
  Ge  Ge199  1  0.29856767  0.45833333  0.09612960  1.0
  Ge  Ge200  1  0.29856767  0.79166667  0.09612960  1.0
  Ge  Ge201  1  0.63190100  0.12500000  0.09612960  1.0
  Ge  Ge202  1  0.63190100  0.45833333  0.09612960  1.0
  Ge  Ge203  1  0.63190100  0.79166667  0.09612960  1.0
  Ge  Ge204  1  0.96523433  0.12500000  0.09612960  1.0
  Ge  Ge205  1  0.96523433  0.45833333  0.09612960  1.0
  Ge  Ge206  1  0.96523433  0.79166667  0.09612960  1.0
  Ge  Ge207  1  0.29856767  0.29166667  0.19612960  1.0
  Ge  Ge208  1  0.29856767  0.62500000  0.19612960  1.0
  Ge  Ge209  1  0.29856767  0.95833333  0.19612960  1.0
  Ge  Ge210  1  0.63190100  0.29166667  0.19612960  1.0
  Ge  Ge211  1  0.63190100  0.62500000  0.19612960  1.0
  Ge  Ge212  1  0.63190100  0.95833333  0.19612960  1.0
  Ge  Ge213  1  0.96523433  0.29166667  0.19612960  1.0
  Ge  Ge214  1  0.96523433  0.62500000  0.19612960  1.0
  Ge  Ge215  1  0.96523433  0.95833333  0.19612960  1.0
  Ge  Ge216  1  0.13908667  0.09111100  0.08025180  1.0
  Ge  Ge217  1  0.13908667  0.42444433  0.08025180  1.0
  Ge  Ge218  1  0.13908667  0.75777767  0.08025180  1.0
  Ge  Ge219  1  0.47242000  0.09111100  0.08025180  1.0
  Ge  Ge220  1  0.47242000  0.42444433  0.08025180  1.0
  Ge  Ge221  1  0.47242000  0.75777767  0.08025180  1.0
  Ge  Ge222  1  0.80575333  0.09111100  0.08025180  1.0
  Ge  Ge223  1  0.80575333  0.42444433  0.08025180  1.0
  Ge  Ge224  1  0.80575333  0.75777767  0.08025180  1.0
  Ge  Ge225  1  0.13908667  0.25777767  0.18025180  1.0
  Ge  Ge226  1  0.13908667  0.59111100  0.18025180  1.0
  Ge  Ge227  1  0.13908667  0.92444433  0.18025180  1.0
  Ge  Ge228  1  0.47242000  0.25777767  0.18025180  1.0
  Ge  Ge229  1  0.47242000  0.59111100  0.18025180  1.0
  Ge  Ge230  1  0.47242000  0.92444433  0.18025180  1.0
  Ge  Ge231  1  0.80575333  0.25777767  0.18025180  1.0
  Ge  Ge232  1  0.80575333  0.59111100  0.18025180  1.0
  Ge  Ge233  1  0.80575333  0.92444433  0.18025180  1.0
  Ge  Ge234  1  0.23821567  0.15888900  0.18010760  1.0
  Ge  Ge235  1  0.23821567  0.49222233  0.18010760  1.0
  Ge  Ge236  1  0.23821567  0.82555567  0.18010760  1.0
  Ge  Ge237  1  0.57154900  0.15888900  0.18010760  1.0
  Ge  Ge238  1  0.57154900  0.49222233  0.18010760  1.0
  Ge  Ge239  1  0.57154900  0.82555567  0.18010760  1.0
  Ge  Ge240  1  0.90488233  0.15888900  0.18010760  1.0
  Ge  Ge241  1  0.90488233  0.49222233  0.18010760  1.0
  Ge  Ge242  1  0.90488233  0.82555567  0.18010760  1.0
  Ge  Ge243  1  0.23821567  0.32555567  0.08010760  1.0
  Ge  Ge244  1  0.23821567  0.65888900  0.08010760  1.0
  Ge  Ge245  1  0.23821567  0.99222233  0.08010760  1.0
  Ge  Ge246  1  0.57154900  0.32555567  0.08010760  1.0
  Ge  Ge247  1  0.57154900  0.65888900  0.08010760  1.0
  Ge  Ge248  1  0.57154900  0.99222233  0.08010760  1.0
  Ge  Ge249  1  0.90488233  0.32555567  0.08010760  1.0
  Ge  Ge250  1  0.90488233  0.65888900  0.08010760  1.0
  Ge  Ge251  1  0.90488233  0.99222233  0.08010760  1.0
  Ge  Ge252  1  0.19424667  0.07555567  0.00372620  1.0
  Ge  Ge253  1  0.19424667  0.40888900  0.00372620  1.0
  Ge  Ge254  1  0.19424667  0.74222233  0.00372620  1.0
  Ge  Ge255  1  0.52758000  0.07555567  0.00372620  1.0
  Ge  Ge256  1  0.52758000  0.40888900  0.00372620  1.0
  Ge  Ge257  1  0.52758000  0.74222233  0.00372620  1.0
  Ge  Ge258  1  0.86091333  0.07555567  0.00372620  1.0
  Ge  Ge259  1  0.86091333  0.40888900  0.00372620  1.0
  Ge  Ge260  1  0.86091333  0.74222233  0.00372620  1.0
  Ge  Ge261  1  0.19424667  0.24222233  0.10372620  1.0
  Ge  Ge262  1  0.19424667  0.57555567  0.10372620  1.0
  Ge  Ge263  1  0.19424667  0.90888900  0.10372620  1.0
  Ge  Ge264  1  0.52758000  0.24222233  0.10372620  1.0
  Ge  Ge265  1  0.52758000  0.57555567  0.10372620  1.0
  Ge  Ge266  1  0.52758000  0.90888900  0.10372620  1.0
  Ge  Ge267  1  0.86091333  0.24222233  0.10372620  1.0
  Ge  Ge268  1  0.86091333  0.57555567  0.10372620  1.0
  Ge  Ge269  1  0.86091333  0.90888900  0.10372620  1.0
  Ge  Ge270  1  0.09511767  0.00777767  0.10387040  1.0
  Ge  Ge271  1  0.09511767  0.34111100  0.10387040  1.0
  Ge  Ge272  1  0.09511767  0.67444433  0.10387040  1.0
  Ge  Ge273  1  0.42845100  0.00777767  0.10387040  1.0
  Ge  Ge274  1  0.42845100  0.34111100  0.10387040  1.0
  Ge  Ge275  1  0.42845100  0.67444433  0.10387040  1.0
  Ge  Ge276  1  0.76178433  0.00777767  0.10387040  1.0
  Ge  Ge277  1  0.76178433  0.34111100  0.10387040  1.0
  Ge  Ge278  1  0.76178433  0.67444433  0.10387040  1.0
  Ge  Ge279  1  0.09511767  0.17444433  0.00387040  1.0
  Ge  Ge280  1  0.09511767  0.50777767  0.00387040  1.0
  Ge  Ge281  1  0.09511767  0.84111100  0.00387040  1.0
  Ge  Ge282  1  0.42845100  0.17444433  0.00387040  1.0
  Ge  Ge283  1  0.42845100  0.50777767  0.00387040  1.0
  Ge  Ge284  1  0.42845100  0.84111100  0.00387040  1.0
  Ge  Ge285  1  0.76178433  0.17444433  0.00387040  1.0
  Ge  Ge286  1  0.76178433  0.50777767  0.00387040  1.0
  Ge  Ge287  1  0.76178433  0.84111100  0.00387040  1.0
  Ni  Ni288  1  0.10961133  0.14246833  0.34318960  1.0
  Ni  Ni289  1  0.10961133  0.47580167  0.34318960  1.0
  Ni  Ni290  1  0.10961133  0.80913500  0.34318960  1.0
  Ni  Ni291  1  0.44294467  0.14246833  0.34318960  1.0
  Ni  Ni292  1  0.44294467  0.47580167  0.34318960  1.0
  Ni  Ni293  1  0.44294467  0.80913500  0.34318960  1.0
  Ni  Ni294  1  0.77627800  0.14246833  0.34318960  1.0
  Ni  Ni295  1  0.77627800  0.47580167  0.34318960  1.0
  Ni  Ni296  1  0.77627800  0.80913500  0.34318960  1.0
  Ni  Ni297  1  0.10961133  0.30913500  0.24318960  1.0
  Ni  Ni298  1  0.10961133  0.64246833  0.24318960  1.0
  Ni  Ni299  1  0.10961133  0.97580167  0.24318960  1.0
  Ni  Ni300  1  0.44294467  0.30913500  0.24318960  1.0
  Ni  Ni301  1  0.44294467  0.64246833  0.24318960  1.0
  Ni  Ni302  1  0.44294467  0.97580167  0.24318960  1.0
  Ni  Ni303  1  0.77627800  0.30913500  0.24318960  1.0
  Ni  Ni304  1  0.77627800  0.64246833  0.24318960  1.0
  Ni  Ni305  1  0.77627800  0.97580167  0.24318960  1.0
  Ni  Ni306  1  0.06113600  0.10753167  0.39323680  1.0
  Ni  Ni307  1  0.06113600  0.44086500  0.39323680  1.0
  Ni  Ni308  1  0.06113600  0.77419833  0.39323680  1.0
  Ni  Ni309  1  0.39446933  0.10753167  0.39323680  1.0
  Ni  Ni310  1  0.39446933  0.44086500  0.39323680  1.0
  Ni  Ni311  1  0.39446933  0.77419833  0.39323680  1.0
  Ni  Ni312  1  0.72780267  0.10753167  0.39323680  1.0
  Ni  Ni313  1  0.72780267  0.44086500  0.39323680  1.0
  Ni  Ni314  1  0.72780267  0.77419833  0.39323680  1.0
  Ni  Ni315  1  0.06113600  0.27419833  0.29323680  1.0
  Ni  Ni316  1  0.06113600  0.60753167  0.29323680  1.0
  Ni  Ni317  1  0.06113600  0.94086500  0.29323680  1.0
  Ni  Ni318  1  0.39446933  0.27419833  0.29323680  1.0
  Ni  Ni319  1  0.39446933  0.60753167  0.29323680  1.0
  Ni  Ni320  1  0.39446933  0.94086500  0.29323680  1.0
  Ni  Ni321  1  0.72780267  0.27419833  0.29323680  1.0
  Ni  Ni322  1  0.72780267  0.60753167  0.29323680  1.0
  Ni  Ni323  1  0.72780267  0.94086500  0.29323680  1.0
  Ni  Ni324  1  0.22372200  0.02419833  0.34078840  1.0
  Ni  Ni325  1  0.22372200  0.35753167  0.34078840  1.0
  Ni  Ni326  1  0.22372200  0.69086500  0.34078840  1.0
  Ni  Ni327  1  0.55705533  0.02419833  0.34078840  1.0
  Ni  Ni328  1  0.55705533  0.35753167  0.34078840  1.0
  Ni  Ni329  1  0.55705533  0.69086500  0.34078840  1.0
  Ni  Ni330  1  0.89038867  0.02419833  0.34078840  1.0
  Ni  Ni331  1  0.89038867  0.35753167  0.34078840  1.0
  Ni  Ni332  1  0.89038867  0.69086500  0.34078840  1.0
  Ni  Ni333  1  0.22372200  0.19086500  0.24078840  1.0
  Ni  Ni334  1  0.22372200  0.52419833  0.24078840  1.0
  Ni  Ni335  1  0.22372200  0.85753167  0.24078840  1.0
  Ni  Ni336  1  0.55705533  0.19086500  0.24078840  1.0
  Ni  Ni337  1  0.55705533  0.52419833  0.24078840  1.0
  Ni  Ni338  1  0.55705533  0.85753167  0.24078840  1.0
  Ni  Ni339  1  0.89038867  0.19086500  0.24078840  1.0
  Ni  Ni340  1  0.89038867  0.52419833  0.24078840  1.0
  Ni  Ni341  1  0.89038867  0.85753167  0.24078840  1.0
  Ni  Ni342  1  0.27219733  0.05913500  0.29074120  1.0
  Ni  Ni343  1  0.27219733  0.39246833  0.29074120  1.0
  Ni  Ni344  1  0.27219733  0.72580167  0.29074120  1.0
  Ni  Ni345  1  0.60553067  0.05913500  0.29074120  1.0
  Ni  Ni346  1  0.60553067  0.39246833  0.29074120  1.0
  Ni  Ni347  1  0.60553067  0.72580167  0.29074120  1.0
  Ni  Ni348  1  0.93886400  0.05913500  0.29074120  1.0
  Ni  Ni349  1  0.93886400  0.39246833  0.29074120  1.0
  Ni  Ni350  1  0.93886400  0.72580167  0.29074120  1.0
  Ni  Ni351  1  0.27219733  0.22580167  0.39074120  1.0
  Ni  Ni352  1  0.27219733  0.55913500  0.39074120  1.0
  Ni  Ni353  1  0.27219733  0.89246833  0.39074120  1.0
  Ni  Ni354  1  0.60553067  0.22580167  0.39074120  1.0
  Ni  Ni355  1  0.60553067  0.55913500  0.39074120  1.0
  Ni  Ni356  1  0.60553067  0.89246833  0.39074120  1.0
  Ni  Ni357  1  0.93886400  0.22580167  0.39074120  1.0
  Ni  Ni358  1  0.93886400  0.55913500  0.39074120  1.0
  Ni  Ni359  1  0.93886400  0.89246833  0.39074120  1.0
  Ni  Ni360  1  0.00000000  0.08333333  0.24198900  1.0
  Ni  Ni361  1  0.00000000  0.41666667  0.24198900  1.0
  Ni  Ni362  1  0.00000000  0.75000000  0.24198900  1.0
  Ni  Ni363  1  0.33333333  0.08333333  0.24198900  1.0
  Ni  Ni364  1  0.33333333  0.41666667  0.24198900  1.0
  Ni  Ni365  1  0.33333333  0.75000000  0.24198900  1.0
  Ni  Ni366  1  0.66666667  0.08333333  0.24198900  1.0
  Ni  Ni367  1  0.66666667  0.41666667  0.24198900  1.0
  Ni  Ni368  1  0.66666667  0.75000000  0.24198900  1.0
  Ni  Ni369  1  0.00000000  0.25000000  0.34198900  1.0
  Ni  Ni370  1  0.00000000  0.58333333  0.34198900  1.0
  Ni  Ni371  1  0.00000000  0.91666667  0.34198900  1.0
  Ni  Ni372  1  0.33333333  0.25000000  0.34198900  1.0
  Ni  Ni373  1  0.33333333  0.58333333  0.34198900  1.0
  Ni  Ni374  1  0.33333333  0.91666667  0.34198900  1.0
  Ni  Ni375  1  0.66666667  0.25000000  0.34198900  1.0
  Ni  Ni376  1  0.66666667  0.58333333  0.34198900  1.0
  Ni  Ni377  1  0.66666667  0.91666667  0.34198900  1.0
  Ni  Ni378  1  0.16666667  0.00000000  0.39198900  1.0
  Ni  Ni379  1  0.16666667  0.33333333  0.39198900  1.0
  Ni  Ni380  1  0.16666667  0.66666667  0.39198900  1.0
  Ni  Ni381  1  0.50000000  0.00000000  0.39198900  1.0
  Ni  Ni382  1  0.50000000  0.33333333  0.39198900  1.0
  Ni  Ni383  1  0.50000000  0.66666667  0.39198900  1.0
  Ni  Ni384  1  0.83333333  0.00000000  0.39198900  1.0
  Ni  Ni385  1  0.83333333  0.33333333  0.39198900  1.0
  Ni  Ni386  1  0.83333333  0.66666667  0.39198900  1.0
  Ni  Ni387  1  0.16666667  0.16666667  0.29198900  1.0
  Ni  Ni388  1  0.16666667  0.50000000  0.29198900  1.0
  Ni  Ni389  1  0.16666667  0.83333333  0.29198900  1.0
  Ni  Ni390  1  0.50000000  0.16666667  0.29198900  1.0
  Ni  Ni391  1  0.50000000  0.50000000  0.29198900  1.0
  Ni  Ni392  1  0.50000000  0.83333333  0.29198900  1.0
  Ni  Ni393  1  0.83333333  0.16666667  0.29198900  1.0
  Ni  Ni394  1  0.83333333  0.50000000  0.29198900  1.0
  Ni  Ni395  1  0.83333333  0.83333333  0.29198900  1.0
  Ni  Ni396  1  0.08743300  0.06933617  0.33306250  1.0
  Ni  Ni397  1  0.08743300  0.40266950  0.33306250  1.0
  Ni  Ni398  1  0.08743300  0.73600283  0.33306250  1.0
  Ni  Ni399  1  0.42076633  0.06933617  0.33306250  1.0
  Ni  Ni400  1  0.42076633  0.40266950  0.33306250  1.0
  Ni  Ni401  1  0.42076633  0.73600283  0.33306250  1.0
  Ni  Ni402  1  0.75409967  0.06933617  0.33306250  1.0
  Ni  Ni403  1  0.75409967  0.40266950  0.33306250  1.0
  Ni  Ni404  1  0.75409967  0.73600283  0.33306250  1.0
  Ni  Ni405  1  0.08743300  0.23600283  0.23306250  1.0
  Ni  Ni406  1  0.08743300  0.56933617  0.23306250  1.0
  Ni  Ni407  1  0.08743300  0.90266950  0.23306250  1.0
  Ni  Ni408  1  0.42076633  0.23600283  0.23306250  1.0
  Ni  Ni409  1  0.42076633  0.56933617  0.23306250  1.0
  Ni  Ni410  1  0.42076633  0.90266950  0.23306250  1.0
  Ni  Ni411  1  0.75409967  0.23600283  0.23306250  1.0
  Ni  Ni412  1  0.75409967  0.56933617  0.23306250  1.0
  Ni  Ni413  1  0.75409967  0.90266950  0.23306250  1.0
  Ni  Ni414  1  0.30445867  0.01399717  0.23605050  1.0
  Ni  Ni415  1  0.30445867  0.34733050  0.23605050  1.0
  Ni  Ni416  1  0.30445867  0.68066383  0.23605050  1.0
  Ni  Ni417  1  0.63779200  0.01399717  0.23605050  1.0
  Ni  Ni418  1  0.63779200  0.34733050  0.23605050  1.0
  Ni  Ni419  1  0.63779200  0.68066383  0.23605050  1.0
  Ni  Ni420  1  0.97112533  0.01399717  0.23605050  1.0
  Ni  Ni421  1  0.97112533  0.34733050  0.23605050  1.0
  Ni  Ni422  1  0.97112533  0.68066383  0.23605050  1.0
  Ni  Ni423  1  0.30445867  0.18066383  0.33605050  1.0
  Ni  Ni424  1  0.30445867  0.51399717  0.33605050  1.0
  Ni  Ni425  1  0.30445867  0.84733050  0.33605050  1.0
  Ni  Ni426  1  0.63779200  0.18066383  0.33605050  1.0
  Ni  Ni427  1  0.63779200  0.51399717  0.33605050  1.0
  Ni  Ni428  1  0.63779200  0.84733050  0.33605050  1.0
  Ni  Ni429  1  0.97112533  0.18066383  0.33605050  1.0
  Ni  Ni430  1  0.97112533  0.51399717  0.33605050  1.0
  Ni  Ni431  1  0.97112533  0.84733050  0.33605050  1.0
  Ni  Ni432  1  0.24590033  0.09733050  0.35091550  1.0
  Ni  Ni433  1  0.24590033  0.43066383  0.35091550  1.0
  Ni  Ni434  1  0.24590033  0.76399717  0.35091550  1.0
  Ni  Ni435  1  0.57923367  0.09733050  0.35091550  1.0
  Ni  Ni436  1  0.57923367  0.43066383  0.35091550  1.0
  Ni  Ni437  1  0.57923367  0.76399717  0.35091550  1.0
  Ni  Ni438  1  0.91256700  0.09733050  0.35091550  1.0
  Ni  Ni439  1  0.91256700  0.43066383  0.35091550  1.0
  Ni  Ni440  1  0.91256700  0.76399717  0.35091550  1.0
  Ni  Ni441  1  0.24590033  0.26399717  0.25091550  1.0
  Ni  Ni442  1  0.24590033  0.59733050  0.25091550  1.0
  Ni  Ni443  1  0.24590033  0.93066383  0.25091550  1.0
  Ni  Ni444  1  0.57923367  0.26399717  0.25091550  1.0
  Ni  Ni445  1  0.57923367  0.59733050  0.25091550  1.0
  Ni  Ni446  1  0.57923367  0.93066383  0.25091550  1.0
  Ni  Ni447  1  0.91256700  0.26399717  0.25091550  1.0
  Ni  Ni448  1  0.91256700  0.59733050  0.25091550  1.0
  Ni  Ni449  1  0.91256700  0.93066383  0.25091550  1.0
  Ni  Ni450  1  0.02887467  0.15266950  0.24792750  1.0
  Ni  Ni451  1  0.02887467  0.48600283  0.24792750  1.0
  Ni  Ni452  1  0.02887467  0.81933617  0.24792750  1.0
  Ni  Ni453  1  0.36220800  0.15266950  0.24792750  1.0
  Ni  Ni454  1  0.36220800  0.48600283  0.24792750  1.0
  Ni  Ni455  1  0.36220800  0.81933617  0.24792750  1.0
  Ni  Ni456  1  0.69554133  0.15266950  0.24792750  1.0
  Ni  Ni457  1  0.69554133  0.48600283  0.24792750  1.0
  Ni  Ni458  1  0.69554133  0.81933617  0.24792750  1.0
  Ni  Ni459  1  0.02887467  0.31933617  0.34792750  1.0
  Ni  Ni460  1  0.02887467  0.65266950  0.34792750  1.0
  Ni  Ni461  1  0.02887467  0.98600283  0.34792750  1.0
  Ni  Ni462  1  0.36220800  0.31933617  0.34792750  1.0
  Ni  Ni463  1  0.36220800  0.65266950  0.34792750  1.0
  Ni  Ni464  1  0.36220800  0.98600283  0.34792750  1.0
  Ni  Ni465  1  0.69554133  0.31933617  0.34792750  1.0
  Ni  Ni466  1  0.69554133  0.65266950  0.34792750  1.0
  Ni  Ni467  1  0.69554133  0.98600283  0.34792750  1.0
  Ge  Ge468  1  0.03476567  0.04166667  0.38784840  1.0
  Ge  Ge469  1  0.03476567  0.37500000  0.38784840  1.0
  Ge  Ge470  1  0.03476567  0.70833333  0.38784840  1.0
  Ge  Ge471  1  0.36809900  0.04166667  0.38784840  1.0
  Ge  Ge472  1  0.36809900  0.37500000  0.38784840  1.0
  Ge  Ge473  1  0.36809900  0.70833333  0.38784840  1.0
  Ge  Ge474  1  0.70143233  0.04166667  0.38784840  1.0
  Ge  Ge475  1  0.70143233  0.37500000  0.38784840  1.0
  Ge  Ge476  1  0.70143233  0.70833333  0.38784840  1.0
  Ge  Ge477  1  0.03476567  0.20833333  0.28784840  1.0
  Ge  Ge478  1  0.03476567  0.54166667  0.28784840  1.0
  Ge  Ge479  1  0.03476567  0.87500000  0.28784840  1.0
  Ge  Ge480  1  0.36809900  0.20833333  0.28784840  1.0
  Ge  Ge481  1  0.36809900  0.54166667  0.28784840  1.0
  Ge  Ge482  1  0.36809900  0.87500000  0.28784840  1.0
  Ge  Ge483  1  0.70143233  0.20833333  0.28784840  1.0
  Ge  Ge484  1  0.70143233  0.54166667  0.28784840  1.0
  Ge  Ge485  1  0.70143233  0.87500000  0.28784840  1.0
  Ge  Ge486  1  0.29856767  0.12500000  0.29612960  1.0
  Ge  Ge487  1  0.29856767  0.45833333  0.29612960  1.0
  Ge  Ge488  1  0.29856767  0.79166667  0.29612960  1.0
  Ge  Ge489  1  0.63190100  0.12500000  0.29612960  1.0
  Ge  Ge490  1  0.63190100  0.45833333  0.29612960  1.0
  Ge  Ge491  1  0.63190100  0.79166667  0.29612960  1.0
  Ge  Ge492  1  0.96523433  0.12500000  0.29612960  1.0
  Ge  Ge493  1  0.96523433  0.45833333  0.29612960  1.0
  Ge  Ge494  1  0.96523433  0.79166667  0.29612960  1.0
  Ge  Ge495  1  0.29856767  0.29166667  0.39612960  1.0
  Ge  Ge496  1  0.29856767  0.62500000  0.39612960  1.0
  Ge  Ge497  1  0.29856767  0.95833333  0.39612960  1.0
  Ge  Ge498  1  0.63190100  0.29166667  0.39612960  1.0
  Ge  Ge499  1  0.63190100  0.62500000  0.39612960  1.0
  Ge  Ge500  1  0.63190100  0.95833333  0.39612960  1.0
  Ge  Ge501  1  0.96523433  0.29166667  0.39612960  1.0
  Ge  Ge502  1  0.96523433  0.62500000  0.39612960  1.0
  Ge  Ge503  1  0.96523433  0.95833333  0.39612960  1.0
  Ge  Ge504  1  0.13908667  0.09111100  0.28025180  1.0
  Ge  Ge505  1  0.13908667  0.42444433  0.28025180  1.0
  Ge  Ge506  1  0.13908667  0.75777767  0.28025180  1.0
  Ge  Ge507  1  0.47242000  0.09111100  0.28025180  1.0
  Ge  Ge508  1  0.47242000  0.42444433  0.28025180  1.0
  Ge  Ge509  1  0.47242000  0.75777767  0.28025180  1.0
  Ge  Ge510  1  0.80575333  0.09111100  0.28025180  1.0
  Ge  Ge511  1  0.80575333  0.42444433  0.28025180  1.0
  Ge  Ge512  1  0.80575333  0.75777767  0.28025180  1.0
  Ge  Ge513  1  0.13908667  0.25777767  0.38025180  1.0
  Ge  Ge514  1  0.13908667  0.59111100  0.38025180  1.0
  Ge  Ge515  1  0.13908667  0.92444433  0.38025180  1.0
  Ge  Ge516  1  0.47242000  0.25777767  0.38025180  1.0
  Ge  Ge517  1  0.47242000  0.59111100  0.38025180  1.0
  Ge  Ge518  1  0.47242000  0.92444433  0.38025180  1.0
  Ge  Ge519  1  0.80575333  0.25777767  0.38025180  1.0
  Ge  Ge520  1  0.80575333  0.59111100  0.38025180  1.0
  Ge  Ge521  1  0.80575333  0.92444433  0.38025180  1.0
  Ge  Ge522  1  0.23821567  0.15888900  0.38010760  1.0
  Ge  Ge523  1  0.23821567  0.49222233  0.38010760  1.0
  Ge  Ge524  1  0.23821567  0.82555567  0.38010760  1.0
  Ge  Ge525  1  0.57154900  0.15888900  0.38010760  1.0
  Ge  Ge526  1  0.57154900  0.49222233  0.38010760  1.0
  Ge  Ge527  1  0.57154900  0.82555567  0.38010760  1.0
  Ge  Ge528  1  0.90488233  0.15888900  0.38010760  1.0
  Ge  Ge529  1  0.90488233  0.49222233  0.38010760  1.0
  Ge  Ge530  1  0.90488233  0.82555567  0.38010760  1.0
  Ge  Ge531  1  0.23821567  0.32555567  0.28010760  1.0
  Ge  Ge532  1  0.23821567  0.65888900  0.28010760  1.0
  Ge  Ge533  1  0.23821567  0.99222233  0.28010760  1.0
  Ge  Ge534  1  0.57154900  0.32555567  0.28010760  1.0
  Ge  Ge535  1  0.57154900  0.65888900  0.28010760  1.0
  Ge  Ge536  1  0.57154900  0.99222233  0.28010760  1.0
  Ge  Ge537  1  0.90488233  0.32555567  0.28010760  1.0
  Ge  Ge538  1  0.90488233  0.65888900  0.28010760  1.0
  Ge  Ge539  1  0.90488233  0.99222233  0.28010760  1.0
  Ge  Ge540  1  0.19424667  0.07555567  0.20372620  1.0
  Ge  Ge541  1  0.19424667  0.40888900  0.20372620  1.0
  Ge  Ge542  1  0.19424667  0.74222233  0.20372620  1.0
  Ge  Ge543  1  0.52758000  0.07555567  0.20372620  1.0
  Ge  Ge544  1  0.52758000  0.40888900  0.20372620  1.0
  Ge  Ge545  1  0.52758000  0.74222233  0.20372620  1.0
  Ge  Ge546  1  0.86091333  0.07555567  0.20372620  1.0
  Ge  Ge547  1  0.86091333  0.40888900  0.20372620  1.0
  Ge  Ge548  1  0.86091333  0.74222233  0.20372620  1.0
  Ge  Ge549  1  0.19424667  0.24222233  0.30372620  1.0
  Ge  Ge550  1  0.19424667  0.57555567  0.30372620  1.0
  Ge  Ge551  1  0.19424667  0.90888900  0.30372620  1.0
  Ge  Ge552  1  0.52758000  0.24222233  0.30372620  1.0
  Ge  Ge553  1  0.52758000  0.57555567  0.30372620  1.0
  Ge  Ge554  1  0.52758000  0.90888900  0.30372620  1.0
  Ge  Ge555  1  0.86091333  0.24222233  0.30372620  1.0
  Ge  Ge556  1  0.86091333  0.57555567  0.30372620  1.0
  Ge  Ge557  1  0.86091333  0.90888900  0.30372620  1.0
  Ge  Ge558  1  0.09511767  0.00777767  0.30387040  1.0
  Ge  Ge559  1  0.09511767  0.34111100  0.30387040  1.0
  Ge  Ge560  1  0.09511767  0.67444433  0.30387040  1.0
  Ge  Ge561  1  0.42845100  0.00777767  0.30387040  1.0
  Ge  Ge562  1  0.42845100  0.34111100  0.30387040  1.0
  Ge  Ge563  1  0.42845100  0.67444433  0.30387040  1.0
  Ge  Ge564  1  0.76178433  0.00777767  0.30387040  1.0
  Ge  Ge565  1  0.76178433  0.34111100  0.30387040  1.0
  Ge  Ge566  1  0.76178433  0.67444433  0.30387040  1.0
  Ge  Ge567  1  0.09511767  0.17444433  0.20387040  1.0
  Ge  Ge568  1  0.09511767  0.50777767  0.20387040  1.0
  Ge  Ge569  1  0.09511767  0.84111100  0.20387040  1.0
  Ge  Ge570  1  0.42845100  0.17444433  0.20387040  1.0
  Ge  Ge571  1  0.42845100  0.50777767  0.20387040  1.0
  Ge  Ge572  1  0.42845100  0.84111100  0.20387040  1.0
  Ge  Ge573  1  0.76178433  0.17444433  0.20387040  1.0
  Ge  Ge574  1  0.76178433  0.50777767  0.20387040  1.0
  Ge  Ge575  1  0.76178433  0.84111100  0.20387040  1.0
