# generated using pymatgen
data_Ni5Sb2
_symmetry_space_group_name_H-M   'P 1'
_cell_length_a   16.24998600
_cell_length_b   21.17727643
_cell_length_c   30.71383630
_cell_angle_alpha   116.12814710
_cell_angle_beta   90.00000000
_cell_angle_gamma   67.43907440
_symmetry_Int_Tables_number   1
_chemical_formula_structural   Ni5Sb2
_chemical_formula_sum   'Ni180 Sb72'
_cell_volume   8579.37549353
_cell_formula_units_Z   36
loop_
 _symmetry_equiv_pos_site_id
 _symmetry_equiv_pos_as_xyz
  1  'x, y, z'
loop_
 _atom_site_type_symbol
 _atom_site_label
 _atom_site_symmetry_multiplicity
 _atom_site_fract_x
 _atom_site_fract_y
 _atom_site_fract_z
 _atom_site_occupancy
  Ni  Ni0  1  0.25066767  0.33333333  0.18030100  1.0
  Ni  Ni1  1  0.25066767  0.66666667  0.18030100  1.0
  Ni  Ni2  1  0.25066767  0.00000000  0.18030100  1.0
  Ni  Ni3  1  0.58400100  0.33333333  0.18030100  1.0
  Ni  Ni4  1  0.58400100  0.66666667  0.18030100  1.0
  Ni  Ni5  1  0.58400100  0.00000000  0.18030100  1.0
  Ni  Ni6  1  0.91733433  0.33333333  0.18030100  1.0
  Ni  Ni7  1  0.91733433  0.66666667  0.18030100  1.0
  Ni  Ni8  1  0.91733433  0.00000000  0.18030100  1.0
  Ni  Ni9  1  0.08266567  0.00000000  0.18030100  1.0
  Ni  Ni10  1  0.08266567  0.33333333  0.18030100  1.0
  Ni  Ni11  1  0.08266567  0.66666667  0.18030100  1.0
  Ni  Ni12  1  0.41599900  0.00000000  0.18030100  1.0
  Ni  Ni13  1  0.41599900  0.33333333  0.18030100  1.0
  Ni  Ni14  1  0.41599900  0.66666667  0.18030100  1.0
  Ni  Ni15  1  0.74933233  0.00000000  0.18030100  1.0
  Ni  Ni16  1  0.74933233  0.33333333  0.18030100  1.0
  Ni  Ni17  1  0.74933233  0.66666667  0.18030100  1.0
  Ni  Ni18  1  0.12406900  0.08519533  0.06131880  1.0
  Ni  Ni19  1  0.12406900  0.41852867  0.06131880  1.0
  Ni  Ni20  1  0.12406900  0.75186200  0.06131880  1.0
  Ni  Ni21  1  0.45740233  0.08519533  0.06131880  1.0
  Ni  Ni22  1  0.45740233  0.41852867  0.06131880  1.0
  Ni  Ni23  1  0.45740233  0.75186200  0.06131880  1.0
  Ni  Ni24  1  0.79073567  0.08519533  0.06131880  1.0
  Ni  Ni25  1  0.79073567  0.41852867  0.06131880  1.0
  Ni  Ni26  1  0.79073567  0.75186200  0.06131880  1.0
  Ni  Ni27  1  0.20926433  0.24813800  0.09928320  1.0
  Ni  Ni28  1  0.20926433  0.58147133  0.09928320  1.0
  Ni  Ni29  1  0.20926433  0.91480467  0.09928320  1.0
  Ni  Ni30  1  0.54259767  0.24813800  0.09928320  1.0
  Ni  Ni31  1  0.54259767  0.58147133  0.09928320  1.0
  Ni  Ni32  1  0.54259767  0.91480467  0.09928320  1.0
  Ni  Ni33  1  0.87593100  0.24813800  0.09928320  1.0
  Ni  Ni34  1  0.87593100  0.58147133  0.09928320  1.0
  Ni  Ni35  1  0.87593100  0.91480467  0.09928320  1.0
  Ni  Ni36  1  0.29938867  0.06788933  0.13998100  1.0
  Ni  Ni37  1  0.29938867  0.40122267  0.13998100  1.0
  Ni  Ni38  1  0.29938867  0.73455600  0.13998100  1.0
  Ni  Ni39  1  0.63272200  0.06788933  0.13998100  1.0
  Ni  Ni40  1  0.63272200  0.40122267  0.13998100  1.0
  Ni  Ni41  1  0.63272200  0.73455600  0.13998100  1.0
  Ni  Ni42  1  0.96605533  0.06788933  0.13998100  1.0
  Ni  Ni43  1  0.96605533  0.40122267  0.13998100  1.0
  Ni  Ni44  1  0.96605533  0.73455600  0.13998100  1.0
  Ni  Ni45  1  0.03394467  0.26544400  0.02062100  1.0
  Ni  Ni46  1  0.03394467  0.59877733  0.02062100  1.0
  Ni  Ni47  1  0.03394467  0.93211067  0.02062100  1.0
  Ni  Ni48  1  0.36727800  0.26544400  0.02062100  1.0
  Ni  Ni49  1  0.36727800  0.59877733  0.02062100  1.0
  Ni  Ni50  1  0.36727800  0.93211067  0.02062100  1.0
  Ni  Ni51  1  0.70061133  0.26544400  0.02062100  1.0
  Ni  Ni52  1  0.70061133  0.59877733  0.02062100  1.0
  Ni  Ni53  1  0.70061133  0.93211067  0.02062100  1.0
  Ni  Ni54  1  0.17456567  0.15267333  0.02018740  1.0
  Ni  Ni55  1  0.17456567  0.48600667  0.02018740  1.0
  Ni  Ni56  1  0.17456567  0.81934000  0.02018740  1.0
  Ni  Ni57  1  0.50789900  0.15267333  0.02018740  1.0
  Ni  Ni58  1  0.50789900  0.48600667  0.02018740  1.0
  Ni  Ni59  1  0.50789900  0.81934000  0.02018740  1.0
  Ni  Ni60  1  0.84123233  0.15267333  0.02018740  1.0
  Ni  Ni61  1  0.84123233  0.48600667  0.02018740  1.0
  Ni  Ni62  1  0.84123233  0.81934000  0.02018740  1.0
  Ni  Ni63  1  0.32723900  0.18066000  0.14041460  1.0
  Ni  Ni64  1  0.32723900  0.51399333  0.14041460  1.0
  Ni  Ni65  1  0.32723900  0.84732667  0.14041460  1.0
  Ni  Ni66  1  0.66057233  0.18066000  0.14041460  1.0
  Ni  Ni67  1  0.66057233  0.51399333  0.14041460  1.0
  Ni  Ni68  1  0.66057233  0.84732667  0.14041460  1.0
  Ni  Ni69  1  0.99390567  0.18066000  0.14041460  1.0
  Ni  Ni70  1  0.99390567  0.51399333  0.14041460  1.0
  Ni  Ni71  1  0.99390567  0.84732667  0.14041460  1.0
  Ni  Ni72  1  0.00609433  0.15267333  0.02018740  1.0
  Ni  Ni73  1  0.00609433  0.48600667  0.02018740  1.0
  Ni  Ni74  1  0.00609433  0.81934000  0.02018740  1.0
  Ni  Ni75  1  0.33942767  0.15267333  0.02018740  1.0
  Ni  Ni76  1  0.33942767  0.48600667  0.02018740  1.0
  Ni  Ni77  1  0.33942767  0.81934000  0.02018740  1.0
  Ni  Ni78  1  0.67276100  0.15267333  0.02018740  1.0
  Ni  Ni79  1  0.67276100  0.48600667  0.02018740  1.0
  Ni  Ni80  1  0.67276100  0.81934000  0.02018740  1.0
  Ni  Ni81  1  0.15876767  0.18066000  0.14041460  1.0
  Ni  Ni82  1  0.15876767  0.51399333  0.14041460  1.0
  Ni  Ni83  1  0.15876767  0.84732667  0.14041460  1.0
  Ni  Ni84  1  0.49210100  0.18066000  0.14041460  1.0
  Ni  Ni85  1  0.49210100  0.51399333  0.14041460  1.0
  Ni  Ni86  1  0.49210100  0.84732667  0.14041460  1.0
  Ni  Ni87  1  0.82543433  0.18066000  0.14041460  1.0
  Ni  Ni88  1  0.82543433  0.51399333  0.14041460  1.0
  Ni  Ni89  1  0.82543433  0.84732667  0.14041460  1.0
  Sb  Sb90  1  0.29102933  0.08460800  0.06118260  1.0
  Sb  Sb91  1  0.29102933  0.41794133  0.06118260  1.0
  Sb  Sb92  1  0.29102933  0.75127467  0.06118260  1.0
  Sb  Sb93  1  0.62436267  0.08460800  0.06118260  1.0
  Sb  Sb94  1  0.62436267  0.41794133  0.06118260  1.0
  Sb  Sb95  1  0.62436267  0.75127467  0.06118260  1.0
  Sb  Sb96  1  0.95769600  0.08460800  0.06118260  1.0
  Sb  Sb97  1  0.95769600  0.41794133  0.06118260  1.0
  Sb  Sb98  1  0.95769600  0.75127467  0.06118260  1.0
  Sb  Sb99  1  0.04230400  0.24872533  0.09941940  1.0
  Sb  Sb100  1  0.04230400  0.58205867  0.09941940  1.0
  Sb  Sb101  1  0.04230400  0.91539200  0.09941940  1.0
  Sb  Sb102  1  0.37563733  0.24872533  0.09941940  1.0
  Sb  Sb103  1  0.37563733  0.58205867  0.09941940  1.0
  Sb  Sb104  1  0.37563733  0.91539200  0.09941940  1.0
  Sb  Sb105  1  0.70897067  0.24872533  0.09941940  1.0
  Sb  Sb106  1  0.70897067  0.58205867  0.09941940  1.0
  Sb  Sb107  1  0.70897067  0.91539200  0.09941940  1.0
  Sb  Sb108  1  0.13239067  0.06855200  0.14090300  1.0
  Sb  Sb109  1  0.13239067  0.40188533  0.14090300  1.0
  Sb  Sb110  1  0.13239067  0.73521867  0.14090300  1.0
  Sb  Sb111  1  0.46572400  0.06855200  0.14090300  1.0
  Sb  Sb112  1  0.46572400  0.40188533  0.14090300  1.0
  Sb  Sb113  1  0.46572400  0.73521867  0.14090300  1.0
  Sb  Sb114  1  0.79905733  0.06855200  0.14090300  1.0
  Sb  Sb115  1  0.79905733  0.40188533  0.14090300  1.0
  Sb  Sb116  1  0.79905733  0.73521867  0.14090300  1.0
  Sb  Sb117  1  0.20094267  0.26478133  0.01969900  1.0
  Sb  Sb118  1  0.20094267  0.59811467  0.01969900  1.0
  Sb  Sb119  1  0.20094267  0.93144800  0.01969900  1.0
  Sb  Sb120  1  0.53427600  0.26478133  0.01969900  1.0
  Sb  Sb121  1  0.53427600  0.59811467  0.01969900  1.0
  Sb  Sb122  1  0.53427600  0.93144800  0.01969900  1.0
  Sb  Sb123  1  0.86760933  0.26478133  0.01969900  1.0
  Sb  Sb124  1  0.86760933  0.59811467  0.01969900  1.0
  Sb  Sb125  1  0.86760933  0.93144800  0.01969900  1.0
  Ni  Ni126  1  0.25066767  0.33333333  0.38030100  1.0
  Ni  Ni127  1  0.25066767  0.66666667  0.38030100  1.0
  Ni  Ni128  1  0.25066767  0.00000000  0.38030100  1.0
  Ni  Ni129  1  0.58400100  0.33333333  0.38030100  1.0
  Ni  Ni130  1  0.58400100  0.66666667  0.38030100  1.0
  Ni  Ni131  1  0.58400100  0.00000000  0.38030100  1.0
  Ni  Ni132  1  0.91733433  0.33333333  0.38030100  1.0
  Ni  Ni133  1  0.91733433  0.66666667  0.38030100  1.0
  Ni  Ni134  1  0.91733433  0.00000000  0.38030100  1.0
  Ni  Ni135  1  0.08266567  0.00000000  0.38030100  1.0
  Ni  Ni136  1  0.08266567  0.33333333  0.38030100  1.0
  Ni  Ni137  1  0.08266567  0.66666667  0.38030100  1.0
  Ni  Ni138  1  0.41599900  0.00000000  0.38030100  1.0
  Ni  Ni139  1  0.41599900  0.33333333  0.38030100  1.0
  Ni  Ni140  1  0.41599900  0.66666667  0.38030100  1.0
  Ni  Ni141  1  0.74933233  0.00000000  0.38030100  1.0
  Ni  Ni142  1  0.74933233  0.33333333  0.38030100  1.0
  Ni  Ni143  1  0.74933233  0.66666667  0.38030100  1.0
  Ni  Ni144  1  0.12406900  0.08519533  0.26131880  1.0
  Ni  Ni145  1  0.12406900  0.41852867  0.26131880  1.0
  Ni  Ni146  1  0.12406900  0.75186200  0.26131880  1.0
  Ni  Ni147  1  0.45740233  0.08519533  0.26131880  1.0
  Ni  Ni148  1  0.45740233  0.41852867  0.26131880  1.0
  Ni  Ni149  1  0.45740233  0.75186200  0.26131880  1.0
  Ni  Ni150  1  0.79073567  0.08519533  0.26131880  1.0
  Ni  Ni151  1  0.79073567  0.41852867  0.26131880  1.0
  Ni  Ni152  1  0.79073567  0.75186200  0.26131880  1.0
  Ni  Ni153  1  0.20926433  0.24813800  0.29928320  1.0
  Ni  Ni154  1  0.20926433  0.58147133  0.29928320  1.0
  Ni  Ni155  1  0.20926433  0.91480467  0.29928320  1.0
  Ni  Ni156  1  0.54259767  0.24813800  0.29928320  1.0
  Ni  Ni157  1  0.54259767  0.58147133  0.29928320  1.0
  Ni  Ni158  1  0.54259767  0.91480467  0.29928320  1.0
  Ni  Ni159  1  0.87593100  0.24813800  0.29928320  1.0
  Ni  Ni160  1  0.87593100  0.58147133  0.29928320  1.0
  Ni  Ni161  1  0.87593100  0.91480467  0.29928320  1.0
  Ni  Ni162  1  0.29938867  0.06788933  0.33998100  1.0
  Ni  Ni163  1  0.29938867  0.40122267  0.33998100  1.0
  Ni  Ni164  1  0.29938867  0.73455600  0.33998100  1.0
  Ni  Ni165  1  0.63272200  0.06788933  0.33998100  1.0
  Ni  Ni166  1  0.63272200  0.40122267  0.33998100  1.0
  Ni  Ni167  1  0.63272200  0.73455600  0.33998100  1.0
  Ni  Ni168  1  0.96605533  0.06788933  0.33998100  1.0
  Ni  Ni169  1  0.96605533  0.40122267  0.33998100  1.0
  Ni  Ni170  1  0.96605533  0.73455600  0.33998100  1.0
  Ni  Ni171  1  0.03394467  0.26544400  0.22062100  1.0
  Ni  Ni172  1  0.03394467  0.59877733  0.22062100  1.0
  Ni  Ni173  1  0.03394467  0.93211067  0.22062100  1.0
  Ni  Ni174  1  0.36727800  0.26544400  0.22062100  1.0
  Ni  Ni175  1  0.36727800  0.59877733  0.22062100  1.0
  Ni  Ni176  1  0.36727800  0.93211067  0.22062100  1.0
  Ni  Ni177  1  0.70061133  0.26544400  0.22062100  1.0
  Ni  Ni178  1  0.70061133  0.59877733  0.22062100  1.0
  Ni  Ni179  1  0.70061133  0.93211067  0.22062100  1.0
  Ni  Ni180  1  0.17456567  0.15267333  0.22018740  1.0
  Ni  Ni181  1  0.17456567  0.48600667  0.22018740  1.0
  Ni  Ni182  1  0.17456567  0.81934000  0.22018740  1.0
  Ni  Ni183  1  0.50789900  0.15267333  0.22018740  1.0
  Ni  Ni184  1  0.50789900  0.48600667  0.22018740  1.0
  Ni  Ni185  1  0.50789900  0.81934000  0.22018740  1.0
  Ni  Ni186  1  0.84123233  0.15267333  0.22018740  1.0
  Ni  Ni187  1  0.84123233  0.48600667  0.22018740  1.0
  Ni  Ni188  1  0.84123233  0.81934000  0.22018740  1.0
  Ni  Ni189  1  0.32723900  0.18066000  0.34041460  1.0
  Ni  Ni190  1  0.32723900  0.51399333  0.34041460  1.0
  Ni  Ni191  1  0.32723900  0.84732667  0.34041460  1.0
  Ni  Ni192  1  0.66057233  0.18066000  0.34041460  1.0
  Ni  Ni193  1  0.66057233  0.51399333  0.34041460  1.0
  Ni  Ni194  1  0.66057233  0.84732667  0.34041460  1.0
  Ni  Ni195  1  0.99390567  0.18066000  0.34041460  1.0
  Ni  Ni196  1  0.99390567  0.51399333  0.34041460  1.0
  Ni  Ni197  1  0.99390567  0.84732667  0.34041460  1.0
  Ni  Ni198  1  0.00609433  0.15267333  0.22018740  1.0
  Ni  Ni199  1  0.00609433  0.48600667  0.22018740  1.0
  Ni  Ni200  1  0.00609433  0.81934000  0.22018740  1.0
  Ni  Ni201  1  0.33942767  0.15267333  0.22018740  1.0
  Ni  Ni202  1  0.33942767  0.48600667  0.22018740  1.0
  Ni  Ni203  1  0.33942767  0.81934000  0.22018740  1.0
  Ni  Ni204  1  0.67276100  0.15267333  0.22018740  1.0
  Ni  Ni205  1  0.67276100  0.48600667  0.22018740  1.0
  Ni  Ni206  1  0.67276100  0.81934000  0.22018740  1.0
  Ni  Ni207  1  0.15876767  0.18066000  0.34041460  1.0
  Ni  Ni208  1  0.15876767  0.51399333  0.34041460  1.0
  Ni  Ni209  1  0.15876767  0.84732667  0.34041460  1.0
  Ni  Ni210  1  0.49210100  0.18066000  0.34041460  1.0
  Ni  Ni211  1  0.49210100  0.51399333  0.34041460  1.0
  Ni  Ni212  1  0.49210100  0.84732667  0.34041460  1.0
  Ni  Ni213  1  0.82543433  0.18066000  0.34041460  1.0
  Ni  Ni214  1  0.82543433  0.51399333  0.34041460  1.0
  Ni  Ni215  1  0.82543433  0.84732667  0.34041460  1.0
  Sb  Sb216  1  0.29102933  0.08460800  0.26118260  1.0
  Sb  Sb217  1  0.29102933  0.41794133  0.26118260  1.0
  Sb  Sb218  1  0.29102933  0.75127467  0.26118260  1.0
  Sb  Sb219  1  0.62436267  0.08460800  0.26118260  1.0
  Sb  Sb220  1  0.62436267  0.41794133  0.26118260  1.0
  Sb  Sb221  1  0.62436267  0.75127467  0.26118260  1.0
  Sb  Sb222  1  0.95769600  0.08460800  0.26118260  1.0
  Sb  Sb223  1  0.95769600  0.41794133  0.26118260  1.0
  Sb  Sb224  1  0.95769600  0.75127467  0.26118260  1.0
  Sb  Sb225  1  0.04230400  0.24872533  0.29941940  1.0
  Sb  Sb226  1  0.04230400  0.58205867  0.29941940  1.0
  Sb  Sb227  1  0.04230400  0.91539200  0.29941940  1.0
  Sb  Sb228  1  0.37563733  0.24872533  0.29941940  1.0
  Sb  Sb229  1  0.37563733  0.58205867  0.29941940  1.0
  Sb  Sb230  1  0.37563733  0.91539200  0.29941940  1.0
  Sb  Sb231  1  0.70897067  0.24872533  0.29941940  1.0
  Sb  Sb232  1  0.70897067  0.58205867  0.29941940  1.0
  Sb  Sb233  1  0.70897067  0.91539200  0.29941940  1.0
  Sb  Sb234  1  0.13239067  0.06855200  0.34090300  1.0
  Sb  Sb235  1  0.13239067  0.40188533  0.34090300  1.0
  Sb  Sb236  1  0.13239067  0.73521867  0.34090300  1.0
  Sb  Sb237  1  0.46572400  0.06855200  0.34090300  1.0
  Sb  Sb238  1  0.46572400  0.40188533  0.34090300  1.0
  Sb  Sb239  1  0.46572400  0.73521867  0.34090300  1.0
  Sb  Sb240  1  0.79905733  0.06855200  0.34090300  1.0
  Sb  Sb241  1  0.79905733  0.40188533  0.34090300  1.0
  Sb  Sb242  1  0.79905733  0.73521867  0.34090300  1.0
  Sb  Sb243  1  0.20094267  0.26478133  0.21969900  1.0
  Sb  Sb244  1  0.20094267  0.59811467  0.21969900  1.0
  Sb  Sb245  1  0.20094267  0.93144800  0.21969900  1.0
  Sb  Sb246  1  0.53427600  0.26478133  0.21969900  1.0
  Sb  Sb247  1  0.53427600  0.59811467  0.21969900  1.0
  Sb  Sb248  1  0.53427600  0.93144800  0.21969900  1.0
  Sb  Sb249  1  0.86760933  0.26478133  0.21969900  1.0
  Sb  Sb250  1  0.86760933  0.59811467  0.21969900  1.0
  Sb  Sb251  1  0.86760933  0.93144800  0.21969900  1.0
