# generated using pymatgen
data_Ni5Sb2
_symmetry_space_group_name_H-M   'P 1'
_cell_length_a   16.24998600
_cell_length_b   33.45792645
_cell_length_c   55.28490534
_cell_angle_alpha   145.37019313
_cell_angle_beta   90.00000000
_cell_angle_gamma   75.94565588
_symmetry_Int_Tables_number   1
_chemical_formula_structural   Ni5Sb2
_chemical_formula_sum   'Ni360 Sb144'
_cell_volume   15442.87588835
_cell_formula_units_Z   72
loop_
 _symmetry_equiv_pos_site_id
 _symmetry_equiv_pos_as_xyz
  1  'x, y, z'
loop_
 _atom_site_type_symbol
 _atom_site_label
 _atom_site_symmetry_multiplicity
 _atom_site_fract_x
 _atom_site_fract_y
 _atom_site_fract_z
 _atom_site_occupancy
  Ni  Ni0  1  0.08266567  0.00000000  0.10537556  1.0
  Ni  Ni1  1  0.08266567  0.33333333  0.10537556  1.0
  Ni  Ni2  1  0.08266567  0.66666667  0.10537556  1.0
  Ni  Ni3  1  0.41599900  0.00000000  0.10537556  1.0
  Ni  Ni4  1  0.41599900  0.33333333  0.10537556  1.0
  Ni  Ni5  1  0.41599900  0.66666667  0.10537556  1.0
  Ni  Ni6  1  0.74933233  0.00000000  0.10537556  1.0
  Ni  Ni7  1  0.74933233  0.33333333  0.10537556  1.0
  Ni  Ni8  1  0.74933233  0.66666667  0.10537556  1.0
  Ni  Ni9  1  0.25066767  0.00000000  0.10537556  1.0
  Ni  Ni10  1  0.25066767  0.33333333  0.10537556  1.0
  Ni  Ni11  1  0.25066767  0.66666667  0.10537556  1.0
  Ni  Ni12  1  0.58400100  0.00000000  0.10537556  1.0
  Ni  Ni13  1  0.58400100  0.33333333  0.10537556  1.0
  Ni  Ni14  1  0.58400100  0.66666667  0.10537556  1.0
  Ni  Ni15  1  0.91733433  0.00000000  0.10537556  1.0
  Ni  Ni16  1  0.91733433  0.33333333  0.10537556  1.0
  Ni  Ni17  1  0.91733433  0.66666667  0.10537556  1.0
  Ni  Ni18  1  0.20926433  0.24813800  0.09358856  1.0
  Ni  Ni19  1  0.20926433  0.58147133  0.09358856  1.0
  Ni  Ni20  1  0.20926433  0.91480467  0.09358856  1.0
  Ni  Ni21  1  0.54259767  0.24813800  0.09358856  1.0
  Ni  Ni22  1  0.54259767  0.58147133  0.09358856  1.0
  Ni  Ni23  1  0.54259767  0.91480467  0.09358856  1.0
  Ni  Ni24  1  0.87593100  0.24813800  0.09358856  1.0
  Ni  Ni25  1  0.87593100  0.58147133  0.09358856  1.0
  Ni  Ni26  1  0.87593100  0.91480467  0.09358856  1.0
  Ni  Ni27  1  0.12406900  0.08519533  0.00605144  1.0
  Ni  Ni28  1  0.12406900  0.41852867  0.00605144  1.0
  Ni  Ni29  1  0.12406900  0.75186200  0.00605144  1.0
  Ni  Ni30  1  0.45740233  0.08519533  0.00605144  1.0
  Ni  Ni31  1  0.45740233  0.41852867  0.00605144  1.0
  Ni  Ni32  1  0.45740233  0.75186200  0.00605144  1.0
  Ni  Ni33  1  0.79073567  0.08519533  0.00605144  1.0
  Ni  Ni34  1  0.79073567  0.41852867  0.00605144  1.0
  Ni  Ni35  1  0.79073567  0.75186200  0.00605144  1.0
  Ni  Ni36  1  0.03394467  0.26544400  0.03771600  1.0
  Ni  Ni37  1  0.03394467  0.59877733  0.03771600  1.0
  Ni  Ni38  1  0.03394467  0.93211067  0.03771600  1.0
  Ni  Ni39  1  0.36727800  0.26544400  0.03771600  1.0
  Ni  Ni40  1  0.36727800  0.59877733  0.03771600  1.0
  Ni  Ni41  1  0.36727800  0.93211067  0.03771600  1.0
  Ni  Ni42  1  0.70061133  0.26544400  0.03771600  1.0
  Ni  Ni43  1  0.70061133  0.59877733  0.03771600  1.0
  Ni  Ni44  1  0.70061133  0.93211067  0.03771600  1.0
  Ni  Ni45  1  0.29938867  0.06788933  0.06192400  1.0
  Ni  Ni46  1  0.29938867  0.40122267  0.06192400  1.0
  Ni  Ni47  1  0.29938867  0.73455600  0.06192400  1.0
  Ni  Ni48  1  0.63272200  0.06788933  0.06192400  1.0
  Ni  Ni49  1  0.63272200  0.40122267  0.06192400  1.0
  Ni  Ni50  1  0.63272200  0.73455600  0.06192400  1.0
  Ni  Ni51  1  0.96605533  0.06788933  0.06192400  1.0
  Ni  Ni52  1  0.96605533  0.40122267  0.06192400  1.0
  Ni  Ni53  1  0.96605533  0.73455600  0.06192400  1.0
  Ni  Ni54  1  0.15876767  0.18066000  0.02575244  1.0
  Ni  Ni55  1  0.15876767  0.51399333  0.02575244  1.0
  Ni  Ni56  1  0.15876767  0.84732667  0.02575244  1.0
  Ni  Ni57  1  0.49210100  0.18066000  0.02575244  1.0
  Ni  Ni58  1  0.49210100  0.51399333  0.02575244  1.0
  Ni  Ni59  1  0.49210100  0.84732667  0.02575244  1.0
  Ni  Ni60  1  0.82543433  0.18066000  0.02575244  1.0
  Ni  Ni61  1  0.82543433  0.51399333  0.02575244  1.0
  Ni  Ni62  1  0.82543433  0.84732667  0.02575244  1.0
  Ni  Ni63  1  0.00609433  0.15267333  0.07388756  1.0
  Ni  Ni64  1  0.00609433  0.48600667  0.07388756  1.0
  Ni  Ni65  1  0.00609433  0.81934000  0.07388756  1.0
  Ni  Ni66  1  0.33942767  0.15267333  0.07388756  1.0
  Ni  Ni67  1  0.33942767  0.48600667  0.07388756  1.0
  Ni  Ni68  1  0.33942767  0.81934000  0.07388756  1.0
  Ni  Ni69  1  0.67276100  0.15267333  0.07388756  1.0
  Ni  Ni70  1  0.67276100  0.48600667  0.07388756  1.0
  Ni  Ni71  1  0.67276100  0.81934000  0.07388756  1.0
  Ni  Ni72  1  0.32723900  0.18066000  0.02575244  1.0
  Ni  Ni73  1  0.32723900  0.51399333  0.02575244  1.0
  Ni  Ni74  1  0.32723900  0.84732667  0.02575244  1.0
  Ni  Ni75  1  0.66057233  0.18066000  0.02575244  1.0
  Ni  Ni76  1  0.66057233  0.51399333  0.02575244  1.0
  Ni  Ni77  1  0.66057233  0.84732667  0.02575244  1.0
  Ni  Ni78  1  0.99390567  0.18066000  0.02575244  1.0
  Ni  Ni79  1  0.99390567  0.51399333  0.02575244  1.0
  Ni  Ni80  1  0.99390567  0.84732667  0.02575244  1.0
  Ni  Ni81  1  0.17456567  0.15267333  0.07388756  1.0
  Ni  Ni82  1  0.17456567  0.48600667  0.07388756  1.0
  Ni  Ni83  1  0.17456567  0.81934000  0.07388756  1.0
  Ni  Ni84  1  0.50789900  0.15267333  0.07388756  1.0
  Ni  Ni85  1  0.50789900  0.48600667  0.07388756  1.0
  Ni  Ni86  1  0.50789900  0.81934000  0.07388756  1.0
  Ni  Ni87  1  0.84123233  0.15267333  0.07388756  1.0
  Ni  Ni88  1  0.84123233  0.48600667  0.07388756  1.0
  Ni  Ni89  1  0.84123233  0.81934000  0.07388756  1.0
  Sb  Sb90  1  0.04230400  0.24872533  0.09390444  1.0
  Sb  Sb91  1  0.04230400  0.58205867  0.09390444  1.0
  Sb  Sb92  1  0.04230400  0.91539200  0.09390444  1.0
  Sb  Sb93  1  0.37563733  0.24872533  0.09390444  1.0
  Sb  Sb94  1  0.37563733  0.58205867  0.09390444  1.0
  Sb  Sb95  1  0.37563733  0.91539200  0.09390444  1.0
  Sb  Sb96  1  0.70897067  0.24872533  0.09390444  1.0
  Sb  Sb97  1  0.70897067  0.58205867  0.09390444  1.0
  Sb  Sb98  1  0.70897067  0.91539200  0.09390444  1.0
  Sb  Sb99  1  0.29102933  0.08460800  0.00573556  1.0
  Sb  Sb100  1  0.29102933  0.41794133  0.00573556  1.0
  Sb  Sb101  1  0.29102933  0.75127467  0.00573556  1.0
  Sb  Sb102  1  0.62436267  0.08460800  0.00573556  1.0
  Sb  Sb103  1  0.62436267  0.41794133  0.00573556  1.0
  Sb  Sb104  1  0.62436267  0.75127467  0.00573556  1.0
  Sb  Sb105  1  0.95769600  0.08460800  0.00573556  1.0
  Sb  Sb106  1  0.95769600  0.41794133  0.00573556  1.0
  Sb  Sb107  1  0.95769600  0.75127467  0.00573556  1.0
  Sb  Sb108  1  0.20094267  0.26478133  0.03778644  1.0
  Sb  Sb109  1  0.20094267  0.59811467  0.03778644  1.0
  Sb  Sb110  1  0.20094267  0.93144800  0.03778644  1.0
  Sb  Sb111  1  0.53427600  0.26478133  0.03778644  1.0
  Sb  Sb112  1  0.53427600  0.59811467  0.03778644  1.0
  Sb  Sb113  1  0.53427600  0.93144800  0.03778644  1.0
  Sb  Sb114  1  0.86760933  0.26478133  0.03778644  1.0
  Sb  Sb115  1  0.86760933  0.59811467  0.03778644  1.0
  Sb  Sb116  1  0.86760933  0.93144800  0.03778644  1.0
  Sb  Sb117  1  0.13239067  0.06855200  0.06185356  1.0
  Sb  Sb118  1  0.13239067  0.40188533  0.06185356  1.0
  Sb  Sb119  1  0.13239067  0.73521867  0.06185356  1.0
  Sb  Sb120  1  0.46572400  0.06855200  0.06185356  1.0
  Sb  Sb121  1  0.46572400  0.40188533  0.06185356  1.0
  Sb  Sb122  1  0.46572400  0.73521867  0.06185356  1.0
  Sb  Sb123  1  0.79905733  0.06855200  0.06185356  1.0
  Sb  Sb124  1  0.79905733  0.40188533  0.06185356  1.0
  Sb  Sb125  1  0.79905733  0.73521867  0.06185356  1.0
  Ni  Ni126  1  0.08266567  0.00000000  0.21648667  1.0
  Ni  Ni127  1  0.08266567  0.33333333  0.21648667  1.0
  Ni  Ni128  1  0.08266567  0.66666667  0.21648667  1.0
  Ni  Ni129  1  0.41599900  0.00000000  0.21648667  1.0
  Ni  Ni130  1  0.41599900  0.33333333  0.21648667  1.0
  Ni  Ni131  1  0.41599900  0.66666667  0.21648667  1.0
  Ni  Ni132  1  0.74933233  0.00000000  0.21648667  1.0
  Ni  Ni133  1  0.74933233  0.33333333  0.21648667  1.0
  Ni  Ni134  1  0.74933233  0.66666667  0.21648667  1.0
  Ni  Ni135  1  0.25066767  0.00000000  0.21648667  1.0
  Ni  Ni136  1  0.25066767  0.33333333  0.21648667  1.0
  Ni  Ni137  1  0.25066767  0.66666667  0.21648667  1.0
  Ni  Ni138  1  0.58400100  0.00000000  0.21648667  1.0
  Ni  Ni139  1  0.58400100  0.33333333  0.21648667  1.0
  Ni  Ni140  1  0.58400100  0.66666667  0.21648667  1.0
  Ni  Ni141  1  0.91733433  0.00000000  0.21648667  1.0
  Ni  Ni142  1  0.91733433  0.33333333  0.21648667  1.0
  Ni  Ni143  1  0.91733433  0.66666667  0.21648667  1.0
  Ni  Ni144  1  0.20926433  0.24813800  0.20469967  1.0
  Ni  Ni145  1  0.20926433  0.58147133  0.20469967  1.0
  Ni  Ni146  1  0.20926433  0.91480467  0.20469967  1.0
  Ni  Ni147  1  0.54259767  0.24813800  0.20469967  1.0
  Ni  Ni148  1  0.54259767  0.58147133  0.20469967  1.0
  Ni  Ni149  1  0.54259767  0.91480467  0.20469967  1.0
  Ni  Ni150  1  0.87593100  0.24813800  0.20469967  1.0
  Ni  Ni151  1  0.87593100  0.58147133  0.20469967  1.0
  Ni  Ni152  1  0.87593100  0.91480467  0.20469967  1.0
  Ni  Ni153  1  0.12406900  0.08519533  0.11716256  1.0
  Ni  Ni154  1  0.12406900  0.41852867  0.11716256  1.0
  Ni  Ni155  1  0.12406900  0.75186200  0.11716256  1.0
  Ni  Ni156  1  0.45740233  0.08519533  0.11716256  1.0
  Ni  Ni157  1  0.45740233  0.41852867  0.11716256  1.0
  Ni  Ni158  1  0.45740233  0.75186200  0.11716256  1.0
  Ni  Ni159  1  0.79073567  0.08519533  0.11716256  1.0
  Ni  Ni160  1  0.79073567  0.41852867  0.11716256  1.0
  Ni  Ni161  1  0.79073567  0.75186200  0.11716256  1.0
  Ni  Ni162  1  0.03394467  0.26544400  0.14882711  1.0
  Ni  Ni163  1  0.03394467  0.59877733  0.14882711  1.0
  Ni  Ni164  1  0.03394467  0.93211067  0.14882711  1.0
  Ni  Ni165  1  0.36727800  0.26544400  0.14882711  1.0
  Ni  Ni166  1  0.36727800  0.59877733  0.14882711  1.0
  Ni  Ni167  1  0.36727800  0.93211067  0.14882711  1.0
  Ni  Ni168  1  0.70061133  0.26544400  0.14882711  1.0
  Ni  Ni169  1  0.70061133  0.59877733  0.14882711  1.0
  Ni  Ni170  1  0.70061133  0.93211067  0.14882711  1.0
  Ni  Ni171  1  0.29938867  0.06788933  0.17303511  1.0
  Ni  Ni172  1  0.29938867  0.40122267  0.17303511  1.0
  Ni  Ni173  1  0.29938867  0.73455600  0.17303511  1.0
  Ni  Ni174  1  0.63272200  0.06788933  0.17303511  1.0
  Ni  Ni175  1  0.63272200  0.40122267  0.17303511  1.0
  Ni  Ni176  1  0.63272200  0.73455600  0.17303511  1.0
  Ni  Ni177  1  0.96605533  0.06788933  0.17303511  1.0
  Ni  Ni178  1  0.96605533  0.40122267  0.17303511  1.0
  Ni  Ni179  1  0.96605533  0.73455600  0.17303511  1.0
  Ni  Ni180  1  0.15876767  0.18066000  0.13686356  1.0
  Ni  Ni181  1  0.15876767  0.51399333  0.13686356  1.0
  Ni  Ni182  1  0.15876767  0.84732667  0.13686356  1.0
  Ni  Ni183  1  0.49210100  0.18066000  0.13686356  1.0
  Ni  Ni184  1  0.49210100  0.51399333  0.13686356  1.0
  Ni  Ni185  1  0.49210100  0.84732667  0.13686356  1.0
  Ni  Ni186  1  0.82543433  0.18066000  0.13686356  1.0
  Ni  Ni187  1  0.82543433  0.51399333  0.13686356  1.0
  Ni  Ni188  1  0.82543433  0.84732667  0.13686356  1.0
  Ni  Ni189  1  0.00609433  0.15267333  0.18499867  1.0
  Ni  Ni190  1  0.00609433  0.48600667  0.18499867  1.0
  Ni  Ni191  1  0.00609433  0.81934000  0.18499867  1.0
  Ni  Ni192  1  0.33942767  0.15267333  0.18499867  1.0
  Ni  Ni193  1  0.33942767  0.48600667  0.18499867  1.0
  Ni  Ni194  1  0.33942767  0.81934000  0.18499867  1.0
  Ni  Ni195  1  0.67276100  0.15267333  0.18499867  1.0
  Ni  Ni196  1  0.67276100  0.48600667  0.18499867  1.0
  Ni  Ni197  1  0.67276100  0.81934000  0.18499867  1.0
  Ni  Ni198  1  0.32723900  0.18066000  0.13686356  1.0
  Ni  Ni199  1  0.32723900  0.51399333  0.13686356  1.0
  Ni  Ni200  1  0.32723900  0.84732667  0.13686356  1.0
  Ni  Ni201  1  0.66057233  0.18066000  0.13686356  1.0
  Ni  Ni202  1  0.66057233  0.51399333  0.13686356  1.0
  Ni  Ni203  1  0.66057233  0.84732667  0.13686356  1.0
  Ni  Ni204  1  0.99390567  0.18066000  0.13686356  1.0
  Ni  Ni205  1  0.99390567  0.51399333  0.13686356  1.0
  Ni  Ni206  1  0.99390567  0.84732667  0.13686356  1.0
  Ni  Ni207  1  0.17456567  0.15267333  0.18499867  1.0
  Ni  Ni208  1  0.17456567  0.48600667  0.18499867  1.0
  Ni  Ni209  1  0.17456567  0.81934000  0.18499867  1.0
  Ni  Ni210  1  0.50789900  0.15267333  0.18499867  1.0
  Ni  Ni211  1  0.50789900  0.48600667  0.18499867  1.0
  Ni  Ni212  1  0.50789900  0.81934000  0.18499867  1.0
  Ni  Ni213  1  0.84123233  0.15267333  0.18499867  1.0
  Ni  Ni214  1  0.84123233  0.48600667  0.18499867  1.0
  Ni  Ni215  1  0.84123233  0.81934000  0.18499867  1.0
  Sb  Sb216  1  0.04230400  0.24872533  0.20501556  1.0
  Sb  Sb217  1  0.04230400  0.58205867  0.20501556  1.0
  Sb  Sb218  1  0.04230400  0.91539200  0.20501556  1.0
  Sb  Sb219  1  0.37563733  0.24872533  0.20501556  1.0
  Sb  Sb220  1  0.37563733  0.58205867  0.20501556  1.0
  Sb  Sb221  1  0.37563733  0.91539200  0.20501556  1.0
  Sb  Sb222  1  0.70897067  0.24872533  0.20501556  1.0
  Sb  Sb223  1  0.70897067  0.58205867  0.20501556  1.0
  Sb  Sb224  1  0.70897067  0.91539200  0.20501556  1.0
  Sb  Sb225  1  0.29102933  0.08460800  0.11684667  1.0
  Sb  Sb226  1  0.29102933  0.41794133  0.11684667  1.0
  Sb  Sb227  1  0.29102933  0.75127467  0.11684667  1.0
  Sb  Sb228  1  0.62436267  0.08460800  0.11684667  1.0
  Sb  Sb229  1  0.62436267  0.41794133  0.11684667  1.0
  Sb  Sb230  1  0.62436267  0.75127467  0.11684667  1.0
  Sb  Sb231  1  0.95769600  0.08460800  0.11684667  1.0
  Sb  Sb232  1  0.95769600  0.41794133  0.11684667  1.0
  Sb  Sb233  1  0.95769600  0.75127467  0.11684667  1.0
  Sb  Sb234  1  0.20094267  0.26478133  0.14889756  1.0
  Sb  Sb235  1  0.20094267  0.59811467  0.14889756  1.0
  Sb  Sb236  1  0.20094267  0.93144800  0.14889756  1.0
  Sb  Sb237  1  0.53427600  0.26478133  0.14889756  1.0
  Sb  Sb238  1  0.53427600  0.59811467  0.14889756  1.0
  Sb  Sb239  1  0.53427600  0.93144800  0.14889756  1.0
  Sb  Sb240  1  0.86760933  0.26478133  0.14889756  1.0
  Sb  Sb241  1  0.86760933  0.59811467  0.14889756  1.0
  Sb  Sb242  1  0.86760933  0.93144800  0.14889756  1.0
  Sb  Sb243  1  0.13239067  0.06855200  0.17296467  1.0
  Sb  Sb244  1  0.13239067  0.40188533  0.17296467  1.0
  Sb  Sb245  1  0.13239067  0.73521867  0.17296467  1.0
  Sb  Sb246  1  0.46572400  0.06855200  0.17296467  1.0
  Sb  Sb247  1  0.46572400  0.40188533  0.17296467  1.0
  Sb  Sb248  1  0.46572400  0.73521867  0.17296467  1.0
  Sb  Sb249  1  0.79905733  0.06855200  0.17296467  1.0
  Sb  Sb250  1  0.79905733  0.40188533  0.17296467  1.0
  Sb  Sb251  1  0.79905733  0.73521867  0.17296467  1.0
  Ni  Ni252  1  0.08266567  0.00000000  0.32759778  1.0
  Ni  Ni253  1  0.08266567  0.33333333  0.32759778  1.0
  Ni  Ni254  1  0.08266567  0.66666667  0.32759778  1.0
  Ni  Ni255  1  0.41599900  0.00000000  0.32759778  1.0
  Ni  Ni256  1  0.41599900  0.33333333  0.32759778  1.0
  Ni  Ni257  1  0.41599900  0.66666667  0.32759778  1.0
  Ni  Ni258  1  0.74933233  0.00000000  0.32759778  1.0
  Ni  Ni259  1  0.74933233  0.33333333  0.32759778  1.0
  Ni  Ni260  1  0.74933233  0.66666667  0.32759778  1.0
  Ni  Ni261  1  0.25066767  0.00000000  0.32759778  1.0
  Ni  Ni262  1  0.25066767  0.33333333  0.32759778  1.0
  Ni  Ni263  1  0.25066767  0.66666667  0.32759778  1.0
  Ni  Ni264  1  0.58400100  0.00000000  0.32759778  1.0
  Ni  Ni265  1  0.58400100  0.33333333  0.32759778  1.0
  Ni  Ni266  1  0.58400100  0.66666667  0.32759778  1.0
  Ni  Ni267  1  0.91733433  0.00000000  0.32759778  1.0
  Ni  Ni268  1  0.91733433  0.33333333  0.32759778  1.0
  Ni  Ni269  1  0.91733433  0.66666667  0.32759778  1.0
  Ni  Ni270  1  0.20926433  0.24813800  0.31581078  1.0
  Ni  Ni271  1  0.20926433  0.58147133  0.31581078  1.0
  Ni  Ni272  1  0.20926433  0.91480467  0.31581078  1.0
  Ni  Ni273  1  0.54259767  0.24813800  0.31581078  1.0
  Ni  Ni274  1  0.54259767  0.58147133  0.31581078  1.0
  Ni  Ni275  1  0.54259767  0.91480467  0.31581078  1.0
  Ni  Ni276  1  0.87593100  0.24813800  0.31581078  1.0
  Ni  Ni277  1  0.87593100  0.58147133  0.31581078  1.0
  Ni  Ni278  1  0.87593100  0.91480467  0.31581078  1.0
  Ni  Ni279  1  0.12406900  0.08519533  0.22827367  1.0
  Ni  Ni280  1  0.12406900  0.41852867  0.22827367  1.0
  Ni  Ni281  1  0.12406900  0.75186200  0.22827367  1.0
  Ni  Ni282  1  0.45740233  0.08519533  0.22827367  1.0
  Ni  Ni283  1  0.45740233  0.41852867  0.22827367  1.0
  Ni  Ni284  1  0.45740233  0.75186200  0.22827367  1.0
  Ni  Ni285  1  0.79073567  0.08519533  0.22827367  1.0
  Ni  Ni286  1  0.79073567  0.41852867  0.22827367  1.0
  Ni  Ni287  1  0.79073567  0.75186200  0.22827367  1.0
  Ni  Ni288  1  0.03394467  0.26544400  0.25993822  1.0
  Ni  Ni289  1  0.03394467  0.59877733  0.25993822  1.0
  Ni  Ni290  1  0.03394467  0.93211067  0.25993822  1.0
  Ni  Ni291  1  0.36727800  0.26544400  0.25993822  1.0
  Ni  Ni292  1  0.36727800  0.59877733  0.25993822  1.0
  Ni  Ni293  1  0.36727800  0.93211067  0.25993822  1.0
  Ni  Ni294  1  0.70061133  0.26544400  0.25993822  1.0
  Ni  Ni295  1  0.70061133  0.59877733  0.25993822  1.0
  Ni  Ni296  1  0.70061133  0.93211067  0.25993822  1.0
  Ni  Ni297  1  0.29938867  0.06788933  0.28414622  1.0
  Ni  Ni298  1  0.29938867  0.40122267  0.28414622  1.0
  Ni  Ni299  1  0.29938867  0.73455600  0.28414622  1.0
  Ni  Ni300  1  0.63272200  0.06788933  0.28414622  1.0
  Ni  Ni301  1  0.63272200  0.40122267  0.28414622  1.0
  Ni  Ni302  1  0.63272200  0.73455600  0.28414622  1.0
  Ni  Ni303  1  0.96605533  0.06788933  0.28414622  1.0
  Ni  Ni304  1  0.96605533  0.40122267  0.28414622  1.0
  Ni  Ni305  1  0.96605533  0.73455600  0.28414622  1.0
  Ni  Ni306  1  0.15876767  0.18066000  0.24797467  1.0
  Ni  Ni307  1  0.15876767  0.51399333  0.24797467  1.0
  Ni  Ni308  1  0.15876767  0.84732667  0.24797467  1.0
  Ni  Ni309  1  0.49210100  0.18066000  0.24797467  1.0
  Ni  Ni310  1  0.49210100  0.51399333  0.24797467  1.0
  Ni  Ni311  1  0.49210100  0.84732667  0.24797467  1.0
  Ni  Ni312  1  0.82543433  0.18066000  0.24797467  1.0
  Ni  Ni313  1  0.82543433  0.51399333  0.24797467  1.0
  Ni  Ni314  1  0.82543433  0.84732667  0.24797467  1.0
  Ni  Ni315  1  0.00609433  0.15267333  0.29610978  1.0
  Ni  Ni316  1  0.00609433  0.48600667  0.29610978  1.0
  Ni  Ni317  1  0.00609433  0.81934000  0.29610978  1.0
  Ni  Ni318  1  0.33942767  0.15267333  0.29610978  1.0
  Ni  Ni319  1  0.33942767  0.48600667  0.29610978  1.0
  Ni  Ni320  1  0.33942767  0.81934000  0.29610978  1.0
  Ni  Ni321  1  0.67276100  0.15267333  0.29610978  1.0
  Ni  Ni322  1  0.67276100  0.48600667  0.29610978  1.0
  Ni  Ni323  1  0.67276100  0.81934000  0.29610978  1.0
  Ni  Ni324  1  0.32723900  0.18066000  0.24797467  1.0
  Ni  Ni325  1  0.32723900  0.51399333  0.24797467  1.0
  Ni  Ni326  1  0.32723900  0.84732667  0.24797467  1.0
  Ni  Ni327  1  0.66057233  0.18066000  0.24797467  1.0
  Ni  Ni328  1  0.66057233  0.51399333  0.24797467  1.0
  Ni  Ni329  1  0.66057233  0.84732667  0.24797467  1.0
  Ni  Ni330  1  0.99390567  0.18066000  0.24797467  1.0
  Ni  Ni331  1  0.99390567  0.51399333  0.24797467  1.0
  Ni  Ni332  1  0.99390567  0.84732667  0.24797467  1.0
  Ni  Ni333  1  0.17456567  0.15267333  0.29610978  1.0
  Ni  Ni334  1  0.17456567  0.48600667  0.29610978  1.0
  Ni  Ni335  1  0.17456567  0.81934000  0.29610978  1.0
  Ni  Ni336  1  0.50789900  0.15267333  0.29610978  1.0
  Ni  Ni337  1  0.50789900  0.48600667  0.29610978  1.0
  Ni  Ni338  1  0.50789900  0.81934000  0.29610978  1.0
  Ni  Ni339  1  0.84123233  0.15267333  0.29610978  1.0
  Ni  Ni340  1  0.84123233  0.48600667  0.29610978  1.0
  Ni  Ni341  1  0.84123233  0.81934000  0.29610978  1.0
  Sb  Sb342  1  0.04230400  0.24872533  0.31612667  1.0
  Sb  Sb343  1  0.04230400  0.58205867  0.31612667  1.0
  Sb  Sb344  1  0.04230400  0.91539200  0.31612667  1.0
  Sb  Sb345  1  0.37563733  0.24872533  0.31612667  1.0
  Sb  Sb346  1  0.37563733  0.58205867  0.31612667  1.0
  Sb  Sb347  1  0.37563733  0.91539200  0.31612667  1.0
  Sb  Sb348  1  0.70897067  0.24872533  0.31612667  1.0
  Sb  Sb349  1  0.70897067  0.58205867  0.31612667  1.0
  Sb  Sb350  1  0.70897067  0.91539200  0.31612667  1.0
  Sb  Sb351  1  0.29102933  0.08460800  0.22795778  1.0
  Sb  Sb352  1  0.29102933  0.41794133  0.22795778  1.0
  Sb  Sb353  1  0.29102933  0.75127467  0.22795778  1.0
  Sb  Sb354  1  0.62436267  0.08460800  0.22795778  1.0
  Sb  Sb355  1  0.62436267  0.41794133  0.22795778  1.0
  Sb  Sb356  1  0.62436267  0.75127467  0.22795778  1.0
  Sb  Sb357  1  0.95769600  0.08460800  0.22795778  1.0
  Sb  Sb358  1  0.95769600  0.41794133  0.22795778  1.0
  Sb  Sb359  1  0.95769600  0.75127467  0.22795778  1.0
  Sb  Sb360  1  0.20094267  0.26478133  0.26000867  1.0
  Sb  Sb361  1  0.20094267  0.59811467  0.26000867  1.0
  Sb  Sb362  1  0.20094267  0.93144800  0.26000867  1.0
  Sb  Sb363  1  0.53427600  0.26478133  0.26000867  1.0
  Sb  Sb364  1  0.53427600  0.59811467  0.26000867  1.0
  Sb  Sb365  1  0.53427600  0.93144800  0.26000867  1.0
  Sb  Sb366  1  0.86760933  0.26478133  0.26000867  1.0
  Sb  Sb367  1  0.86760933  0.59811467  0.26000867  1.0
  Sb  Sb368  1  0.86760933  0.93144800  0.26000867  1.0
  Sb  Sb369  1  0.13239067  0.06855200  0.28407578  1.0
  Sb  Sb370  1  0.13239067  0.40188533  0.28407578  1.0
  Sb  Sb371  1  0.13239067  0.73521867  0.28407578  1.0
  Sb  Sb372  1  0.46572400  0.06855200  0.28407578  1.0
  Sb  Sb373  1  0.46572400  0.40188533  0.28407578  1.0
  Sb  Sb374  1  0.46572400  0.73521867  0.28407578  1.0
  Sb  Sb375  1  0.79905733  0.06855200  0.28407578  1.0
  Sb  Sb376  1  0.79905733  0.40188533  0.28407578  1.0
  Sb  Sb377  1  0.79905733  0.73521867  0.28407578  1.0
  Ni  Ni378  1  0.08266567  0.00000000  0.43870889  1.0
  Ni  Ni379  1  0.08266567  0.33333333  0.43870889  1.0
  Ni  Ni380  1  0.08266567  0.66666667  0.43870889  1.0
  Ni  Ni381  1  0.41599900  0.00000000  0.43870889  1.0
  Ni  Ni382  1  0.41599900  0.33333333  0.43870889  1.0
  Ni  Ni383  1  0.41599900  0.66666667  0.43870889  1.0
  Ni  Ni384  1  0.74933233  0.00000000  0.43870889  1.0
  Ni  Ni385  1  0.74933233  0.33333333  0.43870889  1.0
  Ni  Ni386  1  0.74933233  0.66666667  0.43870889  1.0
  Ni  Ni387  1  0.25066767  0.00000000  0.43870889  1.0
  Ni  Ni388  1  0.25066767  0.33333333  0.43870889  1.0
  Ni  Ni389  1  0.25066767  0.66666667  0.43870889  1.0
  Ni  Ni390  1  0.58400100  0.00000000  0.43870889  1.0
  Ni  Ni391  1  0.58400100  0.33333333  0.43870889  1.0
  Ni  Ni392  1  0.58400100  0.66666667  0.43870889  1.0
  Ni  Ni393  1  0.91733433  0.00000000  0.43870889  1.0
  Ni  Ni394  1  0.91733433  0.33333333  0.43870889  1.0
  Ni  Ni395  1  0.91733433  0.66666667  0.43870889  1.0
  Ni  Ni396  1  0.20926433  0.24813800  0.42692189  1.0
  Ni  Ni397  1  0.20926433  0.58147133  0.42692189  1.0
  Ni  Ni398  1  0.20926433  0.91480467  0.42692189  1.0
  Ni  Ni399  1  0.54259767  0.24813800  0.42692189  1.0
  Ni  Ni400  1  0.54259767  0.58147133  0.42692189  1.0
  Ni  Ni401  1  0.54259767  0.91480467  0.42692189  1.0
  Ni  Ni402  1  0.87593100  0.24813800  0.42692189  1.0
  Ni  Ni403  1  0.87593100  0.58147133  0.42692189  1.0
  Ni  Ni404  1  0.87593100  0.91480467  0.42692189  1.0
  Ni  Ni405  1  0.12406900  0.08519533  0.33938478  1.0
  Ni  Ni406  1  0.12406900  0.41852867  0.33938478  1.0
  Ni  Ni407  1  0.12406900  0.75186200  0.33938478  1.0
  Ni  Ni408  1  0.45740233  0.08519533  0.33938478  1.0
  Ni  Ni409  1  0.45740233  0.41852867  0.33938478  1.0
  Ni  Ni410  1  0.45740233  0.75186200  0.33938478  1.0
  Ni  Ni411  1  0.79073567  0.08519533  0.33938478  1.0
  Ni  Ni412  1  0.79073567  0.41852867  0.33938478  1.0
  Ni  Ni413  1  0.79073567  0.75186200  0.33938478  1.0
  Ni  Ni414  1  0.03394467  0.26544400  0.37104933  1.0
  Ni  Ni415  1  0.03394467  0.59877733  0.37104933  1.0
  Ni  Ni416  1  0.03394467  0.93211067  0.37104933  1.0
  Ni  Ni417  1  0.36727800  0.26544400  0.37104933  1.0
  Ni  Ni418  1  0.36727800  0.59877733  0.37104933  1.0
  Ni  Ni419  1  0.36727800  0.93211067  0.37104933  1.0
  Ni  Ni420  1  0.70061133  0.26544400  0.37104933  1.0
  Ni  Ni421  1  0.70061133  0.59877733  0.37104933  1.0
  Ni  Ni422  1  0.70061133  0.93211067  0.37104933  1.0
  Ni  Ni423  1  0.29938867  0.06788933  0.39525733  1.0
  Ni  Ni424  1  0.29938867  0.40122267  0.39525733  1.0
  Ni  Ni425  1  0.29938867  0.73455600  0.39525733  1.0
  Ni  Ni426  1  0.63272200  0.06788933  0.39525733  1.0
  Ni  Ni427  1  0.63272200  0.40122267  0.39525733  1.0
  Ni  Ni428  1  0.63272200  0.73455600  0.39525733  1.0
  Ni  Ni429  1  0.96605533  0.06788933  0.39525733  1.0
  Ni  Ni430  1  0.96605533  0.40122267  0.39525733  1.0
  Ni  Ni431  1  0.96605533  0.73455600  0.39525733  1.0
  Ni  Ni432  1  0.15876767  0.18066000  0.35908578  1.0
  Ni  Ni433  1  0.15876767  0.51399333  0.35908578  1.0
  Ni  Ni434  1  0.15876767  0.84732667  0.35908578  1.0
  Ni  Ni435  1  0.49210100  0.18066000  0.35908578  1.0
  Ni  Ni436  1  0.49210100  0.51399333  0.35908578  1.0
  Ni  Ni437  1  0.49210100  0.84732667  0.35908578  1.0
  Ni  Ni438  1  0.82543433  0.18066000  0.35908578  1.0
  Ni  Ni439  1  0.82543433  0.51399333  0.35908578  1.0
  Ni  Ni440  1  0.82543433  0.84732667  0.35908578  1.0
  Ni  Ni441  1  0.00609433  0.15267333  0.40722089  1.0
  Ni  Ni442  1  0.00609433  0.48600667  0.40722089  1.0
  Ni  Ni443  1  0.00609433  0.81934000  0.40722089  1.0
  Ni  Ni444  1  0.33942767  0.15267333  0.40722089  1.0
  Ni  Ni445  1  0.33942767  0.48600667  0.40722089  1.0
  Ni  Ni446  1  0.33942767  0.81934000  0.40722089  1.0
  Ni  Ni447  1  0.67276100  0.15267333  0.40722089  1.0
  Ni  Ni448  1  0.67276100  0.48600667  0.40722089  1.0
  Ni  Ni449  1  0.67276100  0.81934000  0.40722089  1.0
  Ni  Ni450  1  0.32723900  0.18066000  0.35908578  1.0
  Ni  Ni451  1  0.32723900  0.51399333  0.35908578  1.0
  Ni  Ni452  1  0.32723900  0.84732667  0.35908578  1.0
  Ni  Ni453  1  0.66057233  0.18066000  0.35908578  1.0
  Ni  Ni454  1  0.66057233  0.51399333  0.35908578  1.0
  Ni  Ni455  1  0.66057233  0.84732667  0.35908578  1.0
  Ni  Ni456  1  0.99390567  0.18066000  0.35908578  1.0
  Ni  Ni457  1  0.99390567  0.51399333  0.35908578  1.0
  Ni  Ni458  1  0.99390567  0.84732667  0.35908578  1.0
  Ni  Ni459  1  0.17456567  0.15267333  0.40722089  1.0
  Ni  Ni460  1  0.17456567  0.48600667  0.40722089  1.0
  Ni  Ni461  1  0.17456567  0.81934000  0.40722089  1.0
  Ni  Ni462  1  0.50789900  0.15267333  0.40722089  1.0
  Ni  Ni463  1  0.50789900  0.48600667  0.40722089  1.0
  Ni  Ni464  1  0.50789900  0.81934000  0.40722089  1.0
  Ni  Ni465  1  0.84123233  0.15267333  0.40722089  1.0
  Ni  Ni466  1  0.84123233  0.48600667  0.40722089  1.0
  Ni  Ni467  1  0.84123233  0.81934000  0.40722089  1.0
  Sb  Sb468  1  0.04230400  0.24872533  0.42723778  1.0
  Sb  Sb469  1  0.04230400  0.58205867  0.42723778  1.0
  Sb  Sb470  1  0.04230400  0.91539200  0.42723778  1.0
  Sb  Sb471  1  0.37563733  0.24872533  0.42723778  1.0
  Sb  Sb472  1  0.37563733  0.58205867  0.42723778  1.0
  Sb  Sb473  1  0.37563733  0.91539200  0.42723778  1.0
  Sb  Sb474  1  0.70897067  0.24872533  0.42723778  1.0
  Sb  Sb475  1  0.70897067  0.58205867  0.42723778  1.0
  Sb  Sb476  1  0.70897067  0.91539200  0.42723778  1.0
  Sb  Sb477  1  0.29102933  0.08460800  0.33906889  1.0
  Sb  Sb478  1  0.29102933  0.41794133  0.33906889  1.0
  Sb  Sb479  1  0.29102933  0.75127467  0.33906889  1.0
  Sb  Sb480  1  0.62436267  0.08460800  0.33906889  1.0
  Sb  Sb481  1  0.62436267  0.41794133  0.33906889  1.0
  Sb  Sb482  1  0.62436267  0.75127467  0.33906889  1.0
  Sb  Sb483  1  0.95769600  0.08460800  0.33906889  1.0
  Sb  Sb484  1  0.95769600  0.41794133  0.33906889  1.0
  Sb  Sb485  1  0.95769600  0.75127467  0.33906889  1.0
  Sb  Sb486  1  0.20094267  0.26478133  0.37111978  1.0
  Sb  Sb487  1  0.20094267  0.59811467  0.37111978  1.0
  Sb  Sb488  1  0.20094267  0.93144800  0.37111978  1.0
  Sb  Sb489  1  0.53427600  0.26478133  0.37111978  1.0
  Sb  Sb490  1  0.53427600  0.59811467  0.37111978  1.0
  Sb  Sb491  1  0.53427600  0.93144800  0.37111978  1.0
  Sb  Sb492  1  0.86760933  0.26478133  0.37111978  1.0
  Sb  Sb493  1  0.86760933  0.59811467  0.37111978  1.0
  Sb  Sb494  1  0.86760933  0.93144800  0.37111978  1.0
  Sb  Sb495  1  0.13239067  0.06855200  0.39518689  1.0
  Sb  Sb496  1  0.13239067  0.40188533  0.39518689  1.0
  Sb  Sb497  1  0.13239067  0.73521867  0.39518689  1.0
  Sb  Sb498  1  0.46572400  0.06855200  0.39518689  1.0
  Sb  Sb499  1  0.46572400  0.40188533  0.39518689  1.0
  Sb  Sb500  1  0.46572400  0.73521867  0.39518689  1.0
  Sb  Sb501  1  0.79905733  0.06855200  0.39518689  1.0
  Sb  Sb502  1  0.79905733  0.40188533  0.39518689  1.0
  Sb  Sb503  1  0.79905733  0.73521867  0.39518689  1.0
