# generated using pymatgen
data_Ni5Sb2
_symmetry_space_group_name_H-M   'P 1'
_cell_length_a   18.42830178
_cell_length_b   16.24998600
_cell_length_c   35.13278910
_cell_angle_alpha   67.32881267
_cell_angle_beta   64.41802092
_cell_angle_gamma   90.00000000
_symmetry_Int_Tables_number   1
_chemical_formula_structural   Ni5Sb2
_chemical_formula_sum   'Ni180 Sb72'
_cell_volume   8579.37549353
_cell_formula_units_Z   36
loop_
 _symmetry_equiv_pos_site_id
 _symmetry_equiv_pos_as_xyz
  1  'x, y, z'
loop_
 _atom_site_type_symbol
 _atom_site_label
 _atom_site_symmetry_multiplicity
 _atom_site_fract_x
 _atom_site_fract_y
 _atom_site_fract_z
 _atom_site_occupancy
  Ni  Ni0  1  0.00000000  0.25066767  0.17943440  1.0
  Ni  Ni1  1  0.00000000  0.58400100  0.17943440  1.0
  Ni  Ni2  1  0.00000000  0.91733433  0.17943440  1.0
  Ni  Ni3  1  0.33333333  0.25066767  0.17943440  1.0
  Ni  Ni4  1  0.33333333  0.58400100  0.17943440  1.0
  Ni  Ni5  1  0.33333333  0.91733433  0.17943440  1.0
  Ni  Ni6  1  0.66666667  0.25066767  0.17943440  1.0
  Ni  Ni7  1  0.66666667  0.58400100  0.17943440  1.0
  Ni  Ni8  1  0.66666667  0.91733433  0.17943440  1.0
  Ni  Ni9  1  0.00000000  0.08266567  0.17943440  1.0
  Ni  Ni10  1  0.00000000  0.41599900  0.17943440  1.0
  Ni  Ni11  1  0.00000000  0.74933233  0.17943440  1.0
  Ni  Ni12  1  0.33333333  0.08266567  0.17943440  1.0
  Ni  Ni13  1  0.33333333  0.41599900  0.17943440  1.0
  Ni  Ni14  1  0.33333333  0.74933233  0.17943440  1.0
  Ni  Ni15  1  0.66666667  0.08266567  0.17943440  1.0
  Ni  Ni16  1  0.66666667  0.41599900  0.17943440  1.0
  Ni  Ni17  1  0.66666667  0.74933233  0.17943440  1.0
  Ni  Ni18  1  0.28349900  0.20926433  0.12831720  1.0
  Ni  Ni19  1  0.28349900  0.54259767  0.12831720  1.0
  Ni  Ni20  1  0.28349900  0.87593100  0.12831720  1.0
  Ni  Ni21  1  0.61683233  0.20926433  0.12831720  1.0
  Ni  Ni22  1  0.61683233  0.54259767  0.12831720  1.0
  Ni  Ni23  1  0.61683233  0.87593100  0.12831720  1.0
  Ni  Ni24  1  0.95016567  0.20926433  0.12831720  1.0
  Ni  Ni25  1  0.95016567  0.54259767  0.12831720  1.0
  Ni  Ni26  1  0.95016567  0.87593100  0.12831720  1.0
  Ni  Ni27  1  0.04983433  0.12406900  0.03055160  1.0
  Ni  Ni28  1  0.04983433  0.45740233  0.03055160  1.0
  Ni  Ni29  1  0.04983433  0.79073567  0.03055160  1.0
  Ni  Ni30  1  0.38316767  0.12406900  0.03055160  1.0
  Ni  Ni31  1  0.38316767  0.45740233  0.03055160  1.0
  Ni  Ni32  1  0.38316767  0.79073567  0.03055160  1.0
  Ni  Ni33  1  0.71650100  0.12406900  0.03055160  1.0
  Ni  Ni34  1  0.71650100  0.45740233  0.03055160  1.0
  Ni  Ni35  1  0.71650100  0.79073567  0.03055160  1.0
  Ni  Ni36  1  0.13508933  0.03394467  0.13870080  1.0
  Ni  Ni37  1  0.13508933  0.36727800  0.13870080  1.0
  Ni  Ni38  1  0.13508933  0.70061133  0.13870080  1.0
  Ni  Ni39  1  0.46842267  0.03394467  0.13870080  1.0
  Ni  Ni40  1  0.46842267  0.36727800  0.13870080  1.0
  Ni  Ni41  1  0.46842267  0.70061133  0.13870080  1.0
  Ni  Ni42  1  0.80175600  0.03394467  0.13870080  1.0
  Ni  Ni43  1  0.80175600  0.36727800  0.13870080  1.0
  Ni  Ni44  1  0.80175600  0.70061133  0.13870080  1.0
  Ni  Ni45  1  0.19824400  0.29938867  0.02016800  1.0
  Ni  Ni46  1  0.19824400  0.63272200  0.02016800  1.0
  Ni  Ni47  1  0.19824400  0.96605533  0.02016800  1.0
  Ni  Ni48  1  0.53157733  0.29938867  0.02016800  1.0
  Ni  Ni49  1  0.53157733  0.63272200  0.02016800  1.0
  Ni  Ni50  1  0.53157733  0.96605533  0.02016800  1.0
  Ni  Ni51  1  0.86491067  0.29938867  0.02016800  1.0
  Ni  Ni52  1  0.86491067  0.63272200  0.02016800  1.0
  Ni  Ni53  1  0.86491067  0.96605533  0.02016800  1.0
  Ni  Ni54  1  0.08619600  0.32723900  0.08783040  1.0
  Ni  Ni55  1  0.08619600  0.66057233  0.08783040  1.0
  Ni  Ni56  1  0.08619600  0.99390567  0.08783040  1.0
  Ni  Ni57  1  0.41952933  0.32723900  0.08783040  1.0
  Ni  Ni58  1  0.41952933  0.66057233  0.08783040  1.0
  Ni  Ni59  1  0.41952933  0.99390567  0.08783040  1.0
  Ni  Ni60  1  0.75286267  0.32723900  0.08783040  1.0
  Ni  Ni61  1  0.75286267  0.66057233  0.08783040  1.0
  Ni  Ni62  1  0.75286267  0.99390567  0.08783040  1.0
  Ni  Ni63  1  0.24713733  0.17456567  0.07103840  1.0
  Ni  Ni64  1  0.24713733  0.50789900  0.07103840  1.0
  Ni  Ni65  1  0.24713733  0.84123233  0.07103840  1.0
  Ni  Ni66  1  0.58047067  0.17456567  0.07103840  1.0
  Ni  Ni67  1  0.58047067  0.50789900  0.07103840  1.0
  Ni  Ni68  1  0.58047067  0.84123233  0.07103840  1.0
  Ni  Ni69  1  0.91380400  0.17456567  0.07103840  1.0
  Ni  Ni70  1  0.91380400  0.50789900  0.07103840  1.0
  Ni  Ni71  1  0.91380400  0.84123233  0.07103840  1.0
  Ni  Ni72  1  0.08619600  0.15876767  0.08783040  1.0
  Ni  Ni73  1  0.08619600  0.49210100  0.08783040  1.0
  Ni  Ni74  1  0.08619600  0.82543433  0.08783040  1.0
  Ni  Ni75  1  0.41952933  0.15876767  0.08783040  1.0
  Ni  Ni76  1  0.41952933  0.49210100  0.08783040  1.0
  Ni  Ni77  1  0.41952933  0.82543433  0.08783040  1.0
  Ni  Ni78  1  0.75286267  0.15876767  0.08783040  1.0
  Ni  Ni79  1  0.75286267  0.49210100  0.08783040  1.0
  Ni  Ni80  1  0.75286267  0.82543433  0.08783040  1.0
  Ni  Ni81  1  0.24713733  0.00609433  0.07103840  1.0
  Ni  Ni82  1  0.24713733  0.33942767  0.07103840  1.0
  Ni  Ni83  1  0.24713733  0.67276100  0.07103840  1.0
  Ni  Ni84  1  0.58047067  0.00609433  0.07103840  1.0
  Ni  Ni85  1  0.58047067  0.33942767  0.07103840  1.0
  Ni  Ni86  1  0.58047067  0.67276100  0.07103840  1.0
  Ni  Ni87  1  0.91380400  0.00609433  0.07103840  1.0
  Ni  Ni88  1  0.91380400  0.33942767  0.07103840  1.0
  Ni  Ni89  1  0.91380400  0.67276100  0.07103840  1.0
  Sb  Sb90  1  0.28313867  0.04230400  0.12866960  1.0
  Sb  Sb91  1  0.28313867  0.37563733  0.12866960  1.0
  Sb  Sb92  1  0.28313867  0.70897067  0.12866960  1.0
  Sb  Sb93  1  0.61647200  0.04230400  0.12866960  1.0
  Sb  Sb94  1  0.61647200  0.37563733  0.12866960  1.0
  Sb  Sb95  1  0.61647200  0.70897067  0.12866960  1.0
  Sb  Sb96  1  0.94980533  0.04230400  0.12866960  1.0
  Sb  Sb97  1  0.94980533  0.37563733  0.12866960  1.0
  Sb  Sb98  1  0.94980533  0.70897067  0.12866960  1.0
  Sb  Sb99  1  0.05019467  0.29102933  0.03019920  1.0
  Sb  Sb100  1  0.05019467  0.62436267  0.03019920  1.0
  Sb  Sb101  1  0.05019467  0.95769600  0.03019920  1.0
  Sb  Sb102  1  0.38352800  0.29102933  0.03019920  1.0
  Sb  Sb103  1  0.38352800  0.62436267  0.03019920  1.0
  Sb  Sb104  1  0.38352800  0.95769600  0.03019920  1.0
  Sb  Sb105  1  0.71686133  0.29102933  0.03019920  1.0
  Sb  Sb106  1  0.71686133  0.62436267  0.03019920  1.0
  Sb  Sb107  1  0.71686133  0.95769600  0.03019920  1.0
  Sb  Sb108  1  0.13421533  0.20094267  0.13830320  1.0
  Sb  Sb109  1  0.13421533  0.53427600  0.13830320  1.0
  Sb  Sb110  1  0.13421533  0.86760933  0.13830320  1.0
  Sb  Sb111  1  0.46754867  0.20094267  0.13830320  1.0
  Sb  Sb112  1  0.46754867  0.53427600  0.13830320  1.0
  Sb  Sb113  1  0.46754867  0.86760933  0.13830320  1.0
  Sb  Sb114  1  0.80088200  0.20094267  0.13830320  1.0
  Sb  Sb115  1  0.80088200  0.53427600  0.13830320  1.0
  Sb  Sb116  1  0.80088200  0.86760933  0.13830320  1.0
  Sb  Sb117  1  0.19911800  0.13239067  0.02056560  1.0
  Sb  Sb118  1  0.19911800  0.46572400  0.02056560  1.0
  Sb  Sb119  1  0.19911800  0.79905733  0.02056560  1.0
  Sb  Sb120  1  0.53245133  0.13239067  0.02056560  1.0
  Sb  Sb121  1  0.53245133  0.46572400  0.02056560  1.0
  Sb  Sb122  1  0.53245133  0.79905733  0.02056560  1.0
  Sb  Sb123  1  0.86578467  0.13239067  0.02056560  1.0
  Sb  Sb124  1  0.86578467  0.46572400  0.02056560  1.0
  Sb  Sb125  1  0.86578467  0.79905733  0.02056560  1.0
  Ni  Ni126  1  0.00000000  0.25066767  0.37943440  1.0
  Ni  Ni127  1  0.00000000  0.58400100  0.37943440  1.0
  Ni  Ni128  1  0.00000000  0.91733433  0.37943440  1.0
  Ni  Ni129  1  0.33333333  0.25066767  0.37943440  1.0
  Ni  Ni130  1  0.33333333  0.58400100  0.37943440  1.0
  Ni  Ni131  1  0.33333333  0.91733433  0.37943440  1.0
  Ni  Ni132  1  0.66666667  0.25066767  0.37943440  1.0
  Ni  Ni133  1  0.66666667  0.58400100  0.37943440  1.0
  Ni  Ni134  1  0.66666667  0.91733433  0.37943440  1.0
  Ni  Ni135  1  0.00000000  0.08266567  0.37943440  1.0
  Ni  Ni136  1  0.00000000  0.41599900  0.37943440  1.0
  Ni  Ni137  1  0.00000000  0.74933233  0.37943440  1.0
  Ni  Ni138  1  0.33333333  0.08266567  0.37943440  1.0
  Ni  Ni139  1  0.33333333  0.41599900  0.37943440  1.0
  Ni  Ni140  1  0.33333333  0.74933233  0.37943440  1.0
  Ni  Ni141  1  0.66666667  0.08266567  0.37943440  1.0
  Ni  Ni142  1  0.66666667  0.41599900  0.37943440  1.0
  Ni  Ni143  1  0.66666667  0.74933233  0.37943440  1.0
  Ni  Ni144  1  0.28349900  0.20926433  0.32831720  1.0
  Ni  Ni145  1  0.28349900  0.54259767  0.32831720  1.0
  Ni  Ni146  1  0.28349900  0.87593100  0.32831720  1.0
  Ni  Ni147  1  0.61683233  0.20926433  0.32831720  1.0
  Ni  Ni148  1  0.61683233  0.54259767  0.32831720  1.0
  Ni  Ni149  1  0.61683233  0.87593100  0.32831720  1.0
  Ni  Ni150  1  0.95016567  0.20926433  0.32831720  1.0
  Ni  Ni151  1  0.95016567  0.54259767  0.32831720  1.0
  Ni  Ni152  1  0.95016567  0.87593100  0.32831720  1.0
  Ni  Ni153  1  0.04983433  0.12406900  0.23055160  1.0
  Ni  Ni154  1  0.04983433  0.45740233  0.23055160  1.0
  Ni  Ni155  1  0.04983433  0.79073567  0.23055160  1.0
  Ni  Ni156  1  0.38316767  0.12406900  0.23055160  1.0
  Ni  Ni157  1  0.38316767  0.45740233  0.23055160  1.0
  Ni  Ni158  1  0.38316767  0.79073567  0.23055160  1.0
  Ni  Ni159  1  0.71650100  0.12406900  0.23055160  1.0
  Ni  Ni160  1  0.71650100  0.45740233  0.23055160  1.0
  Ni  Ni161  1  0.71650100  0.79073567  0.23055160  1.0
  Ni  Ni162  1  0.13508933  0.03394467  0.33870080  1.0
  Ni  Ni163  1  0.13508933  0.36727800  0.33870080  1.0
  Ni  Ni164  1  0.13508933  0.70061133  0.33870080  1.0
  Ni  Ni165  1  0.46842267  0.03394467  0.33870080  1.0
  Ni  Ni166  1  0.46842267  0.36727800  0.33870080  1.0
  Ni  Ni167  1  0.46842267  0.70061133  0.33870080  1.0
  Ni  Ni168  1  0.80175600  0.03394467  0.33870080  1.0
  Ni  Ni169  1  0.80175600  0.36727800  0.33870080  1.0
  Ni  Ni170  1  0.80175600  0.70061133  0.33870080  1.0
  Ni  Ni171  1  0.19824400  0.29938867  0.22016800  1.0
  Ni  Ni172  1  0.19824400  0.63272200  0.22016800  1.0
  Ni  Ni173  1  0.19824400  0.96605533  0.22016800  1.0
  Ni  Ni174  1  0.53157733  0.29938867  0.22016800  1.0
  Ni  Ni175  1  0.53157733  0.63272200  0.22016800  1.0
  Ni  Ni176  1  0.53157733  0.96605533  0.22016800  1.0
  Ni  Ni177  1  0.86491067  0.29938867  0.22016800  1.0
  Ni  Ni178  1  0.86491067  0.63272200  0.22016800  1.0
  Ni  Ni179  1  0.86491067  0.96605533  0.22016800  1.0
  Ni  Ni180  1  0.08619600  0.32723900  0.28783040  1.0
  Ni  Ni181  1  0.08619600  0.66057233  0.28783040  1.0
  Ni  Ni182  1  0.08619600  0.99390567  0.28783040  1.0
  Ni  Ni183  1  0.41952933  0.32723900  0.28783040  1.0
  Ni  Ni184  1  0.41952933  0.66057233  0.28783040  1.0
  Ni  Ni185  1  0.41952933  0.99390567  0.28783040  1.0
  Ni  Ni186  1  0.75286267  0.32723900  0.28783040  1.0
  Ni  Ni187  1  0.75286267  0.66057233  0.28783040  1.0
  Ni  Ni188  1  0.75286267  0.99390567  0.28783040  1.0
  Ni  Ni189  1  0.24713733  0.17456567  0.27103840  1.0
  Ni  Ni190  1  0.24713733  0.50789900  0.27103840  1.0
  Ni  Ni191  1  0.24713733  0.84123233  0.27103840  1.0
  Ni  Ni192  1  0.58047067  0.17456567  0.27103840  1.0
  Ni  Ni193  1  0.58047067  0.50789900  0.27103840  1.0
  Ni  Ni194  1  0.58047067  0.84123233  0.27103840  1.0
  Ni  Ni195  1  0.91380400  0.17456567  0.27103840  1.0
  Ni  Ni196  1  0.91380400  0.50789900  0.27103840  1.0
  Ni  Ni197  1  0.91380400  0.84123233  0.27103840  1.0
  Ni  Ni198  1  0.08619600  0.15876767  0.28783040  1.0
  Ni  Ni199  1  0.08619600  0.49210100  0.28783040  1.0
  Ni  Ni200  1  0.08619600  0.82543433  0.28783040  1.0
  Ni  Ni201  1  0.41952933  0.15876767  0.28783040  1.0
  Ni  Ni202  1  0.41952933  0.49210100  0.28783040  1.0
  Ni  Ni203  1  0.41952933  0.82543433  0.28783040  1.0
  Ni  Ni204  1  0.75286267  0.15876767  0.28783040  1.0
  Ni  Ni205  1  0.75286267  0.49210100  0.28783040  1.0
  Ni  Ni206  1  0.75286267  0.82543433  0.28783040  1.0
  Ni  Ni207  1  0.24713733  0.00609433  0.27103840  1.0
  Ni  Ni208  1  0.24713733  0.33942767  0.27103840  1.0
  Ni  Ni209  1  0.24713733  0.67276100  0.27103840  1.0
  Ni  Ni210  1  0.58047067  0.00609433  0.27103840  1.0
  Ni  Ni211  1  0.58047067  0.33942767  0.27103840  1.0
  Ni  Ni212  1  0.58047067  0.67276100  0.27103840  1.0
  Ni  Ni213  1  0.91380400  0.00609433  0.27103840  1.0
  Ni  Ni214  1  0.91380400  0.33942767  0.27103840  1.0
  Ni  Ni215  1  0.91380400  0.67276100  0.27103840  1.0
  Sb  Sb216  1  0.28313867  0.04230400  0.32866960  1.0
  Sb  Sb217  1  0.28313867  0.37563733  0.32866960  1.0
  Sb  Sb218  1  0.28313867  0.70897067  0.32866960  1.0
  Sb  Sb219  1  0.61647200  0.04230400  0.32866960  1.0
  Sb  Sb220  1  0.61647200  0.37563733  0.32866960  1.0
  Sb  Sb221  1  0.61647200  0.70897067  0.32866960  1.0
  Sb  Sb222  1  0.94980533  0.04230400  0.32866960  1.0
  Sb  Sb223  1  0.94980533  0.37563733  0.32866960  1.0
  Sb  Sb224  1  0.94980533  0.70897067  0.32866960  1.0
  Sb  Sb225  1  0.05019467  0.29102933  0.23019920  1.0
  Sb  Sb226  1  0.05019467  0.62436267  0.23019920  1.0
  Sb  Sb227  1  0.05019467  0.95769600  0.23019920  1.0
  Sb  Sb228  1  0.38352800  0.29102933  0.23019920  1.0
  Sb  Sb229  1  0.38352800  0.62436267  0.23019920  1.0
  Sb  Sb230  1  0.38352800  0.95769600  0.23019920  1.0
  Sb  Sb231  1  0.71686133  0.29102933  0.23019920  1.0
  Sb  Sb232  1  0.71686133  0.62436267  0.23019920  1.0
  Sb  Sb233  1  0.71686133  0.95769600  0.23019920  1.0
  Sb  Sb234  1  0.13421533  0.20094267  0.33830320  1.0
  Sb  Sb235  1  0.13421533  0.53427600  0.33830320  1.0
  Sb  Sb236  1  0.13421533  0.86760933  0.33830320  1.0
  Sb  Sb237  1  0.46754867  0.20094267  0.33830320  1.0
  Sb  Sb238  1  0.46754867  0.53427600  0.33830320  1.0
  Sb  Sb239  1  0.46754867  0.86760933  0.33830320  1.0
  Sb  Sb240  1  0.80088200  0.20094267  0.33830320  1.0
  Sb  Sb241  1  0.80088200  0.53427600  0.33830320  1.0
  Sb  Sb242  1  0.80088200  0.86760933  0.33830320  1.0
  Sb  Sb243  1  0.19911800  0.13239067  0.22056560  1.0
  Sb  Sb244  1  0.19911800  0.46572400  0.22056560  1.0
  Sb  Sb245  1  0.19911800  0.79905733  0.22056560  1.0
  Sb  Sb246  1  0.53245133  0.13239067  0.22056560  1.0
  Sb  Sb247  1  0.53245133  0.46572400  0.22056560  1.0
  Sb  Sb248  1  0.53245133  0.79905733  0.22056560  1.0
  Sb  Sb249  1  0.86578467  0.13239067  0.22056560  1.0
  Sb  Sb250  1  0.86578467  0.46572400  0.22056560  1.0
  Sb  Sb251  1  0.86578467  0.79905733  0.22056560  1.0
