# generated using pymatgen
data_Ni5Sb2
_symmetry_space_group_name_H-M   'P 1'
_cell_length_a   38.90178001
_cell_length_b   33.45792645
_cell_length_c   73.71320712
_cell_angle_alpha   34.62980687
_cell_angle_beta   62.09801520
_cell_angle_gamma   32.95460785
_symmetry_Int_Tables_number   1
_chemical_formula_structural   Ni5Sb2
_chemical_formula_sum   'Ni450 Sb180'
_cell_volume   20590.50118446
_cell_formula_units_Z   90
loop_
 _symmetry_equiv_pos_site_id
 _symmetry_equiv_pos_as_xyz
  1  'x, y, z'
loop_
 _atom_site_type_symbol
 _atom_site_label
 _atom_site_symmetry_multiplicity
 _atom_site_fract_x
 _atom_site_fract_y
 _atom_site_fract_z
 _atom_site_occupancy
  Ni  Ni0  1  0.25066767  0.16533133  0.02589292  1.0
  Ni  Ni1  1  0.25066767  0.49866467  0.02589292  1.0
  Ni  Ni2  1  0.25066767  0.83199800  0.02589292  1.0
  Ni  Ni3  1  0.58400100  0.16533133  0.02589292  1.0
  Ni  Ni4  1  0.58400100  0.49866467  0.02589292  1.0
  Ni  Ni5  1  0.58400100  0.83199800  0.02589292  1.0
  Ni  Ni6  1  0.91733433  0.16533133  0.02589292  1.0
  Ni  Ni7  1  0.91733433  0.49866467  0.02589292  1.0
  Ni  Ni8  1  0.91733433  0.83199800  0.02589292  1.0
  Ni  Ni9  1  0.08266567  0.16800200  0.02522525  1.0
  Ni  Ni10  1  0.08266567  0.50133533  0.02522525  1.0
  Ni  Ni11  1  0.08266567  0.83466867  0.02522525  1.0
  Ni  Ni12  1  0.41599900  0.16800200  0.02522525  1.0
  Ni  Ni13  1  0.41599900  0.50133533  0.02522525  1.0
  Ni  Ni14  1  0.41599900  0.83466867  0.02522525  1.0
  Ni  Ni15  1  0.74933233  0.16800200  0.02522525  1.0
  Ni  Ni16  1  0.74933233  0.50133533  0.02522525  1.0
  Ni  Ni17  1  0.74933233  0.83466867  0.02522525  1.0
  Ni  Ni18  1  0.12406900  0.00000000  0.05476717  1.0
  Ni  Ni19  1  0.12406900  0.33333333  0.05476717  1.0
  Ni  Ni20  1  0.12406900  0.66666667  0.05476717  1.0
  Ni  Ni21  1  0.45740233  0.00000000  0.05476717  1.0
  Ni  Ni22  1  0.45740233  0.33333333  0.05476717  1.0
  Ni  Ni23  1  0.45740233  0.66666667  0.05476717  1.0
  Ni  Ni24  1  0.79073567  0.00000000  0.05476717  1.0
  Ni  Ni25  1  0.79073567  0.33333333  0.05476717  1.0
  Ni  Ni26  1  0.79073567  0.66666667  0.05476717  1.0
  Ni  Ni27  1  0.20926433  0.33333333  0.07968433  1.0
  Ni  Ni28  1  0.20926433  0.66666667  0.07968433  1.0
  Ni  Ni29  1  0.20926433  0.00000000  0.07968433  1.0
  Ni  Ni30  1  0.54259767  0.33333333  0.07968433  1.0
  Ni  Ni31  1  0.54259767  0.66666667  0.07968433  1.0
  Ni  Ni32  1  0.54259767  0.00000000  0.07968433  1.0
  Ni  Ni33  1  0.87593100  0.33333333  0.07968433  1.0
  Ni  Ni34  1  0.87593100  0.66666667  0.07968433  1.0
  Ni  Ni35  1  0.87593100  0.00000000  0.07968433  1.0
  Ni  Ni36  1  0.29938867  0.00000000  0.01766475  1.0
  Ni  Ni37  1  0.29938867  0.33333333  0.01766475  1.0
  Ni  Ni38  1  0.29938867  0.66666667  0.01766475  1.0
  Ni  Ni39  1  0.63272200  0.00000000  0.01766475  1.0
  Ni  Ni40  1  0.63272200  0.33333333  0.01766475  1.0
  Ni  Ni41  1  0.63272200  0.66666667  0.01766475  1.0
  Ni  Ni42  1  0.96605533  0.00000000  0.01766475  1.0
  Ni  Ni43  1  0.96605533  0.33333333  0.01766475  1.0
  Ni  Ni44  1  0.96605533  0.66666667  0.01766475  1.0
  Ni  Ni45  1  0.03394467  0.33333333  0.03345342  1.0
  Ni  Ni46  1  0.03394467  0.66666667  0.03345342  1.0
  Ni  Ni47  1  0.03394467  0.00000000  0.03345342  1.0
  Ni  Ni48  1  0.36727800  0.33333333  0.03345342  1.0
  Ni  Ni49  1  0.36727800  0.66666667  0.03345342  1.0
  Ni  Ni50  1  0.36727800  0.00000000  0.03345342  1.0
  Ni  Ni51  1  0.70061133  0.33333333  0.03345342  1.0
  Ni  Ni52  1  0.70061133  0.66666667  0.03345342  1.0
  Ni  Ni53  1  0.70061133  0.00000000  0.03345342  1.0
  Ni  Ni54  1  0.17456567  0.16486200  0.04755925  1.0
  Ni  Ni55  1  0.17456567  0.49819533  0.04755925  1.0
  Ni  Ni56  1  0.17456567  0.83152867  0.04755925  1.0
  Ni  Ni57  1  0.50789900  0.16486200  0.04755925  1.0
  Ni  Ni58  1  0.50789900  0.49819533  0.04755925  1.0
  Ni  Ni59  1  0.50789900  0.83152867  0.04755925  1.0
  Ni  Ni60  1  0.84123233  0.16486200  0.04755925  1.0
  Ni  Ni61  1  0.84123233  0.49819533  0.04755925  1.0
  Ni  Ni62  1  0.84123233  0.83152867  0.04755925  1.0
  Ni  Ni63  1  0.32723900  0.16486200  0.00446125  1.0
  Ni  Ni64  1  0.32723900  0.49819533  0.00446125  1.0
  Ni  Ni65  1  0.32723900  0.83152867  0.00446125  1.0
  Ni  Ni66  1  0.66057233  0.16486200  0.00446125  1.0
  Ni  Ni67  1  0.66057233  0.49819533  0.00446125  1.0
  Ni  Ni68  1  0.66057233  0.83152867  0.00446125  1.0
  Ni  Ni69  1  0.99390567  0.16486200  0.00446125  1.0
  Ni  Ni70  1  0.99390567  0.49819533  0.00446125  1.0
  Ni  Ni71  1  0.99390567  0.83152867  0.00446125  1.0
  Ni  Ni72  1  0.00609433  0.16847133  0.04665692  1.0
  Ni  Ni73  1  0.00609433  0.50180467  0.04665692  1.0
  Ni  Ni74  1  0.00609433  0.83513800  0.04665692  1.0
  Ni  Ni75  1  0.33942767  0.16847133  0.04665692  1.0
  Ni  Ni76  1  0.33942767  0.50180467  0.04665692  1.0
  Ni  Ni77  1  0.33942767  0.83513800  0.04665692  1.0
  Ni  Ni78  1  0.67276100  0.16847133  0.04665692  1.0
  Ni  Ni79  1  0.67276100  0.50180467  0.04665692  1.0
  Ni  Ni80  1  0.67276100  0.83513800  0.04665692  1.0
  Ni  Ni81  1  0.15876767  0.16847133  0.00355892  1.0
  Ni  Ni82  1  0.15876767  0.50180467  0.00355892  1.0
  Ni  Ni83  1  0.15876767  0.83513800  0.00355892  1.0
  Ni  Ni84  1  0.49210100  0.16847133  0.00355892  1.0
  Ni  Ni85  1  0.49210100  0.50180467  0.00355892  1.0
  Ni  Ni86  1  0.49210100  0.83513800  0.00355892  1.0
  Ni  Ni87  1  0.82543433  0.16847133  0.00355892  1.0
  Ni  Ni88  1  0.82543433  0.50180467  0.00355892  1.0
  Ni  Ni89  1  0.82543433  0.83513800  0.00355892  1.0
  Sb  Sb90  1  0.29102933  0.00000000  0.05467708  1.0
  Sb  Sb91  1  0.29102933  0.33333333  0.05467708  1.0
  Sb  Sb92  1  0.29102933  0.66666667  0.05467708  1.0
  Sb  Sb93  1  0.62436267  0.00000000  0.05467708  1.0
  Sb  Sb94  1  0.62436267  0.33333333  0.05467708  1.0
  Sb  Sb95  1  0.62436267  0.66666667  0.05467708  1.0
  Sb  Sb96  1  0.95769600  0.00000000  0.05467708  1.0
  Sb  Sb97  1  0.95769600  0.33333333  0.05467708  1.0
  Sb  Sb98  1  0.95769600  0.66666667  0.05467708  1.0
  Sb  Sb99  1  0.04230400  0.00000000  0.07977442  1.0
  Sb  Sb100  1  0.04230400  0.33333333  0.07977442  1.0
  Sb  Sb101  1  0.04230400  0.66666667  0.07977442  1.0
  Sb  Sb102  1  0.37563733  0.00000000  0.07977442  1.0
  Sb  Sb103  1  0.37563733  0.33333333  0.07977442  1.0
  Sb  Sb104  1  0.37563733  0.66666667  0.07977442  1.0
  Sb  Sb105  1  0.70897067  0.00000000  0.07977442  1.0
  Sb  Sb106  1  0.70897067  0.33333333  0.07977442  1.0
  Sb  Sb107  1  0.70897067  0.66666667  0.07977442  1.0
  Sb  Sb108  1  0.13239067  0.33333333  0.01744625  1.0
  Sb  Sb109  1  0.13239067  0.66666667  0.01744625  1.0
  Sb  Sb110  1  0.13239067  0.00000000  0.01744625  1.0
  Sb  Sb111  1  0.46572400  0.33333333  0.01744625  1.0
  Sb  Sb112  1  0.46572400  0.66666667  0.01744625  1.0
  Sb  Sb113  1  0.46572400  0.00000000  0.01744625  1.0
  Sb  Sb114  1  0.79905733  0.33333333  0.01744625  1.0
  Sb  Sb115  1  0.79905733  0.66666667  0.01744625  1.0
  Sb  Sb116  1  0.79905733  0.00000000  0.01744625  1.0
  Sb  Sb117  1  0.20094267  0.00000000  0.03367192  1.0
  Sb  Sb118  1  0.20094267  0.33333333  0.03367192  1.0
  Sb  Sb119  1  0.20094267  0.66666667  0.03367192  1.0
  Sb  Sb120  1  0.53427600  0.00000000  0.03367192  1.0
  Sb  Sb121  1  0.53427600  0.33333333  0.03367192  1.0
  Sb  Sb122  1  0.53427600  0.66666667  0.03367192  1.0
  Sb  Sb123  1  0.86760933  0.00000000  0.03367192  1.0
  Sb  Sb124  1  0.86760933  0.33333333  0.03367192  1.0
  Sb  Sb125  1  0.86760933  0.66666667  0.03367192  1.0
  Ni  Ni126  1  0.25066767  0.16533133  0.10922625  1.0
  Ni  Ni127  1  0.25066767  0.49866467  0.10922625  1.0
  Ni  Ni128  1  0.25066767  0.83199800  0.10922625  1.0
  Ni  Ni129  1  0.58400100  0.16533133  0.10922625  1.0
  Ni  Ni130  1  0.58400100  0.49866467  0.10922625  1.0
  Ni  Ni131  1  0.58400100  0.83199800  0.10922625  1.0
  Ni  Ni132  1  0.91733433  0.16533133  0.10922625  1.0
  Ni  Ni133  1  0.91733433  0.49866467  0.10922625  1.0
  Ni  Ni134  1  0.91733433  0.83199800  0.10922625  1.0
  Ni  Ni135  1  0.08266567  0.16800200  0.10855858  1.0
  Ni  Ni136  1  0.08266567  0.50133533  0.10855858  1.0
  Ni  Ni137  1  0.08266567  0.83466867  0.10855858  1.0
  Ni  Ni138  1  0.41599900  0.16800200  0.10855858  1.0
  Ni  Ni139  1  0.41599900  0.50133533  0.10855858  1.0
  Ni  Ni140  1  0.41599900  0.83466867  0.10855858  1.0
  Ni  Ni141  1  0.74933233  0.16800200  0.10855858  1.0
  Ni  Ni142  1  0.74933233  0.50133533  0.10855858  1.0
  Ni  Ni143  1  0.74933233  0.83466867  0.10855858  1.0
  Ni  Ni144  1  0.12406900  0.00000000  0.13810050  1.0
  Ni  Ni145  1  0.12406900  0.33333333  0.13810050  1.0
  Ni  Ni146  1  0.12406900  0.66666667  0.13810050  1.0
  Ni  Ni147  1  0.45740233  0.00000000  0.13810050  1.0
  Ni  Ni148  1  0.45740233  0.33333333  0.13810050  1.0
  Ni  Ni149  1  0.45740233  0.66666667  0.13810050  1.0
  Ni  Ni150  1  0.79073567  0.00000000  0.13810050  1.0
  Ni  Ni151  1  0.79073567  0.33333333  0.13810050  1.0
  Ni  Ni152  1  0.79073567  0.66666667  0.13810050  1.0
  Ni  Ni153  1  0.20926433  0.33333333  0.16301767  1.0
  Ni  Ni154  1  0.20926433  0.66666667  0.16301767  1.0
  Ni  Ni155  1  0.20926433  0.00000000  0.16301767  1.0
  Ni  Ni156  1  0.54259767  0.33333333  0.16301767  1.0
  Ni  Ni157  1  0.54259767  0.66666667  0.16301767  1.0
  Ni  Ni158  1  0.54259767  0.00000000  0.16301767  1.0
  Ni  Ni159  1  0.87593100  0.33333333  0.16301767  1.0
  Ni  Ni160  1  0.87593100  0.66666667  0.16301767  1.0
  Ni  Ni161  1  0.87593100  0.00000000  0.16301767  1.0
  Ni  Ni162  1  0.29938867  0.00000000  0.10099808  1.0
  Ni  Ni163  1  0.29938867  0.33333333  0.10099808  1.0
  Ni  Ni164  1  0.29938867  0.66666667  0.10099808  1.0
  Ni  Ni165  1  0.63272200  0.00000000  0.10099808  1.0
  Ni  Ni166  1  0.63272200  0.33333333  0.10099808  1.0
  Ni  Ni167  1  0.63272200  0.66666667  0.10099808  1.0
  Ni  Ni168  1  0.96605533  0.00000000  0.10099808  1.0
  Ni  Ni169  1  0.96605533  0.33333333  0.10099808  1.0
  Ni  Ni170  1  0.96605533  0.66666667  0.10099808  1.0
  Ni  Ni171  1  0.03394467  0.33333333  0.11678675  1.0
  Ni  Ni172  1  0.03394467  0.66666667  0.11678675  1.0
  Ni  Ni173  1  0.03394467  0.00000000  0.11678675  1.0
  Ni  Ni174  1  0.36727800  0.33333333  0.11678675  1.0
  Ni  Ni175  1  0.36727800  0.66666667  0.11678675  1.0
  Ni  Ni176  1  0.36727800  0.00000000  0.11678675  1.0
  Ni  Ni177  1  0.70061133  0.33333333  0.11678675  1.0
  Ni  Ni178  1  0.70061133  0.66666667  0.11678675  1.0
  Ni  Ni179  1  0.70061133  0.00000000  0.11678675  1.0
  Ni  Ni180  1  0.17456567  0.16486200  0.13089258  1.0
  Ni  Ni181  1  0.17456567  0.49819533  0.13089258  1.0
  Ni  Ni182  1  0.17456567  0.83152867  0.13089258  1.0
  Ni  Ni183  1  0.50789900  0.16486200  0.13089258  1.0
  Ni  Ni184  1  0.50789900  0.49819533  0.13089258  1.0
  Ni  Ni185  1  0.50789900  0.83152867  0.13089258  1.0
  Ni  Ni186  1  0.84123233  0.16486200  0.13089258  1.0
  Ni  Ni187  1  0.84123233  0.49819533  0.13089258  1.0
  Ni  Ni188  1  0.84123233  0.83152867  0.13089258  1.0
  Ni  Ni189  1  0.32723900  0.16486200  0.08779458  1.0
  Ni  Ni190  1  0.32723900  0.49819533  0.08779458  1.0
  Ni  Ni191  1  0.32723900  0.83152867  0.08779458  1.0
  Ni  Ni192  1  0.66057233  0.16486200  0.08779458  1.0
  Ni  Ni193  1  0.66057233  0.49819533  0.08779458  1.0
  Ni  Ni194  1  0.66057233  0.83152867  0.08779458  1.0
  Ni  Ni195  1  0.99390567  0.16486200  0.08779458  1.0
  Ni  Ni196  1  0.99390567  0.49819533  0.08779458  1.0
  Ni  Ni197  1  0.99390567  0.83152867  0.08779458  1.0
  Ni  Ni198  1  0.00609433  0.16847133  0.12999025  1.0
  Ni  Ni199  1  0.00609433  0.50180467  0.12999025  1.0
  Ni  Ni200  1  0.00609433  0.83513800  0.12999025  1.0
  Ni  Ni201  1  0.33942767  0.16847133  0.12999025  1.0
  Ni  Ni202  1  0.33942767  0.50180467  0.12999025  1.0
  Ni  Ni203  1  0.33942767  0.83513800  0.12999025  1.0
  Ni  Ni204  1  0.67276100  0.16847133  0.12999025  1.0
  Ni  Ni205  1  0.67276100  0.50180467  0.12999025  1.0
  Ni  Ni206  1  0.67276100  0.83513800  0.12999025  1.0
  Ni  Ni207  1  0.15876767  0.16847133  0.08689225  1.0
  Ni  Ni208  1  0.15876767  0.50180467  0.08689225  1.0
  Ni  Ni209  1  0.15876767  0.83513800  0.08689225  1.0
  Ni  Ni210  1  0.49210100  0.16847133  0.08689225  1.0
  Ni  Ni211  1  0.49210100  0.50180467  0.08689225  1.0
  Ni  Ni212  1  0.49210100  0.83513800  0.08689225  1.0
  Ni  Ni213  1  0.82543433  0.16847133  0.08689225  1.0
  Ni  Ni214  1  0.82543433  0.50180467  0.08689225  1.0
  Ni  Ni215  1  0.82543433  0.83513800  0.08689225  1.0
  Sb  Sb216  1  0.29102933  0.00000000  0.13801042  1.0
  Sb  Sb217  1  0.29102933  0.33333333  0.13801042  1.0
  Sb  Sb218  1  0.29102933  0.66666667  0.13801042  1.0
  Sb  Sb219  1  0.62436267  0.00000000  0.13801042  1.0
  Sb  Sb220  1  0.62436267  0.33333333  0.13801042  1.0
  Sb  Sb221  1  0.62436267  0.66666667  0.13801042  1.0
  Sb  Sb222  1  0.95769600  0.00000000  0.13801042  1.0
  Sb  Sb223  1  0.95769600  0.33333333  0.13801042  1.0
  Sb  Sb224  1  0.95769600  0.66666667  0.13801042  1.0
  Sb  Sb225  1  0.04230400  0.00000000  0.16310775  1.0
  Sb  Sb226  1  0.04230400  0.33333333  0.16310775  1.0
  Sb  Sb227  1  0.04230400  0.66666667  0.16310775  1.0
  Sb  Sb228  1  0.37563733  0.00000000  0.16310775  1.0
  Sb  Sb229  1  0.37563733  0.33333333  0.16310775  1.0
  Sb  Sb230  1  0.37563733  0.66666667  0.16310775  1.0
  Sb  Sb231  1  0.70897067  0.00000000  0.16310775  1.0
  Sb  Sb232  1  0.70897067  0.33333333  0.16310775  1.0
  Sb  Sb233  1  0.70897067  0.66666667  0.16310775  1.0
  Sb  Sb234  1  0.13239067  0.33333333  0.10077958  1.0
  Sb  Sb235  1  0.13239067  0.66666667  0.10077958  1.0
  Sb  Sb236  1  0.13239067  0.00000000  0.10077958  1.0
  Sb  Sb237  1  0.46572400  0.33333333  0.10077958  1.0
  Sb  Sb238  1  0.46572400  0.66666667  0.10077958  1.0
  Sb  Sb239  1  0.46572400  0.00000000  0.10077958  1.0
  Sb  Sb240  1  0.79905733  0.33333333  0.10077958  1.0
  Sb  Sb241  1  0.79905733  0.66666667  0.10077958  1.0
  Sb  Sb242  1  0.79905733  0.00000000  0.10077958  1.0
  Sb  Sb243  1  0.20094267  0.00000000  0.11700525  1.0
  Sb  Sb244  1  0.20094267  0.33333333  0.11700525  1.0
  Sb  Sb245  1  0.20094267  0.66666667  0.11700525  1.0
  Sb  Sb246  1  0.53427600  0.00000000  0.11700525  1.0
  Sb  Sb247  1  0.53427600  0.33333333  0.11700525  1.0
  Sb  Sb248  1  0.53427600  0.66666667  0.11700525  1.0
  Sb  Sb249  1  0.86760933  0.00000000  0.11700525  1.0
  Sb  Sb250  1  0.86760933  0.33333333  0.11700525  1.0
  Sb  Sb251  1  0.86760933  0.66666667  0.11700525  1.0
  Ni  Ni252  1  0.25066767  0.16533133  0.19255958  1.0
  Ni  Ni253  1  0.25066767  0.49866467  0.19255958  1.0
  Ni  Ni254  1  0.25066767  0.83199800  0.19255958  1.0
  Ni  Ni255  1  0.58400100  0.16533133  0.19255958  1.0
  Ni  Ni256  1  0.58400100  0.49866467  0.19255958  1.0
  Ni  Ni257  1  0.58400100  0.83199800  0.19255958  1.0
  Ni  Ni258  1  0.91733433  0.16533133  0.19255958  1.0
  Ni  Ni259  1  0.91733433  0.49866467  0.19255958  1.0
  Ni  Ni260  1  0.91733433  0.83199800  0.19255958  1.0
  Ni  Ni261  1  0.08266567  0.16800200  0.19189192  1.0
  Ni  Ni262  1  0.08266567  0.50133533  0.19189192  1.0
  Ni  Ni263  1  0.08266567  0.83466867  0.19189192  1.0
  Ni  Ni264  1  0.41599900  0.16800200  0.19189192  1.0
  Ni  Ni265  1  0.41599900  0.50133533  0.19189192  1.0
  Ni  Ni266  1  0.41599900  0.83466867  0.19189192  1.0
  Ni  Ni267  1  0.74933233  0.16800200  0.19189192  1.0
  Ni  Ni268  1  0.74933233  0.50133533  0.19189192  1.0
  Ni  Ni269  1  0.74933233  0.83466867  0.19189192  1.0
  Ni  Ni270  1  0.12406900  0.00000000  0.22143383  1.0
  Ni  Ni271  1  0.12406900  0.33333333  0.22143383  1.0
  Ni  Ni272  1  0.12406900  0.66666667  0.22143383  1.0
  Ni  Ni273  1  0.45740233  0.00000000  0.22143383  1.0
  Ni  Ni274  1  0.45740233  0.33333333  0.22143383  1.0
  Ni  Ni275  1  0.45740233  0.66666667  0.22143383  1.0
  Ni  Ni276  1  0.79073567  0.00000000  0.22143383  1.0
  Ni  Ni277  1  0.79073567  0.33333333  0.22143383  1.0
  Ni  Ni278  1  0.79073567  0.66666667  0.22143383  1.0
  Ni  Ni279  1  0.20926433  0.33333333  0.24635100  1.0
  Ni  Ni280  1  0.20926433  0.66666667  0.24635100  1.0
  Ni  Ni281  1  0.20926433  0.00000000  0.24635100  1.0
  Ni  Ni282  1  0.54259767  0.33333333  0.24635100  1.0
  Ni  Ni283  1  0.54259767  0.66666667  0.24635100  1.0
  Ni  Ni284  1  0.54259767  0.00000000  0.24635100  1.0
  Ni  Ni285  1  0.87593100  0.33333333  0.24635100  1.0
  Ni  Ni286  1  0.87593100  0.66666667  0.24635100  1.0
  Ni  Ni287  1  0.87593100  0.00000000  0.24635100  1.0
  Ni  Ni288  1  0.29938867  0.00000000  0.18433142  1.0
  Ni  Ni289  1  0.29938867  0.33333333  0.18433142  1.0
  Ni  Ni290  1  0.29938867  0.66666667  0.18433142  1.0
  Ni  Ni291  1  0.63272200  0.00000000  0.18433142  1.0
  Ni  Ni292  1  0.63272200  0.33333333  0.18433142  1.0
  Ni  Ni293  1  0.63272200  0.66666667  0.18433142  1.0
  Ni  Ni294  1  0.96605533  0.00000000  0.18433142  1.0
  Ni  Ni295  1  0.96605533  0.33333333  0.18433142  1.0
  Ni  Ni296  1  0.96605533  0.66666667  0.18433142  1.0
  Ni  Ni297  1  0.03394467  0.33333333  0.20012008  1.0
  Ni  Ni298  1  0.03394467  0.66666667  0.20012008  1.0
  Ni  Ni299  1  0.03394467  0.00000000  0.20012008  1.0
  Ni  Ni300  1  0.36727800  0.33333333  0.20012008  1.0
  Ni  Ni301  1  0.36727800  0.66666667  0.20012008  1.0
  Ni  Ni302  1  0.36727800  0.00000000  0.20012008  1.0
  Ni  Ni303  1  0.70061133  0.33333333  0.20012008  1.0
  Ni  Ni304  1  0.70061133  0.66666667  0.20012008  1.0
  Ni  Ni305  1  0.70061133  0.00000000  0.20012008  1.0
  Ni  Ni306  1  0.17456567  0.16486200  0.21422592  1.0
  Ni  Ni307  1  0.17456567  0.49819533  0.21422592  1.0
  Ni  Ni308  1  0.17456567  0.83152867  0.21422592  1.0
  Ni  Ni309  1  0.50789900  0.16486200  0.21422592  1.0
  Ni  Ni310  1  0.50789900  0.49819533  0.21422592  1.0
  Ni  Ni311  1  0.50789900  0.83152867  0.21422592  1.0
  Ni  Ni312  1  0.84123233  0.16486200  0.21422592  1.0
  Ni  Ni313  1  0.84123233  0.49819533  0.21422592  1.0
  Ni  Ni314  1  0.84123233  0.83152867  0.21422592  1.0
  Ni  Ni315  1  0.32723900  0.16486200  0.17112792  1.0
  Ni  Ni316  1  0.32723900  0.49819533  0.17112792  1.0
  Ni  Ni317  1  0.32723900  0.83152867  0.17112792  1.0
  Ni  Ni318  1  0.66057233  0.16486200  0.17112792  1.0
  Ni  Ni319  1  0.66057233  0.49819533  0.17112792  1.0
  Ni  Ni320  1  0.66057233  0.83152867  0.17112792  1.0
  Ni  Ni321  1  0.99390567  0.16486200  0.17112792  1.0
  Ni  Ni322  1  0.99390567  0.49819533  0.17112792  1.0
  Ni  Ni323  1  0.99390567  0.83152867  0.17112792  1.0
  Ni  Ni324  1  0.00609433  0.16847133  0.21332358  1.0
  Ni  Ni325  1  0.00609433  0.50180467  0.21332358  1.0
  Ni  Ni326  1  0.00609433  0.83513800  0.21332358  1.0
  Ni  Ni327  1  0.33942767  0.16847133  0.21332358  1.0
  Ni  Ni328  1  0.33942767  0.50180467  0.21332358  1.0
  Ni  Ni329  1  0.33942767  0.83513800  0.21332358  1.0
  Ni  Ni330  1  0.67276100  0.16847133  0.21332358  1.0
  Ni  Ni331  1  0.67276100  0.50180467  0.21332358  1.0
  Ni  Ni332  1  0.67276100  0.83513800  0.21332358  1.0
  Ni  Ni333  1  0.15876767  0.16847133  0.17022558  1.0
  Ni  Ni334  1  0.15876767  0.50180467  0.17022558  1.0
  Ni  Ni335  1  0.15876767  0.83513800  0.17022558  1.0
  Ni  Ni336  1  0.49210100  0.16847133  0.17022558  1.0
  Ni  Ni337  1  0.49210100  0.50180467  0.17022558  1.0
  Ni  Ni338  1  0.49210100  0.83513800  0.17022558  1.0
  Ni  Ni339  1  0.82543433  0.16847133  0.17022558  1.0
  Ni  Ni340  1  0.82543433  0.50180467  0.17022558  1.0
  Ni  Ni341  1  0.82543433  0.83513800  0.17022558  1.0
  Sb  Sb342  1  0.29102933  0.00000000  0.22134375  1.0
  Sb  Sb343  1  0.29102933  0.33333333  0.22134375  1.0
  Sb  Sb344  1  0.29102933  0.66666667  0.22134375  1.0
  Sb  Sb345  1  0.62436267  0.00000000  0.22134375  1.0
  Sb  Sb346  1  0.62436267  0.33333333  0.22134375  1.0
  Sb  Sb347  1  0.62436267  0.66666667  0.22134375  1.0
  Sb  Sb348  1  0.95769600  0.00000000  0.22134375  1.0
  Sb  Sb349  1  0.95769600  0.33333333  0.22134375  1.0
  Sb  Sb350  1  0.95769600  0.66666667  0.22134375  1.0
  Sb  Sb351  1  0.04230400  0.00000000  0.24644108  1.0
  Sb  Sb352  1  0.04230400  0.33333333  0.24644108  1.0
  Sb  Sb353  1  0.04230400  0.66666667  0.24644108  1.0
  Sb  Sb354  1  0.37563733  0.00000000  0.24644108  1.0
  Sb  Sb355  1  0.37563733  0.33333333  0.24644108  1.0
  Sb  Sb356  1  0.37563733  0.66666667  0.24644108  1.0
  Sb  Sb357  1  0.70897067  0.00000000  0.24644108  1.0
  Sb  Sb358  1  0.70897067  0.33333333  0.24644108  1.0
  Sb  Sb359  1  0.70897067  0.66666667  0.24644108  1.0
  Sb  Sb360  1  0.13239067  0.33333333  0.18411292  1.0
  Sb  Sb361  1  0.13239067  0.66666667  0.18411292  1.0
  Sb  Sb362  1  0.13239067  0.00000000  0.18411292  1.0
  Sb  Sb363  1  0.46572400  0.33333333  0.18411292  1.0
  Sb  Sb364  1  0.46572400  0.66666667  0.18411292  1.0
  Sb  Sb365  1  0.46572400  0.00000000  0.18411292  1.0
  Sb  Sb366  1  0.79905733  0.33333333  0.18411292  1.0
  Sb  Sb367  1  0.79905733  0.66666667  0.18411292  1.0
  Sb  Sb368  1  0.79905733  0.00000000  0.18411292  1.0
  Sb  Sb369  1  0.20094267  0.00000000  0.20033858  1.0
  Sb  Sb370  1  0.20094267  0.33333333  0.20033858  1.0
  Sb  Sb371  1  0.20094267  0.66666667  0.20033858  1.0
  Sb  Sb372  1  0.53427600  0.00000000  0.20033858  1.0
  Sb  Sb373  1  0.53427600  0.33333333  0.20033858  1.0
  Sb  Sb374  1  0.53427600  0.66666667  0.20033858  1.0
  Sb  Sb375  1  0.86760933  0.00000000  0.20033858  1.0
  Sb  Sb376  1  0.86760933  0.33333333  0.20033858  1.0
  Sb  Sb377  1  0.86760933  0.66666667  0.20033858  1.0
  Ni  Ni378  1  0.25066767  0.16533133  0.27589292  1.0
  Ni  Ni379  1  0.25066767  0.49866467  0.27589292  1.0
  Ni  Ni380  1  0.25066767  0.83199800  0.27589292  1.0
  Ni  Ni381  1  0.58400100  0.16533133  0.27589292  1.0
  Ni  Ni382  1  0.58400100  0.49866467  0.27589292  1.0
  Ni  Ni383  1  0.58400100  0.83199800  0.27589292  1.0
  Ni  Ni384  1  0.91733433  0.16533133  0.27589292  1.0
  Ni  Ni385  1  0.91733433  0.49866467  0.27589292  1.0
  Ni  Ni386  1  0.91733433  0.83199800  0.27589292  1.0
  Ni  Ni387  1  0.08266567  0.16800200  0.27522525  1.0
  Ni  Ni388  1  0.08266567  0.50133533  0.27522525  1.0
  Ni  Ni389  1  0.08266567  0.83466867  0.27522525  1.0
  Ni  Ni390  1  0.41599900  0.16800200  0.27522525  1.0
  Ni  Ni391  1  0.41599900  0.50133533  0.27522525  1.0
  Ni  Ni392  1  0.41599900  0.83466867  0.27522525  1.0
  Ni  Ni393  1  0.74933233  0.16800200  0.27522525  1.0
  Ni  Ni394  1  0.74933233  0.50133533  0.27522525  1.0
  Ni  Ni395  1  0.74933233  0.83466867  0.27522525  1.0
  Ni  Ni396  1  0.12406900  0.00000000  0.30476717  1.0
  Ni  Ni397  1  0.12406900  0.33333333  0.30476717  1.0
  Ni  Ni398  1  0.12406900  0.66666667  0.30476717  1.0
  Ni  Ni399  1  0.45740233  0.00000000  0.30476717  1.0
  Ni  Ni400  1  0.45740233  0.33333333  0.30476717  1.0
  Ni  Ni401  1  0.45740233  0.66666667  0.30476717  1.0
  Ni  Ni402  1  0.79073567  0.00000000  0.30476717  1.0
  Ni  Ni403  1  0.79073567  0.33333333  0.30476717  1.0
  Ni  Ni404  1  0.79073567  0.66666667  0.30476717  1.0
  Ni  Ni405  1  0.20926433  0.33333333  0.32968433  1.0
  Ni  Ni406  1  0.20926433  0.66666667  0.32968433  1.0
  Ni  Ni407  1  0.20926433  0.00000000  0.32968433  1.0
  Ni  Ni408  1  0.54259767  0.33333333  0.32968433  1.0
  Ni  Ni409  1  0.54259767  0.66666667  0.32968433  1.0
  Ni  Ni410  1  0.54259767  0.00000000  0.32968433  1.0
  Ni  Ni411  1  0.87593100  0.33333333  0.32968433  1.0
  Ni  Ni412  1  0.87593100  0.66666667  0.32968433  1.0
  Ni  Ni413  1  0.87593100  0.00000000  0.32968433  1.0
  Ni  Ni414  1  0.29938867  0.00000000  0.26766475  1.0
  Ni  Ni415  1  0.29938867  0.33333333  0.26766475  1.0
  Ni  Ni416  1  0.29938867  0.66666667  0.26766475  1.0
  Ni  Ni417  1  0.63272200  0.00000000  0.26766475  1.0
  Ni  Ni418  1  0.63272200  0.33333333  0.26766475  1.0
  Ni  Ni419  1  0.63272200  0.66666667  0.26766475  1.0
  Ni  Ni420  1  0.96605533  0.00000000  0.26766475  1.0
  Ni  Ni421  1  0.96605533  0.33333333  0.26766475  1.0
  Ni  Ni422  1  0.96605533  0.66666667  0.26766475  1.0
  Ni  Ni423  1  0.03394467  0.33333333  0.28345342  1.0
  Ni  Ni424  1  0.03394467  0.66666667  0.28345342  1.0
  Ni  Ni425  1  0.03394467  0.00000000  0.28345342  1.0
  Ni  Ni426  1  0.36727800  0.33333333  0.28345342  1.0
  Ni  Ni427  1  0.36727800  0.66666667  0.28345342  1.0
  Ni  Ni428  1  0.36727800  0.00000000  0.28345342  1.0
  Ni  Ni429  1  0.70061133  0.33333333  0.28345342  1.0
  Ni  Ni430  1  0.70061133  0.66666667  0.28345342  1.0
  Ni  Ni431  1  0.70061133  0.00000000  0.28345342  1.0
  Ni  Ni432  1  0.17456567  0.16486200  0.29755925  1.0
  Ni  Ni433  1  0.17456567  0.49819533  0.29755925  1.0
  Ni  Ni434  1  0.17456567  0.83152867  0.29755925  1.0
  Ni  Ni435  1  0.50789900  0.16486200  0.29755925  1.0
  Ni  Ni436  1  0.50789900  0.49819533  0.29755925  1.0
  Ni  Ni437  1  0.50789900  0.83152867  0.29755925  1.0
  Ni  Ni438  1  0.84123233  0.16486200  0.29755925  1.0
  Ni  Ni439  1  0.84123233  0.49819533  0.29755925  1.0
  Ni  Ni440  1  0.84123233  0.83152867  0.29755925  1.0
  Ni  Ni441  1  0.32723900  0.16486200  0.25446125  1.0
  Ni  Ni442  1  0.32723900  0.49819533  0.25446125  1.0
  Ni  Ni443  1  0.32723900  0.83152867  0.25446125  1.0
  Ni  Ni444  1  0.66057233  0.16486200  0.25446125  1.0
  Ni  Ni445  1  0.66057233  0.49819533  0.25446125  1.0
  Ni  Ni446  1  0.66057233  0.83152867  0.25446125  1.0
  Ni  Ni447  1  0.99390567  0.16486200  0.25446125  1.0
  Ni  Ni448  1  0.99390567  0.49819533  0.25446125  1.0
  Ni  Ni449  1  0.99390567  0.83152867  0.25446125  1.0
  Ni  Ni450  1  0.00609433  0.16847133  0.29665692  1.0
  Ni  Ni451  1  0.00609433  0.50180467  0.29665692  1.0
  Ni  Ni452  1  0.00609433  0.83513800  0.29665692  1.0
  Ni  Ni453  1  0.33942767  0.16847133  0.29665692  1.0
  Ni  Ni454  1  0.33942767  0.50180467  0.29665692  1.0
  Ni  Ni455  1  0.33942767  0.83513800  0.29665692  1.0
  Ni  Ni456  1  0.67276100  0.16847133  0.29665692  1.0
  Ni  Ni457  1  0.67276100  0.50180467  0.29665692  1.0
  Ni  Ni458  1  0.67276100  0.83513800  0.29665692  1.0
  Ni  Ni459  1  0.15876767  0.16847133  0.25355892  1.0
  Ni  Ni460  1  0.15876767  0.50180467  0.25355892  1.0
  Ni  Ni461  1  0.15876767  0.83513800  0.25355892  1.0
  Ni  Ni462  1  0.49210100  0.16847133  0.25355892  1.0
  Ni  Ni463  1  0.49210100  0.50180467  0.25355892  1.0
  Ni  Ni464  1  0.49210100  0.83513800  0.25355892  1.0
  Ni  Ni465  1  0.82543433  0.16847133  0.25355892  1.0
  Ni  Ni466  1  0.82543433  0.50180467  0.25355892  1.0
  Ni  Ni467  1  0.82543433  0.83513800  0.25355892  1.0
  Sb  Sb468  1  0.29102933  0.00000000  0.30467708  1.0
  Sb  Sb469  1  0.29102933  0.33333333  0.30467708  1.0
  Sb  Sb470  1  0.29102933  0.66666667  0.30467708  1.0
  Sb  Sb471  1  0.62436267  0.00000000  0.30467708  1.0
  Sb  Sb472  1  0.62436267  0.33333333  0.30467708  1.0
  Sb  Sb473  1  0.62436267  0.66666667  0.30467708  1.0
  Sb  Sb474  1  0.95769600  0.00000000  0.30467708  1.0
  Sb  Sb475  1  0.95769600  0.33333333  0.30467708  1.0
  Sb  Sb476  1  0.95769600  0.66666667  0.30467708  1.0
  Sb  Sb477  1  0.04230400  0.00000000  0.32977442  1.0
  Sb  Sb478  1  0.04230400  0.33333333  0.32977442  1.0
  Sb  Sb479  1  0.04230400  0.66666667  0.32977442  1.0
  Sb  Sb480  1  0.37563733  0.00000000  0.32977442  1.0
  Sb  Sb481  1  0.37563733  0.33333333  0.32977442  1.0
  Sb  Sb482  1  0.37563733  0.66666667  0.32977442  1.0
  Sb  Sb483  1  0.70897067  0.00000000  0.32977442  1.0
  Sb  Sb484  1  0.70897067  0.33333333  0.32977442  1.0
  Sb  Sb485  1  0.70897067  0.66666667  0.32977442  1.0
  Sb  Sb486  1  0.13239067  0.33333333  0.26744625  1.0
  Sb  Sb487  1  0.13239067  0.66666667  0.26744625  1.0
  Sb  Sb488  1  0.13239067  0.00000000  0.26744625  1.0
  Sb  Sb489  1  0.46572400  0.33333333  0.26744625  1.0
  Sb  Sb490  1  0.46572400  0.66666667  0.26744625  1.0
  Sb  Sb491  1  0.46572400  0.00000000  0.26744625  1.0
  Sb  Sb492  1  0.79905733  0.33333333  0.26744625  1.0
  Sb  Sb493  1  0.79905733  0.66666667  0.26744625  1.0
  Sb  Sb494  1  0.79905733  0.00000000  0.26744625  1.0
  Sb  Sb495  1  0.20094267  0.00000000  0.28367192  1.0
  Sb  Sb496  1  0.20094267  0.33333333  0.28367192  1.0
  Sb  Sb497  1  0.20094267  0.66666667  0.28367192  1.0
  Sb  Sb498  1  0.53427600  0.00000000  0.28367192  1.0
  Sb  Sb499  1  0.53427600  0.33333333  0.28367192  1.0
  Sb  Sb500  1  0.53427600  0.66666667  0.28367192  1.0
  Sb  Sb501  1  0.86760933  0.00000000  0.28367192  1.0
  Sb  Sb502  1  0.86760933  0.33333333  0.28367192  1.0
  Sb  Sb503  1  0.86760933  0.66666667  0.28367192  1.0
  Ni  Ni504  1  0.25066767  0.16533133  0.35922625  1.0
  Ni  Ni505  1  0.25066767  0.49866467  0.35922625  1.0
  Ni  Ni506  1  0.25066767  0.83199800  0.35922625  1.0
  Ni  Ni507  1  0.58400100  0.16533133  0.35922625  1.0
  Ni  Ni508  1  0.58400100  0.49866467  0.35922625  1.0
  Ni  Ni509  1  0.58400100  0.83199800  0.35922625  1.0
  Ni  Ni510  1  0.91733433  0.16533133  0.35922625  1.0
  Ni  Ni511  1  0.91733433  0.49866467  0.35922625  1.0
  Ni  Ni512  1  0.91733433  0.83199800  0.35922625  1.0
  Ni  Ni513  1  0.08266567  0.16800200  0.35855858  1.0
  Ni  Ni514  1  0.08266567  0.50133533  0.35855858  1.0
  Ni  Ni515  1  0.08266567  0.83466867  0.35855858  1.0
  Ni  Ni516  1  0.41599900  0.16800200  0.35855858  1.0
  Ni  Ni517  1  0.41599900  0.50133533  0.35855858  1.0
  Ni  Ni518  1  0.41599900  0.83466867  0.35855858  1.0
  Ni  Ni519  1  0.74933233  0.16800200  0.35855858  1.0
  Ni  Ni520  1  0.74933233  0.50133533  0.35855858  1.0
  Ni  Ni521  1  0.74933233  0.83466867  0.35855858  1.0
  Ni  Ni522  1  0.12406900  0.00000000  0.38810050  1.0
  Ni  Ni523  1  0.12406900  0.33333333  0.38810050  1.0
  Ni  Ni524  1  0.12406900  0.66666667  0.38810050  1.0
  Ni  Ni525  1  0.45740233  0.00000000  0.38810050  1.0
  Ni  Ni526  1  0.45740233  0.33333333  0.38810050  1.0
  Ni  Ni527  1  0.45740233  0.66666667  0.38810050  1.0
  Ni  Ni528  1  0.79073567  0.00000000  0.38810050  1.0
  Ni  Ni529  1  0.79073567  0.33333333  0.38810050  1.0
  Ni  Ni530  1  0.79073567  0.66666667  0.38810050  1.0
  Ni  Ni531  1  0.20926433  0.33333333  0.41301767  1.0
  Ni  Ni532  1  0.20926433  0.66666667  0.41301767  1.0
  Ni  Ni533  1  0.20926433  0.00000000  0.41301767  1.0
  Ni  Ni534  1  0.54259767  0.33333333  0.41301767  1.0
  Ni  Ni535  1  0.54259767  0.66666667  0.41301767  1.0
  Ni  Ni536  1  0.54259767  0.00000000  0.41301767  1.0
  Ni  Ni537  1  0.87593100  0.33333333  0.41301767  1.0
  Ni  Ni538  1  0.87593100  0.66666667  0.41301767  1.0
  Ni  Ni539  1  0.87593100  0.00000000  0.41301767  1.0
  Ni  Ni540  1  0.29938867  0.00000000  0.35099808  1.0
  Ni  Ni541  1  0.29938867  0.33333333  0.35099808  1.0
  Ni  Ni542  1  0.29938867  0.66666667  0.35099808  1.0
  Ni  Ni543  1  0.63272200  0.00000000  0.35099808  1.0
  Ni  Ni544  1  0.63272200  0.33333333  0.35099808  1.0
  Ni  Ni545  1  0.63272200  0.66666667  0.35099808  1.0
  Ni  Ni546  1  0.96605533  0.00000000  0.35099808  1.0
  Ni  Ni547  1  0.96605533  0.33333333  0.35099808  1.0
  Ni  Ni548  1  0.96605533  0.66666667  0.35099808  1.0
  Ni  Ni549  1  0.03394467  0.33333333  0.36678675  1.0
  Ni  Ni550  1  0.03394467  0.66666667  0.36678675  1.0
  Ni  Ni551  1  0.03394467  0.00000000  0.36678675  1.0
  Ni  Ni552  1  0.36727800  0.33333333  0.36678675  1.0
  Ni  Ni553  1  0.36727800  0.66666667  0.36678675  1.0
  Ni  Ni554  1  0.36727800  0.00000000  0.36678675  1.0
  Ni  Ni555  1  0.70061133  0.33333333  0.36678675  1.0
  Ni  Ni556  1  0.70061133  0.66666667  0.36678675  1.0
  Ni  Ni557  1  0.70061133  0.00000000  0.36678675  1.0
  Ni  Ni558  1  0.17456567  0.16486200  0.38089258  1.0
  Ni  Ni559  1  0.17456567  0.49819533  0.38089258  1.0
  Ni  Ni560  1  0.17456567  0.83152867  0.38089258  1.0
  Ni  Ni561  1  0.50789900  0.16486200  0.38089258  1.0
  Ni  Ni562  1  0.50789900  0.49819533  0.38089258  1.0
  Ni  Ni563  1  0.50789900  0.83152867  0.38089258  1.0
  Ni  Ni564  1  0.84123233  0.16486200  0.38089258  1.0
  Ni  Ni565  1  0.84123233  0.49819533  0.38089258  1.0
  Ni  Ni566  1  0.84123233  0.83152867  0.38089258  1.0
  Ni  Ni567  1  0.32723900  0.16486200  0.33779458  1.0
  Ni  Ni568  1  0.32723900  0.49819533  0.33779458  1.0
  Ni  Ni569  1  0.32723900  0.83152867  0.33779458  1.0
  Ni  Ni570  1  0.66057233  0.16486200  0.33779458  1.0
  Ni  Ni571  1  0.66057233  0.49819533  0.33779458  1.0
  Ni  Ni572  1  0.66057233  0.83152867  0.33779458  1.0
  Ni  Ni573  1  0.99390567  0.16486200  0.33779458  1.0
  Ni  Ni574  1  0.99390567  0.49819533  0.33779458  1.0
  Ni  Ni575  1  0.99390567  0.83152867  0.33779458  1.0
  Ni  Ni576  1  0.00609433  0.16847133  0.37999025  1.0
  Ni  Ni577  1  0.00609433  0.50180467  0.37999025  1.0
  Ni  Ni578  1  0.00609433  0.83513800  0.37999025  1.0
  Ni  Ni579  1  0.33942767  0.16847133  0.37999025  1.0
  Ni  Ni580  1  0.33942767  0.50180467  0.37999025  1.0
  Ni  Ni581  1  0.33942767  0.83513800  0.37999025  1.0
  Ni  Ni582  1  0.67276100  0.16847133  0.37999025  1.0
  Ni  Ni583  1  0.67276100  0.50180467  0.37999025  1.0
  Ni  Ni584  1  0.67276100  0.83513800  0.37999025  1.0
  Ni  Ni585  1  0.15876767  0.16847133  0.33689225  1.0
  Ni  Ni586  1  0.15876767  0.50180467  0.33689225  1.0
  Ni  Ni587  1  0.15876767  0.83513800  0.33689225  1.0
  Ni  Ni588  1  0.49210100  0.16847133  0.33689225  1.0
  Ni  Ni589  1  0.49210100  0.50180467  0.33689225  1.0
  Ni  Ni590  1  0.49210100  0.83513800  0.33689225  1.0
  Ni  Ni591  1  0.82543433  0.16847133  0.33689225  1.0
  Ni  Ni592  1  0.82543433  0.50180467  0.33689225  1.0
  Ni  Ni593  1  0.82543433  0.83513800  0.33689225  1.0
  Sb  Sb594  1  0.29102933  0.00000000  0.38801042  1.0
  Sb  Sb595  1  0.29102933  0.33333333  0.38801042  1.0
  Sb  Sb596  1  0.29102933  0.66666667  0.38801042  1.0
  Sb  Sb597  1  0.62436267  0.00000000  0.38801042  1.0
  Sb  Sb598  1  0.62436267  0.33333333  0.38801042  1.0
  Sb  Sb599  1  0.62436267  0.66666667  0.38801042  1.0
  Sb  Sb600  1  0.95769600  0.00000000  0.38801042  1.0
  Sb  Sb601  1  0.95769600  0.33333333  0.38801042  1.0
  Sb  Sb602  1  0.95769600  0.66666667  0.38801042  1.0
  Sb  Sb603  1  0.04230400  0.00000000  0.41310775  1.0
  Sb  Sb604  1  0.04230400  0.33333333  0.41310775  1.0
  Sb  Sb605  1  0.04230400  0.66666667  0.41310775  1.0
  Sb  Sb606  1  0.37563733  0.00000000  0.41310775  1.0
  Sb  Sb607  1  0.37563733  0.33333333  0.41310775  1.0
  Sb  Sb608  1  0.37563733  0.66666667  0.41310775  1.0
  Sb  Sb609  1  0.70897067  0.00000000  0.41310775  1.0
  Sb  Sb610  1  0.70897067  0.33333333  0.41310775  1.0
  Sb  Sb611  1  0.70897067  0.66666667  0.41310775  1.0
  Sb  Sb612  1  0.13239067  0.33333333  0.35077958  1.0
  Sb  Sb613  1  0.13239067  0.66666667  0.35077958  1.0
  Sb  Sb614  1  0.13239067  0.00000000  0.35077958  1.0
  Sb  Sb615  1  0.46572400  0.33333333  0.35077958  1.0
  Sb  Sb616  1  0.46572400  0.66666667  0.35077958  1.0
  Sb  Sb617  1  0.46572400  0.00000000  0.35077958  1.0
  Sb  Sb618  1  0.79905733  0.33333333  0.35077958  1.0
  Sb  Sb619  1  0.79905733  0.66666667  0.35077958  1.0
  Sb  Sb620  1  0.79905733  0.00000000  0.35077958  1.0
  Sb  Sb621  1  0.20094267  0.00000000  0.36700525  1.0
  Sb  Sb622  1  0.20094267  0.33333333  0.36700525  1.0
  Sb  Sb623  1  0.20094267  0.66666667  0.36700525  1.0
  Sb  Sb624  1  0.53427600  0.00000000  0.36700525  1.0
  Sb  Sb625  1  0.53427600  0.33333333  0.36700525  1.0
  Sb  Sb626  1  0.53427600  0.66666667  0.36700525  1.0
  Sb  Sb627  1  0.86760933  0.00000000  0.36700525  1.0
  Sb  Sb628  1  0.86760933  0.33333333  0.36700525  1.0
  Sb  Sb629  1  0.86760933  0.66666667  0.36700525  1.0
