# generated using pymatgen
data_Ni5Sb2
_symmetry_space_group_name_H-M   'P 1'
_cell_length_a   21.07967346
_cell_length_b   33.45792645
_cell_length_c   55.28490534
_cell_angle_alpha   34.62980687
_cell_angle_beta   64.41802092
_cell_angle_gamma   47.10440537
_symmetry_Int_Tables_number   1
_chemical_formula_structural   Ni5Sb2
_chemical_formula_sum   'Ni360 Sb144'
_cell_volume   15442.87588835
_cell_formula_units_Z   72
loop_
 _symmetry_equiv_pos_site_id
 _symmetry_equiv_pos_as_xyz
  1  'x, y, z'
loop_
 _atom_site_type_symbol
 _atom_site_label
 _atom_site_symmetry_multiplicity
 _atom_site_fract_x
 _atom_site_fract_y
 _atom_site_fract_z
 _atom_site_occupancy
  Ni  Ni0  1  0.25066767  0.08266567  0.06913172  1.0
  Ni  Ni1  1  0.25066767  0.41599900  0.06913172  1.0
  Ni  Ni2  1  0.25066767  0.74933233  0.06913172  1.0
  Ni  Ni3  1  0.58400100  0.08266567  0.06913172  1.0
  Ni  Ni4  1  0.58400100  0.41599900  0.06913172  1.0
  Ni  Ni5  1  0.58400100  0.74933233  0.06913172  1.0
  Ni  Ni6  1  0.91733433  0.08266567  0.06913172  1.0
  Ni  Ni7  1  0.91733433  0.41599900  0.06913172  1.0
  Ni  Ni8  1  0.91733433  0.74933233  0.06913172  1.0
  Ni  Ni9  1  0.08266567  0.25066767  0.01313106  1.0
  Ni  Ni10  1  0.08266567  0.58400100  0.01313106  1.0
  Ni  Ni11  1  0.08266567  0.91733433  0.01313106  1.0
  Ni  Ni12  1  0.41599900  0.25066767  0.01313106  1.0
  Ni  Ni13  1  0.41599900  0.58400100  0.01313106  1.0
  Ni  Ni14  1  0.41599900  0.91733433  0.01313106  1.0
  Ni  Ni15  1  0.74933233  0.25066767  0.01313106  1.0
  Ni  Ni16  1  0.74933233  0.58400100  0.01313106  1.0
  Ni  Ni17  1  0.74933233  0.91733433  0.01313106  1.0
  Ni  Ni18  1  0.12406900  0.12406900  0.03871917  1.0
  Ni  Ni19  1  0.12406900  0.45740233  0.03871917  1.0
  Ni  Ni20  1  0.12406900  0.79073567  0.03871917  1.0
  Ni  Ni21  1  0.45740233  0.12406900  0.03871917  1.0
  Ni  Ni22  1  0.45740233  0.45740233  0.03871917  1.0
  Ni  Ni23  1  0.45740233  0.79073567  0.03871917  1.0
  Ni  Ni24  1  0.79073567  0.12406900  0.03871917  1.0
  Ni  Ni25  1  0.79073567  0.45740233  0.03871917  1.0
  Ni  Ni26  1  0.79073567  0.79073567  0.03871917  1.0
  Ni  Ni27  1  0.20926433  0.20926433  0.04354361  1.0
  Ni  Ni28  1  0.20926433  0.54259767  0.04354361  1.0
  Ni  Ni29  1  0.20926433  0.87593100  0.04354361  1.0
  Ni  Ni30  1  0.54259767  0.20926433  0.04354361  1.0
  Ni  Ni31  1  0.54259767  0.54259767  0.04354361  1.0
  Ni  Ni32  1  0.54259767  0.87593100  0.04354361  1.0
  Ni  Ni33  1  0.87593100  0.20926433  0.04354361  1.0
  Ni  Ni34  1  0.87593100  0.54259767  0.04354361  1.0
  Ni  Ni35  1  0.87593100  0.87593100  0.04354361  1.0
  Ni  Ni36  1  0.29938867  0.29938867  0.04192050  1.0
  Ni  Ni37  1  0.29938867  0.63272200  0.04192050  1.0
  Ni  Ni38  1  0.29938867  0.96605533  0.04192050  1.0
  Ni  Ni39  1  0.63272200  0.29938867  0.04192050  1.0
  Ni  Ni40  1  0.63272200  0.63272200  0.04192050  1.0
  Ni  Ni41  1  0.63272200  0.96605533  0.04192050  1.0
  Ni  Ni42  1  0.96605533  0.29938867  0.04192050  1.0
  Ni  Ni43  1  0.96605533  0.63272200  0.04192050  1.0
  Ni  Ni44  1  0.96605533  0.96605533  0.04192050  1.0
  Ni  Ni45  1  0.03394467  0.03394467  0.04034228  1.0
  Ni  Ni46  1  0.03394467  0.36727800  0.04034228  1.0
  Ni  Ni47  1  0.03394467  0.70061133  0.04034228  1.0
  Ni  Ni48  1  0.36727800  0.03394467  0.04034228  1.0
  Ni  Ni49  1  0.36727800  0.36727800  0.04034228  1.0
  Ni  Ni50  1  0.36727800  0.70061133  0.04034228  1.0
  Ni  Ni51  1  0.70061133  0.03394467  0.04034228  1.0
  Ni  Ni52  1  0.70061133  0.36727800  0.04034228  1.0
  Ni  Ni53  1  0.70061133  0.70061133  0.04034228  1.0
  Ni  Ni54  1  0.17456567  0.00609433  0.01227639  1.0
  Ni  Ni55  1  0.17456567  0.33942767  0.01227639  1.0
  Ni  Ni56  1  0.17456567  0.67276100  0.01227639  1.0
  Ni  Ni57  1  0.50789900  0.00609433  0.01227639  1.0
  Ni  Ni58  1  0.50789900  0.33942767  0.01227639  1.0
  Ni  Ni59  1  0.50789900  0.67276100  0.01227639  1.0
  Ni  Ni60  1  0.84123233  0.00609433  0.01227639  1.0
  Ni  Ni61  1  0.84123233  0.33942767  0.01227639  1.0
  Ni  Ni62  1  0.84123233  0.67276100  0.01227639  1.0
  Ni  Ni63  1  0.32723900  0.15876767  0.01503239  1.0
  Ni  Ni64  1  0.32723900  0.49210100  0.01503239  1.0
  Ni  Ni65  1  0.32723900  0.82543433  0.01503239  1.0
  Ni  Ni66  1  0.66057233  0.15876767  0.01503239  1.0
  Ni  Ni67  1  0.66057233  0.49210100  0.01503239  1.0
  Ni  Ni68  1  0.66057233  0.82543433  0.01503239  1.0
  Ni  Ni69  1  0.99390567  0.15876767  0.01503239  1.0
  Ni  Ni70  1  0.99390567  0.49210100  0.01503239  1.0
  Ni  Ni71  1  0.99390567  0.82543433  0.01503239  1.0
  Ni  Ni72  1  0.00609433  0.17456567  0.06723039  1.0
  Ni  Ni73  1  0.00609433  0.50789900  0.06723039  1.0
  Ni  Ni74  1  0.00609433  0.84123233  0.06723039  1.0
  Ni  Ni75  1  0.33942767  0.17456567  0.06723039  1.0
  Ni  Ni76  1  0.33942767  0.50789900  0.06723039  1.0
  Ni  Ni77  1  0.33942767  0.84123233  0.06723039  1.0
  Ni  Ni78  1  0.67276100  0.17456567  0.06723039  1.0
  Ni  Ni79  1  0.67276100  0.50789900  0.06723039  1.0
  Ni  Ni80  1  0.67276100  0.84123233  0.06723039  1.0
  Ni  Ni81  1  0.15876767  0.32723900  0.06998639  1.0
  Ni  Ni82  1  0.15876767  0.66057233  0.06998639  1.0
  Ni  Ni83  1  0.15876767  0.99390567  0.06998639  1.0
  Ni  Ni84  1  0.49210100  0.32723900  0.06998639  1.0
  Ni  Ni85  1  0.49210100  0.66057233  0.06998639  1.0
  Ni  Ni86  1  0.49210100  0.99390567  0.06998639  1.0
  Ni  Ni87  1  0.82543433  0.32723900  0.06998639  1.0
  Ni  Ni88  1  0.82543433  0.66057233  0.06998639  1.0
  Ni  Ni89  1  0.82543433  0.99390567  0.06998639  1.0
  Sb  Sb90  1  0.29102933  0.29102933  0.09405672  1.0
  Sb  Sb91  1  0.29102933  0.62436267  0.09405672  1.0
  Sb  Sb92  1  0.29102933  0.95769600  0.09405672  1.0
  Sb  Sb93  1  0.62436267  0.29102933  0.09405672  1.0
  Sb  Sb94  1  0.62436267  0.62436267  0.09405672  1.0
  Sb  Sb95  1  0.62436267  0.95769600  0.09405672  1.0
  Sb  Sb96  1  0.95769600  0.29102933  0.09405672  1.0
  Sb  Sb97  1  0.95769600  0.62436267  0.09405672  1.0
  Sb  Sb98  1  0.95769600  0.95769600  0.09405672  1.0
  Sb  Sb99  1  0.04230400  0.04230400  0.09931717  1.0
  Sb  Sb100  1  0.04230400  0.37563733  0.09931717  1.0
  Sb  Sb101  1  0.04230400  0.70897067  0.09931717  1.0
  Sb  Sb102  1  0.37563733  0.04230400  0.09931717  1.0
  Sb  Sb103  1  0.37563733  0.37563733  0.09931717  1.0
  Sb  Sb104  1  0.37563733  0.70897067  0.09931717  1.0
  Sb  Sb105  1  0.70897067  0.04230400  0.09931717  1.0
  Sb  Sb106  1  0.70897067  0.37563733  0.09931717  1.0
  Sb  Sb107  1  0.70897067  0.70897067  0.09931717  1.0
  Sb  Sb108  1  0.13239067  0.13239067  0.09729517  1.0
  Sb  Sb109  1  0.13239067  0.46572400  0.09729517  1.0
  Sb  Sb110  1  0.13239067  0.79905733  0.09729517  1.0
  Sb  Sb111  1  0.46572400  0.13239067  0.09729517  1.0
  Sb  Sb112  1  0.46572400  0.46572400  0.09729517  1.0
  Sb  Sb113  1  0.46572400  0.79905733  0.09729517  1.0
  Sb  Sb114  1  0.79905733  0.13239067  0.09729517  1.0
  Sb  Sb115  1  0.79905733  0.46572400  0.09729517  1.0
  Sb  Sb116  1  0.79905733  0.79905733  0.09729517  1.0
  Sb  Sb117  1  0.20094267  0.20094267  0.09607872  1.0
  Sb  Sb118  1  0.20094267  0.53427600  0.09607872  1.0
  Sb  Sb119  1  0.20094267  0.86760933  0.09607872  1.0
  Sb  Sb120  1  0.53427600  0.20094267  0.09607872  1.0
  Sb  Sb121  1  0.53427600  0.53427600  0.09607872  1.0
  Sb  Sb122  1  0.53427600  0.86760933  0.09607872  1.0
  Sb  Sb123  1  0.86760933  0.20094267  0.09607872  1.0
  Sb  Sb124  1  0.86760933  0.53427600  0.09607872  1.0
  Sb  Sb125  1  0.86760933  0.86760933  0.09607872  1.0
  Ni  Ni126  1  0.25066767  0.08266567  0.18024283  1.0
  Ni  Ni127  1  0.25066767  0.41599900  0.18024283  1.0
  Ni  Ni128  1  0.25066767  0.74933233  0.18024283  1.0
  Ni  Ni129  1  0.58400100  0.08266567  0.18024283  1.0
  Ni  Ni130  1  0.58400100  0.41599900  0.18024283  1.0
  Ni  Ni131  1  0.58400100  0.74933233  0.18024283  1.0
  Ni  Ni132  1  0.91733433  0.08266567  0.18024283  1.0
  Ni  Ni133  1  0.91733433  0.41599900  0.18024283  1.0
  Ni  Ni134  1  0.91733433  0.74933233  0.18024283  1.0
  Ni  Ni135  1  0.08266567  0.25066767  0.12424217  1.0
  Ni  Ni136  1  0.08266567  0.58400100  0.12424217  1.0
  Ni  Ni137  1  0.08266567  0.91733433  0.12424217  1.0
  Ni  Ni138  1  0.41599900  0.25066767  0.12424217  1.0
  Ni  Ni139  1  0.41599900  0.58400100  0.12424217  1.0
  Ni  Ni140  1  0.41599900  0.91733433  0.12424217  1.0
  Ni  Ni141  1  0.74933233  0.25066767  0.12424217  1.0
  Ni  Ni142  1  0.74933233  0.58400100  0.12424217  1.0
  Ni  Ni143  1  0.74933233  0.91733433  0.12424217  1.0
  Ni  Ni144  1  0.12406900  0.12406900  0.14983028  1.0
  Ni  Ni145  1  0.12406900  0.45740233  0.14983028  1.0
  Ni  Ni146  1  0.12406900  0.79073567  0.14983028  1.0
  Ni  Ni147  1  0.45740233  0.12406900  0.14983028  1.0
  Ni  Ni148  1  0.45740233  0.45740233  0.14983028  1.0
  Ni  Ni149  1  0.45740233  0.79073567  0.14983028  1.0
  Ni  Ni150  1  0.79073567  0.12406900  0.14983028  1.0
  Ni  Ni151  1  0.79073567  0.45740233  0.14983028  1.0
  Ni  Ni152  1  0.79073567  0.79073567  0.14983028  1.0
  Ni  Ni153  1  0.20926433  0.20926433  0.15465472  1.0
  Ni  Ni154  1  0.20926433  0.54259767  0.15465472  1.0
  Ni  Ni155  1  0.20926433  0.87593100  0.15465472  1.0
  Ni  Ni156  1  0.54259767  0.20926433  0.15465472  1.0
  Ni  Ni157  1  0.54259767  0.54259767  0.15465472  1.0
  Ni  Ni158  1  0.54259767  0.87593100  0.15465472  1.0
  Ni  Ni159  1  0.87593100  0.20926433  0.15465472  1.0
  Ni  Ni160  1  0.87593100  0.54259767  0.15465472  1.0
  Ni  Ni161  1  0.87593100  0.87593100  0.15465472  1.0
  Ni  Ni162  1  0.29938867  0.29938867  0.15303161  1.0
  Ni  Ni163  1  0.29938867  0.63272200  0.15303161  1.0
  Ni  Ni164  1  0.29938867  0.96605533  0.15303161  1.0
  Ni  Ni165  1  0.63272200  0.29938867  0.15303161  1.0
  Ni  Ni166  1  0.63272200  0.63272200  0.15303161  1.0
  Ni  Ni167  1  0.63272200  0.96605533  0.15303161  1.0
  Ni  Ni168  1  0.96605533  0.29938867  0.15303161  1.0
  Ni  Ni169  1  0.96605533  0.63272200  0.15303161  1.0
  Ni  Ni170  1  0.96605533  0.96605533  0.15303161  1.0
  Ni  Ni171  1  0.03394467  0.03394467  0.15145339  1.0
  Ni  Ni172  1  0.03394467  0.36727800  0.15145339  1.0
  Ni  Ni173  1  0.03394467  0.70061133  0.15145339  1.0
  Ni  Ni174  1  0.36727800  0.03394467  0.15145339  1.0
  Ni  Ni175  1  0.36727800  0.36727800  0.15145339  1.0
  Ni  Ni176  1  0.36727800  0.70061133  0.15145339  1.0
  Ni  Ni177  1  0.70061133  0.03394467  0.15145339  1.0
  Ni  Ni178  1  0.70061133  0.36727800  0.15145339  1.0
  Ni  Ni179  1  0.70061133  0.70061133  0.15145339  1.0
  Ni  Ni180  1  0.17456567  0.00609433  0.12338750  1.0
  Ni  Ni181  1  0.17456567  0.33942767  0.12338750  1.0
  Ni  Ni182  1  0.17456567  0.67276100  0.12338750  1.0
  Ni  Ni183  1  0.50789900  0.00609433  0.12338750  1.0
  Ni  Ni184  1  0.50789900  0.33942767  0.12338750  1.0
  Ni  Ni185  1  0.50789900  0.67276100  0.12338750  1.0
  Ni  Ni186  1  0.84123233  0.00609433  0.12338750  1.0
  Ni  Ni187  1  0.84123233  0.33942767  0.12338750  1.0
  Ni  Ni188  1  0.84123233  0.67276100  0.12338750  1.0
  Ni  Ni189  1  0.32723900  0.15876767  0.12614350  1.0
  Ni  Ni190  1  0.32723900  0.49210100  0.12614350  1.0
  Ni  Ni191  1  0.32723900  0.82543433  0.12614350  1.0
  Ni  Ni192  1  0.66057233  0.15876767  0.12614350  1.0
  Ni  Ni193  1  0.66057233  0.49210100  0.12614350  1.0
  Ni  Ni194  1  0.66057233  0.82543433  0.12614350  1.0
  Ni  Ni195  1  0.99390567  0.15876767  0.12614350  1.0
  Ni  Ni196  1  0.99390567  0.49210100  0.12614350  1.0
  Ni  Ni197  1  0.99390567  0.82543433  0.12614350  1.0
  Ni  Ni198  1  0.00609433  0.17456567  0.17834150  1.0
  Ni  Ni199  1  0.00609433  0.50789900  0.17834150  1.0
  Ni  Ni200  1  0.00609433  0.84123233  0.17834150  1.0
  Ni  Ni201  1  0.33942767  0.17456567  0.17834150  1.0
  Ni  Ni202  1  0.33942767  0.50789900  0.17834150  1.0
  Ni  Ni203  1  0.33942767  0.84123233  0.17834150  1.0
  Ni  Ni204  1  0.67276100  0.17456567  0.17834150  1.0
  Ni  Ni205  1  0.67276100  0.50789900  0.17834150  1.0
  Ni  Ni206  1  0.67276100  0.84123233  0.17834150  1.0
  Ni  Ni207  1  0.15876767  0.32723900  0.18109750  1.0
  Ni  Ni208  1  0.15876767  0.66057233  0.18109750  1.0
  Ni  Ni209  1  0.15876767  0.99390567  0.18109750  1.0
  Ni  Ni210  1  0.49210100  0.32723900  0.18109750  1.0
  Ni  Ni211  1  0.49210100  0.66057233  0.18109750  1.0
  Ni  Ni212  1  0.49210100  0.99390567  0.18109750  1.0
  Ni  Ni213  1  0.82543433  0.32723900  0.18109750  1.0
  Ni  Ni214  1  0.82543433  0.66057233  0.18109750  1.0
  Ni  Ni215  1  0.82543433  0.99390567  0.18109750  1.0
  Sb  Sb216  1  0.29102933  0.29102933  0.20516783  1.0
  Sb  Sb217  1  0.29102933  0.62436267  0.20516783  1.0
  Sb  Sb218  1  0.29102933  0.95769600  0.20516783  1.0
  Sb  Sb219  1  0.62436267  0.29102933  0.20516783  1.0
  Sb  Sb220  1  0.62436267  0.62436267  0.20516783  1.0
  Sb  Sb221  1  0.62436267  0.95769600  0.20516783  1.0
  Sb  Sb222  1  0.95769600  0.29102933  0.20516783  1.0
  Sb  Sb223  1  0.95769600  0.62436267  0.20516783  1.0
  Sb  Sb224  1  0.95769600  0.95769600  0.20516783  1.0
  Sb  Sb225  1  0.04230400  0.04230400  0.21042828  1.0
  Sb  Sb226  1  0.04230400  0.37563733  0.21042828  1.0
  Sb  Sb227  1  0.04230400  0.70897067  0.21042828  1.0
  Sb  Sb228  1  0.37563733  0.04230400  0.21042828  1.0
  Sb  Sb229  1  0.37563733  0.37563733  0.21042828  1.0
  Sb  Sb230  1  0.37563733  0.70897067  0.21042828  1.0
  Sb  Sb231  1  0.70897067  0.04230400  0.21042828  1.0
  Sb  Sb232  1  0.70897067  0.37563733  0.21042828  1.0
  Sb  Sb233  1  0.70897067  0.70897067  0.21042828  1.0
  Sb  Sb234  1  0.13239067  0.13239067  0.20840628  1.0
  Sb  Sb235  1  0.13239067  0.46572400  0.20840628  1.0
  Sb  Sb236  1  0.13239067  0.79905733  0.20840628  1.0
  Sb  Sb237  1  0.46572400  0.13239067  0.20840628  1.0
  Sb  Sb238  1  0.46572400  0.46572400  0.20840628  1.0
  Sb  Sb239  1  0.46572400  0.79905733  0.20840628  1.0
  Sb  Sb240  1  0.79905733  0.13239067  0.20840628  1.0
  Sb  Sb241  1  0.79905733  0.46572400  0.20840628  1.0
  Sb  Sb242  1  0.79905733  0.79905733  0.20840628  1.0
  Sb  Sb243  1  0.20094267  0.20094267  0.20718983  1.0
  Sb  Sb244  1  0.20094267  0.53427600  0.20718983  1.0
  Sb  Sb245  1  0.20094267  0.86760933  0.20718983  1.0
  Sb  Sb246  1  0.53427600  0.20094267  0.20718983  1.0
  Sb  Sb247  1  0.53427600  0.53427600  0.20718983  1.0
  Sb  Sb248  1  0.53427600  0.86760933  0.20718983  1.0
  Sb  Sb249  1  0.86760933  0.20094267  0.20718983  1.0
  Sb  Sb250  1  0.86760933  0.53427600  0.20718983  1.0
  Sb  Sb251  1  0.86760933  0.86760933  0.20718983  1.0
  Ni  Ni252  1  0.25066767  0.08266567  0.29135394  1.0
  Ni  Ni253  1  0.25066767  0.41599900  0.29135394  1.0
  Ni  Ni254  1  0.25066767  0.74933233  0.29135394  1.0
  Ni  Ni255  1  0.58400100  0.08266567  0.29135394  1.0
  Ni  Ni256  1  0.58400100  0.41599900  0.29135394  1.0
  Ni  Ni257  1  0.58400100  0.74933233  0.29135394  1.0
  Ni  Ni258  1  0.91733433  0.08266567  0.29135394  1.0
  Ni  Ni259  1  0.91733433  0.41599900  0.29135394  1.0
  Ni  Ni260  1  0.91733433  0.74933233  0.29135394  1.0
  Ni  Ni261  1  0.08266567  0.25066767  0.23535328  1.0
  Ni  Ni262  1  0.08266567  0.58400100  0.23535328  1.0
  Ni  Ni263  1  0.08266567  0.91733433  0.23535328  1.0
  Ni  Ni264  1  0.41599900  0.25066767  0.23535328  1.0
  Ni  Ni265  1  0.41599900  0.58400100  0.23535328  1.0
  Ni  Ni266  1  0.41599900  0.91733433  0.23535328  1.0
  Ni  Ni267  1  0.74933233  0.25066767  0.23535328  1.0
  Ni  Ni268  1  0.74933233  0.58400100  0.23535328  1.0
  Ni  Ni269  1  0.74933233  0.91733433  0.23535328  1.0
  Ni  Ni270  1  0.12406900  0.12406900  0.26094139  1.0
  Ni  Ni271  1  0.12406900  0.45740233  0.26094139  1.0
  Ni  Ni272  1  0.12406900  0.79073567  0.26094139  1.0
  Ni  Ni273  1  0.45740233  0.12406900  0.26094139  1.0
  Ni  Ni274  1  0.45740233  0.45740233  0.26094139  1.0
  Ni  Ni275  1  0.45740233  0.79073567  0.26094139  1.0
  Ni  Ni276  1  0.79073567  0.12406900  0.26094139  1.0
  Ni  Ni277  1  0.79073567  0.45740233  0.26094139  1.0
  Ni  Ni278  1  0.79073567  0.79073567  0.26094139  1.0
  Ni  Ni279  1  0.20926433  0.20926433  0.26576583  1.0
  Ni  Ni280  1  0.20926433  0.54259767  0.26576583  1.0
  Ni  Ni281  1  0.20926433  0.87593100  0.26576583  1.0
  Ni  Ni282  1  0.54259767  0.20926433  0.26576583  1.0
  Ni  Ni283  1  0.54259767  0.54259767  0.26576583  1.0
  Ni  Ni284  1  0.54259767  0.87593100  0.26576583  1.0
  Ni  Ni285  1  0.87593100  0.20926433  0.26576583  1.0
  Ni  Ni286  1  0.87593100  0.54259767  0.26576583  1.0
  Ni  Ni287  1  0.87593100  0.87593100  0.26576583  1.0
  Ni  Ni288  1  0.29938867  0.29938867  0.26414272  1.0
  Ni  Ni289  1  0.29938867  0.63272200  0.26414272  1.0
  Ni  Ni290  1  0.29938867  0.96605533  0.26414272  1.0
  Ni  Ni291  1  0.63272200  0.29938867  0.26414272  1.0
  Ni  Ni292  1  0.63272200  0.63272200  0.26414272  1.0
  Ni  Ni293  1  0.63272200  0.96605533  0.26414272  1.0
  Ni  Ni294  1  0.96605533  0.29938867  0.26414272  1.0
  Ni  Ni295  1  0.96605533  0.63272200  0.26414272  1.0
  Ni  Ni296  1  0.96605533  0.96605533  0.26414272  1.0
  Ni  Ni297  1  0.03394467  0.03394467  0.26256450  1.0
  Ni  Ni298  1  0.03394467  0.36727800  0.26256450  1.0
  Ni  Ni299  1  0.03394467  0.70061133  0.26256450  1.0
  Ni  Ni300  1  0.36727800  0.03394467  0.26256450  1.0
  Ni  Ni301  1  0.36727800  0.36727800  0.26256450  1.0
  Ni  Ni302  1  0.36727800  0.70061133  0.26256450  1.0
  Ni  Ni303  1  0.70061133  0.03394467  0.26256450  1.0
  Ni  Ni304  1  0.70061133  0.36727800  0.26256450  1.0
  Ni  Ni305  1  0.70061133  0.70061133  0.26256450  1.0
  Ni  Ni306  1  0.17456567  0.00609433  0.23449861  1.0
  Ni  Ni307  1  0.17456567  0.33942767  0.23449861  1.0
  Ni  Ni308  1  0.17456567  0.67276100  0.23449861  1.0
  Ni  Ni309  1  0.50789900  0.00609433  0.23449861  1.0
  Ni  Ni310  1  0.50789900  0.33942767  0.23449861  1.0
  Ni  Ni311  1  0.50789900  0.67276100  0.23449861  1.0
  Ni  Ni312  1  0.84123233  0.00609433  0.23449861  1.0
  Ni  Ni313  1  0.84123233  0.33942767  0.23449861  1.0
  Ni  Ni314  1  0.84123233  0.67276100  0.23449861  1.0
  Ni  Ni315  1  0.32723900  0.15876767  0.23725461  1.0
  Ni  Ni316  1  0.32723900  0.49210100  0.23725461  1.0
  Ni  Ni317  1  0.32723900  0.82543433  0.23725461  1.0
  Ni  Ni318  1  0.66057233  0.15876767  0.23725461  1.0
  Ni  Ni319  1  0.66057233  0.49210100  0.23725461  1.0
  Ni  Ni320  1  0.66057233  0.82543433  0.23725461  1.0
  Ni  Ni321  1  0.99390567  0.15876767  0.23725461  1.0
  Ni  Ni322  1  0.99390567  0.49210100  0.23725461  1.0
  Ni  Ni323  1  0.99390567  0.82543433  0.23725461  1.0
  Ni  Ni324  1  0.00609433  0.17456567  0.28945261  1.0
  Ni  Ni325  1  0.00609433  0.50789900  0.28945261  1.0
  Ni  Ni326  1  0.00609433  0.84123233  0.28945261  1.0
  Ni  Ni327  1  0.33942767  0.17456567  0.28945261  1.0
  Ni  Ni328  1  0.33942767  0.50789900  0.28945261  1.0
  Ni  Ni329  1  0.33942767  0.84123233  0.28945261  1.0
  Ni  Ni330  1  0.67276100  0.17456567  0.28945261  1.0
  Ni  Ni331  1  0.67276100  0.50789900  0.28945261  1.0
  Ni  Ni332  1  0.67276100  0.84123233  0.28945261  1.0
  Ni  Ni333  1  0.15876767  0.32723900  0.29220861  1.0
  Ni  Ni334  1  0.15876767  0.66057233  0.29220861  1.0
  Ni  Ni335  1  0.15876767  0.99390567  0.29220861  1.0
  Ni  Ni336  1  0.49210100  0.32723900  0.29220861  1.0
  Ni  Ni337  1  0.49210100  0.66057233  0.29220861  1.0
  Ni  Ni338  1  0.49210100  0.99390567  0.29220861  1.0
  Ni  Ni339  1  0.82543433  0.32723900  0.29220861  1.0
  Ni  Ni340  1  0.82543433  0.66057233  0.29220861  1.0
  Ni  Ni341  1  0.82543433  0.99390567  0.29220861  1.0
  Sb  Sb342  1  0.29102933  0.29102933  0.31627894  1.0
  Sb  Sb343  1  0.29102933  0.62436267  0.31627894  1.0
  Sb  Sb344  1  0.29102933  0.95769600  0.31627894  1.0
  Sb  Sb345  1  0.62436267  0.29102933  0.31627894  1.0
  Sb  Sb346  1  0.62436267  0.62436267  0.31627894  1.0
  Sb  Sb347  1  0.62436267  0.95769600  0.31627894  1.0
  Sb  Sb348  1  0.95769600  0.29102933  0.31627894  1.0
  Sb  Sb349  1  0.95769600  0.62436267  0.31627894  1.0
  Sb  Sb350  1  0.95769600  0.95769600  0.31627894  1.0
  Sb  Sb351  1  0.04230400  0.04230400  0.32153939  1.0
  Sb  Sb352  1  0.04230400  0.37563733  0.32153939  1.0
  Sb  Sb353  1  0.04230400  0.70897067  0.32153939  1.0
  Sb  Sb354  1  0.37563733  0.04230400  0.32153939  1.0
  Sb  Sb355  1  0.37563733  0.37563733  0.32153939  1.0
  Sb  Sb356  1  0.37563733  0.70897067  0.32153939  1.0
  Sb  Sb357  1  0.70897067  0.04230400  0.32153939  1.0
  Sb  Sb358  1  0.70897067  0.37563733  0.32153939  1.0
  Sb  Sb359  1  0.70897067  0.70897067  0.32153939  1.0
  Sb  Sb360  1  0.13239067  0.13239067  0.31951739  1.0
  Sb  Sb361  1  0.13239067  0.46572400  0.31951739  1.0
  Sb  Sb362  1  0.13239067  0.79905733  0.31951739  1.0
  Sb  Sb363  1  0.46572400  0.13239067  0.31951739  1.0
  Sb  Sb364  1  0.46572400  0.46572400  0.31951739  1.0
  Sb  Sb365  1  0.46572400  0.79905733  0.31951739  1.0
  Sb  Sb366  1  0.79905733  0.13239067  0.31951739  1.0
  Sb  Sb367  1  0.79905733  0.46572400  0.31951739  1.0
  Sb  Sb368  1  0.79905733  0.79905733  0.31951739  1.0
  Sb  Sb369  1  0.20094267  0.20094267  0.31830094  1.0
  Sb  Sb370  1  0.20094267  0.53427600  0.31830094  1.0
  Sb  Sb371  1  0.20094267  0.86760933  0.31830094  1.0
  Sb  Sb372  1  0.53427600  0.20094267  0.31830094  1.0
  Sb  Sb373  1  0.53427600  0.53427600  0.31830094  1.0
  Sb  Sb374  1  0.53427600  0.86760933  0.31830094  1.0
  Sb  Sb375  1  0.86760933  0.20094267  0.31830094  1.0
  Sb  Sb376  1  0.86760933  0.53427600  0.31830094  1.0
  Sb  Sb377  1  0.86760933  0.86760933  0.31830094  1.0
  Ni  Ni378  1  0.25066767  0.08266567  0.40246506  1.0
  Ni  Ni379  1  0.25066767  0.41599900  0.40246506  1.0
  Ni  Ni380  1  0.25066767  0.74933233  0.40246506  1.0
  Ni  Ni381  1  0.58400100  0.08266567  0.40246506  1.0
  Ni  Ni382  1  0.58400100  0.41599900  0.40246506  1.0
  Ni  Ni383  1  0.58400100  0.74933233  0.40246506  1.0
  Ni  Ni384  1  0.91733433  0.08266567  0.40246506  1.0
  Ni  Ni385  1  0.91733433  0.41599900  0.40246506  1.0
  Ni  Ni386  1  0.91733433  0.74933233  0.40246506  1.0
  Ni  Ni387  1  0.08266567  0.25066767  0.34646439  1.0
  Ni  Ni388  1  0.08266567  0.58400100  0.34646439  1.0
  Ni  Ni389  1  0.08266567  0.91733433  0.34646439  1.0
  Ni  Ni390  1  0.41599900  0.25066767  0.34646439  1.0
  Ni  Ni391  1  0.41599900  0.58400100  0.34646439  1.0
  Ni  Ni392  1  0.41599900  0.91733433  0.34646439  1.0
  Ni  Ni393  1  0.74933233  0.25066767  0.34646439  1.0
  Ni  Ni394  1  0.74933233  0.58400100  0.34646439  1.0
  Ni  Ni395  1  0.74933233  0.91733433  0.34646439  1.0
  Ni  Ni396  1  0.12406900  0.12406900  0.37205250  1.0
  Ni  Ni397  1  0.12406900  0.45740233  0.37205250  1.0
  Ni  Ni398  1  0.12406900  0.79073567  0.37205250  1.0
  Ni  Ni399  1  0.45740233  0.12406900  0.37205250  1.0
  Ni  Ni400  1  0.45740233  0.45740233  0.37205250  1.0
  Ni  Ni401  1  0.45740233  0.79073567  0.37205250  1.0
  Ni  Ni402  1  0.79073567  0.12406900  0.37205250  1.0
  Ni  Ni403  1  0.79073567  0.45740233  0.37205250  1.0
  Ni  Ni404  1  0.79073567  0.79073567  0.37205250  1.0
  Ni  Ni405  1  0.20926433  0.20926433  0.37687694  1.0
  Ni  Ni406  1  0.20926433  0.54259767  0.37687694  1.0
  Ni  Ni407  1  0.20926433  0.87593100  0.37687694  1.0
  Ni  Ni408  1  0.54259767  0.20926433  0.37687694  1.0
  Ni  Ni409  1  0.54259767  0.54259767  0.37687694  1.0
  Ni  Ni410  1  0.54259767  0.87593100  0.37687694  1.0
  Ni  Ni411  1  0.87593100  0.20926433  0.37687694  1.0
  Ni  Ni412  1  0.87593100  0.54259767  0.37687694  1.0
  Ni  Ni413  1  0.87593100  0.87593100  0.37687694  1.0
  Ni  Ni414  1  0.29938867  0.29938867  0.37525383  1.0
  Ni  Ni415  1  0.29938867  0.63272200  0.37525383  1.0
  Ni  Ni416  1  0.29938867  0.96605533  0.37525383  1.0
  Ni  Ni417  1  0.63272200  0.29938867  0.37525383  1.0
  Ni  Ni418  1  0.63272200  0.63272200  0.37525383  1.0
  Ni  Ni419  1  0.63272200  0.96605533  0.37525383  1.0
  Ni  Ni420  1  0.96605533  0.29938867  0.37525383  1.0
  Ni  Ni421  1  0.96605533  0.63272200  0.37525383  1.0
  Ni  Ni422  1  0.96605533  0.96605533  0.37525383  1.0
  Ni  Ni423  1  0.03394467  0.03394467  0.37367561  1.0
  Ni  Ni424  1  0.03394467  0.36727800  0.37367561  1.0
  Ni  Ni425  1  0.03394467  0.70061133  0.37367561  1.0
  Ni  Ni426  1  0.36727800  0.03394467  0.37367561  1.0
  Ni  Ni427  1  0.36727800  0.36727800  0.37367561  1.0
  Ni  Ni428  1  0.36727800  0.70061133  0.37367561  1.0
  Ni  Ni429  1  0.70061133  0.03394467  0.37367561  1.0
  Ni  Ni430  1  0.70061133  0.36727800  0.37367561  1.0
  Ni  Ni431  1  0.70061133  0.70061133  0.37367561  1.0
  Ni  Ni432  1  0.17456567  0.00609433  0.34560972  1.0
  Ni  Ni433  1  0.17456567  0.33942767  0.34560972  1.0
  Ni  Ni434  1  0.17456567  0.67276100  0.34560972  1.0
  Ni  Ni435  1  0.50789900  0.00609433  0.34560972  1.0
  Ni  Ni436  1  0.50789900  0.33942767  0.34560972  1.0
  Ni  Ni437  1  0.50789900  0.67276100  0.34560972  1.0
  Ni  Ni438  1  0.84123233  0.00609433  0.34560972  1.0
  Ni  Ni439  1  0.84123233  0.33942767  0.34560972  1.0
  Ni  Ni440  1  0.84123233  0.67276100  0.34560972  1.0
  Ni  Ni441  1  0.32723900  0.15876767  0.34836572  1.0
  Ni  Ni442  1  0.32723900  0.49210100  0.34836572  1.0
  Ni  Ni443  1  0.32723900  0.82543433  0.34836572  1.0
  Ni  Ni444  1  0.66057233  0.15876767  0.34836572  1.0
  Ni  Ni445  1  0.66057233  0.49210100  0.34836572  1.0
  Ni  Ni446  1  0.66057233  0.82543433  0.34836572  1.0
  Ni  Ni447  1  0.99390567  0.15876767  0.34836572  1.0
  Ni  Ni448  1  0.99390567  0.49210100  0.34836572  1.0
  Ni  Ni449  1  0.99390567  0.82543433  0.34836572  1.0
  Ni  Ni450  1  0.00609433  0.17456567  0.40056372  1.0
  Ni  Ni451  1  0.00609433  0.50789900  0.40056372  1.0
  Ni  Ni452  1  0.00609433  0.84123233  0.40056372  1.0
  Ni  Ni453  1  0.33942767  0.17456567  0.40056372  1.0
  Ni  Ni454  1  0.33942767  0.50789900  0.40056372  1.0
  Ni  Ni455  1  0.33942767  0.84123233  0.40056372  1.0
  Ni  Ni456  1  0.67276100  0.17456567  0.40056372  1.0
  Ni  Ni457  1  0.67276100  0.50789900  0.40056372  1.0
  Ni  Ni458  1  0.67276100  0.84123233  0.40056372  1.0
  Ni  Ni459  1  0.15876767  0.32723900  0.40331972  1.0
  Ni  Ni460  1  0.15876767  0.66057233  0.40331972  1.0
  Ni  Ni461  1  0.15876767  0.99390567  0.40331972  1.0
  Ni  Ni462  1  0.49210100  0.32723900  0.40331972  1.0
  Ni  Ni463  1  0.49210100  0.66057233  0.40331972  1.0
  Ni  Ni464  1  0.49210100  0.99390567  0.40331972  1.0
  Ni  Ni465  1  0.82543433  0.32723900  0.40331972  1.0
  Ni  Ni466  1  0.82543433  0.66057233  0.40331972  1.0
  Ni  Ni467  1  0.82543433  0.99390567  0.40331972  1.0
  Sb  Sb468  1  0.29102933  0.29102933  0.42739006  1.0
  Sb  Sb469  1  0.29102933  0.62436267  0.42739006  1.0
  Sb  Sb470  1  0.29102933  0.95769600  0.42739006  1.0
  Sb  Sb471  1  0.62436267  0.29102933  0.42739006  1.0
  Sb  Sb472  1  0.62436267  0.62436267  0.42739006  1.0
  Sb  Sb473  1  0.62436267  0.95769600  0.42739006  1.0
  Sb  Sb474  1  0.95769600  0.29102933  0.42739006  1.0
  Sb  Sb475  1  0.95769600  0.62436267  0.42739006  1.0
  Sb  Sb476  1  0.95769600  0.95769600  0.42739006  1.0
  Sb  Sb477  1  0.04230400  0.04230400  0.43265050  1.0
  Sb  Sb478  1  0.04230400  0.37563733  0.43265050  1.0
  Sb  Sb479  1  0.04230400  0.70897067  0.43265050  1.0
  Sb  Sb480  1  0.37563733  0.04230400  0.43265050  1.0
  Sb  Sb481  1  0.37563733  0.37563733  0.43265050  1.0
  Sb  Sb482  1  0.37563733  0.70897067  0.43265050  1.0
  Sb  Sb483  1  0.70897067  0.04230400  0.43265050  1.0
  Sb  Sb484  1  0.70897067  0.37563733  0.43265050  1.0
  Sb  Sb485  1  0.70897067  0.70897067  0.43265050  1.0
  Sb  Sb486  1  0.13239067  0.13239067  0.43062850  1.0
  Sb  Sb487  1  0.13239067  0.46572400  0.43062850  1.0
  Sb  Sb488  1  0.13239067  0.79905733  0.43062850  1.0
  Sb  Sb489  1  0.46572400  0.13239067  0.43062850  1.0
  Sb  Sb490  1  0.46572400  0.46572400  0.43062850  1.0
  Sb  Sb491  1  0.46572400  0.79905733  0.43062850  1.0
  Sb  Sb492  1  0.79905733  0.13239067  0.43062850  1.0
  Sb  Sb493  1  0.79905733  0.46572400  0.43062850  1.0
  Sb  Sb494  1  0.79905733  0.79905733  0.43062850  1.0
  Sb  Sb495  1  0.20094267  0.20094267  0.42941206  1.0
  Sb  Sb496  1  0.20094267  0.53427600  0.42941206  1.0
  Sb  Sb497  1  0.20094267  0.86760933  0.42941206  1.0
  Sb  Sb498  1  0.53427600  0.20094267  0.42941206  1.0
  Sb  Sb499  1  0.53427600  0.53427600  0.42941206  1.0
  Sb  Sb500  1  0.53427600  0.86760933  0.42941206  1.0
  Sb  Sb501  1  0.86760933  0.20094267  0.42941206  1.0
  Sb  Sb502  1  0.86760933  0.53427600  0.42941206  1.0
  Sb  Sb503  1  0.86760933  0.86760933  0.42941206  1.0
