# generated using pymatgen
data_Ni5Sb2
_symmetry_space_group_name_H-M   'P 1'
_cell_length_a   18.42830178
_cell_length_b   31.18455905
_cell_length_c   35.13278910
_cell_angle_alpha   105.91818689
_cell_angle_beta   115.58197908
_cell_angle_gamma   73.02926981
_symmetry_Int_Tables_number   1
_chemical_formula_structural   Ni5Sb2
_chemical_formula_sum   'Ni360 Sb144'
_cell_volume   17158.75098705
_cell_formula_units_Z   72
loop_
 _symmetry_equiv_pos_site_id
 _symmetry_equiv_pos_as_xyz
  1  'x, y, z'
loop_
 _atom_site_type_symbol
 _atom_site_label
 _atom_site_symmetry_multiplicity
 _atom_site_fract_x
 _atom_site_fract_y
 _atom_site_fract_z
 _atom_site_occupancy
  Ni  Ni0  1  0.00000000  0.04133283  0.02479970  1.0
  Ni  Ni1  1  0.00000000  0.37466617  0.02479970  1.0
  Ni  Ni2  1  0.00000000  0.70799950  0.02479970  1.0
  Ni  Ni3  1  0.33333333  0.04133283  0.02479970  1.0
  Ni  Ni4  1  0.33333333  0.37466617  0.02479970  1.0
  Ni  Ni5  1  0.33333333  0.70799950  0.02479970  1.0
  Ni  Ni6  1  0.66666667  0.04133283  0.02479970  1.0
  Ni  Ni7  1  0.66666667  0.37466617  0.02479970  1.0
  Ni  Ni8  1  0.66666667  0.70799950  0.02479970  1.0
  Ni  Ni9  1  0.00000000  0.20799950  0.12479970  1.0
  Ni  Ni10  1  0.00000000  0.54133283  0.12479970  1.0
  Ni  Ni11  1  0.00000000  0.87466617  0.12479970  1.0
  Ni  Ni12  1  0.33333333  0.20799950  0.12479970  1.0
  Ni  Ni13  1  0.33333333  0.54133283  0.12479970  1.0
  Ni  Ni14  1  0.33333333  0.87466617  0.12479970  1.0
  Ni  Ni15  1  0.66666667  0.20799950  0.12479970  1.0
  Ni  Ni16  1  0.66666667  0.54133283  0.12479970  1.0
  Ni  Ni17  1  0.66666667  0.87466617  0.12479970  1.0
  Ni  Ni18  1  0.00000000  0.12533383  0.07520030  1.0
  Ni  Ni19  1  0.00000000  0.45866717  0.07520030  1.0
  Ni  Ni20  1  0.00000000  0.79200050  0.07520030  1.0
  Ni  Ni21  1  0.33333333  0.12533383  0.07520030  1.0
  Ni  Ni22  1  0.33333333  0.45866717  0.07520030  1.0
  Ni  Ni23  1  0.33333333  0.79200050  0.07520030  1.0
  Ni  Ni24  1  0.66666667  0.12533383  0.07520030  1.0
  Ni  Ni25  1  0.66666667  0.45866717  0.07520030  1.0
  Ni  Ni26  1  0.66666667  0.79200050  0.07520030  1.0
  Ni  Ni27  1  0.00000000  0.29200050  0.17520030  1.0
  Ni  Ni28  1  0.00000000  0.62533383  0.17520030  1.0
  Ni  Ni29  1  0.00000000  0.95866717  0.17520030  1.0
  Ni  Ni30  1  0.33333333  0.29200050  0.17520030  1.0
  Ni  Ni31  1  0.33333333  0.62533383  0.17520030  1.0
  Ni  Ni32  1  0.33333333  0.95866717  0.17520030  1.0
  Ni  Ni33  1  0.66666667  0.29200050  0.17520030  1.0
  Ni  Ni34  1  0.66666667  0.62533383  0.17520030  1.0
  Ni  Ni35  1  0.66666667  0.95866717  0.17520030  1.0
  Ni  Ni36  1  0.04983433  0.10463217  0.01166210  1.0
  Ni  Ni37  1  0.04983433  0.43796550  0.01166210  1.0
  Ni  Ni38  1  0.04983433  0.77129883  0.01166210  1.0
  Ni  Ni39  1  0.38316767  0.10463217  0.01166210  1.0
  Ni  Ni40  1  0.38316767  0.43796550  0.01166210  1.0
  Ni  Ni41  1  0.38316767  0.77129883  0.01166210  1.0
  Ni  Ni42  1  0.71650100  0.10463217  0.01166210  1.0
  Ni  Ni43  1  0.71650100  0.43796550  0.01166210  1.0
  Ni  Ni44  1  0.71650100  0.77129883  0.01166210  1.0
  Ni  Ni45  1  0.04983433  0.27129883  0.11166210  1.0
  Ni  Ni46  1  0.04983433  0.60463217  0.11166210  1.0
  Ni  Ni47  1  0.04983433  0.93796550  0.11166210  1.0
  Ni  Ni48  1  0.38316767  0.27129883  0.11166210  1.0
  Ni  Ni49  1  0.38316767  0.60463217  0.11166210  1.0
  Ni  Ni50  1  0.38316767  0.93796550  0.11166210  1.0
  Ni  Ni51  1  0.71650100  0.27129883  0.11166210  1.0
  Ni  Ni52  1  0.71650100  0.60463217  0.11166210  1.0
  Ni  Ni53  1  0.71650100  0.93796550  0.11166210  1.0
  Ni  Ni54  1  0.28349900  0.06203450  0.08833790  1.0
  Ni  Ni55  1  0.28349900  0.39536783  0.08833790  1.0
  Ni  Ni56  1  0.28349900  0.72870117  0.08833790  1.0
  Ni  Ni57  1  0.61683233  0.06203450  0.08833790  1.0
  Ni  Ni58  1  0.61683233  0.39536783  0.08833790  1.0
  Ni  Ni59  1  0.61683233  0.72870117  0.08833790  1.0
  Ni  Ni60  1  0.95016567  0.06203450  0.08833790  1.0
  Ni  Ni61  1  0.95016567  0.39536783  0.08833790  1.0
  Ni  Ni62  1  0.95016567  0.72870117  0.08833790  1.0
  Ni  Ni63  1  0.28349900  0.22870117  0.18833790  1.0
  Ni  Ni64  1  0.28349900  0.56203450  0.18833790  1.0
  Ni  Ni65  1  0.28349900  0.89536783  0.18833790  1.0
  Ni  Ni66  1  0.61683233  0.22870117  0.18833790  1.0
  Ni  Ni67  1  0.61683233  0.56203450  0.18833790  1.0
  Ni  Ni68  1  0.61683233  0.89536783  0.18833790  1.0
  Ni  Ni69  1  0.95016567  0.22870117  0.18833790  1.0
  Ni  Ni70  1  0.95016567  0.56203450  0.18833790  1.0
  Ni  Ni71  1  0.95016567  0.89536783  0.18833790  1.0
  Ni  Ni72  1  0.19824400  0.01697233  0.16944980  1.0
  Ni  Ni73  1  0.19824400  0.35030567  0.16944980  1.0
  Ni  Ni74  1  0.19824400  0.68363900  0.16944980  1.0
  Ni  Ni75  1  0.53157733  0.01697233  0.16944980  1.0
  Ni  Ni76  1  0.53157733  0.35030567  0.16944980  1.0
  Ni  Ni77  1  0.53157733  0.68363900  0.16944980  1.0
  Ni  Ni78  1  0.86491067  0.01697233  0.16944980  1.0
  Ni  Ni79  1  0.86491067  0.35030567  0.16944980  1.0
  Ni  Ni80  1  0.86491067  0.68363900  0.16944980  1.0
  Ni  Ni81  1  0.19824400  0.18363900  0.06944980  1.0
  Ni  Ni82  1  0.19824400  0.51697233  0.06944980  1.0
  Ni  Ni83  1  0.19824400  0.85030567  0.06944980  1.0
  Ni  Ni84  1  0.53157733  0.18363900  0.06944980  1.0
  Ni  Ni85  1  0.53157733  0.51697233  0.06944980  1.0
  Ni  Ni86  1  0.53157733  0.85030567  0.06944980  1.0
  Ni  Ni87  1  0.86491067  0.18363900  0.06944980  1.0
  Ni  Ni88  1  0.86491067  0.51697233  0.06944980  1.0
  Ni  Ni89  1  0.86491067  0.85030567  0.06944980  1.0
  Ni  Ni90  1  0.13508933  0.14969433  0.13055020  1.0
  Ni  Ni91  1  0.13508933  0.48302767  0.13055020  1.0
  Ni  Ni92  1  0.13508933  0.81636100  0.13055020  1.0
  Ni  Ni93  1  0.46842267  0.14969433  0.13055020  1.0
  Ni  Ni94  1  0.46842267  0.48302767  0.13055020  1.0
  Ni  Ni95  1  0.46842267  0.81636100  0.13055020  1.0
  Ni  Ni96  1  0.80175600  0.14969433  0.13055020  1.0
  Ni  Ni97  1  0.80175600  0.48302767  0.13055020  1.0
  Ni  Ni98  1  0.80175600  0.81636100  0.13055020  1.0
  Ni  Ni99  1  0.13508933  0.31636100  0.03055020  1.0
  Ni  Ni100  1  0.13508933  0.64969433  0.03055020  1.0
  Ni  Ni101  1  0.13508933  0.98302767  0.03055020  1.0
  Ni  Ni102  1  0.46842267  0.31636100  0.03055020  1.0
  Ni  Ni103  1  0.46842267  0.64969433  0.03055020  1.0
  Ni  Ni104  1  0.46842267  0.98302767  0.03055020  1.0
  Ni  Ni105  1  0.80175600  0.31636100  0.03055020  1.0
  Ni  Ni106  1  0.80175600  0.64969433  0.03055020  1.0
  Ni  Ni107  1  0.80175600  0.98302767  0.03055020  1.0
  Ni  Ni108  1  0.24713733  0.07938383  0.15602630  1.0
  Ni  Ni109  1  0.24713733  0.41271717  0.15602630  1.0
  Ni  Ni110  1  0.24713733  0.74605050  0.15602630  1.0
  Ni  Ni111  1  0.58047067  0.07938383  0.15602630  1.0
  Ni  Ni112  1  0.58047067  0.41271717  0.15602630  1.0
  Ni  Ni113  1  0.58047067  0.74605050  0.15602630  1.0
  Ni  Ni114  1  0.91380400  0.07938383  0.15602630  1.0
  Ni  Ni115  1  0.91380400  0.41271717  0.15602630  1.0
  Ni  Ni116  1  0.91380400  0.74605050  0.15602630  1.0
  Ni  Ni117  1  0.24713733  0.24605050  0.05602630  1.0
  Ni  Ni118  1  0.24713733  0.57938383  0.05602630  1.0
  Ni  Ni119  1  0.24713733  0.91271717  0.05602630  1.0
  Ni  Ni120  1  0.58047067  0.24605050  0.05602630  1.0
  Ni  Ni121  1  0.58047067  0.57938383  0.05602630  1.0
  Ni  Ni122  1  0.58047067  0.91271717  0.05602630  1.0
  Ni  Ni123  1  0.91380400  0.24605050  0.05602630  1.0
  Ni  Ni124  1  0.91380400  0.57938383  0.05602630  1.0
  Ni  Ni125  1  0.91380400  0.91271717  0.05602630  1.0
  Ni  Ni126  1  0.08619600  0.00304717  0.09343230  1.0
  Ni  Ni127  1  0.08619600  0.33638050  0.09343230  1.0
  Ni  Ni128  1  0.08619600  0.66971383  0.09343230  1.0
  Ni  Ni129  1  0.41952933  0.00304717  0.09343230  1.0
  Ni  Ni130  1  0.41952933  0.33638050  0.09343230  1.0
  Ni  Ni131  1  0.41952933  0.66971383  0.09343230  1.0
  Ni  Ni132  1  0.75286267  0.00304717  0.09343230  1.0
  Ni  Ni133  1  0.75286267  0.33638050  0.09343230  1.0
  Ni  Ni134  1  0.75286267  0.66971383  0.09343230  1.0
  Ni  Ni135  1  0.08619600  0.16971383  0.19343230  1.0
  Ni  Ni136  1  0.08619600  0.50304717  0.19343230  1.0
  Ni  Ni137  1  0.08619600  0.83638050  0.19343230  1.0
  Ni  Ni138  1  0.41952933  0.16971383  0.19343230  1.0
  Ni  Ni139  1  0.41952933  0.50304717  0.19343230  1.0
  Ni  Ni140  1  0.41952933  0.83638050  0.19343230  1.0
  Ni  Ni141  1  0.75286267  0.16971383  0.19343230  1.0
  Ni  Ni142  1  0.75286267  0.50304717  0.19343230  1.0
  Ni  Ni143  1  0.75286267  0.83638050  0.19343230  1.0
  Ni  Ni144  1  0.24713733  0.16361950  0.00656770  1.0
  Ni  Ni145  1  0.24713733  0.49695283  0.00656770  1.0
  Ni  Ni146  1  0.24713733  0.83028617  0.00656770  1.0
  Ni  Ni147  1  0.58047067  0.16361950  0.00656770  1.0
  Ni  Ni148  1  0.58047067  0.49695283  0.00656770  1.0
  Ni  Ni149  1  0.58047067  0.83028617  0.00656770  1.0
  Ni  Ni150  1  0.91380400  0.16361950  0.00656770  1.0
  Ni  Ni151  1  0.91380400  0.49695283  0.00656770  1.0
  Ni  Ni152  1  0.91380400  0.83028617  0.00656770  1.0
  Ni  Ni153  1  0.24713733  0.33028617  0.10656770  1.0
  Ni  Ni154  1  0.24713733  0.66361950  0.10656770  1.0
  Ni  Ni155  1  0.24713733  0.99695283  0.10656770  1.0
  Ni  Ni156  1  0.58047067  0.33028617  0.10656770  1.0
  Ni  Ni157  1  0.58047067  0.66361950  0.10656770  1.0
  Ni  Ni158  1  0.58047067  0.99695283  0.10656770  1.0
  Ni  Ni159  1  0.91380400  0.33028617  0.10656770  1.0
  Ni  Ni160  1  0.91380400  0.66361950  0.10656770  1.0
  Ni  Ni161  1  0.91380400  0.99695283  0.10656770  1.0
  Ni  Ni162  1  0.08619600  0.08728283  0.14397370  1.0
  Ni  Ni163  1  0.08619600  0.42061617  0.14397370  1.0
  Ni  Ni164  1  0.08619600  0.75394950  0.14397370  1.0
  Ni  Ni165  1  0.41952933  0.08728283  0.14397370  1.0
  Ni  Ni166  1  0.41952933  0.42061617  0.14397370  1.0
  Ni  Ni167  1  0.41952933  0.75394950  0.14397370  1.0
  Ni  Ni168  1  0.75286267  0.08728283  0.14397370  1.0
  Ni  Ni169  1  0.75286267  0.42061617  0.14397370  1.0
  Ni  Ni170  1  0.75286267  0.75394950  0.14397370  1.0
  Ni  Ni171  1  0.08619600  0.25394950  0.04397370  1.0
  Ni  Ni172  1  0.08619600  0.58728283  0.04397370  1.0
  Ni  Ni173  1  0.08619600  0.92061617  0.04397370  1.0
  Ni  Ni174  1  0.41952933  0.25394950  0.04397370  1.0
  Ni  Ni175  1  0.41952933  0.58728283  0.04397370  1.0
  Ni  Ni176  1  0.41952933  0.92061617  0.04397370  1.0
  Ni  Ni177  1  0.75286267  0.25394950  0.04397370  1.0
  Ni  Ni178  1  0.75286267  0.58728283  0.04397370  1.0
  Ni  Ni179  1  0.75286267  0.92061617  0.04397370  1.0
  Sb  Sb180  1  0.05019467  0.02115200  0.16192640  1.0
  Sb  Sb181  1  0.05019467  0.35448533  0.16192640  1.0
  Sb  Sb182  1  0.05019467  0.68781867  0.16192640  1.0
  Sb  Sb183  1  0.38352800  0.02115200  0.16192640  1.0
  Sb  Sb184  1  0.38352800  0.35448533  0.16192640  1.0
  Sb  Sb185  1  0.38352800  0.68781867  0.16192640  1.0
  Sb  Sb186  1  0.71686133  0.02115200  0.16192640  1.0
  Sb  Sb187  1  0.71686133  0.35448533  0.16192640  1.0
  Sb  Sb188  1  0.71686133  0.68781867  0.16192640  1.0
  Sb  Sb189  1  0.05019467  0.18781867  0.06192640  1.0
  Sb  Sb190  1  0.05019467  0.52115200  0.06192640  1.0
  Sb  Sb191  1  0.05019467  0.85448533  0.06192640  1.0
  Sb  Sb192  1  0.38352800  0.18781867  0.06192640  1.0
  Sb  Sb193  1  0.38352800  0.52115200  0.06192640  1.0
  Sb  Sb194  1  0.38352800  0.85448533  0.06192640  1.0
  Sb  Sb195  1  0.71686133  0.18781867  0.06192640  1.0
  Sb  Sb196  1  0.71686133  0.52115200  0.06192640  1.0
  Sb  Sb197  1  0.71686133  0.85448533  0.06192640  1.0
  Sb  Sb198  1  0.28313867  0.14551467  0.13807360  1.0
  Sb  Sb199  1  0.28313867  0.47884800  0.13807360  1.0
  Sb  Sb200  1  0.28313867  0.81218133  0.13807360  1.0
  Sb  Sb201  1  0.61647200  0.14551467  0.13807360  1.0
  Sb  Sb202  1  0.61647200  0.47884800  0.13807360  1.0
  Sb  Sb203  1  0.61647200  0.81218133  0.13807360  1.0
  Sb  Sb204  1  0.94980533  0.14551467  0.13807360  1.0
  Sb  Sb205  1  0.94980533  0.47884800  0.13807360  1.0
  Sb  Sb206  1  0.94980533  0.81218133  0.13807360  1.0
  Sb  Sb207  1  0.28313867  0.31218133  0.03807360  1.0
  Sb  Sb208  1  0.28313867  0.64551467  0.03807360  1.0
  Sb  Sb209  1  0.28313867  0.97884800  0.03807360  1.0
  Sb  Sb210  1  0.61647200  0.31218133  0.03807360  1.0
  Sb  Sb211  1  0.61647200  0.64551467  0.03807360  1.0
  Sb  Sb212  1  0.61647200  0.97884800  0.03807360  1.0
  Sb  Sb213  1  0.94980533  0.31218133  0.03807360  1.0
  Sb  Sb214  1  0.94980533  0.64551467  0.03807360  1.0
  Sb  Sb215  1  0.94980533  0.97884800  0.03807360  1.0
  Sb  Sb216  1  0.19911800  0.10047133  0.01915160  1.0
  Sb  Sb217  1  0.19911800  0.43380467  0.01915160  1.0
  Sb  Sb218  1  0.19911800  0.76713800  0.01915160  1.0
  Sb  Sb219  1  0.53245133  0.10047133  0.01915160  1.0
  Sb  Sb220  1  0.53245133  0.43380467  0.01915160  1.0
  Sb  Sb221  1  0.53245133  0.76713800  0.01915160  1.0
  Sb  Sb222  1  0.86578467  0.10047133  0.01915160  1.0
  Sb  Sb223  1  0.86578467  0.43380467  0.01915160  1.0
  Sb  Sb224  1  0.86578467  0.76713800  0.01915160  1.0
  Sb  Sb225  1  0.19911800  0.26713800  0.11915160  1.0
  Sb  Sb226  1  0.19911800  0.60047133  0.11915160  1.0
  Sb  Sb227  1  0.19911800  0.93380467  0.11915160  1.0
  Sb  Sb228  1  0.53245133  0.26713800  0.11915160  1.0
  Sb  Sb229  1  0.53245133  0.60047133  0.11915160  1.0
  Sb  Sb230  1  0.53245133  0.93380467  0.11915160  1.0
  Sb  Sb231  1  0.86578467  0.26713800  0.11915160  1.0
  Sb  Sb232  1  0.86578467  0.60047133  0.11915160  1.0
  Sb  Sb233  1  0.86578467  0.93380467  0.11915160  1.0
  Sb  Sb234  1  0.13421533  0.06619533  0.08084840  1.0
  Sb  Sb235  1  0.13421533  0.39952867  0.08084840  1.0
  Sb  Sb236  1  0.13421533  0.73286200  0.08084840  1.0
  Sb  Sb237  1  0.46754867  0.06619533  0.08084840  1.0
  Sb  Sb238  1  0.46754867  0.39952867  0.08084840  1.0
  Sb  Sb239  1  0.46754867  0.73286200  0.08084840  1.0
  Sb  Sb240  1  0.80088200  0.06619533  0.08084840  1.0
  Sb  Sb241  1  0.80088200  0.39952867  0.08084840  1.0
  Sb  Sb242  1  0.80088200  0.73286200  0.08084840  1.0
  Sb  Sb243  1  0.13421533  0.23286200  0.18084840  1.0
  Sb  Sb244  1  0.13421533  0.56619533  0.18084840  1.0
  Sb  Sb245  1  0.13421533  0.89952867  0.18084840  1.0
  Sb  Sb246  1  0.46754867  0.23286200  0.18084840  1.0
  Sb  Sb247  1  0.46754867  0.56619533  0.18084840  1.0
  Sb  Sb248  1  0.46754867  0.89952867  0.18084840  1.0
  Sb  Sb249  1  0.80088200  0.23286200  0.18084840  1.0
  Sb  Sb250  1  0.80088200  0.56619533  0.18084840  1.0
  Sb  Sb251  1  0.80088200  0.89952867  0.18084840  1.0
  Ni  Ni252  1  0.00000000  0.04133283  0.22479970  1.0
  Ni  Ni253  1  0.00000000  0.37466617  0.22479970  1.0
  Ni  Ni254  1  0.00000000  0.70799950  0.22479970  1.0
  Ni  Ni255  1  0.33333333  0.04133283  0.22479970  1.0
  Ni  Ni256  1  0.33333333  0.37466617  0.22479970  1.0
  Ni  Ni257  1  0.33333333  0.70799950  0.22479970  1.0
  Ni  Ni258  1  0.66666667  0.04133283  0.22479970  1.0
  Ni  Ni259  1  0.66666667  0.37466617  0.22479970  1.0
  Ni  Ni260  1  0.66666667  0.70799950  0.22479970  1.0
  Ni  Ni261  1  0.00000000  0.20799950  0.32479970  1.0
  Ni  Ni262  1  0.00000000  0.54133283  0.32479970  1.0
  Ni  Ni263  1  0.00000000  0.87466617  0.32479970  1.0
  Ni  Ni264  1  0.33333333  0.20799950  0.32479970  1.0
  Ni  Ni265  1  0.33333333  0.54133283  0.32479970  1.0
  Ni  Ni266  1  0.33333333  0.87466617  0.32479970  1.0
  Ni  Ni267  1  0.66666667  0.20799950  0.32479970  1.0
  Ni  Ni268  1  0.66666667  0.54133283  0.32479970  1.0
  Ni  Ni269  1  0.66666667  0.87466617  0.32479970  1.0
  Ni  Ni270  1  0.00000000  0.12533383  0.27520030  1.0
  Ni  Ni271  1  0.00000000  0.45866717  0.27520030  1.0
  Ni  Ni272  1  0.00000000  0.79200050  0.27520030  1.0
  Ni  Ni273  1  0.33333333  0.12533383  0.27520030  1.0
  Ni  Ni274  1  0.33333333  0.45866717  0.27520030  1.0
  Ni  Ni275  1  0.33333333  0.79200050  0.27520030  1.0
  Ni  Ni276  1  0.66666667  0.12533383  0.27520030  1.0
  Ni  Ni277  1  0.66666667  0.45866717  0.27520030  1.0
  Ni  Ni278  1  0.66666667  0.79200050  0.27520030  1.0
  Ni  Ni279  1  0.00000000  0.29200050  0.37520030  1.0
  Ni  Ni280  1  0.00000000  0.62533383  0.37520030  1.0
  Ni  Ni281  1  0.00000000  0.95866717  0.37520030  1.0
  Ni  Ni282  1  0.33333333  0.29200050  0.37520030  1.0
  Ni  Ni283  1  0.33333333  0.62533383  0.37520030  1.0
  Ni  Ni284  1  0.33333333  0.95866717  0.37520030  1.0
  Ni  Ni285  1  0.66666667  0.29200050  0.37520030  1.0
  Ni  Ni286  1  0.66666667  0.62533383  0.37520030  1.0
  Ni  Ni287  1  0.66666667  0.95866717  0.37520030  1.0
  Ni  Ni288  1  0.04983433  0.10463217  0.21166210  1.0
  Ni  Ni289  1  0.04983433  0.43796550  0.21166210  1.0
  Ni  Ni290  1  0.04983433  0.77129883  0.21166210  1.0
  Ni  Ni291  1  0.38316767  0.10463217  0.21166210  1.0
  Ni  Ni292  1  0.38316767  0.43796550  0.21166210  1.0
  Ni  Ni293  1  0.38316767  0.77129883  0.21166210  1.0
  Ni  Ni294  1  0.71650100  0.10463217  0.21166210  1.0
  Ni  Ni295  1  0.71650100  0.43796550  0.21166210  1.0
  Ni  Ni296  1  0.71650100  0.77129883  0.21166210  1.0
  Ni  Ni297  1  0.04983433  0.27129883  0.31166210  1.0
  Ni  Ni298  1  0.04983433  0.60463217  0.31166210  1.0
  Ni  Ni299  1  0.04983433  0.93796550  0.31166210  1.0
  Ni  Ni300  1  0.38316767  0.27129883  0.31166210  1.0
  Ni  Ni301  1  0.38316767  0.60463217  0.31166210  1.0
  Ni  Ni302  1  0.38316767  0.93796550  0.31166210  1.0
  Ni  Ni303  1  0.71650100  0.27129883  0.31166210  1.0
  Ni  Ni304  1  0.71650100  0.60463217  0.31166210  1.0
  Ni  Ni305  1  0.71650100  0.93796550  0.31166210  1.0
  Ni  Ni306  1  0.28349900  0.06203450  0.28833790  1.0
  Ni  Ni307  1  0.28349900  0.39536783  0.28833790  1.0
  Ni  Ni308  1  0.28349900  0.72870117  0.28833790  1.0
  Ni  Ni309  1  0.61683233  0.06203450  0.28833790  1.0
  Ni  Ni310  1  0.61683233  0.39536783  0.28833790  1.0
  Ni  Ni311  1  0.61683233  0.72870117  0.28833790  1.0
  Ni  Ni312  1  0.95016567  0.06203450  0.28833790  1.0
  Ni  Ni313  1  0.95016567  0.39536783  0.28833790  1.0
  Ni  Ni314  1  0.95016567  0.72870117  0.28833790  1.0
  Ni  Ni315  1  0.28349900  0.22870117  0.38833790  1.0
  Ni  Ni316  1  0.28349900  0.56203450  0.38833790  1.0
  Ni  Ni317  1  0.28349900  0.89536783  0.38833790  1.0
  Ni  Ni318  1  0.61683233  0.22870117  0.38833790  1.0
  Ni  Ni319  1  0.61683233  0.56203450  0.38833790  1.0
  Ni  Ni320  1  0.61683233  0.89536783  0.38833790  1.0
  Ni  Ni321  1  0.95016567  0.22870117  0.38833790  1.0
  Ni  Ni322  1  0.95016567  0.56203450  0.38833790  1.0
  Ni  Ni323  1  0.95016567  0.89536783  0.38833790  1.0
  Ni  Ni324  1  0.19824400  0.01697233  0.36944980  1.0
  Ni  Ni325  1  0.19824400  0.35030567  0.36944980  1.0
  Ni  Ni326  1  0.19824400  0.68363900  0.36944980  1.0
  Ni  Ni327  1  0.53157733  0.01697233  0.36944980  1.0
  Ni  Ni328  1  0.53157733  0.35030567  0.36944980  1.0
  Ni  Ni329  1  0.53157733  0.68363900  0.36944980  1.0
  Ni  Ni330  1  0.86491067  0.01697233  0.36944980  1.0
  Ni  Ni331  1  0.86491067  0.35030567  0.36944980  1.0
  Ni  Ni332  1  0.86491067  0.68363900  0.36944980  1.0
  Ni  Ni333  1  0.19824400  0.18363900  0.26944980  1.0
  Ni  Ni334  1  0.19824400  0.51697233  0.26944980  1.0
  Ni  Ni335  1  0.19824400  0.85030567  0.26944980  1.0
  Ni  Ni336  1  0.53157733  0.18363900  0.26944980  1.0
  Ni  Ni337  1  0.53157733  0.51697233  0.26944980  1.0
  Ni  Ni338  1  0.53157733  0.85030567  0.26944980  1.0
  Ni  Ni339  1  0.86491067  0.18363900  0.26944980  1.0
  Ni  Ni340  1  0.86491067  0.51697233  0.26944980  1.0
  Ni  Ni341  1  0.86491067  0.85030567  0.26944980  1.0
  Ni  Ni342  1  0.13508933  0.14969433  0.33055020  1.0
  Ni  Ni343  1  0.13508933  0.48302767  0.33055020  1.0
  Ni  Ni344  1  0.13508933  0.81636100  0.33055020  1.0
  Ni  Ni345  1  0.46842267  0.14969433  0.33055020  1.0
  Ni  Ni346  1  0.46842267  0.48302767  0.33055020  1.0
  Ni  Ni347  1  0.46842267  0.81636100  0.33055020  1.0
  Ni  Ni348  1  0.80175600  0.14969433  0.33055020  1.0
  Ni  Ni349  1  0.80175600  0.48302767  0.33055020  1.0
  Ni  Ni350  1  0.80175600  0.81636100  0.33055020  1.0
  Ni  Ni351  1  0.13508933  0.31636100  0.23055020  1.0
  Ni  Ni352  1  0.13508933  0.64969433  0.23055020  1.0
  Ni  Ni353  1  0.13508933  0.98302767  0.23055020  1.0
  Ni  Ni354  1  0.46842267  0.31636100  0.23055020  1.0
  Ni  Ni355  1  0.46842267  0.64969433  0.23055020  1.0
  Ni  Ni356  1  0.46842267  0.98302767  0.23055020  1.0
  Ni  Ni357  1  0.80175600  0.31636100  0.23055020  1.0
  Ni  Ni358  1  0.80175600  0.64969433  0.23055020  1.0
  Ni  Ni359  1  0.80175600  0.98302767  0.23055020  1.0
  Ni  Ni360  1  0.24713733  0.07938383  0.35602630  1.0
  Ni  Ni361  1  0.24713733  0.41271717  0.35602630  1.0
  Ni  Ni362  1  0.24713733  0.74605050  0.35602630  1.0
  Ni  Ni363  1  0.58047067  0.07938383  0.35602630  1.0
  Ni  Ni364  1  0.58047067  0.41271717  0.35602630  1.0
  Ni  Ni365  1  0.58047067  0.74605050  0.35602630  1.0
  Ni  Ni366  1  0.91380400  0.07938383  0.35602630  1.0
  Ni  Ni367  1  0.91380400  0.41271717  0.35602630  1.0
  Ni  Ni368  1  0.91380400  0.74605050  0.35602630  1.0
  Ni  Ni369  1  0.24713733  0.24605050  0.25602630  1.0
  Ni  Ni370  1  0.24713733  0.57938383  0.25602630  1.0
  Ni  Ni371  1  0.24713733  0.91271717  0.25602630  1.0
  Ni  Ni372  1  0.58047067  0.24605050  0.25602630  1.0
  Ni  Ni373  1  0.58047067  0.57938383  0.25602630  1.0
  Ni  Ni374  1  0.58047067  0.91271717  0.25602630  1.0
  Ni  Ni375  1  0.91380400  0.24605050  0.25602630  1.0
  Ni  Ni376  1  0.91380400  0.57938383  0.25602630  1.0
  Ni  Ni377  1  0.91380400  0.91271717  0.25602630  1.0
  Ni  Ni378  1  0.08619600  0.00304717  0.29343230  1.0
  Ni  Ni379  1  0.08619600  0.33638050  0.29343230  1.0
  Ni  Ni380  1  0.08619600  0.66971383  0.29343230  1.0
  Ni  Ni381  1  0.41952933  0.00304717  0.29343230  1.0
  Ni  Ni382  1  0.41952933  0.33638050  0.29343230  1.0
  Ni  Ni383  1  0.41952933  0.66971383  0.29343230  1.0
  Ni  Ni384  1  0.75286267  0.00304717  0.29343230  1.0
  Ni  Ni385  1  0.75286267  0.33638050  0.29343230  1.0
  Ni  Ni386  1  0.75286267  0.66971383  0.29343230  1.0
  Ni  Ni387  1  0.08619600  0.16971383  0.39343230  1.0
  Ni  Ni388  1  0.08619600  0.50304717  0.39343230  1.0
  Ni  Ni389  1  0.08619600  0.83638050  0.39343230  1.0
  Ni  Ni390  1  0.41952933  0.16971383  0.39343230  1.0
  Ni  Ni391  1  0.41952933  0.50304717  0.39343230  1.0
  Ni  Ni392  1  0.41952933  0.83638050  0.39343230  1.0
  Ni  Ni393  1  0.75286267  0.16971383  0.39343230  1.0
  Ni  Ni394  1  0.75286267  0.50304717  0.39343230  1.0
  Ni  Ni395  1  0.75286267  0.83638050  0.39343230  1.0
  Ni  Ni396  1  0.24713733  0.16361950  0.20656770  1.0
  Ni  Ni397  1  0.24713733  0.49695283  0.20656770  1.0
  Ni  Ni398  1  0.24713733  0.83028617  0.20656770  1.0
  Ni  Ni399  1  0.58047067  0.16361950  0.20656770  1.0
  Ni  Ni400  1  0.58047067  0.49695283  0.20656770  1.0
  Ni  Ni401  1  0.58047067  0.83028617  0.20656770  1.0
  Ni  Ni402  1  0.91380400  0.16361950  0.20656770  1.0
  Ni  Ni403  1  0.91380400  0.49695283  0.20656770  1.0
  Ni  Ni404  1  0.91380400  0.83028617  0.20656770  1.0
  Ni  Ni405  1  0.24713733  0.33028617  0.30656770  1.0
  Ni  Ni406  1  0.24713733  0.66361950  0.30656770  1.0
  Ni  Ni407  1  0.24713733  0.99695283  0.30656770  1.0
  Ni  Ni408  1  0.58047067  0.33028617  0.30656770  1.0
  Ni  Ni409  1  0.58047067  0.66361950  0.30656770  1.0
  Ni  Ni410  1  0.58047067  0.99695283  0.30656770  1.0
  Ni  Ni411  1  0.91380400  0.33028617  0.30656770  1.0
  Ni  Ni412  1  0.91380400  0.66361950  0.30656770  1.0
  Ni  Ni413  1  0.91380400  0.99695283  0.30656770  1.0
  Ni  Ni414  1  0.08619600  0.08728283  0.34397370  1.0
  Ni  Ni415  1  0.08619600  0.42061617  0.34397370  1.0
  Ni  Ni416  1  0.08619600  0.75394950  0.34397370  1.0
  Ni  Ni417  1  0.41952933  0.08728283  0.34397370  1.0
  Ni  Ni418  1  0.41952933  0.42061617  0.34397370  1.0
  Ni  Ni419  1  0.41952933  0.75394950  0.34397370  1.0
  Ni  Ni420  1  0.75286267  0.08728283  0.34397370  1.0
  Ni  Ni421  1  0.75286267  0.42061617  0.34397370  1.0
  Ni  Ni422  1  0.75286267  0.75394950  0.34397370  1.0
  Ni  Ni423  1  0.08619600  0.25394950  0.24397370  1.0
  Ni  Ni424  1  0.08619600  0.58728283  0.24397370  1.0
  Ni  Ni425  1  0.08619600  0.92061617  0.24397370  1.0
  Ni  Ni426  1  0.41952933  0.25394950  0.24397370  1.0
  Ni  Ni427  1  0.41952933  0.58728283  0.24397370  1.0
  Ni  Ni428  1  0.41952933  0.92061617  0.24397370  1.0
  Ni  Ni429  1  0.75286267  0.25394950  0.24397370  1.0
  Ni  Ni430  1  0.75286267  0.58728283  0.24397370  1.0
  Ni  Ni431  1  0.75286267  0.92061617  0.24397370  1.0
  Sb  Sb432  1  0.05019467  0.02115200  0.36192640  1.0
  Sb  Sb433  1  0.05019467  0.35448533  0.36192640  1.0
  Sb  Sb434  1  0.05019467  0.68781867  0.36192640  1.0
  Sb  Sb435  1  0.38352800  0.02115200  0.36192640  1.0
  Sb  Sb436  1  0.38352800  0.35448533  0.36192640  1.0
  Sb  Sb437  1  0.38352800  0.68781867  0.36192640  1.0
  Sb  Sb438  1  0.71686133  0.02115200  0.36192640  1.0
  Sb  Sb439  1  0.71686133  0.35448533  0.36192640  1.0
  Sb  Sb440  1  0.71686133  0.68781867  0.36192640  1.0
  Sb  Sb441  1  0.05019467  0.18781867  0.26192640  1.0
  Sb  Sb442  1  0.05019467  0.52115200  0.26192640  1.0
  Sb  Sb443  1  0.05019467  0.85448533  0.26192640  1.0
  Sb  Sb444  1  0.38352800  0.18781867  0.26192640  1.0
  Sb  Sb445  1  0.38352800  0.52115200  0.26192640  1.0
  Sb  Sb446  1  0.38352800  0.85448533  0.26192640  1.0
  Sb  Sb447  1  0.71686133  0.18781867  0.26192640  1.0
  Sb  Sb448  1  0.71686133  0.52115200  0.26192640  1.0
  Sb  Sb449  1  0.71686133  0.85448533  0.26192640  1.0
  Sb  Sb450  1  0.28313867  0.14551467  0.33807360  1.0
  Sb  Sb451  1  0.28313867  0.47884800  0.33807360  1.0
  Sb  Sb452  1  0.28313867  0.81218133  0.33807360  1.0
  Sb  Sb453  1  0.61647200  0.14551467  0.33807360  1.0
  Sb  Sb454  1  0.61647200  0.47884800  0.33807360  1.0
  Sb  Sb455  1  0.61647200  0.81218133  0.33807360  1.0
  Sb  Sb456  1  0.94980533  0.14551467  0.33807360  1.0
  Sb  Sb457  1  0.94980533  0.47884800  0.33807360  1.0
  Sb  Sb458  1  0.94980533  0.81218133  0.33807360  1.0
  Sb  Sb459  1  0.28313867  0.31218133  0.23807360  1.0
  Sb  Sb460  1  0.28313867  0.64551467  0.23807360  1.0
  Sb  Sb461  1  0.28313867  0.97884800  0.23807360  1.0
  Sb  Sb462  1  0.61647200  0.31218133  0.23807360  1.0
  Sb  Sb463  1  0.61647200  0.64551467  0.23807360  1.0
  Sb  Sb464  1  0.61647200  0.97884800  0.23807360  1.0
  Sb  Sb465  1  0.94980533  0.31218133  0.23807360  1.0
  Sb  Sb466  1  0.94980533  0.64551467  0.23807360  1.0
  Sb  Sb467  1  0.94980533  0.97884800  0.23807360  1.0
  Sb  Sb468  1  0.19911800  0.10047133  0.21915160  1.0
  Sb  Sb469  1  0.19911800  0.43380467  0.21915160  1.0
  Sb  Sb470  1  0.19911800  0.76713800  0.21915160  1.0
  Sb  Sb471  1  0.53245133  0.10047133  0.21915160  1.0
  Sb  Sb472  1  0.53245133  0.43380467  0.21915160  1.0
  Sb  Sb473  1  0.53245133  0.76713800  0.21915160  1.0
  Sb  Sb474  1  0.86578467  0.10047133  0.21915160  1.0
  Sb  Sb475  1  0.86578467  0.43380467  0.21915160  1.0
  Sb  Sb476  1  0.86578467  0.76713800  0.21915160  1.0
  Sb  Sb477  1  0.19911800  0.26713800  0.31915160  1.0
  Sb  Sb478  1  0.19911800  0.60047133  0.31915160  1.0
  Sb  Sb479  1  0.19911800  0.93380467  0.31915160  1.0
  Sb  Sb480  1  0.53245133  0.26713800  0.31915160  1.0
  Sb  Sb481  1  0.53245133  0.60047133  0.31915160  1.0
  Sb  Sb482  1  0.53245133  0.93380467  0.31915160  1.0
  Sb  Sb483  1  0.86578467  0.26713800  0.31915160  1.0
  Sb  Sb484  1  0.86578467  0.60047133  0.31915160  1.0
  Sb  Sb485  1  0.86578467  0.93380467  0.31915160  1.0
  Sb  Sb486  1  0.13421533  0.06619533  0.28084840  1.0
  Sb  Sb487  1  0.13421533  0.39952867  0.28084840  1.0
  Sb  Sb488  1  0.13421533  0.73286200  0.28084840  1.0
  Sb  Sb489  1  0.46754867  0.06619533  0.28084840  1.0
  Sb  Sb490  1  0.46754867  0.39952867  0.28084840  1.0
  Sb  Sb491  1  0.46754867  0.73286200  0.28084840  1.0
  Sb  Sb492  1  0.80088200  0.06619533  0.28084840  1.0
  Sb  Sb493  1  0.80088200  0.39952867  0.28084840  1.0
  Sb  Sb494  1  0.80088200  0.73286200  0.28084840  1.0
  Sb  Sb495  1  0.13421533  0.23286200  0.38084840  1.0
  Sb  Sb496  1  0.13421533  0.56619533  0.38084840  1.0
  Sb  Sb497  1  0.13421533  0.89952867  0.38084840  1.0
  Sb  Sb498  1  0.46754867  0.23286200  0.38084840  1.0
  Sb  Sb499  1  0.46754867  0.56619533  0.38084840  1.0
  Sb  Sb500  1  0.46754867  0.89952867  0.38084840  1.0
  Sb  Sb501  1  0.80088200  0.23286200  0.38084840  1.0
  Sb  Sb502  1  0.80088200  0.56619533  0.38084840  1.0
  Sb  Sb503  1  0.80088200  0.89952867  0.38084840  1.0
