# generated using pymatgen
data_Ni7Ge4
_symmetry_space_group_name_H-M   'P 1'
_cell_length_a   11.90827605
_cell_length_b   11.90827605
_cell_length_c   30.09059700
_cell_angle_alpha   90.00000000
_cell_angle_beta   90.00000000
_cell_angle_gamma   120.00000000
_symmetry_Int_Tables_number   1
_chemical_formula_structural   Ni7Ge4
_chemical_formula_sum   'Ni63 Ge36'
_cell_volume   3695.38101432
_cell_formula_units_Z   9
loop_
 _symmetry_equiv_pos_site_id
 _symmetry_equiv_pos_as_xyz
  1  'x, y, z'
loop_
 _atom_site_type_symbol
 _atom_site_label
 _atom_site_symmetry_multiplicity
 _atom_site_fract_x
 _atom_site_fract_y
 _atom_site_fract_z
 _atom_site_occupancy
  Ni  Ni0  1  0.00000000  0.00000000  0.10413700  1.0
  Ni  Ni1  1  0.00000000  0.33333333  0.10413700  1.0
  Ni  Ni2  1  0.00000000  0.66666667  0.10413700  1.0
  Ni  Ni3  1  0.33333333  0.00000000  0.10413700  1.0
  Ni  Ni4  1  0.33333333  0.33333333  0.10413700  1.0
  Ni  Ni5  1  0.33333333  0.66666667  0.10413700  1.0
  Ni  Ni6  1  0.66666667  0.00000000  0.10413700  1.0
  Ni  Ni7  1  0.66666667  0.33333333  0.10413700  1.0
  Ni  Ni8  1  0.66666667  0.66666667  0.10413700  1.0
  Ni  Ni9  1  0.00000000  0.00000000  0.27290733  1.0
  Ni  Ni10  1  0.00000000  0.33333333  0.27290733  1.0
  Ni  Ni11  1  0.00000000  0.66666667  0.27290733  1.0
  Ni  Ni12  1  0.33333333  0.00000000  0.27290733  1.0
  Ni  Ni13  1  0.33333333  0.33333333  0.27290733  1.0
  Ni  Ni14  1  0.33333333  0.66666667  0.27290733  1.0
  Ni  Ni15  1  0.66666667  0.00000000  0.27290733  1.0
  Ni  Ni16  1  0.66666667  0.33333333  0.27290733  1.0
  Ni  Ni17  1  0.66666667  0.66666667  0.27290733  1.0
  Ni  Ni18  1  0.00000000  0.00000000  0.02014200  1.0
  Ni  Ni19  1  0.00000000  0.33333333  0.02014200  1.0
  Ni  Ni20  1  0.00000000  0.66666667  0.02014200  1.0
  Ni  Ni21  1  0.33333333  0.00000000  0.02014200  1.0
  Ni  Ni22  1  0.33333333  0.33333333  0.02014200  1.0
  Ni  Ni23  1  0.33333333  0.66666667  0.02014200  1.0
  Ni  Ni24  1  0.66666667  0.00000000  0.02014200  1.0
  Ni  Ni25  1  0.66666667  0.33333333  0.02014200  1.0
  Ni  Ni26  1  0.66666667  0.66666667  0.02014200  1.0
  Ni  Ni27  1  0.00000000  0.00000000  0.18891233  1.0
  Ni  Ni28  1  0.00000000  0.33333333  0.18891233  1.0
  Ni  Ni29  1  0.00000000  0.66666667  0.18891233  1.0
  Ni  Ni30  1  0.33333333  0.00000000  0.18891233  1.0
  Ni  Ni31  1  0.33333333  0.33333333  0.18891233  1.0
  Ni  Ni32  1  0.33333333  0.66666667  0.18891233  1.0
  Ni  Ni33  1  0.66666667  0.00000000  0.18891233  1.0
  Ni  Ni34  1  0.66666667  0.33333333  0.18891233  1.0
  Ni  Ni35  1  0.66666667  0.66666667  0.18891233  1.0
  Ni  Ni36  1  0.22222222  0.11111111  0.14652467  1.0
  Ni  Ni37  1  0.22222222  0.44444444  0.14652467  1.0
  Ni  Ni38  1  0.22222222  0.77777778  0.14652467  1.0
  Ni  Ni39  1  0.55555556  0.11111111  0.14652467  1.0
  Ni  Ni40  1  0.55555556  0.44444444  0.14652467  1.0
  Ni  Ni41  1  0.55555556  0.77777778  0.14652467  1.0
  Ni  Ni42  1  0.88888889  0.11111111  0.14652467  1.0
  Ni  Ni43  1  0.88888889  0.44444444  0.14652467  1.0
  Ni  Ni44  1  0.88888889  0.77777778  0.14652467  1.0
  Ni  Ni45  1  0.11111111  0.22222222  0.06168867  1.0
  Ni  Ni46  1  0.11111111  0.55555556  0.06168867  1.0
  Ni  Ni47  1  0.11111111  0.88888889  0.06168867  1.0
  Ni  Ni48  1  0.44444444  0.22222222  0.06168867  1.0
  Ni  Ni49  1  0.44444444  0.55555556  0.06168867  1.0
  Ni  Ni50  1  0.44444444  0.88888889  0.06168867  1.0
  Ni  Ni51  1  0.77777778  0.22222222  0.06168867  1.0
  Ni  Ni52  1  0.77777778  0.55555556  0.06168867  1.0
  Ni  Ni53  1  0.77777778  0.88888889  0.06168867  1.0
  Ni  Ni54  1  0.11111111  0.22222222  0.23136067  1.0
  Ni  Ni55  1  0.11111111  0.55555556  0.23136067  1.0
  Ni  Ni56  1  0.11111111  0.88888889  0.23136067  1.0
  Ni  Ni57  1  0.44444444  0.22222222  0.23136067  1.0
  Ni  Ni58  1  0.44444444  0.55555556  0.23136067  1.0
  Ni  Ni59  1  0.44444444  0.88888889  0.23136067  1.0
  Ni  Ni60  1  0.77777778  0.22222222  0.23136067  1.0
  Ni  Ni61  1  0.77777778  0.55555556  0.23136067  1.0
  Ni  Ni62  1  0.77777778  0.88888889  0.23136067  1.0
  Ge  Ge63  1  0.22222222  0.11111111  0.06101167  1.0
  Ge  Ge64  1  0.22222222  0.44444444  0.06101167  1.0
  Ge  Ge65  1  0.22222222  0.77777778  0.06101167  1.0
  Ge  Ge66  1  0.55555556  0.11111111  0.06101167  1.0
  Ge  Ge67  1  0.55555556  0.44444444  0.06101167  1.0
  Ge  Ge68  1  0.55555556  0.77777778  0.06101167  1.0
  Ge  Ge69  1  0.88888889  0.11111111  0.06101167  1.0
  Ge  Ge70  1  0.88888889  0.44444444  0.06101167  1.0
  Ge  Ge71  1  0.88888889  0.77777778  0.06101167  1.0
  Ge  Ge72  1  0.22222222  0.11111111  0.23203767  1.0
  Ge  Ge73  1  0.22222222  0.44444444  0.23203767  1.0
  Ge  Ge74  1  0.22222222  0.77777778  0.23203767  1.0
  Ge  Ge75  1  0.55555556  0.11111111  0.23203767  1.0
  Ge  Ge76  1  0.55555556  0.44444444  0.23203767  1.0
  Ge  Ge77  1  0.55555556  0.77777778  0.23203767  1.0
  Ge  Ge78  1  0.88888889  0.11111111  0.23203767  1.0
  Ge  Ge79  1  0.88888889  0.44444444  0.23203767  1.0
  Ge  Ge80  1  0.88888889  0.77777778  0.23203767  1.0
  Ge  Ge81  1  0.11111111  0.22222222  0.31319133  1.0
  Ge  Ge82  1  0.11111111  0.55555556  0.31319133  1.0
  Ge  Ge83  1  0.11111111  0.88888889  0.31319133  1.0
  Ge  Ge84  1  0.44444444  0.22222222  0.31319133  1.0
  Ge  Ge85  1  0.44444444  0.55555556  0.31319133  1.0
  Ge  Ge86  1  0.44444444  0.88888889  0.31319133  1.0
  Ge  Ge87  1  0.77777778  0.22222222  0.31319133  1.0
  Ge  Ge88  1  0.77777778  0.55555556  0.31319133  1.0
  Ge  Ge89  1  0.77777778  0.88888889  0.31319133  1.0
  Ge  Ge90  1  0.11111111  0.22222222  0.14652467  1.0
  Ge  Ge91  1  0.11111111  0.55555556  0.14652467  1.0
  Ge  Ge92  1  0.11111111  0.88888889  0.14652467  1.0
  Ge  Ge93  1  0.44444444  0.22222222  0.14652467  1.0
  Ge  Ge94  1  0.44444444  0.55555556  0.14652467  1.0
  Ge  Ge95  1  0.44444444  0.88888889  0.14652467  1.0
  Ge  Ge96  1  0.77777778  0.22222222  0.14652467  1.0
  Ge  Ge97  1  0.77777778  0.55555556  0.14652467  1.0
  Ge  Ge98  1  0.77777778  0.88888889  0.14652467  1.0
