# generated using pymatgen
data_Ni7Ge4
_symmetry_space_group_name_H-M   'P 1'
_cell_length_a   30.09059700
_cell_length_b   20.62573915
_cell_length_c   55.57195490
_cell_angle_alpha   150.00000000
_cell_angle_beta   90.00000000
_cell_angle_gamma   90.00000000
_symmetry_Int_Tables_number   1
_chemical_formula_structural   Ni7Ge4
_chemical_formula_sum   'Ni378 Ge216'
_cell_volume   17245.11140018
_cell_formula_units_Z   54
loop_
 _symmetry_equiv_pos_site_id
 _symmetry_equiv_pos_as_xyz
  1  'x, y, z'
loop_
 _atom_site_type_symbol
 _atom_site_label
 _atom_site_symmetry_multiplicity
 _atom_site_fract_x
 _atom_site_fract_y
 _atom_site_fract_z
 _atom_site_occupancy
  Ni  Ni0  1  0.20905433  0.00000000  0.03571429  1.0
  Ni  Ni1  1  0.20905433  0.33333333  0.03571429  1.0
  Ni  Ni2  1  0.20905433  0.66666667  0.03571429  1.0
  Ni  Ni3  1  0.54238767  0.00000000  0.03571429  1.0
  Ni  Ni4  1  0.54238767  0.33333333  0.03571429  1.0
  Ni  Ni5  1  0.54238767  0.66666667  0.03571429  1.0
  Ni  Ni6  1  0.87572100  0.00000000  0.03571429  1.0
  Ni  Ni7  1  0.87572100  0.33333333  0.03571429  1.0
  Ni  Ni8  1  0.87572100  0.66666667  0.03571429  1.0
  Ni  Ni9  1  0.04028400  0.00000000  0.03571429  1.0
  Ni  Ni10  1  0.04028400  0.33333333  0.03571429  1.0
  Ni  Ni11  1  0.04028400  0.66666667  0.03571429  1.0
  Ni  Ni12  1  0.37361733  0.00000000  0.03571429  1.0
  Ni  Ni13  1  0.37361733  0.33333333  0.03571429  1.0
  Ni  Ni14  1  0.37361733  0.66666667  0.03571429  1.0
  Ni  Ni15  1  0.70695067  0.00000000  0.03571429  1.0
  Ni  Ni16  1  0.70695067  0.33333333  0.03571429  1.0
  Ni  Ni17  1  0.70695067  0.66666667  0.03571429  1.0
  Ni  Ni18  1  0.29304933  0.00000000  0.03571429  1.0
  Ni  Ni19  1  0.29304933  0.33333333  0.03571429  1.0
  Ni  Ni20  1  0.29304933  0.66666667  0.03571429  1.0
  Ni  Ni21  1  0.62638267  0.00000000  0.03571429  1.0
  Ni  Ni22  1  0.62638267  0.33333333  0.03571429  1.0
  Ni  Ni23  1  0.62638267  0.66666667  0.03571429  1.0
  Ni  Ni24  1  0.95971600  0.00000000  0.03571429  1.0
  Ni  Ni25  1  0.95971600  0.33333333  0.03571429  1.0
  Ni  Ni26  1  0.95971600  0.66666667  0.03571429  1.0
  Ni  Ni27  1  0.12427900  0.00000000  0.03571429  1.0
  Ni  Ni28  1  0.12427900  0.33333333  0.03571429  1.0
  Ni  Ni29  1  0.12427900  0.66666667  0.03571429  1.0
  Ni  Ni30  1  0.45761233  0.00000000  0.03571429  1.0
  Ni  Ni31  1  0.45761233  0.33333333  0.03571429  1.0
  Ni  Ni32  1  0.45761233  0.66666667  0.03571429  1.0
  Ni  Ni33  1  0.79094567  0.00000000  0.03571429  1.0
  Ni  Ni34  1  0.79094567  0.33333333  0.03571429  1.0
  Ni  Ni35  1  0.79094567  0.66666667  0.03571429  1.0
  Ni  Ni36  1  0.16666667  0.22222222  0.03571429  1.0
  Ni  Ni37  1  0.16666667  0.55555556  0.03571429  1.0
  Ni  Ni38  1  0.16666667  0.88888889  0.03571429  1.0
  Ni  Ni39  1  0.50000000  0.22222222  0.03571429  1.0
  Ni  Ni40  1  0.50000000  0.55555556  0.03571429  1.0
  Ni  Ni41  1  0.50000000  0.88888889  0.03571429  1.0
  Ni  Ni42  1  0.83333333  0.22222222  0.03571429  1.0
  Ni  Ni43  1  0.83333333  0.55555556  0.03571429  1.0
  Ni  Ni44  1  0.83333333  0.88888889  0.03571429  1.0
  Ni  Ni45  1  0.25150267  0.11111111  0.03571429  1.0
  Ni  Ni46  1  0.25150267  0.44444444  0.03571429  1.0
  Ni  Ni47  1  0.25150267  0.77777778  0.03571429  1.0
  Ni  Ni48  1  0.58483600  0.11111111  0.03571429  1.0
  Ni  Ni49  1  0.58483600  0.44444444  0.03571429  1.0
  Ni  Ni50  1  0.58483600  0.77777778  0.03571429  1.0
  Ni  Ni51  1  0.91816933  0.11111111  0.03571429  1.0
  Ni  Ni52  1  0.91816933  0.44444444  0.03571429  1.0
  Ni  Ni53  1  0.91816933  0.77777778  0.03571429  1.0
  Ni  Ni54  1  0.08183067  0.11111111  0.03571429  1.0
  Ni  Ni55  1  0.08183067  0.44444444  0.03571429  1.0
  Ni  Ni56  1  0.08183067  0.77777778  0.03571429  1.0
  Ni  Ni57  1  0.41516400  0.11111111  0.03571429  1.0
  Ni  Ni58  1  0.41516400  0.44444444  0.03571429  1.0
  Ni  Ni59  1  0.41516400  0.77777778  0.03571429  1.0
  Ni  Ni60  1  0.74849733  0.11111111  0.03571429  1.0
  Ni  Ni61  1  0.74849733  0.44444444  0.03571429  1.0
  Ni  Ni62  1  0.74849733  0.77777778  0.03571429  1.0
  Ge  Ge63  1  0.25217967  0.22222222  0.03571429  1.0
  Ge  Ge64  1  0.25217967  0.55555556  0.03571429  1.0
  Ge  Ge65  1  0.25217967  0.88888889  0.03571429  1.0
  Ge  Ge66  1  0.58551300  0.22222222  0.03571429  1.0
  Ge  Ge67  1  0.58551300  0.55555556  0.03571429  1.0
  Ge  Ge68  1  0.58551300  0.88888889  0.03571429  1.0
  Ge  Ge69  1  0.91884633  0.22222222  0.03571429  1.0
  Ge  Ge70  1  0.91884633  0.55555556  0.03571429  1.0
  Ge  Ge71  1  0.91884633  0.88888889  0.03571429  1.0
  Ge  Ge72  1  0.08115367  0.22222222  0.03571429  1.0
  Ge  Ge73  1  0.08115367  0.55555556  0.03571429  1.0
  Ge  Ge74  1  0.08115367  0.88888889  0.03571429  1.0
  Ge  Ge75  1  0.41448700  0.22222222  0.03571429  1.0
  Ge  Ge76  1  0.41448700  0.55555556  0.03571429  1.0
  Ge  Ge77  1  0.41448700  0.88888889  0.03571429  1.0
  Ge  Ge78  1  0.74782033  0.22222222  0.03571429  1.0
  Ge  Ge79  1  0.74782033  0.55555556  0.03571429  1.0
  Ge  Ge80  1  0.74782033  0.88888889  0.03571429  1.0
  Ge  Ge81  1  0.00000000  0.11111111  0.03571429  1.0
  Ge  Ge82  1  0.00000000  0.44444444  0.03571429  1.0
  Ge  Ge83  1  0.00000000  0.77777778  0.03571429  1.0
  Ge  Ge84  1  0.33333333  0.11111111  0.03571429  1.0
  Ge  Ge85  1  0.33333333  0.44444444  0.03571429  1.0
  Ge  Ge86  1  0.33333333  0.77777778  0.03571429  1.0
  Ge  Ge87  1  0.66666667  0.11111111  0.03571429  1.0
  Ge  Ge88  1  0.66666667  0.44444444  0.03571429  1.0
  Ge  Ge89  1  0.66666667  0.77777778  0.03571429  1.0
  Ge  Ge90  1  0.16666667  0.11111111  0.03571429  1.0
  Ge  Ge91  1  0.16666667  0.44444444  0.03571429  1.0
  Ge  Ge92  1  0.16666667  0.77777778  0.03571429  1.0
  Ge  Ge93  1  0.50000000  0.11111111  0.03571429  1.0
  Ge  Ge94  1  0.50000000  0.44444444  0.03571429  1.0
  Ge  Ge95  1  0.50000000  0.77777778  0.03571429  1.0
  Ge  Ge96  1  0.83333333  0.11111111  0.03571429  1.0
  Ge  Ge97  1  0.83333333  0.44444444  0.03571429  1.0
  Ge  Ge98  1  0.83333333  0.77777778  0.03571429  1.0
  Ni  Ni99  1  0.20905433  0.00000000  0.10714286  1.0
  Ni  Ni100  1  0.20905433  0.33333333  0.10714286  1.0
  Ni  Ni101  1  0.20905433  0.66666667  0.10714286  1.0
  Ni  Ni102  1  0.54238767  0.00000000  0.10714286  1.0
  Ni  Ni103  1  0.54238767  0.33333333  0.10714286  1.0
  Ni  Ni104  1  0.54238767  0.66666667  0.10714286  1.0
  Ni  Ni105  1  0.87572100  0.00000000  0.10714286  1.0
  Ni  Ni106  1  0.87572100  0.33333333  0.10714286  1.0
  Ni  Ni107  1  0.87572100  0.66666667  0.10714286  1.0
  Ni  Ni108  1  0.04028400  0.00000000  0.10714286  1.0
  Ni  Ni109  1  0.04028400  0.33333333  0.10714286  1.0
  Ni  Ni110  1  0.04028400  0.66666667  0.10714286  1.0
  Ni  Ni111  1  0.37361733  0.00000000  0.10714286  1.0
  Ni  Ni112  1  0.37361733  0.33333333  0.10714286  1.0
  Ni  Ni113  1  0.37361733  0.66666667  0.10714286  1.0
  Ni  Ni114  1  0.70695067  0.00000000  0.10714286  1.0
  Ni  Ni115  1  0.70695067  0.33333333  0.10714286  1.0
  Ni  Ni116  1  0.70695067  0.66666667  0.10714286  1.0
  Ni  Ni117  1  0.29304933  0.00000000  0.10714286  1.0
  Ni  Ni118  1  0.29304933  0.33333333  0.10714286  1.0
  Ni  Ni119  1  0.29304933  0.66666667  0.10714286  1.0
  Ni  Ni120  1  0.62638267  0.00000000  0.10714286  1.0
  Ni  Ni121  1  0.62638267  0.33333333  0.10714286  1.0
  Ni  Ni122  1  0.62638267  0.66666667  0.10714286  1.0
  Ni  Ni123  1  0.95971600  0.00000000  0.10714286  1.0
  Ni  Ni124  1  0.95971600  0.33333333  0.10714286  1.0
  Ni  Ni125  1  0.95971600  0.66666667  0.10714286  1.0
  Ni  Ni126  1  0.12427900  0.00000000  0.10714286  1.0
  Ni  Ni127  1  0.12427900  0.33333333  0.10714286  1.0
  Ni  Ni128  1  0.12427900  0.66666667  0.10714286  1.0
  Ni  Ni129  1  0.45761233  0.00000000  0.10714286  1.0
  Ni  Ni130  1  0.45761233  0.33333333  0.10714286  1.0
  Ni  Ni131  1  0.45761233  0.66666667  0.10714286  1.0
  Ni  Ni132  1  0.79094567  0.00000000  0.10714286  1.0
  Ni  Ni133  1  0.79094567  0.33333333  0.10714286  1.0
  Ni  Ni134  1  0.79094567  0.66666667  0.10714286  1.0
  Ni  Ni135  1  0.16666667  0.22222222  0.10714286  1.0
  Ni  Ni136  1  0.16666667  0.55555556  0.10714286  1.0
  Ni  Ni137  1  0.16666667  0.88888889  0.10714286  1.0
  Ni  Ni138  1  0.50000000  0.22222222  0.10714286  1.0
  Ni  Ni139  1  0.50000000  0.55555556  0.10714286  1.0
  Ni  Ni140  1  0.50000000  0.88888889  0.10714286  1.0
  Ni  Ni141  1  0.83333333  0.22222222  0.10714286  1.0
  Ni  Ni142  1  0.83333333  0.55555556  0.10714286  1.0
  Ni  Ni143  1  0.83333333  0.88888889  0.10714286  1.0
  Ni  Ni144  1  0.25150267  0.11111111  0.10714286  1.0
  Ni  Ni145  1  0.25150267  0.44444444  0.10714286  1.0
  Ni  Ni146  1  0.25150267  0.77777778  0.10714286  1.0
  Ni  Ni147  1  0.58483600  0.11111111  0.10714286  1.0
  Ni  Ni148  1  0.58483600  0.44444444  0.10714286  1.0
  Ni  Ni149  1  0.58483600  0.77777778  0.10714286  1.0
  Ni  Ni150  1  0.91816933  0.11111111  0.10714286  1.0
  Ni  Ni151  1  0.91816933  0.44444444  0.10714286  1.0
  Ni  Ni152  1  0.91816933  0.77777778  0.10714286  1.0
  Ni  Ni153  1  0.08183067  0.11111111  0.10714286  1.0
  Ni  Ni154  1  0.08183067  0.44444444  0.10714286  1.0
  Ni  Ni155  1  0.08183067  0.77777778  0.10714286  1.0
  Ni  Ni156  1  0.41516400  0.11111111  0.10714286  1.0
  Ni  Ni157  1  0.41516400  0.44444444  0.10714286  1.0
  Ni  Ni158  1  0.41516400  0.77777778  0.10714286  1.0
  Ni  Ni159  1  0.74849733  0.11111111  0.10714286  1.0
  Ni  Ni160  1  0.74849733  0.44444444  0.10714286  1.0
  Ni  Ni161  1  0.74849733  0.77777778  0.10714286  1.0
  Ge  Ge162  1  0.25217967  0.22222222  0.10714286  1.0
  Ge  Ge163  1  0.25217967  0.55555556  0.10714286  1.0
  Ge  Ge164  1  0.25217967  0.88888889  0.10714286  1.0
  Ge  Ge165  1  0.58551300  0.22222222  0.10714286  1.0
  Ge  Ge166  1  0.58551300  0.55555556  0.10714286  1.0
  Ge  Ge167  1  0.58551300  0.88888889  0.10714286  1.0
  Ge  Ge168  1  0.91884633  0.22222222  0.10714286  1.0
  Ge  Ge169  1  0.91884633  0.55555556  0.10714286  1.0
  Ge  Ge170  1  0.91884633  0.88888889  0.10714286  1.0
  Ge  Ge171  1  0.08115367  0.22222222  0.10714286  1.0
  Ge  Ge172  1  0.08115367  0.55555556  0.10714286  1.0
  Ge  Ge173  1  0.08115367  0.88888889  0.10714286  1.0
  Ge  Ge174  1  0.41448700  0.22222222  0.10714286  1.0
  Ge  Ge175  1  0.41448700  0.55555556  0.10714286  1.0
  Ge  Ge176  1  0.41448700  0.88888889  0.10714286  1.0
  Ge  Ge177  1  0.74782033  0.22222222  0.10714286  1.0
  Ge  Ge178  1  0.74782033  0.55555556  0.10714286  1.0
  Ge  Ge179  1  0.74782033  0.88888889  0.10714286  1.0
  Ge  Ge180  1  0.00000000  0.11111111  0.10714286  1.0
  Ge  Ge181  1  0.00000000  0.44444444  0.10714286  1.0
  Ge  Ge182  1  0.00000000  0.77777778  0.10714286  1.0
  Ge  Ge183  1  0.33333333  0.11111111  0.10714286  1.0
  Ge  Ge184  1  0.33333333  0.44444444  0.10714286  1.0
  Ge  Ge185  1  0.33333333  0.77777778  0.10714286  1.0
  Ge  Ge186  1  0.66666667  0.11111111  0.10714286  1.0
  Ge  Ge187  1  0.66666667  0.44444444  0.10714286  1.0
  Ge  Ge188  1  0.66666667  0.77777778  0.10714286  1.0
  Ge  Ge189  1  0.16666667  0.11111111  0.10714286  1.0
  Ge  Ge190  1  0.16666667  0.44444444  0.10714286  1.0
  Ge  Ge191  1  0.16666667  0.77777778  0.10714286  1.0
  Ge  Ge192  1  0.50000000  0.11111111  0.10714286  1.0
  Ge  Ge193  1  0.50000000  0.44444444  0.10714286  1.0
  Ge  Ge194  1  0.50000000  0.77777778  0.10714286  1.0
  Ge  Ge195  1  0.83333333  0.11111111  0.10714286  1.0
  Ge  Ge196  1  0.83333333  0.44444444  0.10714286  1.0
  Ge  Ge197  1  0.83333333  0.77777778  0.10714286  1.0
  Ni  Ni198  1  0.20905433  0.00000000  0.17857143  1.0
  Ni  Ni199  1  0.20905433  0.33333333  0.17857143  1.0
  Ni  Ni200  1  0.20905433  0.66666667  0.17857143  1.0
  Ni  Ni201  1  0.54238767  0.00000000  0.17857143  1.0
  Ni  Ni202  1  0.54238767  0.33333333  0.17857143  1.0
  Ni  Ni203  1  0.54238767  0.66666667  0.17857143  1.0
  Ni  Ni204  1  0.87572100  0.00000000  0.17857143  1.0
  Ni  Ni205  1  0.87572100  0.33333333  0.17857143  1.0
  Ni  Ni206  1  0.87572100  0.66666667  0.17857143  1.0
  Ni  Ni207  1  0.04028400  0.00000000  0.17857143  1.0
  Ni  Ni208  1  0.04028400  0.33333333  0.17857143  1.0
  Ni  Ni209  1  0.04028400  0.66666667  0.17857143  1.0
  Ni  Ni210  1  0.37361733  0.00000000  0.17857143  1.0
  Ni  Ni211  1  0.37361733  0.33333333  0.17857143  1.0
  Ni  Ni212  1  0.37361733  0.66666667  0.17857143  1.0
  Ni  Ni213  1  0.70695067  0.00000000  0.17857143  1.0
  Ni  Ni214  1  0.70695067  0.33333333  0.17857143  1.0
  Ni  Ni215  1  0.70695067  0.66666667  0.17857143  1.0
  Ni  Ni216  1  0.29304933  0.00000000  0.17857143  1.0
  Ni  Ni217  1  0.29304933  0.33333333  0.17857143  1.0
  Ni  Ni218  1  0.29304933  0.66666667  0.17857143  1.0
  Ni  Ni219  1  0.62638267  0.00000000  0.17857143  1.0
  Ni  Ni220  1  0.62638267  0.33333333  0.17857143  1.0
  Ni  Ni221  1  0.62638267  0.66666667  0.17857143  1.0
  Ni  Ni222  1  0.95971600  0.00000000  0.17857143  1.0
  Ni  Ni223  1  0.95971600  0.33333333  0.17857143  1.0
  Ni  Ni224  1  0.95971600  0.66666667  0.17857143  1.0
  Ni  Ni225  1  0.12427900  0.00000000  0.17857143  1.0
  Ni  Ni226  1  0.12427900  0.33333333  0.17857143  1.0
  Ni  Ni227  1  0.12427900  0.66666667  0.17857143  1.0
  Ni  Ni228  1  0.45761233  0.00000000  0.17857143  1.0
  Ni  Ni229  1  0.45761233  0.33333333  0.17857143  1.0
  Ni  Ni230  1  0.45761233  0.66666667  0.17857143  1.0
  Ni  Ni231  1  0.79094567  0.00000000  0.17857143  1.0
  Ni  Ni232  1  0.79094567  0.33333333  0.17857143  1.0
  Ni  Ni233  1  0.79094567  0.66666667  0.17857143  1.0
  Ni  Ni234  1  0.16666667  0.22222222  0.17857143  1.0
  Ni  Ni235  1  0.16666667  0.55555556  0.17857143  1.0
  Ni  Ni236  1  0.16666667  0.88888889  0.17857143  1.0
  Ni  Ni237  1  0.50000000  0.22222222  0.17857143  1.0
  Ni  Ni238  1  0.50000000  0.55555556  0.17857143  1.0
  Ni  Ni239  1  0.50000000  0.88888889  0.17857143  1.0
  Ni  Ni240  1  0.83333333  0.22222222  0.17857143  1.0
  Ni  Ni241  1  0.83333333  0.55555556  0.17857143  1.0
  Ni  Ni242  1  0.83333333  0.88888889  0.17857143  1.0
  Ni  Ni243  1  0.25150267  0.11111111  0.17857143  1.0
  Ni  Ni244  1  0.25150267  0.44444444  0.17857143  1.0
  Ni  Ni245  1  0.25150267  0.77777778  0.17857143  1.0
  Ni  Ni246  1  0.58483600  0.11111111  0.17857143  1.0
  Ni  Ni247  1  0.58483600  0.44444444  0.17857143  1.0
  Ni  Ni248  1  0.58483600  0.77777778  0.17857143  1.0
  Ni  Ni249  1  0.91816933  0.11111111  0.17857143  1.0
  Ni  Ni250  1  0.91816933  0.44444444  0.17857143  1.0
  Ni  Ni251  1  0.91816933  0.77777778  0.17857143  1.0
  Ni  Ni252  1  0.08183067  0.11111111  0.17857143  1.0
  Ni  Ni253  1  0.08183067  0.44444444  0.17857143  1.0
  Ni  Ni254  1  0.08183067  0.77777778  0.17857143  1.0
  Ni  Ni255  1  0.41516400  0.11111111  0.17857143  1.0
  Ni  Ni256  1  0.41516400  0.44444444  0.17857143  1.0
  Ni  Ni257  1  0.41516400  0.77777778  0.17857143  1.0
  Ni  Ni258  1  0.74849733  0.11111111  0.17857143  1.0
  Ni  Ni259  1  0.74849733  0.44444444  0.17857143  1.0
  Ni  Ni260  1  0.74849733  0.77777778  0.17857143  1.0
  Ge  Ge261  1  0.25217967  0.22222222  0.17857143  1.0
  Ge  Ge262  1  0.25217967  0.55555556  0.17857143  1.0
  Ge  Ge263  1  0.25217967  0.88888889  0.17857143  1.0
  Ge  Ge264  1  0.58551300  0.22222222  0.17857143  1.0
  Ge  Ge265  1  0.58551300  0.55555556  0.17857143  1.0
  Ge  Ge266  1  0.58551300  0.88888889  0.17857143  1.0
  Ge  Ge267  1  0.91884633  0.22222222  0.17857143  1.0
  Ge  Ge268  1  0.91884633  0.55555556  0.17857143  1.0
  Ge  Ge269  1  0.91884633  0.88888889  0.17857143  1.0
  Ge  Ge270  1  0.08115367  0.22222222  0.17857143  1.0
  Ge  Ge271  1  0.08115367  0.55555556  0.17857143  1.0
  Ge  Ge272  1  0.08115367  0.88888889  0.17857143  1.0
  Ge  Ge273  1  0.41448700  0.22222222  0.17857143  1.0
  Ge  Ge274  1  0.41448700  0.55555556  0.17857143  1.0
  Ge  Ge275  1  0.41448700  0.88888889  0.17857143  1.0
  Ge  Ge276  1  0.74782033  0.22222222  0.17857143  1.0
  Ge  Ge277  1  0.74782033  0.55555556  0.17857143  1.0
  Ge  Ge278  1  0.74782033  0.88888889  0.17857143  1.0
  Ge  Ge279  1  0.00000000  0.11111111  0.17857143  1.0
  Ge  Ge280  1  0.00000000  0.44444444  0.17857143  1.0
  Ge  Ge281  1  0.00000000  0.77777778  0.17857143  1.0
  Ge  Ge282  1  0.33333333  0.11111111  0.17857143  1.0
  Ge  Ge283  1  0.33333333  0.44444444  0.17857143  1.0
  Ge  Ge284  1  0.33333333  0.77777778  0.17857143  1.0
  Ge  Ge285  1  0.66666667  0.11111111  0.17857143  1.0
  Ge  Ge286  1  0.66666667  0.44444444  0.17857143  1.0
  Ge  Ge287  1  0.66666667  0.77777778  0.17857143  1.0
  Ge  Ge288  1  0.16666667  0.11111111  0.17857143  1.0
  Ge  Ge289  1  0.16666667  0.44444444  0.17857143  1.0
  Ge  Ge290  1  0.16666667  0.77777778  0.17857143  1.0
  Ge  Ge291  1  0.50000000  0.11111111  0.17857143  1.0
  Ge  Ge292  1  0.50000000  0.44444444  0.17857143  1.0
  Ge  Ge293  1  0.50000000  0.77777778  0.17857143  1.0
  Ge  Ge294  1  0.83333333  0.11111111  0.17857143  1.0
  Ge  Ge295  1  0.83333333  0.44444444  0.17857143  1.0
  Ge  Ge296  1  0.83333333  0.77777778  0.17857143  1.0
  Ni  Ni297  1  0.20905433  0.00000000  0.25000000  1.0
  Ni  Ni298  1  0.20905433  0.33333333  0.25000000  1.0
  Ni  Ni299  1  0.20905433  0.66666667  0.25000000  1.0
  Ni  Ni300  1  0.54238767  0.00000000  0.25000000  1.0
  Ni  Ni301  1  0.54238767  0.33333333  0.25000000  1.0
  Ni  Ni302  1  0.54238767  0.66666667  0.25000000  1.0
  Ni  Ni303  1  0.87572100  0.00000000  0.25000000  1.0
  Ni  Ni304  1  0.87572100  0.33333333  0.25000000  1.0
  Ni  Ni305  1  0.87572100  0.66666667  0.25000000  1.0
  Ni  Ni306  1  0.04028400  0.00000000  0.25000000  1.0
  Ni  Ni307  1  0.04028400  0.33333333  0.25000000  1.0
  Ni  Ni308  1  0.04028400  0.66666667  0.25000000  1.0
  Ni  Ni309  1  0.37361733  0.00000000  0.25000000  1.0
  Ni  Ni310  1  0.37361733  0.33333333  0.25000000  1.0
  Ni  Ni311  1  0.37361733  0.66666667  0.25000000  1.0
  Ni  Ni312  1  0.70695067  0.00000000  0.25000000  1.0
  Ni  Ni313  1  0.70695067  0.33333333  0.25000000  1.0
  Ni  Ni314  1  0.70695067  0.66666667  0.25000000  1.0
  Ni  Ni315  1  0.29304933  0.00000000  0.25000000  1.0
  Ni  Ni316  1  0.29304933  0.33333333  0.25000000  1.0
  Ni  Ni317  1  0.29304933  0.66666667  0.25000000  1.0
  Ni  Ni318  1  0.62638267  0.00000000  0.25000000  1.0
  Ni  Ni319  1  0.62638267  0.33333333  0.25000000  1.0
  Ni  Ni320  1  0.62638267  0.66666667  0.25000000  1.0
  Ni  Ni321  1  0.95971600  0.00000000  0.25000000  1.0
  Ni  Ni322  1  0.95971600  0.33333333  0.25000000  1.0
  Ni  Ni323  1  0.95971600  0.66666667  0.25000000  1.0
  Ni  Ni324  1  0.12427900  0.00000000  0.25000000  1.0
  Ni  Ni325  1  0.12427900  0.33333333  0.25000000  1.0
  Ni  Ni326  1  0.12427900  0.66666667  0.25000000  1.0
  Ni  Ni327  1  0.45761233  0.00000000  0.25000000  1.0
  Ni  Ni328  1  0.45761233  0.33333333  0.25000000  1.0
  Ni  Ni329  1  0.45761233  0.66666667  0.25000000  1.0
  Ni  Ni330  1  0.79094567  0.00000000  0.25000000  1.0
  Ni  Ni331  1  0.79094567  0.33333333  0.25000000  1.0
  Ni  Ni332  1  0.79094567  0.66666667  0.25000000  1.0
  Ni  Ni333  1  0.16666667  0.22222222  0.25000000  1.0
  Ni  Ni334  1  0.16666667  0.55555556  0.25000000  1.0
  Ni  Ni335  1  0.16666667  0.88888889  0.25000000  1.0
  Ni  Ni336  1  0.50000000  0.22222222  0.25000000  1.0
  Ni  Ni337  1  0.50000000  0.55555556  0.25000000  1.0
  Ni  Ni338  1  0.50000000  0.88888889  0.25000000  1.0
  Ni  Ni339  1  0.83333333  0.22222222  0.25000000  1.0
  Ni  Ni340  1  0.83333333  0.55555556  0.25000000  1.0
  Ni  Ni341  1  0.83333333  0.88888889  0.25000000  1.0
  Ni  Ni342  1  0.25150267  0.11111111  0.25000000  1.0
  Ni  Ni343  1  0.25150267  0.44444444  0.25000000  1.0
  Ni  Ni344  1  0.25150267  0.77777778  0.25000000  1.0
  Ni  Ni345  1  0.58483600  0.11111111  0.25000000  1.0
  Ni  Ni346  1  0.58483600  0.44444444  0.25000000  1.0
  Ni  Ni347  1  0.58483600  0.77777778  0.25000000  1.0
  Ni  Ni348  1  0.91816933  0.11111111  0.25000000  1.0
  Ni  Ni349  1  0.91816933  0.44444444  0.25000000  1.0
  Ni  Ni350  1  0.91816933  0.77777778  0.25000000  1.0
  Ni  Ni351  1  0.08183067  0.11111111  0.25000000  1.0
  Ni  Ni352  1  0.08183067  0.44444444  0.25000000  1.0
  Ni  Ni353  1  0.08183067  0.77777778  0.25000000  1.0
  Ni  Ni354  1  0.41516400  0.11111111  0.25000000  1.0
  Ni  Ni355  1  0.41516400  0.44444444  0.25000000  1.0
  Ni  Ni356  1  0.41516400  0.77777778  0.25000000  1.0
  Ni  Ni357  1  0.74849733  0.11111111  0.25000000  1.0
  Ni  Ni358  1  0.74849733  0.44444444  0.25000000  1.0
  Ni  Ni359  1  0.74849733  0.77777778  0.25000000  1.0
  Ge  Ge360  1  0.25217967  0.22222222  0.25000000  1.0
  Ge  Ge361  1  0.25217967  0.55555556  0.25000000  1.0
  Ge  Ge362  1  0.25217967  0.88888889  0.25000000  1.0
  Ge  Ge363  1  0.58551300  0.22222222  0.25000000  1.0
  Ge  Ge364  1  0.58551300  0.55555556  0.25000000  1.0
  Ge  Ge365  1  0.58551300  0.88888889  0.25000000  1.0
  Ge  Ge366  1  0.91884633  0.22222222  0.25000000  1.0
  Ge  Ge367  1  0.91884633  0.55555556  0.25000000  1.0
  Ge  Ge368  1  0.91884633  0.88888889  0.25000000  1.0
  Ge  Ge369  1  0.08115367  0.22222222  0.25000000  1.0
  Ge  Ge370  1  0.08115367  0.55555556  0.25000000  1.0
  Ge  Ge371  1  0.08115367  0.88888889  0.25000000  1.0
  Ge  Ge372  1  0.41448700  0.22222222  0.25000000  1.0
  Ge  Ge373  1  0.41448700  0.55555556  0.25000000  1.0
  Ge  Ge374  1  0.41448700  0.88888889  0.25000000  1.0
  Ge  Ge375  1  0.74782033  0.22222222  0.25000000  1.0
  Ge  Ge376  1  0.74782033  0.55555556  0.25000000  1.0
  Ge  Ge377  1  0.74782033  0.88888889  0.25000000  1.0
  Ge  Ge378  1  0.00000000  0.11111111  0.25000000  1.0
  Ge  Ge379  1  0.00000000  0.44444444  0.25000000  1.0
  Ge  Ge380  1  0.00000000  0.77777778  0.25000000  1.0
  Ge  Ge381  1  0.33333333  0.11111111  0.25000000  1.0
  Ge  Ge382  1  0.33333333  0.44444444  0.25000000  1.0
  Ge  Ge383  1  0.33333333  0.77777778  0.25000000  1.0
  Ge  Ge384  1  0.66666667  0.11111111  0.25000000  1.0
  Ge  Ge385  1  0.66666667  0.44444444  0.25000000  1.0
  Ge  Ge386  1  0.66666667  0.77777778  0.25000000  1.0
  Ge  Ge387  1  0.16666667  0.11111111  0.25000000  1.0
  Ge  Ge388  1  0.16666667  0.44444444  0.25000000  1.0
  Ge  Ge389  1  0.16666667  0.77777778  0.25000000  1.0
  Ge  Ge390  1  0.50000000  0.11111111  0.25000000  1.0
  Ge  Ge391  1  0.50000000  0.44444444  0.25000000  1.0
  Ge  Ge392  1  0.50000000  0.77777778  0.25000000  1.0
  Ge  Ge393  1  0.83333333  0.11111111  0.25000000  1.0
  Ge  Ge394  1  0.83333333  0.44444444  0.25000000  1.0
  Ge  Ge395  1  0.83333333  0.77777778  0.25000000  1.0
  Ni  Ni396  1  0.20905433  0.00000000  0.32142857  1.0
  Ni  Ni397  1  0.20905433  0.33333333  0.32142857  1.0
  Ni  Ni398  1  0.20905433  0.66666667  0.32142857  1.0
  Ni  Ni399  1  0.54238767  0.00000000  0.32142857  1.0
  Ni  Ni400  1  0.54238767  0.33333333  0.32142857  1.0
  Ni  Ni401  1  0.54238767  0.66666667  0.32142857  1.0
  Ni  Ni402  1  0.87572100  0.00000000  0.32142857  1.0
  Ni  Ni403  1  0.87572100  0.33333333  0.32142857  1.0
  Ni  Ni404  1  0.87572100  0.66666667  0.32142857  1.0
  Ni  Ni405  1  0.04028400  0.00000000  0.32142857  1.0
  Ni  Ni406  1  0.04028400  0.33333333  0.32142857  1.0
  Ni  Ni407  1  0.04028400  0.66666667  0.32142857  1.0
  Ni  Ni408  1  0.37361733  0.00000000  0.32142857  1.0
  Ni  Ni409  1  0.37361733  0.33333333  0.32142857  1.0
  Ni  Ni410  1  0.37361733  0.66666667  0.32142857  1.0
  Ni  Ni411  1  0.70695067  0.00000000  0.32142857  1.0
  Ni  Ni412  1  0.70695067  0.33333333  0.32142857  1.0
  Ni  Ni413  1  0.70695067  0.66666667  0.32142857  1.0
  Ni  Ni414  1  0.29304933  0.00000000  0.32142857  1.0
  Ni  Ni415  1  0.29304933  0.33333333  0.32142857  1.0
  Ni  Ni416  1  0.29304933  0.66666667  0.32142857  1.0
  Ni  Ni417  1  0.62638267  0.00000000  0.32142857  1.0
  Ni  Ni418  1  0.62638267  0.33333333  0.32142857  1.0
  Ni  Ni419  1  0.62638267  0.66666667  0.32142857  1.0
  Ni  Ni420  1  0.95971600  0.00000000  0.32142857  1.0
  Ni  Ni421  1  0.95971600  0.33333333  0.32142857  1.0
  Ni  Ni422  1  0.95971600  0.66666667  0.32142857  1.0
  Ni  Ni423  1  0.12427900  0.00000000  0.32142857  1.0
  Ni  Ni424  1  0.12427900  0.33333333  0.32142857  1.0
  Ni  Ni425  1  0.12427900  0.66666667  0.32142857  1.0
  Ni  Ni426  1  0.45761233  0.00000000  0.32142857  1.0
  Ni  Ni427  1  0.45761233  0.33333333  0.32142857  1.0
  Ni  Ni428  1  0.45761233  0.66666667  0.32142857  1.0
  Ni  Ni429  1  0.79094567  0.00000000  0.32142857  1.0
  Ni  Ni430  1  0.79094567  0.33333333  0.32142857  1.0
  Ni  Ni431  1  0.79094567  0.66666667  0.32142857  1.0
  Ni  Ni432  1  0.16666667  0.22222222  0.32142857  1.0
  Ni  Ni433  1  0.16666667  0.55555556  0.32142857  1.0
  Ni  Ni434  1  0.16666667  0.88888889  0.32142857  1.0
  Ni  Ni435  1  0.50000000  0.22222222  0.32142857  1.0
  Ni  Ni436  1  0.50000000  0.55555556  0.32142857  1.0
  Ni  Ni437  1  0.50000000  0.88888889  0.32142857  1.0
  Ni  Ni438  1  0.83333333  0.22222222  0.32142857  1.0
  Ni  Ni439  1  0.83333333  0.55555556  0.32142857  1.0
  Ni  Ni440  1  0.83333333  0.88888889  0.32142857  1.0
  Ni  Ni441  1  0.25150267  0.11111111  0.32142857  1.0
  Ni  Ni442  1  0.25150267  0.44444444  0.32142857  1.0
  Ni  Ni443  1  0.25150267  0.77777778  0.32142857  1.0
  Ni  Ni444  1  0.58483600  0.11111111  0.32142857  1.0
  Ni  Ni445  1  0.58483600  0.44444444  0.32142857  1.0
  Ni  Ni446  1  0.58483600  0.77777778  0.32142857  1.0
  Ni  Ni447  1  0.91816933  0.11111111  0.32142857  1.0
  Ni  Ni448  1  0.91816933  0.44444444  0.32142857  1.0
  Ni  Ni449  1  0.91816933  0.77777778  0.32142857  1.0
  Ni  Ni450  1  0.08183067  0.11111111  0.32142857  1.0
  Ni  Ni451  1  0.08183067  0.44444444  0.32142857  1.0
  Ni  Ni452  1  0.08183067  0.77777778  0.32142857  1.0
  Ni  Ni453  1  0.41516400  0.11111111  0.32142857  1.0
  Ni  Ni454  1  0.41516400  0.44444444  0.32142857  1.0
  Ni  Ni455  1  0.41516400  0.77777778  0.32142857  1.0
  Ni  Ni456  1  0.74849733  0.11111111  0.32142857  1.0
  Ni  Ni457  1  0.74849733  0.44444444  0.32142857  1.0
  Ni  Ni458  1  0.74849733  0.77777778  0.32142857  1.0
  Ge  Ge459  1  0.25217967  0.22222222  0.32142857  1.0
  Ge  Ge460  1  0.25217967  0.55555556  0.32142857  1.0
  Ge  Ge461  1  0.25217967  0.88888889  0.32142857  1.0
  Ge  Ge462  1  0.58551300  0.22222222  0.32142857  1.0
  Ge  Ge463  1  0.58551300  0.55555556  0.32142857  1.0
  Ge  Ge464  1  0.58551300  0.88888889  0.32142857  1.0
  Ge  Ge465  1  0.91884633  0.22222222  0.32142857  1.0
  Ge  Ge466  1  0.91884633  0.55555556  0.32142857  1.0
  Ge  Ge467  1  0.91884633  0.88888889  0.32142857  1.0
  Ge  Ge468  1  0.08115367  0.22222222  0.32142857  1.0
  Ge  Ge469  1  0.08115367  0.55555556  0.32142857  1.0
  Ge  Ge470  1  0.08115367  0.88888889  0.32142857  1.0
  Ge  Ge471  1  0.41448700  0.22222222  0.32142857  1.0
  Ge  Ge472  1  0.41448700  0.55555556  0.32142857  1.0
  Ge  Ge473  1  0.41448700  0.88888889  0.32142857  1.0
  Ge  Ge474  1  0.74782033  0.22222222  0.32142857  1.0
  Ge  Ge475  1  0.74782033  0.55555556  0.32142857  1.0
  Ge  Ge476  1  0.74782033  0.88888889  0.32142857  1.0
  Ge  Ge477  1  0.00000000  0.11111111  0.32142857  1.0
  Ge  Ge478  1  0.00000000  0.44444444  0.32142857  1.0
  Ge  Ge479  1  0.00000000  0.77777778  0.32142857  1.0
  Ge  Ge480  1  0.33333333  0.11111111  0.32142857  1.0
  Ge  Ge481  1  0.33333333  0.44444444  0.32142857  1.0
  Ge  Ge482  1  0.33333333  0.77777778  0.32142857  1.0
  Ge  Ge483  1  0.66666667  0.11111111  0.32142857  1.0
  Ge  Ge484  1  0.66666667  0.44444444  0.32142857  1.0
  Ge  Ge485  1  0.66666667  0.77777778  0.32142857  1.0
  Ge  Ge486  1  0.16666667  0.11111111  0.32142857  1.0
  Ge  Ge487  1  0.16666667  0.44444444  0.32142857  1.0
  Ge  Ge488  1  0.16666667  0.77777778  0.32142857  1.0
  Ge  Ge489  1  0.50000000  0.11111111  0.32142857  1.0
  Ge  Ge490  1  0.50000000  0.44444444  0.32142857  1.0
  Ge  Ge491  1  0.50000000  0.77777778  0.32142857  1.0
  Ge  Ge492  1  0.83333333  0.11111111  0.32142857  1.0
  Ge  Ge493  1  0.83333333  0.44444444  0.32142857  1.0
  Ge  Ge494  1  0.83333333  0.77777778  0.32142857  1.0
  Ni  Ni495  1  0.20905433  0.00000000  0.39285714  1.0
  Ni  Ni496  1  0.20905433  0.33333333  0.39285714  1.0
  Ni  Ni497  1  0.20905433  0.66666667  0.39285714  1.0
  Ni  Ni498  1  0.54238767  0.00000000  0.39285714  1.0
  Ni  Ni499  1  0.54238767  0.33333333  0.39285714  1.0
  Ni  Ni500  1  0.54238767  0.66666667  0.39285714  1.0
  Ni  Ni501  1  0.87572100  0.00000000  0.39285714  1.0
  Ni  Ni502  1  0.87572100  0.33333333  0.39285714  1.0
  Ni  Ni503  1  0.87572100  0.66666667  0.39285714  1.0
  Ni  Ni504  1  0.04028400  0.00000000  0.39285714  1.0
  Ni  Ni505  1  0.04028400  0.33333333  0.39285714  1.0
  Ni  Ni506  1  0.04028400  0.66666667  0.39285714  1.0
  Ni  Ni507  1  0.37361733  0.00000000  0.39285714  1.0
  Ni  Ni508  1  0.37361733  0.33333333  0.39285714  1.0
  Ni  Ni509  1  0.37361733  0.66666667  0.39285714  1.0
  Ni  Ni510  1  0.70695067  0.00000000  0.39285714  1.0
  Ni  Ni511  1  0.70695067  0.33333333  0.39285714  1.0
  Ni  Ni512  1  0.70695067  0.66666667  0.39285714  1.0
  Ni  Ni513  1  0.29304933  0.00000000  0.39285714  1.0
  Ni  Ni514  1  0.29304933  0.33333333  0.39285714  1.0
  Ni  Ni515  1  0.29304933  0.66666667  0.39285714  1.0
  Ni  Ni516  1  0.62638267  0.00000000  0.39285714  1.0
  Ni  Ni517  1  0.62638267  0.33333333  0.39285714  1.0
  Ni  Ni518  1  0.62638267  0.66666667  0.39285714  1.0
  Ni  Ni519  1  0.95971600  0.00000000  0.39285714  1.0
  Ni  Ni520  1  0.95971600  0.33333333  0.39285714  1.0
  Ni  Ni521  1  0.95971600  0.66666667  0.39285714  1.0
  Ni  Ni522  1  0.12427900  0.00000000  0.39285714  1.0
  Ni  Ni523  1  0.12427900  0.33333333  0.39285714  1.0
  Ni  Ni524  1  0.12427900  0.66666667  0.39285714  1.0
  Ni  Ni525  1  0.45761233  0.00000000  0.39285714  1.0
  Ni  Ni526  1  0.45761233  0.33333333  0.39285714  1.0
  Ni  Ni527  1  0.45761233  0.66666667  0.39285714  1.0
  Ni  Ni528  1  0.79094567  0.00000000  0.39285714  1.0
  Ni  Ni529  1  0.79094567  0.33333333  0.39285714  1.0
  Ni  Ni530  1  0.79094567  0.66666667  0.39285714  1.0
  Ni  Ni531  1  0.16666667  0.22222222  0.39285714  1.0
  Ni  Ni532  1  0.16666667  0.55555556  0.39285714  1.0
  Ni  Ni533  1  0.16666667  0.88888889  0.39285714  1.0
  Ni  Ni534  1  0.50000000  0.22222222  0.39285714  1.0
  Ni  Ni535  1  0.50000000  0.55555556  0.39285714  1.0
  Ni  Ni536  1  0.50000000  0.88888889  0.39285714  1.0
  Ni  Ni537  1  0.83333333  0.22222222  0.39285714  1.0
  Ni  Ni538  1  0.83333333  0.55555556  0.39285714  1.0
  Ni  Ni539  1  0.83333333  0.88888889  0.39285714  1.0
  Ni  Ni540  1  0.25150267  0.11111111  0.39285714  1.0
  Ni  Ni541  1  0.25150267  0.44444444  0.39285714  1.0
  Ni  Ni542  1  0.25150267  0.77777778  0.39285714  1.0
  Ni  Ni543  1  0.58483600  0.11111111  0.39285714  1.0
  Ni  Ni544  1  0.58483600  0.44444444  0.39285714  1.0
  Ni  Ni545  1  0.58483600  0.77777778  0.39285714  1.0
  Ni  Ni546  1  0.91816933  0.11111111  0.39285714  1.0
  Ni  Ni547  1  0.91816933  0.44444444  0.39285714  1.0
  Ni  Ni548  1  0.91816933  0.77777778  0.39285714  1.0
  Ni  Ni549  1  0.08183067  0.11111111  0.39285714  1.0
  Ni  Ni550  1  0.08183067  0.44444444  0.39285714  1.0
  Ni  Ni551  1  0.08183067  0.77777778  0.39285714  1.0
  Ni  Ni552  1  0.41516400  0.11111111  0.39285714  1.0
  Ni  Ni553  1  0.41516400  0.44444444  0.39285714  1.0
  Ni  Ni554  1  0.41516400  0.77777778  0.39285714  1.0
  Ni  Ni555  1  0.74849733  0.11111111  0.39285714  1.0
  Ni  Ni556  1  0.74849733  0.44444444  0.39285714  1.0
  Ni  Ni557  1  0.74849733  0.77777778  0.39285714  1.0
  Ge  Ge558  1  0.25217967  0.22222222  0.39285714  1.0
  Ge  Ge559  1  0.25217967  0.55555556  0.39285714  1.0
  Ge  Ge560  1  0.25217967  0.88888889  0.39285714  1.0
  Ge  Ge561  1  0.58551300  0.22222222  0.39285714  1.0
  Ge  Ge562  1  0.58551300  0.55555556  0.39285714  1.0
  Ge  Ge563  1  0.58551300  0.88888889  0.39285714  1.0
  Ge  Ge564  1  0.91884633  0.22222222  0.39285714  1.0
  Ge  Ge565  1  0.91884633  0.55555556  0.39285714  1.0
  Ge  Ge566  1  0.91884633  0.88888889  0.39285714  1.0
  Ge  Ge567  1  0.08115367  0.22222222  0.39285714  1.0
  Ge  Ge568  1  0.08115367  0.55555556  0.39285714  1.0
  Ge  Ge569  1  0.08115367  0.88888889  0.39285714  1.0
  Ge  Ge570  1  0.41448700  0.22222222  0.39285714  1.0
  Ge  Ge571  1  0.41448700  0.55555556  0.39285714  1.0
  Ge  Ge572  1  0.41448700  0.88888889  0.39285714  1.0
  Ge  Ge573  1  0.74782033  0.22222222  0.39285714  1.0
  Ge  Ge574  1  0.74782033  0.55555556  0.39285714  1.0
  Ge  Ge575  1  0.74782033  0.88888889  0.39285714  1.0
  Ge  Ge576  1  0.00000000  0.11111111  0.39285714  1.0
  Ge  Ge577  1  0.00000000  0.44444444  0.39285714  1.0
  Ge  Ge578  1  0.00000000  0.77777778  0.39285714  1.0
  Ge  Ge579  1  0.33333333  0.11111111  0.39285714  1.0
  Ge  Ge580  1  0.33333333  0.44444444  0.39285714  1.0
  Ge  Ge581  1  0.33333333  0.77777778  0.39285714  1.0
  Ge  Ge582  1  0.66666667  0.11111111  0.39285714  1.0
  Ge  Ge583  1  0.66666667  0.44444444  0.39285714  1.0
  Ge  Ge584  1  0.66666667  0.77777778  0.39285714  1.0
  Ge  Ge585  1  0.16666667  0.11111111  0.39285714  1.0
  Ge  Ge586  1  0.16666667  0.44444444  0.39285714  1.0
  Ge  Ge587  1  0.16666667  0.77777778  0.39285714  1.0
  Ge  Ge588  1  0.50000000  0.11111111  0.39285714  1.0
  Ge  Ge589  1  0.50000000  0.44444444  0.39285714  1.0
  Ge  Ge590  1  0.50000000  0.77777778  0.39285714  1.0
  Ge  Ge591  1  0.83333333  0.11111111  0.39285714  1.0
  Ge  Ge592  1  0.83333333  0.44444444  0.39285714  1.0
  Ge  Ge593  1  0.83333333  0.77777778  0.39285714  1.0
