# generated using pymatgen
data_Ni7Ge4
_symmetry_space_group_name_H-M   'P 1'
_cell_length_a   11.90827605
_cell_length_b   30.09059700
_cell_length_c   31.75540280
_cell_angle_alpha   90.00000000
_cell_angle_beta   120.00000000
_cell_angle_gamma   90.00000000
_symmetry_Int_Tables_number   1
_chemical_formula_structural   Ni7Ge4
_chemical_formula_sum   'Ni189 Ge108'
_cell_volume   9854.34937153
_cell_formula_units_Z   27
loop_
 _symmetry_equiv_pos_site_id
 _symmetry_equiv_pos_as_xyz
  1  'x, y, z'
loop_
 _atom_site_type_symbol
 _atom_site_label
 _atom_site_symmetry_multiplicity
 _atom_site_fract_x
 _atom_site_fract_y
 _atom_site_fract_z
 _atom_site_occupancy
  Ni  Ni0  1  0.00000000  0.12427900  0.10416667  1.0
  Ni  Ni1  1  0.00000000  0.45761233  0.10416667  1.0
  Ni  Ni2  1  0.00000000  0.79094567  0.10416667  1.0
  Ni  Ni3  1  0.33333333  0.12427900  0.10416667  1.0
  Ni  Ni4  1  0.33333333  0.45761233  0.10416667  1.0
  Ni  Ni5  1  0.33333333  0.79094567  0.10416667  1.0
  Ni  Ni6  1  0.66666667  0.12427900  0.10416667  1.0
  Ni  Ni7  1  0.66666667  0.45761233  0.10416667  1.0
  Ni  Ni8  1  0.66666667  0.79094567  0.10416667  1.0
  Ni  Ni9  1  0.00000000  0.29304933  0.10416667  1.0
  Ni  Ni10  1  0.00000000  0.62638267  0.10416667  1.0
  Ni  Ni11  1  0.00000000  0.95971600  0.10416667  1.0
  Ni  Ni12  1  0.33333333  0.29304933  0.10416667  1.0
  Ni  Ni13  1  0.33333333  0.62638267  0.10416667  1.0
  Ni  Ni14  1  0.33333333  0.95971600  0.10416667  1.0
  Ni  Ni15  1  0.66666667  0.29304933  0.10416667  1.0
  Ni  Ni16  1  0.66666667  0.62638267  0.10416667  1.0
  Ni  Ni17  1  0.66666667  0.95971600  0.10416667  1.0
  Ni  Ni18  1  0.00000000  0.04028400  0.10416667  1.0
  Ni  Ni19  1  0.00000000  0.37361733  0.10416667  1.0
  Ni  Ni20  1  0.00000000  0.70695067  0.10416667  1.0
  Ni  Ni21  1  0.33333333  0.04028400  0.10416667  1.0
  Ni  Ni22  1  0.33333333  0.37361733  0.10416667  1.0
  Ni  Ni23  1  0.33333333  0.70695067  0.10416667  1.0
  Ni  Ni24  1  0.66666667  0.04028400  0.10416667  1.0
  Ni  Ni25  1  0.66666667  0.37361733  0.10416667  1.0
  Ni  Ni26  1  0.66666667  0.70695067  0.10416667  1.0
  Ni  Ni27  1  0.00000000  0.20905433  0.10416667  1.0
  Ni  Ni28  1  0.00000000  0.54238767  0.10416667  1.0
  Ni  Ni29  1  0.00000000  0.87572100  0.10416667  1.0
  Ni  Ni30  1  0.33333333  0.20905433  0.10416667  1.0
  Ni  Ni31  1  0.33333333  0.54238767  0.10416667  1.0
  Ni  Ni32  1  0.33333333  0.87572100  0.10416667  1.0
  Ni  Ni33  1  0.66666667  0.20905433  0.10416667  1.0
  Ni  Ni34  1  0.66666667  0.54238767  0.10416667  1.0
  Ni  Ni35  1  0.66666667  0.87572100  0.10416667  1.0
  Ni  Ni36  1  0.11111111  0.16666667  0.06250000  1.0
  Ni  Ni37  1  0.11111111  0.50000000  0.06250000  1.0
  Ni  Ni38  1  0.11111111  0.83333333  0.06250000  1.0
  Ni  Ni39  1  0.44444444  0.16666667  0.06250000  1.0
  Ni  Ni40  1  0.44444444  0.50000000  0.06250000  1.0
  Ni  Ni41  1  0.44444444  0.83333333  0.06250000  1.0
  Ni  Ni42  1  0.77777778  0.16666667  0.06250000  1.0
  Ni  Ni43  1  0.77777778  0.50000000  0.06250000  1.0
  Ni  Ni44  1  0.77777778  0.83333333  0.06250000  1.0
  Ni  Ni45  1  0.22222222  0.08183067  0.02083333  1.0
  Ni  Ni46  1  0.22222222  0.41516400  0.02083333  1.0
  Ni  Ni47  1  0.22222222  0.74849733  0.02083333  1.0
  Ni  Ni48  1  0.55555556  0.08183067  0.02083333  1.0
  Ni  Ni49  1  0.55555556  0.41516400  0.02083333  1.0
  Ni  Ni50  1  0.55555556  0.74849733  0.02083333  1.0
  Ni  Ni51  1  0.88888889  0.08183067  0.02083333  1.0
  Ni  Ni52  1  0.88888889  0.41516400  0.02083333  1.0
  Ni  Ni53  1  0.88888889  0.74849733  0.02083333  1.0
  Ni  Ni54  1  0.22222222  0.25150267  0.02083333  1.0
  Ni  Ni55  1  0.22222222  0.58483600  0.02083333  1.0
  Ni  Ni56  1  0.22222222  0.91816933  0.02083333  1.0
  Ni  Ni57  1  0.55555556  0.25150267  0.02083333  1.0
  Ni  Ni58  1  0.55555556  0.58483600  0.02083333  1.0
  Ni  Ni59  1  0.55555556  0.91816933  0.02083333  1.0
  Ni  Ni60  1  0.88888889  0.25150267  0.02083333  1.0
  Ni  Ni61  1  0.88888889  0.58483600  0.02083333  1.0
  Ni  Ni62  1  0.88888889  0.91816933  0.02083333  1.0
  Ge  Ge63  1  0.11111111  0.08115367  0.06250000  1.0
  Ge  Ge64  1  0.11111111  0.41448700  0.06250000  1.0
  Ge  Ge65  1  0.11111111  0.74782033  0.06250000  1.0
  Ge  Ge66  1  0.44444444  0.08115367  0.06250000  1.0
  Ge  Ge67  1  0.44444444  0.41448700  0.06250000  1.0
  Ge  Ge68  1  0.44444444  0.74782033  0.06250000  1.0
  Ge  Ge69  1  0.77777778  0.08115367  0.06250000  1.0
  Ge  Ge70  1  0.77777778  0.41448700  0.06250000  1.0
  Ge  Ge71  1  0.77777778  0.74782033  0.06250000  1.0
  Ge  Ge72  1  0.11111111  0.25217967  0.06250000  1.0
  Ge  Ge73  1  0.11111111  0.58551300  0.06250000  1.0
  Ge  Ge74  1  0.11111111  0.91884633  0.06250000  1.0
  Ge  Ge75  1  0.44444444  0.25217967  0.06250000  1.0
  Ge  Ge76  1  0.44444444  0.58551300  0.06250000  1.0
  Ge  Ge77  1  0.44444444  0.91884633  0.06250000  1.0
  Ge  Ge78  1  0.77777778  0.25217967  0.06250000  1.0
  Ge  Ge79  1  0.77777778  0.58551300  0.06250000  1.0
  Ge  Ge80  1  0.77777778  0.91884633  0.06250000  1.0
  Ge  Ge81  1  0.22222222  0.00000000  0.02083333  1.0
  Ge  Ge82  1  0.22222222  0.33333333  0.02083333  1.0
  Ge  Ge83  1  0.22222222  0.66666667  0.02083333  1.0
  Ge  Ge84  1  0.55555556  0.00000000  0.02083333  1.0
  Ge  Ge85  1  0.55555556  0.33333333  0.02083333  1.0
  Ge  Ge86  1  0.55555556  0.66666667  0.02083333  1.0
  Ge  Ge87  1  0.88888889  0.00000000  0.02083333  1.0
  Ge  Ge88  1  0.88888889  0.33333333  0.02083333  1.0
  Ge  Ge89  1  0.88888889  0.66666667  0.02083333  1.0
  Ge  Ge90  1  0.22222222  0.16666667  0.02083333  1.0
  Ge  Ge91  1  0.22222222  0.50000000  0.02083333  1.0
  Ge  Ge92  1  0.22222222  0.83333333  0.02083333  1.0
  Ge  Ge93  1  0.55555556  0.16666667  0.02083333  1.0
  Ge  Ge94  1  0.55555556  0.50000000  0.02083333  1.0
  Ge  Ge95  1  0.55555556  0.83333333  0.02083333  1.0
  Ge  Ge96  1  0.88888889  0.16666667  0.02083333  1.0
  Ge  Ge97  1  0.88888889  0.50000000  0.02083333  1.0
  Ge  Ge98  1  0.88888889  0.83333333  0.02083333  1.0
  Ni  Ni99  1  0.00000000  0.12427900  0.22916667  1.0
  Ni  Ni100  1  0.00000000  0.45761233  0.22916667  1.0
  Ni  Ni101  1  0.00000000  0.79094567  0.22916667  1.0
  Ni  Ni102  1  0.33333333  0.12427900  0.22916667  1.0
  Ni  Ni103  1  0.33333333  0.45761233  0.22916667  1.0
  Ni  Ni104  1  0.33333333  0.79094567  0.22916667  1.0
  Ni  Ni105  1  0.66666667  0.12427900  0.22916667  1.0
  Ni  Ni106  1  0.66666667  0.45761233  0.22916667  1.0
  Ni  Ni107  1  0.66666667  0.79094567  0.22916667  1.0
  Ni  Ni108  1  0.00000000  0.29304933  0.22916667  1.0
  Ni  Ni109  1  0.00000000  0.62638267  0.22916667  1.0
  Ni  Ni110  1  0.00000000  0.95971600  0.22916667  1.0
  Ni  Ni111  1  0.33333333  0.29304933  0.22916667  1.0
  Ni  Ni112  1  0.33333333  0.62638267  0.22916667  1.0
  Ni  Ni113  1  0.33333333  0.95971600  0.22916667  1.0
  Ni  Ni114  1  0.66666667  0.29304933  0.22916667  1.0
  Ni  Ni115  1  0.66666667  0.62638267  0.22916667  1.0
  Ni  Ni116  1  0.66666667  0.95971600  0.22916667  1.0
  Ni  Ni117  1  0.00000000  0.04028400  0.22916667  1.0
  Ni  Ni118  1  0.00000000  0.37361733  0.22916667  1.0
  Ni  Ni119  1  0.00000000  0.70695067  0.22916667  1.0
  Ni  Ni120  1  0.33333333  0.04028400  0.22916667  1.0
  Ni  Ni121  1  0.33333333  0.37361733  0.22916667  1.0
  Ni  Ni122  1  0.33333333  0.70695067  0.22916667  1.0
  Ni  Ni123  1  0.66666667  0.04028400  0.22916667  1.0
  Ni  Ni124  1  0.66666667  0.37361733  0.22916667  1.0
  Ni  Ni125  1  0.66666667  0.70695067  0.22916667  1.0
  Ni  Ni126  1  0.00000000  0.20905433  0.22916667  1.0
  Ni  Ni127  1  0.00000000  0.54238767  0.22916667  1.0
  Ni  Ni128  1  0.00000000  0.87572100  0.22916667  1.0
  Ni  Ni129  1  0.33333333  0.20905433  0.22916667  1.0
  Ni  Ni130  1  0.33333333  0.54238767  0.22916667  1.0
  Ni  Ni131  1  0.33333333  0.87572100  0.22916667  1.0
  Ni  Ni132  1  0.66666667  0.20905433  0.22916667  1.0
  Ni  Ni133  1  0.66666667  0.54238767  0.22916667  1.0
  Ni  Ni134  1  0.66666667  0.87572100  0.22916667  1.0
  Ni  Ni135  1  0.11111111  0.16666667  0.18750000  1.0
  Ni  Ni136  1  0.11111111  0.50000000  0.18750000  1.0
  Ni  Ni137  1  0.11111111  0.83333333  0.18750000  1.0
  Ni  Ni138  1  0.44444444  0.16666667  0.18750000  1.0
  Ni  Ni139  1  0.44444444  0.50000000  0.18750000  1.0
  Ni  Ni140  1  0.44444444  0.83333333  0.18750000  1.0
  Ni  Ni141  1  0.77777778  0.16666667  0.18750000  1.0
  Ni  Ni142  1  0.77777778  0.50000000  0.18750000  1.0
  Ni  Ni143  1  0.77777778  0.83333333  0.18750000  1.0
  Ni  Ni144  1  0.22222222  0.08183067  0.14583333  1.0
  Ni  Ni145  1  0.22222222  0.41516400  0.14583333  1.0
  Ni  Ni146  1  0.22222222  0.74849733  0.14583333  1.0
  Ni  Ni147  1  0.55555556  0.08183067  0.14583333  1.0
  Ni  Ni148  1  0.55555556  0.41516400  0.14583333  1.0
  Ni  Ni149  1  0.55555556  0.74849733  0.14583333  1.0
  Ni  Ni150  1  0.88888889  0.08183067  0.14583333  1.0
  Ni  Ni151  1  0.88888889  0.41516400  0.14583333  1.0
  Ni  Ni152  1  0.88888889  0.74849733  0.14583333  1.0
  Ni  Ni153  1  0.22222222  0.25150267  0.14583333  1.0
  Ni  Ni154  1  0.22222222  0.58483600  0.14583333  1.0
  Ni  Ni155  1  0.22222222  0.91816933  0.14583333  1.0
  Ni  Ni156  1  0.55555556  0.25150267  0.14583333  1.0
  Ni  Ni157  1  0.55555556  0.58483600  0.14583333  1.0
  Ni  Ni158  1  0.55555556  0.91816933  0.14583333  1.0
  Ni  Ni159  1  0.88888889  0.25150267  0.14583333  1.0
  Ni  Ni160  1  0.88888889  0.58483600  0.14583333  1.0
  Ni  Ni161  1  0.88888889  0.91816933  0.14583333  1.0
  Ge  Ge162  1  0.11111111  0.08115367  0.18750000  1.0
  Ge  Ge163  1  0.11111111  0.41448700  0.18750000  1.0
  Ge  Ge164  1  0.11111111  0.74782033  0.18750000  1.0
  Ge  Ge165  1  0.44444444  0.08115367  0.18750000  1.0
  Ge  Ge166  1  0.44444444  0.41448700  0.18750000  1.0
  Ge  Ge167  1  0.44444444  0.74782033  0.18750000  1.0
  Ge  Ge168  1  0.77777778  0.08115367  0.18750000  1.0
  Ge  Ge169  1  0.77777778  0.41448700  0.18750000  1.0
  Ge  Ge170  1  0.77777778  0.74782033  0.18750000  1.0
  Ge  Ge171  1  0.11111111  0.25217967  0.18750000  1.0
  Ge  Ge172  1  0.11111111  0.58551300  0.18750000  1.0
  Ge  Ge173  1  0.11111111  0.91884633  0.18750000  1.0
  Ge  Ge174  1  0.44444444  0.25217967  0.18750000  1.0
  Ge  Ge175  1  0.44444444  0.58551300  0.18750000  1.0
  Ge  Ge176  1  0.44444444  0.91884633  0.18750000  1.0
  Ge  Ge177  1  0.77777778  0.25217967  0.18750000  1.0
  Ge  Ge178  1  0.77777778  0.58551300  0.18750000  1.0
  Ge  Ge179  1  0.77777778  0.91884633  0.18750000  1.0
  Ge  Ge180  1  0.22222222  0.00000000  0.14583333  1.0
  Ge  Ge181  1  0.22222222  0.33333333  0.14583333  1.0
  Ge  Ge182  1  0.22222222  0.66666667  0.14583333  1.0
  Ge  Ge183  1  0.55555556  0.00000000  0.14583333  1.0
  Ge  Ge184  1  0.55555556  0.33333333  0.14583333  1.0
  Ge  Ge185  1  0.55555556  0.66666667  0.14583333  1.0
  Ge  Ge186  1  0.88888889  0.00000000  0.14583333  1.0
  Ge  Ge187  1  0.88888889  0.33333333  0.14583333  1.0
  Ge  Ge188  1  0.88888889  0.66666667  0.14583333  1.0
  Ge  Ge189  1  0.22222222  0.16666667  0.14583333  1.0
  Ge  Ge190  1  0.22222222  0.50000000  0.14583333  1.0
  Ge  Ge191  1  0.22222222  0.83333333  0.14583333  1.0
  Ge  Ge192  1  0.55555556  0.16666667  0.14583333  1.0
  Ge  Ge193  1  0.55555556  0.50000000  0.14583333  1.0
  Ge  Ge194  1  0.55555556  0.83333333  0.14583333  1.0
  Ge  Ge195  1  0.88888889  0.16666667  0.14583333  1.0
  Ge  Ge196  1  0.88888889  0.50000000  0.14583333  1.0
  Ge  Ge197  1  0.88888889  0.83333333  0.14583333  1.0
  Ni  Ni198  1  0.00000000  0.12427900  0.35416667  1.0
  Ni  Ni199  1  0.00000000  0.45761233  0.35416667  1.0
  Ni  Ni200  1  0.00000000  0.79094567  0.35416667  1.0
  Ni  Ni201  1  0.33333333  0.12427900  0.35416667  1.0
  Ni  Ni202  1  0.33333333  0.45761233  0.35416667  1.0
  Ni  Ni203  1  0.33333333  0.79094567  0.35416667  1.0
  Ni  Ni204  1  0.66666667  0.12427900  0.35416667  1.0
  Ni  Ni205  1  0.66666667  0.45761233  0.35416667  1.0
  Ni  Ni206  1  0.66666667  0.79094567  0.35416667  1.0
  Ni  Ni207  1  0.00000000  0.29304933  0.35416667  1.0
  Ni  Ni208  1  0.00000000  0.62638267  0.35416667  1.0
  Ni  Ni209  1  0.00000000  0.95971600  0.35416667  1.0
  Ni  Ni210  1  0.33333333  0.29304933  0.35416667  1.0
  Ni  Ni211  1  0.33333333  0.62638267  0.35416667  1.0
  Ni  Ni212  1  0.33333333  0.95971600  0.35416667  1.0
  Ni  Ni213  1  0.66666667  0.29304933  0.35416667  1.0
  Ni  Ni214  1  0.66666667  0.62638267  0.35416667  1.0
  Ni  Ni215  1  0.66666667  0.95971600  0.35416667  1.0
  Ni  Ni216  1  0.00000000  0.04028400  0.35416667  1.0
  Ni  Ni217  1  0.00000000  0.37361733  0.35416667  1.0
  Ni  Ni218  1  0.00000000  0.70695067  0.35416667  1.0
  Ni  Ni219  1  0.33333333  0.04028400  0.35416667  1.0
  Ni  Ni220  1  0.33333333  0.37361733  0.35416667  1.0
  Ni  Ni221  1  0.33333333  0.70695067  0.35416667  1.0
  Ni  Ni222  1  0.66666667  0.04028400  0.35416667  1.0
  Ni  Ni223  1  0.66666667  0.37361733  0.35416667  1.0
  Ni  Ni224  1  0.66666667  0.70695067  0.35416667  1.0
  Ni  Ni225  1  0.00000000  0.20905433  0.35416667  1.0
  Ni  Ni226  1  0.00000000  0.54238767  0.35416667  1.0
  Ni  Ni227  1  0.00000000  0.87572100  0.35416667  1.0
  Ni  Ni228  1  0.33333333  0.20905433  0.35416667  1.0
  Ni  Ni229  1  0.33333333  0.54238767  0.35416667  1.0
  Ni  Ni230  1  0.33333333  0.87572100  0.35416667  1.0
  Ni  Ni231  1  0.66666667  0.20905433  0.35416667  1.0
  Ni  Ni232  1  0.66666667  0.54238767  0.35416667  1.0
  Ni  Ni233  1  0.66666667  0.87572100  0.35416667  1.0
  Ni  Ni234  1  0.11111111  0.16666667  0.31250000  1.0
  Ni  Ni235  1  0.11111111  0.50000000  0.31250000  1.0
  Ni  Ni236  1  0.11111111  0.83333333  0.31250000  1.0
  Ni  Ni237  1  0.44444444  0.16666667  0.31250000  1.0
  Ni  Ni238  1  0.44444444  0.50000000  0.31250000  1.0
  Ni  Ni239  1  0.44444444  0.83333333  0.31250000  1.0
  Ni  Ni240  1  0.77777778  0.16666667  0.31250000  1.0
  Ni  Ni241  1  0.77777778  0.50000000  0.31250000  1.0
  Ni  Ni242  1  0.77777778  0.83333333  0.31250000  1.0
  Ni  Ni243  1  0.22222222  0.08183067  0.27083333  1.0
  Ni  Ni244  1  0.22222222  0.41516400  0.27083333  1.0
  Ni  Ni245  1  0.22222222  0.74849733  0.27083333  1.0
  Ni  Ni246  1  0.55555556  0.08183067  0.27083333  1.0
  Ni  Ni247  1  0.55555556  0.41516400  0.27083333  1.0
  Ni  Ni248  1  0.55555556  0.74849733  0.27083333  1.0
  Ni  Ni249  1  0.88888889  0.08183067  0.27083333  1.0
  Ni  Ni250  1  0.88888889  0.41516400  0.27083333  1.0
  Ni  Ni251  1  0.88888889  0.74849733  0.27083333  1.0
  Ni  Ni252  1  0.22222222  0.25150267  0.27083333  1.0
  Ni  Ni253  1  0.22222222  0.58483600  0.27083333  1.0
  Ni  Ni254  1  0.22222222  0.91816933  0.27083333  1.0
  Ni  Ni255  1  0.55555556  0.25150267  0.27083333  1.0
  Ni  Ni256  1  0.55555556  0.58483600  0.27083333  1.0
  Ni  Ni257  1  0.55555556  0.91816933  0.27083333  1.0
  Ni  Ni258  1  0.88888889  0.25150267  0.27083333  1.0
  Ni  Ni259  1  0.88888889  0.58483600  0.27083333  1.0
  Ni  Ni260  1  0.88888889  0.91816933  0.27083333  1.0
  Ge  Ge261  1  0.11111111  0.08115367  0.31250000  1.0
  Ge  Ge262  1  0.11111111  0.41448700  0.31250000  1.0
  Ge  Ge263  1  0.11111111  0.74782033  0.31250000  1.0
  Ge  Ge264  1  0.44444444  0.08115367  0.31250000  1.0
  Ge  Ge265  1  0.44444444  0.41448700  0.31250000  1.0
  Ge  Ge266  1  0.44444444  0.74782033  0.31250000  1.0
  Ge  Ge267  1  0.77777778  0.08115367  0.31250000  1.0
  Ge  Ge268  1  0.77777778  0.41448700  0.31250000  1.0
  Ge  Ge269  1  0.77777778  0.74782033  0.31250000  1.0
  Ge  Ge270  1  0.11111111  0.25217967  0.31250000  1.0
  Ge  Ge271  1  0.11111111  0.58551300  0.31250000  1.0
  Ge  Ge272  1  0.11111111  0.91884633  0.31250000  1.0
  Ge  Ge273  1  0.44444444  0.25217967  0.31250000  1.0
  Ge  Ge274  1  0.44444444  0.58551300  0.31250000  1.0
  Ge  Ge275  1  0.44444444  0.91884633  0.31250000  1.0
  Ge  Ge276  1  0.77777778  0.25217967  0.31250000  1.0
  Ge  Ge277  1  0.77777778  0.58551300  0.31250000  1.0
  Ge  Ge278  1  0.77777778  0.91884633  0.31250000  1.0
  Ge  Ge279  1  0.22222222  0.00000000  0.27083333  1.0
  Ge  Ge280  1  0.22222222  0.33333333  0.27083333  1.0
  Ge  Ge281  1  0.22222222  0.66666667  0.27083333  1.0
  Ge  Ge282  1  0.55555556  0.00000000  0.27083333  1.0
  Ge  Ge283  1  0.55555556  0.33333333  0.27083333  1.0
  Ge  Ge284  1  0.55555556  0.66666667  0.27083333  1.0
  Ge  Ge285  1  0.88888889  0.00000000  0.27083333  1.0
  Ge  Ge286  1  0.88888889  0.33333333  0.27083333  1.0
  Ge  Ge287  1  0.88888889  0.66666667  0.27083333  1.0
  Ge  Ge288  1  0.22222222  0.16666667  0.27083333  1.0
  Ge  Ge289  1  0.22222222  0.50000000  0.27083333  1.0
  Ge  Ge290  1  0.22222222  0.83333333  0.27083333  1.0
  Ge  Ge291  1  0.55555556  0.16666667  0.27083333  1.0
  Ge  Ge292  1  0.55555556  0.50000000  0.27083333  1.0
  Ge  Ge293  1  0.55555556  0.83333333  0.27083333  1.0
  Ge  Ge294  1  0.88888889  0.16666667  0.27083333  1.0
  Ge  Ge295  1  0.88888889  0.50000000  0.27083333  1.0
  Ge  Ge296  1  0.88888889  0.83333333  0.27083333  1.0
