# generated using pymatgen
data_Ni
_symmetry_space_group_name_H-M   'P 1'
_cell_length_a   10.51739400
_cell_length_b   12.88112437
_cell_length_c   26.69936213
_cell_angle_alpha   93.07284904
_cell_angle_beta   90.00000000
_cell_angle_gamma   114.09484255
_symmetry_Int_Tables_number   1
_chemical_formula_structural   Ni
_chemical_formula_sum   Ni126
_cell_volume   3296.26487277
_cell_formula_units_Z   126
loop_
 _symmetry_equiv_pos_site_id
 _symmetry_equiv_pos_as_xyz
  1  'x, y, z'
loop_
 _atom_site_type_symbol
 _atom_site_label
 _atom_site_symmetry_multiplicity
 _atom_site_fract_x
 _atom_site_fract_y
 _atom_site_fract_z
 _atom_site_occupancy
  Ni  Ni0  1  0.28431373  0.15196078  0.01470588  1.0
  Ni  Ni1  1  0.28431373  0.48529412  0.01470588  1.0
  Ni  Ni2  1  0.28431373  0.81862745  0.01470588  1.0
  Ni  Ni3  1  0.61764706  0.15196078  0.01470588  1.0
  Ni  Ni4  1  0.61764706  0.48529412  0.01470588  1.0
  Ni  Ni5  1  0.61764706  0.81862745  0.01470588  1.0
  Ni  Ni6  1  0.95098039  0.15196078  0.01470588  1.0
  Ni  Ni7  1  0.95098039  0.48529412  0.01470588  1.0
  Ni  Ni8  1  0.95098039  0.81862745  0.01470588  1.0
  Ni  Ni9  1  0.18627451  0.28921569  0.04411765  1.0
  Ni  Ni10  1  0.18627451  0.62254902  0.04411765  1.0
  Ni  Ni11  1  0.18627451  0.95588235  0.04411765  1.0
  Ni  Ni12  1  0.51960784  0.28921569  0.04411765  1.0
  Ni  Ni13  1  0.51960784  0.62254902  0.04411765  1.0
  Ni  Ni14  1  0.51960784  0.95588235  0.04411765  1.0
  Ni  Ni15  1  0.85294118  0.28921569  0.04411765  1.0
  Ni  Ni16  1  0.85294118  0.62254902  0.04411765  1.0
  Ni  Ni17  1  0.85294118  0.95588235  0.04411765  1.0
  Ni  Ni18  1  0.08823529  0.09313725  0.07352941  1.0
  Ni  Ni19  1  0.08823529  0.42647059  0.07352941  1.0
  Ni  Ni20  1  0.08823529  0.75980392  0.07352941  1.0
  Ni  Ni21  1  0.42156863  0.09313725  0.07352941  1.0
  Ni  Ni22  1  0.42156863  0.42647059  0.07352941  1.0
  Ni  Ni23  1  0.42156863  0.75980392  0.07352941  1.0
  Ni  Ni24  1  0.75490196  0.09313725  0.07352941  1.0
  Ni  Ni25  1  0.75490196  0.42647059  0.07352941  1.0
  Ni  Ni26  1  0.75490196  0.75980392  0.07352941  1.0
  Ni  Ni27  1  0.32352941  0.23039216  0.10294118  1.0
  Ni  Ni28  1  0.32352941  0.56372549  0.10294118  1.0
  Ni  Ni29  1  0.32352941  0.89705882  0.10294118  1.0
  Ni  Ni30  1  0.65686275  0.23039216  0.10294118  1.0
  Ni  Ni31  1  0.65686275  0.56372549  0.10294118  1.0
  Ni  Ni32  1  0.65686275  0.89705882  0.10294118  1.0
  Ni  Ni33  1  0.99019608  0.23039216  0.10294118  1.0
  Ni  Ni34  1  0.99019608  0.56372549  0.10294118  1.0
  Ni  Ni35  1  0.99019608  0.89705882  0.10294118  1.0
  Ni  Ni36  1  0.22549020  0.03431373  0.13235294  1.0
  Ni  Ni37  1  0.22549020  0.36764706  0.13235294  1.0
  Ni  Ni38  1  0.22549020  0.70098039  0.13235294  1.0
  Ni  Ni39  1  0.55882353  0.03431373  0.13235294  1.0
  Ni  Ni40  1  0.55882353  0.36764706  0.13235294  1.0
  Ni  Ni41  1  0.55882353  0.70098039  0.13235294  1.0
  Ni  Ni42  1  0.89215686  0.03431373  0.13235294  1.0
  Ni  Ni43  1  0.89215686  0.36764706  0.13235294  1.0
  Ni  Ni44  1  0.89215686  0.70098039  0.13235294  1.0
  Ni  Ni45  1  0.12745098  0.17156863  0.16176471  1.0
  Ni  Ni46  1  0.12745098  0.50490196  0.16176471  1.0
  Ni  Ni47  1  0.12745098  0.83823529  0.16176471  1.0
  Ni  Ni48  1  0.46078431  0.17156863  0.16176471  1.0
  Ni  Ni49  1  0.46078431  0.50490196  0.16176471  1.0
  Ni  Ni50  1  0.46078431  0.83823529  0.16176471  1.0
  Ni  Ni51  1  0.79411765  0.17156863  0.16176471  1.0
  Ni  Ni52  1  0.79411765  0.50490196  0.16176471  1.0
  Ni  Ni53  1  0.79411765  0.83823529  0.16176471  1.0
  Ni  Ni54  1  0.02941176  0.30882353  0.19117647  1.0
  Ni  Ni55  1  0.02941176  0.64215686  0.19117647  1.0
  Ni  Ni56  1  0.02941176  0.97549020  0.19117647  1.0
  Ni  Ni57  1  0.36274510  0.30882353  0.19117647  1.0
  Ni  Ni58  1  0.36274510  0.64215686  0.19117647  1.0
  Ni  Ni59  1  0.36274510  0.97549020  0.19117647  1.0
  Ni  Ni60  1  0.69607843  0.30882353  0.19117647  1.0
  Ni  Ni61  1  0.69607843  0.64215686  0.19117647  1.0
  Ni  Ni62  1  0.69607843  0.97549020  0.19117647  1.0
  Ni  Ni63  1  0.26470588  0.11274510  0.22058824  1.0
  Ni  Ni64  1  0.26470588  0.44607843  0.22058824  1.0
  Ni  Ni65  1  0.26470588  0.77941176  0.22058824  1.0
  Ni  Ni66  1  0.59803922  0.11274510  0.22058824  1.0
  Ni  Ni67  1  0.59803922  0.44607843  0.22058824  1.0
  Ni  Ni68  1  0.59803922  0.77941176  0.22058824  1.0
  Ni  Ni69  1  0.93137255  0.11274510  0.22058824  1.0
  Ni  Ni70  1  0.93137255  0.44607843  0.22058824  1.0
  Ni  Ni71  1  0.93137255  0.77941176  0.22058824  1.0
  Ni  Ni72  1  0.16666667  0.25000000  0.25000000  1.0
  Ni  Ni73  1  0.16666667  0.58333333  0.25000000  1.0
  Ni  Ni74  1  0.16666667  0.91666667  0.25000000  1.0
  Ni  Ni75  1  0.50000000  0.25000000  0.25000000  1.0
  Ni  Ni76  1  0.50000000  0.58333333  0.25000000  1.0
  Ni  Ni77  1  0.50000000  0.91666667  0.25000000  1.0
  Ni  Ni78  1  0.83333333  0.25000000  0.25000000  1.0
  Ni  Ni79  1  0.83333333  0.58333333  0.25000000  1.0
  Ni  Ni80  1  0.83333333  0.91666667  0.25000000  1.0
  Ni  Ni81  1  0.06862745  0.05392157  0.27941176  1.0
  Ni  Ni82  1  0.06862745  0.38725490  0.27941176  1.0
  Ni  Ni83  1  0.06862745  0.72058824  0.27941176  1.0
  Ni  Ni84  1  0.40196078  0.05392157  0.27941176  1.0
  Ni  Ni85  1  0.40196078  0.38725490  0.27941176  1.0
  Ni  Ni86  1  0.40196078  0.72058824  0.27941176  1.0
  Ni  Ni87  1  0.73529412  0.05392157  0.27941176  1.0
  Ni  Ni88  1  0.73529412  0.38725490  0.27941176  1.0
  Ni  Ni89  1  0.73529412  0.72058824  0.27941176  1.0
  Ni  Ni90  1  0.30392157  0.19117647  0.30882353  1.0
  Ni  Ni91  1  0.30392157  0.52450980  0.30882353  1.0
  Ni  Ni92  1  0.30392157  0.85784314  0.30882353  1.0
  Ni  Ni93  1  0.63725490  0.19117647  0.30882353  1.0
  Ni  Ni94  1  0.63725490  0.52450980  0.30882353  1.0
  Ni  Ni95  1  0.63725490  0.85784314  0.30882353  1.0
  Ni  Ni96  1  0.97058824  0.19117647  0.30882353  1.0
  Ni  Ni97  1  0.97058824  0.52450980  0.30882353  1.0
  Ni  Ni98  1  0.97058824  0.85784314  0.30882353  1.0
  Ni  Ni99  1  0.20588235  0.32843137  0.33823529  1.0
  Ni  Ni100  1  0.20588235  0.66176471  0.33823529  1.0
  Ni  Ni101  1  0.20588235  0.99509804  0.33823529  1.0
  Ni  Ni102  1  0.53921569  0.32843137  0.33823529  1.0
  Ni  Ni103  1  0.53921569  0.66176471  0.33823529  1.0
  Ni  Ni104  1  0.53921569  0.99509804  0.33823529  1.0
  Ni  Ni105  1  0.87254902  0.32843137  0.33823529  1.0
  Ni  Ni106  1  0.87254902  0.66176471  0.33823529  1.0
  Ni  Ni107  1  0.87254902  0.99509804  0.33823529  1.0
  Ni  Ni108  1  0.10784314  0.13235294  0.36764706  1.0
  Ni  Ni109  1  0.10784314  0.46568627  0.36764706  1.0
  Ni  Ni110  1  0.10784314  0.79901961  0.36764706  1.0
  Ni  Ni111  1  0.44117647  0.13235294  0.36764706  1.0
  Ni  Ni112  1  0.44117647  0.46568627  0.36764706  1.0
  Ni  Ni113  1  0.44117647  0.79901961  0.36764706  1.0
  Ni  Ni114  1  0.77450980  0.13235294  0.36764706  1.0
  Ni  Ni115  1  0.77450980  0.46568627  0.36764706  1.0
  Ni  Ni116  1  0.77450980  0.79901961  0.36764706  1.0
  Ni  Ni117  1  0.00980392  0.26960784  0.39705882  1.0
  Ni  Ni118  1  0.00980392  0.60294118  0.39705882  1.0
  Ni  Ni119  1  0.00980392  0.93627451  0.39705882  1.0
  Ni  Ni120  1  0.34313725  0.26960784  0.39705882  1.0
  Ni  Ni121  1  0.34313725  0.60294118  0.39705882  1.0
  Ni  Ni122  1  0.34313725  0.93627451  0.39705882  1.0
  Ni  Ni123  1  0.67647059  0.26960784  0.39705882  1.0
  Ni  Ni124  1  0.67647059  0.60294118  0.39705882  1.0
  Ni  Ni125  1  0.67647059  0.93627451  0.39705882  1.0
