# generated using pymatgen
data_Ni
_symmetry_space_group_name_H-M   'P 1'
_cell_length_a   7.43692062
_cell_length_b   7.43692062
_cell_length_c   32.22665602
_cell_angle_alpha   120.00000000
_cell_angle_beta   120.00000000
_cell_angle_gamma   60.00000000
_symmetry_Int_Tables_number   1
_chemical_formula_structural   Ni
_chemical_formula_sum   Ni45
_cell_volume   1260.33656900
_cell_formula_units_Z   45
loop_
 _symmetry_equiv_pos_site_id
 _symmetry_equiv_pos_as_xyz
  1  'x, y, z'
loop_
 _atom_site_type_symbol
 _atom_site_label
 _atom_site_symmetry_multiplicity
 _atom_site_fract_x
 _atom_site_fract_y
 _atom_site_fract_z
 _atom_site_occupancy
  Ni  Ni0  1  0.00000000  0.00000000  0.03846154  1.0
  Ni  Ni1  1  0.00000000  0.33333333  0.03846154  1.0
  Ni  Ni2  1  0.00000000  0.66666667  0.03846154  1.0
  Ni  Ni3  1  0.33333333  0.00000000  0.03846154  1.0
  Ni  Ni4  1  0.33333333  0.33333333  0.03846154  1.0
  Ni  Ni5  1  0.33333333  0.66666667  0.03846154  1.0
  Ni  Ni6  1  0.66666667  0.00000000  0.03846154  1.0
  Ni  Ni7  1  0.66666667  0.33333333  0.03846154  1.0
  Ni  Ni8  1  0.66666667  0.66666667  0.03846154  1.0
  Ni  Ni9  1  0.00000000  0.00000000  0.11538462  1.0
  Ni  Ni10  1  0.00000000  0.33333333  0.11538462  1.0
  Ni  Ni11  1  0.00000000  0.66666667  0.11538462  1.0
  Ni  Ni12  1  0.33333333  0.00000000  0.11538462  1.0
  Ni  Ni13  1  0.33333333  0.33333333  0.11538462  1.0
  Ni  Ni14  1  0.33333333  0.66666667  0.11538462  1.0
  Ni  Ni15  1  0.66666667  0.00000000  0.11538462  1.0
  Ni  Ni16  1  0.66666667  0.33333333  0.11538462  1.0
  Ni  Ni17  1  0.66666667  0.66666667  0.11538462  1.0
  Ni  Ni18  1  0.00000000  0.00000000  0.19230769  1.0
  Ni  Ni19  1  0.00000000  0.33333333  0.19230769  1.0
  Ni  Ni20  1  0.00000000  0.66666667  0.19230769  1.0
  Ni  Ni21  1  0.33333333  0.00000000  0.19230769  1.0
  Ni  Ni22  1  0.33333333  0.33333333  0.19230769  1.0
  Ni  Ni23  1  0.33333333  0.66666667  0.19230769  1.0
  Ni  Ni24  1  0.66666667  0.00000000  0.19230769  1.0
  Ni  Ni25  1  0.66666667  0.33333333  0.19230769  1.0
  Ni  Ni26  1  0.66666667  0.66666667  0.19230769  1.0
  Ni  Ni27  1  0.00000000  0.00000000  0.26923077  1.0
  Ni  Ni28  1  0.00000000  0.33333333  0.26923077  1.0
  Ni  Ni29  1  0.00000000  0.66666667  0.26923077  1.0
  Ni  Ni30  1  0.33333333  0.00000000  0.26923077  1.0
  Ni  Ni31  1  0.33333333  0.33333333  0.26923077  1.0
  Ni  Ni32  1  0.33333333  0.66666667  0.26923077  1.0
  Ni  Ni33  1  0.66666667  0.00000000  0.26923077  1.0
  Ni  Ni34  1  0.66666667  0.33333333  0.26923077  1.0
  Ni  Ni35  1  0.66666667  0.66666667  0.26923077  1.0
  Ni  Ni36  1  0.00000000  0.00000000  0.34615385  1.0
  Ni  Ni37  1  0.00000000  0.33333333  0.34615385  1.0
  Ni  Ni38  1  0.00000000  0.66666667  0.34615385  1.0
  Ni  Ni39  1  0.33333333  0.00000000  0.34615385  1.0
  Ni  Ni40  1  0.33333333  0.33333333  0.34615385  1.0
  Ni  Ni41  1  0.33333333  0.66666667  0.34615385  1.0
  Ni  Ni42  1  0.66666667  0.00000000  0.34615385  1.0
  Ni  Ni43  1  0.66666667  0.33333333  0.34615385  1.0
  Ni  Ni44  1  0.66666667  0.66666667  0.34615385  1.0
