# generated using pymatgen
data_Ni
_symmetry_space_group_name_H-M   'P 1'
_cell_length_a   7.43692062
_cell_length_b   10.51739400
_cell_length_c   29.74768248
_cell_angle_alpha   90.00000000
_cell_angle_beta   90.00000000
_cell_angle_gamma   90.00000000
_symmetry_Int_Tables_number   1
_chemical_formula_structural   Ni
_chemical_formula_sum   Ni90
_cell_volume   2326.77520431
_cell_formula_units_Z   90
loop_
 _symmetry_equiv_pos_site_id
 _symmetry_equiv_pos_as_xyz
  1  'x, y, z'
loop_
 _atom_site_type_symbol
 _atom_site_label
 _atom_site_symmetry_multiplicity
 _atom_site_fract_x
 _atom_site_fract_y
 _atom_site_fract_z
 _atom_site_occupancy
  Ni  Ni0  1  0.00000000  0.00000000  0.93750000  1.0
  Ni  Ni1  1  0.00000000  0.33333333  0.93750000  1.0
  Ni  Ni2  1  0.00000000  0.66666667  0.93750000  1.0
  Ni  Ni3  1  0.33333333  0.00000000  0.93750000  1.0
  Ni  Ni4  1  0.33333333  0.33333333  0.93750000  1.0
  Ni  Ni5  1  0.33333333  0.66666667  0.93750000  1.0
  Ni  Ni6  1  0.66666667  0.00000000  0.93750000  1.0
  Ni  Ni7  1  0.66666667  0.33333333  0.93750000  1.0
  Ni  Ni8  1  0.66666667  0.66666667  0.93750000  1.0
  Ni  Ni9  1  0.16666667  0.16666667  0.97916667  1.0
  Ni  Ni10  1  0.16666667  0.50000000  0.97916667  1.0
  Ni  Ni11  1  0.16666667  0.83333333  0.97916667  1.0
  Ni  Ni12  1  0.50000000  0.16666667  0.97916667  1.0
  Ni  Ni13  1  0.50000000  0.50000000  0.97916667  1.0
  Ni  Ni14  1  0.50000000  0.83333333  0.97916667  1.0
  Ni  Ni15  1  0.83333333  0.16666667  0.97916667  1.0
  Ni  Ni16  1  0.83333333  0.50000000  0.97916667  1.0
  Ni  Ni17  1  0.83333333  0.83333333  0.97916667  1.0
  Ni  Ni18  1  0.00000000  0.00000000  0.85416667  1.0
  Ni  Ni19  1  0.00000000  0.33333333  0.85416667  1.0
  Ni  Ni20  1  0.00000000  0.66666667  0.85416667  1.0
  Ni  Ni21  1  0.33333333  0.00000000  0.85416667  1.0
  Ni  Ni22  1  0.33333333  0.33333333  0.85416667  1.0
  Ni  Ni23  1  0.33333333  0.66666667  0.85416667  1.0
  Ni  Ni24  1  0.66666667  0.00000000  0.85416667  1.0
  Ni  Ni25  1  0.66666667  0.33333333  0.85416667  1.0
  Ni  Ni26  1  0.66666667  0.66666667  0.85416667  1.0
  Ni  Ni27  1  0.16666667  0.16666667  0.89583333  1.0
  Ni  Ni28  1  0.16666667  0.50000000  0.89583333  1.0
  Ni  Ni29  1  0.16666667  0.83333333  0.89583333  1.0
  Ni  Ni30  1  0.50000000  0.16666667  0.89583333  1.0
  Ni  Ni31  1  0.50000000  0.50000000  0.89583333  1.0
  Ni  Ni32  1  0.50000000  0.83333333  0.89583333  1.0
  Ni  Ni33  1  0.83333333  0.16666667  0.89583333  1.0
  Ni  Ni34  1  0.83333333  0.50000000  0.89583333  1.0
  Ni  Ni35  1  0.83333333  0.83333333  0.89583333  1.0
  Ni  Ni36  1  0.33333333  0.33333333  0.77083333  1.0
  Ni  Ni37  1  0.33333333  0.66666667  0.77083333  1.0
  Ni  Ni38  1  0.33333333  1.00000000  0.77083333  1.0
  Ni  Ni39  1  0.66666667  0.33333333  0.77083333  1.0
  Ni  Ni40  1  0.66666667  0.66666667  0.77083333  1.0
  Ni  Ni41  1  0.66666667  1.00000000  0.77083333  1.0
  Ni  Ni42  1  1.00000000  0.33333333  0.77083333  1.0
  Ni  Ni43  1  1.00000000  0.66666667  0.77083333  1.0
  Ni  Ni44  1  1.00000000  1.00000000  0.77083333  1.0
  Ni  Ni45  1  0.16666667  0.16666667  0.81250000  1.0
  Ni  Ni46  1  0.16666667  0.50000000  0.81250000  1.0
  Ni  Ni47  1  0.16666667  0.83333333  0.81250000  1.0
  Ni  Ni48  1  0.50000000  0.16666667  0.81250000  1.0
  Ni  Ni49  1  0.50000000  0.50000000  0.81250000  1.0
  Ni  Ni50  1  0.50000000  0.83333333  0.81250000  1.0
  Ni  Ni51  1  0.83333333  0.16666667  0.81250000  1.0
  Ni  Ni52  1  0.83333333  0.50000000  0.81250000  1.0
  Ni  Ni53  1  0.83333333  0.83333333  0.81250000  1.0
  Ni  Ni54  1  0.33333333  0.33333333  0.68750000  1.0
  Ni  Ni55  1  0.33333333  0.66666667  0.68750000  1.0
  Ni  Ni56  1  0.33333333  1.00000000  0.68750000  1.0
  Ni  Ni57  1  0.66666667  0.33333333  0.68750000  1.0
  Ni  Ni58  1  0.66666667  0.66666667  0.68750000  1.0
  Ni  Ni59  1  0.66666667  1.00000000  0.68750000  1.0
  Ni  Ni60  1  1.00000000  0.33333333  0.68750000  1.0
  Ni  Ni61  1  1.00000000  0.66666667  0.68750000  1.0
  Ni  Ni62  1  1.00000000  1.00000000  0.68750000  1.0
  Ni  Ni63  1  0.16666667  0.16666667  0.72916667  1.0
  Ni  Ni64  1  0.16666667  0.50000000  0.72916667  1.0
  Ni  Ni65  1  0.16666667  0.83333333  0.72916667  1.0
  Ni  Ni66  1  0.50000000  0.16666667  0.72916667  1.0
  Ni  Ni67  1  0.50000000  0.50000000  0.72916667  1.0
  Ni  Ni68  1  0.50000000  0.83333333  0.72916667  1.0
  Ni  Ni69  1  0.83333333  0.16666667  0.72916667  1.0
  Ni  Ni70  1  0.83333333  0.50000000  0.72916667  1.0
  Ni  Ni71  1  0.83333333  0.83333333  0.72916667  1.0
  Ni  Ni72  1  0.00000000  0.00000000  0.60416667  1.0
  Ni  Ni73  1  0.00000000  0.33333333  0.60416667  1.0
  Ni  Ni74  1  0.00000000  0.66666667  0.60416667  1.0
  Ni  Ni75  1  0.33333333  0.00000000  0.60416667  1.0
  Ni  Ni76  1  0.33333333  0.33333333  0.60416667  1.0
  Ni  Ni77  1  0.33333333  0.66666667  0.60416667  1.0
  Ni  Ni78  1  0.66666667  0.00000000  0.60416667  1.0
  Ni  Ni79  1  0.66666667  0.33333333  0.60416667  1.0
  Ni  Ni80  1  0.66666667  0.66666667  0.60416667  1.0
  Ni  Ni81  1  0.16666667  0.16666667  0.64583333  1.0
  Ni  Ni82  1  0.16666667  0.50000000  0.64583333  1.0
  Ni  Ni83  1  0.16666667  0.83333333  0.64583333  1.0
  Ni  Ni84  1  0.50000000  0.16666667  0.64583333  1.0
  Ni  Ni85  1  0.50000000  0.50000000  0.64583333  1.0
  Ni  Ni86  1  0.50000000  0.83333333  0.64583333  1.0
  Ni  Ni87  1  0.83333333  0.16666667  0.64583333  1.0
  Ni  Ni88  1  0.83333333  0.50000000  0.64583333  1.0
  Ni  Ni89  1  0.83333333  0.83333333  0.64583333  1.0
