# generated using pymatgen
data_NiAg3
_symmetry_space_group_name_H-M   'P 1'
_cell_length_a   14.70243612
_cell_length_b   14.70243612
_cell_length_c   39.20649632
_cell_angle_alpha   131.54456456
_cell_angle_beta   70.94929581
_cell_angle_gamma   131.54456456
_symmetry_Int_Tables_number   1
_chemical_formula_structural   NiAg3
_chemical_formula_sum   'Ni27 Ag81'
_cell_volume   4648.99071883
_cell_formula_units_Z   27
loop_
 _symmetry_equiv_pos_site_id
 _symmetry_equiv_pos_as_xyz
  1  'x, y, z'
loop_
 _atom_site_type_symbol
 _atom_site_label
 _atom_site_symmetry_multiplicity
 _atom_site_fract_x
 _atom_site_fract_y
 _atom_site_fract_z
 _atom_site_occupancy
  Ni  Ni0  1  0.00000000  0.00000000  0.10937500  1.0
  Ni  Ni1  1  0.00000000  0.33333333  0.10937500  1.0
  Ni  Ni2  1  0.00000000  0.66666667  0.10937500  1.0
  Ni  Ni3  1  0.33333333  0.00000000  0.10937500  1.0
  Ni  Ni4  1  0.33333333  0.33333333  0.10937500  1.0
  Ni  Ni5  1  0.33333333  0.66666667  0.10937500  1.0
  Ni  Ni6  1  0.66666667  0.00000000  0.10937500  1.0
  Ni  Ni7  1  0.66666667  0.33333333  0.10937500  1.0
  Ni  Ni8  1  0.66666667  0.66666667  0.10937500  1.0
  Ag  Ag9  1  0.25000000  0.16666667  0.01562500  1.0
  Ag  Ag10  1  0.25000000  0.50000000  0.01562500  1.0
  Ag  Ag11  1  0.25000000  0.83333333  0.01562500  1.0
  Ag  Ag12  1  0.58333333  0.16666667  0.01562500  1.0
  Ag  Ag13  1  0.58333333  0.50000000  0.01562500  1.0
  Ag  Ag14  1  0.58333333  0.83333333  0.01562500  1.0
  Ag  Ag15  1  0.91666667  0.16666667  0.01562500  1.0
  Ag  Ag16  1  0.91666667  0.50000000  0.01562500  1.0
  Ag  Ag17  1  0.91666667  0.83333333  0.01562500  1.0
  Ag  Ag18  1  0.08333333  0.16666667  0.07812500  1.0
  Ag  Ag19  1  0.08333333  0.50000000  0.07812500  1.0
  Ag  Ag20  1  0.08333333  0.83333333  0.07812500  1.0
  Ag  Ag21  1  0.41666667  0.16666667  0.07812500  1.0
  Ag  Ag22  1  0.41666667  0.50000000  0.07812500  1.0
  Ag  Ag23  1  0.41666667  0.83333333  0.07812500  1.0
  Ag  Ag24  1  0.75000000  0.16666667  0.07812500  1.0
  Ag  Ag25  1  0.75000000  0.50000000  0.07812500  1.0
  Ag  Ag26  1  0.75000000  0.83333333  0.07812500  1.0
  Ag  Ag27  1  0.16666667  0.00000000  0.04687500  1.0
  Ag  Ag28  1  0.16666667  0.33333333  0.04687500  1.0
  Ag  Ag29  1  0.16666667  0.66666667  0.04687500  1.0
  Ag  Ag30  1  0.50000000  0.00000000  0.04687500  1.0
  Ag  Ag31  1  0.50000000  0.33333333  0.04687500  1.0
  Ag  Ag32  1  0.50000000  0.66666667  0.04687500  1.0
  Ag  Ag33  1  0.83333333  0.00000000  0.04687500  1.0
  Ag  Ag34  1  0.83333333  0.33333333  0.04687500  1.0
  Ag  Ag35  1  0.83333333  0.66666667  0.04687500  1.0
  Ni  Ni36  1  0.00000000  0.00000000  0.23437500  1.0
  Ni  Ni37  1  0.00000000  0.33333333  0.23437500  1.0
  Ni  Ni38  1  0.00000000  0.66666667  0.23437500  1.0
  Ni  Ni39  1  0.33333333  0.00000000  0.23437500  1.0
  Ni  Ni40  1  0.33333333  0.33333333  0.23437500  1.0
  Ni  Ni41  1  0.33333333  0.66666667  0.23437500  1.0
  Ni  Ni42  1  0.66666667  0.00000000  0.23437500  1.0
  Ni  Ni43  1  0.66666667  0.33333333  0.23437500  1.0
  Ni  Ni44  1  0.66666667  0.66666667  0.23437500  1.0
  Ag  Ag45  1  0.25000000  0.16666667  0.14062500  1.0
  Ag  Ag46  1  0.25000000  0.50000000  0.14062500  1.0
  Ag  Ag47  1  0.25000000  0.83333333  0.14062500  1.0
  Ag  Ag48  1  0.58333333  0.16666667  0.14062500  1.0
  Ag  Ag49  1  0.58333333  0.50000000  0.14062500  1.0
  Ag  Ag50  1  0.58333333  0.83333333  0.14062500  1.0
  Ag  Ag51  1  0.91666667  0.16666667  0.14062500  1.0
  Ag  Ag52  1  0.91666667  0.50000000  0.14062500  1.0
  Ag  Ag53  1  0.91666667  0.83333333  0.14062500  1.0
  Ag  Ag54  1  0.08333333  0.16666667  0.20312500  1.0
  Ag  Ag55  1  0.08333333  0.50000000  0.20312500  1.0
  Ag  Ag56  1  0.08333333  0.83333333  0.20312500  1.0
  Ag  Ag57  1  0.41666667  0.16666667  0.20312500  1.0
  Ag  Ag58  1  0.41666667  0.50000000  0.20312500  1.0
  Ag  Ag59  1  0.41666667  0.83333333  0.20312500  1.0
  Ag  Ag60  1  0.75000000  0.16666667  0.20312500  1.0
  Ag  Ag61  1  0.75000000  0.50000000  0.20312500  1.0
  Ag  Ag62  1  0.75000000  0.83333333  0.20312500  1.0
  Ag  Ag63  1  0.16666667  0.00000000  0.17187500  1.0
  Ag  Ag64  1  0.16666667  0.33333333  0.17187500  1.0
  Ag  Ag65  1  0.16666667  0.66666667  0.17187500  1.0
  Ag  Ag66  1  0.50000000  0.00000000  0.17187500  1.0
  Ag  Ag67  1  0.50000000  0.33333333  0.17187500  1.0
  Ag  Ag68  1  0.50000000  0.66666667  0.17187500  1.0
  Ag  Ag69  1  0.83333333  0.00000000  0.17187500  1.0
  Ag  Ag70  1  0.83333333  0.33333333  0.17187500  1.0
  Ag  Ag71  1  0.83333333  0.66666667  0.17187500  1.0
  Ni  Ni72  1  0.00000000  0.00000000  0.35937500  1.0
  Ni  Ni73  1  0.00000000  0.33333333  0.35937500  1.0
  Ni  Ni74  1  0.00000000  0.66666667  0.35937500  1.0
  Ni  Ni75  1  0.33333333  0.00000000  0.35937500  1.0
  Ni  Ni76  1  0.33333333  0.33333333  0.35937500  1.0
  Ni  Ni77  1  0.33333333  0.66666667  0.35937500  1.0
  Ni  Ni78  1  0.66666667  0.00000000  0.35937500  1.0
  Ni  Ni79  1  0.66666667  0.33333333  0.35937500  1.0
  Ni  Ni80  1  0.66666667  0.66666667  0.35937500  1.0
  Ag  Ag81  1  0.25000000  0.16666667  0.26562500  1.0
  Ag  Ag82  1  0.25000000  0.50000000  0.26562500  1.0
  Ag  Ag83  1  0.25000000  0.83333333  0.26562500  1.0
  Ag  Ag84  1  0.58333333  0.16666667  0.26562500  1.0
  Ag  Ag85  1  0.58333333  0.50000000  0.26562500  1.0
  Ag  Ag86  1  0.58333333  0.83333333  0.26562500  1.0
  Ag  Ag87  1  0.91666667  0.16666667  0.26562500  1.0
  Ag  Ag88  1  0.91666667  0.50000000  0.26562500  1.0
  Ag  Ag89  1  0.91666667  0.83333333  0.26562500  1.0
  Ag  Ag90  1  0.08333333  0.16666667  0.32812500  1.0
  Ag  Ag91  1  0.08333333  0.50000000  0.32812500  1.0
  Ag  Ag92  1  0.08333333  0.83333333  0.32812500  1.0
  Ag  Ag93  1  0.41666667  0.16666667  0.32812500  1.0
  Ag  Ag94  1  0.41666667  0.50000000  0.32812500  1.0
  Ag  Ag95  1  0.41666667  0.83333333  0.32812500  1.0
  Ag  Ag96  1  0.75000000  0.16666667  0.32812500  1.0
  Ag  Ag97  1  0.75000000  0.50000000  0.32812500  1.0
  Ag  Ag98  1  0.75000000  0.83333333  0.32812500  1.0
  Ag  Ag99  1  0.16666667  0.00000000  0.29687500  1.0
  Ag  Ag100  1  0.16666667  0.33333333  0.29687500  1.0
  Ag  Ag101  1  0.16666667  0.66666667  0.29687500  1.0
  Ag  Ag102  1  0.50000000  0.00000000  0.29687500  1.0
  Ag  Ag103  1  0.50000000  0.33333333  0.29687500  1.0
  Ag  Ag104  1  0.50000000  0.66666667  0.29687500  1.0
  Ag  Ag105  1  0.83333333  0.00000000  0.29687500  1.0
  Ag  Ag106  1  0.83333333  0.33333333  0.29687500  1.0
  Ag  Ag107  1  0.83333333  0.66666667  0.29687500  1.0
