# generated using pymatgen
data_NiAg3
_symmetry_space_group_name_H-M   'P 1'
_cell_length_a   17.00887379
_cell_length_b   20.83153095
_cell_length_c   29.46023359
_cell_angle_alpha   90.00000000
_cell_angle_beta   90.00000000
_cell_angle_gamma   90.00000000
_symmetry_Int_Tables_number   1
_chemical_formula_structural   NiAg3
_chemical_formula_sum   'Ni72 Ag216'
_cell_volume   10438.37591479
_cell_formula_units_Z   72
loop_
 _symmetry_equiv_pos_site_id
 _symmetry_equiv_pos_as_xyz
  1  'x, y, z'
loop_
 _atom_site_type_symbol
 _atom_site_label
 _atom_site_symmetry_multiplicity
 _atom_site_fract_x
 _atom_site_fract_y
 _atom_site_fract_z
 _atom_site_occupancy
  Ag  Ag0  1  0.00000000  0.29166667  0.95833333  1.0
  Ag  Ag1  1  0.00000000  0.62500000  0.95833333  1.0
  Ag  Ag2  1  0.00000000  0.95833333  0.95833333  1.0
  Ag  Ag3  1  0.33333333  0.29166667  0.95833333  1.0
  Ag  Ag4  1  0.33333333  0.62500000  0.95833333  1.0
  Ag  Ag5  1  0.33333333  0.95833333  0.95833333  1.0
  Ag  Ag6  1  0.66666667  0.29166667  0.95833333  1.0
  Ag  Ag7  1  0.66666667  0.62500000  0.95833333  1.0
  Ag  Ag8  1  0.66666667  0.95833333  0.95833333  1.0
  Ag  Ag9  1  0.16666667  0.06944444  0.90277778  1.0
  Ag  Ag10  1  0.16666667  0.40277778  0.90277778  1.0
  Ag  Ag11  1  0.16666667  0.73611111  0.90277778  1.0
  Ag  Ag12  1  0.50000000  0.06944444  0.90277778  1.0
  Ag  Ag13  1  0.50000000  0.40277778  0.90277778  1.0
  Ag  Ag14  1  0.50000000  0.73611111  0.90277778  1.0
  Ag  Ag15  1  0.83333333  0.06944444  0.90277778  1.0
  Ag  Ag16  1  0.83333333  0.40277778  0.90277778  1.0
  Ag  Ag17  1  0.83333333  0.73611111  0.90277778  1.0
  Ag  Ag18  1  0.08333333  0.06944444  0.98611111  1.0
  Ag  Ag19  1  0.08333333  0.40277778  0.98611111  1.0
  Ag  Ag20  1  0.08333333  0.73611111  0.98611111  1.0
  Ag  Ag21  1  0.41666667  0.06944444  0.98611111  1.0
  Ag  Ag22  1  0.41666667  0.40277778  0.98611111  1.0
  Ag  Ag23  1  0.41666667  0.73611111  0.98611111  1.0
  Ag  Ag24  1  0.75000000  0.06944444  0.98611111  1.0
  Ag  Ag25  1  0.75000000  0.40277778  0.98611111  1.0
  Ag  Ag26  1  0.75000000  0.73611111  0.98611111  1.0
  Ag  Ag27  1  0.25000000  0.18055556  0.93055556  1.0
  Ag  Ag28  1  0.25000000  0.51388889  0.93055556  1.0
  Ag  Ag29  1  0.25000000  0.84722222  0.93055556  1.0
  Ag  Ag30  1  0.58333333  0.18055556  0.93055556  1.0
  Ag  Ag31  1  0.58333333  0.51388889  0.93055556  1.0
  Ag  Ag32  1  0.58333333  0.84722222  0.93055556  1.0
  Ag  Ag33  1  0.91666667  0.18055556  0.93055556  1.0
  Ag  Ag34  1  0.91666667  0.51388889  0.93055556  1.0
  Ag  Ag35  1  0.91666667  0.84722222  0.93055556  1.0
  Ag  Ag36  1  0.25000000  0.06944444  0.98611111  1.0
  Ag  Ag37  1  0.25000000  0.40277778  0.98611111  1.0
  Ag  Ag38  1  0.25000000  0.73611111  0.98611111  1.0
  Ag  Ag39  1  0.58333333  0.06944444  0.98611111  1.0
  Ag  Ag40  1  0.58333333  0.40277778  0.98611111  1.0
  Ag  Ag41  1  0.58333333  0.73611111  0.98611111  1.0
  Ag  Ag42  1  0.91666667  0.06944444  0.98611111  1.0
  Ag  Ag43  1  0.91666667  0.40277778  0.98611111  1.0
  Ag  Ag44  1  0.91666667  0.73611111  0.98611111  1.0
  Ag  Ag45  1  0.08333333  0.18055556  0.93055556  1.0
  Ag  Ag46  1  0.08333333  0.51388889  0.93055556  1.0
  Ag  Ag47  1  0.08333333  0.84722222  0.93055556  1.0
  Ag  Ag48  1  0.41666667  0.18055556  0.93055556  1.0
  Ag  Ag49  1  0.41666667  0.51388889  0.93055556  1.0
  Ag  Ag50  1  0.41666667  0.84722222  0.93055556  1.0
  Ag  Ag51  1  0.75000000  0.18055556  0.93055556  1.0
  Ag  Ag52  1  0.75000000  0.51388889  0.93055556  1.0
  Ag  Ag53  1  0.75000000  0.84722222  0.93055556  1.0
  Ag  Ag54  1  0.00000000  0.18055556  0.84722222  1.0
  Ag  Ag55  1  0.00000000  0.51388889  0.84722222  1.0
  Ag  Ag56  1  0.00000000  0.84722222  0.84722222  1.0
  Ag  Ag57  1  0.33333333  0.18055556  0.84722222  1.0
  Ag  Ag58  1  0.33333333  0.51388889  0.84722222  1.0
  Ag  Ag59  1  0.33333333  0.84722222  0.84722222  1.0
  Ag  Ag60  1  0.66666667  0.18055556  0.84722222  1.0
  Ag  Ag61  1  0.66666667  0.51388889  0.84722222  1.0
  Ag  Ag62  1  0.66666667  0.84722222  0.84722222  1.0
  Ag  Ag63  1  0.16666667  0.29166667  0.79166667  1.0
  Ag  Ag64  1  0.16666667  0.62500000  0.79166667  1.0
  Ag  Ag65  1  0.16666667  0.95833333  0.79166667  1.0
  Ag  Ag66  1  0.50000000  0.29166667  0.79166667  1.0
  Ag  Ag67  1  0.50000000  0.62500000  0.79166667  1.0
  Ag  Ag68  1  0.50000000  0.95833333  0.79166667  1.0
  Ag  Ag69  1  0.83333333  0.29166667  0.79166667  1.0
  Ag  Ag70  1  0.83333333  0.62500000  0.79166667  1.0
  Ag  Ag71  1  0.83333333  0.95833333  0.79166667  1.0
  Ag  Ag72  1  0.08333333  0.29166667  0.87500000  1.0
  Ag  Ag73  1  0.08333333  0.62500000  0.87500000  1.0
  Ag  Ag74  1  0.08333333  0.95833333  0.87500000  1.0
  Ag  Ag75  1  0.41666667  0.29166667  0.87500000  1.0
  Ag  Ag76  1  0.41666667  0.62500000  0.87500000  1.0
  Ag  Ag77  1  0.41666667  0.95833333  0.87500000  1.0
  Ag  Ag78  1  0.75000000  0.29166667  0.87500000  1.0
  Ag  Ag79  1  0.75000000  0.62500000  0.87500000  1.0
  Ag  Ag80  1  0.75000000  0.95833333  0.87500000  1.0
  Ag  Ag81  1  0.25000000  0.06944444  0.81944444  1.0
  Ag  Ag82  1  0.25000000  0.40277778  0.81944444  1.0
  Ag  Ag83  1  0.25000000  0.73611111  0.81944444  1.0
  Ag  Ag84  1  0.58333333  0.06944444  0.81944444  1.0
  Ag  Ag85  1  0.58333333  0.40277778  0.81944444  1.0
  Ag  Ag86  1  0.58333333  0.73611111  0.81944444  1.0
  Ag  Ag87  1  0.91666667  0.06944444  0.81944444  1.0
  Ag  Ag88  1  0.91666667  0.40277778  0.81944444  1.0
  Ag  Ag89  1  0.91666667  0.73611111  0.81944444  1.0
  Ag  Ag90  1  0.25000000  0.29166667  0.87500000  1.0
  Ag  Ag91  1  0.25000000  0.62500000  0.87500000  1.0
  Ag  Ag92  1  0.25000000  0.95833333  0.87500000  1.0
  Ag  Ag93  1  0.58333333  0.29166667  0.87500000  1.0
  Ag  Ag94  1  0.58333333  0.62500000  0.87500000  1.0
  Ag  Ag95  1  0.58333333  0.95833333  0.87500000  1.0
  Ag  Ag96  1  0.91666667  0.29166667  0.87500000  1.0
  Ag  Ag97  1  0.91666667  0.62500000  0.87500000  1.0
  Ag  Ag98  1  0.91666667  0.95833333  0.87500000  1.0
  Ag  Ag99  1  0.08333333  0.06944444  0.81944444  1.0
  Ag  Ag100  1  0.08333333  0.40277778  0.81944444  1.0
  Ag  Ag101  1  0.08333333  0.73611111  0.81944444  1.0
  Ag  Ag102  1  0.41666667  0.06944444  0.81944444  1.0
  Ag  Ag103  1  0.41666667  0.40277778  0.81944444  1.0
  Ag  Ag104  1  0.41666667  0.73611111  0.81944444  1.0
  Ag  Ag105  1  0.75000000  0.06944444  0.81944444  1.0
  Ag  Ag106  1  0.75000000  0.40277778  0.81944444  1.0
  Ag  Ag107  1  0.75000000  0.73611111  0.81944444  1.0
  Ag  Ag108  1  0.00000000  0.06944444  0.73611111  1.0
  Ag  Ag109  1  0.00000000  0.40277778  0.73611111  1.0
  Ag  Ag110  1  0.00000000  0.73611111  0.73611111  1.0
  Ag  Ag111  1  0.33333333  0.06944444  0.73611111  1.0
  Ag  Ag112  1  0.33333333  0.40277778  0.73611111  1.0
  Ag  Ag113  1  0.33333333  0.73611111  0.73611111  1.0
  Ag  Ag114  1  0.66666667  0.06944444  0.73611111  1.0
  Ag  Ag115  1  0.66666667  0.40277778  0.73611111  1.0
  Ag  Ag116  1  0.66666667  0.73611111  0.73611111  1.0
  Ag  Ag117  1  0.16666667  0.18055556  0.68055556  1.0
  Ag  Ag118  1  0.16666667  0.51388889  0.68055556  1.0
  Ag  Ag119  1  0.16666667  0.84722222  0.68055556  1.0
  Ag  Ag120  1  0.50000000  0.18055556  0.68055556  1.0
  Ag  Ag121  1  0.50000000  0.51388889  0.68055556  1.0
  Ag  Ag122  1  0.50000000  0.84722222  0.68055556  1.0
  Ag  Ag123  1  0.83333333  0.18055556  0.68055556  1.0
  Ag  Ag124  1  0.83333333  0.51388889  0.68055556  1.0
  Ag  Ag125  1  0.83333333  0.84722222  0.68055556  1.0
  Ag  Ag126  1  0.08333333  0.18055556  0.76388889  1.0
  Ag  Ag127  1  0.08333333  0.51388889  0.76388889  1.0
  Ag  Ag128  1  0.08333333  0.84722222  0.76388889  1.0
  Ag  Ag129  1  0.41666667  0.18055556  0.76388889  1.0
  Ag  Ag130  1  0.41666667  0.51388889  0.76388889  1.0
  Ag  Ag131  1  0.41666667  0.84722222  0.76388889  1.0
  Ag  Ag132  1  0.75000000  0.18055556  0.76388889  1.0
  Ag  Ag133  1  0.75000000  0.51388889  0.76388889  1.0
  Ag  Ag134  1  0.75000000  0.84722222  0.76388889  1.0
  Ag  Ag135  1  0.25000000  0.29166667  0.70833333  1.0
  Ag  Ag136  1  0.25000000  0.62500000  0.70833333  1.0
  Ag  Ag137  1  0.25000000  0.95833333  0.70833333  1.0
  Ag  Ag138  1  0.58333333  0.29166667  0.70833333  1.0
  Ag  Ag139  1  0.58333333  0.62500000  0.70833333  1.0
  Ag  Ag140  1  0.58333333  0.95833333  0.70833333  1.0
  Ag  Ag141  1  0.91666667  0.29166667  0.70833333  1.0
  Ag  Ag142  1  0.91666667  0.62500000  0.70833333  1.0
  Ag  Ag143  1  0.91666667  0.95833333  0.70833333  1.0
  Ag  Ag144  1  0.25000000  0.18055556  0.76388889  1.0
  Ag  Ag145  1  0.25000000  0.51388889  0.76388889  1.0
  Ag  Ag146  1  0.25000000  0.84722222  0.76388889  1.0
  Ag  Ag147  1  0.58333333  0.18055556  0.76388889  1.0
  Ag  Ag148  1  0.58333333  0.51388889  0.76388889  1.0
  Ag  Ag149  1  0.58333333  0.84722222  0.76388889  1.0
  Ag  Ag150  1  0.91666667  0.18055556  0.76388889  1.0
  Ag  Ag151  1  0.91666667  0.51388889  0.76388889  1.0
  Ag  Ag152  1  0.91666667  0.84722222  0.76388889  1.0
  Ag  Ag153  1  0.08333333  0.29166667  0.70833333  1.0
  Ag  Ag154  1  0.08333333  0.62500000  0.70833333  1.0
  Ag  Ag155  1  0.08333333  0.95833333  0.70833333  1.0
  Ag  Ag156  1  0.41666667  0.29166667  0.70833333  1.0
  Ag  Ag157  1  0.41666667  0.62500000  0.70833333  1.0
  Ag  Ag158  1  0.41666667  0.95833333  0.70833333  1.0
  Ag  Ag159  1  0.75000000  0.29166667  0.70833333  1.0
  Ag  Ag160  1  0.75000000  0.62500000  0.70833333  1.0
  Ag  Ag161  1  0.75000000  0.95833333  0.70833333  1.0
  Ag  Ag162  1  0.00000000  0.29166667  0.62500000  1.0
  Ag  Ag163  1  0.00000000  0.62500000  0.62500000  1.0
  Ag  Ag164  1  0.00000000  0.95833333  0.62500000  1.0
  Ag  Ag165  1  0.33333333  0.29166667  0.62500000  1.0
  Ag  Ag166  1  0.33333333  0.62500000  0.62500000  1.0
  Ag  Ag167  1  0.33333333  0.95833333  0.62500000  1.0
  Ag  Ag168  1  0.66666667  0.29166667  0.62500000  1.0
  Ag  Ag169  1  0.66666667  0.62500000  0.62500000  1.0
  Ag  Ag170  1  0.66666667  0.95833333  0.62500000  1.0
  Ag  Ag171  1  0.16666667  0.06944444  0.56944444  1.0
  Ag  Ag172  1  0.16666667  0.40277778  0.56944444  1.0
  Ag  Ag173  1  0.16666667  0.73611111  0.56944444  1.0
  Ag  Ag174  1  0.50000000  0.06944444  0.56944444  1.0
  Ag  Ag175  1  0.50000000  0.40277778  0.56944444  1.0
  Ag  Ag176  1  0.50000000  0.73611111  0.56944444  1.0
  Ag  Ag177  1  0.83333333  0.06944444  0.56944444  1.0
  Ag  Ag178  1  0.83333333  0.40277778  0.56944444  1.0
  Ag  Ag179  1  0.83333333  0.73611111  0.56944444  1.0
  Ag  Ag180  1  0.08333333  0.06944444  0.65277778  1.0
  Ag  Ag181  1  0.08333333  0.40277778  0.65277778  1.0
  Ag  Ag182  1  0.08333333  0.73611111  0.65277778  1.0
  Ag  Ag183  1  0.41666667  0.06944444  0.65277778  1.0
  Ag  Ag184  1  0.41666667  0.40277778  0.65277778  1.0
  Ag  Ag185  1  0.41666667  0.73611111  0.65277778  1.0
  Ag  Ag186  1  0.75000000  0.06944444  0.65277778  1.0
  Ag  Ag187  1  0.75000000  0.40277778  0.65277778  1.0
  Ag  Ag188  1  0.75000000  0.73611111  0.65277778  1.0
  Ag  Ag189  1  0.25000000  0.18055556  0.59722222  1.0
  Ag  Ag190  1  0.25000000  0.51388889  0.59722222  1.0
  Ag  Ag191  1  0.25000000  0.84722222  0.59722222  1.0
  Ag  Ag192  1  0.58333333  0.18055556  0.59722222  1.0
  Ag  Ag193  1  0.58333333  0.51388889  0.59722222  1.0
  Ag  Ag194  1  0.58333333  0.84722222  0.59722222  1.0
  Ag  Ag195  1  0.91666667  0.18055556  0.59722222  1.0
  Ag  Ag196  1  0.91666667  0.51388889  0.59722222  1.0
  Ag  Ag197  1  0.91666667  0.84722222  0.59722222  1.0
  Ag  Ag198  1  0.25000000  0.06944444  0.65277778  1.0
  Ag  Ag199  1  0.25000000  0.40277778  0.65277778  1.0
  Ag  Ag200  1  0.25000000  0.73611111  0.65277778  1.0
  Ag  Ag201  1  0.58333333  0.06944444  0.65277778  1.0
  Ag  Ag202  1  0.58333333  0.40277778  0.65277778  1.0
  Ag  Ag203  1  0.58333333  0.73611111  0.65277778  1.0
  Ag  Ag204  1  0.91666667  0.06944444  0.65277778  1.0
  Ag  Ag205  1  0.91666667  0.40277778  0.65277778  1.0
  Ag  Ag206  1  0.91666667  0.73611111  0.65277778  1.0
  Ag  Ag207  1  0.08333333  0.18055556  0.59722222  1.0
  Ag  Ag208  1  0.08333333  0.51388889  0.59722222  1.0
  Ag  Ag209  1  0.08333333  0.84722222  0.59722222  1.0
  Ag  Ag210  1  0.41666667  0.18055556  0.59722222  1.0
  Ag  Ag211  1  0.41666667  0.51388889  0.59722222  1.0
  Ag  Ag212  1  0.41666667  0.84722222  0.59722222  1.0
  Ag  Ag213  1  0.75000000  0.18055556  0.59722222  1.0
  Ag  Ag214  1  0.75000000  0.51388889  0.59722222  1.0
  Ag  Ag215  1  0.75000000  0.84722222  0.59722222  1.0
  Ni  Ni216  1  0.33333333  0.06944444  0.90277778  1.0
  Ni  Ni217  1  0.33333333  0.40277778  0.90277778  1.0
  Ni  Ni218  1  0.33333333  0.73611111  0.90277778  1.0
  Ni  Ni219  1  0.66666667  0.06944444  0.90277778  1.0
  Ni  Ni220  1  0.66666667  0.40277778  0.90277778  1.0
  Ni  Ni221  1  0.66666667  0.73611111  0.90277778  1.0
  Ni  Ni222  1  1.00000000  0.06944444  0.90277778  1.0
  Ni  Ni223  1  1.00000000  0.40277778  0.90277778  1.0
  Ni  Ni224  1  1.00000000  0.73611111  0.90277778  1.0
  Ni  Ni225  1  0.16666667  0.29166667  0.95833333  1.0
  Ni  Ni226  1  0.16666667  0.62500000  0.95833333  1.0
  Ni  Ni227  1  0.16666667  0.95833333  0.95833333  1.0
  Ni  Ni228  1  0.50000000  0.29166667  0.95833333  1.0
  Ni  Ni229  1  0.50000000  0.62500000  0.95833333  1.0
  Ni  Ni230  1  0.50000000  0.95833333  0.95833333  1.0
  Ni  Ni231  1  0.83333333  0.29166667  0.95833333  1.0
  Ni  Ni232  1  0.83333333  0.62500000  0.95833333  1.0
  Ni  Ni233  1  0.83333333  0.95833333  0.95833333  1.0
  Ni  Ni234  1  0.00000000  0.29166667  0.79166667  1.0
  Ni  Ni235  1  0.00000000  0.62500000  0.79166667  1.0
  Ni  Ni236  1  0.00000000  0.95833333  0.79166667  1.0
  Ni  Ni237  1  0.33333333  0.29166667  0.79166667  1.0
  Ni  Ni238  1  0.33333333  0.62500000  0.79166667  1.0
  Ni  Ni239  1  0.33333333  0.95833333  0.79166667  1.0
  Ni  Ni240  1  0.66666667  0.29166667  0.79166667  1.0
  Ni  Ni241  1  0.66666667  0.62500000  0.79166667  1.0
  Ni  Ni242  1  0.66666667  0.95833333  0.79166667  1.0
  Ni  Ni243  1  0.16666667  0.18055556  0.84722222  1.0
  Ni  Ni244  1  0.16666667  0.51388889  0.84722222  1.0
  Ni  Ni245  1  0.16666667  0.84722222  0.84722222  1.0
  Ni  Ni246  1  0.50000000  0.18055556  0.84722222  1.0
  Ni  Ni247  1  0.50000000  0.51388889  0.84722222  1.0
  Ni  Ni248  1  0.50000000  0.84722222  0.84722222  1.0
  Ni  Ni249  1  0.83333333  0.18055556  0.84722222  1.0
  Ni  Ni250  1  0.83333333  0.51388889  0.84722222  1.0
  Ni  Ni251  1  0.83333333  0.84722222  0.84722222  1.0
  Ni  Ni252  1  0.00000000  0.18055556  0.68055556  1.0
  Ni  Ni253  1  0.00000000  0.51388889  0.68055556  1.0
  Ni  Ni254  1  0.00000000  0.84722222  0.68055556  1.0
  Ni  Ni255  1  0.33333333  0.18055556  0.68055556  1.0
  Ni  Ni256  1  0.33333333  0.51388889  0.68055556  1.0
  Ni  Ni257  1  0.33333333  0.84722222  0.68055556  1.0
  Ni  Ni258  1  0.66666667  0.18055556  0.68055556  1.0
  Ni  Ni259  1  0.66666667  0.51388889  0.68055556  1.0
  Ni  Ni260  1  0.66666667  0.84722222  0.68055556  1.0
  Ni  Ni261  1  0.16666667  0.06944444  0.73611111  1.0
  Ni  Ni262  1  0.16666667  0.40277778  0.73611111  1.0
  Ni  Ni263  1  0.16666667  0.73611111  0.73611111  1.0
  Ni  Ni264  1  0.50000000  0.06944444  0.73611111  1.0
  Ni  Ni265  1  0.50000000  0.40277778  0.73611111  1.0
  Ni  Ni266  1  0.50000000  0.73611111  0.73611111  1.0
  Ni  Ni267  1  0.83333333  0.06944444  0.73611111  1.0
  Ni  Ni268  1  0.83333333  0.40277778  0.73611111  1.0
  Ni  Ni269  1  0.83333333  0.73611111  0.73611111  1.0
  Ni  Ni270  1  0.00000000  0.06944444  0.56944444  1.0
  Ni  Ni271  1  0.00000000  0.40277778  0.56944444  1.0
  Ni  Ni272  1  0.00000000  0.73611111  0.56944444  1.0
  Ni  Ni273  1  0.33333333  0.06944444  0.56944444  1.0
  Ni  Ni274  1  0.33333333  0.40277778  0.56944444  1.0
  Ni  Ni275  1  0.33333333  0.73611111  0.56944444  1.0
  Ni  Ni276  1  0.66666667  0.06944444  0.56944444  1.0
  Ni  Ni277  1  0.66666667  0.40277778  0.56944444  1.0
  Ni  Ni278  1  0.66666667  0.73611111  0.56944444  1.0
  Ni  Ni279  1  0.16666667  0.29166667  0.62500000  1.0
  Ni  Ni280  1  0.16666667  0.62500000  0.62500000  1.0
  Ni  Ni281  1  0.16666667  0.95833333  0.62500000  1.0
  Ni  Ni282  1  0.50000000  0.29166667  0.62500000  1.0
  Ni  Ni283  1  0.50000000  0.62500000  0.62500000  1.0
  Ni  Ni284  1  0.50000000  0.95833333  0.62500000  1.0
  Ni  Ni285  1  0.83333333  0.29166667  0.62500000  1.0
  Ni  Ni286  1  0.83333333  0.62500000  0.62500000  1.0
  Ni  Ni287  1  0.83333333  0.95833333  0.62500000  1.0
