# generated using pymatgen
data_NiAg3
_symmetry_space_group_name_H-M   'P 1'
_cell_length_a   14.70243612
_cell_length_b   40.67239564
_cell_length_c   58.80974448
_cell_angle_alpha   32.75847251
_cell_angle_beta   131.54456456
_cell_angle_gamma   118.40609400
_symmetry_Int_Tables_number   1
_chemical_formula_structural   NiAg3
_chemical_formula_sum   'Ni90 Ag270'
_cell_volume   13946.97215648
_cell_formula_units_Z   90
loop_
 _symmetry_equiv_pos_site_id
 _symmetry_equiv_pos_as_xyz
  1  'x, y, z'
loop_
 _atom_site_type_symbol
 _atom_site_label
 _atom_site_symmetry_multiplicity
 _atom_site_fract_x
 _atom_site_fract_y
 _atom_site_fract_z
 _atom_site_occupancy
  Ni  Ni0  1  0.00000000  0.16666667  0.03645833  1.0
  Ni  Ni1  1  0.00000000  0.50000000  0.03645833  1.0
  Ni  Ni2  1  0.00000000  0.83333333  0.03645833  1.0
  Ni  Ni3  1  0.33333333  0.16666667  0.03645833  1.0
  Ni  Ni4  1  0.33333333  0.50000000  0.03645833  1.0
  Ni  Ni5  1  0.33333333  0.83333333  0.03645833  1.0
  Ni  Ni6  1  0.66666667  0.16666667  0.03645833  1.0
  Ni  Ni7  1  0.66666667  0.50000000  0.03645833  1.0
  Ni  Ni8  1  0.66666667  0.83333333  0.03645833  1.0
  Ni  Ni9  1  0.00000000  0.00000000  0.07812500  1.0
  Ni  Ni10  1  0.00000000  0.33333333  0.07812500  1.0
  Ni  Ni11  1  0.00000000  0.66666667  0.07812500  1.0
  Ni  Ni12  1  0.33333333  0.00000000  0.07812500  1.0
  Ni  Ni13  1  0.33333333  0.33333333  0.07812500  1.0
  Ni  Ni14  1  0.33333333  0.66666667  0.07812500  1.0
  Ni  Ni15  1  0.66666667  0.00000000  0.07812500  1.0
  Ni  Ni16  1  0.66666667  0.33333333  0.07812500  1.0
  Ni  Ni17  1  0.66666667  0.66666667  0.07812500  1.0
  Ag  Ag18  1  0.25000000  0.12500000  0.00520833  1.0
  Ag  Ag19  1  0.25000000  0.45833333  0.00520833  1.0
  Ag  Ag20  1  0.25000000  0.79166667  0.00520833  1.0
  Ag  Ag21  1  0.58333333  0.12500000  0.00520833  1.0
  Ag  Ag22  1  0.58333333  0.45833333  0.00520833  1.0
  Ag  Ag23  1  0.58333333  0.79166667  0.00520833  1.0
  Ag  Ag24  1  0.91666667  0.12500000  0.00520833  1.0
  Ag  Ag25  1  0.91666667  0.45833333  0.00520833  1.0
  Ag  Ag26  1  0.91666667  0.79166667  0.00520833  1.0
  Ag  Ag27  1  0.25000000  0.29166667  0.04687500  1.0
  Ag  Ag28  1  0.25000000  0.62500000  0.04687500  1.0
  Ag  Ag29  1  0.25000000  0.95833333  0.04687500  1.0
  Ag  Ag30  1  0.58333333  0.29166667  0.04687500  1.0
  Ag  Ag31  1  0.58333333  0.62500000  0.04687500  1.0
  Ag  Ag32  1  0.58333333  0.95833333  0.04687500  1.0
  Ag  Ag33  1  0.91666667  0.29166667  0.04687500  1.0
  Ag  Ag34  1  0.91666667  0.62500000  0.04687500  1.0
  Ag  Ag35  1  0.91666667  0.95833333  0.04687500  1.0
  Ag  Ag36  1  0.08333333  0.04166667  0.02604167  1.0
  Ag  Ag37  1  0.08333333  0.37500000  0.02604167  1.0
  Ag  Ag38  1  0.08333333  0.70833333  0.02604167  1.0
  Ag  Ag39  1  0.41666667  0.04166667  0.02604167  1.0
  Ag  Ag40  1  0.41666667  0.37500000  0.02604167  1.0
  Ag  Ag41  1  0.41666667  0.70833333  0.02604167  1.0
  Ag  Ag42  1  0.75000000  0.04166667  0.02604167  1.0
  Ag  Ag43  1  0.75000000  0.37500000  0.02604167  1.0
  Ag  Ag44  1  0.75000000  0.70833333  0.02604167  1.0
  Ag  Ag45  1  0.08333333  0.20833333  0.06770833  1.0
  Ag  Ag46  1  0.08333333  0.54166667  0.06770833  1.0
  Ag  Ag47  1  0.08333333  0.87500000  0.06770833  1.0
  Ag  Ag48  1  0.41666667  0.20833333  0.06770833  1.0
  Ag  Ag49  1  0.41666667  0.54166667  0.06770833  1.0
  Ag  Ag50  1  0.41666667  0.87500000  0.06770833  1.0
  Ag  Ag51  1  0.75000000  0.20833333  0.06770833  1.0
  Ag  Ag52  1  0.75000000  0.54166667  0.06770833  1.0
  Ag  Ag53  1  0.75000000  0.87500000  0.06770833  1.0
  Ag  Ag54  1  0.16666667  0.08333333  0.05729167  1.0
  Ag  Ag55  1  0.16666667  0.41666667  0.05729167  1.0
  Ag  Ag56  1  0.16666667  0.75000000  0.05729167  1.0
  Ag  Ag57  1  0.50000000  0.08333333  0.05729167  1.0
  Ag  Ag58  1  0.50000000  0.41666667  0.05729167  1.0
  Ag  Ag59  1  0.50000000  0.75000000  0.05729167  1.0
  Ag  Ag60  1  0.83333333  0.08333333  0.05729167  1.0
  Ag  Ag61  1  0.83333333  0.41666667  0.05729167  1.0
  Ag  Ag62  1  0.83333333  0.75000000  0.05729167  1.0
  Ag  Ag63  1  0.16666667  0.25000000  0.01562500  1.0
  Ag  Ag64  1  0.16666667  0.58333333  0.01562500  1.0
  Ag  Ag65  1  0.16666667  0.91666667  0.01562500  1.0
  Ag  Ag66  1  0.50000000  0.25000000  0.01562500  1.0
  Ag  Ag67  1  0.50000000  0.58333333  0.01562500  1.0
  Ag  Ag68  1  0.50000000  0.91666667  0.01562500  1.0
  Ag  Ag69  1  0.83333333  0.25000000  0.01562500  1.0
  Ag  Ag70  1  0.83333333  0.58333333  0.01562500  1.0
  Ag  Ag71  1  0.83333333  0.91666667  0.01562500  1.0
  Ni  Ni72  1  0.00000000  0.16666667  0.11979167  1.0
  Ni  Ni73  1  0.00000000  0.50000000  0.11979167  1.0
  Ni  Ni74  1  0.00000000  0.83333333  0.11979167  1.0
  Ni  Ni75  1  0.33333333  0.16666667  0.11979167  1.0
  Ni  Ni76  1  0.33333333  0.50000000  0.11979167  1.0
  Ni  Ni77  1  0.33333333  0.83333333  0.11979167  1.0
  Ni  Ni78  1  0.66666667  0.16666667  0.11979167  1.0
  Ni  Ni79  1  0.66666667  0.50000000  0.11979167  1.0
  Ni  Ni80  1  0.66666667  0.83333333  0.11979167  1.0
  Ni  Ni81  1  0.00000000  0.00000000  0.16145833  1.0
  Ni  Ni82  1  0.00000000  0.33333333  0.16145833  1.0
  Ni  Ni83  1  0.00000000  0.66666667  0.16145833  1.0
  Ni  Ni84  1  0.33333333  0.00000000  0.16145833  1.0
  Ni  Ni85  1  0.33333333  0.33333333  0.16145833  1.0
  Ni  Ni86  1  0.33333333  0.66666667  0.16145833  1.0
  Ni  Ni87  1  0.66666667  0.00000000  0.16145833  1.0
  Ni  Ni88  1  0.66666667  0.33333333  0.16145833  1.0
  Ni  Ni89  1  0.66666667  0.66666667  0.16145833  1.0
  Ag  Ag90  1  0.25000000  0.12500000  0.08854167  1.0
  Ag  Ag91  1  0.25000000  0.45833333  0.08854167  1.0
  Ag  Ag92  1  0.25000000  0.79166667  0.08854167  1.0
  Ag  Ag93  1  0.58333333  0.12500000  0.08854167  1.0
  Ag  Ag94  1  0.58333333  0.45833333  0.08854167  1.0
  Ag  Ag95  1  0.58333333  0.79166667  0.08854167  1.0
  Ag  Ag96  1  0.91666667  0.12500000  0.08854167  1.0
  Ag  Ag97  1  0.91666667  0.45833333  0.08854167  1.0
  Ag  Ag98  1  0.91666667  0.79166667  0.08854167  1.0
  Ag  Ag99  1  0.25000000  0.29166667  0.13020833  1.0
  Ag  Ag100  1  0.25000000  0.62500000  0.13020833  1.0
  Ag  Ag101  1  0.25000000  0.95833333  0.13020833  1.0
  Ag  Ag102  1  0.58333333  0.29166667  0.13020833  1.0
  Ag  Ag103  1  0.58333333  0.62500000  0.13020833  1.0
  Ag  Ag104  1  0.58333333  0.95833333  0.13020833  1.0
  Ag  Ag105  1  0.91666667  0.29166667  0.13020833  1.0
  Ag  Ag106  1  0.91666667  0.62500000  0.13020833  1.0
  Ag  Ag107  1  0.91666667  0.95833333  0.13020833  1.0
  Ag  Ag108  1  0.08333333  0.04166667  0.10937500  1.0
  Ag  Ag109  1  0.08333333  0.37500000  0.10937500  1.0
  Ag  Ag110  1  0.08333333  0.70833333  0.10937500  1.0
  Ag  Ag111  1  0.41666667  0.04166667  0.10937500  1.0
  Ag  Ag112  1  0.41666667  0.37500000  0.10937500  1.0
  Ag  Ag113  1  0.41666667  0.70833333  0.10937500  1.0
  Ag  Ag114  1  0.75000000  0.04166667  0.10937500  1.0
  Ag  Ag115  1  0.75000000  0.37500000  0.10937500  1.0
  Ag  Ag116  1  0.75000000  0.70833333  0.10937500  1.0
  Ag  Ag117  1  0.08333333  0.20833333  0.15104167  1.0
  Ag  Ag118  1  0.08333333  0.54166667  0.15104167  1.0
  Ag  Ag119  1  0.08333333  0.87500000  0.15104167  1.0
  Ag  Ag120  1  0.41666667  0.20833333  0.15104167  1.0
  Ag  Ag121  1  0.41666667  0.54166667  0.15104167  1.0
  Ag  Ag122  1  0.41666667  0.87500000  0.15104167  1.0
  Ag  Ag123  1  0.75000000  0.20833333  0.15104167  1.0
  Ag  Ag124  1  0.75000000  0.54166667  0.15104167  1.0
  Ag  Ag125  1  0.75000000  0.87500000  0.15104167  1.0
  Ag  Ag126  1  0.16666667  0.08333333  0.14062500  1.0
  Ag  Ag127  1  0.16666667  0.41666667  0.14062500  1.0
  Ag  Ag128  1  0.16666667  0.75000000  0.14062500  1.0
  Ag  Ag129  1  0.50000000  0.08333333  0.14062500  1.0
  Ag  Ag130  1  0.50000000  0.41666667  0.14062500  1.0
  Ag  Ag131  1  0.50000000  0.75000000  0.14062500  1.0
  Ag  Ag132  1  0.83333333  0.08333333  0.14062500  1.0
  Ag  Ag133  1  0.83333333  0.41666667  0.14062500  1.0
  Ag  Ag134  1  0.83333333  0.75000000  0.14062500  1.0
  Ag  Ag135  1  0.16666667  0.25000000  0.09895833  1.0
  Ag  Ag136  1  0.16666667  0.58333333  0.09895833  1.0
  Ag  Ag137  1  0.16666667  0.91666667  0.09895833  1.0
  Ag  Ag138  1  0.50000000  0.25000000  0.09895833  1.0
  Ag  Ag139  1  0.50000000  0.58333333  0.09895833  1.0
  Ag  Ag140  1  0.50000000  0.91666667  0.09895833  1.0
  Ag  Ag141  1  0.83333333  0.25000000  0.09895833  1.0
  Ag  Ag142  1  0.83333333  0.58333333  0.09895833  1.0
  Ag  Ag143  1  0.83333333  0.91666667  0.09895833  1.0
  Ni  Ni144  1  0.00000000  0.16666667  0.20312500  1.0
  Ni  Ni145  1  0.00000000  0.50000000  0.20312500  1.0
  Ni  Ni146  1  0.00000000  0.83333333  0.20312500  1.0
  Ni  Ni147  1  0.33333333  0.16666667  0.20312500  1.0
  Ni  Ni148  1  0.33333333  0.50000000  0.20312500  1.0
  Ni  Ni149  1  0.33333333  0.83333333  0.20312500  1.0
  Ni  Ni150  1  0.66666667  0.16666667  0.20312500  1.0
  Ni  Ni151  1  0.66666667  0.50000000  0.20312500  1.0
  Ni  Ni152  1  0.66666667  0.83333333  0.20312500  1.0
  Ni  Ni153  1  0.00000000  0.00000000  0.24479167  1.0
  Ni  Ni154  1  0.00000000  0.33333333  0.24479167  1.0
  Ni  Ni155  1  0.00000000  0.66666667  0.24479167  1.0
  Ni  Ni156  1  0.33333333  0.00000000  0.24479167  1.0
  Ni  Ni157  1  0.33333333  0.33333333  0.24479167  1.0
  Ni  Ni158  1  0.33333333  0.66666667  0.24479167  1.0
  Ni  Ni159  1  0.66666667  0.00000000  0.24479167  1.0
  Ni  Ni160  1  0.66666667  0.33333333  0.24479167  1.0
  Ni  Ni161  1  0.66666667  0.66666667  0.24479167  1.0
  Ag  Ag162  1  0.25000000  0.12500000  0.17187500  1.0
  Ag  Ag163  1  0.25000000  0.45833333  0.17187500  1.0
  Ag  Ag164  1  0.25000000  0.79166667  0.17187500  1.0
  Ag  Ag165  1  0.58333333  0.12500000  0.17187500  1.0
  Ag  Ag166  1  0.58333333  0.45833333  0.17187500  1.0
  Ag  Ag167  1  0.58333333  0.79166667  0.17187500  1.0
  Ag  Ag168  1  0.91666667  0.12500000  0.17187500  1.0
  Ag  Ag169  1  0.91666667  0.45833333  0.17187500  1.0
  Ag  Ag170  1  0.91666667  0.79166667  0.17187500  1.0
  Ag  Ag171  1  0.25000000  0.29166667  0.21354167  1.0
  Ag  Ag172  1  0.25000000  0.62500000  0.21354167  1.0
  Ag  Ag173  1  0.25000000  0.95833333  0.21354167  1.0
  Ag  Ag174  1  0.58333333  0.29166667  0.21354167  1.0
  Ag  Ag175  1  0.58333333  0.62500000  0.21354167  1.0
  Ag  Ag176  1  0.58333333  0.95833333  0.21354167  1.0
  Ag  Ag177  1  0.91666667  0.29166667  0.21354167  1.0
  Ag  Ag178  1  0.91666667  0.62500000  0.21354167  1.0
  Ag  Ag179  1  0.91666667  0.95833333  0.21354167  1.0
  Ag  Ag180  1  0.08333333  0.04166667  0.19270833  1.0
  Ag  Ag181  1  0.08333333  0.37500000  0.19270833  1.0
  Ag  Ag182  1  0.08333333  0.70833333  0.19270833  1.0
  Ag  Ag183  1  0.41666667  0.04166667  0.19270833  1.0
  Ag  Ag184  1  0.41666667  0.37500000  0.19270833  1.0
  Ag  Ag185  1  0.41666667  0.70833333  0.19270833  1.0
  Ag  Ag186  1  0.75000000  0.04166667  0.19270833  1.0
  Ag  Ag187  1  0.75000000  0.37500000  0.19270833  1.0
  Ag  Ag188  1  0.75000000  0.70833333  0.19270833  1.0
  Ag  Ag189  1  0.08333333  0.20833333  0.23437500  1.0
  Ag  Ag190  1  0.08333333  0.54166667  0.23437500  1.0
  Ag  Ag191  1  0.08333333  0.87500000  0.23437500  1.0
  Ag  Ag192  1  0.41666667  0.20833333  0.23437500  1.0
  Ag  Ag193  1  0.41666667  0.54166667  0.23437500  1.0
  Ag  Ag194  1  0.41666667  0.87500000  0.23437500  1.0
  Ag  Ag195  1  0.75000000  0.20833333  0.23437500  1.0
  Ag  Ag196  1  0.75000000  0.54166667  0.23437500  1.0
  Ag  Ag197  1  0.75000000  0.87500000  0.23437500  1.0
  Ag  Ag198  1  0.16666667  0.08333333  0.22395833  1.0
  Ag  Ag199  1  0.16666667  0.41666667  0.22395833  1.0
  Ag  Ag200  1  0.16666667  0.75000000  0.22395833  1.0
  Ag  Ag201  1  0.50000000  0.08333333  0.22395833  1.0
  Ag  Ag202  1  0.50000000  0.41666667  0.22395833  1.0
  Ag  Ag203  1  0.50000000  0.75000000  0.22395833  1.0
  Ag  Ag204  1  0.83333333  0.08333333  0.22395833  1.0
  Ag  Ag205  1  0.83333333  0.41666667  0.22395833  1.0
  Ag  Ag206  1  0.83333333  0.75000000  0.22395833  1.0
  Ag  Ag207  1  0.16666667  0.25000000  0.18229167  1.0
  Ag  Ag208  1  0.16666667  0.58333333  0.18229167  1.0
  Ag  Ag209  1  0.16666667  0.91666667  0.18229167  1.0
  Ag  Ag210  1  0.50000000  0.25000000  0.18229167  1.0
  Ag  Ag211  1  0.50000000  0.58333333  0.18229167  1.0
  Ag  Ag212  1  0.50000000  0.91666667  0.18229167  1.0
  Ag  Ag213  1  0.83333333  0.25000000  0.18229167  1.0
  Ag  Ag214  1  0.83333333  0.58333333  0.18229167  1.0
  Ag  Ag215  1  0.83333333  0.91666667  0.18229167  1.0
  Ni  Ni216  1  0.00000000  0.16666667  0.28645833  1.0
  Ni  Ni217  1  0.00000000  0.50000000  0.28645833  1.0
  Ni  Ni218  1  0.00000000  0.83333333  0.28645833  1.0
  Ni  Ni219  1  0.33333333  0.16666667  0.28645833  1.0
  Ni  Ni220  1  0.33333333  0.50000000  0.28645833  1.0
  Ni  Ni221  1  0.33333333  0.83333333  0.28645833  1.0
  Ni  Ni222  1  0.66666667  0.16666667  0.28645833  1.0
  Ni  Ni223  1  0.66666667  0.50000000  0.28645833  1.0
  Ni  Ni224  1  0.66666667  0.83333333  0.28645833  1.0
  Ni  Ni225  1  0.00000000  0.00000000  0.32812500  1.0
  Ni  Ni226  1  0.00000000  0.33333333  0.32812500  1.0
  Ni  Ni227  1  0.00000000  0.66666667  0.32812500  1.0
  Ni  Ni228  1  0.33333333  0.00000000  0.32812500  1.0
  Ni  Ni229  1  0.33333333  0.33333333  0.32812500  1.0
  Ni  Ni230  1  0.33333333  0.66666667  0.32812500  1.0
  Ni  Ni231  1  0.66666667  0.00000000  0.32812500  1.0
  Ni  Ni232  1  0.66666667  0.33333333  0.32812500  1.0
  Ni  Ni233  1  0.66666667  0.66666667  0.32812500  1.0
  Ag  Ag234  1  0.25000000  0.12500000  0.25520833  1.0
  Ag  Ag235  1  0.25000000  0.45833333  0.25520833  1.0
  Ag  Ag236  1  0.25000000  0.79166667  0.25520833  1.0
  Ag  Ag237  1  0.58333333  0.12500000  0.25520833  1.0
  Ag  Ag238  1  0.58333333  0.45833333  0.25520833  1.0
  Ag  Ag239  1  0.58333333  0.79166667  0.25520833  1.0
  Ag  Ag240  1  0.91666667  0.12500000  0.25520833  1.0
  Ag  Ag241  1  0.91666667  0.45833333  0.25520833  1.0
  Ag  Ag242  1  0.91666667  0.79166667  0.25520833  1.0
  Ag  Ag243  1  0.25000000  0.29166667  0.29687500  1.0
  Ag  Ag244  1  0.25000000  0.62500000  0.29687500  1.0
  Ag  Ag245  1  0.25000000  0.95833333  0.29687500  1.0
  Ag  Ag246  1  0.58333333  0.29166667  0.29687500  1.0
  Ag  Ag247  1  0.58333333  0.62500000  0.29687500  1.0
  Ag  Ag248  1  0.58333333  0.95833333  0.29687500  1.0
  Ag  Ag249  1  0.91666667  0.29166667  0.29687500  1.0
  Ag  Ag250  1  0.91666667  0.62500000  0.29687500  1.0
  Ag  Ag251  1  0.91666667  0.95833333  0.29687500  1.0
  Ag  Ag252  1  0.08333333  0.04166667  0.27604167  1.0
  Ag  Ag253  1  0.08333333  0.37500000  0.27604167  1.0
  Ag  Ag254  1  0.08333333  0.70833333  0.27604167  1.0
  Ag  Ag255  1  0.41666667  0.04166667  0.27604167  1.0
  Ag  Ag256  1  0.41666667  0.37500000  0.27604167  1.0
  Ag  Ag257  1  0.41666667  0.70833333  0.27604167  1.0
  Ag  Ag258  1  0.75000000  0.04166667  0.27604167  1.0
  Ag  Ag259  1  0.75000000  0.37500000  0.27604167  1.0
  Ag  Ag260  1  0.75000000  0.70833333  0.27604167  1.0
  Ag  Ag261  1  0.08333333  0.20833333  0.31770833  1.0
  Ag  Ag262  1  0.08333333  0.54166667  0.31770833  1.0
  Ag  Ag263  1  0.08333333  0.87500000  0.31770833  1.0
  Ag  Ag264  1  0.41666667  0.20833333  0.31770833  1.0
  Ag  Ag265  1  0.41666667  0.54166667  0.31770833  1.0
  Ag  Ag266  1  0.41666667  0.87500000  0.31770833  1.0
  Ag  Ag267  1  0.75000000  0.20833333  0.31770833  1.0
  Ag  Ag268  1  0.75000000  0.54166667  0.31770833  1.0
  Ag  Ag269  1  0.75000000  0.87500000  0.31770833  1.0
  Ag  Ag270  1  0.16666667  0.08333333  0.30729167  1.0
  Ag  Ag271  1  0.16666667  0.41666667  0.30729167  1.0
  Ag  Ag272  1  0.16666667  0.75000000  0.30729167  1.0
  Ag  Ag273  1  0.50000000  0.08333333  0.30729167  1.0
  Ag  Ag274  1  0.50000000  0.41666667  0.30729167  1.0
  Ag  Ag275  1  0.50000000  0.75000000  0.30729167  1.0
  Ag  Ag276  1  0.83333333  0.08333333  0.30729167  1.0
  Ag  Ag277  1  0.83333333  0.41666667  0.30729167  1.0
  Ag  Ag278  1  0.83333333  0.75000000  0.30729167  1.0
  Ag  Ag279  1  0.16666667  0.25000000  0.26562500  1.0
  Ag  Ag280  1  0.16666667  0.58333333  0.26562500  1.0
  Ag  Ag281  1  0.16666667  0.91666667  0.26562500  1.0
  Ag  Ag282  1  0.50000000  0.25000000  0.26562500  1.0
  Ag  Ag283  1  0.50000000  0.58333333  0.26562500  1.0
  Ag  Ag284  1  0.50000000  0.91666667  0.26562500  1.0
  Ag  Ag285  1  0.83333333  0.25000000  0.26562500  1.0
  Ag  Ag286  1  0.83333333  0.58333333  0.26562500  1.0
  Ag  Ag287  1  0.83333333  0.91666667  0.26562500  1.0
  Ni  Ni288  1  0.00000000  0.16666667  0.36979167  1.0
  Ni  Ni289  1  0.00000000  0.50000000  0.36979167  1.0
  Ni  Ni290  1  0.00000000  0.83333333  0.36979167  1.0
  Ni  Ni291  1  0.33333333  0.16666667  0.36979167  1.0
  Ni  Ni292  1  0.33333333  0.50000000  0.36979167  1.0
  Ni  Ni293  1  0.33333333  0.83333333  0.36979167  1.0
  Ni  Ni294  1  0.66666667  0.16666667  0.36979167  1.0
  Ni  Ni295  1  0.66666667  0.50000000  0.36979167  1.0
  Ni  Ni296  1  0.66666667  0.83333333  0.36979167  1.0
  Ni  Ni297  1  0.00000000  0.00000000  0.41145833  1.0
  Ni  Ni298  1  0.00000000  0.33333333  0.41145833  1.0
  Ni  Ni299  1  0.00000000  0.66666667  0.41145833  1.0
  Ni  Ni300  1  0.33333333  0.00000000  0.41145833  1.0
  Ni  Ni301  1  0.33333333  0.33333333  0.41145833  1.0
  Ni  Ni302  1  0.33333333  0.66666667  0.41145833  1.0
  Ni  Ni303  1  0.66666667  0.00000000  0.41145833  1.0
  Ni  Ni304  1  0.66666667  0.33333333  0.41145833  1.0
  Ni  Ni305  1  0.66666667  0.66666667  0.41145833  1.0
  Ag  Ag306  1  0.25000000  0.12500000  0.33854167  1.0
  Ag  Ag307  1  0.25000000  0.45833333  0.33854167  1.0
  Ag  Ag308  1  0.25000000  0.79166667  0.33854167  1.0
  Ag  Ag309  1  0.58333333  0.12500000  0.33854167  1.0
  Ag  Ag310  1  0.58333333  0.45833333  0.33854167  1.0
  Ag  Ag311  1  0.58333333  0.79166667  0.33854167  1.0
  Ag  Ag312  1  0.91666667  0.12500000  0.33854167  1.0
  Ag  Ag313  1  0.91666667  0.45833333  0.33854167  1.0
  Ag  Ag314  1  0.91666667  0.79166667  0.33854167  1.0
  Ag  Ag315  1  0.25000000  0.29166667  0.38020833  1.0
  Ag  Ag316  1  0.25000000  0.62500000  0.38020833  1.0
  Ag  Ag317  1  0.25000000  0.95833333  0.38020833  1.0
  Ag  Ag318  1  0.58333333  0.29166667  0.38020833  1.0
  Ag  Ag319  1  0.58333333  0.62500000  0.38020833  1.0
  Ag  Ag320  1  0.58333333  0.95833333  0.38020833  1.0
  Ag  Ag321  1  0.91666667  0.29166667  0.38020833  1.0
  Ag  Ag322  1  0.91666667  0.62500000  0.38020833  1.0
  Ag  Ag323  1  0.91666667  0.95833333  0.38020833  1.0
  Ag  Ag324  1  0.08333333  0.04166667  0.35937500  1.0
  Ag  Ag325  1  0.08333333  0.37500000  0.35937500  1.0
  Ag  Ag326  1  0.08333333  0.70833333  0.35937500  1.0
  Ag  Ag327  1  0.41666667  0.04166667  0.35937500  1.0
  Ag  Ag328  1  0.41666667  0.37500000  0.35937500  1.0
  Ag  Ag329  1  0.41666667  0.70833333  0.35937500  1.0
  Ag  Ag330  1  0.75000000  0.04166667  0.35937500  1.0
  Ag  Ag331  1  0.75000000  0.37500000  0.35937500  1.0
  Ag  Ag332  1  0.75000000  0.70833333  0.35937500  1.0
  Ag  Ag333  1  0.08333333  0.20833333  0.40104167  1.0
  Ag  Ag334  1  0.08333333  0.54166667  0.40104167  1.0
  Ag  Ag335  1  0.08333333  0.87500000  0.40104167  1.0
  Ag  Ag336  1  0.41666667  0.20833333  0.40104167  1.0
  Ag  Ag337  1  0.41666667  0.54166667  0.40104167  1.0
  Ag  Ag338  1  0.41666667  0.87500000  0.40104167  1.0
  Ag  Ag339  1  0.75000000  0.20833333  0.40104167  1.0
  Ag  Ag340  1  0.75000000  0.54166667  0.40104167  1.0
  Ag  Ag341  1  0.75000000  0.87500000  0.40104167  1.0
  Ag  Ag342  1  0.16666667  0.08333333  0.39062500  1.0
  Ag  Ag343  1  0.16666667  0.41666667  0.39062500  1.0
  Ag  Ag344  1  0.16666667  0.75000000  0.39062500  1.0
  Ag  Ag345  1  0.50000000  0.08333333  0.39062500  1.0
  Ag  Ag346  1  0.50000000  0.41666667  0.39062500  1.0
  Ag  Ag347  1  0.50000000  0.75000000  0.39062500  1.0
  Ag  Ag348  1  0.83333333  0.08333333  0.39062500  1.0
  Ag  Ag349  1  0.83333333  0.41666667  0.39062500  1.0
  Ag  Ag350  1  0.83333333  0.75000000  0.39062500  1.0
  Ag  Ag351  1  0.16666667  0.25000000  0.34895833  1.0
  Ag  Ag352  1  0.16666667  0.58333333  0.34895833  1.0
  Ag  Ag353  1  0.16666667  0.91666667  0.34895833  1.0
  Ag  Ag354  1  0.50000000  0.25000000  0.34895833  1.0
  Ag  Ag355  1  0.50000000  0.58333333  0.34895833  1.0
  Ag  Ag356  1  0.50000000  0.91666667  0.34895833  1.0
  Ag  Ag357  1  0.83333333  0.25000000  0.34895833  1.0
  Ag  Ag358  1  0.83333333  0.58333333  0.34895833  1.0
  Ag  Ag359  1  0.83333333  0.91666667  0.34895833  1.0
