# generated using pymatgen
data_NiAg3
_symmetry_space_group_name_H-M   'P 1'
_cell_length_a   12.06670799
_cell_length_b   36.91927523
_cell_length_c   26.52376331
_cell_angle_alpha   88.44845481
_cell_angle_beta   85.65147412
_cell_angle_gamma   80.59452916
_symmetry_Int_Tables_number   1
_chemical_formula_structural   NiAg3
_chemical_formula_sum   'Ni72 Ag216'
_cell_volume   11622.47679707
_cell_formula_units_Z   72
loop_
 _symmetry_equiv_pos_site_id
 _symmetry_equiv_pos_as_xyz
  1  'x, y, z'
loop_
 _atom_site_type_symbol
 _atom_site_label
 _atom_site_symmetry_multiplicity
 _atom_site_fract_x
 _atom_site_fract_y
 _atom_site_fract_z
 _atom_site_occupancy
  Ag  Ag0  1  0.08333333  0.15625000  0.96875000  1.0
  Ag  Ag1  1  0.08333333  0.48958333  0.96875000  1.0
  Ag  Ag2  1  0.08333333  0.82291667  0.96875000  1.0
  Ag  Ag3  1  0.41666667  0.15625000  0.96875000  1.0
  Ag  Ag4  1  0.41666667  0.48958333  0.96875000  1.0
  Ag  Ag5  1  0.41666667  0.82291667  0.96875000  1.0
  Ag  Ag6  1  0.75000000  0.15625000  0.96875000  1.0
  Ag  Ag7  1  0.75000000  0.48958333  0.96875000  1.0
  Ag  Ag8  1  0.75000000  0.82291667  0.96875000  1.0
  Ag  Ag9  1  0.31666667  0.03958333  0.91875000  1.0
  Ag  Ag10  1  0.31666667  0.37291667  0.91875000  1.0
  Ag  Ag11  1  0.31666667  0.70625000  0.91875000  1.0
  Ag  Ag12  1  0.65000000  0.03958333  0.91875000  1.0
  Ag  Ag13  1  0.65000000  0.37291667  0.91875000  1.0
  Ag  Ag14  1  0.65000000  0.70625000  0.91875000  1.0
  Ag  Ag15  1  0.98333333  0.03958333  0.91875000  1.0
  Ag  Ag16  1  0.98333333  0.37291667  0.91875000  1.0
  Ag  Ag17  1  0.98333333  0.70625000  0.91875000  1.0
  Ag  Ag18  1  0.03333333  0.26458333  0.94375000  1.0
  Ag  Ag19  1  0.03333333  0.59791667  0.94375000  1.0
  Ag  Ag20  1  0.03333333  0.93125000  0.94375000  1.0
  Ag  Ag21  1  0.36666667  0.26458333  0.94375000  1.0
  Ag  Ag22  1  0.36666667  0.59791667  0.94375000  1.0
  Ag  Ag23  1  0.36666667  0.93125000  0.94375000  1.0
  Ag  Ag24  1  0.70000000  0.26458333  0.94375000  1.0
  Ag  Ag25  1  0.70000000  0.59791667  0.94375000  1.0
  Ag  Ag26  1  0.70000000  0.93125000  0.94375000  1.0
  Ag  Ag27  1  0.13333333  0.04791667  0.99375000  1.0
  Ag  Ag28  1  0.13333333  0.38125000  0.99375000  1.0
  Ag  Ag29  1  0.13333333  0.71458333  0.99375000  1.0
  Ag  Ag30  1  0.46666667  0.04791667  0.99375000  1.0
  Ag  Ag31  1  0.46666667  0.38125000  0.99375000  1.0
  Ag  Ag32  1  0.46666667  0.71458333  0.99375000  1.0
  Ag  Ag33  1  0.80000000  0.04791667  0.99375000  1.0
  Ag  Ag34  1  0.80000000  0.38125000  0.99375000  1.0
  Ag  Ag35  1  0.80000000  0.71458333  0.99375000  1.0
  Ag  Ag36  1  0.27500000  0.10208333  0.98125000  1.0
  Ag  Ag37  1  0.27500000  0.43541667  0.98125000  1.0
  Ag  Ag38  1  0.27500000  0.76875000  0.98125000  1.0
  Ag  Ag39  1  0.60833333  0.10208333  0.98125000  1.0
  Ag  Ag40  1  0.60833333  0.43541667  0.98125000  1.0
  Ag  Ag41  1  0.60833333  0.76875000  0.98125000  1.0
  Ag  Ag42  1  0.94166667  0.10208333  0.98125000  1.0
  Ag  Ag43  1  0.94166667  0.43541667  0.98125000  1.0
  Ag  Ag44  1  0.94166667  0.76875000  0.98125000  1.0
  Ag  Ag45  1  0.17500000  0.31875000  0.93125000  1.0
  Ag  Ag46  1  0.17500000  0.65208333  0.93125000  1.0
  Ag  Ag47  1  0.17500000  0.98541667  0.93125000  1.0
  Ag  Ag48  1  0.50833333  0.31875000  0.93125000  1.0
  Ag  Ag49  1  0.50833333  0.65208333  0.93125000  1.0
  Ag  Ag50  1  0.50833333  0.98541667  0.93125000  1.0
  Ag  Ag51  1  0.84166667  0.31875000  0.93125000  1.0
  Ag  Ag52  1  0.84166667  0.65208333  0.93125000  1.0
  Ag  Ag53  1  0.84166667  0.98541667  0.93125000  1.0
  Ag  Ag54  1  0.21666667  0.25625000  0.86875000  1.0
  Ag  Ag55  1  0.21666667  0.58958333  0.86875000  1.0
  Ag  Ag56  1  0.21666667  0.92291667  0.86875000  1.0
  Ag  Ag57  1  0.55000000  0.25625000  0.86875000  1.0
  Ag  Ag58  1  0.55000000  0.58958333  0.86875000  1.0
  Ag  Ag59  1  0.55000000  0.92291667  0.86875000  1.0
  Ag  Ag60  1  0.88333333  0.25625000  0.86875000  1.0
  Ag  Ag61  1  0.88333333  0.58958333  0.86875000  1.0
  Ag  Ag62  1  0.88333333  0.92291667  0.86875000  1.0
  Ag  Ag63  1  0.11666667  0.13958333  0.81875000  1.0
  Ag  Ag64  1  0.11666667  0.47291667  0.81875000  1.0
  Ag  Ag65  1  0.11666667  0.80625000  0.81875000  1.0
  Ag  Ag66  1  0.45000000  0.13958333  0.81875000  1.0
  Ag  Ag67  1  0.45000000  0.47291667  0.81875000  1.0
  Ag  Ag68  1  0.45000000  0.80625000  0.81875000  1.0
  Ag  Ag69  1  0.78333333  0.13958333  0.81875000  1.0
  Ag  Ag70  1  0.78333333  0.47291667  0.81875000  1.0
  Ag  Ag71  1  0.78333333  0.80625000  0.81875000  1.0
  Ag  Ag72  1  0.16666667  0.03125000  0.84375000  1.0
  Ag  Ag73  1  0.16666667  0.36458333  0.84375000  1.0
  Ag  Ag74  1  0.16666667  0.69791667  0.84375000  1.0
  Ag  Ag75  1  0.50000000  0.03125000  0.84375000  1.0
  Ag  Ag76  1  0.50000000  0.36458333  0.84375000  1.0
  Ag  Ag77  1  0.50000000  0.69791667  0.84375000  1.0
  Ag  Ag78  1  0.83333333  0.03125000  0.84375000  1.0
  Ag  Ag79  1  0.83333333  0.36458333  0.84375000  1.0
  Ag  Ag80  1  0.83333333  0.69791667  0.84375000  1.0
  Ag  Ag81  1  0.26666667  0.14791667  0.89375000  1.0
  Ag  Ag82  1  0.26666667  0.48125000  0.89375000  1.0
  Ag  Ag83  1  0.26666667  0.81458333  0.89375000  1.0
  Ag  Ag84  1  0.60000000  0.14791667  0.89375000  1.0
  Ag  Ag85  1  0.60000000  0.48125000  0.89375000  1.0
  Ag  Ag86  1  0.60000000  0.81458333  0.89375000  1.0
  Ag  Ag87  1  0.93333333  0.14791667  0.89375000  1.0
  Ag  Ag88  1  0.93333333  0.48125000  0.89375000  1.0
  Ag  Ag89  1  0.93333333  0.81458333  0.89375000  1.0
  Ag  Ag90  1  0.07500000  0.20208333  0.88125000  1.0
  Ag  Ag91  1  0.07500000  0.53541667  0.88125000  1.0
  Ag  Ag92  1  0.07500000  0.86875000  0.88125000  1.0
  Ag  Ag93  1  0.40833333  0.20208333  0.88125000  1.0
  Ag  Ag94  1  0.40833333  0.53541667  0.88125000  1.0
  Ag  Ag95  1  0.40833333  0.86875000  0.88125000  1.0
  Ag  Ag96  1  0.74166667  0.20208333  0.88125000  1.0
  Ag  Ag97  1  0.74166667  0.53541667  0.88125000  1.0
  Ag  Ag98  1  0.74166667  0.86875000  0.88125000  1.0
  Ag  Ag99  1  0.30833333  0.08541667  0.83125000  1.0
  Ag  Ag100  1  0.30833333  0.41875000  0.83125000  1.0
  Ag  Ag101  1  0.30833333  0.75208333  0.83125000  1.0
  Ag  Ag102  1  0.64166667  0.08541667  0.83125000  1.0
  Ag  Ag103  1  0.64166667  0.41875000  0.83125000  1.0
  Ag  Ag104  1  0.64166667  0.75208333  0.83125000  1.0
  Ag  Ag105  1  0.97500000  0.08541667  0.83125000  1.0
  Ag  Ag106  1  0.97500000  0.41875000  0.83125000  1.0
  Ag  Ag107  1  0.97500000  0.75208333  0.83125000  1.0
  Ag  Ag108  1  0.01666667  0.02291667  0.76875000  1.0
  Ag  Ag109  1  0.01666667  0.35625000  0.76875000  1.0
  Ag  Ag110  1  0.01666667  0.68958333  0.76875000  1.0
  Ag  Ag111  1  0.35000000  0.02291667  0.76875000  1.0
  Ag  Ag112  1  0.35000000  0.35625000  0.76875000  1.0
  Ag  Ag113  1  0.35000000  0.68958333  0.76875000  1.0
  Ag  Ag114  1  0.68333333  0.02291667  0.76875000  1.0
  Ag  Ag115  1  0.68333333  0.35625000  0.76875000  1.0
  Ag  Ag116  1  0.68333333  0.68958333  0.76875000  1.0
  Ag  Ag117  1  0.25000000  0.23958333  0.71875000  1.0
  Ag  Ag118  1  0.25000000  0.57291667  0.71875000  1.0
  Ag  Ag119  1  0.25000000  0.90625000  0.71875000  1.0
  Ag  Ag120  1  0.58333333  0.23958333  0.71875000  1.0
  Ag  Ag121  1  0.58333333  0.57291667  0.71875000  1.0
  Ag  Ag122  1  0.58333333  0.90625000  0.71875000  1.0
  Ag  Ag123  1  0.91666667  0.23958333  0.71875000  1.0
  Ag  Ag124  1  0.91666667  0.57291667  0.71875000  1.0
  Ag  Ag125  1  0.91666667  0.90625000  0.71875000  1.0
  Ag  Ag126  1  0.30000000  0.13125000  0.74375000  1.0
  Ag  Ag127  1  0.30000000  0.46458333  0.74375000  1.0
  Ag  Ag128  1  0.30000000  0.79791667  0.74375000  1.0
  Ag  Ag129  1  0.63333333  0.13125000  0.74375000  1.0
  Ag  Ag130  1  0.63333333  0.46458333  0.74375000  1.0
  Ag  Ag131  1  0.63333333  0.79791667  0.74375000  1.0
  Ag  Ag132  1  0.96666667  0.13125000  0.74375000  1.0
  Ag  Ag133  1  0.96666667  0.46458333  0.74375000  1.0
  Ag  Ag134  1  0.96666667  0.79791667  0.74375000  1.0
  Ag  Ag135  1  0.06666667  0.24791667  0.79375000  1.0
  Ag  Ag136  1  0.06666667  0.58125000  0.79375000  1.0
  Ag  Ag137  1  0.06666667  0.91458333  0.79375000  1.0
  Ag  Ag138  1  0.40000000  0.24791667  0.79375000  1.0
  Ag  Ag139  1  0.40000000  0.58125000  0.79375000  1.0
  Ag  Ag140  1  0.40000000  0.91458333  0.79375000  1.0
  Ag  Ag141  1  0.73333333  0.24791667  0.79375000  1.0
  Ag  Ag142  1  0.73333333  0.58125000  0.79375000  1.0
  Ag  Ag143  1  0.73333333  0.91458333  0.79375000  1.0
  Ag  Ag144  1  0.20833333  0.30208333  0.78125000  1.0
  Ag  Ag145  1  0.20833333  0.63541667  0.78125000  1.0
  Ag  Ag146  1  0.20833333  0.96875000  0.78125000  1.0
  Ag  Ag147  1  0.54166667  0.30208333  0.78125000  1.0
  Ag  Ag148  1  0.54166667  0.63541667  0.78125000  1.0
  Ag  Ag149  1  0.54166667  0.96875000  0.78125000  1.0
  Ag  Ag150  1  0.87500000  0.30208333  0.78125000  1.0
  Ag  Ag151  1  0.87500000  0.63541667  0.78125000  1.0
  Ag  Ag152  1  0.87500000  0.96875000  0.78125000  1.0
  Ag  Ag153  1  0.10833333  0.18541667  0.73125000  1.0
  Ag  Ag154  1  0.10833333  0.51875000  0.73125000  1.0
  Ag  Ag155  1  0.10833333  0.85208333  0.73125000  1.0
  Ag  Ag156  1  0.44166667  0.18541667  0.73125000  1.0
  Ag  Ag157  1  0.44166667  0.51875000  0.73125000  1.0
  Ag  Ag158  1  0.44166667  0.85208333  0.73125000  1.0
  Ag  Ag159  1  0.77500000  0.18541667  0.73125000  1.0
  Ag  Ag160  1  0.77500000  0.51875000  0.73125000  1.0
  Ag  Ag161  1  0.77500000  0.85208333  0.73125000  1.0
  Ag  Ag162  1  0.15000000  0.12291667  0.66875000  1.0
  Ag  Ag163  1  0.15000000  0.45625000  0.66875000  1.0
  Ag  Ag164  1  0.15000000  0.78958333  0.66875000  1.0
  Ag  Ag165  1  0.48333333  0.12291667  0.66875000  1.0
  Ag  Ag166  1  0.48333333  0.45625000  0.66875000  1.0
  Ag  Ag167  1  0.48333333  0.78958333  0.66875000  1.0
  Ag  Ag168  1  0.81666667  0.12291667  0.66875000  1.0
  Ag  Ag169  1  0.81666667  0.45625000  0.66875000  1.0
  Ag  Ag170  1  0.81666667  0.78958333  0.66875000  1.0
  Ag  Ag171  1  0.05000000  0.00625000  0.61875000  1.0
  Ag  Ag172  1  0.05000000  0.33958333  0.61875000  1.0
  Ag  Ag173  1  0.05000000  0.67291667  0.61875000  1.0
  Ag  Ag174  1  0.38333333  0.00625000  0.61875000  1.0
  Ag  Ag175  1  0.38333333  0.33958333  0.61875000  1.0
  Ag  Ag176  1  0.38333333  0.67291667  0.61875000  1.0
  Ag  Ag177  1  0.71666667  0.00625000  0.61875000  1.0
  Ag  Ag178  1  0.71666667  0.33958333  0.61875000  1.0
  Ag  Ag179  1  0.71666667  0.67291667  0.61875000  1.0
  Ag  Ag180  1  0.10000000  0.23125000  0.64375000  1.0
  Ag  Ag181  1  0.10000000  0.56458333  0.64375000  1.0
  Ag  Ag182  1  0.10000000  0.89791667  0.64375000  1.0
  Ag  Ag183  1  0.43333333  0.23125000  0.64375000  1.0
  Ag  Ag184  1  0.43333333  0.56458333  0.64375000  1.0
  Ag  Ag185  1  0.43333333  0.89791667  0.64375000  1.0
  Ag  Ag186  1  0.76666667  0.23125000  0.64375000  1.0
  Ag  Ag187  1  0.76666667  0.56458333  0.64375000  1.0
  Ag  Ag188  1  0.76666667  0.89791667  0.64375000  1.0
  Ag  Ag189  1  0.20000000  0.01458333  0.69375000  1.0
  Ag  Ag190  1  0.20000000  0.34791667  0.69375000  1.0
  Ag  Ag191  1  0.20000000  0.68125000  0.69375000  1.0
  Ag  Ag192  1  0.53333333  0.01458333  0.69375000  1.0
  Ag  Ag193  1  0.53333333  0.34791667  0.69375000  1.0
  Ag  Ag194  1  0.53333333  0.68125000  0.69375000  1.0
  Ag  Ag195  1  0.86666667  0.01458333  0.69375000  1.0
  Ag  Ag196  1  0.86666667  0.34791667  0.69375000  1.0
  Ag  Ag197  1  0.86666667  0.68125000  0.69375000  1.0
  Ag  Ag198  1  0.00833333  0.06875000  0.68125000  1.0
  Ag  Ag199  1  0.00833333  0.40208333  0.68125000  1.0
  Ag  Ag200  1  0.00833333  0.73541667  0.68125000  1.0
  Ag  Ag201  1  0.34166667  0.06875000  0.68125000  1.0
  Ag  Ag202  1  0.34166667  0.40208333  0.68125000  1.0
  Ag  Ag203  1  0.34166667  0.73541667  0.68125000  1.0
  Ag  Ag204  1  0.67500000  0.06875000  0.68125000  1.0
  Ag  Ag205  1  0.67500000  0.40208333  0.68125000  1.0
  Ag  Ag206  1  0.67500000  0.73541667  0.68125000  1.0
  Ag  Ag207  1  0.24166667  0.28541667  0.63125000  1.0
  Ag  Ag208  1  0.24166667  0.61875000  0.63125000  1.0
  Ag  Ag209  1  0.24166667  0.95208333  0.63125000  1.0
  Ag  Ag210  1  0.57500000  0.28541667  0.63125000  1.0
  Ag  Ag211  1  0.57500000  0.61875000  0.63125000  1.0
  Ag  Ag212  1  0.57500000  0.95208333  0.63125000  1.0
  Ag  Ag213  1  0.90833333  0.28541667  0.63125000  1.0
  Ag  Ag214  1  0.90833333  0.61875000  0.63125000  1.0
  Ag  Ag215  1  0.90833333  0.95208333  0.63125000  1.0
  Ni  Ni216  1  0.22500000  0.21041667  0.95625000  1.0
  Ni  Ni217  1  0.22500000  0.54375000  0.95625000  1.0
  Ni  Ni218  1  0.22500000  0.87708333  0.95625000  1.0
  Ni  Ni219  1  0.55833333  0.21041667  0.95625000  1.0
  Ni  Ni220  1  0.55833333  0.54375000  0.95625000  1.0
  Ni  Ni221  1  0.55833333  0.87708333  0.95625000  1.0
  Ni  Ni222  1  0.89166667  0.21041667  0.95625000  1.0
  Ni  Ni223  1  0.89166667  0.54375000  0.95625000  1.0
  Ni  Ni224  1  0.89166667  0.87708333  0.95625000  1.0
  Ni  Ni225  1  0.12500000  0.09375000  0.90625000  1.0
  Ni  Ni226  1  0.12500000  0.42708333  0.90625000  1.0
  Ni  Ni227  1  0.12500000  0.76041667  0.90625000  1.0
  Ni  Ni228  1  0.45833333  0.09375000  0.90625000  1.0
  Ni  Ni229  1  0.45833333  0.42708333  0.90625000  1.0
  Ni  Ni230  1  0.45833333  0.76041667  0.90625000  1.0
  Ni  Ni231  1  0.79166667  0.09375000  0.90625000  1.0
  Ni  Ni232  1  0.79166667  0.42708333  0.90625000  1.0
  Ni  Ni233  1  0.79166667  0.76041667  0.90625000  1.0
  Ni  Ni234  1  0.02500000  0.31041667  0.85625000  1.0
  Ni  Ni235  1  0.02500000  0.64375000  0.85625000  1.0
  Ni  Ni236  1  0.02500000  0.97708333  0.85625000  1.0
  Ni  Ni237  1  0.35833333  0.31041667  0.85625000  1.0
  Ni  Ni238  1  0.35833333  0.64375000  0.85625000  1.0
  Ni  Ni239  1  0.35833333  0.97708333  0.85625000  1.0
  Ni  Ni240  1  0.69166667  0.31041667  0.85625000  1.0
  Ni  Ni241  1  0.69166667  0.64375000  0.85625000  1.0
  Ni  Ni242  1  0.69166667  0.97708333  0.85625000  1.0
  Ni  Ni243  1  0.25833333  0.19375000  0.80625000  1.0
  Ni  Ni244  1  0.25833333  0.52708333  0.80625000  1.0
  Ni  Ni245  1  0.25833333  0.86041667  0.80625000  1.0
  Ni  Ni246  1  0.59166667  0.19375000  0.80625000  1.0
  Ni  Ni247  1  0.59166667  0.52708333  0.80625000  1.0
  Ni  Ni248  1  0.59166667  0.86041667  0.80625000  1.0
  Ni  Ni249  1  0.92500000  0.19375000  0.80625000  1.0
  Ni  Ni250  1  0.92500000  0.52708333  0.80625000  1.0
  Ni  Ni251  1  0.92500000  0.86041667  0.80625000  1.0
  Ni  Ni252  1  0.15833333  0.07708333  0.75625000  1.0
  Ni  Ni253  1  0.15833333  0.41041667  0.75625000  1.0
  Ni  Ni254  1  0.15833333  0.74375000  0.75625000  1.0
  Ni  Ni255  1  0.49166667  0.07708333  0.75625000  1.0
  Ni  Ni256  1  0.49166667  0.41041667  0.75625000  1.0
  Ni  Ni257  1  0.49166667  0.74375000  0.75625000  1.0
  Ni  Ni258  1  0.82500000  0.07708333  0.75625000  1.0
  Ni  Ni259  1  0.82500000  0.41041667  0.75625000  1.0
  Ni  Ni260  1  0.82500000  0.74375000  0.75625000  1.0
  Ni  Ni261  1  0.05833333  0.29375000  0.70625000  1.0
  Ni  Ni262  1  0.05833333  0.62708333  0.70625000  1.0
  Ni  Ni263  1  0.05833333  0.96041667  0.70625000  1.0
  Ni  Ni264  1  0.39166667  0.29375000  0.70625000  1.0
  Ni  Ni265  1  0.39166667  0.62708333  0.70625000  1.0
  Ni  Ni266  1  0.39166667  0.96041667  0.70625000  1.0
  Ni  Ni267  1  0.72500000  0.29375000  0.70625000  1.0
  Ni  Ni268  1  0.72500000  0.62708333  0.70625000  1.0
  Ni  Ni269  1  0.72500000  0.96041667  0.70625000  1.0
  Ni  Ni270  1  0.29166667  0.17708333  0.65625000  1.0
  Ni  Ni271  1  0.29166667  0.51041667  0.65625000  1.0
  Ni  Ni272  1  0.29166667  0.84375000  0.65625000  1.0
  Ni  Ni273  1  0.62500000  0.17708333  0.65625000  1.0
  Ni  Ni274  1  0.62500000  0.51041667  0.65625000  1.0
  Ni  Ni275  1  0.62500000  0.84375000  0.65625000  1.0
  Ni  Ni276  1  0.95833333  0.17708333  0.65625000  1.0
  Ni  Ni277  1  0.95833333  0.51041667  0.65625000  1.0
  Ni  Ni278  1  0.95833333  0.84375000  0.65625000  1.0
  Ni  Ni279  1  0.19166667  0.06041667  0.60625000  1.0
  Ni  Ni280  1  0.19166667  0.39375000  0.60625000  1.0
  Ni  Ni281  1  0.19166667  0.72708333  0.60625000  1.0
  Ni  Ni282  1  0.52500000  0.06041667  0.60625000  1.0
  Ni  Ni283  1  0.52500000  0.39375000  0.60625000  1.0
  Ni  Ni284  1  0.52500000  0.72708333  0.60625000  1.0
  Ni  Ni285  1  0.85833333  0.06041667  0.60625000  1.0
  Ni  Ni286  1  0.85833333  0.39375000  0.60625000  1.0
  Ni  Ni287  1  0.85833333  0.72708333  0.60625000  1.0
