# generated using pymatgen
data_NiAg3
_symmetry_space_group_name_H-M   'P 1'
_cell_length_a   22.52493089
_cell_length_b   26.81494116
_cell_length_c   26.96347064
_cell_angle_alpha   85.91301605
_cell_angle_beta   82.97309872
_cell_angle_gamma   69.25794839
_symmetry_Int_Tables_number   1
_chemical_formula_structural   NiAg3
_chemical_formula_sum   'Ni90 Ag270'
_cell_volume   15109.21983619
_cell_formula_units_Z   90
loop_
 _symmetry_equiv_pos_site_id
 _symmetry_equiv_pos_as_xyz
  1  'x, y, z'
loop_
 _atom_site_type_symbol
 _atom_site_label
 _atom_site_symmetry_multiplicity
 _atom_site_fract_x
 _atom_site_fract_y
 _atom_site_fract_z
 _atom_site_occupancy
  Ag  Ag0  1  0.06250000  0.25000000  0.06250000  1.0
  Ag  Ag1  1  0.06250000  0.58333333  0.06250000  1.0
  Ag  Ag2  1  0.06250000  0.91666667  0.06250000  1.0
  Ag  Ag3  1  0.39583333  0.25000000  0.06250000  1.0
  Ag  Ag4  1  0.39583333  0.58333333  0.06250000  1.0
  Ag  Ag5  1  0.39583333  0.91666667  0.06250000  1.0
  Ag  Ag6  1  0.72916667  0.25000000  0.06250000  1.0
  Ag  Ag7  1  0.72916667  0.58333333  0.06250000  1.0
  Ag  Ag8  1  0.72916667  0.91666667  0.06250000  1.0
  Ag  Ag9  1  0.31891026  0.10897436  0.02403846  1.0
  Ag  Ag10  1  0.31891026  0.44230769  0.02403846  1.0
  Ag  Ag11  1  0.31891026  0.77564103  0.02403846  1.0
  Ag  Ag12  1  0.65224359  0.10897436  0.02403846  1.0
  Ag  Ag13  1  0.65224359  0.44230769  0.02403846  1.0
  Ag  Ag14  1  0.65224359  0.77564103  0.02403846  1.0
  Ag  Ag15  1  0.98557692  0.10897436  0.02403846  1.0
  Ag  Ag16  1  0.98557692  0.44230769  0.02403846  1.0
  Ag  Ag17  1  0.98557692  0.77564103  0.02403846  1.0
  Ag  Ag18  1  0.11378205  0.03846154  0.00480769  1.0
  Ag  Ag19  1  0.11378205  0.37179487  0.00480769  1.0
  Ag  Ag20  1  0.11378205  0.70512821  0.00480769  1.0
  Ag  Ag21  1  0.44711538  0.03846154  0.00480769  1.0
  Ag  Ag22  1  0.44711538  0.37179487  0.00480769  1.0
  Ag  Ag23  1  0.44711538  0.70512821  0.00480769  1.0
  Ag  Ag24  1  0.78044872  0.03846154  0.00480769  1.0
  Ag  Ag25  1  0.78044872  0.37179487  0.00480769  1.0
  Ag  Ag26  1  0.78044872  0.70512821  0.00480769  1.0
  Ag  Ag27  1  0.19070513  0.17948718  0.04326923  1.0
  Ag  Ag28  1  0.19070513  0.51282051  0.04326923  1.0
  Ag  Ag29  1  0.19070513  0.84615385  0.04326923  1.0
  Ag  Ag30  1  0.52403846  0.17948718  0.04326923  1.0
  Ag  Ag31  1  0.52403846  0.51282051  0.04326923  1.0
  Ag  Ag32  1  0.52403846  0.84615385  0.04326923  1.0
  Ag  Ag33  1  0.85737179  0.17948718  0.04326923  1.0
  Ag  Ag34  1  0.85737179  0.51282051  0.04326923  1.0
  Ag  Ag35  1  0.85737179  0.84615385  0.04326923  1.0
  Ag  Ag36  1  0.29326923  0.21474359  0.05288462  1.0
  Ag  Ag37  1  0.29326923  0.54807692  0.05288462  1.0
  Ag  Ag38  1  0.29326923  0.88141026  0.05288462  1.0
  Ag  Ag39  1  0.62660256  0.21474359  0.05288462  1.0
  Ag  Ag40  1  0.62660256  0.54807692  0.05288462  1.0
  Ag  Ag41  1  0.62660256  0.88141026  0.05288462  1.0
  Ag  Ag42  1  0.95993590  0.21474359  0.05288462  1.0
  Ag  Ag43  1  0.95993590  0.54807692  0.05288462  1.0
  Ag  Ag44  1  0.95993590  0.88141026  0.05288462  1.0
  Ag  Ag45  1  0.21634615  0.07371795  0.01442308  1.0
  Ag  Ag46  1  0.21634615  0.40705128  0.01442308  1.0
  Ag  Ag47  1  0.21634615  0.74038462  0.01442308  1.0
  Ag  Ag48  1  0.54967949  0.07371795  0.01442308  1.0
  Ag  Ag49  1  0.54967949  0.40705128  0.01442308  1.0
  Ag  Ag50  1  0.54967949  0.74038462  0.01442308  1.0
  Ag  Ag51  1  0.88301282  0.07371795  0.01442308  1.0
  Ag  Ag52  1  0.88301282  0.40705128  0.01442308  1.0
  Ag  Ag53  1  0.88301282  0.74038462  0.01442308  1.0
  Ag  Ag54  1  0.21634615  0.19871795  0.13942308  1.0
  Ag  Ag55  1  0.21634615  0.53205128  0.13942308  1.0
  Ag  Ag56  1  0.21634615  0.86538462  0.13942308  1.0
  Ag  Ag57  1  0.54967949  0.19871795  0.13942308  1.0
  Ag  Ag58  1  0.54967949  0.53205128  0.13942308  1.0
  Ag  Ag59  1  0.54967949  0.86538462  0.13942308  1.0
  Ag  Ag60  1  0.88301282  0.19871795  0.13942308  1.0
  Ag  Ag61  1  0.88301282  0.53205128  0.13942308  1.0
  Ag  Ag62  1  0.88301282  0.86538462  0.13942308  1.0
  Ag  Ag63  1  0.13942308  0.05769231  0.10096154  1.0
  Ag  Ag64  1  0.13942308  0.39102564  0.10096154  1.0
  Ag  Ag65  1  0.13942308  0.72435897  0.10096154  1.0
  Ag  Ag66  1  0.47275641  0.05769231  0.10096154  1.0
  Ag  Ag67  1  0.47275641  0.39102564  0.10096154  1.0
  Ag  Ag68  1  0.47275641  0.72435897  0.10096154  1.0
  Ag  Ag69  1  0.80608974  0.05769231  0.10096154  1.0
  Ag  Ag70  1  0.80608974  0.39102564  0.10096154  1.0
  Ag  Ag71  1  0.80608974  0.72435897  0.10096154  1.0
  Ag  Ag72  1  0.26762821  0.32051282  0.08173077  1.0
  Ag  Ag73  1  0.26762821  0.65384615  0.08173077  1.0
  Ag  Ag74  1  0.26762821  0.98717949  0.08173077  1.0
  Ag  Ag75  1  0.60096154  0.32051282  0.08173077  1.0
  Ag  Ag76  1  0.60096154  0.65384615  0.08173077  1.0
  Ag  Ag77  1  0.60096154  0.98717949  0.08173077  1.0
  Ag  Ag78  1  0.93429487  0.32051282  0.08173077  1.0
  Ag  Ag79  1  0.93429487  0.65384615  0.08173077  1.0
  Ag  Ag80  1  0.93429487  0.98717949  0.08173077  1.0
  Ag  Ag81  1  0.01121795  0.12820513  0.12019231  1.0
  Ag  Ag82  1  0.01121795  0.46153846  0.12019231  1.0
  Ag  Ag83  1  0.01121795  0.79487179  0.12019231  1.0
  Ag  Ag84  1  0.34455128  0.12820513  0.12019231  1.0
  Ag  Ag85  1  0.34455128  0.46153846  0.12019231  1.0
  Ag  Ag86  1  0.34455128  0.79487179  0.12019231  1.0
  Ag  Ag87  1  0.67788462  0.12820513  0.12019231  1.0
  Ag  Ag88  1  0.67788462  0.46153846  0.12019231  1.0
  Ag  Ag89  1  0.67788462  0.79487179  0.12019231  1.0
  Ag  Ag90  1  0.11378205  0.16346154  0.12980769  1.0
  Ag  Ag91  1  0.11378205  0.49679487  0.12980769  1.0
  Ag  Ag92  1  0.11378205  0.83012821  0.12980769  1.0
  Ag  Ag93  1  0.44711538  0.16346154  0.12980769  1.0
  Ag  Ag94  1  0.44711538  0.49679487  0.12980769  1.0
  Ag  Ag95  1  0.44711538  0.83012821  0.12980769  1.0
  Ag  Ag96  1  0.78044872  0.16346154  0.12980769  1.0
  Ag  Ag97  1  0.78044872  0.49679487  0.12980769  1.0
  Ag  Ag98  1  0.78044872  0.83012821  0.12980769  1.0
  Ag  Ag99  1  0.03685897  0.02243590  0.09134615  1.0
  Ag  Ag100  1  0.03685897  0.35576923  0.09134615  1.0
  Ag  Ag101  1  0.03685897  0.68910256  0.09134615  1.0
  Ag  Ag102  1  0.37019231  0.02243590  0.09134615  1.0
  Ag  Ag103  1  0.37019231  0.35576923  0.09134615  1.0
  Ag  Ag104  1  0.37019231  0.68910256  0.09134615  1.0
  Ag  Ag105  1  0.70352564  0.02243590  0.09134615  1.0
  Ag  Ag106  1  0.70352564  0.35576923  0.09134615  1.0
  Ag  Ag107  1  0.70352564  0.68910256  0.09134615  1.0
  Ag  Ag108  1  0.03685897  0.14743590  0.21634615  1.0
  Ag  Ag109  1  0.03685897  0.48076923  0.21634615  1.0
  Ag  Ag110  1  0.03685897  0.81410256  0.21634615  1.0
  Ag  Ag111  1  0.37019231  0.14743590  0.21634615  1.0
  Ag  Ag112  1  0.37019231  0.48076923  0.21634615  1.0
  Ag  Ag113  1  0.37019231  0.81410256  0.21634615  1.0
  Ag  Ag114  1  0.70352564  0.14743590  0.21634615  1.0
  Ag  Ag115  1  0.70352564  0.48076923  0.21634615  1.0
  Ag  Ag116  1  0.70352564  0.81410256  0.21634615  1.0
  Ag  Ag117  1  0.29326923  0.00641026  0.17788462  1.0
  Ag  Ag118  1  0.29326923  0.33974359  0.17788462  1.0
  Ag  Ag119  1  0.29326923  0.67307692  0.17788462  1.0
  Ag  Ag120  1  0.62660256  0.00641026  0.17788462  1.0
  Ag  Ag121  1  0.62660256  0.33974359  0.17788462  1.0
  Ag  Ag122  1  0.62660256  0.67307692  0.17788462  1.0
  Ag  Ag123  1  0.95993590  0.00641026  0.17788462  1.0
  Ag  Ag124  1  0.95993590  0.33974359  0.17788462  1.0
  Ag  Ag125  1  0.95993590  0.67307692  0.17788462  1.0
  Ag  Ag126  1  0.08814103  0.26923077  0.15865385  1.0
  Ag  Ag127  1  0.08814103  0.60256410  0.15865385  1.0
  Ag  Ag128  1  0.08814103  0.93589744  0.15865385  1.0
  Ag  Ag129  1  0.42147436  0.26923077  0.15865385  1.0
  Ag  Ag130  1  0.42147436  0.60256410  0.15865385  1.0
  Ag  Ag131  1  0.42147436  0.93589744  0.15865385  1.0
  Ag  Ag132  1  0.75480769  0.26923077  0.15865385  1.0
  Ag  Ag133  1  0.75480769  0.60256410  0.15865385  1.0
  Ag  Ag134  1  0.75480769  0.93589744  0.15865385  1.0
  Ag  Ag135  1  0.16506410  0.07692308  0.19711538  1.0
  Ag  Ag136  1  0.16506410  0.41025641  0.19711538  1.0
  Ag  Ag137  1  0.16506410  0.74358974  0.19711538  1.0
  Ag  Ag138  1  0.49839744  0.07692308  0.19711538  1.0
  Ag  Ag139  1  0.49839744  0.41025641  0.19711538  1.0
  Ag  Ag140  1  0.49839744  0.74358974  0.19711538  1.0
  Ag  Ag141  1  0.83173077  0.07692308  0.19711538  1.0
  Ag  Ag142  1  0.83173077  0.41025641  0.19711538  1.0
  Ag  Ag143  1  0.83173077  0.74358974  0.19711538  1.0
  Ag  Ag144  1  0.26762821  0.11217949  0.20673077  1.0
  Ag  Ag145  1  0.26762821  0.44551282  0.20673077  1.0
  Ag  Ag146  1  0.26762821  0.77884615  0.20673077  1.0
  Ag  Ag147  1  0.60096154  0.11217949  0.20673077  1.0
  Ag  Ag148  1  0.60096154  0.44551282  0.20673077  1.0
  Ag  Ag149  1  0.60096154  0.77884615  0.20673077  1.0
  Ag  Ag150  1  0.93429487  0.11217949  0.20673077  1.0
  Ag  Ag151  1  0.93429487  0.44551282  0.20673077  1.0
  Ag  Ag152  1  0.93429487  0.77884615  0.20673077  1.0
  Ag  Ag153  1  0.19070513  0.30448718  0.16826923  1.0
  Ag  Ag154  1  0.19070513  0.63782051  0.16826923  1.0
  Ag  Ag155  1  0.19070513  0.97115385  0.16826923  1.0
  Ag  Ag156  1  0.52403846  0.30448718  0.16826923  1.0
  Ag  Ag157  1  0.52403846  0.63782051  0.16826923  1.0
  Ag  Ag158  1  0.52403846  0.97115385  0.16826923  1.0
  Ag  Ag159  1  0.85737179  0.30448718  0.16826923  1.0
  Ag  Ag160  1  0.85737179  0.63782051  0.16826923  1.0
  Ag  Ag161  1  0.85737179  0.97115385  0.16826923  1.0
  Ag  Ag162  1  0.19070513  0.09615385  0.29326923  1.0
  Ag  Ag163  1  0.19070513  0.42948718  0.29326923  1.0
  Ag  Ag164  1  0.19070513  0.76282051  0.29326923  1.0
  Ag  Ag165  1  0.52403846  0.09615385  0.29326923  1.0
  Ag  Ag166  1  0.52403846  0.42948718  0.29326923  1.0
  Ag  Ag167  1  0.52403846  0.76282051  0.29326923  1.0
  Ag  Ag168  1  0.85737179  0.09615385  0.29326923  1.0
  Ag  Ag169  1  0.85737179  0.42948718  0.29326923  1.0
  Ag  Ag170  1  0.85737179  0.76282051  0.29326923  1.0
  Ag  Ag171  1  0.11378205  0.28846154  0.25480769  1.0
  Ag  Ag172  1  0.11378205  0.62179487  0.25480769  1.0
  Ag  Ag173  1  0.11378205  0.95512821  0.25480769  1.0
  Ag  Ag174  1  0.44711538  0.28846154  0.25480769  1.0
  Ag  Ag175  1  0.44711538  0.62179487  0.25480769  1.0
  Ag  Ag176  1  0.44711538  0.95512821  0.25480769  1.0
  Ag  Ag177  1  0.78044872  0.28846154  0.25480769  1.0
  Ag  Ag178  1  0.78044872  0.62179487  0.25480769  1.0
  Ag  Ag179  1  0.78044872  0.95512821  0.25480769  1.0
  Ag  Ag180  1  0.24198718  0.21794872  0.23557692  1.0
  Ag  Ag181  1  0.24198718  0.55128205  0.23557692  1.0
  Ag  Ag182  1  0.24198718  0.88461538  0.23557692  1.0
  Ag  Ag183  1  0.57532051  0.21794872  0.23557692  1.0
  Ag  Ag184  1  0.57532051  0.55128205  0.23557692  1.0
  Ag  Ag185  1  0.57532051  0.88461538  0.23557692  1.0
  Ag  Ag186  1  0.90865385  0.21794872  0.23557692  1.0
  Ag  Ag187  1  0.90865385  0.55128205  0.23557692  1.0
  Ag  Ag188  1  0.90865385  0.88461538  0.23557692  1.0
  Ag  Ag189  1  0.31891026  0.02564103  0.27403846  1.0
  Ag  Ag190  1  0.31891026  0.35897436  0.27403846  1.0
  Ag  Ag191  1  0.31891026  0.69230769  0.27403846  1.0
  Ag  Ag192  1  0.65224359  0.02564103  0.27403846  1.0
  Ag  Ag193  1  0.65224359  0.35897436  0.27403846  1.0
  Ag  Ag194  1  0.65224359  0.69230769  0.27403846  1.0
  Ag  Ag195  1  0.98557692  0.02564103  0.27403846  1.0
  Ag  Ag196  1  0.98557692  0.35897436  0.27403846  1.0
  Ag  Ag197  1  0.98557692  0.69230769  0.27403846  1.0
  Ag  Ag198  1  0.08814103  0.06089744  0.28365385  1.0
  Ag  Ag199  1  0.08814103  0.39423077  0.28365385  1.0
  Ag  Ag200  1  0.08814103  0.72756410  0.28365385  1.0
  Ag  Ag201  1  0.42147436  0.06089744  0.28365385  1.0
  Ag  Ag202  1  0.42147436  0.39423077  0.28365385  1.0
  Ag  Ag203  1  0.42147436  0.72756410  0.28365385  1.0
  Ag  Ag204  1  0.75480769  0.06089744  0.28365385  1.0
  Ag  Ag205  1  0.75480769  0.39423077  0.28365385  1.0
  Ag  Ag206  1  0.75480769  0.72756410  0.28365385  1.0
  Ag  Ag207  1  0.01121795  0.25320513  0.24519231  1.0
  Ag  Ag208  1  0.01121795  0.58653846  0.24519231  1.0
  Ag  Ag209  1  0.01121795  0.91987179  0.24519231  1.0
  Ag  Ag210  1  0.34455128  0.25320513  0.24519231  1.0
  Ag  Ag211  1  0.34455128  0.58653846  0.24519231  1.0
  Ag  Ag212  1  0.34455128  0.91987179  0.24519231  1.0
  Ag  Ag213  1  0.67788462  0.25320513  0.24519231  1.0
  Ag  Ag214  1  0.67788462  0.58653846  0.24519231  1.0
  Ag  Ag215  1  0.67788462  0.91987179  0.24519231  1.0
  Ag  Ag216  1  0.01121795  0.04487179  0.37019231  1.0
  Ag  Ag217  1  0.01121795  0.37820513  0.37019231  1.0
  Ag  Ag218  1  0.01121795  0.71153846  0.37019231  1.0
  Ag  Ag219  1  0.34455128  0.04487179  0.37019231  1.0
  Ag  Ag220  1  0.34455128  0.37820513  0.37019231  1.0
  Ag  Ag221  1  0.34455128  0.71153846  0.37019231  1.0
  Ag  Ag222  1  0.67788462  0.04487179  0.37019231  1.0
  Ag  Ag223  1  0.67788462  0.37820513  0.37019231  1.0
  Ag  Ag224  1  0.67788462  0.71153846  0.37019231  1.0
  Ag  Ag225  1  0.26762821  0.23717949  0.33173077  1.0
  Ag  Ag226  1  0.26762821  0.57051282  0.33173077  1.0
  Ag  Ag227  1  0.26762821  0.90384615  0.33173077  1.0
  Ag  Ag228  1  0.60096154  0.23717949  0.33173077  1.0
  Ag  Ag229  1  0.60096154  0.57051282  0.33173077  1.0
  Ag  Ag230  1  0.60096154  0.90384615  0.33173077  1.0
  Ag  Ag231  1  0.93429487  0.23717949  0.33173077  1.0
  Ag  Ag232  1  0.93429487  0.57051282  0.33173077  1.0
  Ag  Ag233  1  0.93429487  0.90384615  0.33173077  1.0
  Ag  Ag234  1  0.06250000  0.16666667  0.31250000  1.0
  Ag  Ag235  1  0.06250000  0.50000000  0.31250000  1.0
  Ag  Ag236  1  0.06250000  0.83333333  0.31250000  1.0
  Ag  Ag237  1  0.39583333  0.16666667  0.31250000  1.0
  Ag  Ag238  1  0.39583333  0.50000000  0.31250000  1.0
  Ag  Ag239  1  0.39583333  0.83333333  0.31250000  1.0
  Ag  Ag240  1  0.72916667  0.16666667  0.31250000  1.0
  Ag  Ag241  1  0.72916667  0.50000000  0.31250000  1.0
  Ag  Ag242  1  0.72916667  0.83333333  0.31250000  1.0
  Ag  Ag243  1  0.13942308  0.30769231  0.35096154  1.0
  Ag  Ag244  1  0.13942308  0.64102564  0.35096154  1.0
  Ag  Ag245  1  0.13942308  0.97435897  0.35096154  1.0
  Ag  Ag246  1  0.47275641  0.30769231  0.35096154  1.0
  Ag  Ag247  1  0.47275641  0.64102564  0.35096154  1.0
  Ag  Ag248  1  0.47275641  0.97435897  0.35096154  1.0
  Ag  Ag249  1  0.80608974  0.30769231  0.35096154  1.0
  Ag  Ag250  1  0.80608974  0.64102564  0.35096154  1.0
  Ag  Ag251  1  0.80608974  0.97435897  0.35096154  1.0
  Ag  Ag252  1  0.24198718  0.00961538  0.36057692  1.0
  Ag  Ag253  1  0.24198718  0.34294872  0.36057692  1.0
  Ag  Ag254  1  0.24198718  0.67628205  0.36057692  1.0
  Ag  Ag255  1  0.57532051  0.00961538  0.36057692  1.0
  Ag  Ag256  1  0.57532051  0.34294872  0.36057692  1.0
  Ag  Ag257  1  0.57532051  0.67628205  0.36057692  1.0
  Ag  Ag258  1  0.90865385  0.00961538  0.36057692  1.0
  Ag  Ag259  1  0.90865385  0.34294872  0.36057692  1.0
  Ag  Ag260  1  0.90865385  0.67628205  0.36057692  1.0
  Ag  Ag261  1  0.16506410  0.20192308  0.32211538  1.0
  Ag  Ag262  1  0.16506410  0.53525641  0.32211538  1.0
  Ag  Ag263  1  0.16506410  0.86858974  0.32211538  1.0
  Ag  Ag264  1  0.49839744  0.20192308  0.32211538  1.0
  Ag  Ag265  1  0.49839744  0.53525641  0.32211538  1.0
  Ag  Ag266  1  0.49839744  0.86858974  0.32211538  1.0
  Ag  Ag267  1  0.83173077  0.20192308  0.32211538  1.0
  Ag  Ag268  1  0.83173077  0.53525641  0.32211538  1.0
  Ag  Ag269  1  0.83173077  0.86858974  0.32211538  1.0
  Ni  Ni270  1  0.16506410  0.28525641  0.07211538  1.0
  Ni  Ni271  1  0.16506410  0.61858974  0.07211538  1.0
  Ni  Ni272  1  0.16506410  0.95192308  0.07211538  1.0
  Ni  Ni273  1  0.49839744  0.28525641  0.07211538  1.0
  Ni  Ni274  1  0.49839744  0.61858974  0.07211538  1.0
  Ni  Ni275  1  0.49839744  0.95192308  0.07211538  1.0
  Ni  Ni276  1  0.83173077  0.28525641  0.07211538  1.0
  Ni  Ni277  1  0.83173077  0.61858974  0.07211538  1.0
  Ni  Ni278  1  0.83173077  0.95192308  0.07211538  1.0
  Ni  Ni279  1  0.08814103  0.14423077  0.03365385  1.0
  Ni  Ni280  1  0.08814103  0.47756410  0.03365385  1.0
  Ni  Ni281  1  0.08814103  0.81089744  0.03365385  1.0
  Ni  Ni282  1  0.42147436  0.14423077  0.03365385  1.0
  Ni  Ni283  1  0.42147436  0.47756410  0.03365385  1.0
  Ni  Ni284  1  0.42147436  0.81089744  0.03365385  1.0
  Ni  Ni285  1  0.75480769  0.14423077  0.03365385  1.0
  Ni  Ni286  1  0.75480769  0.47756410  0.03365385  1.0
  Ni  Ni287  1  0.75480769  0.81089744  0.03365385  1.0
  Ni  Ni288  1  0.31891026  0.23397436  0.14903846  1.0
  Ni  Ni289  1  0.31891026  0.56730769  0.14903846  1.0
  Ni  Ni290  1  0.31891026  0.90064103  0.14903846  1.0
  Ni  Ni291  1  0.65224359  0.23397436  0.14903846  1.0
  Ni  Ni292  1  0.65224359  0.56730769  0.14903846  1.0
  Ni  Ni293  1  0.65224359  0.90064103  0.14903846  1.0
  Ni  Ni294  1  0.98557692  0.23397436  0.14903846  1.0
  Ni  Ni295  1  0.98557692  0.56730769  0.14903846  1.0
  Ni  Ni296  1  0.98557692  0.90064103  0.14903846  1.0
  Ni  Ni297  1  0.24198718  0.09294872  0.11057692  1.0
  Ni  Ni298  1  0.24198718  0.42628205  0.11057692  1.0
  Ni  Ni299  1  0.24198718  0.75961538  0.11057692  1.0
  Ni  Ni300  1  0.57532051  0.09294872  0.11057692  1.0
  Ni  Ni301  1  0.57532051  0.42628205  0.11057692  1.0
  Ni  Ni302  1  0.57532051  0.75961538  0.11057692  1.0
  Ni  Ni303  1  0.90865385  0.09294872  0.11057692  1.0
  Ni  Ni304  1  0.90865385  0.42628205  0.11057692  1.0
  Ni  Ni305  1  0.90865385  0.75961538  0.11057692  1.0
  Ni  Ni306  1  0.13942308  0.18269231  0.22596154  1.0
  Ni  Ni307  1  0.13942308  0.51602564  0.22596154  1.0
  Ni  Ni308  1  0.13942308  0.84935897  0.22596154  1.0
  Ni  Ni309  1  0.47275641  0.18269231  0.22596154  1.0
  Ni  Ni310  1  0.47275641  0.51602564  0.22596154  1.0
  Ni  Ni311  1  0.47275641  0.84935897  0.22596154  1.0
  Ni  Ni312  1  0.80608974  0.18269231  0.22596154  1.0
  Ni  Ni313  1  0.80608974  0.51602564  0.22596154  1.0
  Ni  Ni314  1  0.80608974  0.84935897  0.22596154  1.0
  Ni  Ni315  1  0.06250000  0.04166667  0.18750000  1.0
  Ni  Ni316  1  0.06250000  0.37500000  0.18750000  1.0
  Ni  Ni317  1  0.06250000  0.70833333  0.18750000  1.0
  Ni  Ni318  1  0.39583333  0.04166667  0.18750000  1.0
  Ni  Ni319  1  0.39583333  0.37500000  0.18750000  1.0
  Ni  Ni320  1  0.39583333  0.70833333  0.18750000  1.0
  Ni  Ni321  1  0.72916667  0.04166667  0.18750000  1.0
  Ni  Ni322  1  0.72916667  0.37500000  0.18750000  1.0
  Ni  Ni323  1  0.72916667  0.70833333  0.18750000  1.0
  Ni  Ni324  1  0.29326923  0.13141026  0.30288462  1.0
  Ni  Ni325  1  0.29326923  0.46474359  0.30288462  1.0
  Ni  Ni326  1  0.29326923  0.79807692  0.30288462  1.0
  Ni  Ni327  1  0.62660256  0.13141026  0.30288462  1.0
  Ni  Ni328  1  0.62660256  0.46474359  0.30288462  1.0
  Ni  Ni329  1  0.62660256  0.79807692  0.30288462  1.0
  Ni  Ni330  1  0.95993590  0.13141026  0.30288462  1.0
  Ni  Ni331  1  0.95993590  0.46474359  0.30288462  1.0
  Ni  Ni332  1  0.95993590  0.79807692  0.30288462  1.0
  Ni  Ni333  1  0.21634615  0.32371795  0.26442308  1.0
  Ni  Ni334  1  0.21634615  0.65705128  0.26442308  1.0
  Ni  Ni335  1  0.21634615  0.99038462  0.26442308  1.0
  Ni  Ni336  1  0.54967949  0.32371795  0.26442308  1.0
  Ni  Ni337  1  0.54967949  0.65705128  0.26442308  1.0
  Ni  Ni338  1  0.54967949  0.99038462  0.26442308  1.0
  Ni  Ni339  1  0.88301282  0.32371795  0.26442308  1.0
  Ni  Ni340  1  0.88301282  0.65705128  0.26442308  1.0
  Ni  Ni341  1  0.88301282  0.99038462  0.26442308  1.0
  Ni  Ni342  1  0.11378205  0.08012821  0.37980769  1.0
  Ni  Ni343  1  0.11378205  0.41346154  0.37980769  1.0
  Ni  Ni344  1  0.11378205  0.74679487  0.37980769  1.0
  Ni  Ni345  1  0.44711538  0.08012821  0.37980769  1.0
  Ni  Ni346  1  0.44711538  0.41346154  0.37980769  1.0
  Ni  Ni347  1  0.44711538  0.74679487  0.37980769  1.0
  Ni  Ni348  1  0.78044872  0.08012821  0.37980769  1.0
  Ni  Ni349  1  0.78044872  0.41346154  0.37980769  1.0
  Ni  Ni350  1  0.78044872  0.74679487  0.37980769  1.0
  Ni  Ni351  1  0.03685897  0.27243590  0.34134615  1.0
  Ni  Ni352  1  0.03685897  0.60576923  0.34134615  1.0
  Ni  Ni353  1  0.03685897  0.93910256  0.34134615  1.0
  Ni  Ni354  1  0.37019231  0.27243590  0.34134615  1.0
  Ni  Ni355  1  0.37019231  0.60576923  0.34134615  1.0
  Ni  Ni356  1  0.37019231  0.93910256  0.34134615  1.0
  Ni  Ni357  1  0.70352564  0.27243590  0.34134615  1.0
  Ni  Ni358  1  0.70352564  0.60576923  0.34134615  1.0
  Ni  Ni359  1  0.70352564  0.93910256  0.34134615  1.0
