# generated using pymatgen
data_NiAg3
_symmetry_space_group_name_H-M   'P 1'
_cell_length_a   23.94651599
_cell_length_b   26.81494116
_cell_length_c   63.71055652
_cell_angle_alpha   57.13957632
_cell_angle_beta   35.47464790
_cell_angle_gamma   26.74364679
_symmetry_Int_Tables_number   1
_chemical_formula_structural   NiAg3
_chemical_formula_sum   'Ni45 Ag135'
_cell_volume   7554.60991809
_cell_formula_units_Z   45
loop_
 _symmetry_equiv_pos_site_id
 _symmetry_equiv_pos_as_xyz
  1  'x, y, z'
loop_
 _atom_site_type_symbol
 _atom_site_label
 _atom_site_symmetry_multiplicity
 _atom_site_fract_x
 _atom_site_fract_y
 _atom_site_fract_z
 _atom_site_occupancy
  Ni  Ni0  1  0.00000000  0.00000000  0.03846154  1.0
  Ni  Ni1  1  0.00000000  0.33333333  0.03846154  1.0
  Ni  Ni2  1  0.00000000  0.66666667  0.03846154  1.0
  Ni  Ni3  1  0.33333333  0.00000000  0.03846154  1.0
  Ni  Ni4  1  0.33333333  0.33333333  0.03846154  1.0
  Ni  Ni5  1  0.33333333  0.66666667  0.03846154  1.0
  Ni  Ni6  1  0.66666667  0.00000000  0.03846154  1.0
  Ni  Ni7  1  0.66666667  0.33333333  0.03846154  1.0
  Ni  Ni8  1  0.66666667  0.66666667  0.03846154  1.0
  Ag  Ag9  1  0.25000000  0.16666667  0.03846154  1.0
  Ag  Ag10  1  0.25000000  0.50000000  0.03846154  1.0
  Ag  Ag11  1  0.25000000  0.83333333  0.03846154  1.0
  Ag  Ag12  1  0.58333333  0.16666667  0.03846154  1.0
  Ag  Ag13  1  0.58333333  0.50000000  0.03846154  1.0
  Ag  Ag14  1  0.58333333  0.83333333  0.03846154  1.0
  Ag  Ag15  1  0.91666667  0.16666667  0.03846154  1.0
  Ag  Ag16  1  0.91666667  0.50000000  0.03846154  1.0
  Ag  Ag17  1  0.91666667  0.83333333  0.03846154  1.0
  Ag  Ag18  1  0.08333333  0.16666667  0.03846154  1.0
  Ag  Ag19  1  0.08333333  0.50000000  0.03846154  1.0
  Ag  Ag20  1  0.08333333  0.83333333  0.03846154  1.0
  Ag  Ag21  1  0.41666667  0.16666667  0.03846154  1.0
  Ag  Ag22  1  0.41666667  0.50000000  0.03846154  1.0
  Ag  Ag23  1  0.41666667  0.83333333  0.03846154  1.0
  Ag  Ag24  1  0.75000000  0.16666667  0.03846154  1.0
  Ag  Ag25  1  0.75000000  0.50000000  0.03846154  1.0
  Ag  Ag26  1  0.75000000  0.83333333  0.03846154  1.0
  Ag  Ag27  1  0.16666667  0.00000000  0.03846154  1.0
  Ag  Ag28  1  0.16666667  0.33333333  0.03846154  1.0
  Ag  Ag29  1  0.16666667  0.66666667  0.03846154  1.0
  Ag  Ag30  1  0.50000000  0.00000000  0.03846154  1.0
  Ag  Ag31  1  0.50000000  0.33333333  0.03846154  1.0
  Ag  Ag32  1  0.50000000  0.66666667  0.03846154  1.0
  Ag  Ag33  1  0.83333333  0.00000000  0.03846154  1.0
  Ag  Ag34  1  0.83333333  0.33333333  0.03846154  1.0
  Ag  Ag35  1  0.83333333  0.66666667  0.03846154  1.0
  Ni  Ni36  1  0.00000000  0.00000000  0.11538462  1.0
  Ni  Ni37  1  0.00000000  0.33333333  0.11538462  1.0
  Ni  Ni38  1  0.00000000  0.66666667  0.11538462  1.0
  Ni  Ni39  1  0.33333333  0.00000000  0.11538462  1.0
  Ni  Ni40  1  0.33333333  0.33333333  0.11538462  1.0
  Ni  Ni41  1  0.33333333  0.66666667  0.11538462  1.0
  Ni  Ni42  1  0.66666667  0.00000000  0.11538462  1.0
  Ni  Ni43  1  0.66666667  0.33333333  0.11538462  1.0
  Ni  Ni44  1  0.66666667  0.66666667  0.11538462  1.0
  Ag  Ag45  1  0.25000000  0.16666667  0.11538462  1.0
  Ag  Ag46  1  0.25000000  0.50000000  0.11538462  1.0
  Ag  Ag47  1  0.25000000  0.83333333  0.11538462  1.0
  Ag  Ag48  1  0.58333333  0.16666667  0.11538462  1.0
  Ag  Ag49  1  0.58333333  0.50000000  0.11538462  1.0
  Ag  Ag50  1  0.58333333  0.83333333  0.11538462  1.0
  Ag  Ag51  1  0.91666667  0.16666667  0.11538462  1.0
  Ag  Ag52  1  0.91666667  0.50000000  0.11538462  1.0
  Ag  Ag53  1  0.91666667  0.83333333  0.11538462  1.0
  Ag  Ag54  1  0.08333333  0.16666667  0.11538462  1.0
  Ag  Ag55  1  0.08333333  0.50000000  0.11538462  1.0
  Ag  Ag56  1  0.08333333  0.83333333  0.11538462  1.0
  Ag  Ag57  1  0.41666667  0.16666667  0.11538462  1.0
  Ag  Ag58  1  0.41666667  0.50000000  0.11538462  1.0
  Ag  Ag59  1  0.41666667  0.83333333  0.11538462  1.0
  Ag  Ag60  1  0.75000000  0.16666667  0.11538462  1.0
  Ag  Ag61  1  0.75000000  0.50000000  0.11538462  1.0
  Ag  Ag62  1  0.75000000  0.83333333  0.11538462  1.0
  Ag  Ag63  1  0.16666667  0.00000000  0.11538462  1.0
  Ag  Ag64  1  0.16666667  0.33333333  0.11538462  1.0
  Ag  Ag65  1  0.16666667  0.66666667  0.11538462  1.0
  Ag  Ag66  1  0.50000000  0.00000000  0.11538462  1.0
  Ag  Ag67  1  0.50000000  0.33333333  0.11538462  1.0
  Ag  Ag68  1  0.50000000  0.66666667  0.11538462  1.0
  Ag  Ag69  1  0.83333333  0.00000000  0.11538462  1.0
  Ag  Ag70  1  0.83333333  0.33333333  0.11538462  1.0
  Ag  Ag71  1  0.83333333  0.66666667  0.11538462  1.0
  Ni  Ni72  1  0.00000000  0.00000000  0.19230769  1.0
  Ni  Ni73  1  0.00000000  0.33333333  0.19230769  1.0
  Ni  Ni74  1  0.00000000  0.66666667  0.19230769  1.0
  Ni  Ni75  1  0.33333333  0.00000000  0.19230769  1.0
  Ni  Ni76  1  0.33333333  0.33333333  0.19230769  1.0
  Ni  Ni77  1  0.33333333  0.66666667  0.19230769  1.0
  Ni  Ni78  1  0.66666667  0.00000000  0.19230769  1.0
  Ni  Ni79  1  0.66666667  0.33333333  0.19230769  1.0
  Ni  Ni80  1  0.66666667  0.66666667  0.19230769  1.0
  Ag  Ag81  1  0.25000000  0.16666667  0.19230769  1.0
  Ag  Ag82  1  0.25000000  0.50000000  0.19230769  1.0
  Ag  Ag83  1  0.25000000  0.83333333  0.19230769  1.0
  Ag  Ag84  1  0.58333333  0.16666667  0.19230769  1.0
  Ag  Ag85  1  0.58333333  0.50000000  0.19230769  1.0
  Ag  Ag86  1  0.58333333  0.83333333  0.19230769  1.0
  Ag  Ag87  1  0.91666667  0.16666667  0.19230769  1.0
  Ag  Ag88  1  0.91666667  0.50000000  0.19230769  1.0
  Ag  Ag89  1  0.91666667  0.83333333  0.19230769  1.0
  Ag  Ag90  1  0.08333333  0.16666667  0.19230769  1.0
  Ag  Ag91  1  0.08333333  0.50000000  0.19230769  1.0
  Ag  Ag92  1  0.08333333  0.83333333  0.19230769  1.0
  Ag  Ag93  1  0.41666667  0.16666667  0.19230769  1.0
  Ag  Ag94  1  0.41666667  0.50000000  0.19230769  1.0
  Ag  Ag95  1  0.41666667  0.83333333  0.19230769  1.0
  Ag  Ag96  1  0.75000000  0.16666667  0.19230769  1.0
  Ag  Ag97  1  0.75000000  0.50000000  0.19230769  1.0
  Ag  Ag98  1  0.75000000  0.83333333  0.19230769  1.0
  Ag  Ag99  1  0.16666667  0.00000000  0.19230769  1.0
  Ag  Ag100  1  0.16666667  0.33333333  0.19230769  1.0
  Ag  Ag101  1  0.16666667  0.66666667  0.19230769  1.0
  Ag  Ag102  1  0.50000000  0.00000000  0.19230769  1.0
  Ag  Ag103  1  0.50000000  0.33333333  0.19230769  1.0
  Ag  Ag104  1  0.50000000  0.66666667  0.19230769  1.0
  Ag  Ag105  1  0.83333333  0.00000000  0.19230769  1.0
  Ag  Ag106  1  0.83333333  0.33333333  0.19230769  1.0
  Ag  Ag107  1  0.83333333  0.66666667  0.19230769  1.0
  Ni  Ni108  1  0.00000000  0.00000000  0.26923077  1.0
  Ni  Ni109  1  0.00000000  0.33333333  0.26923077  1.0
  Ni  Ni110  1  0.00000000  0.66666667  0.26923077  1.0
  Ni  Ni111  1  0.33333333  0.00000000  0.26923077  1.0
  Ni  Ni112  1  0.33333333  0.33333333  0.26923077  1.0
  Ni  Ni113  1  0.33333333  0.66666667  0.26923077  1.0
  Ni  Ni114  1  0.66666667  0.00000000  0.26923077  1.0
  Ni  Ni115  1  0.66666667  0.33333333  0.26923077  1.0
  Ni  Ni116  1  0.66666667  0.66666667  0.26923077  1.0
  Ag  Ag117  1  0.25000000  0.16666667  0.26923077  1.0
  Ag  Ag118  1  0.25000000  0.50000000  0.26923077  1.0
  Ag  Ag119  1  0.25000000  0.83333333  0.26923077  1.0
  Ag  Ag120  1  0.58333333  0.16666667  0.26923077  1.0
  Ag  Ag121  1  0.58333333  0.50000000  0.26923077  1.0
  Ag  Ag122  1  0.58333333  0.83333333  0.26923077  1.0
  Ag  Ag123  1  0.91666667  0.16666667  0.26923077  1.0
  Ag  Ag124  1  0.91666667  0.50000000  0.26923077  1.0
  Ag  Ag125  1  0.91666667  0.83333333  0.26923077  1.0
  Ag  Ag126  1  0.08333333  0.16666667  0.26923077  1.0
  Ag  Ag127  1  0.08333333  0.50000000  0.26923077  1.0
  Ag  Ag128  1  0.08333333  0.83333333  0.26923077  1.0
  Ag  Ag129  1  0.41666667  0.16666667  0.26923077  1.0
  Ag  Ag130  1  0.41666667  0.50000000  0.26923077  1.0
  Ag  Ag131  1  0.41666667  0.83333333  0.26923077  1.0
  Ag  Ag132  1  0.75000000  0.16666667  0.26923077  1.0
  Ag  Ag133  1  0.75000000  0.50000000  0.26923077  1.0
  Ag  Ag134  1  0.75000000  0.83333333  0.26923077  1.0
  Ag  Ag135  1  0.16666667  0.00000000  0.26923077  1.0
  Ag  Ag136  1  0.16666667  0.33333333  0.26923077  1.0
  Ag  Ag137  1  0.16666667  0.66666667  0.26923077  1.0
  Ag  Ag138  1  0.50000000  0.00000000  0.26923077  1.0
  Ag  Ag139  1  0.50000000  0.33333333  0.26923077  1.0
  Ag  Ag140  1  0.50000000  0.66666667  0.26923077  1.0
  Ag  Ag141  1  0.83333333  0.00000000  0.26923077  1.0
  Ag  Ag142  1  0.83333333  0.33333333  0.26923077  1.0
  Ag  Ag143  1  0.83333333  0.66666667  0.26923077  1.0
  Ni  Ni144  1  0.00000000  0.00000000  0.34615385  1.0
  Ni  Ni145  1  0.00000000  0.33333333  0.34615385  1.0
  Ni  Ni146  1  0.00000000  0.66666667  0.34615385  1.0
  Ni  Ni147  1  0.33333333  0.00000000  0.34615385  1.0
  Ni  Ni148  1  0.33333333  0.33333333  0.34615385  1.0
  Ni  Ni149  1  0.33333333  0.66666667  0.34615385  1.0
  Ni  Ni150  1  0.66666667  0.00000000  0.34615385  1.0
  Ni  Ni151  1  0.66666667  0.33333333  0.34615385  1.0
  Ni  Ni152  1  0.66666667  0.66666667  0.34615385  1.0
  Ag  Ag153  1  0.25000000  0.16666667  0.34615385  1.0
  Ag  Ag154  1  0.25000000  0.50000000  0.34615385  1.0
  Ag  Ag155  1  0.25000000  0.83333333  0.34615385  1.0
  Ag  Ag156  1  0.58333333  0.16666667  0.34615385  1.0
  Ag  Ag157  1  0.58333333  0.50000000  0.34615385  1.0
  Ag  Ag158  1  0.58333333  0.83333333  0.34615385  1.0
  Ag  Ag159  1  0.91666667  0.16666667  0.34615385  1.0
  Ag  Ag160  1  0.91666667  0.50000000  0.34615385  1.0
  Ag  Ag161  1  0.91666667  0.83333333  0.34615385  1.0
  Ag  Ag162  1  0.08333333  0.16666667  0.34615385  1.0
  Ag  Ag163  1  0.08333333  0.50000000  0.34615385  1.0
  Ag  Ag164  1  0.08333333  0.83333333  0.34615385  1.0
  Ag  Ag165  1  0.41666667  0.16666667  0.34615385  1.0
  Ag  Ag166  1  0.41666667  0.50000000  0.34615385  1.0
  Ag  Ag167  1  0.41666667  0.83333333  0.34615385  1.0
  Ag  Ag168  1  0.75000000  0.16666667  0.34615385  1.0
  Ag  Ag169  1  0.75000000  0.50000000  0.34615385  1.0
  Ag  Ag170  1  0.75000000  0.83333333  0.34615385  1.0
  Ag  Ag171  1  0.16666667  0.00000000  0.34615385  1.0
  Ag  Ag172  1  0.16666667  0.33333333  0.34615385  1.0
  Ag  Ag173  1  0.16666667  0.66666667  0.34615385  1.0
  Ag  Ag174  1  0.50000000  0.00000000  0.34615385  1.0
  Ag  Ag175  1  0.50000000  0.33333333  0.34615385  1.0
  Ag  Ag176  1  0.50000000  0.66666667  0.34615385  1.0
  Ag  Ag177  1  0.83333333  0.00000000  0.34615385  1.0
  Ag  Ag178  1  0.83333333  0.33333333  0.34615385  1.0
  Ag  Ag179  1  0.83333333  0.66666667  0.34615385  1.0
