# generated using pymatgen
data_NiAu3
_symmetry_space_group_name_H-M   'P 1'
_cell_length_a   12.08450400
_cell_length_b   12.08450400
_cell_length_c   28.19717600
_cell_angle_alpha   90.00000000
_cell_angle_beta   90.00000000
_cell_angle_gamma   90.00000000
_symmetry_Int_Tables_number   1
_chemical_formula_structural   NiAu3
_chemical_formula_sum   'Ni27 Au81'
_cell_volume   4117.78127780
_cell_formula_units_Z   27
loop_
 _symmetry_equiv_pos_site_id
 _symmetry_equiv_pos_as_xyz
  1  'x, y, z'
loop_
 _atom_site_type_symbol
 _atom_site_label
 _atom_site_symmetry_multiplicity
 _atom_site_fract_x
 _atom_site_fract_y
 _atom_site_fract_z
 _atom_site_occupancy
  Ni  Ni0  1  0.00000000  0.00000000  0.10714286  1.0
  Ni  Ni1  1  0.00000000  0.33333333  0.10714286  1.0
  Ni  Ni2  1  0.00000000  0.66666667  0.10714286  1.0
  Ni  Ni3  1  0.33333333  0.00000000  0.10714286  1.0
  Ni  Ni4  1  0.33333333  0.33333333  0.10714286  1.0
  Ni  Ni5  1  0.33333333  0.66666667  0.10714286  1.0
  Ni  Ni6  1  0.66666667  0.00000000  0.10714286  1.0
  Ni  Ni7  1  0.66666667  0.33333333  0.10714286  1.0
  Ni  Ni8  1  0.66666667  0.66666667  0.10714286  1.0
  Au  Au9  1  0.00000000  0.16666667  0.03571429  1.0
  Au  Au10  1  0.00000000  0.50000000  0.03571429  1.0
  Au  Au11  1  0.00000000  0.83333333  0.03571429  1.0
  Au  Au12  1  0.33333333  0.16666667  0.03571429  1.0
  Au  Au13  1  0.33333333  0.50000000  0.03571429  1.0
  Au  Au14  1  0.33333333  0.83333333  0.03571429  1.0
  Au  Au15  1  0.66666667  0.16666667  0.03571429  1.0
  Au  Au16  1  0.66666667  0.50000000  0.03571429  1.0
  Au  Au17  1  0.66666667  0.83333333  0.03571429  1.0
  Au  Au18  1  0.16666667  0.16666667  0.10714286  1.0
  Au  Au19  1  0.16666667  0.50000000  0.10714286  1.0
  Au  Au20  1  0.16666667  0.83333333  0.10714286  1.0
  Au  Au21  1  0.50000000  0.16666667  0.10714286  1.0
  Au  Au22  1  0.50000000  0.50000000  0.10714286  1.0
  Au  Au23  1  0.50000000  0.83333333  0.10714286  1.0
  Au  Au24  1  0.83333333  0.16666667  0.10714286  1.0
  Au  Au25  1  0.83333333  0.50000000  0.10714286  1.0
  Au  Au26  1  0.83333333  0.83333333  0.10714286  1.0
  Au  Au27  1  0.16666667  0.00000000  0.03571429  1.0
  Au  Au28  1  0.16666667  0.33333333  0.03571429  1.0
  Au  Au29  1  0.16666667  0.66666667  0.03571429  1.0
  Au  Au30  1  0.50000000  0.00000000  0.03571429  1.0
  Au  Au31  1  0.50000000  0.33333333  0.03571429  1.0
  Au  Au32  1  0.50000000  0.66666667  0.03571429  1.0
  Au  Au33  1  0.83333333  0.00000000  0.03571429  1.0
  Au  Au34  1  0.83333333  0.33333333  0.03571429  1.0
  Au  Au35  1  0.83333333  0.66666667  0.03571429  1.0
  Ni  Ni36  1  0.00000000  0.00000000  0.25000000  1.0
  Ni  Ni37  1  0.00000000  0.33333333  0.25000000  1.0
  Ni  Ni38  1  0.00000000  0.66666667  0.25000000  1.0
  Ni  Ni39  1  0.33333333  0.00000000  0.25000000  1.0
  Ni  Ni40  1  0.33333333  0.33333333  0.25000000  1.0
  Ni  Ni41  1  0.33333333  0.66666667  0.25000000  1.0
  Ni  Ni42  1  0.66666667  0.00000000  0.25000000  1.0
  Ni  Ni43  1  0.66666667  0.33333333  0.25000000  1.0
  Ni  Ni44  1  0.66666667  0.66666667  0.25000000  1.0
  Au  Au45  1  0.00000000  0.16666667  0.17857143  1.0
  Au  Au46  1  0.00000000  0.50000000  0.17857143  1.0
  Au  Au47  1  0.00000000  0.83333333  0.17857143  1.0
  Au  Au48  1  0.33333333  0.16666667  0.17857143  1.0
  Au  Au49  1  0.33333333  0.50000000  0.17857143  1.0
  Au  Au50  1  0.33333333  0.83333333  0.17857143  1.0
  Au  Au51  1  0.66666667  0.16666667  0.17857143  1.0
  Au  Au52  1  0.66666667  0.50000000  0.17857143  1.0
  Au  Au53  1  0.66666667  0.83333333  0.17857143  1.0
  Au  Au54  1  0.16666667  0.16666667  0.25000000  1.0
  Au  Au55  1  0.16666667  0.50000000  0.25000000  1.0
  Au  Au56  1  0.16666667  0.83333333  0.25000000  1.0
  Au  Au57  1  0.50000000  0.16666667  0.25000000  1.0
  Au  Au58  1  0.50000000  0.50000000  0.25000000  1.0
  Au  Au59  1  0.50000000  0.83333333  0.25000000  1.0
  Au  Au60  1  0.83333333  0.16666667  0.25000000  1.0
  Au  Au61  1  0.83333333  0.50000000  0.25000000  1.0
  Au  Au62  1  0.83333333  0.83333333  0.25000000  1.0
  Au  Au63  1  0.16666667  0.00000000  0.17857143  1.0
  Au  Au64  1  0.16666667  0.33333333  0.17857143  1.0
  Au  Au65  1  0.16666667  0.66666667  0.17857143  1.0
  Au  Au66  1  0.50000000  0.00000000  0.17857143  1.0
  Au  Au67  1  0.50000000  0.33333333  0.17857143  1.0
  Au  Au68  1  0.50000000  0.66666667  0.17857143  1.0
  Au  Au69  1  0.83333333  0.00000000  0.17857143  1.0
  Au  Au70  1  0.83333333  0.33333333  0.17857143  1.0
  Au  Au71  1  0.83333333  0.66666667  0.17857143  1.0
  Ni  Ni72  1  0.00000000  0.00000000  0.39285714  1.0
  Ni  Ni73  1  0.00000000  0.33333333  0.39285714  1.0
  Ni  Ni74  1  0.00000000  0.66666667  0.39285714  1.0
  Ni  Ni75  1  0.33333333  0.00000000  0.39285714  1.0
  Ni  Ni76  1  0.33333333  0.33333333  0.39285714  1.0
  Ni  Ni77  1  0.33333333  0.66666667  0.39285714  1.0
  Ni  Ni78  1  0.66666667  0.00000000  0.39285714  1.0
  Ni  Ni79  1  0.66666667  0.33333333  0.39285714  1.0
  Ni  Ni80  1  0.66666667  0.66666667  0.39285714  1.0
  Au  Au81  1  0.00000000  0.16666667  0.32142857  1.0
  Au  Au82  1  0.00000000  0.50000000  0.32142857  1.0
  Au  Au83  1  0.00000000  0.83333333  0.32142857  1.0
  Au  Au84  1  0.33333333  0.16666667  0.32142857  1.0
  Au  Au85  1  0.33333333  0.50000000  0.32142857  1.0
  Au  Au86  1  0.33333333  0.83333333  0.32142857  1.0
  Au  Au87  1  0.66666667  0.16666667  0.32142857  1.0
  Au  Au88  1  0.66666667  0.50000000  0.32142857  1.0
  Au  Au89  1  0.66666667  0.83333333  0.32142857  1.0
  Au  Au90  1  0.16666667  0.16666667  0.39285714  1.0
  Au  Au91  1  0.16666667  0.50000000  0.39285714  1.0
  Au  Au92  1  0.16666667  0.83333333  0.39285714  1.0
  Au  Au93  1  0.50000000  0.16666667  0.39285714  1.0
  Au  Au94  1  0.50000000  0.50000000  0.39285714  1.0
  Au  Au95  1  0.50000000  0.83333333  0.39285714  1.0
  Au  Au96  1  0.83333333  0.16666667  0.39285714  1.0
  Au  Au97  1  0.83333333  0.50000000  0.39285714  1.0
  Au  Au98  1  0.83333333  0.83333333  0.39285714  1.0
  Au  Au99  1  0.16666667  0.00000000  0.32142857  1.0
  Au  Au100  1  0.16666667  0.33333333  0.32142857  1.0
  Au  Au101  1  0.16666667  0.66666667  0.32142857  1.0
  Au  Au102  1  0.50000000  0.00000000  0.32142857  1.0
  Au  Au103  1  0.50000000  0.33333333  0.32142857  1.0
  Au  Au104  1  0.50000000  0.66666667  0.32142857  1.0
  Au  Au105  1  0.83333333  0.00000000  0.32142857  1.0
  Au  Au106  1  0.83333333  0.33333333  0.32142857  1.0
  Au  Au107  1  0.83333333  0.66666667  0.32142857  1.0
