# generated using pymatgen
data_NiAu3
_symmetry_space_group_name_H-M   'P 1'
_cell_length_a   29.46080055
_cell_length_b   22.07226130
_cell_length_c   37.51117600
_cell_angle_alpha   129.59091162
_cell_angle_beta   90.00000000
_cell_angle_gamma   90.00000000
_symmetry_Int_Tables_number   1
_chemical_formula_structural   NiAu3
_chemical_formula_sum   'Ni108 Au324'
_cell_volume   18797.02592326
_cell_formula_units_Z   108
loop_
 _symmetry_equiv_pos_site_id
 _symmetry_equiv_pos_as_xyz
  1  'x, y, z'
loop_
 _atom_site_type_symbol
 _atom_site_label
 _atom_site_symmetry_multiplicity
 _atom_site_fract_x
 _atom_site_fract_y
 _atom_site_fract_z
 _atom_site_occupancy
  Ni  Ni0  1  0.05555556  0.16666667  0.07843028  1.0
  Ni  Ni1  1  0.05555556  0.50000000  0.07843028  1.0
  Ni  Ni2  1  0.05555556  0.83333333  0.07843028  1.0
  Ni  Ni3  1  0.38888889  0.16666667  0.07843028  1.0
  Ni  Ni4  1  0.38888889  0.50000000  0.07843028  1.0
  Ni  Ni5  1  0.38888889  0.83333333  0.07843028  1.0
  Ni  Ni6  1  0.72222222  0.16666667  0.07843028  1.0
  Ni  Ni7  1  0.72222222  0.50000000  0.07843028  1.0
  Ni  Ni8  1  0.72222222  0.83333333  0.07843028  1.0
  Ni  Ni9  1  0.22222222  0.00000000  0.01593028  1.0
  Ni  Ni10  1  0.22222222  0.33333333  0.01593028  1.0
  Ni  Ni11  1  0.22222222  0.66666667  0.01593028  1.0
  Ni  Ni12  1  0.55555556  0.00000000  0.01593028  1.0
  Ni  Ni13  1  0.55555556  0.33333333  0.01593028  1.0
  Ni  Ni14  1  0.55555556  0.66666667  0.01593028  1.0
  Ni  Ni15  1  0.88888889  0.00000000  0.01593028  1.0
  Ni  Ni16  1  0.88888889  0.33333333  0.01593028  1.0
  Ni  Ni17  1  0.88888889  0.66666667  0.01593028  1.0
  Ni  Ni18  1  0.11111111  0.00000000  0.07843028  1.0
  Ni  Ni19  1  0.11111111  0.33333333  0.07843028  1.0
  Ni  Ni20  1  0.11111111  0.66666667  0.07843028  1.0
  Ni  Ni21  1  0.44444444  0.00000000  0.07843028  1.0
  Ni  Ni22  1  0.44444444  0.33333333  0.07843028  1.0
  Ni  Ni23  1  0.44444444  0.66666667  0.07843028  1.0
  Ni  Ni24  1  0.77777778  0.00000000  0.07843028  1.0
  Ni  Ni25  1  0.77777778  0.33333333  0.07843028  1.0
  Ni  Ni26  1  0.77777778  0.66666667  0.07843028  1.0
  Ni  Ni27  1  0.27777778  0.16666667  0.01593028  1.0
  Ni  Ni28  1  0.27777778  0.50000000  0.01593028  1.0
  Ni  Ni29  1  0.27777778  0.83333333  0.01593028  1.0
  Ni  Ni30  1  0.61111111  0.16666667  0.01593028  1.0
  Ni  Ni31  1  0.61111111  0.50000000  0.01593028  1.0
  Ni  Ni32  1  0.61111111  0.83333333  0.01593028  1.0
  Ni  Ni33  1  0.94444444  0.16666667  0.01593028  1.0
  Ni  Ni34  1  0.94444444  0.50000000  0.01593028  1.0
  Ni  Ni35  1  0.94444444  0.83333333  0.01593028  1.0
  Au  Au36  1  0.02832050  0.08496150  0.11029084  1.0
  Au  Au37  1  0.02832050  0.41829483  0.11029084  1.0
  Au  Au38  1  0.02832050  0.75162817  0.11029084  1.0
  Au  Au39  1  0.36165383  0.08496150  0.11029084  1.0
  Au  Au40  1  0.36165383  0.41829483  0.11029084  1.0
  Au  Au41  1  0.36165383  0.75162817  0.11029084  1.0
  Au  Au42  1  0.69498717  0.08496150  0.11029084  1.0
  Au  Au43  1  0.69498717  0.41829483  0.11029084  1.0
  Au  Au44  1  0.69498717  0.75162817  0.11029084  1.0
  Au  Au45  1  0.19498717  0.25162817  0.04779084  1.0
  Au  Au46  1  0.19498717  0.58496150  0.04779084  1.0
  Au  Au47  1  0.19498717  0.91829483  0.04779084  1.0
  Au  Au48  1  0.52832050  0.25162817  0.04779084  1.0
  Au  Au49  1  0.52832050  0.58496150  0.04779084  1.0
  Au  Au50  1  0.52832050  0.91829483  0.04779084  1.0
  Au  Au51  1  0.86165383  0.25162817  0.04779084  1.0
  Au  Au52  1  0.86165383  0.58496150  0.04779084  1.0
  Au  Au53  1  0.86165383  0.91829483  0.04779084  1.0
  Au  Au54  1  0.02832050  0.24837183  0.04656972  1.0
  Au  Au55  1  0.02832050  0.58170517  0.04656972  1.0
  Au  Au56  1  0.02832050  0.91503850  0.04656972  1.0
  Au  Au57  1  0.36165383  0.24837183  0.04656972  1.0
  Au  Au58  1  0.36165383  0.58170517  0.04656972  1.0
  Au  Au59  1  0.36165383  0.91503850  0.04656972  1.0
  Au  Au60  1  0.69498717  0.24837183  0.04656972  1.0
  Au  Au61  1  0.69498717  0.58170517  0.04656972  1.0
  Au  Au62  1  0.69498717  0.91503850  0.04656972  1.0
  Au  Au63  1  0.19498717  0.08170517  0.10906972  1.0
  Au  Au64  1  0.19498717  0.41503850  0.10906972  1.0
  Au  Au65  1  0.19498717  0.74837183  0.10906972  1.0
  Au  Au66  1  0.52832050  0.08170517  0.10906972  1.0
  Au  Au67  1  0.52832050  0.41503850  0.10906972  1.0
  Au  Au68  1  0.52832050  0.74837183  0.10906972  1.0
  Au  Au69  1  0.86165383  0.08170517  0.10906972  1.0
  Au  Au70  1  0.86165383  0.41503850  0.10906972  1.0
  Au  Au71  1  0.86165383  0.74837183  0.10906972  1.0
  Au  Au72  1  0.11002567  0.16666667  0.01593028  1.0
  Au  Au73  1  0.11002567  0.50000000  0.01593028  1.0
  Au  Au74  1  0.11002567  0.83333333  0.01593028  1.0
  Au  Au75  1  0.44335900  0.16666667  0.01593028  1.0
  Au  Au76  1  0.44335900  0.50000000  0.01593028  1.0
  Au  Au77  1  0.44335900  0.83333333  0.01593028  1.0
  Au  Au78  1  0.77669233  0.16666667  0.01593028  1.0
  Au  Au79  1  0.77669233  0.50000000  0.01593028  1.0
  Au  Au80  1  0.77669233  0.83333333  0.01593028  1.0
  Au  Au81  1  0.27669233  0.00000000  0.07843028  1.0
  Au  Au82  1  0.27669233  0.33333333  0.07843028  1.0
  Au  Au83  1  0.27669233  0.66666667  0.07843028  1.0
  Au  Au84  1  0.61002567  0.00000000  0.07843028  1.0
  Au  Au85  1  0.61002567  0.33333333  0.07843028  1.0
  Au  Au86  1  0.61002567  0.66666667  0.07843028  1.0
  Au  Au87  1  0.94335900  0.00000000  0.07843028  1.0
  Au  Au88  1  0.94335900  0.33333333  0.07843028  1.0
  Au  Au89  1  0.94335900  0.66666667  0.07843028  1.0
  Au  Au90  1  0.13834617  0.25162817  0.11029084  1.0
  Au  Au91  1  0.13834617  0.58496150  0.11029084  1.0
  Au  Au92  1  0.13834617  0.91829483  0.11029084  1.0
  Au  Au93  1  0.47167950  0.25162817  0.11029084  1.0
  Au  Au94  1  0.47167950  0.58496150  0.11029084  1.0
  Au  Au95  1  0.47167950  0.91829483  0.11029084  1.0
  Au  Au96  1  0.80501283  0.25162817  0.11029084  1.0
  Au  Au97  1  0.80501283  0.58496150  0.11029084  1.0
  Au  Au98  1  0.80501283  0.91829483  0.11029084  1.0
  Au  Au99  1  0.30501283  0.08496150  0.04779084  1.0
  Au  Au100  1  0.30501283  0.41829483  0.04779084  1.0
  Au  Au101  1  0.30501283  0.75162817  0.04779084  1.0
  Au  Au102  1  0.63834617  0.08496150  0.04779084  1.0
  Au  Au103  1  0.63834617  0.41829483  0.04779084  1.0
  Au  Au104  1  0.63834617  0.75162817  0.04779084  1.0
  Au  Au105  1  0.97167950  0.08496150  0.04779084  1.0
  Au  Au106  1  0.97167950  0.41829483  0.04779084  1.0
  Au  Au107  1  0.97167950  0.75162817  0.04779084  1.0
  Au  Au108  1  0.05664100  0.00000000  0.01593028  1.0
  Au  Au109  1  0.05664100  0.33333333  0.01593028  1.0
  Au  Au110  1  0.05664100  0.66666667  0.01593028  1.0
  Au  Au111  1  0.38997433  0.00000000  0.01593028  1.0
  Au  Au112  1  0.38997433  0.33333333  0.01593028  1.0
  Au  Au113  1  0.38997433  0.66666667  0.01593028  1.0
  Au  Au114  1  0.72330767  0.00000000  0.01593028  1.0
  Au  Au115  1  0.72330767  0.33333333  0.01593028  1.0
  Au  Au116  1  0.72330767  0.66666667  0.01593028  1.0
  Au  Au117  1  0.22330767  0.16666667  0.07843028  1.0
  Au  Au118  1  0.22330767  0.50000000  0.07843028  1.0
  Au  Au119  1  0.22330767  0.83333333  0.07843028  1.0
  Au  Au120  1  0.55664100  0.16666667  0.07843028  1.0
  Au  Au121  1  0.55664100  0.50000000  0.07843028  1.0
  Au  Au122  1  0.55664100  0.83333333  0.07843028  1.0
  Au  Au123  1  0.88997433  0.16666667  0.07843028  1.0
  Au  Au124  1  0.88997433  0.50000000  0.07843028  1.0
  Au  Au125  1  0.88997433  0.83333333  0.07843028  1.0
  Au  Au126  1  0.13834617  0.08170517  0.04656972  1.0
  Au  Au127  1  0.13834617  0.41503850  0.04656972  1.0
  Au  Au128  1  0.13834617  0.74837183  0.04656972  1.0
  Au  Au129  1  0.47167950  0.08170517  0.04656972  1.0
  Au  Au130  1  0.47167950  0.41503850  0.04656972  1.0
  Au  Au131  1  0.47167950  0.74837183  0.04656972  1.0
  Au  Au132  1  0.80501283  0.08170517  0.04656972  1.0
  Au  Au133  1  0.80501283  0.41503850  0.04656972  1.0
  Au  Au134  1  0.80501283  0.74837183  0.04656972  1.0
  Au  Au135  1  0.30501283  0.24837183  0.10906972  1.0
  Au  Au136  1  0.30501283  0.58170517  0.10906972  1.0
  Au  Au137  1  0.30501283  0.91503850  0.10906972  1.0
  Au  Au138  1  0.63834617  0.24837183  0.10906972  1.0
  Au  Au139  1  0.63834617  0.58170517  0.10906972  1.0
  Au  Au140  1  0.63834617  0.91503850  0.10906972  1.0
  Au  Au141  1  0.97167950  0.24837183  0.10906972  1.0
  Au  Au142  1  0.97167950  0.58170517  0.10906972  1.0
  Au  Au143  1  0.97167950  0.91503850  0.10906972  1.0
  Ni  Ni144  1  0.05555556  0.16666667  0.20343028  1.0
  Ni  Ni145  1  0.05555556  0.50000000  0.20343028  1.0
  Ni  Ni146  1  0.05555556  0.83333333  0.20343028  1.0
  Ni  Ni147  1  0.38888889  0.16666667  0.20343028  1.0
  Ni  Ni148  1  0.38888889  0.50000000  0.20343028  1.0
  Ni  Ni149  1  0.38888889  0.83333333  0.20343028  1.0
  Ni  Ni150  1  0.72222222  0.16666667  0.20343028  1.0
  Ni  Ni151  1  0.72222222  0.50000000  0.20343028  1.0
  Ni  Ni152  1  0.72222222  0.83333333  0.20343028  1.0
  Ni  Ni153  1  0.22222222  0.00000000  0.14093028  1.0
  Ni  Ni154  1  0.22222222  0.33333333  0.14093028  1.0
  Ni  Ni155  1  0.22222222  0.66666667  0.14093028  1.0
  Ni  Ni156  1  0.55555556  0.00000000  0.14093028  1.0
  Ni  Ni157  1  0.55555556  0.33333333  0.14093028  1.0
  Ni  Ni158  1  0.55555556  0.66666667  0.14093028  1.0
  Ni  Ni159  1  0.88888889  0.00000000  0.14093028  1.0
  Ni  Ni160  1  0.88888889  0.33333333  0.14093028  1.0
  Ni  Ni161  1  0.88888889  0.66666667  0.14093028  1.0
  Ni  Ni162  1  0.11111111  0.00000000  0.20343028  1.0
  Ni  Ni163  1  0.11111111  0.33333333  0.20343028  1.0
  Ni  Ni164  1  0.11111111  0.66666667  0.20343028  1.0
  Ni  Ni165  1  0.44444444  0.00000000  0.20343028  1.0
  Ni  Ni166  1  0.44444444  0.33333333  0.20343028  1.0
  Ni  Ni167  1  0.44444444  0.66666667  0.20343028  1.0
  Ni  Ni168  1  0.77777778  0.00000000  0.20343028  1.0
  Ni  Ni169  1  0.77777778  0.33333333  0.20343028  1.0
  Ni  Ni170  1  0.77777778  0.66666667  0.20343028  1.0
  Ni  Ni171  1  0.27777778  0.16666667  0.14093028  1.0
  Ni  Ni172  1  0.27777778  0.50000000  0.14093028  1.0
  Ni  Ni173  1  0.27777778  0.83333333  0.14093028  1.0
  Ni  Ni174  1  0.61111111  0.16666667  0.14093028  1.0
  Ni  Ni175  1  0.61111111  0.50000000  0.14093028  1.0
  Ni  Ni176  1  0.61111111  0.83333333  0.14093028  1.0
  Ni  Ni177  1  0.94444444  0.16666667  0.14093028  1.0
  Ni  Ni178  1  0.94444444  0.50000000  0.14093028  1.0
  Ni  Ni179  1  0.94444444  0.83333333  0.14093028  1.0
  Au  Au180  1  0.02832050  0.08496150  0.23529084  1.0
  Au  Au181  1  0.02832050  0.41829483  0.23529084  1.0
  Au  Au182  1  0.02832050  0.75162817  0.23529084  1.0
  Au  Au183  1  0.36165383  0.08496150  0.23529084  1.0
  Au  Au184  1  0.36165383  0.41829483  0.23529084  1.0
  Au  Au185  1  0.36165383  0.75162817  0.23529084  1.0
  Au  Au186  1  0.69498717  0.08496150  0.23529084  1.0
  Au  Au187  1  0.69498717  0.41829483  0.23529084  1.0
  Au  Au188  1  0.69498717  0.75162817  0.23529084  1.0
  Au  Au189  1  0.19498717  0.25162817  0.17279084  1.0
  Au  Au190  1  0.19498717  0.58496150  0.17279084  1.0
  Au  Au191  1  0.19498717  0.91829483  0.17279084  1.0
  Au  Au192  1  0.52832050  0.25162817  0.17279084  1.0
  Au  Au193  1  0.52832050  0.58496150  0.17279084  1.0
  Au  Au194  1  0.52832050  0.91829483  0.17279084  1.0
  Au  Au195  1  0.86165383  0.25162817  0.17279084  1.0
  Au  Au196  1  0.86165383  0.58496150  0.17279084  1.0
  Au  Au197  1  0.86165383  0.91829483  0.17279084  1.0
  Au  Au198  1  0.02832050  0.24837183  0.17156972  1.0
  Au  Au199  1  0.02832050  0.58170517  0.17156972  1.0
  Au  Au200  1  0.02832050  0.91503850  0.17156972  1.0
  Au  Au201  1  0.36165383  0.24837183  0.17156972  1.0
  Au  Au202  1  0.36165383  0.58170517  0.17156972  1.0
  Au  Au203  1  0.36165383  0.91503850  0.17156972  1.0
  Au  Au204  1  0.69498717  0.24837183  0.17156972  1.0
  Au  Au205  1  0.69498717  0.58170517  0.17156972  1.0
  Au  Au206  1  0.69498717  0.91503850  0.17156972  1.0
  Au  Au207  1  0.19498717  0.08170517  0.23406972  1.0
  Au  Au208  1  0.19498717  0.41503850  0.23406972  1.0
  Au  Au209  1  0.19498717  0.74837183  0.23406972  1.0
  Au  Au210  1  0.52832050  0.08170517  0.23406972  1.0
  Au  Au211  1  0.52832050  0.41503850  0.23406972  1.0
  Au  Au212  1  0.52832050  0.74837183  0.23406972  1.0
  Au  Au213  1  0.86165383  0.08170517  0.23406972  1.0
  Au  Au214  1  0.86165383  0.41503850  0.23406972  1.0
  Au  Au215  1  0.86165383  0.74837183  0.23406972  1.0
  Au  Au216  1  0.11002567  0.16666667  0.14093028  1.0
  Au  Au217  1  0.11002567  0.50000000  0.14093028  1.0
  Au  Au218  1  0.11002567  0.83333333  0.14093028  1.0
  Au  Au219  1  0.44335900  0.16666667  0.14093028  1.0
  Au  Au220  1  0.44335900  0.50000000  0.14093028  1.0
  Au  Au221  1  0.44335900  0.83333333  0.14093028  1.0
  Au  Au222  1  0.77669233  0.16666667  0.14093028  1.0
  Au  Au223  1  0.77669233  0.50000000  0.14093028  1.0
  Au  Au224  1  0.77669233  0.83333333  0.14093028  1.0
  Au  Au225  1  0.27669233  0.00000000  0.20343028  1.0
  Au  Au226  1  0.27669233  0.33333333  0.20343028  1.0
  Au  Au227  1  0.27669233  0.66666667  0.20343028  1.0
  Au  Au228  1  0.61002567  0.00000000  0.20343028  1.0
  Au  Au229  1  0.61002567  0.33333333  0.20343028  1.0
  Au  Au230  1  0.61002567  0.66666667  0.20343028  1.0
  Au  Au231  1  0.94335900  0.00000000  0.20343028  1.0
  Au  Au232  1  0.94335900  0.33333333  0.20343028  1.0
  Au  Au233  1  0.94335900  0.66666667  0.20343028  1.0
  Au  Au234  1  0.13834617  0.25162817  0.23529084  1.0
  Au  Au235  1  0.13834617  0.58496150  0.23529084  1.0
  Au  Au236  1  0.13834617  0.91829483  0.23529084  1.0
  Au  Au237  1  0.47167950  0.25162817  0.23529084  1.0
  Au  Au238  1  0.47167950  0.58496150  0.23529084  1.0
  Au  Au239  1  0.47167950  0.91829483  0.23529084  1.0
  Au  Au240  1  0.80501283  0.25162817  0.23529084  1.0
  Au  Au241  1  0.80501283  0.58496150  0.23529084  1.0
  Au  Au242  1  0.80501283  0.91829483  0.23529084  1.0
  Au  Au243  1  0.30501283  0.08496150  0.17279084  1.0
  Au  Au244  1  0.30501283  0.41829483  0.17279084  1.0
  Au  Au245  1  0.30501283  0.75162817  0.17279084  1.0
  Au  Au246  1  0.63834617  0.08496150  0.17279084  1.0
  Au  Au247  1  0.63834617  0.41829483  0.17279084  1.0
  Au  Au248  1  0.63834617  0.75162817  0.17279084  1.0
  Au  Au249  1  0.97167950  0.08496150  0.17279084  1.0
  Au  Au250  1  0.97167950  0.41829483  0.17279084  1.0
  Au  Au251  1  0.97167950  0.75162817  0.17279084  1.0
  Au  Au252  1  0.05664100  0.00000000  0.14093028  1.0
  Au  Au253  1  0.05664100  0.33333333  0.14093028  1.0
  Au  Au254  1  0.05664100  0.66666667  0.14093028  1.0
  Au  Au255  1  0.38997433  0.00000000  0.14093028  1.0
  Au  Au256  1  0.38997433  0.33333333  0.14093028  1.0
  Au  Au257  1  0.38997433  0.66666667  0.14093028  1.0
  Au  Au258  1  0.72330767  0.00000000  0.14093028  1.0
  Au  Au259  1  0.72330767  0.33333333  0.14093028  1.0
  Au  Au260  1  0.72330767  0.66666667  0.14093028  1.0
  Au  Au261  1  0.22330767  0.16666667  0.20343028  1.0
  Au  Au262  1  0.22330767  0.50000000  0.20343028  1.0
  Au  Au263  1  0.22330767  0.83333333  0.20343028  1.0
  Au  Au264  1  0.55664100  0.16666667  0.20343028  1.0
  Au  Au265  1  0.55664100  0.50000000  0.20343028  1.0
  Au  Au266  1  0.55664100  0.83333333  0.20343028  1.0
  Au  Au267  1  0.88997433  0.16666667  0.20343028  1.0
  Au  Au268  1  0.88997433  0.50000000  0.20343028  1.0
  Au  Au269  1  0.88997433  0.83333333  0.20343028  1.0
  Au  Au270  1  0.13834617  0.08170517  0.17156972  1.0
  Au  Au271  1  0.13834617  0.41503850  0.17156972  1.0
  Au  Au272  1  0.13834617  0.74837183  0.17156972  1.0
  Au  Au273  1  0.47167950  0.08170517  0.17156972  1.0
  Au  Au274  1  0.47167950  0.41503850  0.17156972  1.0
  Au  Au275  1  0.47167950  0.74837183  0.17156972  1.0
  Au  Au276  1  0.80501283  0.08170517  0.17156972  1.0
  Au  Au277  1  0.80501283  0.41503850  0.17156972  1.0
  Au  Au278  1  0.80501283  0.74837183  0.17156972  1.0
  Au  Au279  1  0.30501283  0.24837183  0.23406972  1.0
  Au  Au280  1  0.30501283  0.58170517  0.23406972  1.0
  Au  Au281  1  0.30501283  0.91503850  0.23406972  1.0
  Au  Au282  1  0.63834617  0.24837183  0.23406972  1.0
  Au  Au283  1  0.63834617  0.58170517  0.23406972  1.0
  Au  Au284  1  0.63834617  0.91503850  0.23406972  1.0
  Au  Au285  1  0.97167950  0.24837183  0.23406972  1.0
  Au  Au286  1  0.97167950  0.58170517  0.23406972  1.0
  Au  Au287  1  0.97167950  0.91503850  0.23406972  1.0
  Ni  Ni288  1  0.05555556  0.16666667  0.32843028  1.0
  Ni  Ni289  1  0.05555556  0.50000000  0.32843028  1.0
  Ni  Ni290  1  0.05555556  0.83333333  0.32843028  1.0
  Ni  Ni291  1  0.38888889  0.16666667  0.32843028  1.0
  Ni  Ni292  1  0.38888889  0.50000000  0.32843028  1.0
  Ni  Ni293  1  0.38888889  0.83333333  0.32843028  1.0
  Ni  Ni294  1  0.72222222  0.16666667  0.32843028  1.0
  Ni  Ni295  1  0.72222222  0.50000000  0.32843028  1.0
  Ni  Ni296  1  0.72222222  0.83333333  0.32843028  1.0
  Ni  Ni297  1  0.22222222  0.00000000  0.26593028  1.0
  Ni  Ni298  1  0.22222222  0.33333333  0.26593028  1.0
  Ni  Ni299  1  0.22222222  0.66666667  0.26593028  1.0
  Ni  Ni300  1  0.55555556  0.00000000  0.26593028  1.0
  Ni  Ni301  1  0.55555556  0.33333333  0.26593028  1.0
  Ni  Ni302  1  0.55555556  0.66666667  0.26593028  1.0
  Ni  Ni303  1  0.88888889  0.00000000  0.26593028  1.0
  Ni  Ni304  1  0.88888889  0.33333333  0.26593028  1.0
  Ni  Ni305  1  0.88888889  0.66666667  0.26593028  1.0
  Ni  Ni306  1  0.11111111  0.00000000  0.32843028  1.0
  Ni  Ni307  1  0.11111111  0.33333333  0.32843028  1.0
  Ni  Ni308  1  0.11111111  0.66666667  0.32843028  1.0
  Ni  Ni309  1  0.44444444  0.00000000  0.32843028  1.0
  Ni  Ni310  1  0.44444444  0.33333333  0.32843028  1.0
  Ni  Ni311  1  0.44444444  0.66666667  0.32843028  1.0
  Ni  Ni312  1  0.77777778  0.00000000  0.32843028  1.0
  Ni  Ni313  1  0.77777778  0.33333333  0.32843028  1.0
  Ni  Ni314  1  0.77777778  0.66666667  0.32843028  1.0
  Ni  Ni315  1  0.27777778  0.16666667  0.26593028  1.0
  Ni  Ni316  1  0.27777778  0.50000000  0.26593028  1.0
  Ni  Ni317  1  0.27777778  0.83333333  0.26593028  1.0
  Ni  Ni318  1  0.61111111  0.16666667  0.26593028  1.0
  Ni  Ni319  1  0.61111111  0.50000000  0.26593028  1.0
  Ni  Ni320  1  0.61111111  0.83333333  0.26593028  1.0
  Ni  Ni321  1  0.94444444  0.16666667  0.26593028  1.0
  Ni  Ni322  1  0.94444444  0.50000000  0.26593028  1.0
  Ni  Ni323  1  0.94444444  0.83333333  0.26593028  1.0
  Au  Au324  1  0.02832050  0.08496150  0.36029084  1.0
  Au  Au325  1  0.02832050  0.41829483  0.36029084  1.0
  Au  Au326  1  0.02832050  0.75162817  0.36029084  1.0
  Au  Au327  1  0.36165383  0.08496150  0.36029084  1.0
  Au  Au328  1  0.36165383  0.41829483  0.36029084  1.0
  Au  Au329  1  0.36165383  0.75162817  0.36029084  1.0
  Au  Au330  1  0.69498717  0.08496150  0.36029084  1.0
  Au  Au331  1  0.69498717  0.41829483  0.36029084  1.0
  Au  Au332  1  0.69498717  0.75162817  0.36029084  1.0
  Au  Au333  1  0.19498717  0.25162817  0.29779084  1.0
  Au  Au334  1  0.19498717  0.58496150  0.29779084  1.0
  Au  Au335  1  0.19498717  0.91829483  0.29779084  1.0
  Au  Au336  1  0.52832050  0.25162817  0.29779084  1.0
  Au  Au337  1  0.52832050  0.58496150  0.29779084  1.0
  Au  Au338  1  0.52832050  0.91829483  0.29779084  1.0
  Au  Au339  1  0.86165383  0.25162817  0.29779084  1.0
  Au  Au340  1  0.86165383  0.58496150  0.29779084  1.0
  Au  Au341  1  0.86165383  0.91829483  0.29779084  1.0
  Au  Au342  1  0.02832050  0.24837183  0.29656972  1.0
  Au  Au343  1  0.02832050  0.58170517  0.29656972  1.0
  Au  Au344  1  0.02832050  0.91503850  0.29656972  1.0
  Au  Au345  1  0.36165383  0.24837183  0.29656972  1.0
  Au  Au346  1  0.36165383  0.58170517  0.29656972  1.0
  Au  Au347  1  0.36165383  0.91503850  0.29656972  1.0
  Au  Au348  1  0.69498717  0.24837183  0.29656972  1.0
  Au  Au349  1  0.69498717  0.58170517  0.29656972  1.0
  Au  Au350  1  0.69498717  0.91503850  0.29656972  1.0
  Au  Au351  1  0.19498717  0.08170517  0.35906972  1.0
  Au  Au352  1  0.19498717  0.41503850  0.35906972  1.0
  Au  Au353  1  0.19498717  0.74837183  0.35906972  1.0
  Au  Au354  1  0.52832050  0.08170517  0.35906972  1.0
  Au  Au355  1  0.52832050  0.41503850  0.35906972  1.0
  Au  Au356  1  0.52832050  0.74837183  0.35906972  1.0
  Au  Au357  1  0.86165383  0.08170517  0.35906972  1.0
  Au  Au358  1  0.86165383  0.41503850  0.35906972  1.0
  Au  Au359  1  0.86165383  0.74837183  0.35906972  1.0
  Au  Au360  1  0.11002567  0.16666667  0.26593028  1.0
  Au  Au361  1  0.11002567  0.50000000  0.26593028  1.0
  Au  Au362  1  0.11002567  0.83333333  0.26593028  1.0
  Au  Au363  1  0.44335900  0.16666667  0.26593028  1.0
  Au  Au364  1  0.44335900  0.50000000  0.26593028  1.0
  Au  Au365  1  0.44335900  0.83333333  0.26593028  1.0
  Au  Au366  1  0.77669233  0.16666667  0.26593028  1.0
  Au  Au367  1  0.77669233  0.50000000  0.26593028  1.0
  Au  Au368  1  0.77669233  0.83333333  0.26593028  1.0
  Au  Au369  1  0.27669233  0.00000000  0.32843028  1.0
  Au  Au370  1  0.27669233  0.33333333  0.32843028  1.0
  Au  Au371  1  0.27669233  0.66666667  0.32843028  1.0
  Au  Au372  1  0.61002567  0.00000000  0.32843028  1.0
  Au  Au373  1  0.61002567  0.33333333  0.32843028  1.0
  Au  Au374  1  0.61002567  0.66666667  0.32843028  1.0
  Au  Au375  1  0.94335900  0.00000000  0.32843028  1.0
  Au  Au376  1  0.94335900  0.33333333  0.32843028  1.0
  Au  Au377  1  0.94335900  0.66666667  0.32843028  1.0
  Au  Au378  1  0.13834617  0.25162817  0.36029084  1.0
  Au  Au379  1  0.13834617  0.58496150  0.36029084  1.0
  Au  Au380  1  0.13834617  0.91829483  0.36029084  1.0
  Au  Au381  1  0.47167950  0.25162817  0.36029084  1.0
  Au  Au382  1  0.47167950  0.58496150  0.36029084  1.0
  Au  Au383  1  0.47167950  0.91829483  0.36029084  1.0
  Au  Au384  1  0.80501283  0.25162817  0.36029084  1.0
  Au  Au385  1  0.80501283  0.58496150  0.36029084  1.0
  Au  Au386  1  0.80501283  0.91829483  0.36029084  1.0
  Au  Au387  1  0.30501283  0.08496150  0.29779084  1.0
  Au  Au388  1  0.30501283  0.41829483  0.29779084  1.0
  Au  Au389  1  0.30501283  0.75162817  0.29779084  1.0
  Au  Au390  1  0.63834617  0.08496150  0.29779084  1.0
  Au  Au391  1  0.63834617  0.41829483  0.29779084  1.0
  Au  Au392  1  0.63834617  0.75162817  0.29779084  1.0
  Au  Au393  1  0.97167950  0.08496150  0.29779084  1.0
  Au  Au394  1  0.97167950  0.41829483  0.29779084  1.0
  Au  Au395  1  0.97167950  0.75162817  0.29779084  1.0
  Au  Au396  1  0.05664100  0.00000000  0.26593028  1.0
  Au  Au397  1  0.05664100  0.33333333  0.26593028  1.0
  Au  Au398  1  0.05664100  0.66666667  0.26593028  1.0
  Au  Au399  1  0.38997433  0.00000000  0.26593028  1.0
  Au  Au400  1  0.38997433  0.33333333  0.26593028  1.0
  Au  Au401  1  0.38997433  0.66666667  0.26593028  1.0
  Au  Au402  1  0.72330767  0.00000000  0.26593028  1.0
  Au  Au403  1  0.72330767  0.33333333  0.26593028  1.0
  Au  Au404  1  0.72330767  0.66666667  0.26593028  1.0
  Au  Au405  1  0.22330767  0.16666667  0.32843028  1.0
  Au  Au406  1  0.22330767  0.50000000  0.32843028  1.0
  Au  Au407  1  0.22330767  0.83333333  0.32843028  1.0
  Au  Au408  1  0.55664100  0.16666667  0.32843028  1.0
  Au  Au409  1  0.55664100  0.50000000  0.32843028  1.0
  Au  Au410  1  0.55664100  0.83333333  0.32843028  1.0
  Au  Au411  1  0.88997433  0.16666667  0.32843028  1.0
  Au  Au412  1  0.88997433  0.50000000  0.32843028  1.0
  Au  Au413  1  0.88997433  0.83333333  0.32843028  1.0
  Au  Au414  1  0.13834617  0.08170517  0.29656972  1.0
  Au  Au415  1  0.13834617  0.41503850  0.29656972  1.0
  Au  Au416  1  0.13834617  0.74837183  0.29656972  1.0
  Au  Au417  1  0.47167950  0.08170517  0.29656972  1.0
  Au  Au418  1  0.47167950  0.41503850  0.29656972  1.0
  Au  Au419  1  0.47167950  0.74837183  0.29656972  1.0
  Au  Au420  1  0.80501283  0.08170517  0.29656972  1.0
  Au  Au421  1  0.80501283  0.41503850  0.29656972  1.0
  Au  Au422  1  0.80501283  0.74837183  0.29656972  1.0
  Au  Au423  1  0.30501283  0.24837183  0.35906972  1.0
  Au  Au424  1  0.30501283  0.58170517  0.35906972  1.0
  Au  Au425  1  0.30501283  0.91503850  0.35906972  1.0
  Au  Au426  1  0.63834617  0.24837183  0.35906972  1.0
  Au  Au427  1  0.63834617  0.58170517  0.35906972  1.0
  Au  Au428  1  0.63834617  0.91503850  0.35906972  1.0
  Au  Au429  1  0.97167950  0.24837183  0.35906972  1.0
  Au  Au430  1  0.97167950  0.58170517  0.35906972  1.0
  Au  Au431  1  0.97167950  0.91503850  0.35906972  1.0
