# generated using pymatgen
data_NiAu3
_symmetry_space_group_name_H-M   'P 1'
_cell_length_a   17.09006945
_cell_length_b   20.93097491
_cell_length_c   29.60086859
_cell_angle_alpha   90.00000000
_cell_angle_beta   90.00000000
_cell_angle_gamma   90.00000000
_symmetry_Int_Tables_number   1
_chemical_formula_structural   NiAu3
_chemical_formula_sum   'Ni72 Au216'
_cell_volume   10588.58042864
_cell_formula_units_Z   72
loop_
 _symmetry_equiv_pos_site_id
 _symmetry_equiv_pos_as_xyz
  1  'x, y, z'
loop_
 _atom_site_type_symbol
 _atom_site_label
 _atom_site_symmetry_multiplicity
 _atom_site_fract_x
 _atom_site_fract_y
 _atom_site_fract_z
 _atom_site_occupancy
  Au  Au0  1  0.08333333  0.01388889  0.93055556  1.0
  Au  Au1  1  0.08333333  0.34722222  0.93055556  1.0
  Au  Au2  1  0.08333333  0.68055556  0.93055556  1.0
  Au  Au3  1  0.41666667  0.01388889  0.93055556  1.0
  Au  Au4  1  0.41666667  0.34722222  0.93055556  1.0
  Au  Au5  1  0.41666667  0.68055556  0.93055556  1.0
  Au  Au6  1  0.75000000  0.01388889  0.93055556  1.0
  Au  Au7  1  0.75000000  0.34722222  0.93055556  1.0
  Au  Au8  1  0.75000000  0.68055556  0.93055556  1.0
  Au  Au9  1  0.25000000  0.23611111  0.98611111  1.0
  Au  Au10  1  0.25000000  0.56944444  0.98611111  1.0
  Au  Au11  1  0.25000000  0.90277778  0.98611111  1.0
  Au  Au12  1  0.58333333  0.23611111  0.98611111  1.0
  Au  Au13  1  0.58333333  0.56944444  0.98611111  1.0
  Au  Au14  1  0.58333333  0.90277778  0.98611111  1.0
  Au  Au15  1  0.91666667  0.23611111  0.98611111  1.0
  Au  Au16  1  0.91666667  0.56944444  0.98611111  1.0
  Au  Au17  1  0.91666667  0.90277778  0.98611111  1.0
  Au  Au18  1  0.33333333  0.12500000  0.95833333  1.0
  Au  Au19  1  0.33333333  0.45833333  0.95833333  1.0
  Au  Au20  1  0.33333333  0.79166667  0.95833333  1.0
  Au  Au21  1  0.66666667  0.12500000  0.95833333  1.0
  Au  Au22  1  0.66666667  0.45833333  0.95833333  1.0
  Au  Au23  1  0.66666667  0.79166667  0.95833333  1.0
  Au  Au24  1  0.00000000  0.12500000  0.95833333  1.0
  Au  Au25  1  1.00000000  0.45833333  0.95833333  1.0
  Au  Au26  1  1.00000000  0.79166667  0.95833333  1.0
  Au  Au27  1  0.16666667  0.23611111  0.90277778  1.0
  Au  Au28  1  0.16666667  0.56944444  0.90277778  1.0
  Au  Au29  1  0.16666667  0.90277778  0.90277778  1.0
  Au  Au30  1  0.50000000  0.23611111  0.90277778  1.0
  Au  Au31  1  0.50000000  0.56944444  0.90277778  1.0
  Au  Au32  1  0.50000000  0.90277778  0.90277778  1.0
  Au  Au33  1  0.83333333  0.23611111  0.90277778  1.0
  Au  Au34  1  0.83333333  0.56944444  0.90277778  1.0
  Au  Au35  1  0.83333333  0.90277778  0.90277778  1.0
  Au  Au36  1  0.25000000  0.01388889  0.93055556  1.0
  Au  Au37  1  0.25000000  0.34722222  0.93055556  1.0
  Au  Au38  1  0.25000000  0.68055556  0.93055556  1.0
  Au  Au39  1  0.58333333  0.01388889  0.93055556  1.0
  Au  Au40  1  0.58333333  0.34722222  0.93055556  1.0
  Au  Au41  1  0.58333333  0.68055556  0.93055556  1.0
  Au  Au42  1  0.91666667  0.01388889  0.93055556  1.0
  Au  Au43  1  0.91666667  0.34722222  0.93055556  1.0
  Au  Au44  1  0.91666667  0.68055556  0.93055556  1.0
  Au  Au45  1  0.08333333  0.23611111  0.98611111  1.0
  Au  Au46  1  0.08333333  0.56944444  0.98611111  1.0
  Au  Au47  1  0.08333333  0.90277778  0.98611111  1.0
  Au  Au48  1  0.41666667  0.23611111  0.98611111  1.0
  Au  Au49  1  0.41666667  0.56944444  0.98611111  1.0
  Au  Au50  1  0.41666667  0.90277778  0.98611111  1.0
  Au  Au51  1  0.75000000  0.23611111  0.98611111  1.0
  Au  Au52  1  0.75000000  0.56944444  0.98611111  1.0
  Au  Au53  1  0.75000000  0.90277778  0.98611111  1.0
  Au  Au54  1  0.08333333  0.23611111  0.81944444  1.0
  Au  Au55  1  0.08333333  0.56944444  0.81944444  1.0
  Au  Au56  1  0.08333333  0.90277778  0.81944444  1.0
  Au  Au57  1  0.41666667  0.23611111  0.81944444  1.0
  Au  Au58  1  0.41666667  0.56944444  0.81944444  1.0
  Au  Au59  1  0.41666667  0.90277778  0.81944444  1.0
  Au  Au60  1  0.75000000  0.23611111  0.81944444  1.0
  Au  Au61  1  0.75000000  0.56944444  0.81944444  1.0
  Au  Au62  1  0.75000000  0.90277778  0.81944444  1.0
  Au  Au63  1  0.25000000  0.12500000  0.87500000  1.0
  Au  Au64  1  0.25000000  0.45833333  0.87500000  1.0
  Au  Au65  1  0.25000000  0.79166667  0.87500000  1.0
  Au  Au66  1  0.58333333  0.12500000  0.87500000  1.0
  Au  Au67  1  0.58333333  0.45833333  0.87500000  1.0
  Au  Au68  1  0.58333333  0.79166667  0.87500000  1.0
  Au  Au69  1  0.91666667  0.12500000  0.87500000  1.0
  Au  Au70  1  0.91666667  0.45833333  0.87500000  1.0
  Au  Au71  1  0.91666667  0.79166667  0.87500000  1.0
  Au  Au72  1  0.00000000  0.01388889  0.84722222  1.0
  Au  Au73  1  0.00000000  0.34722222  0.84722222  1.0
  Au  Au74  1  0.00000000  0.68055556  0.84722222  1.0
  Au  Au75  1  0.33333333  0.01388889  0.84722222  1.0
  Au  Au76  1  0.33333333  0.34722222  0.84722222  1.0
  Au  Au77  1  0.33333333  0.68055556  0.84722222  1.0
  Au  Au78  1  0.66666667  0.01388889  0.84722222  1.0
  Au  Au79  1  0.66666667  0.34722222  0.84722222  1.0
  Au  Au80  1  0.66666667  0.68055556  0.84722222  1.0
  Au  Au81  1  0.16666667  0.12500000  0.79166667  1.0
  Au  Au82  1  0.16666667  0.45833333  0.79166667  1.0
  Au  Au83  1  0.16666667  0.79166667  0.79166667  1.0
  Au  Au84  1  0.50000000  0.12500000  0.79166667  1.0
  Au  Au85  1  0.50000000  0.45833333  0.79166667  1.0
  Au  Au86  1  0.50000000  0.79166667  0.79166667  1.0
  Au  Au87  1  0.83333333  0.12500000  0.79166667  1.0
  Au  Au88  1  0.83333333  0.45833333  0.79166667  1.0
  Au  Au89  1  0.83333333  0.79166667  0.79166667  1.0
  Au  Au90  1  0.25000000  0.23611111  0.81944444  1.0
  Au  Au91  1  0.25000000  0.56944444  0.81944444  1.0
  Au  Au92  1  0.25000000  0.90277778  0.81944444  1.0
  Au  Au93  1  0.58333333  0.23611111  0.81944444  1.0
  Au  Au94  1  0.58333333  0.56944444  0.81944444  1.0
  Au  Au95  1  0.58333333  0.90277778  0.81944444  1.0
  Au  Au96  1  0.91666667  0.23611111  0.81944444  1.0
  Au  Au97  1  0.91666667  0.56944444  0.81944444  1.0
  Au  Au98  1  0.91666667  0.90277778  0.81944444  1.0
  Au  Au99  1  0.08333333  0.12500000  0.87500000  1.0
  Au  Au100  1  0.08333333  0.45833333  0.87500000  1.0
  Au  Au101  1  0.08333333  0.79166667  0.87500000  1.0
  Au  Au102  1  0.41666667  0.12500000  0.87500000  1.0
  Au  Au103  1  0.41666667  0.45833333  0.87500000  1.0
  Au  Au104  1  0.41666667  0.79166667  0.87500000  1.0
  Au  Au105  1  0.75000000  0.12500000  0.87500000  1.0
  Au  Au106  1  0.75000000  0.45833333  0.87500000  1.0
  Au  Au107  1  0.75000000  0.79166667  0.87500000  1.0
  Au  Au108  1  0.08333333  0.12500000  0.70833333  1.0
  Au  Au109  1  0.08333333  0.45833333  0.70833333  1.0
  Au  Au110  1  0.08333333  0.79166667  0.70833333  1.0
  Au  Au111  1  0.41666667  0.12500000  0.70833333  1.0
  Au  Au112  1  0.41666667  0.45833333  0.70833333  1.0
  Au  Au113  1  0.41666667  0.79166667  0.70833333  1.0
  Au  Au114  1  0.75000000  0.12500000  0.70833333  1.0
  Au  Au115  1  0.75000000  0.45833333  0.70833333  1.0
  Au  Au116  1  0.75000000  0.79166667  0.70833333  1.0
  Au  Au117  1  0.25000000  0.01388889  0.76388889  1.0
  Au  Au118  1  0.25000000  0.34722222  0.76388889  1.0
  Au  Au119  1  0.25000000  0.68055556  0.76388889  1.0
  Au  Au120  1  0.58333333  0.01388889  0.76388889  1.0
  Au  Au121  1  0.58333333  0.34722222  0.76388889  1.0
  Au  Au122  1  0.58333333  0.68055556  0.76388889  1.0
  Au  Au123  1  0.91666667  0.01388889  0.76388889  1.0
  Au  Au124  1  0.91666667  0.34722222  0.76388889  1.0
  Au  Au125  1  0.91666667  0.68055556  0.76388889  1.0
  Au  Au126  1  0.00000000  0.23611111  0.73611111  1.0
  Au  Au127  1  0.00000000  0.56944444  0.73611111  1.0
  Au  Au128  1  0.00000000  0.90277778  0.73611111  1.0
  Au  Au129  1  0.33333333  0.23611111  0.73611111  1.0
  Au  Au130  1  0.33333333  0.56944444  0.73611111  1.0
  Au  Au131  1  0.33333333  0.90277778  0.73611111  1.0
  Au  Au132  1  0.66666667  0.23611111  0.73611111  1.0
  Au  Au133  1  0.66666667  0.56944444  0.73611111  1.0
  Au  Au134  1  0.66666667  0.90277778  0.73611111  1.0
  Au  Au135  1  0.16666667  0.01388889  0.68055556  1.0
  Au  Au136  1  0.16666667  0.34722222  0.68055556  1.0
  Au  Au137  1  0.16666667  0.68055556  0.68055556  1.0
  Au  Au138  1  0.50000000  0.01388889  0.68055556  1.0
  Au  Au139  1  0.50000000  0.34722222  0.68055556  1.0
  Au  Au140  1  0.50000000  0.68055556  0.68055556  1.0
  Au  Au141  1  0.83333333  0.01388889  0.68055556  1.0
  Au  Au142  1  0.83333333  0.34722222  0.68055556  1.0
  Au  Au143  1  0.83333333  0.68055556  0.68055556  1.0
  Au  Au144  1  0.25000000  0.12500000  0.70833333  1.0
  Au  Au145  1  0.25000000  0.45833333  0.70833333  1.0
  Au  Au146  1  0.25000000  0.79166667  0.70833333  1.0
  Au  Au147  1  0.58333333  0.12500000  0.70833333  1.0
  Au  Au148  1  0.58333333  0.45833333  0.70833333  1.0
  Au  Au149  1  0.58333333  0.79166667  0.70833333  1.0
  Au  Au150  1  0.91666667  0.12500000  0.70833333  1.0
  Au  Au151  1  0.91666667  0.45833333  0.70833333  1.0
  Au  Au152  1  0.91666667  0.79166667  0.70833333  1.0
  Au  Au153  1  0.08333333  0.01388889  0.76388889  1.0
  Au  Au154  1  0.08333333  0.34722222  0.76388889  1.0
  Au  Au155  1  0.08333333  0.68055556  0.76388889  1.0
  Au  Au156  1  0.41666667  0.01388889  0.76388889  1.0
  Au  Au157  1  0.41666667  0.34722222  0.76388889  1.0
  Au  Au158  1  0.41666667  0.68055556  0.76388889  1.0
  Au  Au159  1  0.75000000  0.01388889  0.76388889  1.0
  Au  Au160  1  0.75000000  0.34722222  0.76388889  1.0
  Au  Au161  1  0.75000000  0.68055556  0.76388889  1.0
  Au  Au162  1  0.08333333  0.01388889  0.59722222  1.0
  Au  Au163  1  0.08333333  0.34722222  0.59722222  1.0
  Au  Au164  1  0.08333333  0.68055556  0.59722222  1.0
  Au  Au165  1  0.41666667  0.01388889  0.59722222  1.0
  Au  Au166  1  0.41666667  0.34722222  0.59722222  1.0
  Au  Au167  1  0.41666667  0.68055556  0.59722222  1.0
  Au  Au168  1  0.75000000  0.01388889  0.59722222  1.0
  Au  Au169  1  0.75000000  0.34722222  0.59722222  1.0
  Au  Au170  1  0.75000000  0.68055556  0.59722222  1.0
  Au  Au171  1  0.25000000  0.23611111  0.65277778  1.0
  Au  Au172  1  0.25000000  0.56944444  0.65277778  1.0
  Au  Au173  1  0.25000000  0.90277778  0.65277778  1.0
  Au  Au174  1  0.58333333  0.23611111  0.65277778  1.0
  Au  Au175  1  0.58333333  0.56944444  0.65277778  1.0
  Au  Au176  1  0.58333333  0.90277778  0.65277778  1.0
  Au  Au177  1  0.91666667  0.23611111  0.65277778  1.0
  Au  Au178  1  0.91666667  0.56944444  0.65277778  1.0
  Au  Au179  1  0.91666667  0.90277778  0.65277778  1.0
  Au  Au180  1  0.00000000  0.12500000  0.62500000  1.0
  Au  Au181  1  0.00000000  0.45833333  0.62500000  1.0
  Au  Au182  1  0.00000000  0.79166667  0.62500000  1.0
  Au  Au183  1  0.33333333  0.12500000  0.62500000  1.0
  Au  Au184  1  0.33333333  0.45833333  0.62500000  1.0
  Au  Au185  1  0.33333333  0.79166667  0.62500000  1.0
  Au  Au186  1  0.66666667  0.12500000  0.62500000  1.0
  Au  Au187  1  0.66666667  0.45833333  0.62500000  1.0
  Au  Au188  1  0.66666667  0.79166667  0.62500000  1.0
  Au  Au189  1  0.16666667  0.23611111  0.56944444  1.0
  Au  Au190  1  0.16666667  0.56944444  0.56944444  1.0
  Au  Au191  1  0.16666667  0.90277778  0.56944444  1.0
  Au  Au192  1  0.50000000  0.23611111  0.56944444  1.0
  Au  Au193  1  0.50000000  0.56944444  0.56944444  1.0
  Au  Au194  1  0.50000000  0.90277778  0.56944444  1.0
  Au  Au195  1  0.83333333  0.23611111  0.56944444  1.0
  Au  Au196  1  0.83333333  0.56944444  0.56944444  1.0
  Au  Au197  1  0.83333333  0.90277778  0.56944444  1.0
  Au  Au198  1  0.25000000  0.01388889  0.59722222  1.0
  Au  Au199  1  0.25000000  0.34722222  0.59722222  1.0
  Au  Au200  1  0.25000000  0.68055556  0.59722222  1.0
  Au  Au201  1  0.58333333  0.01388889  0.59722222  1.0
  Au  Au202  1  0.58333333  0.34722222  0.59722222  1.0
  Au  Au203  1  0.58333333  0.68055556  0.59722222  1.0
  Au  Au204  1  0.91666667  0.01388889  0.59722222  1.0
  Au  Au205  1  0.91666667  0.34722222  0.59722222  1.0
  Au  Au206  1  0.91666667  0.68055556  0.59722222  1.0
  Au  Au207  1  0.08333333  0.23611111  0.65277778  1.0
  Au  Au208  1  0.08333333  0.56944444  0.65277778  1.0
  Au  Au209  1  0.08333333  0.90277778  0.65277778  1.0
  Au  Au210  1  0.41666667  0.23611111  0.65277778  1.0
  Au  Au211  1  0.41666667  0.56944444  0.65277778  1.0
  Au  Au212  1  0.41666667  0.90277778  0.65277778  1.0
  Au  Au213  1  0.75000000  0.23611111  0.65277778  1.0
  Au  Au214  1  0.75000000  0.56944444  0.65277778  1.0
  Au  Au215  1  0.75000000  0.90277778  0.65277778  1.0
  Ni  Ni216  1  0.00000000  0.23611111  0.90277778  1.0
  Ni  Ni217  1  0.00000000  0.56944444  0.90277778  1.0
  Ni  Ni218  1  0.00000000  0.90277778  0.90277778  1.0
  Ni  Ni219  1  0.33333333  0.23611111  0.90277778  1.0
  Ni  Ni220  1  0.33333333  0.56944444  0.90277778  1.0
  Ni  Ni221  1  0.33333333  0.90277778  0.90277778  1.0
  Ni  Ni222  1  0.66666667  0.23611111  0.90277778  1.0
  Ni  Ni223  1  0.66666667  0.56944444  0.90277778  1.0
  Ni  Ni224  1  0.66666667  0.90277778  0.90277778  1.0
  Ni  Ni225  1  0.16666667  0.12500000  0.95833333  1.0
  Ni  Ni226  1  0.16666667  0.45833333  0.95833333  1.0
  Ni  Ni227  1  0.16666667  0.79166667  0.95833333  1.0
  Ni  Ni228  1  0.50000000  0.12500000  0.95833333  1.0
  Ni  Ni229  1  0.50000000  0.45833333  0.95833333  1.0
  Ni  Ni230  1  0.50000000  0.79166667  0.95833333  1.0
  Ni  Ni231  1  0.83333333  0.12500000  0.95833333  1.0
  Ni  Ni232  1  0.83333333  0.45833333  0.95833333  1.0
  Ni  Ni233  1  0.83333333  0.79166667  0.95833333  1.0
  Ni  Ni234  1  0.00000000  0.12500000  0.79166667  1.0
  Ni  Ni235  1  0.00000000  0.45833333  0.79166667  1.0
  Ni  Ni236  1  0.00000000  0.79166667  0.79166667  1.0
  Ni  Ni237  1  0.33333333  0.12500000  0.79166667  1.0
  Ni  Ni238  1  0.33333333  0.45833333  0.79166667  1.0
  Ni  Ni239  1  0.33333333  0.79166667  0.79166667  1.0
  Ni  Ni240  1  0.66666667  0.12500000  0.79166667  1.0
  Ni  Ni241  1  0.66666667  0.45833333  0.79166667  1.0
  Ni  Ni242  1  0.66666667  0.79166667  0.79166667  1.0
  Ni  Ni243  1  0.16666667  0.01388889  0.84722222  1.0
  Ni  Ni244  1  0.16666667  0.34722222  0.84722222  1.0
  Ni  Ni245  1  0.16666667  0.68055556  0.84722222  1.0
  Ni  Ni246  1  0.50000000  0.01388889  0.84722222  1.0
  Ni  Ni247  1  0.50000000  0.34722222  0.84722222  1.0
  Ni  Ni248  1  0.50000000  0.68055556  0.84722222  1.0
  Ni  Ni249  1  0.83333333  0.01388889  0.84722222  1.0
  Ni  Ni250  1  0.83333333  0.34722222  0.84722222  1.0
  Ni  Ni251  1  0.83333333  0.68055556  0.84722222  1.0
  Ni  Ni252  1  0.00000000  0.01388889  0.68055556  1.0
  Ni  Ni253  1  0.00000000  0.34722222  0.68055556  1.0
  Ni  Ni254  1  0.00000000  0.68055556  0.68055556  1.0
  Ni  Ni255  1  0.33333333  0.01388889  0.68055556  1.0
  Ni  Ni256  1  0.33333333  0.34722222  0.68055556  1.0
  Ni  Ni257  1  0.33333333  0.68055556  0.68055556  1.0
  Ni  Ni258  1  0.66666667  0.01388889  0.68055556  1.0
  Ni  Ni259  1  0.66666667  0.34722222  0.68055556  1.0
  Ni  Ni260  1  0.66666667  0.68055556  0.68055556  1.0
  Ni  Ni261  1  0.16666667  0.23611111  0.73611111  1.0
  Ni  Ni262  1  0.16666667  0.56944444  0.73611111  1.0
  Ni  Ni263  1  0.16666667  0.90277778  0.73611111  1.0
  Ni  Ni264  1  0.50000000  0.23611111  0.73611111  1.0
  Ni  Ni265  1  0.50000000  0.56944444  0.73611111  1.0
  Ni  Ni266  1  0.50000000  0.90277778  0.73611111  1.0
  Ni  Ni267  1  0.83333333  0.23611111  0.73611111  1.0
  Ni  Ni268  1  0.83333333  0.56944444  0.73611111  1.0
  Ni  Ni269  1  0.83333333  0.90277778  0.73611111  1.0
  Ni  Ni270  1  0.00000000  0.23611111  0.56944444  1.0
  Ni  Ni271  1  0.00000000  0.56944444  0.56944444  1.0
  Ni  Ni272  1  0.00000000  0.90277778  0.56944444  1.0
  Ni  Ni273  1  0.33333333  0.23611111  0.56944444  1.0
  Ni  Ni274  1  0.33333333  0.56944444  0.56944444  1.0
  Ni  Ni275  1  0.33333333  0.90277778  0.56944444  1.0
  Ni  Ni276  1  0.66666667  0.23611111  0.56944444  1.0
  Ni  Ni277  1  0.66666667  0.56944444  0.56944444  1.0
  Ni  Ni278  1  0.66666667  0.90277778  0.56944444  1.0
  Ni  Ni279  1  0.16666667  0.12500000  0.62500000  1.0
  Ni  Ni280  1  0.16666667  0.45833333  0.62500000  1.0
  Ni  Ni281  1  0.16666667  0.79166667  0.62500000  1.0
  Ni  Ni282  1  0.50000000  0.12500000  0.62500000  1.0
  Ni  Ni283  1  0.50000000  0.45833333  0.62500000  1.0
  Ni  Ni284  1  0.50000000  0.79166667  0.62500000  1.0
  Ni  Ni285  1  0.83333333  0.12500000  0.62500000  1.0
  Ni  Ni286  1  0.83333333  0.45833333  0.62500000  1.0
  Ni  Ni287  1  0.83333333  0.79166667  0.62500000  1.0
