# generated using pymatgen
data_NiAu3
_symmetry_space_group_name_H-M   'P 1'
_cell_length_a   12.08450400
_cell_length_b   17.09006945
_cell_length_c   40.28168000
_cell_angle_alpha   135.00000000
_cell_angle_beta   90.00000000
_cell_angle_gamma   90.00000000
_symmetry_Int_Tables_number   1
_chemical_formula_structural   NiAu3
_chemical_formula_sum   'Ni36 Au108'
_cell_volume   5882.54468258
_cell_formula_units_Z   36
loop_
 _symmetry_equiv_pos_site_id
 _symmetry_equiv_pos_as_xyz
  1  'x, y, z'
loop_
 _atom_site_type_symbol
 _atom_site_label
 _atom_site_symmetry_multiplicity
 _atom_site_fract_x
 _atom_site_fract_y
 _atom_site_fract_z
 _atom_site_occupancy
  Ni  Ni0  1  0.00000000  0.00000000  0.07500000  1.0
  Ni  Ni1  1  0.00000000  0.33333333  0.07500000  1.0
  Ni  Ni2  1  0.00000000  0.66666667  0.07500000  1.0
  Ni  Ni3  1  0.33333333  0.00000000  0.07500000  1.0
  Ni  Ni4  1  0.33333333  0.33333333  0.07500000  1.0
  Ni  Ni5  1  0.33333333  0.66666667  0.07500000  1.0
  Ni  Ni6  1  0.66666667  0.00000000  0.07500000  1.0
  Ni  Ni7  1  0.66666667  0.33333333  0.07500000  1.0
  Ni  Ni8  1  0.66666667  0.66666667  0.07500000  1.0
  Au  Au9  1  0.16666667  0.00000000  0.02500000  1.0
  Au  Au10  1  0.16666667  0.33333333  0.02500000  1.0
  Au  Au11  1  0.16666667  0.66666667  0.02500000  1.0
  Au  Au12  1  0.50000000  0.00000000  0.02500000  1.0
  Au  Au13  1  0.50000000  0.33333333  0.02500000  1.0
  Au  Au14  1  0.50000000  0.66666667  0.02500000  1.0
  Au  Au15  1  0.83333333  0.00000000  0.02500000  1.0
  Au  Au16  1  0.83333333  0.33333333  0.02500000  1.0
  Au  Au17  1  0.83333333  0.66666667  0.02500000  1.0
  Au  Au18  1  0.16666667  0.16666667  0.02500000  1.0
  Au  Au19  1  0.16666667  0.50000000  0.02500000  1.0
  Au  Au20  1  0.16666667  0.83333333  0.02500000  1.0
  Au  Au21  1  0.50000000  0.16666667  0.02500000  1.0
  Au  Au22  1  0.50000000  0.50000000  0.02500000  1.0
  Au  Au23  1  0.50000000  0.83333333  0.02500000  1.0
  Au  Au24  1  0.83333333  0.16666667  0.02500000  1.0
  Au  Au25  1  0.83333333  0.50000000  0.02500000  1.0
  Au  Au26  1  0.83333333  0.83333333  0.02500000  1.0
  Au  Au27  1  0.00000000  0.16666667  0.07500000  1.0
  Au  Au28  1  0.00000000  0.50000000  0.07500000  1.0
  Au  Au29  1  0.00000000  0.83333333  0.07500000  1.0
  Au  Au30  1  0.33333333  0.16666667  0.07500000  1.0
  Au  Au31  1  0.33333333  0.50000000  0.07500000  1.0
  Au  Au32  1  0.33333333  0.83333333  0.07500000  1.0
  Au  Au33  1  0.66666667  0.16666667  0.07500000  1.0
  Au  Au34  1  0.66666667  0.50000000  0.07500000  1.0
  Au  Au35  1  0.66666667  0.83333333  0.07500000  1.0
  Ni  Ni36  1  0.00000000  0.00000000  0.17500000  1.0
  Ni  Ni37  1  0.00000000  0.33333333  0.17500000  1.0
  Ni  Ni38  1  0.00000000  0.66666667  0.17500000  1.0
  Ni  Ni39  1  0.33333333  0.00000000  0.17500000  1.0
  Ni  Ni40  1  0.33333333  0.33333333  0.17500000  1.0
  Ni  Ni41  1  0.33333333  0.66666667  0.17500000  1.0
  Ni  Ni42  1  0.66666667  0.00000000  0.17500000  1.0
  Ni  Ni43  1  0.66666667  0.33333333  0.17500000  1.0
  Ni  Ni44  1  0.66666667  0.66666667  0.17500000  1.0
  Au  Au45  1  0.16666667  0.00000000  0.12500000  1.0
  Au  Au46  1  0.16666667  0.33333333  0.12500000  1.0
  Au  Au47  1  0.16666667  0.66666667  0.12500000  1.0
  Au  Au48  1  0.50000000  0.00000000  0.12500000  1.0
  Au  Au49  1  0.50000000  0.33333333  0.12500000  1.0
  Au  Au50  1  0.50000000  0.66666667  0.12500000  1.0
  Au  Au51  1  0.83333333  0.00000000  0.12500000  1.0
  Au  Au52  1  0.83333333  0.33333333  0.12500000  1.0
  Au  Au53  1  0.83333333  0.66666667  0.12500000  1.0
  Au  Au54  1  0.16666667  0.16666667  0.12500000  1.0
  Au  Au55  1  0.16666667  0.50000000  0.12500000  1.0
  Au  Au56  1  0.16666667  0.83333333  0.12500000  1.0
  Au  Au57  1  0.50000000  0.16666667  0.12500000  1.0
  Au  Au58  1  0.50000000  0.50000000  0.12500000  1.0
  Au  Au59  1  0.50000000  0.83333333  0.12500000  1.0
  Au  Au60  1  0.83333333  0.16666667  0.12500000  1.0
  Au  Au61  1  0.83333333  0.50000000  0.12500000  1.0
  Au  Au62  1  0.83333333  0.83333333  0.12500000  1.0
  Au  Au63  1  0.00000000  0.16666667  0.17500000  1.0
  Au  Au64  1  0.00000000  0.50000000  0.17500000  1.0
  Au  Au65  1  0.00000000  0.83333333  0.17500000  1.0
  Au  Au66  1  0.33333333  0.16666667  0.17500000  1.0
  Au  Au67  1  0.33333333  0.50000000  0.17500000  1.0
  Au  Au68  1  0.33333333  0.83333333  0.17500000  1.0
  Au  Au69  1  0.66666667  0.16666667  0.17500000  1.0
  Au  Au70  1  0.66666667  0.50000000  0.17500000  1.0
  Au  Au71  1  0.66666667  0.83333333  0.17500000  1.0
  Ni  Ni72  1  0.00000000  0.00000000  0.27500000  1.0
  Ni  Ni73  1  0.00000000  0.33333333  0.27500000  1.0
  Ni  Ni74  1  0.00000000  0.66666667  0.27500000  1.0
  Ni  Ni75  1  0.33333333  0.00000000  0.27500000  1.0
  Ni  Ni76  1  0.33333333  0.33333333  0.27500000  1.0
  Ni  Ni77  1  0.33333333  0.66666667  0.27500000  1.0
  Ni  Ni78  1  0.66666667  0.00000000  0.27500000  1.0
  Ni  Ni79  1  0.66666667  0.33333333  0.27500000  1.0
  Ni  Ni80  1  0.66666667  0.66666667  0.27500000  1.0
  Au  Au81  1  0.16666667  0.00000000  0.22500000  1.0
  Au  Au82  1  0.16666667  0.33333333  0.22500000  1.0
  Au  Au83  1  0.16666667  0.66666667  0.22500000  1.0
  Au  Au84  1  0.50000000  0.00000000  0.22500000  1.0
  Au  Au85  1  0.50000000  0.33333333  0.22500000  1.0
  Au  Au86  1  0.50000000  0.66666667  0.22500000  1.0
  Au  Au87  1  0.83333333  0.00000000  0.22500000  1.0
  Au  Au88  1  0.83333333  0.33333333  0.22500000  1.0
  Au  Au89  1  0.83333333  0.66666667  0.22500000  1.0
  Au  Au90  1  0.16666667  0.16666667  0.22500000  1.0
  Au  Au91  1  0.16666667  0.50000000  0.22500000  1.0
  Au  Au92  1  0.16666667  0.83333333  0.22500000  1.0
  Au  Au93  1  0.50000000  0.16666667  0.22500000  1.0
  Au  Au94  1  0.50000000  0.50000000  0.22500000  1.0
  Au  Au95  1  0.50000000  0.83333333  0.22500000  1.0
  Au  Au96  1  0.83333333  0.16666667  0.22500000  1.0
  Au  Au97  1  0.83333333  0.50000000  0.22500000  1.0
  Au  Au98  1  0.83333333  0.83333333  0.22500000  1.0
  Au  Au99  1  0.00000000  0.16666667  0.27500000  1.0
  Au  Au100  1  0.00000000  0.50000000  0.27500000  1.0
  Au  Au101  1  0.00000000  0.83333333  0.27500000  1.0
  Au  Au102  1  0.33333333  0.16666667  0.27500000  1.0
  Au  Au103  1  0.33333333  0.50000000  0.27500000  1.0
  Au  Au104  1  0.33333333  0.83333333  0.27500000  1.0
  Au  Au105  1  0.66666667  0.16666667  0.27500000  1.0
  Au  Au106  1  0.66666667  0.50000000  0.27500000  1.0
  Au  Au107  1  0.66666667  0.83333333  0.27500000  1.0
  Ni  Ni108  1  0.00000000  0.00000000  0.37500000  1.0
  Ni  Ni109  1  0.00000000  0.33333333  0.37500000  1.0
  Ni  Ni110  1  0.00000000  0.66666667  0.37500000  1.0
  Ni  Ni111  1  0.33333333  0.00000000  0.37500000  1.0
  Ni  Ni112  1  0.33333333  0.33333333  0.37500000  1.0
  Ni  Ni113  1  0.33333333  0.66666667  0.37500000  1.0
  Ni  Ni114  1  0.66666667  0.00000000  0.37500000  1.0
  Ni  Ni115  1  0.66666667  0.33333333  0.37500000  1.0
  Ni  Ni116  1  0.66666667  0.66666667  0.37500000  1.0
  Au  Au117  1  0.16666667  0.00000000  0.32500000  1.0
  Au  Au118  1  0.16666667  0.33333333  0.32500000  1.0
  Au  Au119  1  0.16666667  0.66666667  0.32500000  1.0
  Au  Au120  1  0.50000000  0.00000000  0.32500000  1.0
  Au  Au121  1  0.50000000  0.33333333  0.32500000  1.0
  Au  Au122  1  0.50000000  0.66666667  0.32500000  1.0
  Au  Au123  1  0.83333333  0.00000000  0.32500000  1.0
  Au  Au124  1  0.83333333  0.33333333  0.32500000  1.0
  Au  Au125  1  0.83333333  0.66666667  0.32500000  1.0
  Au  Au126  1  0.16666667  0.16666667  0.32500000  1.0
  Au  Au127  1  0.16666667  0.50000000  0.32500000  1.0
  Au  Au128  1  0.16666667  0.83333333  0.32500000  1.0
  Au  Au129  1  0.50000000  0.16666667  0.32500000  1.0
  Au  Au130  1  0.50000000  0.50000000  0.32500000  1.0
  Au  Au131  1  0.50000000  0.83333333  0.32500000  1.0
  Au  Au132  1  0.83333333  0.16666667  0.32500000  1.0
  Au  Au133  1  0.83333333  0.50000000  0.32500000  1.0
  Au  Au134  1  0.83333333  0.83333333  0.32500000  1.0
  Au  Au135  1  0.00000000  0.16666667  0.37500000  1.0
  Au  Au136  1  0.00000000  0.50000000  0.37500000  1.0
  Au  Au137  1  0.00000000  0.83333333  0.37500000  1.0
  Au  Au138  1  0.33333333  0.16666667  0.37500000  1.0
  Au  Au139  1  0.33333333  0.50000000  0.37500000  1.0
  Au  Au140  1  0.33333333  0.83333333  0.37500000  1.0
  Au  Au141  1  0.66666667  0.16666667  0.37500000  1.0
  Au  Au142  1  0.66666667  0.50000000  0.37500000  1.0
  Au  Au143  1  0.66666667  0.83333333  0.37500000  1.0
