# generated using pymatgen
data_NiAu3
_symmetry_space_group_name_H-M   'P 1'
_cell_length_a   29.46080055
_cell_length_b   32.87552442
_cell_length_c   56.69733710
_cell_angle_alpha   121.15679749
_cell_angle_beta   150.00000000
_cell_angle_gamma   63.38034061
_symmetry_Int_Tables_number   1
_chemical_formula_structural   NiAu3
_chemical_formula_sum   'Ni144 Au432'
_cell_volume   23496.28240407
_cell_formula_units_Z   144
loop_
 _symmetry_equiv_pos_site_id
 _symmetry_equiv_pos_as_xyz
  1  'x, y, z'
loop_
 _atom_site_type_symbol
 _atom_site_label
 _atom_site_symmetry_multiplicity
 _atom_site_fract_x
 _atom_site_fract_y
 _atom_site_fract_z
 _atom_site_occupancy
  Ni  Ni0  1  0.22222222  0.12500000  0.03652310  1.0
  Ni  Ni1  1  0.22222222  0.45833333  0.03652310  1.0
  Ni  Ni2  1  0.22222222  0.79166667  0.03652310  1.0
  Ni  Ni3  1  0.55555556  0.12500000  0.03652310  1.0
  Ni  Ni4  1  0.55555556  0.45833333  0.03652310  1.0
  Ni  Ni5  1  0.55555556  0.79166667  0.03652310  1.0
  Ni  Ni6  1  0.88888889  0.12500000  0.03652310  1.0
  Ni  Ni7  1  0.88888889  0.45833333  0.03652310  1.0
  Ni  Ni8  1  0.88888889  0.79166667  0.03652310  1.0
  Ni  Ni9  1  0.22222222  0.29166667  0.08652310  1.0
  Ni  Ni10  1  0.22222222  0.62500000  0.08652310  1.0
  Ni  Ni11  1  0.22222222  0.95833333  0.08652310  1.0
  Ni  Ni12  1  0.55555556  0.29166667  0.08652310  1.0
  Ni  Ni13  1  0.55555556  0.62500000  0.08652310  1.0
  Ni  Ni14  1  0.55555556  0.95833333  0.08652310  1.0
  Ni  Ni15  1  0.88888889  0.29166667  0.08652310  1.0
  Ni  Ni16  1  0.88888889  0.62500000  0.08652310  1.0
  Ni  Ni17  1  0.88888889  0.95833333  0.08652310  1.0
  Ni  Ni18  1  0.11111111  0.04166667  0.01152310  1.0
  Ni  Ni19  1  0.11111111  0.37500000  0.01152310  1.0
  Ni  Ni20  1  0.11111111  0.70833333  0.01152310  1.0
  Ni  Ni21  1  0.44444444  0.04166667  0.01152310  1.0
  Ni  Ni22  1  0.44444444  0.37500000  0.01152310  1.0
  Ni  Ni23  1  0.44444444  0.70833333  0.01152310  1.0
  Ni  Ni24  1  0.77777778  0.04166667  0.01152310  1.0
  Ni  Ni25  1  0.77777778  0.37500000  0.01152310  1.0
  Ni  Ni26  1  0.77777778  0.70833333  0.01152310  1.0
  Ni  Ni27  1  0.11111111  0.20833333  0.06152310  1.0
  Ni  Ni28  1  0.11111111  0.54166667  0.06152310  1.0
  Ni  Ni29  1  0.11111111  0.87500000  0.06152310  1.0
  Ni  Ni30  1  0.44444444  0.20833333  0.06152310  1.0
  Ni  Ni31  1  0.44444444  0.54166667  0.06152310  1.0
  Ni  Ni32  1  0.44444444  0.87500000  0.06152310  1.0
  Ni  Ni33  1  0.77777778  0.20833333  0.06152310  1.0
  Ni  Ni34  1  0.77777778  0.54166667  0.06152310  1.0
  Ni  Ni35  1  0.77777778  0.87500000  0.06152310  1.0
  Au  Au36  1  0.27669233  0.04166667  0.06054620  1.0
  Au  Au37  1  0.27669233  0.37500000  0.06054620  1.0
  Au  Au38  1  0.27669233  0.70833333  0.06054620  1.0
  Au  Au39  1  0.61002567  0.04166667  0.06054620  1.0
  Au  Au40  1  0.61002567  0.37500000  0.06054620  1.0
  Au  Au41  1  0.61002567  0.70833333  0.06054620  1.0
  Au  Au42  1  0.94335900  0.04166667  0.06054620  1.0
  Au  Au43  1  0.94335900  0.37500000  0.06054620  1.0
  Au  Au44  1  0.94335900  0.70833333  0.06054620  1.0
  Au  Au45  1  0.27669233  0.20833333  0.01054620  1.0
  Au  Au46  1  0.27669233  0.54166667  0.01054620  1.0
  Au  Au47  1  0.27669233  0.87500000  0.01054620  1.0
  Au  Au48  1  0.61002567  0.20833333  0.01054620  1.0
  Au  Au49  1  0.61002567  0.54166667  0.01054620  1.0
  Au  Au50  1  0.61002567  0.87500000  0.01054620  1.0
  Au  Au51  1  0.94335900  0.20833333  0.01054620  1.0
  Au  Au52  1  0.94335900  0.54166667  0.01054620  1.0
  Au  Au53  1  0.94335900  0.87500000  0.01054620  1.0
  Au  Au54  1  0.27669233  0.04166667  0.01152310  1.0
  Au  Au55  1  0.27669233  0.37500000  0.01152310  1.0
  Au  Au56  1  0.27669233  0.70833333  0.01152310  1.0
  Au  Au57  1  0.61002567  0.04166667  0.01152310  1.0
  Au  Au58  1  0.61002567  0.37500000  0.01152310  1.0
  Au  Au59  1  0.61002567  0.70833333  0.01152310  1.0
  Au  Au60  1  0.94335900  0.04166667  0.01152310  1.0
  Au  Au61  1  0.94335900  0.37500000  0.01152310  1.0
  Au  Au62  1  0.94335900  0.70833333  0.01152310  1.0
  Au  Au63  1  0.27669233  0.20833333  0.06152310  1.0
  Au  Au64  1  0.27669233  0.54166667  0.06152310  1.0
  Au  Au65  1  0.27669233  0.87500000  0.06152310  1.0
  Au  Au66  1  0.61002567  0.20833333  0.06152310  1.0
  Au  Au67  1  0.61002567  0.54166667  0.06152310  1.0
  Au  Au68  1  0.61002567  0.87500000  0.06152310  1.0
  Au  Au69  1  0.94335900  0.20833333  0.06152310  1.0
  Au  Au70  1  0.94335900  0.54166667  0.06152310  1.0
  Au  Au71  1  0.94335900  0.87500000  0.06152310  1.0
  Au  Au72  1  0.11328200  0.04166667  0.06250000  1.0
  Au  Au73  1  0.11328200  0.37500000  0.06250000  1.0
  Au  Au74  1  0.11328200  0.70833333  0.06250000  1.0
  Au  Au75  1  0.44661533  0.04166667  0.06250000  1.0
  Au  Au76  1  0.44661533  0.37500000  0.06250000  1.0
  Au  Au77  1  0.44661533  0.70833333  0.06250000  1.0
  Au  Au78  1  0.77994867  0.04166667  0.06250000  1.0
  Au  Au79  1  0.77994867  0.37500000  0.06250000  1.0
  Au  Au80  1  0.77994867  0.70833333  0.06250000  1.0
  Au  Au81  1  0.11328200  0.20833333  0.01250000  1.0
  Au  Au82  1  0.11328200  0.54166667  0.01250000  1.0
  Au  Au83  1  0.11328200  0.87500000  0.01250000  1.0
  Au  Au84  1  0.44661533  0.20833333  0.01250000  1.0
  Au  Au85  1  0.44661533  0.54166667  0.01250000  1.0
  Au  Au86  1  0.44661533  0.87500000  0.01250000  1.0
  Au  Au87  1  0.77994867  0.20833333  0.01250000  1.0
  Au  Au88  1  0.77994867  0.54166667  0.01250000  1.0
  Au  Au89  1  0.77994867  0.87500000  0.01250000  1.0
  Au  Au90  1  0.05664100  0.12500000  0.03652310  1.0
  Au  Au91  1  0.05664100  0.45833333  0.03652310  1.0
  Au  Au92  1  0.05664100  0.79166667  0.03652310  1.0
  Au  Au93  1  0.38997433  0.12500000  0.03652310  1.0
  Au  Au94  1  0.38997433  0.45833333  0.03652310  1.0
  Au  Au95  1  0.38997433  0.79166667  0.03652310  1.0
  Au  Au96  1  0.72330767  0.12500000  0.03652310  1.0
  Au  Au97  1  0.72330767  0.45833333  0.03652310  1.0
  Au  Au98  1  0.72330767  0.79166667  0.03652310  1.0
  Au  Au99  1  0.05664100  0.29166667  0.08652310  1.0
  Au  Au100  1  0.05664100  0.62500000  0.08652310  1.0
  Au  Au101  1  0.05664100  0.95833333  0.08652310  1.0
  Au  Au102  1  0.38997433  0.29166667  0.08652310  1.0
  Au  Au103  1  0.38997433  0.62500000  0.08652310  1.0
  Au  Au104  1  0.38997433  0.95833333  0.08652310  1.0
  Au  Au105  1  0.72330767  0.29166667  0.08652310  1.0
  Au  Au106  1  0.72330767  0.62500000  0.08652310  1.0
  Au  Au107  1  0.72330767  0.95833333  0.08652310  1.0
  Au  Au108  1  0.22005133  0.12500000  0.08554620  1.0
  Au  Au109  1  0.22005133  0.45833333  0.08554620  1.0
  Au  Au110  1  0.22005133  0.79166667  0.08554620  1.0
  Au  Au111  1  0.55338467  0.12500000  0.08554620  1.0
  Au  Au112  1  0.55338467  0.45833333  0.08554620  1.0
  Au  Au113  1  0.55338467  0.79166667  0.08554620  1.0
  Au  Au114  1  0.88671800  0.12500000  0.08554620  1.0
  Au  Au115  1  0.88671800  0.45833333  0.08554620  1.0
  Au  Au116  1  0.88671800  0.79166667  0.08554620  1.0
  Au  Au117  1  0.22005133  0.29166667  0.03554620  1.0
  Au  Au118  1  0.22005133  0.62500000  0.03554620  1.0
  Au  Au119  1  0.22005133  0.95833333  0.03554620  1.0
  Au  Au120  1  0.55338467  0.29166667  0.03554620  1.0
  Au  Au121  1  0.55338467  0.62500000  0.03554620  1.0
  Au  Au122  1  0.55338467  0.95833333  0.03554620  1.0
  Au  Au123  1  0.88671800  0.29166667  0.03554620  1.0
  Au  Au124  1  0.88671800  0.62500000  0.03554620  1.0
  Au  Au125  1  0.88671800  0.95833333  0.03554620  1.0
  Au  Au126  1  0.05664100  0.12500000  0.08750000  1.0
  Au  Au127  1  0.05664100  0.45833333  0.08750000  1.0
  Au  Au128  1  0.05664100  0.79166667  0.08750000  1.0
  Au  Au129  1  0.38997433  0.12500000  0.08750000  1.0
  Au  Au130  1  0.38997433  0.45833333  0.08750000  1.0
  Au  Au131  1  0.38997433  0.79166667  0.08750000  1.0
  Au  Au132  1  0.72330767  0.12500000  0.08750000  1.0
  Au  Au133  1  0.72330767  0.45833333  0.08750000  1.0
  Au  Au134  1  0.72330767  0.79166667  0.08750000  1.0
  Au  Au135  1  0.05664100  0.29166667  0.03750000  1.0
  Au  Au136  1  0.05664100  0.62500000  0.03750000  1.0
  Au  Au137  1  0.05664100  0.95833333  0.03750000  1.0
  Au  Au138  1  0.38997433  0.29166667  0.03750000  1.0
  Au  Au139  1  0.38997433  0.62500000  0.03750000  1.0
  Au  Au140  1  0.38997433  0.95833333  0.03750000  1.0
  Au  Au141  1  0.72330767  0.29166667  0.03750000  1.0
  Au  Au142  1  0.72330767  0.62500000  0.03750000  1.0
  Au  Au143  1  0.72330767  0.95833333  0.03750000  1.0
  Ni  Ni144  1  0.22222222  0.12500000  0.13652310  1.0
  Ni  Ni145  1  0.22222222  0.45833333  0.13652310  1.0
  Ni  Ni146  1  0.22222222  0.79166667  0.13652310  1.0
  Ni  Ni147  1  0.55555556  0.12500000  0.13652310  1.0
  Ni  Ni148  1  0.55555556  0.45833333  0.13652310  1.0
  Ni  Ni149  1  0.55555556  0.79166667  0.13652310  1.0
  Ni  Ni150  1  0.88888889  0.12500000  0.13652310  1.0
  Ni  Ni151  1  0.88888889  0.45833333  0.13652310  1.0
  Ni  Ni152  1  0.88888889  0.79166667  0.13652310  1.0
  Ni  Ni153  1  0.22222222  0.29166667  0.18652310  1.0
  Ni  Ni154  1  0.22222222  0.62500000  0.18652310  1.0
  Ni  Ni155  1  0.22222222  0.95833333  0.18652310  1.0
  Ni  Ni156  1  0.55555556  0.29166667  0.18652310  1.0
  Ni  Ni157  1  0.55555556  0.62500000  0.18652310  1.0
  Ni  Ni158  1  0.55555556  0.95833333  0.18652310  1.0
  Ni  Ni159  1  0.88888889  0.29166667  0.18652310  1.0
  Ni  Ni160  1  0.88888889  0.62500000  0.18652310  1.0
  Ni  Ni161  1  0.88888889  0.95833333  0.18652310  1.0
  Ni  Ni162  1  0.11111111  0.04166667  0.11152310  1.0
  Ni  Ni163  1  0.11111111  0.37500000  0.11152310  1.0
  Ni  Ni164  1  0.11111111  0.70833333  0.11152310  1.0
  Ni  Ni165  1  0.44444444  0.04166667  0.11152310  1.0
  Ni  Ni166  1  0.44444444  0.37500000  0.11152310  1.0
  Ni  Ni167  1  0.44444444  0.70833333  0.11152310  1.0
  Ni  Ni168  1  0.77777778  0.04166667  0.11152310  1.0
  Ni  Ni169  1  0.77777778  0.37500000  0.11152310  1.0
  Ni  Ni170  1  0.77777778  0.70833333  0.11152310  1.0
  Ni  Ni171  1  0.11111111  0.20833333  0.16152310  1.0
  Ni  Ni172  1  0.11111111  0.54166667  0.16152310  1.0
  Ni  Ni173  1  0.11111111  0.87500000  0.16152310  1.0
  Ni  Ni174  1  0.44444444  0.20833333  0.16152310  1.0
  Ni  Ni175  1  0.44444444  0.54166667  0.16152310  1.0
  Ni  Ni176  1  0.44444444  0.87500000  0.16152310  1.0
  Ni  Ni177  1  0.77777778  0.20833333  0.16152310  1.0
  Ni  Ni178  1  0.77777778  0.54166667  0.16152310  1.0
  Ni  Ni179  1  0.77777778  0.87500000  0.16152310  1.0
  Au  Au180  1  0.27669233  0.04166667  0.16054620  1.0
  Au  Au181  1  0.27669233  0.37500000  0.16054620  1.0
  Au  Au182  1  0.27669233  0.70833333  0.16054620  1.0
  Au  Au183  1  0.61002567  0.04166667  0.16054620  1.0
  Au  Au184  1  0.61002567  0.37500000  0.16054620  1.0
  Au  Au185  1  0.61002567  0.70833333  0.16054620  1.0
  Au  Au186  1  0.94335900  0.04166667  0.16054620  1.0
  Au  Au187  1  0.94335900  0.37500000  0.16054620  1.0
  Au  Au188  1  0.94335900  0.70833333  0.16054620  1.0
  Au  Au189  1  0.27669233  0.20833333  0.11054620  1.0
  Au  Au190  1  0.27669233  0.54166667  0.11054620  1.0
  Au  Au191  1  0.27669233  0.87500000  0.11054620  1.0
  Au  Au192  1  0.61002567  0.20833333  0.11054620  1.0
  Au  Au193  1  0.61002567  0.54166667  0.11054620  1.0
  Au  Au194  1  0.61002567  0.87500000  0.11054620  1.0
  Au  Au195  1  0.94335900  0.20833333  0.11054620  1.0
  Au  Au196  1  0.94335900  0.54166667  0.11054620  1.0
  Au  Au197  1  0.94335900  0.87500000  0.11054620  1.0
  Au  Au198  1  0.27669233  0.04166667  0.11152310  1.0
  Au  Au199  1  0.27669233  0.37500000  0.11152310  1.0
  Au  Au200  1  0.27669233  0.70833333  0.11152310  1.0
  Au  Au201  1  0.61002567  0.04166667  0.11152310  1.0
  Au  Au202  1  0.61002567  0.37500000  0.11152310  1.0
  Au  Au203  1  0.61002567  0.70833333  0.11152310  1.0
  Au  Au204  1  0.94335900  0.04166667  0.11152310  1.0
  Au  Au205  1  0.94335900  0.37500000  0.11152310  1.0
  Au  Au206  1  0.94335900  0.70833333  0.11152310  1.0
  Au  Au207  1  0.27669233  0.20833333  0.16152310  1.0
  Au  Au208  1  0.27669233  0.54166667  0.16152310  1.0
  Au  Au209  1  0.27669233  0.87500000  0.16152310  1.0
  Au  Au210  1  0.61002567  0.20833333  0.16152310  1.0
  Au  Au211  1  0.61002567  0.54166667  0.16152310  1.0
  Au  Au212  1  0.61002567  0.87500000  0.16152310  1.0
  Au  Au213  1  0.94335900  0.20833333  0.16152310  1.0
  Au  Au214  1  0.94335900  0.54166667  0.16152310  1.0
  Au  Au215  1  0.94335900  0.87500000  0.16152310  1.0
  Au  Au216  1  0.11328200  0.04166667  0.16250000  1.0
  Au  Au217  1  0.11328200  0.37500000  0.16250000  1.0
  Au  Au218  1  0.11328200  0.70833333  0.16250000  1.0
  Au  Au219  1  0.44661533  0.04166667  0.16250000  1.0
  Au  Au220  1  0.44661533  0.37500000  0.16250000  1.0
  Au  Au221  1  0.44661533  0.70833333  0.16250000  1.0
  Au  Au222  1  0.77994867  0.04166667  0.16250000  1.0
  Au  Au223  1  0.77994867  0.37500000  0.16250000  1.0
  Au  Au224  1  0.77994867  0.70833333  0.16250000  1.0
  Au  Au225  1  0.11328200  0.20833333  0.11250000  1.0
  Au  Au226  1  0.11328200  0.54166667  0.11250000  1.0
  Au  Au227  1  0.11328200  0.87500000  0.11250000  1.0
  Au  Au228  1  0.44661533  0.20833333  0.11250000  1.0
  Au  Au229  1  0.44661533  0.54166667  0.11250000  1.0
  Au  Au230  1  0.44661533  0.87500000  0.11250000  1.0
  Au  Au231  1  0.77994867  0.20833333  0.11250000  1.0
  Au  Au232  1  0.77994867  0.54166667  0.11250000  1.0
  Au  Au233  1  0.77994867  0.87500000  0.11250000  1.0
  Au  Au234  1  0.05664100  0.12500000  0.13652310  1.0
  Au  Au235  1  0.05664100  0.45833333  0.13652310  1.0
  Au  Au236  1  0.05664100  0.79166667  0.13652310  1.0
  Au  Au237  1  0.38997433  0.12500000  0.13652310  1.0
  Au  Au238  1  0.38997433  0.45833333  0.13652310  1.0
  Au  Au239  1  0.38997433  0.79166667  0.13652310  1.0
  Au  Au240  1  0.72330767  0.12500000  0.13652310  1.0
  Au  Au241  1  0.72330767  0.45833333  0.13652310  1.0
  Au  Au242  1  0.72330767  0.79166667  0.13652310  1.0
  Au  Au243  1  0.05664100  0.29166667  0.18652310  1.0
  Au  Au244  1  0.05664100  0.62500000  0.18652310  1.0
  Au  Au245  1  0.05664100  0.95833333  0.18652310  1.0
  Au  Au246  1  0.38997433  0.29166667  0.18652310  1.0
  Au  Au247  1  0.38997433  0.62500000  0.18652310  1.0
  Au  Au248  1  0.38997433  0.95833333  0.18652310  1.0
  Au  Au249  1  0.72330767  0.29166667  0.18652310  1.0
  Au  Au250  1  0.72330767  0.62500000  0.18652310  1.0
  Au  Au251  1  0.72330767  0.95833333  0.18652310  1.0
  Au  Au252  1  0.22005133  0.12500000  0.18554620  1.0
  Au  Au253  1  0.22005133  0.45833333  0.18554620  1.0
  Au  Au254  1  0.22005133  0.79166667  0.18554620  1.0
  Au  Au255  1  0.55338467  0.12500000  0.18554620  1.0
  Au  Au256  1  0.55338467  0.45833333  0.18554620  1.0
  Au  Au257  1  0.55338467  0.79166667  0.18554620  1.0
  Au  Au258  1  0.88671800  0.12500000  0.18554620  1.0
  Au  Au259  1  0.88671800  0.45833333  0.18554620  1.0
  Au  Au260  1  0.88671800  0.79166667  0.18554620  1.0
  Au  Au261  1  0.22005133  0.29166667  0.13554620  1.0
  Au  Au262  1  0.22005133  0.62500000  0.13554620  1.0
  Au  Au263  1  0.22005133  0.95833333  0.13554620  1.0
  Au  Au264  1  0.55338467  0.29166667  0.13554620  1.0
  Au  Au265  1  0.55338467  0.62500000  0.13554620  1.0
  Au  Au266  1  0.55338467  0.95833333  0.13554620  1.0
  Au  Au267  1  0.88671800  0.29166667  0.13554620  1.0
  Au  Au268  1  0.88671800  0.62500000  0.13554620  1.0
  Au  Au269  1  0.88671800  0.95833333  0.13554620  1.0
  Au  Au270  1  0.05664100  0.12500000  0.18750000  1.0
  Au  Au271  1  0.05664100  0.45833333  0.18750000  1.0
  Au  Au272  1  0.05664100  0.79166667  0.18750000  1.0
  Au  Au273  1  0.38997433  0.12500000  0.18750000  1.0
  Au  Au274  1  0.38997433  0.45833333  0.18750000  1.0
  Au  Au275  1  0.38997433  0.79166667  0.18750000  1.0
  Au  Au276  1  0.72330767  0.12500000  0.18750000  1.0
  Au  Au277  1  0.72330767  0.45833333  0.18750000  1.0
  Au  Au278  1  0.72330767  0.79166667  0.18750000  1.0
  Au  Au279  1  0.05664100  0.29166667  0.13750000  1.0
  Au  Au280  1  0.05664100  0.62500000  0.13750000  1.0
  Au  Au281  1  0.05664100  0.95833333  0.13750000  1.0
  Au  Au282  1  0.38997433  0.29166667  0.13750000  1.0
  Au  Au283  1  0.38997433  0.62500000  0.13750000  1.0
  Au  Au284  1  0.38997433  0.95833333  0.13750000  1.0
  Au  Au285  1  0.72330767  0.29166667  0.13750000  1.0
  Au  Au286  1  0.72330767  0.62500000  0.13750000  1.0
  Au  Au287  1  0.72330767  0.95833333  0.13750000  1.0
  Ni  Ni288  1  0.22222222  0.12500000  0.23652310  1.0
  Ni  Ni289  1  0.22222222  0.45833333  0.23652310  1.0
  Ni  Ni290  1  0.22222222  0.79166667  0.23652310  1.0
  Ni  Ni291  1  0.55555556  0.12500000  0.23652310  1.0
  Ni  Ni292  1  0.55555556  0.45833333  0.23652310  1.0
  Ni  Ni293  1  0.55555556  0.79166667  0.23652310  1.0
  Ni  Ni294  1  0.88888889  0.12500000  0.23652310  1.0
  Ni  Ni295  1  0.88888889  0.45833333  0.23652310  1.0
  Ni  Ni296  1  0.88888889  0.79166667  0.23652310  1.0
  Ni  Ni297  1  0.22222222  0.29166667  0.28652310  1.0
  Ni  Ni298  1  0.22222222  0.62500000  0.28652310  1.0
  Ni  Ni299  1  0.22222222  0.95833333  0.28652310  1.0
  Ni  Ni300  1  0.55555556  0.29166667  0.28652310  1.0
  Ni  Ni301  1  0.55555556  0.62500000  0.28652310  1.0
  Ni  Ni302  1  0.55555556  0.95833333  0.28652310  1.0
  Ni  Ni303  1  0.88888889  0.29166667  0.28652310  1.0
  Ni  Ni304  1  0.88888889  0.62500000  0.28652310  1.0
  Ni  Ni305  1  0.88888889  0.95833333  0.28652310  1.0
  Ni  Ni306  1  0.11111111  0.04166667  0.21152310  1.0
  Ni  Ni307  1  0.11111111  0.37500000  0.21152310  1.0
  Ni  Ni308  1  0.11111111  0.70833333  0.21152310  1.0
  Ni  Ni309  1  0.44444444  0.04166667  0.21152310  1.0
  Ni  Ni310  1  0.44444444  0.37500000  0.21152310  1.0
  Ni  Ni311  1  0.44444444  0.70833333  0.21152310  1.0
  Ni  Ni312  1  0.77777778  0.04166667  0.21152310  1.0
  Ni  Ni313  1  0.77777778  0.37500000  0.21152310  1.0
  Ni  Ni314  1  0.77777778  0.70833333  0.21152310  1.0
  Ni  Ni315  1  0.11111111  0.20833333  0.26152310  1.0
  Ni  Ni316  1  0.11111111  0.54166667  0.26152310  1.0
  Ni  Ni317  1  0.11111111  0.87500000  0.26152310  1.0
  Ni  Ni318  1  0.44444444  0.20833333  0.26152310  1.0
  Ni  Ni319  1  0.44444444  0.54166667  0.26152310  1.0
  Ni  Ni320  1  0.44444444  0.87500000  0.26152310  1.0
  Ni  Ni321  1  0.77777778  0.20833333  0.26152310  1.0
  Ni  Ni322  1  0.77777778  0.54166667  0.26152310  1.0
  Ni  Ni323  1  0.77777778  0.87500000  0.26152310  1.0
  Au  Au324  1  0.27669233  0.04166667  0.26054620  1.0
  Au  Au325  1  0.27669233  0.37500000  0.26054620  1.0
  Au  Au326  1  0.27669233  0.70833333  0.26054620  1.0
  Au  Au327  1  0.61002567  0.04166667  0.26054620  1.0
  Au  Au328  1  0.61002567  0.37500000  0.26054620  1.0
  Au  Au329  1  0.61002567  0.70833333  0.26054620  1.0
  Au  Au330  1  0.94335900  0.04166667  0.26054620  1.0
  Au  Au331  1  0.94335900  0.37500000  0.26054620  1.0
  Au  Au332  1  0.94335900  0.70833333  0.26054620  1.0
  Au  Au333  1  0.27669233  0.20833333  0.21054620  1.0
  Au  Au334  1  0.27669233  0.54166667  0.21054620  1.0
  Au  Au335  1  0.27669233  0.87500000  0.21054620  1.0
  Au  Au336  1  0.61002567  0.20833333  0.21054620  1.0
  Au  Au337  1  0.61002567  0.54166667  0.21054620  1.0
  Au  Au338  1  0.61002567  0.87500000  0.21054620  1.0
  Au  Au339  1  0.94335900  0.20833333  0.21054620  1.0
  Au  Au340  1  0.94335900  0.54166667  0.21054620  1.0
  Au  Au341  1  0.94335900  0.87500000  0.21054620  1.0
  Au  Au342  1  0.27669233  0.04166667  0.21152310  1.0
  Au  Au343  1  0.27669233  0.37500000  0.21152310  1.0
  Au  Au344  1  0.27669233  0.70833333  0.21152310  1.0
  Au  Au345  1  0.61002567  0.04166667  0.21152310  1.0
  Au  Au346  1  0.61002567  0.37500000  0.21152310  1.0
  Au  Au347  1  0.61002567  0.70833333  0.21152310  1.0
  Au  Au348  1  0.94335900  0.04166667  0.21152310  1.0
  Au  Au349  1  0.94335900  0.37500000  0.21152310  1.0
  Au  Au350  1  0.94335900  0.70833333  0.21152310  1.0
  Au  Au351  1  0.27669233  0.20833333  0.26152310  1.0
  Au  Au352  1  0.27669233  0.54166667  0.26152310  1.0
  Au  Au353  1  0.27669233  0.87500000  0.26152310  1.0
  Au  Au354  1  0.61002567  0.20833333  0.26152310  1.0
  Au  Au355  1  0.61002567  0.54166667  0.26152310  1.0
  Au  Au356  1  0.61002567  0.87500000  0.26152310  1.0
  Au  Au357  1  0.94335900  0.20833333  0.26152310  1.0
  Au  Au358  1  0.94335900  0.54166667  0.26152310  1.0
  Au  Au359  1  0.94335900  0.87500000  0.26152310  1.0
  Au  Au360  1  0.11328200  0.04166667  0.26250000  1.0
  Au  Au361  1  0.11328200  0.37500000  0.26250000  1.0
  Au  Au362  1  0.11328200  0.70833333  0.26250000  1.0
  Au  Au363  1  0.44661533  0.04166667  0.26250000  1.0
  Au  Au364  1  0.44661533  0.37500000  0.26250000  1.0
  Au  Au365  1  0.44661533  0.70833333  0.26250000  1.0
  Au  Au366  1  0.77994867  0.04166667  0.26250000  1.0
  Au  Au367  1  0.77994867  0.37500000  0.26250000  1.0
  Au  Au368  1  0.77994867  0.70833333  0.26250000  1.0
  Au  Au369  1  0.11328200  0.20833333  0.21250000  1.0
  Au  Au370  1  0.11328200  0.54166667  0.21250000  1.0
  Au  Au371  1  0.11328200  0.87500000  0.21250000  1.0
  Au  Au372  1  0.44661533  0.20833333  0.21250000  1.0
  Au  Au373  1  0.44661533  0.54166667  0.21250000  1.0
  Au  Au374  1  0.44661533  0.87500000  0.21250000  1.0
  Au  Au375  1  0.77994867  0.20833333  0.21250000  1.0
  Au  Au376  1  0.77994867  0.54166667  0.21250000  1.0
  Au  Au377  1  0.77994867  0.87500000  0.21250000  1.0
  Au  Au378  1  0.05664100  0.12500000  0.23652310  1.0
  Au  Au379  1  0.05664100  0.45833333  0.23652310  1.0
  Au  Au380  1  0.05664100  0.79166667  0.23652310  1.0
  Au  Au381  1  0.38997433  0.12500000  0.23652310  1.0
  Au  Au382  1  0.38997433  0.45833333  0.23652310  1.0
  Au  Au383  1  0.38997433  0.79166667  0.23652310  1.0
  Au  Au384  1  0.72330767  0.12500000  0.23652310  1.0
  Au  Au385  1  0.72330767  0.45833333  0.23652310  1.0
  Au  Au386  1  0.72330767  0.79166667  0.23652310  1.0
  Au  Au387  1  0.05664100  0.29166667  0.28652310  1.0
  Au  Au388  1  0.05664100  0.62500000  0.28652310  1.0
  Au  Au389  1  0.05664100  0.95833333  0.28652310  1.0
  Au  Au390  1  0.38997433  0.29166667  0.28652310  1.0
  Au  Au391  1  0.38997433  0.62500000  0.28652310  1.0
  Au  Au392  1  0.38997433  0.95833333  0.28652310  1.0
  Au  Au393  1  0.72330767  0.29166667  0.28652310  1.0
  Au  Au394  1  0.72330767  0.62500000  0.28652310  1.0
  Au  Au395  1  0.72330767  0.95833333  0.28652310  1.0
  Au  Au396  1  0.22005133  0.12500000  0.28554620  1.0
  Au  Au397  1  0.22005133  0.45833333  0.28554620  1.0
  Au  Au398  1  0.22005133  0.79166667  0.28554620  1.0
  Au  Au399  1  0.55338467  0.12500000  0.28554620  1.0
  Au  Au400  1  0.55338467  0.45833333  0.28554620  1.0
  Au  Au401  1  0.55338467  0.79166667  0.28554620  1.0
  Au  Au402  1  0.88671800  0.12500000  0.28554620  1.0
  Au  Au403  1  0.88671800  0.45833333  0.28554620  1.0
  Au  Au404  1  0.88671800  0.79166667  0.28554620  1.0
  Au  Au405  1  0.22005133  0.29166667  0.23554620  1.0
  Au  Au406  1  0.22005133  0.62500000  0.23554620  1.0
  Au  Au407  1  0.22005133  0.95833333  0.23554620  1.0
  Au  Au408  1  0.55338467  0.29166667  0.23554620  1.0
  Au  Au409  1  0.55338467  0.62500000  0.23554620  1.0
  Au  Au410  1  0.55338467  0.95833333  0.23554620  1.0
  Au  Au411  1  0.88671800  0.29166667  0.23554620  1.0
  Au  Au412  1  0.88671800  0.62500000  0.23554620  1.0
  Au  Au413  1  0.88671800  0.95833333  0.23554620  1.0
  Au  Au414  1  0.05664100  0.12500000  0.28750000  1.0
  Au  Au415  1  0.05664100  0.45833333  0.28750000  1.0
  Au  Au416  1  0.05664100  0.79166667  0.28750000  1.0
  Au  Au417  1  0.38997433  0.12500000  0.28750000  1.0
  Au  Au418  1  0.38997433  0.45833333  0.28750000  1.0
  Au  Au419  1  0.38997433  0.79166667  0.28750000  1.0
  Au  Au420  1  0.72330767  0.12500000  0.28750000  1.0
  Au  Au421  1  0.72330767  0.45833333  0.28750000  1.0
  Au  Au422  1  0.72330767  0.79166667  0.28750000  1.0
  Au  Au423  1  0.05664100  0.29166667  0.23750000  1.0
  Au  Au424  1  0.05664100  0.62500000  0.23750000  1.0
  Au  Au425  1  0.05664100  0.95833333  0.23750000  1.0
  Au  Au426  1  0.38997433  0.29166667  0.23750000  1.0
  Au  Au427  1  0.38997433  0.62500000  0.23750000  1.0
  Au  Au428  1  0.38997433  0.95833333  0.23750000  1.0
  Au  Au429  1  0.72330767  0.29166667  0.23750000  1.0
  Au  Au430  1  0.72330767  0.62500000  0.23750000  1.0
  Au  Au431  1  0.72330767  0.95833333  0.23750000  1.0
  Ni  Ni432  1  0.22222222  0.12500000  0.33652310  1.0
  Ni  Ni433  1  0.22222222  0.45833333  0.33652310  1.0
  Ni  Ni434  1  0.22222222  0.79166667  0.33652310  1.0
  Ni  Ni435  1  0.55555556  0.12500000  0.33652310  1.0
  Ni  Ni436  1  0.55555556  0.45833333  0.33652310  1.0
  Ni  Ni437  1  0.55555556  0.79166667  0.33652310  1.0
  Ni  Ni438  1  0.88888889  0.12500000  0.33652310  1.0
  Ni  Ni439  1  0.88888889  0.45833333  0.33652310  1.0
  Ni  Ni440  1  0.88888889  0.79166667  0.33652310  1.0
  Ni  Ni441  1  0.22222222  0.29166667  0.38652310  1.0
  Ni  Ni442  1  0.22222222  0.62500000  0.38652310  1.0
  Ni  Ni443  1  0.22222222  0.95833333  0.38652310  1.0
  Ni  Ni444  1  0.55555556  0.29166667  0.38652310  1.0
  Ni  Ni445  1  0.55555556  0.62500000  0.38652310  1.0
  Ni  Ni446  1  0.55555556  0.95833333  0.38652310  1.0
  Ni  Ni447  1  0.88888889  0.29166667  0.38652310  1.0
  Ni  Ni448  1  0.88888889  0.62500000  0.38652310  1.0
  Ni  Ni449  1  0.88888889  0.95833333  0.38652310  1.0
  Ni  Ni450  1  0.11111111  0.04166667  0.31152310  1.0
  Ni  Ni451  1  0.11111111  0.37500000  0.31152310  1.0
  Ni  Ni452  1  0.11111111  0.70833333  0.31152310  1.0
  Ni  Ni453  1  0.44444444  0.04166667  0.31152310  1.0
  Ni  Ni454  1  0.44444444  0.37500000  0.31152310  1.0
  Ni  Ni455  1  0.44444444  0.70833333  0.31152310  1.0
  Ni  Ni456  1  0.77777778  0.04166667  0.31152310  1.0
  Ni  Ni457  1  0.77777778  0.37500000  0.31152310  1.0
  Ni  Ni458  1  0.77777778  0.70833333  0.31152310  1.0
  Ni  Ni459  1  0.11111111  0.20833333  0.36152310  1.0
  Ni  Ni460  1  0.11111111  0.54166667  0.36152310  1.0
  Ni  Ni461  1  0.11111111  0.87500000  0.36152310  1.0
  Ni  Ni462  1  0.44444444  0.20833333  0.36152310  1.0
  Ni  Ni463  1  0.44444444  0.54166667  0.36152310  1.0
  Ni  Ni464  1  0.44444444  0.87500000  0.36152310  1.0
  Ni  Ni465  1  0.77777778  0.20833333  0.36152310  1.0
  Ni  Ni466  1  0.77777778  0.54166667  0.36152310  1.0
  Ni  Ni467  1  0.77777778  0.87500000  0.36152310  1.0
  Au  Au468  1  0.27669233  0.04166667  0.36054620  1.0
  Au  Au469  1  0.27669233  0.37500000  0.36054620  1.0
  Au  Au470  1  0.27669233  0.70833333  0.36054620  1.0
  Au  Au471  1  0.61002567  0.04166667  0.36054620  1.0
  Au  Au472  1  0.61002567  0.37500000  0.36054620  1.0
  Au  Au473  1  0.61002567  0.70833333  0.36054620  1.0
  Au  Au474  1  0.94335900  0.04166667  0.36054620  1.0
  Au  Au475  1  0.94335900  0.37500000  0.36054620  1.0
  Au  Au476  1  0.94335900  0.70833333  0.36054620  1.0
  Au  Au477  1  0.27669233  0.20833333  0.31054620  1.0
  Au  Au478  1  0.27669233  0.54166667  0.31054620  1.0
  Au  Au479  1  0.27669233  0.87500000  0.31054620  1.0
  Au  Au480  1  0.61002567  0.20833333  0.31054620  1.0
  Au  Au481  1  0.61002567  0.54166667  0.31054620  1.0
  Au  Au482  1  0.61002567  0.87500000  0.31054620  1.0
  Au  Au483  1  0.94335900  0.20833333  0.31054620  1.0
  Au  Au484  1  0.94335900  0.54166667  0.31054620  1.0
  Au  Au485  1  0.94335900  0.87500000  0.31054620  1.0
  Au  Au486  1  0.27669233  0.04166667  0.31152310  1.0
  Au  Au487  1  0.27669233  0.37500000  0.31152310  1.0
  Au  Au488  1  0.27669233  0.70833333  0.31152310  1.0
  Au  Au489  1  0.61002567  0.04166667  0.31152310  1.0
  Au  Au490  1  0.61002567  0.37500000  0.31152310  1.0
  Au  Au491  1  0.61002567  0.70833333  0.31152310  1.0
  Au  Au492  1  0.94335900  0.04166667  0.31152310  1.0
  Au  Au493  1  0.94335900  0.37500000  0.31152310  1.0
  Au  Au494  1  0.94335900  0.70833333  0.31152310  1.0
  Au  Au495  1  0.27669233  0.20833333  0.36152310  1.0
  Au  Au496  1  0.27669233  0.54166667  0.36152310  1.0
  Au  Au497  1  0.27669233  0.87500000  0.36152310  1.0
  Au  Au498  1  0.61002567  0.20833333  0.36152310  1.0
  Au  Au499  1  0.61002567  0.54166667  0.36152310  1.0
  Au  Au500  1  0.61002567  0.87500000  0.36152310  1.0
  Au  Au501  1  0.94335900  0.20833333  0.36152310  1.0
  Au  Au502  1  0.94335900  0.54166667  0.36152310  1.0
  Au  Au503  1  0.94335900  0.87500000  0.36152310  1.0
  Au  Au504  1  0.11328200  0.04166667  0.36250000  1.0
  Au  Au505  1  0.11328200  0.37500000  0.36250000  1.0
  Au  Au506  1  0.11328200  0.70833333  0.36250000  1.0
  Au  Au507  1  0.44661533  0.04166667  0.36250000  1.0
  Au  Au508  1  0.44661533  0.37500000  0.36250000  1.0
  Au  Au509  1  0.44661533  0.70833333  0.36250000  1.0
  Au  Au510  1  0.77994867  0.04166667  0.36250000  1.0
  Au  Au511  1  0.77994867  0.37500000  0.36250000  1.0
  Au  Au512  1  0.77994867  0.70833333  0.36250000  1.0
  Au  Au513  1  0.11328200  0.20833333  0.31250000  1.0
  Au  Au514  1  0.11328200  0.54166667  0.31250000  1.0
  Au  Au515  1  0.11328200  0.87500000  0.31250000  1.0
  Au  Au516  1  0.44661533  0.20833333  0.31250000  1.0
  Au  Au517  1  0.44661533  0.54166667  0.31250000  1.0
  Au  Au518  1  0.44661533  0.87500000  0.31250000  1.0
  Au  Au519  1  0.77994867  0.20833333  0.31250000  1.0
  Au  Au520  1  0.77994867  0.54166667  0.31250000  1.0
  Au  Au521  1  0.77994867  0.87500000  0.31250000  1.0
  Au  Au522  1  0.05664100  0.12500000  0.33652310  1.0
  Au  Au523  1  0.05664100  0.45833333  0.33652310  1.0
  Au  Au524  1  0.05664100  0.79166667  0.33652310  1.0
  Au  Au525  1  0.38997433  0.12500000  0.33652310  1.0
  Au  Au526  1  0.38997433  0.45833333  0.33652310  1.0
  Au  Au527  1  0.38997433  0.79166667  0.33652310  1.0
  Au  Au528  1  0.72330767  0.12500000  0.33652310  1.0
  Au  Au529  1  0.72330767  0.45833333  0.33652310  1.0
  Au  Au530  1  0.72330767  0.79166667  0.33652310  1.0
  Au  Au531  1  0.05664100  0.29166667  0.38652310  1.0
  Au  Au532  1  0.05664100  0.62500000  0.38652310  1.0
  Au  Au533  1  0.05664100  0.95833333  0.38652310  1.0
  Au  Au534  1  0.38997433  0.29166667  0.38652310  1.0
  Au  Au535  1  0.38997433  0.62500000  0.38652310  1.0
  Au  Au536  1  0.38997433  0.95833333  0.38652310  1.0
  Au  Au537  1  0.72330767  0.29166667  0.38652310  1.0
  Au  Au538  1  0.72330767  0.62500000  0.38652310  1.0
  Au  Au539  1  0.72330767  0.95833333  0.38652310  1.0
  Au  Au540  1  0.22005133  0.12500000  0.38554620  1.0
  Au  Au541  1  0.22005133  0.45833333  0.38554620  1.0
  Au  Au542  1  0.22005133  0.79166667  0.38554620  1.0
  Au  Au543  1  0.55338467  0.12500000  0.38554620  1.0
  Au  Au544  1  0.55338467  0.45833333  0.38554620  1.0
  Au  Au545  1  0.55338467  0.79166667  0.38554620  1.0
  Au  Au546  1  0.88671800  0.12500000  0.38554620  1.0
  Au  Au547  1  0.88671800  0.45833333  0.38554620  1.0
  Au  Au548  1  0.88671800  0.79166667  0.38554620  1.0
  Au  Au549  1  0.22005133  0.29166667  0.33554620  1.0
  Au  Au550  1  0.22005133  0.62500000  0.33554620  1.0
  Au  Au551  1  0.22005133  0.95833333  0.33554620  1.0
  Au  Au552  1  0.55338467  0.29166667  0.33554620  1.0
  Au  Au553  1  0.55338467  0.62500000  0.33554620  1.0
  Au  Au554  1  0.55338467  0.95833333  0.33554620  1.0
  Au  Au555  1  0.88671800  0.29166667  0.33554620  1.0
  Au  Au556  1  0.88671800  0.62500000  0.33554620  1.0
  Au  Au557  1  0.88671800  0.95833333  0.33554620  1.0
  Au  Au558  1  0.05664100  0.12500000  0.38750000  1.0
  Au  Au559  1  0.05664100  0.45833333  0.38750000  1.0
  Au  Au560  1  0.05664100  0.79166667  0.38750000  1.0
  Au  Au561  1  0.38997433  0.12500000  0.38750000  1.0
  Au  Au562  1  0.38997433  0.45833333  0.38750000  1.0
  Au  Au563  1  0.38997433  0.79166667  0.38750000  1.0
  Au  Au564  1  0.72330767  0.12500000  0.38750000  1.0
  Au  Au565  1  0.72330767  0.45833333  0.38750000  1.0
  Au  Au566  1  0.72330767  0.79166667  0.38750000  1.0
  Au  Au567  1  0.05664100  0.29166667  0.33750000  1.0
  Au  Au568  1  0.05664100  0.62500000  0.33750000  1.0
  Au  Au569  1  0.05664100  0.95833333  0.33750000  1.0
  Au  Au570  1  0.38997433  0.29166667  0.33750000  1.0
  Au  Au571  1  0.38997433  0.62500000  0.33750000  1.0
  Au  Au572  1  0.38997433  0.95833333  0.33750000  1.0
  Au  Au573  1  0.72330767  0.29166667  0.33750000  1.0
  Au  Au574  1  0.72330767  0.62500000  0.33750000  1.0
  Au  Au575  1  0.72330767  0.95833333  0.33750000  1.0
