# generated using pymatgen
data_NiAu3
_symmetry_space_group_name_H-M   'P 1'
_cell_length_a   17.00920113
_cell_length_b   22.07226130
_cell_length_c   37.51117600
_cell_angle_alpha   50.40908838
_cell_angle_beta   90.00000000
_cell_angle_gamma   67.33718885
_symmetry_Int_Tables_number   1
_chemical_formula_structural   NiAu3
_chemical_formula_sum   'Ni54 Au162'
_cell_volume   9398.51296163
_cell_formula_units_Z   54
loop_
 _symmetry_equiv_pos_site_id
 _symmetry_equiv_pos_as_xyz
  1  'x, y, z'
loop_
 _atom_site_type_symbol
 _atom_site_label
 _atom_site_symmetry_multiplicity
 _atom_site_fract_x
 _atom_site_fract_y
 _atom_site_fract_z
 _atom_site_occupancy
  Ni  Ni0  1  0.22222222  0.22222222  0.01041667  1.0
  Ni  Ni1  1  0.22222222  0.55555556  0.01041667  1.0
  Ni  Ni2  1  0.22222222  0.88888889  0.01041667  1.0
  Ni  Ni3  1  0.55555556  0.22222222  0.01041667  1.0
  Ni  Ni4  1  0.55555556  0.55555556  0.01041667  1.0
  Ni  Ni5  1  0.55555556  0.88888889  0.01041667  1.0
  Ni  Ni6  1  0.88888889  0.22222222  0.01041667  1.0
  Ni  Ni7  1  0.88888889  0.55555556  0.01041667  1.0
  Ni  Ni8  1  0.88888889  0.88888889  0.01041667  1.0
  Ni  Ni9  1  0.11111111  0.11111111  0.11458333  1.0
  Ni  Ni10  1  0.11111111  0.44444444  0.11458333  1.0
  Ni  Ni11  1  0.11111111  0.77777778  0.11458333  1.0
  Ni  Ni12  1  0.44444444  0.11111111  0.11458333  1.0
  Ni  Ni13  1  0.44444444  0.44444444  0.11458333  1.0
  Ni  Ni14  1  0.44444444  0.77777778  0.11458333  1.0
  Ni  Ni15  1  0.77777778  0.11111111  0.11458333  1.0
  Ni  Ni16  1  0.77777778  0.44444444  0.11458333  1.0
  Ni  Ni17  1  0.77777778  0.77777778  0.11458333  1.0
  Au  Au18  1  0.27669233  0.11328200  0.11376925  1.0
  Au  Au19  1  0.27669233  0.44661533  0.11376925  1.0
  Au  Au20  1  0.27669233  0.77994867  0.11376925  1.0
  Au  Au21  1  0.61002567  0.11328200  0.11376925  1.0
  Au  Au22  1  0.61002567  0.44661533  0.11376925  1.0
  Au  Au23  1  0.61002567  0.77994867  0.11376925  1.0
  Au  Au24  1  0.94335900  0.11328200  0.11376925  1.0
  Au  Au25  1  0.94335900  0.44661533  0.11376925  1.0
  Au  Au26  1  0.94335900  0.77994867  0.11376925  1.0
  Au  Au27  1  0.27669233  0.27669233  0.05249037  1.0
  Au  Au28  1  0.27669233  0.61002567  0.05249038  1.0
  Au  Au29  1  0.27669233  0.94335900  0.05249038  1.0
  Au  Au30  1  0.61002567  0.27669233  0.05249037  1.0
  Au  Au31  1  0.61002567  0.61002567  0.05249038  1.0
  Au  Au32  1  0.61002567  0.94335900  0.05249038  1.0
  Au  Au33  1  0.94335900  0.27669233  0.05249038  1.0
  Au  Au34  1  0.94335900  0.61002567  0.05249038  1.0
  Au  Au35  1  0.94335900  0.94335900  0.05249038  1.0
  Au  Au36  1  0.11328200  0.27669233  0.05249037  1.0
  Au  Au37  1  0.11328200  0.61002567  0.05249038  1.0
  Au  Au38  1  0.11328200  0.94335900  0.05249038  1.0
  Au  Au39  1  0.44661533  0.27669233  0.05249037  1.0
  Au  Au40  1  0.44661533  0.61002567  0.05249038  1.0
  Au  Au41  1  0.44661533  0.94335900  0.05249038  1.0
  Au  Au42  1  0.77994867  0.27669233  0.05249038  1.0
  Au  Au43  1  0.77994867  0.61002567  0.05249038  1.0
  Au  Au44  1  0.77994867  0.94335900  0.05249038  1.0
  Au  Au45  1  0.05664100  0.05664100  0.07250962  1.0
  Au  Au46  1  0.05664100  0.38997433  0.07250963  1.0
  Au  Au47  1  0.05664100  0.72330767  0.07250963  1.0
  Au  Au48  1  0.38997433  0.05664100  0.07250962  1.0
  Au  Au49  1  0.38997433  0.38997433  0.07250963  1.0
  Au  Au50  1  0.38997433  0.72330767  0.07250963  1.0
  Au  Au51  1  0.72330767  0.05664100  0.07250962  1.0
  Au  Au52  1  0.72330767  0.38997433  0.07250963  1.0
  Au  Au53  1  0.72330767  0.72330767  0.07250963  1.0
  Au  Au54  1  0.22005133  0.05664100  0.07250962  1.0
  Au  Au55  1  0.22005133  0.38997433  0.07250963  1.0
  Au  Au56  1  0.22005133  0.72330767  0.07250963  1.0
  Au  Au57  1  0.55338467  0.05664100  0.07250962  1.0
  Au  Au58  1  0.55338467  0.38997433  0.07250963  1.0
  Au  Au59  1  0.55338467  0.72330767  0.07250963  1.0
  Au  Au60  1  0.88671800  0.05664100  0.07250962  1.0
  Au  Au61  1  0.88671800  0.38997433  0.07250963  1.0
  Au  Au62  1  0.88671800  0.72330767  0.07250962  1.0
  Au  Au63  1  0.05664100  0.22005133  0.01123075  1.0
  Au  Au64  1  0.05664100  0.55338467  0.01123075  1.0
  Au  Au65  1  0.05664100  0.88671800  0.01123075  1.0
  Au  Au66  1  0.38997433  0.22005133  0.01123075  1.0
  Au  Au67  1  0.38997433  0.55338467  0.01123075  1.0
  Au  Au68  1  0.38997433  0.88671800  0.01123075  1.0
  Au  Au69  1  0.72330767  0.22005133  0.01123075  1.0
  Au  Au70  1  0.72330767  0.55338467  0.01123075  1.0
  Au  Au71  1  0.72330767  0.88671800  0.01123075  1.0
  Ni  Ni72  1  0.22222222  0.22222222  0.13541667  1.0
  Ni  Ni73  1  0.22222222  0.55555556  0.13541667  1.0
  Ni  Ni74  1  0.22222222  0.88888889  0.13541667  1.0
  Ni  Ni75  1  0.55555556  0.22222222  0.13541667  1.0
  Ni  Ni76  1  0.55555556  0.55555556  0.13541667  1.0
  Ni  Ni77  1  0.55555556  0.88888889  0.13541667  1.0
  Ni  Ni78  1  0.88888889  0.22222222  0.13541667  1.0
  Ni  Ni79  1  0.88888889  0.55555556  0.13541667  1.0
  Ni  Ni80  1  0.88888889  0.88888889  0.13541667  1.0
  Ni  Ni81  1  0.11111111  0.11111111  0.23958333  1.0
  Ni  Ni82  1  0.11111111  0.44444444  0.23958333  1.0
  Ni  Ni83  1  0.11111111  0.77777778  0.23958333  1.0
  Ni  Ni84  1  0.44444444  0.11111111  0.23958333  1.0
  Ni  Ni85  1  0.44444444  0.44444444  0.23958333  1.0
  Ni  Ni86  1  0.44444444  0.77777778  0.23958333  1.0
  Ni  Ni87  1  0.77777778  0.11111111  0.23958333  1.0
  Ni  Ni88  1  0.77777778  0.44444444  0.23958333  1.0
  Ni  Ni89  1  0.77777778  0.77777778  0.23958333  1.0
  Au  Au90  1  0.27669233  0.11328200  0.23876925  1.0
  Au  Au91  1  0.27669233  0.44661533  0.23876925  1.0
  Au  Au92  1  0.27669233  0.77994867  0.23876925  1.0
  Au  Au93  1  0.61002567  0.11328200  0.23876925  1.0
  Au  Au94  1  0.61002567  0.44661533  0.23876925  1.0
  Au  Au95  1  0.61002567  0.77994867  0.23876925  1.0
  Au  Au96  1  0.94335900  0.11328200  0.23876925  1.0
  Au  Au97  1  0.94335900  0.44661533  0.23876925  1.0
  Au  Au98  1  0.94335900  0.77994867  0.23876925  1.0
  Au  Au99  1  0.27669233  0.27669233  0.17749037  1.0
  Au  Au100  1  0.27669233  0.61002567  0.17749038  1.0
  Au  Au101  1  0.27669233  0.94335900  0.17749038  1.0
  Au  Au102  1  0.61002567  0.27669233  0.17749037  1.0
  Au  Au103  1  0.61002567  0.61002567  0.17749038  1.0
  Au  Au104  1  0.61002567  0.94335900  0.17749037  1.0
  Au  Au105  1  0.94335900  0.27669233  0.17749037  1.0
  Au  Au106  1  0.94335900  0.61002567  0.17749038  1.0
  Au  Au107  1  0.94335900  0.94335900  0.17749037  1.0
  Au  Au108  1  0.11328200  0.27669233  0.17749037  1.0
  Au  Au109  1  0.11328200  0.61002567  0.17749038  1.0
  Au  Au110  1  0.11328200  0.94335900  0.17749038  1.0
  Au  Au111  1  0.44661533  0.27669233  0.17749037  1.0
  Au  Au112  1  0.44661533  0.61002567  0.17749038  1.0
  Au  Au113  1  0.44661533  0.94335900  0.17749038  1.0
  Au  Au114  1  0.77994867  0.27669233  0.17749037  1.0
  Au  Au115  1  0.77994867  0.61002567  0.17749038  1.0
  Au  Au116  1  0.77994867  0.94335900  0.17749037  1.0
  Au  Au117  1  0.05664100  0.05664100  0.19750962  1.0
  Au  Au118  1  0.05664100  0.38997433  0.19750963  1.0
  Au  Au119  1  0.05664100  0.72330767  0.19750963  1.0
  Au  Au120  1  0.38997433  0.05664100  0.19750962  1.0
  Au  Au121  1  0.38997433  0.38997433  0.19750962  1.0
  Au  Au122  1  0.38997433  0.72330767  0.19750963  1.0
  Au  Au123  1  0.72330767  0.05664100  0.19750962  1.0
  Au  Au124  1  0.72330767  0.38997433  0.19750963  1.0
  Au  Au125  1  0.72330767  0.72330767  0.19750962  1.0
  Au  Au126  1  0.22005133  0.05664100  0.19750962  1.0
  Au  Au127  1  0.22005133  0.38997433  0.19750963  1.0
  Au  Au128  1  0.22005133  0.72330767  0.19750963  1.0
  Au  Au129  1  0.55338467  0.05664100  0.19750962  1.0
  Au  Au130  1  0.55338467  0.38997433  0.19750962  1.0
  Au  Au131  1  0.55338467  0.72330767  0.19750963  1.0
  Au  Au132  1  0.88671800  0.05664100  0.19750962  1.0
  Au  Au133  1  0.88671800  0.38997433  0.19750963  1.0
  Au  Au134  1  0.88671800  0.72330767  0.19750962  1.0
  Au  Au135  1  0.05664100  0.22005133  0.13623075  1.0
  Au  Au136  1  0.05664100  0.55338467  0.13623075  1.0
  Au  Au137  1  0.05664100  0.88671800  0.13623075  1.0
  Au  Au138  1  0.38997433  0.22005133  0.13623075  1.0
  Au  Au139  1  0.38997433  0.55338467  0.13623075  1.0
  Au  Au140  1  0.38997433  0.88671800  0.13623075  1.0
  Au  Au141  1  0.72330767  0.22005133  0.13623075  1.0
  Au  Au142  1  0.72330767  0.55338467  0.13623075  1.0
  Au  Au143  1  0.72330767  0.88671800  0.13623075  1.0
  Ni  Ni144  1  0.22222222  0.22222222  0.26041667  1.0
  Ni  Ni145  1  0.22222222  0.55555556  0.26041667  1.0
  Ni  Ni146  1  0.22222222  0.88888889  0.26041667  1.0
  Ni  Ni147  1  0.55555556  0.22222222  0.26041667  1.0
  Ni  Ni148  1  0.55555556  0.55555556  0.26041667  1.0
  Ni  Ni149  1  0.55555556  0.88888889  0.26041667  1.0
  Ni  Ni150  1  0.88888889  0.22222222  0.26041667  1.0
  Ni  Ni151  1  0.88888889  0.55555556  0.26041667  1.0
  Ni  Ni152  1  0.88888889  0.88888889  0.26041667  1.0
  Ni  Ni153  1  0.11111111  0.11111111  0.36458333  1.0
  Ni  Ni154  1  0.11111111  0.44444444  0.36458333  1.0
  Ni  Ni155  1  0.11111111  0.77777778  0.36458333  1.0
  Ni  Ni156  1  0.44444444  0.11111111  0.36458333  1.0
  Ni  Ni157  1  0.44444444  0.44444444  0.36458333  1.0
  Ni  Ni158  1  0.44444444  0.77777778  0.36458333  1.0
  Ni  Ni159  1  0.77777778  0.11111111  0.36458333  1.0
  Ni  Ni160  1  0.77777778  0.44444444  0.36458333  1.0
  Ni  Ni161  1  0.77777778  0.77777778  0.36458333  1.0
  Au  Au162  1  0.27669233  0.11328200  0.36376925  1.0
  Au  Au163  1  0.27669233  0.44661533  0.36376925  1.0
  Au  Au164  1  0.27669233  0.77994867  0.36376925  1.0
  Au  Au165  1  0.61002567  0.11328200  0.36376925  1.0
  Au  Au166  1  0.61002567  0.44661533  0.36376925  1.0
  Au  Au167  1  0.61002567  0.77994867  0.36376925  1.0
  Au  Au168  1  0.94335900  0.11328200  0.36376925  1.0
  Au  Au169  1  0.94335900  0.44661533  0.36376925  1.0
  Au  Au170  1  0.94335900  0.77994867  0.36376925  1.0
  Au  Au171  1  0.27669233  0.27669233  0.30249037  1.0
  Au  Au172  1  0.27669233  0.61002567  0.30249037  1.0
  Au  Au173  1  0.27669233  0.94335900  0.30249038  1.0
  Au  Au174  1  0.61002567  0.27669233  0.30249037  1.0
  Au  Au175  1  0.61002567  0.61002567  0.30249037  1.0
  Au  Au176  1  0.61002567  0.94335900  0.30249037  1.0
  Au  Au177  1  0.94335900  0.27669233  0.30249037  1.0
  Au  Au178  1  0.94335900  0.61002567  0.30249038  1.0
  Au  Au179  1  0.94335900  0.94335900  0.30249037  1.0
  Au  Au180  1  0.11328200  0.27669233  0.30249037  1.0
  Au  Au181  1  0.11328200  0.61002567  0.30249037  1.0
  Au  Au182  1  0.11328200  0.94335900  0.30249038  1.0
  Au  Au183  1  0.44661533  0.27669233  0.30249037  1.0
  Au  Au184  1  0.44661533  0.61002567  0.30249037  1.0
  Au  Au185  1  0.44661533  0.94335900  0.30249038  1.0
  Au  Au186  1  0.77994867  0.27669233  0.30249037  1.0
  Au  Au187  1  0.77994867  0.61002567  0.30249038  1.0
  Au  Au188  1  0.77994867  0.94335900  0.30249037  1.0
  Au  Au189  1  0.05664100  0.05664100  0.32250963  1.0
  Au  Au190  1  0.05664100  0.38997433  0.32250962  1.0
  Au  Au191  1  0.05664100  0.72330767  0.32250963  1.0
  Au  Au192  1  0.38997433  0.05664100  0.32250963  1.0
  Au  Au193  1  0.38997433  0.38997433  0.32250962  1.0
  Au  Au194  1  0.38997433  0.72330767  0.32250963  1.0
  Au  Au195  1  0.72330767  0.05664100  0.32250963  1.0
  Au  Au196  1  0.72330767  0.38997433  0.32250963  1.0
  Au  Au197  1  0.72330767  0.72330767  0.32250962  1.0
  Au  Au198  1  0.22005133  0.05664100  0.32250963  1.0
  Au  Au199  1  0.22005133  0.38997433  0.32250962  1.0
  Au  Au200  1  0.22005133  0.72330767  0.32250963  1.0
  Au  Au201  1  0.55338467  0.05664100  0.32250962  1.0
  Au  Au202  1  0.55338467  0.38997433  0.32250962  1.0
  Au  Au203  1  0.55338467  0.72330767  0.32250963  1.0
  Au  Au204  1  0.88671800  0.05664100  0.32250962  1.0
  Au  Au205  1  0.88671800  0.38997433  0.32250963  1.0
  Au  Au206  1  0.88671800  0.72330767  0.32250962  1.0
  Au  Au207  1  0.05664100  0.22005133  0.26123075  1.0
  Au  Au208  1  0.05664100  0.55338467  0.26123075  1.0
  Au  Au209  1  0.05664100  0.88671800  0.26123075  1.0
  Au  Au210  1  0.38997433  0.22005133  0.26123075  1.0
  Au  Au211  1  0.38997433  0.55338467  0.26123075  1.0
  Au  Au212  1  0.38997433  0.88671800  0.26123075  1.0
  Au  Au213  1  0.72330767  0.22005133  0.26123075  1.0
  Au  Au214  1  0.72330767  0.55338467  0.26123075  1.0
  Au  Au215  1  0.72330767  0.88671800  0.26123075  1.0
