# generated using pymatgen
data_NiAu3
_symmetry_space_group_name_H-M   'P 1'
_cell_length_a   22.07226130
_cell_length_b   32.64675428
_cell_length_c   27.62257243
_cell_angle_alpha   90.80959572
_cell_angle_beta   91.19750836
_cell_angle_gamma   109.12595219
_symmetry_Int_Tables_number   1
_chemical_formula_structural   NiAu3
_chemical_formula_sum   'Ni108 Au324'
_cell_volume   18797.02592326
_cell_formula_units_Z   108
loop_
 _symmetry_equiv_pos_site_id
 _symmetry_equiv_pos_as_xyz
  1  'x, y, z'
loop_
 _atom_site_type_symbol
 _atom_site_label
 _atom_site_symmetry_multiplicity
 _atom_site_fract_x
 _atom_site_fract_y
 _atom_site_fract_z
 _atom_site_occupancy
  Au  Au0  1  0.09344472  0.16302484  0.99029566  1.0
  Au  Au1  1  0.09344472  0.49635818  0.99029566  1.0
  Au  Au2  1  0.09344472  0.82969151  0.99029566  1.0
  Au  Au3  1  0.42677805  0.16302484  0.99029566  1.0
  Au  Au4  1  0.42677805  0.49635818  0.99029566  1.0
  Au  Au5  1  0.42677805  0.82969151  0.99029566  1.0
  Au  Au6  1  0.76011139  0.16302484  0.99029566  1.0
  Au  Au7  1  0.76011139  0.49635818  0.99029566  1.0
  Au  Au8  1  0.76011139  0.82969151  0.99029566  1.0
  Au  Au9  1  0.23927805  0.05885818  0.92779566  1.0
  Au  Au10  1  0.23927805  0.39219151  0.92779566  1.0
  Au  Au11  1  0.23927805  0.72552484  0.92779566  1.0
  Au  Au12  1  0.57261139  0.05885818  0.92779566  1.0
  Au  Au13  1  0.57261139  0.39219151  0.92779566  1.0
  Au  Au14  1  0.57261139  0.72552484  0.92779566  1.0
  Au  Au15  1  0.90594472  0.05885818  0.92779566  1.0
  Au  Au16  1  0.90594472  0.39219151  0.92779566  1.0
  Au  Au17  1  0.90594472  0.72552484  0.92779566  1.0
  Au  Au18  1  0.07220434  0.22674597  0.92657453  1.0
  Au  Au19  1  0.07220434  0.56007930  0.92657453  1.0
  Au  Au20  1  0.07220434  0.89341264  0.92657453  1.0
  Au  Au21  1  0.40553768  0.22674597  0.92657453  1.0
  Au  Au22  1  0.40553768  0.56007930  0.92657453  1.0
  Au  Au23  1  0.40553768  0.89341264  0.92657453  1.0
  Au  Au24  1  0.73887101  0.22674597  0.92657453  1.0
  Au  Au25  1  0.73887101  0.56007930  0.92657453  1.0
  Au  Au26  1  0.73887101  0.89341264  0.92657453  1.0
  Au  Au27  1  0.25970434  0.33091264  0.98907453  1.0
  Au  Au28  1  0.25970434  0.66424597  0.98907453  1.0
  Au  Au29  1  0.25970434  0.99757930  0.98907453  1.0
  Au  Au30  1  0.59303768  0.33091264  0.98907453  1.0
  Au  Au31  1  0.59303768  0.66424597  0.98907453  1.0
  Au  Au32  1  0.59303768  0.99757930  0.98907453  1.0
  Au  Au33  1  0.92637101  0.33091264  0.98907453  1.0
  Au  Au34  1  0.92637101  0.66424597  0.98907453  1.0
  Au  Au35  1  0.92637101  0.99757930  0.98907453  1.0
  Au  Au36  1  0.00071232  0.27781170  0.95721397  1.0
  Au  Au37  1  0.00071232  0.61114503  0.95721397  1.0
  Au  Au38  1  0.00071232  0.94447836  0.95721397  1.0
  Au  Au39  1  0.33404566  0.27781170  0.95721397  1.0
  Au  Au40  1  0.33404566  0.61114503  0.95721397  1.0
  Au  Au41  1  0.33404566  0.94447836  0.95721397  1.0
  Au  Au42  1  0.66737899  0.27781170  0.95721397  1.0
  Au  Au43  1  0.66737899  0.61114503  0.95721397  1.0
  Au  Au44  1  0.66737899  0.94447836  0.95721397  1.0
  Au  Au45  1  0.14654566  0.17364503  0.89471397  1.0
  Au  Au46  1  0.14654566  0.50697836  0.89471397  1.0
  Au  Au47  1  0.14654566  0.84031170  0.89471397  1.0
  Au  Au48  1  0.47987899  0.17364503  0.89471397  1.0
  Au  Au49  1  0.47987899  0.50697836  0.89471397  1.0
  Au  Au50  1  0.47987899  0.84031170  0.89471397  1.0
  Au  Au51  1  0.81321232  0.17364503  0.89471397  1.0
  Au  Au52  1  0.81321232  0.50697836  0.89471397  1.0
  Au  Au53  1  0.81321232  0.84031170  0.89471397  1.0
  Au  Au54  1  0.22967547  0.20094793  0.97906491  1.0
  Au  Au55  1  0.22967547  0.53428126  0.97906491  1.0
  Au  Au56  1  0.22967547  0.86761459  0.97906491  1.0
  Au  Au57  1  0.56300880  0.20094793  0.97906491  1.0
  Au  Au58  1  0.56300880  0.53428126  0.97906491  1.0
  Au  Au59  1  0.56300880  0.86761459  0.97906491  1.0
  Au  Au60  1  0.89634214  0.20094793  0.97906491  1.0
  Au  Au61  1  0.89634214  0.53428126  0.97906491  1.0
  Au  Au62  1  0.89634214  0.86761459  0.97906491  1.0
  Au  Au63  1  0.04217547  0.09678126  0.91656491  1.0
  Au  Au64  1  0.04217547  0.43011459  0.91656491  1.0
  Au  Au65  1  0.04217547  0.76344793  0.91656491  1.0
  Au  Au66  1  0.37550880  0.09678126  0.91656491  1.0
  Au  Au67  1  0.37550880  0.43011459  0.91656491  1.0
  Au  Au68  1  0.37550880  0.76344793  0.91656491  1.0
  Au  Au69  1  0.70884214  0.09678126  0.91656491  1.0
  Au  Au70  1  0.70884214  0.43011459  0.91656491  1.0
  Au  Au71  1  0.70884214  0.76344793  0.91656491  1.0
  Au  Au72  1  0.30116749  0.14988220  0.94842547  1.0
  Au  Au73  1  0.30116749  0.48321553  0.94842547  1.0
  Au  Au74  1  0.30116749  0.81654886  0.94842547  1.0
  Au  Au75  1  0.63450082  0.14988220  0.94842547  1.0
  Au  Au76  1  0.63450082  0.48321553  0.94842547  1.0
  Au  Au77  1  0.63450082  0.81654886  0.94842547  1.0
  Au  Au78  1  0.96783416  0.14988220  0.94842547  1.0
  Au  Au79  1  0.96783416  0.48321553  0.94842547  1.0
  Au  Au80  1  0.96783416  0.81654886  0.94842547  1.0
  Au  Au81  1  0.11366749  0.04571553  0.88592547  1.0
  Au  Au82  1  0.11366749  0.37904886  0.88592547  1.0
  Au  Au83  1  0.11366749  0.71238220  0.88592547  1.0
  Au  Au84  1  0.44700082  0.04571553  0.88592547  1.0
  Au  Au85  1  0.44700082  0.37904886  0.88592547  1.0
  Au  Au86  1  0.44700082  0.71238220  0.88592547  1.0
  Au  Au87  1  0.78033416  0.04571553  0.88592547  1.0
  Au  Au88  1  0.78033416  0.37904886  0.88592547  1.0
  Au  Au89  1  0.78033416  0.71238220  0.88592547  1.0
  Au  Au90  1  0.20843509  0.26466905  0.91534378  1.0
  Au  Au91  1  0.20843509  0.59800239  0.91534378  1.0
  Au  Au92  1  0.20843509  0.93133572  0.91534378  1.0
  Au  Au93  1  0.54176843  0.26466905  0.91534378  1.0
  Au  Au94  1  0.54176843  0.59800239  0.91534378  1.0
  Au  Au95  1  0.54176843  0.93133572  0.91534378  1.0
  Au  Au96  1  0.87510176  0.26466905  0.91534378  1.0
  Au  Au97  1  0.87510176  0.59800239  0.91534378  1.0
  Au  Au98  1  0.87510176  0.93133572  0.91534378  1.0
  Au  Au99  1  0.06260176  0.03550239  0.97784378  1.0
  Au  Au100  1  0.06260176  0.36883572  0.97784378  1.0
  Au  Au101  1  0.06260176  0.70216905  0.97784378  1.0
  Au  Au102  1  0.39593509  0.03550239  0.97784378  1.0
  Au  Au103  1  0.39593509  0.36883572  0.97784378  1.0
  Au  Au104  1  0.39593509  0.70216905  0.97784378  1.0
  Au  Au105  1  0.72926843  0.03550239  0.97784378  1.0
  Au  Au106  1  0.72926843  0.36883572  0.97784378  1.0
  Au  Au107  1  0.72926843  0.70216905  0.97784378  1.0
  Au  Au108  1  0.05177805  0.28802484  0.86529566  1.0
  Au  Au109  1  0.05177805  0.62135818  0.86529566  1.0
  Au  Au110  1  0.05177805  0.95469151  0.86529566  1.0
  Au  Au111  1  0.38511139  0.28802484  0.86529566  1.0
  Au  Au112  1  0.38511139  0.62135818  0.86529566  1.0
  Au  Au113  1  0.38511139  0.95469151  0.86529566  1.0
  Au  Au114  1  0.71844472  0.28802484  0.86529566  1.0
  Au  Au115  1  0.71844472  0.62135818  0.86529566  1.0
  Au  Au116  1  0.71844472  0.95469151  0.86529566  1.0
  Au  Au117  1  0.19761139  0.18385818  0.80279566  1.0
  Au  Au118  1  0.19761139  0.51719151  0.80279566  1.0
  Au  Au119  1  0.19761139  0.85052484  0.80279566  1.0
  Au  Au120  1  0.53094472  0.18385818  0.80279566  1.0
  Au  Au121  1  0.53094472  0.51719151  0.80279566  1.0
  Au  Au122  1  0.53094472  0.85052484  0.80279566  1.0
  Au  Au123  1  0.86427805  0.18385818  0.80279566  1.0
  Au  Au124  1  0.86427805  0.51719151  0.80279566  1.0
  Au  Au125  1  0.86427805  0.85052484  0.80279566  1.0
  Au  Au126  1  0.03053768  0.01841264  0.80157453  1.0
  Au  Au127  1  0.03053768  0.35174597  0.80157453  1.0
  Au  Au128  1  0.03053768  0.68507930  0.80157453  1.0
  Au  Au129  1  0.36387101  0.01841264  0.80157453  1.0
  Au  Au130  1  0.36387101  0.35174597  0.80157453  1.0
  Au  Au131  1  0.36387101  0.68507930  0.80157453  1.0
  Au  Au132  1  0.69720434  0.01841264  0.80157453  1.0
  Au  Au133  1  0.69720434  0.35174597  0.80157453  1.0
  Au  Au134  1  0.69720434  0.68507930  0.80157453  1.0
  Au  Au135  1  0.21803768  0.12257930  0.86407453  1.0
  Au  Au136  1  0.21803768  0.45591264  0.86407453  1.0
  Au  Au137  1  0.21803768  0.78924597  0.86407453  1.0
  Au  Au138  1  0.55137101  0.12257930  0.86407453  1.0
  Au  Au139  1  0.55137101  0.45591264  0.86407453  1.0
  Au  Au140  1  0.55137101  0.78924597  0.86407453  1.0
  Au  Au141  1  0.88470434  0.12257930  0.86407453  1.0
  Au  Au142  1  0.88470434  0.45591264  0.86407453  1.0
  Au  Au143  1  0.88470434  0.78924597  0.86407453  1.0
  Au  Au144  1  0.29237899  0.06947836  0.83221397  1.0
  Au  Au145  1  0.29237899  0.40281170  0.83221397  1.0
  Au  Au146  1  0.29237899  0.73614503  0.83221397  1.0
  Au  Au147  1  0.62571232  0.06947836  0.83221397  1.0
  Au  Au148  1  0.62571232  0.40281170  0.83221397  1.0
  Au  Au149  1  0.62571232  0.73614503  0.83221397  1.0
  Au  Au150  1  0.95904566  0.06947836  0.83221397  1.0
  Au  Au151  1  0.95904566  0.40281170  0.83221397  1.0
  Au  Au152  1  0.95904566  0.73614503  0.83221397  1.0
  Au  Au153  1  0.10487899  0.29864503  0.76971397  1.0
  Au  Au154  1  0.10487899  0.63197836  0.76971397  1.0
  Au  Au155  1  0.10487899  0.96531170  0.76971397  1.0
  Au  Au156  1  0.43821232  0.29864503  0.76971397  1.0
  Au  Au157  1  0.43821232  0.63197836  0.76971397  1.0
  Au  Au158  1  0.43821232  0.96531170  0.76971397  1.0
  Au  Au159  1  0.77154566  0.29864503  0.76971397  1.0
  Au  Au160  1  0.77154566  0.63197836  0.76971397  1.0
  Au  Au161  1  0.77154566  0.96531170  0.76971397  1.0
  Au  Au162  1  0.18800880  0.32594793  0.85406491  1.0
  Au  Au163  1  0.18800880  0.65928126  0.85406491  1.0
  Au  Au164  1  0.18800880  0.99261459  0.85406491  1.0
  Au  Au165  1  0.52134214  0.32594793  0.85406491  1.0
  Au  Au166  1  0.52134214  0.65928126  0.85406491  1.0
  Au  Au167  1  0.52134214  0.99261459  0.85406491  1.0
  Au  Au168  1  0.85467547  0.32594793  0.85406491  1.0
  Au  Au169  1  0.85467547  0.65928126  0.85406491  1.0
  Au  Au170  1  0.85467547  0.99261459  0.85406491  1.0
  Au  Au171  1  0.00050880  0.22178126  0.79156491  1.0
  Au  Au172  1  0.00050880  0.55511459  0.79156491  1.0
  Au  Au173  1  0.00050880  0.88844793  0.79156491  1.0
  Au  Au174  1  0.33384214  0.22178126  0.79156491  1.0
  Au  Au175  1  0.33384214  0.55511459  0.79156491  1.0
  Au  Au176  1  0.33384214  0.88844793  0.79156491  1.0
  Au  Au177  1  0.66717547  0.22178126  0.79156491  1.0
  Au  Au178  1  0.66717547  0.55511459  0.79156491  1.0
  Au  Au179  1  0.66717547  0.88844793  0.79156491  1.0
  Au  Au180  1  0.25950082  0.27488220  0.82342547  1.0
  Au  Au181  1  0.25950082  0.60821553  0.82342547  1.0
  Au  Au182  1  0.25950082  0.94154886  0.82342547  1.0
  Au  Au183  1  0.59283416  0.27488220  0.82342547  1.0
  Au  Au184  1  0.59283416  0.60821553  0.82342547  1.0
  Au  Au185  1  0.59283416  0.94154886  0.82342547  1.0
  Au  Au186  1  0.92616749  0.27488220  0.82342547  1.0
  Au  Au187  1  0.92616749  0.60821553  0.82342547  1.0
  Au  Au188  1  0.92616749  0.94154886  0.82342547  1.0
  Au  Au189  1  0.07200082  0.17071553  0.76092547  1.0
  Au  Au190  1  0.07200082  0.50404886  0.76092547  1.0
  Au  Au191  1  0.07200082  0.83738220  0.76092547  1.0
  Au  Au192  1  0.40533416  0.17071553  0.76092547  1.0
  Au  Au193  1  0.40533416  0.50404886  0.76092547  1.0
  Au  Au194  1  0.40533416  0.83738220  0.76092547  1.0
  Au  Au195  1  0.73866749  0.17071553  0.76092547  1.0
  Au  Au196  1  0.73866749  0.50404886  0.76092547  1.0
  Au  Au197  1  0.73866749  0.83738220  0.76092547  1.0
  Au  Au198  1  0.16676843  0.05633572  0.79034378  1.0
  Au  Au199  1  0.16676843  0.38966905  0.79034378  1.0
  Au  Au200  1  0.16676843  0.72300239  0.79034378  1.0
  Au  Au201  1  0.50010176  0.05633572  0.79034378  1.0
  Au  Au202  1  0.50010176  0.38966905  0.79034378  1.0
  Au  Au203  1  0.50010176  0.72300239  0.79034378  1.0
  Au  Au204  1  0.83343509  0.05633572  0.79034378  1.0
  Au  Au205  1  0.83343509  0.38966905  0.79034378  1.0
  Au  Au206  1  0.83343509  0.72300239  0.79034378  1.0
  Au  Au207  1  0.02093509  0.16050239  0.85284378  1.0
  Au  Au208  1  0.02093509  0.49383572  0.85284378  1.0
  Au  Au209  1  0.02093509  0.82716905  0.85284378  1.0
  Au  Au210  1  0.35426843  0.16050239  0.85284378  1.0
  Au  Au211  1  0.35426843  0.49383572  0.85284378  1.0
  Au  Au212  1  0.35426843  0.82716905  0.85284378  1.0
  Au  Au213  1  0.68760176  0.16050239  0.85284378  1.0
  Au  Au214  1  0.68760176  0.49383572  0.85284378  1.0
  Au  Au215  1  0.68760176  0.82716905  0.85284378  1.0
  Au  Au216  1  0.01011139  0.07969151  0.74029566  1.0
  Au  Au217  1  0.01011139  0.41302484  0.74029566  1.0
  Au  Au218  1  0.01011139  0.74635818  0.74029566  1.0
  Au  Au219  1  0.34344472  0.07969151  0.74029566  1.0
  Au  Au220  1  0.34344472  0.41302484  0.74029566  1.0
  Au  Au221  1  0.34344472  0.74635818  0.74029566  1.0
  Au  Au222  1  0.67677805  0.07969151  0.74029566  1.0
  Au  Au223  1  0.67677805  0.41302484  0.74029566  1.0
  Au  Au224  1  0.67677805  0.74635818  0.74029566  1.0
  Au  Au225  1  0.15594472  0.30885818  0.67779566  1.0
  Au  Au226  1  0.15594472  0.64219151  0.67779566  1.0
  Au  Au227  1  0.15594472  0.97552484  0.67779566  1.0
  Au  Au228  1  0.48927805  0.30885818  0.67779566  1.0
  Au  Au229  1  0.48927805  0.64219151  0.67779566  1.0
  Au  Au230  1  0.48927805  0.97552484  0.67779566  1.0
  Au  Au231  1  0.82261139  0.30885818  0.67779566  1.0
  Au  Au232  1  0.82261139  0.64219151  0.67779566  1.0
  Au  Au233  1  0.82261139  0.97552484  0.67779566  1.0
  Au  Au234  1  0.32220434  0.14341264  0.67657453  1.0
  Au  Au235  1  0.32220434  0.47674597  0.67657453  1.0
  Au  Au236  1  0.32220434  0.81007930  0.67657453  1.0
  Au  Au237  1  0.65553768  0.14341264  0.67657453  1.0
  Au  Au238  1  0.65553768  0.47674597  0.67657453  1.0
  Au  Au239  1  0.65553768  0.81007930  0.67657453  1.0
  Au  Au240  1  0.98887101  0.14341264  0.67657453  1.0
  Au  Au241  1  0.98887101  0.47674597  0.67657453  1.0
  Au  Au242  1  0.98887101  0.81007930  0.67657453  1.0
  Au  Au243  1  0.17637101  0.24757930  0.73907453  1.0
  Au  Au244  1  0.17637101  0.58091264  0.73907453  1.0
  Au  Au245  1  0.17637101  0.91424597  0.73907453  1.0
  Au  Au246  1  0.50970434  0.24757930  0.73907453  1.0
  Au  Au247  1  0.50970434  0.58091264  0.73907453  1.0
  Au  Au248  1  0.50970434  0.91424597  0.73907453  1.0
  Au  Au249  1  0.84303768  0.24757930  0.73907453  1.0
  Au  Au250  1  0.84303768  0.58091264  0.73907453  1.0
  Au  Au251  1  0.84303768  0.91424597  0.73907453  1.0
  Au  Au252  1  0.25071232  0.19447836  0.70721397  1.0
  Au  Au253  1  0.25071232  0.52781170  0.70721397  1.0
  Au  Au254  1  0.25071232  0.86114503  0.70721397  1.0
  Au  Au255  1  0.58404566  0.19447836  0.70721397  1.0
  Au  Au256  1  0.58404566  0.52781170  0.70721397  1.0
  Au  Au257  1  0.58404566  0.86114503  0.70721397  1.0
  Au  Au258  1  0.91737899  0.19447836  0.70721397  1.0
  Au  Au259  1  0.91737899  0.52781170  0.70721397  1.0
  Au  Au260  1  0.91737899  0.86114503  0.70721397  1.0
  Au  Au261  1  0.06321232  0.09031170  0.64471397  1.0
  Au  Au262  1  0.06321232  0.42364503  0.64471397  1.0
  Au  Au263  1  0.06321232  0.75697836  0.64471397  1.0
  Au  Au264  1  0.39654566  0.09031170  0.64471397  1.0
  Au  Au265  1  0.39654566  0.42364503  0.64471397  1.0
  Au  Au266  1  0.39654566  0.75697836  0.64471397  1.0
  Au  Au267  1  0.72987899  0.09031170  0.64471397  1.0
  Au  Au268  1  0.72987899  0.42364503  0.64471397  1.0
  Au  Au269  1  0.72987899  0.75697836  0.64471397  1.0
  Au  Au270  1  0.14634214  0.11761459  0.72906491  1.0
  Au  Au271  1  0.14634214  0.45094793  0.72906491  1.0
  Au  Au272  1  0.14634214  0.78428126  0.72906491  1.0
  Au  Au273  1  0.47967547  0.11761459  0.72906491  1.0
  Au  Au274  1  0.47967547  0.45094793  0.72906491  1.0
  Au  Au275  1  0.47967547  0.78428126  0.72906491  1.0
  Au  Au276  1  0.81300880  0.11761459  0.72906491  1.0
  Au  Au277  1  0.81300880  0.45094793  0.72906491  1.0
  Au  Au278  1  0.81300880  0.78428126  0.72906491  1.0
  Au  Au279  1  0.29217547  0.01344793  0.66656491  1.0
  Au  Au280  1  0.29217547  0.34678126  0.66656491  1.0
  Au  Au281  1  0.29217547  0.68011459  0.66656491  1.0
  Au  Au282  1  0.62550880  0.01344793  0.66656491  1.0
  Au  Au283  1  0.62550880  0.34678126  0.66656491  1.0
  Au  Au284  1  0.62550880  0.68011459  0.66656491  1.0
  Au  Au285  1  0.95884214  0.01344793  0.66656491  1.0
  Au  Au286  1  0.95884214  0.34678126  0.66656491  1.0
  Au  Au287  1  0.95884214  0.68011459  0.66656491  1.0
  Au  Au288  1  0.21783416  0.06654886  0.69842547  1.0
  Au  Au289  1  0.21783416  0.39988220  0.69842547  1.0
  Au  Au290  1  0.21783416  0.73321553  0.69842547  1.0
  Au  Au291  1  0.55116749  0.06654886  0.69842547  1.0
  Au  Au292  1  0.55116749  0.39988220  0.69842547  1.0
  Au  Au293  1  0.55116749  0.73321553  0.69842547  1.0
  Au  Au294  1  0.88450082  0.06654886  0.69842547  1.0
  Au  Au295  1  0.88450082  0.39988220  0.69842547  1.0
  Au  Au296  1  0.88450082  0.73321553  0.69842547  1.0
  Au  Au297  1  0.03033416  0.29571553  0.63592547  1.0
  Au  Au298  1  0.03033416  0.62904886  0.63592547  1.0
  Au  Au299  1  0.03033416  0.96238220  0.63592547  1.0
  Au  Au300  1  0.36366749  0.29571553  0.63592547  1.0
  Au  Au301  1  0.36366749  0.62904886  0.63592547  1.0
  Au  Au302  1  0.36366749  0.96238220  0.63592547  1.0
  Au  Au303  1  0.69700082  0.29571553  0.63592547  1.0
  Au  Au304  1  0.69700082  0.62904886  0.63592547  1.0
  Au  Au305  1  0.69700082  0.96238220  0.63592547  1.0
  Au  Au306  1  0.12510176  0.18133572  0.66534378  1.0
  Au  Au307  1  0.12510176  0.51466905  0.66534378  1.0
  Au  Au308  1  0.12510176  0.84800239  0.66534378  1.0
  Au  Au309  1  0.45843509  0.18133572  0.66534378  1.0
  Au  Au310  1  0.45843509  0.51466905  0.66534378  1.0
  Au  Au311  1  0.45843509  0.84800239  0.66534378  1.0
  Au  Au312  1  0.79176843  0.18133572  0.66534378  1.0
  Au  Au313  1  0.79176843  0.51466905  0.66534378  1.0
  Au  Au314  1  0.79176843  0.84800239  0.66534378  1.0
  Au  Au315  1  0.31260176  0.28550239  0.72784378  1.0
  Au  Au316  1  0.31260176  0.61883572  0.72784378  1.0
  Au  Au317  1  0.31260176  0.95216905  0.72784378  1.0
  Au  Au318  1  0.64593509  0.28550239  0.72784378  1.0
  Au  Au319  1  0.64593509  0.61883572  0.72784378  1.0
  Au  Au320  1  0.64593509  0.95216905  0.72784378  1.0
  Au  Au321  1  0.97926843  0.28550239  0.72784378  1.0
  Au  Au322  1  0.97926843  0.61883572  0.72784378  1.0
  Au  Au323  1  0.97926843  0.95216905  0.72784378  1.0
  Ni  Ni324  1  0.28114824  0.21211084  0.88511139  1.0
  Ni  Ni325  1  0.28114824  0.54544417  0.88511139  1.0
  Ni  Ni326  1  0.28114824  0.87877750  0.88511139  1.0
  Ni  Ni327  1  0.61448157  0.21211084  0.88511139  1.0
  Ni  Ni328  1  0.61448157  0.54544417  0.88511139  1.0
  Ni  Ni329  1  0.61448157  0.87877750  0.88511139  1.0
  Ni  Ni330  1  0.94781491  0.21211084  0.88511139  1.0
  Ni  Ni331  1  0.94781491  0.54544417  0.88511139  1.0
  Ni  Ni332  1  0.94781491  0.87877750  0.88511139  1.0
  Ni  Ni333  1  0.13531491  0.31627750  0.94761139  1.0
  Ni  Ni334  1  0.13531491  0.64961084  0.94761139  1.0
  Ni  Ni335  1  0.13531491  0.98294417  0.94761139  1.0
  Ni  Ni336  1  0.46864824  0.31627750  0.94761139  1.0
  Ni  Ni337  1  0.46864824  0.64961084  0.94761139  1.0
  Ni  Ni338  1  0.46864824  0.98294417  0.94761139  1.0
  Ni  Ni339  1  0.80198157  0.31627750  0.94761139  1.0
  Ni  Ni340  1  0.80198157  0.64961084  0.94761139  1.0
  Ni  Ni341  1  0.80198157  0.98294417  0.94761139  1.0
  Ni  Ni342  1  0.31239824  0.00724973  0.89552805  1.0
  Ni  Ni343  1  0.31239824  0.34058306  0.89552805  1.0
  Ni  Ni344  1  0.31239824  0.67391639  0.89552805  1.0
  Ni  Ni345  1  0.64573157  0.00724973  0.89552805  1.0
  Ni  Ni346  1  0.64573157  0.34058306  0.89552805  1.0
  Ni  Ni347  1  0.64573157  0.67391639  0.89552805  1.0
  Ni  Ni348  1  0.97906491  0.00724973  0.89552805  1.0
  Ni  Ni349  1  0.97906491  0.34058306  0.89552805  1.0
  Ni  Ni350  1  0.97906491  0.67391639  0.89552805  1.0
  Ni  Ni351  1  0.16656491  0.11141639  0.95802805  1.0
  Ni  Ni352  1  0.16656491  0.44474973  0.95802805  1.0
  Ni  Ni353  1  0.16656491  0.77808306  0.95802805  1.0
  Ni  Ni354  1  0.49989824  0.11141639  0.95802805  1.0
  Ni  Ni355  1  0.49989824  0.44474973  0.95802805  1.0
  Ni  Ni356  1  0.49989824  0.77808306  0.95802805  1.0
  Ni  Ni357  1  0.83323157  0.11141639  0.95802805  1.0
  Ni  Ni358  1  0.83323157  0.44474973  0.95802805  1.0
  Ni  Ni359  1  0.83323157  0.77808306  0.95802805  1.0
  Ni  Ni360  1  0.23948157  0.00377750  0.76011139  1.0
  Ni  Ni361  1  0.23948157  0.33711084  0.76011139  1.0
  Ni  Ni362  1  0.23948157  0.67044417  0.76011139  1.0
  Ni  Ni363  1  0.57281491  0.00377750  0.76011139  1.0
  Ni  Ni364  1  0.57281491  0.33711084  0.76011139  1.0
  Ni  Ni365  1  0.57281491  0.67044417  0.76011139  1.0
  Ni  Ni366  1  0.90614824  0.00377750  0.76011139  1.0
  Ni  Ni367  1  0.90614824  0.33711084  0.76011139  1.0
  Ni  Ni368  1  0.90614824  0.67044417  0.76011139  1.0
  Ni  Ni369  1  0.09364824  0.10794417  0.82261139  1.0
  Ni  Ni370  1  0.09364824  0.44127750  0.82261139  1.0
  Ni  Ni371  1  0.09364824  0.77461084  0.82261139  1.0
  Ni  Ni372  1  0.42698157  0.10794417  0.82261139  1.0
  Ni  Ni373  1  0.42698157  0.44127750  0.82261139  1.0
  Ni  Ni374  1  0.42698157  0.77461084  0.82261139  1.0
  Ni  Ni375  1  0.76031491  0.10794417  0.82261139  1.0
  Ni  Ni376  1  0.76031491  0.44127750  0.82261139  1.0
  Ni  Ni377  1  0.76031491  0.77461084  0.82261139  1.0
  Ni  Ni378  1  0.27073157  0.13224973  0.77052805  1.0
  Ni  Ni379  1  0.27073157  0.46558306  0.77052805  1.0
  Ni  Ni380  1  0.27073157  0.79891639  0.77052805  1.0
  Ni  Ni381  1  0.60406491  0.13224973  0.77052805  1.0
  Ni  Ni382  1  0.60406491  0.46558306  0.77052805  1.0
  Ni  Ni383  1  0.60406491  0.79891639  0.77052805  1.0
  Ni  Ni384  1  0.93739824  0.13224973  0.77052805  1.0
  Ni  Ni385  1  0.93739824  0.46558306  0.77052805  1.0
  Ni  Ni386  1  0.93739824  0.79891639  0.77052805  1.0
  Ni  Ni387  1  0.12489824  0.23641639  0.83302805  1.0
  Ni  Ni388  1  0.12489824  0.56974973  0.83302805  1.0
  Ni  Ni389  1  0.12489824  0.90308306  0.83302805  1.0
  Ni  Ni390  1  0.45823157  0.23641639  0.83302805  1.0
  Ni  Ni391  1  0.45823157  0.56974973  0.83302805  1.0
  Ni  Ni392  1  0.45823157  0.90308306  0.83302805  1.0
  Ni  Ni393  1  0.79156491  0.23641639  0.83302805  1.0
  Ni  Ni394  1  0.79156491  0.56974973  0.83302805  1.0
  Ni  Ni395  1  0.79156491  0.90308306  0.83302805  1.0
  Ni  Ni396  1  0.19781491  0.12877750  0.63511139  1.0
  Ni  Ni397  1  0.19781491  0.46211084  0.63511139  1.0
  Ni  Ni398  1  0.19781491  0.79544417  0.63511139  1.0
  Ni  Ni399  1  0.53114824  0.12877750  0.63511139  1.0
  Ni  Ni400  1  0.53114824  0.46211084  0.63511139  1.0
  Ni  Ni401  1  0.53114824  0.79544417  0.63511139  1.0
  Ni  Ni402  1  0.86448157  0.12877750  0.63511139  1.0
  Ni  Ni403  1  0.86448157  0.46211084  0.63511139  1.0
  Ni  Ni404  1  0.86448157  0.79544417  0.63511139  1.0
  Ni  Ni405  1  0.05198157  0.23294417  0.69761139  1.0
  Ni  Ni406  1  0.05198157  0.56627750  0.69761139  1.0
  Ni  Ni407  1  0.05198157  0.89961084  0.69761139  1.0
  Ni  Ni408  1  0.38531491  0.23294417  0.69761139  1.0
  Ni  Ni409  1  0.38531491  0.56627750  0.69761139  1.0
  Ni  Ni410  1  0.38531491  0.89961084  0.69761139  1.0
  Ni  Ni411  1  0.71864824  0.23294417  0.69761139  1.0
  Ni  Ni412  1  0.71864824  0.56627750  0.69761139  1.0
  Ni  Ni413  1  0.71864824  0.89961084  0.69761139  1.0
  Ni  Ni414  1  0.22906491  0.25724973  0.64552805  1.0
  Ni  Ni415  1  0.22906491  0.59058306  0.64552805  1.0
  Ni  Ni416  1  0.22906491  0.92391639  0.64552805  1.0
  Ni  Ni417  1  0.56239824  0.25724973  0.64552805  1.0
  Ni  Ni418  1  0.56239824  0.59058306  0.64552805  1.0
  Ni  Ni419  1  0.56239824  0.92391639  0.64552805  1.0
  Ni  Ni420  1  0.89573157  0.25724973  0.64552805  1.0
  Ni  Ni421  1  0.89573157  0.59058306  0.64552805  1.0
  Ni  Ni422  1  0.89573157  0.92391639  0.64552805  1.0
  Ni  Ni423  1  0.08323157  0.02808306  0.70802805  1.0
  Ni  Ni424  1  0.08323157  0.36141639  0.70802805  1.0
  Ni  Ni425  1  0.08323157  0.69474973  0.70802805  1.0
  Ni  Ni426  1  0.41656491  0.02808306  0.70802805  1.0
  Ni  Ni427  1  0.41656491  0.36141639  0.70802805  1.0
  Ni  Ni428  1  0.41656491  0.69474973  0.70802805  1.0
  Ni  Ni429  1  0.74989824  0.02808306  0.70802805  1.0
  Ni  Ni430  1  0.74989824  0.36141639  0.70802805  1.0
  Ni  Ni431  1  0.74989824  0.69474973  0.70802805  1.0
