# generated using pymatgen
data_NiBi
_symmetry_space_group_name_H-M   'P 1'
_cell_length_a   24.69816339
_cell_length_b   38.65746738
_cell_length_c   41.16360565
_cell_angle_alpha   118.45664589
_cell_angle_beta   119.54305465
_cell_angle_gamma   61.54335411
_symmetry_Int_Tables_number   1
_chemical_formula_structural   NiBi
_chemical_formula_sum   'Ni288 Bi288'
_cell_volume   28522.45631839
_cell_formula_units_Z   288
loop_
 _symmetry_equiv_pos_site_id
 _symmetry_equiv_pos_as_xyz
  1  'x, y, z'
loop_
 _atom_site_type_symbol
 _atom_site_label
 _atom_site_symmetry_multiplicity
 _atom_site_fract_x
 _atom_site_fract_y
 _atom_site_fract_z
 _atom_site_occupancy
  Ni  Ni0  1  0.24950772  0.16451091  0.04925564  1.0
  Ni  Ni1  1  0.24950772  0.49784424  0.04925564  1.0
  Ni  Ni2  1  0.24950772  0.83117758  0.04925564  1.0
  Ni  Ni3  1  0.58284105  0.16451091  0.04925564  1.0
  Ni  Ni4  1  0.58284105  0.49784424  0.04925564  1.0
  Ni  Ni5  1  0.58284105  0.83117758  0.04925564  1.0
  Ni  Ni6  1  0.91617439  0.16451091  0.04925564  1.0
  Ni  Ni7  1  0.91617439  0.49784424  0.04925564  1.0
  Ni  Ni8  1  0.91617439  0.83117758  0.04925564  1.0
  Ni  Ni9  1  0.08116888  0.17288136  0.15025895  1.0
  Ni  Ni10  1  0.08116888  0.50621470  0.15025895  1.0
  Ni  Ni11  1  0.08116888  0.83954803  0.15025895  1.0
  Ni  Ni12  1  0.41450221  0.17288136  0.15025895  1.0
  Ni  Ni13  1  0.41450221  0.50621470  0.15025895  1.0
  Ni  Ni14  1  0.41450221  0.83954803  0.15025895  1.0
  Ni  Ni15  1  0.74783554  0.17288136  0.15025895  1.0
  Ni  Ni16  1  0.74783554  0.50621470  0.15025895  1.0
  Ni  Ni17  1  0.74783554  0.83954803  0.15025895  1.0
  Ni  Ni18  1  0.03500141  0.04084589  0.17795943  1.0
  Ni  Ni19  1  0.03500141  0.37417923  0.17795943  1.0
  Ni  Ni20  1  0.03500141  0.70751256  0.17795943  1.0
  Ni  Ni21  1  0.36833475  0.04084589  0.17795943  1.0
  Ni  Ni22  1  0.36833475  0.37417923  0.17795943  1.0
  Ni  Ni23  1  0.36833475  0.70751256  0.17795943  1.0
  Ni  Ni24  1  0.70166808  0.04084589  0.17795943  1.0
  Ni  Ni25  1  0.70166808  0.37417923  0.17795943  1.0
  Ni  Ni26  1  0.70166808  0.70751256  0.17795943  1.0
  Ni  Ni27  1  0.29831341  0.29208067  0.01997223  1.0
  Ni  Ni28  1  0.29831341  0.62541401  0.01997223  1.0
  Ni  Ni29  1  0.29831341  0.95874734  0.01997223  1.0
  Ni  Ni30  1  0.63164674  0.29208067  0.01997223  1.0
  Ni  Ni31  1  0.63164674  0.62541401  0.01997223  1.0
  Ni  Ni32  1  0.63164674  0.95874734  0.01997223  1.0
  Ni  Ni33  1  0.96498008  0.29208067  0.01997223  1.0
  Ni  Ni34  1  0.96498008  0.62541401  0.01997223  1.0
  Ni  Ni35  1  0.96498008  0.95874734  0.01997223  1.0
  Ni  Ni36  1  0.29269306  0.08292331  0.02334444  1.0
  Ni  Ni37  1  0.29269306  0.41625664  0.02334444  1.0
  Ni  Ni38  1  0.29269306  0.74958997  0.02334444  1.0
  Ni  Ni39  1  0.62602640  0.08292331  0.02334444  1.0
  Ni  Ni40  1  0.62602640  0.41625664  0.02334444  1.0
  Ni  Ni41  1  0.62602640  0.74958997  0.02334444  1.0
  Ni  Ni42  1  0.95935973  0.08292331  0.02334444  1.0
  Ni  Ni43  1  0.95935973  0.41625664  0.02334444  1.0
  Ni  Ni44  1  0.95935973  0.74958997  0.02334444  1.0
  Ni  Ni45  1  0.03880820  0.25215451  0.17567535  1.0
  Ni  Ni46  1  0.03880820  0.58548784  0.17567535  1.0
  Ni  Ni47  1  0.03880820  0.91882118  0.17567535  1.0
  Ni  Ni48  1  0.37214154  0.25215451  0.17567535  1.0
  Ni  Ni49  1  0.37214154  0.58548784  0.17567535  1.0
  Ni  Ni50  1  0.37214154  0.91882118  0.17567535  1.0
  Ni  Ni51  1  0.70547487  0.25215451  0.17567535  1.0
  Ni  Ni52  1  0.70547487  0.58548784  0.17567535  1.0
  Ni  Ni53  1  0.70547487  0.91882118  0.17567535  1.0
  Ni  Ni54  1  0.24596454  0.16586454  0.14603634  1.0
  Ni  Ni55  1  0.24596454  0.49919788  0.14603634  1.0
  Ni  Ni56  1  0.24596454  0.83253121  0.14603634  1.0
  Ni  Ni57  1  0.57929788  0.16586454  0.14603634  1.0
  Ni  Ni58  1  0.57929788  0.49919788  0.14603634  1.0
  Ni  Ni59  1  0.57929788  0.83253121  0.14603634  1.0
  Ni  Ni60  1  0.91263121  0.16586454  0.14603634  1.0
  Ni  Ni61  1  0.91263121  0.49919788  0.14603634  1.0
  Ni  Ni62  1  0.91263121  0.83253121  0.14603634  1.0
  Ni  Ni63  1  0.08820656  0.16586454  0.05138155  1.0
  Ni  Ni64  1  0.08820656  0.49919788  0.05138155  1.0
  Ni  Ni65  1  0.08820656  0.83253121  0.05138155  1.0
  Ni  Ni66  1  0.42153989  0.16586454  0.05138155  1.0
  Ni  Ni67  1  0.42153989  0.49919788  0.05138155  1.0
  Ni  Ni68  1  0.42153989  0.83253121  0.05138155  1.0
  Ni  Ni69  1  0.75487322  0.16586454  0.05138155  1.0
  Ni  Ni70  1  0.75487322  0.49919788  0.05138155  1.0
  Ni  Ni71  1  0.75487322  0.83253121  0.05138155  1.0
  Ni  Ni72  1  0.33333208  0.00027197  0.19896103  1.0
  Ni  Ni73  1  0.33333208  0.33360531  0.19896103  1.0
  Ni  Ni74  1  0.33333208  0.66693864  0.19896103  1.0
  Ni  Ni75  1  0.66666541  0.00027197  0.19896103  1.0
  Ni  Ni76  1  0.66666541  0.33360531  0.19896103  1.0
  Ni  Ni77  1  0.66666541  0.66693864  0.19896103  1.0
  Ni  Ni78  1  0.99999875  0.00027197  0.19896103  1.0
  Ni  Ni79  1  0.99999875  0.33360531  0.19896103  1.0
  Ni  Ni80  1  0.99999875  0.66693864  0.19896103  1.0
  Ni  Ni81  1  0.29275642  0.08387028  0.12504567  1.0
  Ni  Ni82  1  0.29275642  0.41720362  0.12504567  1.0
  Ni  Ni83  1  0.29275642  0.75053695  0.12504567  1.0
  Ni  Ni84  1  0.62608975  0.08387028  0.12504567  1.0
  Ni  Ni85  1  0.62608975  0.41720362  0.12504567  1.0
  Ni  Ni86  1  0.62608975  0.75053695  0.12504567  1.0
  Ni  Ni87  1  0.95942309  0.08387028  0.12504567  1.0
  Ni  Ni88  1  0.95942309  0.41720362  0.12504567  1.0
  Ni  Ni89  1  0.95942309  0.75053695  0.12504567  1.0
  Ni  Ni90  1  0.21150766  0.25041725  0.17552161  1.0
  Ni  Ni91  1  0.21150766  0.58375058  0.17552161  1.0
  Ni  Ni92  1  0.21150766  0.91708392  0.17552161  1.0
  Ni  Ni93  1  0.54484100  0.25041725  0.17552161  1.0
  Ni  Ni94  1  0.54484100  0.58375058  0.17552161  1.0
  Ni  Ni95  1  0.54484100  0.91708392  0.17552161  1.0
  Ni  Ni96  1  0.87817433  0.25041725  0.17552161  1.0
  Ni  Ni97  1  0.87817433  0.58375058  0.17552161  1.0
  Ni  Ni98  1  0.87817433  0.91708392  0.17552161  1.0
  Ni  Ni99  1  0.12319101  0.08387028  0.02330642  1.0
  Ni  Ni100  1  0.12319101  0.41720362  0.02330642  1.0
  Ni  Ni101  1  0.12319101  0.75053695  0.02330642  1.0
  Ni  Ni102  1  0.45652434  0.08387028  0.02330642  1.0
  Ni  Ni103  1  0.45652434  0.41720362  0.02330642  1.0
  Ni  Ni104  1  0.45652434  0.75053695  0.02330642  1.0
  Ni  Ni105  1  0.78985768  0.08387028  0.02330642  1.0
  Ni  Ni106  1  0.78985768  0.41720362  0.02330642  1.0
  Ni  Ni107  1  0.78985768  0.75053695  0.02330642  1.0
  Ni  Ni108  1  0.03906444  0.25041725  0.07205568  1.0
  Ni  Ni109  1  0.03906444  0.58375058  0.07205568  1.0
  Ni  Ni110  1  0.03906444  0.91708392  0.07205568  1.0
  Ni  Ni111  1  0.37239777  0.25041725  0.07205568  1.0
  Ni  Ni112  1  0.37239777  0.58375058  0.07205568  1.0
  Ni  Ni113  1  0.37239777  0.91708392  0.07205568  1.0
  Ni  Ni114  1  0.70573111  0.25041725  0.07205568  1.0
  Ni  Ni115  1  0.70573111  0.58375058  0.07205568  1.0
  Ni  Ni116  1  0.70573111  0.91708392  0.07205568  1.0
  Ni  Ni117  1  0.00027065  0.00006070  0.09909236  1.0
  Ni  Ni118  1  0.00027065  0.33339404  0.09909236  1.0
  Ni  Ni119  1  0.00027065  0.66672737  0.09909235  1.0
  Ni  Ni120  1  0.33360398  0.00006070  0.09909236  1.0
  Ni  Ni121  1  0.33360398  0.33339404  0.09909235  1.0
  Ni  Ni122  1  0.33360398  0.66672737  0.09909236  1.0
  Ni  Ni123  1  0.66693732  0.00006070  0.09909236  1.0
  Ni  Ni124  1  0.66693732  0.33339404  0.09909236  1.0
  Ni  Ni125  1  0.66693732  0.66672737  0.09909236  1.0
  Ni  Ni126  1  0.16644653  0.00006070  0.19879789  1.0
  Ni  Ni127  1  0.16644653  0.33339404  0.19879789  1.0
  Ni  Ni128  1  0.16644653  0.66672737  0.19879789  1.0
  Ni  Ni129  1  0.49977987  0.00006070  0.19879789  1.0
  Ni  Ni130  1  0.49977987  0.33339404  0.19879788  1.0
  Ni  Ni131  1  0.49977987  0.66672737  0.19879789  1.0
  Ni  Ni132  1  0.83311320  0.00006070  0.19879788  1.0
  Ni  Ni133  1  0.83311320  0.33339404  0.19879789  1.0
  Ni  Ni134  1  0.83311320  0.66672737  0.19879789  1.0
  Ni  Ni135  1  0.21502510  0.12621890  0.06994521  1.0
  Ni  Ni136  1  0.21502510  0.45955224  0.06994521  1.0
  Ni  Ni137  1  0.21502510  0.79288557  0.06994521  1.0
  Ni  Ni138  1  0.54835843  0.12621890  0.06994521  1.0
  Ni  Ni139  1  0.54835843  0.45955224  0.06994521  1.0
  Ni  Ni140  1  0.54835843  0.79288557  0.06994521  1.0
  Ni  Ni141  1  0.88169177  0.12621890  0.06994521  1.0
  Ni  Ni142  1  0.88169177  0.45955224  0.06994521  1.0
  Ni  Ni143  1  0.88169177  0.79288557  0.06994521  1.0
  Bi  Bi144  1  0.15535025  0.12396491  0.10575013  1.0
  Bi  Bi145  1  0.15535025  0.45729825  0.10575012  1.0
  Bi  Bi146  1  0.15535025  0.79063158  0.10575012  1.0
  Bi  Bi147  1  0.48868358  0.12396491  0.10575013  1.0
  Bi  Bi148  1  0.48868358  0.45729825  0.10575013  1.0
  Bi  Bi149  1  0.48868358  0.79063158  0.10575013  1.0
  Bi  Bi150  1  0.82201692  0.12396491  0.10575013  1.0
  Bi  Bi151  1  0.82201692  0.45729825  0.10575013  1.0
  Bi  Bi152  1  0.82201692  0.79063158  0.10575012  1.0
  Bi  Bi153  1  0.17365249  0.21012291  0.09476878  1.0
  Bi  Bi154  1  0.17365249  0.54345625  0.09476878  1.0
  Bi  Bi155  1  0.17365249  0.87678958  0.09476878  1.0
  Bi  Bi156  1  0.50698582  0.21012291  0.09476878  1.0
  Bi  Bi157  1  0.50698582  0.54345625  0.09476878  1.0
  Bi  Bi158  1  0.50698582  0.87678958  0.09476878  1.0
  Bi  Bi159  1  0.84031915  0.21012291  0.09476878  1.0
  Bi  Bi160  1  0.84031915  0.54345625  0.09476878  1.0
  Bi  Bi161  1  0.84031915  0.87678958  0.09476878  1.0
  Bi  Bi162  1  0.32574213  0.12626186  0.00351500  1.0
  Bi  Bi163  1  0.32574213  0.45959519  0.00351500  1.0
  Bi  Bi164  1  0.32574213  0.79292852  0.00351500  1.0
  Bi  Bi165  1  0.65907546  0.12626186  0.00351500  1.0
  Bi  Bi166  1  0.65907546  0.45959519  0.00351500  1.0
  Bi  Bi167  1  0.65907546  0.79292852  0.00351500  1.0
  Bi  Bi168  1  0.99240879  0.12626186  0.00351500  1.0
  Bi  Bi169  1  0.99240879  0.45959519  0.00351500  1.0
  Bi  Bi170  1  0.99240879  0.79292852  0.00351500  1.0
  Bi  Bi171  1  0.00698962  0.20653424  0.19476650  1.0
  Bi  Bi172  1  0.00698962  0.53986758  0.19476650  1.0
  Bi  Bi173  1  0.00698962  0.87320091  0.19476650  1.0
  Bi  Bi174  1  0.34032296  0.20653424  0.19476650  1.0
  Bi  Bi175  1  0.34032296  0.53986758  0.19476650  1.0
  Bi  Bi176  1  0.34032296  0.87320091  0.19476650  1.0
  Bi  Bi177  1  0.67365629  0.20653424  0.19476650  1.0
  Bi  Bi178  1  0.67365629  0.53986758  0.19476650  1.0
  Bi  Bi179  1  0.67365629  0.87320091  0.19476650  1.0
  Bi  Bi180  1  0.25684864  0.04141162  0.04485109  1.0
  Bi  Bi181  1  0.25684864  0.37474496  0.04485109  1.0
  Bi  Bi182  1  0.25684864  0.70807829  0.04485109  1.0
  Bi  Bi183  1  0.59018197  0.04141162  0.04485109  1.0
  Bi  Bi184  1  0.59018197  0.37474496  0.04485109  1.0
  Bi  Bi185  1  0.59018197  0.70807829  0.04485109  1.0
  Bi  Bi186  1  0.92351531  0.04141162  0.04485109  1.0
  Bi  Bi187  1  0.92351531  0.37474496  0.04485109  1.0
  Bi  Bi188  1  0.92351531  0.70807829  0.04485109  1.0
  Bi  Bi189  1  0.07726900  0.28981970  0.15259887  1.0
  Bi  Bi190  1  0.07726900  0.62315303  0.15259887  1.0
  Bi  Bi191  1  0.07726900  0.95648637  0.15259887  1.0
  Bi  Bi192  1  0.41060233  0.28981970  0.15259887  1.0
  Bi  Bi193  1  0.41060233  0.62315303  0.15259887  1.0
  Bi  Bi194  1  0.41060233  0.95648637  0.15259888  1.0
  Bi  Bi195  1  0.74393567  0.28981970  0.15259887  1.0
  Bi  Bi196  1  0.74393567  0.62315303  0.15259888  1.0
  Bi  Bi197  1  0.74393567  0.95648637  0.15259887  1.0
  Bi  Bi198  1  0.24760383  0.04056945  0.14151928  1.0
  Bi  Bi199  1  0.24760383  0.37390278  0.14151928  1.0
  Bi  Bi200  1  0.24760383  0.70723612  0.14151928  1.0
  Bi  Bi201  1  0.58093716  0.04056945  0.14151928  1.0
  Bi  Bi202  1  0.58093716  0.37390278  0.14151929  1.0
  Bi  Bi203  1  0.58093716  0.70723612  0.14151929  1.0
  Bi  Bi204  1  0.91427049  0.04056945  0.14151928  1.0
  Bi  Bi205  1  0.91427049  0.37390278  0.14151929  1.0
  Bi  Bi206  1  0.91427049  0.70723612  0.14151928  1.0
  Bi  Bi207  1  0.23880783  0.29148315  0.14715762  1.0
  Bi  Bi208  1  0.23880783  0.62481648  0.14715762  1.0
  Bi  Bi209  1  0.23880783  0.95814981  0.14715762  1.0
  Bi  Bi210  1  0.57214117  0.29148315  0.14715762  1.0
  Bi  Bi211  1  0.57214117  0.62481648  0.14715762  1.0
  Bi  Bi212  1  0.57214117  0.95814981  0.14715762  1.0
  Bi  Bi213  1  0.90547450  0.29148315  0.14715762  1.0
  Bi  Bi214  1  0.90547450  0.62481648  0.14715762  1.0
  Bi  Bi215  1  0.90547450  0.95814981  0.14715762  1.0
  Bi  Bi216  1  0.09573498  0.04056945  0.05039798  1.0
  Bi  Bi217  1  0.09573498  0.37390278  0.05039798  1.0
  Bi  Bi218  1  0.09573498  0.70723612  0.05039798  1.0
  Bi  Bi219  1  0.42906832  0.04056945  0.05039798  1.0
  Bi  Bi220  1  0.42906832  0.37390278  0.05039798  1.0
  Bi  Bi221  1  0.42906832  0.70723612  0.05039798  1.0
  Bi  Bi222  1  0.76240165  0.04056945  0.05039798  1.0
  Bi  Bi223  1  0.76240165  0.37390278  0.05039798  1.0
  Bi  Bi224  1  0.76240165  0.70723612  0.05039798  1.0
  Bi  Bi225  1  0.08633776  0.29148315  0.05567557  1.0
  Bi  Bi226  1  0.08633776  0.62481648  0.05567557  1.0
  Bi  Bi227  1  0.08633776  0.95814981  0.05567557  1.0
  Bi  Bi228  1  0.41967109  0.29148315  0.05567558  1.0
  Bi  Bi229  1  0.41967109  0.62481648  0.05567557  1.0
  Bi  Bi230  1  0.41967109  0.95814981  0.05567557  1.0
  Bi  Bi231  1  0.75300443  0.29148315  0.05567557  1.0
  Bi  Bi232  1  0.75300443  0.62481648  0.05567558  1.0
  Bi  Bi233  1  0.75300443  0.95814981  0.05567557  1.0
  Bi  Bi234  1  0.09568377  0.04082674  0.14155001  1.0
  Bi  Bi235  1  0.09568377  0.37416007  0.14155001  1.0
  Bi  Bi236  1  0.09568377  0.70749340  0.14155001  1.0
  Bi  Bi237  1  0.42901711  0.04082674  0.14155001  1.0
  Bi  Bi238  1  0.42901711  0.37416007  0.14155001  1.0
  Bi  Bi239  1  0.42901711  0.70749340  0.14155001  1.0
  Bi  Bi240  1  0.76235044  0.04082674  0.14155001  1.0
  Bi  Bi241  1  0.76235044  0.37416007  0.14155001  1.0
  Bi  Bi242  1  0.76235044  0.70749340  0.14155001  1.0
  Bi  Bi243  1  0.23791295  0.29136184  0.05621251  1.0
  Bi  Bi244  1  0.23791295  0.62469518  0.05621251  1.0
  Bi  Bi245  1  0.23791295  0.95802851  0.05621250  1.0
  Bi  Bi246  1  0.57124628  0.29136184  0.05621251  1.0
  Bi  Bi247  1  0.57124628  0.62469518  0.05621251  1.0
  Bi  Bi248  1  0.57124628  0.95802851  0.05621250  1.0
  Bi  Bi249  1  0.90457961  0.29136184  0.05621251  1.0
  Bi  Bi250  1  0.90457961  0.62469518  0.05621251  1.0
  Bi  Bi251  1  0.90457961  0.95802851  0.05621251  1.0
  Bi  Bi252  1  0.00412546  0.12307709  0.10540902  1.0
  Bi  Bi253  1  0.00412546  0.45641043  0.10540902  1.0
  Bi  Bi254  1  0.00412546  0.78974376  0.10540902  1.0
  Bi  Bi255  1  0.33745879  0.12307709  0.10540902  1.0
  Bi  Bi256  1  0.33745879  0.45641043  0.10540902  1.0
  Bi  Bi257  1  0.33745879  0.78974376  0.10540902  1.0
  Bi  Bi258  1  0.67079212  0.12307709  0.10540902  1.0
  Bi  Bi259  1  0.67079212  0.45641043  0.10540902  1.0
  Bi  Bi260  1  0.67079212  0.78974376  0.10540902  1.0
  Bi  Bi261  1  0.17588866  0.20879518  0.19649453  1.0
  Bi  Bi262  1  0.17588866  0.54212851  0.19649453  1.0
  Bi  Bi263  1  0.17588866  0.87546184  0.19649453  1.0
  Bi  Bi264  1  0.50922200  0.20879518  0.19649453  1.0
  Bi  Bi265  1  0.50922200  0.54212851  0.19649453  1.0
  Bi  Bi266  1  0.50922200  0.87546184  0.19649453  1.0
  Bi  Bi267  1  0.84255533  0.20879518  0.19649453  1.0
  Bi  Bi268  1  0.84255533  0.54212851  0.19649453  1.0
  Bi  Bi269  1  0.84255533  0.87546184  0.19649453  1.0
  Bi  Bi270  1  0.15591876  0.12307709  0.19648500  1.0
  Bi  Bi271  1  0.15591876  0.45641043  0.19648500  1.0
  Bi  Bi272  1  0.15591876  0.78974376  0.19648500  1.0
  Bi  Bi273  1  0.48925209  0.12307709  0.19648500  1.0
  Bi  Bi274  1  0.48925209  0.45641043  0.19648500  1.0
  Bi  Bi275  1  0.48925209  0.78974376  0.19648500  1.0
  Bi  Bi276  1  0.82258543  0.12307709  0.19648500  1.0
  Bi  Bi277  1  0.82258543  0.45641043  0.19648500  1.0
  Bi  Bi278  1  0.82258543  0.78974376  0.19648500  1.0
  Bi  Bi279  1  0.00410958  0.20879518  0.09342708  1.0
  Bi  Bi280  1  0.00410958  0.54212851  0.09342708  1.0
  Bi  Bi281  1  0.00410958  0.87546184  0.09342708  1.0
  Bi  Bi282  1  0.33744291  0.20879518  0.09342708  1.0
  Bi  Bi283  1  0.33744291  0.54212851  0.09342708  1.0
  Bi  Bi284  1  0.33744291  0.87546184  0.09342708  1.0
  Bi  Bi285  1  0.67077624  0.20879518  0.09342708  1.0
  Bi  Bi286  1  0.67077624  0.54212851  0.09342708  1.0
  Bi  Bi287  1  0.67077624  0.87546184  0.09342708  1.0
  Ni  Ni288  1  0.24950772  0.16451091  0.24925564  1.0
  Ni  Ni289  1  0.24950772  0.49784424  0.24925564  1.0
  Ni  Ni290  1  0.24950772  0.83117758  0.24925564  1.0
  Ni  Ni291  1  0.58284105  0.16451091  0.24925564  1.0
  Ni  Ni292  1  0.58284105  0.49784424  0.24925564  1.0
  Ni  Ni293  1  0.58284105  0.83117758  0.24925564  1.0
  Ni  Ni294  1  0.91617439  0.16451091  0.24925564  1.0
  Ni  Ni295  1  0.91617439  0.49784424  0.24925564  1.0
  Ni  Ni296  1  0.91617439  0.83117758  0.24925564  1.0
  Ni  Ni297  1  0.08116888  0.17288136  0.35025895  1.0
  Ni  Ni298  1  0.08116888  0.50621470  0.35025895  1.0
  Ni  Ni299  1  0.08116888  0.83954803  0.35025895  1.0
  Ni  Ni300  1  0.41450221  0.17288136  0.35025895  1.0
  Ni  Ni301  1  0.41450221  0.50621470  0.35025895  1.0
  Ni  Ni302  1  0.41450221  0.83954803  0.35025895  1.0
  Ni  Ni303  1  0.74783554  0.17288136  0.35025895  1.0
  Ni  Ni304  1  0.74783554  0.50621470  0.35025895  1.0
  Ni  Ni305  1  0.74783554  0.83954803  0.35025895  1.0
  Ni  Ni306  1  0.03500141  0.04084589  0.37795943  1.0
  Ni  Ni307  1  0.03500141  0.37417923  0.37795943  1.0
  Ni  Ni308  1  0.03500141  0.70751256  0.37795943  1.0
  Ni  Ni309  1  0.36833475  0.04084589  0.37795943  1.0
  Ni  Ni310  1  0.36833475  0.37417923  0.37795943  1.0
  Ni  Ni311  1  0.36833475  0.70751256  0.37795943  1.0
  Ni  Ni312  1  0.70166808  0.04084589  0.37795943  1.0
  Ni  Ni313  1  0.70166808  0.37417923  0.37795943  1.0
  Ni  Ni314  1  0.70166808  0.70751256  0.37795943  1.0
  Ni  Ni315  1  0.29831341  0.29208067  0.21997223  1.0
  Ni  Ni316  1  0.29831341  0.62541401  0.21997223  1.0
  Ni  Ni317  1  0.29831341  0.95874734  0.21997223  1.0
  Ni  Ni318  1  0.63164674  0.29208067  0.21997223  1.0
  Ni  Ni319  1  0.63164674  0.62541401  0.21997223  1.0
  Ni  Ni320  1  0.63164674  0.95874734  0.21997223  1.0
  Ni  Ni321  1  0.96498008  0.29208067  0.21997223  1.0
  Ni  Ni322  1  0.96498008  0.62541401  0.21997223  1.0
  Ni  Ni323  1  0.96498008  0.95874734  0.21997223  1.0
  Ni  Ni324  1  0.29269306  0.08292331  0.22334444  1.0
  Ni  Ni325  1  0.29269306  0.41625664  0.22334444  1.0
  Ni  Ni326  1  0.29269306  0.74958997  0.22334444  1.0
  Ni  Ni327  1  0.62602640  0.08292331  0.22334444  1.0
  Ni  Ni328  1  0.62602640  0.41625664  0.22334444  1.0
  Ni  Ni329  1  0.62602640  0.74958997  0.22334444  1.0
  Ni  Ni330  1  0.95935973  0.08292331  0.22334444  1.0
  Ni  Ni331  1  0.95935973  0.41625664  0.22334444  1.0
  Ni  Ni332  1  0.95935973  0.74958997  0.22334444  1.0
  Ni  Ni333  1  0.03880820  0.25215451  0.37567535  1.0
  Ni  Ni334  1  0.03880820  0.58548784  0.37567535  1.0
  Ni  Ni335  1  0.03880820  0.91882118  0.37567535  1.0
  Ni  Ni336  1  0.37214154  0.25215451  0.37567535  1.0
  Ni  Ni337  1  0.37214154  0.58548784  0.37567535  1.0
  Ni  Ni338  1  0.37214154  0.91882118  0.37567535  1.0
  Ni  Ni339  1  0.70547487  0.25215451  0.37567535  1.0
  Ni  Ni340  1  0.70547487  0.58548784  0.37567535  1.0
  Ni  Ni341  1  0.70547487  0.91882118  0.37567535  1.0
  Ni  Ni342  1  0.24596454  0.16586454  0.34603634  1.0
  Ni  Ni343  1  0.24596454  0.49919788  0.34603634  1.0
  Ni  Ni344  1  0.24596454  0.83253121  0.34603634  1.0
  Ni  Ni345  1  0.57929788  0.16586454  0.34603634  1.0
  Ni  Ni346  1  0.57929788  0.49919788  0.34603634  1.0
  Ni  Ni347  1  0.57929788  0.83253121  0.34603634  1.0
  Ni  Ni348  1  0.91263121  0.16586454  0.34603634  1.0
  Ni  Ni349  1  0.91263121  0.49919788  0.34603634  1.0
  Ni  Ni350  1  0.91263121  0.83253121  0.34603634  1.0
  Ni  Ni351  1  0.08820656  0.16586454  0.25138155  1.0
  Ni  Ni352  1  0.08820656  0.49919788  0.25138155  1.0
  Ni  Ni353  1  0.08820656  0.83253121  0.25138155  1.0
  Ni  Ni354  1  0.42153989  0.16586454  0.25138155  1.0
  Ni  Ni355  1  0.42153989  0.49919788  0.25138155  1.0
  Ni  Ni356  1  0.42153989  0.83253121  0.25138155  1.0
  Ni  Ni357  1  0.75487322  0.16586454  0.25138155  1.0
  Ni  Ni358  1  0.75487322  0.49919788  0.25138155  1.0
  Ni  Ni359  1  0.75487322  0.83253121  0.25138155  1.0
  Ni  Ni360  1  0.33333208  0.00027197  0.39896103  1.0
  Ni  Ni361  1  0.33333208  0.33360531  0.39896103  1.0
  Ni  Ni362  1  0.33333208  0.66693864  0.39896103  1.0
  Ni  Ni363  1  0.66666541  0.00027197  0.39896103  1.0
  Ni  Ni364  1  0.66666541  0.33360531  0.39896103  1.0
  Ni  Ni365  1  0.66666541  0.66693864  0.39896103  1.0
  Ni  Ni366  1  0.99999875  0.00027197  0.39896103  1.0
  Ni  Ni367  1  0.99999875  0.33360531  0.39896103  1.0
  Ni  Ni368  1  0.99999875  0.66693864  0.39896103  1.0
  Ni  Ni369  1  0.29275642  0.08387028  0.32504567  1.0
  Ni  Ni370  1  0.29275642  0.41720362  0.32504567  1.0
  Ni  Ni371  1  0.29275642  0.75053695  0.32504567  1.0
  Ni  Ni372  1  0.62608975  0.08387028  0.32504567  1.0
  Ni  Ni373  1  0.62608975  0.41720362  0.32504567  1.0
  Ni  Ni374  1  0.62608975  0.75053695  0.32504567  1.0
  Ni  Ni375  1  0.95942309  0.08387028  0.32504567  1.0
  Ni  Ni376  1  0.95942309  0.41720362  0.32504567  1.0
  Ni  Ni377  1  0.95942309  0.75053695  0.32504567  1.0
  Ni  Ni378  1  0.21150766  0.25041725  0.37552161  1.0
  Ni  Ni379  1  0.21150766  0.58375058  0.37552161  1.0
  Ni  Ni380  1  0.21150766  0.91708392  0.37552161  1.0
  Ni  Ni381  1  0.54484100  0.25041725  0.37552161  1.0
  Ni  Ni382  1  0.54484100  0.58375058  0.37552161  1.0
  Ni  Ni383  1  0.54484100  0.91708392  0.37552161  1.0
  Ni  Ni384  1  0.87817433  0.25041725  0.37552161  1.0
  Ni  Ni385  1  0.87817433  0.58375058  0.37552161  1.0
  Ni  Ni386  1  0.87817433  0.91708392  0.37552161  1.0
  Ni  Ni387  1  0.12319101  0.08387028  0.22330642  1.0
  Ni  Ni388  1  0.12319101  0.41720362  0.22330642  1.0
  Ni  Ni389  1  0.12319101  0.75053695  0.22330642  1.0
  Ni  Ni390  1  0.45652434  0.08387028  0.22330642  1.0
  Ni  Ni391  1  0.45652434  0.41720362  0.22330642  1.0
  Ni  Ni392  1  0.45652434  0.75053695  0.22330642  1.0
  Ni  Ni393  1  0.78985768  0.08387028  0.22330642  1.0
  Ni  Ni394  1  0.78985768  0.41720362  0.22330642  1.0
  Ni  Ni395  1  0.78985768  0.75053695  0.22330642  1.0
  Ni  Ni396  1  0.03906444  0.25041725  0.27205568  1.0
  Ni  Ni397  1  0.03906444  0.58375058  0.27205568  1.0
  Ni  Ni398  1  0.03906444  0.91708392  0.27205568  1.0
  Ni  Ni399  1  0.37239777  0.25041725  0.27205568  1.0
  Ni  Ni400  1  0.37239777  0.58375058  0.27205568  1.0
  Ni  Ni401  1  0.37239777  0.91708392  0.27205568  1.0
  Ni  Ni402  1  0.70573111  0.25041725  0.27205568  1.0
  Ni  Ni403  1  0.70573111  0.58375058  0.27205568  1.0
  Ni  Ni404  1  0.70573111  0.91708392  0.27205568  1.0
  Ni  Ni405  1  0.00027065  0.00006070  0.29909236  1.0
  Ni  Ni406  1  0.00027065  0.33339404  0.29909235  1.0
  Ni  Ni407  1  0.00027065  0.66672737  0.29909235  1.0
  Ni  Ni408  1  0.33360398  0.00006070  0.29909236  1.0
  Ni  Ni409  1  0.33360398  0.33339404  0.29909235  1.0
  Ni  Ni410  1  0.33360398  0.66672737  0.29909236  1.0
  Ni  Ni411  1  0.66693732  0.00006070  0.29909236  1.0
  Ni  Ni412  1  0.66693732  0.33339404  0.29909236  1.0
  Ni  Ni413  1  0.66693732  0.66672737  0.29909235  1.0
  Ni  Ni414  1  0.16644653  0.00006070  0.39879788  1.0
  Ni  Ni415  1  0.16644653  0.33339404  0.39879789  1.0
  Ni  Ni416  1  0.16644653  0.66672737  0.39879789  1.0
  Ni  Ni417  1  0.49977987  0.00006070  0.39879789  1.0
  Ni  Ni418  1  0.49977987  0.33339404  0.39879788  1.0
  Ni  Ni419  1  0.49977987  0.66672737  0.39879789  1.0
  Ni  Ni420  1  0.83311320  0.00006070  0.39879789  1.0
  Ni  Ni421  1  0.83311320  0.33339404  0.39879789  1.0
  Ni  Ni422  1  0.83311320  0.66672737  0.39879789  1.0
  Ni  Ni423  1  0.21502510  0.12621890  0.26994521  1.0
  Ni  Ni424  1  0.21502510  0.45955224  0.26994521  1.0
  Ni  Ni425  1  0.21502510  0.79288557  0.26994521  1.0
  Ni  Ni426  1  0.54835843  0.12621890  0.26994521  1.0
  Ni  Ni427  1  0.54835843  0.45955224  0.26994521  1.0
  Ni  Ni428  1  0.54835843  0.79288557  0.26994521  1.0
  Ni  Ni429  1  0.88169177  0.12621890  0.26994521  1.0
  Ni  Ni430  1  0.88169177  0.45955224  0.26994521  1.0
  Ni  Ni431  1  0.88169177  0.79288557  0.26994521  1.0
  Bi  Bi432  1  0.15535025  0.12396491  0.30575012  1.0
  Bi  Bi433  1  0.15535025  0.45729825  0.30575012  1.0
  Bi  Bi434  1  0.15535025  0.79063158  0.30575012  1.0
  Bi  Bi435  1  0.48868358  0.12396491  0.30575013  1.0
  Bi  Bi436  1  0.48868358  0.45729825  0.30575013  1.0
  Bi  Bi437  1  0.48868358  0.79063158  0.30575012  1.0
  Bi  Bi438  1  0.82201692  0.12396491  0.30575013  1.0
  Bi  Bi439  1  0.82201692  0.45729825  0.30575013  1.0
  Bi  Bi440  1  0.82201692  0.79063158  0.30575012  1.0
  Bi  Bi441  1  0.17365249  0.21012291  0.29476878  1.0
  Bi  Bi442  1  0.17365249  0.54345625  0.29476878  1.0
  Bi  Bi443  1  0.17365249  0.87678958  0.29476878  1.0
  Bi  Bi444  1  0.50698582  0.21012291  0.29476878  1.0
  Bi  Bi445  1  0.50698582  0.54345625  0.29476878  1.0
  Bi  Bi446  1  0.50698582  0.87678958  0.29476878  1.0
  Bi  Bi447  1  0.84031915  0.21012291  0.29476878  1.0
  Bi  Bi448  1  0.84031915  0.54345625  0.29476878  1.0
  Bi  Bi449  1  0.84031915  0.87678958  0.29476878  1.0
  Bi  Bi450  1  0.32574213  0.12626186  0.20351500  1.0
  Bi  Bi451  1  0.32574213  0.45959519  0.20351500  1.0
  Bi  Bi452  1  0.32574213  0.79292852  0.20351500  1.0
  Bi  Bi453  1  0.65907546  0.12626186  0.20351500  1.0
  Bi  Bi454  1  0.65907546  0.45959519  0.20351500  1.0
  Bi  Bi455  1  0.65907546  0.79292852  0.20351500  1.0
  Bi  Bi456  1  0.99240879  0.12626186  0.20351500  1.0
  Bi  Bi457  1  0.99240879  0.45959519  0.20351500  1.0
  Bi  Bi458  1  0.99240879  0.79292852  0.20351500  1.0
  Bi  Bi459  1  0.00698962  0.20653424  0.39476650  1.0
  Bi  Bi460  1  0.00698962  0.53986758  0.39476650  1.0
  Bi  Bi461  1  0.00698962  0.87320091  0.39476650  1.0
  Bi  Bi462  1  0.34032296  0.20653424  0.39476650  1.0
  Bi  Bi463  1  0.34032296  0.53986758  0.39476650  1.0
  Bi  Bi464  1  0.34032296  0.87320091  0.39476650  1.0
  Bi  Bi465  1  0.67365629  0.20653424  0.39476650  1.0
  Bi  Bi466  1  0.67365629  0.53986758  0.39476650  1.0
  Bi  Bi467  1  0.67365629  0.87320091  0.39476650  1.0
  Bi  Bi468  1  0.25684864  0.04141162  0.24485109  1.0
  Bi  Bi469  1  0.25684864  0.37474496  0.24485109  1.0
  Bi  Bi470  1  0.25684864  0.70807829  0.24485109  1.0
  Bi  Bi471  1  0.59018197  0.04141162  0.24485109  1.0
  Bi  Bi472  1  0.59018197  0.37474496  0.24485109  1.0
  Bi  Bi473  1  0.59018197  0.70807829  0.24485109  1.0
  Bi  Bi474  1  0.92351531  0.04141162  0.24485109  1.0
  Bi  Bi475  1  0.92351531  0.37474496  0.24485109  1.0
  Bi  Bi476  1  0.92351531  0.70807829  0.24485109  1.0
  Bi  Bi477  1  0.07726900  0.28981970  0.35259887  1.0
  Bi  Bi478  1  0.07726900  0.62315303  0.35259887  1.0
  Bi  Bi479  1  0.07726900  0.95648637  0.35259887  1.0
  Bi  Bi480  1  0.41060233  0.28981970  0.35259887  1.0
  Bi  Bi481  1  0.41060233  0.62315303  0.35259887  1.0
  Bi  Bi482  1  0.41060233  0.95648637  0.35259888  1.0
  Bi  Bi483  1  0.74393567  0.28981970  0.35259887  1.0
  Bi  Bi484  1  0.74393567  0.62315303  0.35259887  1.0
  Bi  Bi485  1  0.74393567  0.95648637  0.35259887  1.0
  Bi  Bi486  1  0.24760383  0.04056945  0.34151929  1.0
  Bi  Bi487  1  0.24760383  0.37390278  0.34151929  1.0
  Bi  Bi488  1  0.24760383  0.70723612  0.34151928  1.0
  Bi  Bi489  1  0.58093716  0.04056945  0.34151929  1.0
  Bi  Bi490  1  0.58093716  0.37390278  0.34151929  1.0
  Bi  Bi491  1  0.58093716  0.70723612  0.34151929  1.0
  Bi  Bi492  1  0.91427049  0.04056945  0.34151929  1.0
  Bi  Bi493  1  0.91427049  0.37390278  0.34151929  1.0
  Bi  Bi494  1  0.91427049  0.70723612  0.34151928  1.0
  Bi  Bi495  1  0.23880783  0.29148315  0.34715762  1.0
  Bi  Bi496  1  0.23880783  0.62481648  0.34715762  1.0
  Bi  Bi497  1  0.23880783  0.95814981  0.34715762  1.0
  Bi  Bi498  1  0.57214117  0.29148315  0.34715762  1.0
  Bi  Bi499  1  0.57214117  0.62481648  0.34715762  1.0
  Bi  Bi500  1  0.57214117  0.95814981  0.34715762  1.0
  Bi  Bi501  1  0.90547450  0.29148315  0.34715762  1.0
  Bi  Bi502  1  0.90547450  0.62481648  0.34715762  1.0
  Bi  Bi503  1  0.90547450  0.95814981  0.34715762  1.0
  Bi  Bi504  1  0.09573498  0.04056945  0.25039798  1.0
  Bi  Bi505  1  0.09573498  0.37390278  0.25039798  1.0
  Bi  Bi506  1  0.09573498  0.70723612  0.25039798  1.0
  Bi  Bi507  1  0.42906832  0.04056945  0.25039798  1.0
  Bi  Bi508  1  0.42906832  0.37390278  0.25039798  1.0
  Bi  Bi509  1  0.42906832  0.70723612  0.25039798  1.0
  Bi  Bi510  1  0.76240165  0.04056945  0.25039798  1.0
  Bi  Bi511  1  0.76240165  0.37390278  0.25039798  1.0
  Bi  Bi512  1  0.76240165  0.70723612  0.25039798  1.0
  Bi  Bi513  1  0.08633776  0.29148315  0.25567557  1.0
  Bi  Bi514  1  0.08633776  0.62481648  0.25567557  1.0
  Bi  Bi515  1  0.08633776  0.95814981  0.25567557  1.0
  Bi  Bi516  1  0.41967109  0.29148315  0.25567558  1.0
  Bi  Bi517  1  0.41967109  0.62481648  0.25567557  1.0
  Bi  Bi518  1  0.41967109  0.95814981  0.25567557  1.0
  Bi  Bi519  1  0.75300443  0.29148315  0.25567557  1.0
  Bi  Bi520  1  0.75300443  0.62481648  0.25567558  1.0
  Bi  Bi521  1  0.75300443  0.95814981  0.25567557  1.0
  Bi  Bi522  1  0.09568377  0.04082674  0.34155001  1.0
  Bi  Bi523  1  0.09568377  0.37416007  0.34155001  1.0
  Bi  Bi524  1  0.09568377  0.70749340  0.34155001  1.0
  Bi  Bi525  1  0.42901711  0.04082674  0.34155001  1.0
  Bi  Bi526  1  0.42901711  0.37416007  0.34155001  1.0
  Bi  Bi527  1  0.42901711  0.70749340  0.34155001  1.0
  Bi  Bi528  1  0.76235044  0.04082674  0.34155001  1.0
  Bi  Bi529  1  0.76235044  0.37416007  0.34155001  1.0
  Bi  Bi530  1  0.76235044  0.70749340  0.34155001  1.0
  Bi  Bi531  1  0.23791295  0.29136184  0.25621251  1.0
  Bi  Bi532  1  0.23791295  0.62469518  0.25621251  1.0
  Bi  Bi533  1  0.23791295  0.95802851  0.25621251  1.0
  Bi  Bi534  1  0.57124628  0.29136184  0.25621251  1.0
  Bi  Bi535  1  0.57124628  0.62469518  0.25621251  1.0
  Bi  Bi536  1  0.57124628  0.95802851  0.25621250  1.0
  Bi  Bi537  1  0.90457961  0.29136184  0.25621251  1.0
  Bi  Bi538  1  0.90457961  0.62469518  0.25621251  1.0
  Bi  Bi539  1  0.90457961  0.95802851  0.25621251  1.0
  Bi  Bi540  1  0.00412546  0.12307709  0.30540902  1.0
  Bi  Bi541  1  0.00412546  0.45641043  0.30540902  1.0
  Bi  Bi542  1  0.00412546  0.78974376  0.30540902  1.0
  Bi  Bi543  1  0.33745879  0.12307709  0.30540902  1.0
  Bi  Bi544  1  0.33745879  0.45641043  0.30540902  1.0
  Bi  Bi545  1  0.33745879  0.78974376  0.30540902  1.0
  Bi  Bi546  1  0.67079212  0.12307709  0.30540902  1.0
  Bi  Bi547  1  0.67079212  0.45641043  0.30540902  1.0
  Bi  Bi548  1  0.67079212  0.78974376  0.30540902  1.0
  Bi  Bi549  1  0.17588866  0.20879518  0.39649453  1.0
  Bi  Bi550  1  0.17588866  0.54212851  0.39649453  1.0
  Bi  Bi551  1  0.17588866  0.87546184  0.39649453  1.0
  Bi  Bi552  1  0.50922200  0.20879518  0.39649453  1.0
  Bi  Bi553  1  0.50922200  0.54212851  0.39649453  1.0
  Bi  Bi554  1  0.50922200  0.87546184  0.39649453  1.0
  Bi  Bi555  1  0.84255533  0.20879518  0.39649453  1.0
  Bi  Bi556  1  0.84255533  0.54212851  0.39649453  1.0
  Bi  Bi557  1  0.84255533  0.87546184  0.39649453  1.0
  Bi  Bi558  1  0.15591876  0.12307709  0.39648500  1.0
  Bi  Bi559  1  0.15591876  0.45641043  0.39648500  1.0
  Bi  Bi560  1  0.15591876  0.78974376  0.39648500  1.0
  Bi  Bi561  1  0.48925209  0.12307709  0.39648500  1.0
  Bi  Bi562  1  0.48925209  0.45641043  0.39648500  1.0
  Bi  Bi563  1  0.48925209  0.78974376  0.39648500  1.0
  Bi  Bi564  1  0.82258543  0.12307709  0.39648500  1.0
  Bi  Bi565  1  0.82258543  0.45641043  0.39648500  1.0
  Bi  Bi566  1  0.82258543  0.78974376  0.39648500  1.0
  Bi  Bi567  1  0.00410958  0.20879518  0.29342708  1.0
  Bi  Bi568  1  0.00410958  0.54212851  0.29342708  1.0
  Bi  Bi569  1  0.00410958  0.87546184  0.29342708  1.0
  Bi  Bi570  1  0.33744291  0.20879518  0.29342708  1.0
  Bi  Bi571  1  0.33744291  0.54212851  0.29342708  1.0
  Bi  Bi572  1  0.33744291  0.87546184  0.29342708  1.0
  Bi  Bi573  1  0.67077624  0.20879518  0.29342708  1.0
  Bi  Bi574  1  0.67077624  0.54212851  0.29342708  1.0
  Bi  Bi575  1  0.67077624  0.87546184  0.29342708  1.0
