# generated using pymatgen
data_NiBi3
_symmetry_space_group_name_H-M   'P 1'
_cell_length_a   12.47646900
_cell_length_b   26.72847000
_cell_length_c   34.64077500
_cell_angle_alpha   90.00000000
_cell_angle_beta   90.00000000
_cell_angle_gamma   90.00000000
_symmetry_Int_Tables_number   1
_chemical_formula_structural   NiBi3
_chemical_formula_sum   'Ni36 Bi108'
_cell_volume   11551.89920880
_cell_formula_units_Z   36
loop_
 _symmetry_equiv_pos_site_id
 _symmetry_equiv_pos_as_xyz
  1  'x, y, z'
loop_
 _atom_site_type_symbol
 _atom_site_label
 _atom_site_symmetry_multiplicity
 _atom_site_fract_x
 _atom_site_fract_y
 _atom_site_fract_z
 _atom_site_occupancy
  Ni  Ni0  1  0.08333333  0.19636400  0.30847017  1.0
  Ni  Ni1  1  0.08333333  0.52969733  0.30847017  1.0
  Ni  Ni2  1  0.08333333  0.86303067  0.30847017  1.0
  Ni  Ni3  1  0.41666667  0.19636400  0.30847017  1.0
  Ni  Ni4  1  0.41666667  0.52969733  0.30847017  1.0
  Ni  Ni5  1  0.41666667  0.86303067  0.30847017  1.0
  Ni  Ni6  1  0.75000000  0.19636400  0.30847017  1.0
  Ni  Ni7  1  0.75000000  0.52969733  0.30847017  1.0
  Ni  Ni8  1  0.75000000  0.86303067  0.30847017  1.0
  Ni  Ni9  1  0.25000000  0.13696933  0.32112217  1.0
  Ni  Ni10  1  0.25000000  0.47030267  0.32112217  1.0
  Ni  Ni11  1  0.25000000  0.80363600  0.32112217  1.0
  Ni  Ni12  1  0.58333333  0.13696933  0.32112217  1.0
  Ni  Ni13  1  0.58333333  0.47030267  0.32112217  1.0
  Ni  Ni14  1  0.58333333  0.80363600  0.32112217  1.0
  Ni  Ni15  1  0.91666667  0.13696933  0.32112217  1.0
  Ni  Ni16  1  0.91666667  0.47030267  0.32112217  1.0
  Ni  Ni17  1  0.91666667  0.80363600  0.32112217  1.0
  Ni  Ni18  1  0.08333333  0.02969733  0.15445550  1.0
  Ni  Ni19  1  0.08333333  0.36303067  0.15445550  1.0
  Ni  Ni20  1  0.08333333  0.69636400  0.15445550  1.0
  Ni  Ni21  1  0.41666667  0.02969733  0.15445550  1.0
  Ni  Ni22  1  0.41666667  0.36303067  0.15445550  1.0
  Ni  Ni23  1  0.41666667  0.69636400  0.15445550  1.0
  Ni  Ni24  1  0.75000000  0.02969733  0.15445550  1.0
  Ni  Ni25  1  0.75000000  0.36303067  0.15445550  1.0
  Ni  Ni26  1  0.75000000  0.69636400  0.15445550  1.0
  Ni  Ni27  1  0.25000000  0.30363600  0.14180350  1.0
  Ni  Ni28  1  0.25000000  0.63696933  0.14180350  1.0
  Ni  Ni29  1  0.25000000  0.97030267  0.14180350  1.0
  Ni  Ni30  1  0.58333333  0.30363600  0.14180350  1.0
  Ni  Ni31  1  0.58333333  0.63696933  0.14180350  1.0
  Ni  Ni32  1  0.58333333  0.97030267  0.14180350  1.0
  Ni  Ni33  1  0.91666667  0.30363600  0.14180350  1.0
  Ni  Ni34  1  0.91666667  0.63696933  0.14180350  1.0
  Ni  Ni35  1  0.91666667  0.97030267  0.14180350  1.0
  Bi  Bi36  1  0.25000000  0.23390333  0.01794283  1.0
  Bi  Bi37  1  0.25000000  0.56723667  0.01794283  1.0
  Bi  Bi38  1  0.25000000  0.90057000  0.01794283  1.0
  Bi  Bi39  1  0.58333333  0.23390333  0.01794283  1.0
  Bi  Bi40  1  0.58333333  0.56723667  0.01794283  1.0
  Bi  Bi41  1  0.58333333  0.90057000  0.01794283  1.0
  Bi  Bi42  1  0.91666667  0.23390333  0.01794283  1.0
  Bi  Bi43  1  0.91666667  0.56723667  0.01794283  1.0
  Bi  Bi44  1  0.91666667  0.90057000  0.01794283  1.0
  Bi  Bi45  1  0.08333333  0.09943000  0.27831617  1.0
  Bi  Bi46  1  0.08333333  0.43276333  0.27831617  1.0
  Bi  Bi47  1  0.08333333  0.76609667  0.27831617  1.0
  Bi  Bi48  1  0.41666667  0.09943000  0.27831617  1.0
  Bi  Bi49  1  0.41666667  0.43276333  0.27831617  1.0
  Bi  Bi50  1  0.41666667  0.76609667  0.27831617  1.0
  Bi  Bi51  1  0.75000000  0.09943000  0.27831617  1.0
  Bi  Bi52  1  0.75000000  0.43276333  0.27831617  1.0
  Bi  Bi53  1  0.75000000  0.76609667  0.27831617  1.0
  Bi  Bi54  1  0.25000000  0.06723667  0.11164950  1.0
  Bi  Bi55  1  0.25000000  0.40057000  0.11164950  1.0
  Bi  Bi56  1  0.25000000  0.73390333  0.11164950  1.0
  Bi  Bi57  1  0.58333333  0.06723667  0.11164950  1.0
  Bi  Bi58  1  0.58333333  0.40057000  0.11164950  1.0
  Bi  Bi59  1  0.58333333  0.73390333  0.11164950  1.0
  Bi  Bi60  1  0.91666667  0.06723667  0.11164950  1.0
  Bi  Bi61  1  0.91666667  0.40057000  0.11164950  1.0
  Bi  Bi62  1  0.91666667  0.73390333  0.11164950  1.0
  Bi  Bi63  1  0.08333333  0.26609667  0.18460950  1.0
  Bi  Bi64  1  0.08333333  0.59943000  0.18460950  1.0
  Bi  Bi65  1  0.08333333  0.93276333  0.18460950  1.0
  Bi  Bi66  1  0.41666667  0.26609667  0.18460950  1.0
  Bi  Bi67  1  0.41666667  0.59943000  0.18460950  1.0
  Bi  Bi68  1  0.41666667  0.93276333  0.18460950  1.0
  Bi  Bi69  1  0.75000000  0.26609667  0.18460950  1.0
  Bi  Bi70  1  0.75000000  0.59943000  0.18460950  1.0
  Bi  Bi71  1  0.75000000  0.93276333  0.18460950  1.0
  Bi  Bi72  1  0.25000000  0.20657400  0.11738117  1.0
  Bi  Bi73  1  0.25000000  0.53990733  0.11738117  1.0
  Bi  Bi74  1  0.25000000  0.87324067  0.11738117  1.0
  Bi  Bi75  1  0.58333333  0.20657400  0.11738117  1.0
  Bi  Bi76  1  0.58333333  0.53990733  0.11738117  1.0
  Bi  Bi77  1  0.58333333  0.87324067  0.11738117  1.0
  Bi  Bi78  1  0.91666667  0.20657400  0.11738117  1.0
  Bi  Bi79  1  0.91666667  0.53990733  0.11738117  1.0
  Bi  Bi80  1  0.91666667  0.87324067  0.11738117  1.0
  Bi  Bi81  1  0.08333333  0.12675933  0.17887783  1.0
  Bi  Bi82  1  0.08333333  0.46009267  0.17887783  1.0
  Bi  Bi83  1  0.08333333  0.79342600  0.17887783  1.0
  Bi  Bi84  1  0.41666667  0.12675933  0.17887783  1.0
  Bi  Bi85  1  0.41666667  0.46009267  0.17887783  1.0
  Bi  Bi86  1  0.41666667  0.79342600  0.17887783  1.0
  Bi  Bi87  1  0.75000000  0.12675933  0.17887783  1.0
  Bi  Bi88  1  0.75000000  0.46009267  0.17887783  1.0
  Bi  Bi89  1  0.75000000  0.79342600  0.17887783  1.0
  Bi  Bi90  1  0.25000000  0.03990733  0.01221117  1.0
  Bi  Bi91  1  0.25000000  0.37324067  0.01221117  1.0
  Bi  Bi92  1  0.25000000  0.70657400  0.01221117  1.0
  Bi  Bi93  1  0.58333333  0.03990733  0.01221117  1.0
  Bi  Bi94  1  0.58333333  0.37324067  0.01221117  1.0
  Bi  Bi95  1  0.58333333  0.70657400  0.01221117  1.0
  Bi  Bi96  1  0.91666667  0.03990733  0.01221117  1.0
  Bi  Bi97  1  0.91666667  0.37324067  0.01221117  1.0
  Bi  Bi98  1  0.91666667  0.70657400  0.01221117  1.0
  Bi  Bi99  1  0.08333333  0.29342600  0.28404783  1.0
  Bi  Bi100  1  0.08333333  0.62675933  0.28404783  1.0
  Bi  Bi101  1  0.08333333  0.96009267  0.28404783  1.0
  Bi  Bi102  1  0.41666667  0.29342600  0.28404783  1.0
  Bi  Bi103  1  0.41666667  0.62675933  0.28404783  1.0
  Bi  Bi104  1  0.41666667  0.96009267  0.28404783  1.0
  Bi  Bi105  1  0.75000000  0.29342600  0.28404783  1.0
  Bi  Bi106  1  0.75000000  0.62675933  0.28404783  1.0
  Bi  Bi107  1  0.75000000  0.96009267  0.28404783  1.0
  Bi  Bi108  1  0.08333333  0.30351367  0.08903950  1.0
  Bi  Bi109  1  0.08333333  0.63684700  0.08903950  1.0
  Bi  Bi110  1  0.08333333  0.97018033  0.08903950  1.0
  Bi  Bi111  1  0.41666667  0.30351367  0.08903950  1.0
  Bi  Bi112  1  0.41666667  0.63684700  0.08903950  1.0
  Bi  Bi113  1  0.41666667  0.97018033  0.08903950  1.0
  Bi  Bi114  1  0.75000000  0.30351367  0.08903950  1.0
  Bi  Bi115  1  0.75000000  0.63684700  0.08903950  1.0
  Bi  Bi116  1  0.75000000  0.97018033  0.08903950  1.0
  Bi  Bi117  1  0.25000000  0.02981967  0.20721950  1.0
  Bi  Bi118  1  0.25000000  0.36315300  0.20721950  1.0
  Bi  Bi119  1  0.25000000  0.69648633  0.20721950  1.0
  Bi  Bi120  1  0.58333333  0.02981967  0.20721950  1.0
  Bi  Bi121  1  0.58333333  0.36315300  0.20721950  1.0
  Bi  Bi122  1  0.58333333  0.69648633  0.20721950  1.0
  Bi  Bi123  1  0.91666667  0.02981967  0.20721950  1.0
  Bi  Bi124  1  0.91666667  0.36315300  0.20721950  1.0
  Bi  Bi125  1  0.91666667  0.69648633  0.20721950  1.0
  Bi  Bi126  1  0.08333333  0.13684700  0.04055283  1.0
  Bi  Bi127  1  0.08333333  0.47018033  0.04055283  1.0
  Bi  Bi128  1  0.08333333  0.80351367  0.04055283  1.0
  Bi  Bi129  1  0.41666667  0.13684700  0.04055283  1.0
  Bi  Bi130  1  0.41666667  0.47018033  0.04055283  1.0
  Bi  Bi131  1  0.41666667  0.80351367  0.04055283  1.0
  Bi  Bi132  1  0.75000000  0.13684700  0.04055283  1.0
  Bi  Bi133  1  0.75000000  0.47018033  0.04055283  1.0
  Bi  Bi134  1  0.75000000  0.80351367  0.04055283  1.0
  Bi  Bi135  1  0.25000000  0.19648633  0.25570617  1.0
  Bi  Bi136  1  0.25000000  0.52981967  0.25570617  1.0
  Bi  Bi137  1  0.25000000  0.86315300  0.25570617  1.0
  Bi  Bi138  1  0.58333333  0.19648633  0.25570617  1.0
  Bi  Bi139  1  0.58333333  0.52981967  0.25570617  1.0
  Bi  Bi140  1  0.58333333  0.86315300  0.25570617  1.0
  Bi  Bi141  1  0.91666667  0.19648633  0.25570617  1.0
  Bi  Bi142  1  0.91666667  0.52981967  0.25570617  1.0
  Bi  Bi143  1  0.91666667  0.86315300  0.25570617  1.0
