# generated using pymatgen
data_NiBi
_symmetry_space_group_name_H-M   'P 1'
_cell_length_a   12.51827475
_cell_length_b   34.15187897
_cell_length_c   33.38206600
_cell_angle_alpha   111.50282954
_cell_angle_beta   120.00000000
_cell_angle_gamma   79.43950460
_symmetry_Int_Tables_number   1
_chemical_formula_structural   NiBi
_chemical_formula_sum   'Ni108 Bi108'
_cell_volume   11499.32578598
_cell_formula_units_Z   108
loop_
 _symmetry_equiv_pos_site_id
 _symmetry_equiv_pos_as_xyz
  1  'x, y, z'
loop_
 _atom_site_type_symbol
 _atom_site_label
 _atom_site_symmetry_multiplicity
 _atom_site_fract_x
 _atom_site_fract_y
 _atom_site_fract_z
 _atom_site_occupancy
  Ni  Ni0  1  0.00000000  0.00000000  0.12239583  1.0
  Ni  Ni1  1  0.00000000  0.33333333  0.12239583  1.0
  Ni  Ni2  1  0.00000000  0.66666667  0.12239583  1.0
  Ni  Ni3  1  0.33333333  0.00000000  0.12239583  1.0
  Ni  Ni4  1  0.33333333  0.33333333  0.12239583  1.0
  Ni  Ni5  1  0.33333333  0.66666667  0.12239583  1.0
  Ni  Ni6  1  0.66666667  0.00000000  0.12239583  1.0
  Ni  Ni7  1  0.66666667  0.33333333  0.12239583  1.0
  Ni  Ni8  1  0.66666667  0.66666667  0.12239583  1.0
  Ni  Ni9  1  0.00000000  0.16666667  0.05989583  1.0
  Ni  Ni10  1  0.00000000  0.50000000  0.05989583  1.0
  Ni  Ni11  1  0.00000000  0.83333333  0.05989583  1.0
  Ni  Ni12  1  0.33333333  0.16666667  0.05989583  1.0
  Ni  Ni13  1  0.33333333  0.50000000  0.05989583  1.0
  Ni  Ni14  1  0.33333333  0.83333333  0.05989583  1.0
  Ni  Ni15  1  0.66666667  0.16666667  0.05989583  1.0
  Ni  Ni16  1  0.66666667  0.50000000  0.05989583  1.0
  Ni  Ni17  1  0.66666667  0.83333333  0.05989583  1.0
  Ni  Ni18  1  0.00000000  0.08333333  0.02864583  1.0
  Ni  Ni19  1  0.00000000  0.41666667  0.02864583  1.0
  Ni  Ni20  1  0.00000000  0.75000000  0.02864583  1.0
  Ni  Ni21  1  0.33333333  0.08333333  0.02864583  1.0
  Ni  Ni22  1  0.33333333  0.41666667  0.02864583  1.0
  Ni  Ni23  1  0.33333333  0.75000000  0.02864583  1.0
  Ni  Ni24  1  0.66666667  0.08333333  0.02864583  1.0
  Ni  Ni25  1  0.66666667  0.41666667  0.02864583  1.0
  Ni  Ni26  1  0.66666667  0.75000000  0.02864583  1.0
  Ni  Ni27  1  0.00000000  0.25000000  0.09114583  1.0
  Ni  Ni28  1  0.00000000  0.58333333  0.09114583  1.0
  Ni  Ni29  1  0.00000000  0.91666667  0.09114583  1.0
  Ni  Ni30  1  0.33333333  0.25000000  0.09114583  1.0
  Ni  Ni31  1  0.33333333  0.58333333  0.09114583  1.0
  Ni  Ni32  1  0.33333333  0.91666667  0.09114583  1.0
  Ni  Ni33  1  0.66666667  0.25000000  0.09114583  1.0
  Ni  Ni34  1  0.66666667  0.58333333  0.09114583  1.0
  Ni  Ni35  1  0.66666667  0.91666667  0.09114583  1.0
  Bi  Bi36  1  0.11111111  0.12500000  0.00260417  1.0
  Bi  Bi37  1  0.11111111  0.45833333  0.00260417  1.0
  Bi  Bi38  1  0.11111111  0.79166667  0.00260417  1.0
  Bi  Bi39  1  0.44444444  0.12500000  0.00260417  1.0
  Bi  Bi40  1  0.44444444  0.45833333  0.00260417  1.0
  Bi  Bi41  1  0.44444444  0.79166667  0.00260417  1.0
  Bi  Bi42  1  0.77777778  0.12500000  0.00260417  1.0
  Bi  Bi43  1  0.77777778  0.45833333  0.00260417  1.0
  Bi  Bi44  1  0.77777778  0.79166667  0.00260417  1.0
  Bi  Bi45  1  0.11111111  0.29166667  0.06510417  1.0
  Bi  Bi46  1  0.11111111  0.62500000  0.06510417  1.0
  Bi  Bi47  1  0.11111111  0.95833333  0.06510417  1.0
  Bi  Bi48  1  0.44444444  0.29166667  0.06510417  1.0
  Bi  Bi49  1  0.44444444  0.62500000  0.06510417  1.0
  Bi  Bi50  1  0.44444444  0.95833333  0.06510417  1.0
  Bi  Bi51  1  0.77777778  0.29166667  0.06510417  1.0
  Bi  Bi52  1  0.77777778  0.62500000  0.06510417  1.0
  Bi  Bi53  1  0.77777778  0.95833333  0.06510417  1.0
  Bi  Bi54  1  0.22222222  0.04166667  0.05468750  1.0
  Bi  Bi55  1  0.22222222  0.37500000  0.05468750  1.0
  Bi  Bi56  1  0.22222222  0.70833333  0.05468750  1.0
  Bi  Bi57  1  0.55555556  0.04166667  0.05468750  1.0
  Bi  Bi58  1  0.55555556  0.37500000  0.05468750  1.0
  Bi  Bi59  1  0.55555556  0.70833333  0.05468750  1.0
  Bi  Bi60  1  0.88888889  0.04166667  0.05468750  1.0
  Bi  Bi61  1  0.88888889  0.37500000  0.05468750  1.0
  Bi  Bi62  1  0.88888889  0.70833333  0.05468750  1.0
  Bi  Bi63  1  0.22222222  0.20833333  0.11718750  1.0
  Bi  Bi64  1  0.22222222  0.54166667  0.11718750  1.0
  Bi  Bi65  1  0.22222222  0.87500000  0.11718750  1.0
  Bi  Bi66  1  0.55555556  0.20833333  0.11718750  1.0
  Bi  Bi67  1  0.55555556  0.54166667  0.11718750  1.0
  Bi  Bi68  1  0.55555556  0.87500000  0.11718750  1.0
  Bi  Bi69  1  0.88888889  0.20833333  0.11718750  1.0
  Bi  Bi70  1  0.88888889  0.54166667  0.11718750  1.0
  Bi  Bi71  1  0.88888889  0.87500000  0.11718750  1.0
  Ni  Ni72  1  0.00000000  0.00000000  0.24739583  1.0
  Ni  Ni73  1  0.00000000  0.33333333  0.24739583  1.0
  Ni  Ni74  1  0.00000000  0.66666667  0.24739583  1.0
  Ni  Ni75  1  0.33333333  0.00000000  0.24739583  1.0
  Ni  Ni76  1  0.33333333  0.33333333  0.24739583  1.0
  Ni  Ni77  1  0.33333333  0.66666667  0.24739583  1.0
  Ni  Ni78  1  0.66666667  0.00000000  0.24739583  1.0
  Ni  Ni79  1  0.66666667  0.33333333  0.24739583  1.0
  Ni  Ni80  1  0.66666667  0.66666667  0.24739583  1.0
  Ni  Ni81  1  0.00000000  0.16666667  0.18489583  1.0
  Ni  Ni82  1  0.00000000  0.50000000  0.18489583  1.0
  Ni  Ni83  1  0.00000000  0.83333333  0.18489583  1.0
  Ni  Ni84  1  0.33333333  0.16666667  0.18489583  1.0
  Ni  Ni85  1  0.33333333  0.50000000  0.18489583  1.0
  Ni  Ni86  1  0.33333333  0.83333333  0.18489583  1.0
  Ni  Ni87  1  0.66666667  0.16666667  0.18489583  1.0
  Ni  Ni88  1  0.66666667  0.50000000  0.18489583  1.0
  Ni  Ni89  1  0.66666667  0.83333333  0.18489583  1.0
  Ni  Ni90  1  0.00000000  0.08333333  0.15364583  1.0
  Ni  Ni91  1  0.00000000  0.41666667  0.15364583  1.0
  Ni  Ni92  1  0.00000000  0.75000000  0.15364583  1.0
  Ni  Ni93  1  0.33333333  0.08333333  0.15364583  1.0
  Ni  Ni94  1  0.33333333  0.41666667  0.15364583  1.0
  Ni  Ni95  1  0.33333333  0.75000000  0.15364583  1.0
  Ni  Ni96  1  0.66666667  0.08333333  0.15364583  1.0
  Ni  Ni97  1  0.66666667  0.41666667  0.15364583  1.0
  Ni  Ni98  1  0.66666667  0.75000000  0.15364583  1.0
  Ni  Ni99  1  0.00000000  0.25000000  0.21614583  1.0
  Ni  Ni100  1  0.00000000  0.58333333  0.21614583  1.0
  Ni  Ni101  1  0.00000000  0.91666667  0.21614583  1.0
  Ni  Ni102  1  0.33333333  0.25000000  0.21614583  1.0
  Ni  Ni103  1  0.33333333  0.58333333  0.21614583  1.0
  Ni  Ni104  1  0.33333333  0.91666667  0.21614583  1.0
  Ni  Ni105  1  0.66666667  0.25000000  0.21614583  1.0
  Ni  Ni106  1  0.66666667  0.58333333  0.21614583  1.0
  Ni  Ni107  1  0.66666667  0.91666667  0.21614583  1.0
  Bi  Bi108  1  0.11111111  0.12500000  0.12760417  1.0
  Bi  Bi109  1  0.11111111  0.45833333  0.12760417  1.0
  Bi  Bi110  1  0.11111111  0.79166667  0.12760417  1.0
  Bi  Bi111  1  0.44444444  0.12500000  0.12760417  1.0
  Bi  Bi112  1  0.44444444  0.45833333  0.12760417  1.0
  Bi  Bi113  1  0.44444444  0.79166667  0.12760417  1.0
  Bi  Bi114  1  0.77777778  0.12500000  0.12760417  1.0
  Bi  Bi115  1  0.77777778  0.45833333  0.12760417  1.0
  Bi  Bi116  1  0.77777778  0.79166667  0.12760417  1.0
  Bi  Bi117  1  0.11111111  0.29166667  0.19010417  1.0
  Bi  Bi118  1  0.11111111  0.62500000  0.19010417  1.0
  Bi  Bi119  1  0.11111111  0.95833333  0.19010417  1.0
  Bi  Bi120  1  0.44444444  0.29166667  0.19010417  1.0
  Bi  Bi121  1  0.44444444  0.62500000  0.19010417  1.0
  Bi  Bi122  1  0.44444444  0.95833333  0.19010417  1.0
  Bi  Bi123  1  0.77777778  0.29166667  0.19010417  1.0
  Bi  Bi124  1  0.77777778  0.62500000  0.19010417  1.0
  Bi  Bi125  1  0.77777778  0.95833333  0.19010417  1.0
  Bi  Bi126  1  0.22222222  0.04166667  0.17968750  1.0
  Bi  Bi127  1  0.22222222  0.37500000  0.17968750  1.0
  Bi  Bi128  1  0.22222222  0.70833333  0.17968750  1.0
  Bi  Bi129  1  0.55555556  0.04166667  0.17968750  1.0
  Bi  Bi130  1  0.55555556  0.37500000  0.17968750  1.0
  Bi  Bi131  1  0.55555556  0.70833333  0.17968750  1.0
  Bi  Bi132  1  0.88888889  0.04166667  0.17968750  1.0
  Bi  Bi133  1  0.88888889  0.37500000  0.17968750  1.0
  Bi  Bi134  1  0.88888889  0.70833333  0.17968750  1.0
  Bi  Bi135  1  0.22222222  0.20833333  0.24218750  1.0
  Bi  Bi136  1  0.22222222  0.54166667  0.24218750  1.0
  Bi  Bi137  1  0.22222222  0.87500000  0.24218750  1.0
  Bi  Bi138  1  0.55555556  0.20833333  0.24218750  1.0
  Bi  Bi139  1  0.55555556  0.54166667  0.24218750  1.0
  Bi  Bi140  1  0.55555556  0.87500000  0.24218750  1.0
  Bi  Bi141  1  0.88888889  0.20833333  0.24218750  1.0
  Bi  Bi142  1  0.88888889  0.54166667  0.24218750  1.0
  Bi  Bi143  1  0.88888889  0.87500000  0.24218750  1.0
  Ni  Ni144  1  0.00000000  0.00000000  0.37239583  1.0
  Ni  Ni145  1  0.00000000  0.33333333  0.37239583  1.0
  Ni  Ni146  1  0.00000000  0.66666667  0.37239583  1.0
  Ni  Ni147  1  0.33333333  0.00000000  0.37239583  1.0
  Ni  Ni148  1  0.33333333  0.33333333  0.37239583  1.0
  Ni  Ni149  1  0.33333333  0.66666667  0.37239583  1.0
  Ni  Ni150  1  0.66666667  0.00000000  0.37239583  1.0
  Ni  Ni151  1  0.66666667  0.33333333  0.37239583  1.0
  Ni  Ni152  1  0.66666667  0.66666667  0.37239583  1.0
  Ni  Ni153  1  0.00000000  0.16666667  0.30989583  1.0
  Ni  Ni154  1  0.00000000  0.50000000  0.30989583  1.0
  Ni  Ni155  1  0.00000000  0.83333333  0.30989583  1.0
  Ni  Ni156  1  0.33333333  0.16666667  0.30989583  1.0
  Ni  Ni157  1  0.33333333  0.50000000  0.30989583  1.0
  Ni  Ni158  1  0.33333333  0.83333333  0.30989583  1.0
  Ni  Ni159  1  0.66666667  0.16666667  0.30989583  1.0
  Ni  Ni160  1  0.66666667  0.50000000  0.30989583  1.0
  Ni  Ni161  1  0.66666667  0.83333333  0.30989583  1.0
  Ni  Ni162  1  0.00000000  0.08333333  0.27864583  1.0
  Ni  Ni163  1  0.00000000  0.41666667  0.27864583  1.0
  Ni  Ni164  1  0.00000000  0.75000000  0.27864583  1.0
  Ni  Ni165  1  0.33333333  0.08333333  0.27864583  1.0
  Ni  Ni166  1  0.33333333  0.41666667  0.27864583  1.0
  Ni  Ni167  1  0.33333333  0.75000000  0.27864583  1.0
  Ni  Ni168  1  0.66666667  0.08333333  0.27864583  1.0
  Ni  Ni169  1  0.66666667  0.41666667  0.27864583  1.0
  Ni  Ni170  1  0.66666667  0.75000000  0.27864583  1.0
  Ni  Ni171  1  0.00000000  0.25000000  0.34114583  1.0
  Ni  Ni172  1  0.00000000  0.58333333  0.34114583  1.0
  Ni  Ni173  1  0.00000000  0.91666667  0.34114583  1.0
  Ni  Ni174  1  0.33333333  0.25000000  0.34114583  1.0
  Ni  Ni175  1  0.33333333  0.58333333  0.34114583  1.0
  Ni  Ni176  1  0.33333333  0.91666667  0.34114583  1.0
  Ni  Ni177  1  0.66666667  0.25000000  0.34114583  1.0
  Ni  Ni178  1  0.66666667  0.58333333  0.34114583  1.0
  Ni  Ni179  1  0.66666667  0.91666667  0.34114583  1.0
  Bi  Bi180  1  0.11111111  0.12500000  0.25260417  1.0
  Bi  Bi181  1  0.11111111  0.45833333  0.25260417  1.0
  Bi  Bi182  1  0.11111111  0.79166667  0.25260417  1.0
  Bi  Bi183  1  0.44444444  0.12500000  0.25260417  1.0
  Bi  Bi184  1  0.44444444  0.45833333  0.25260417  1.0
  Bi  Bi185  1  0.44444444  0.79166667  0.25260417  1.0
  Bi  Bi186  1  0.77777778  0.12500000  0.25260417  1.0
  Bi  Bi187  1  0.77777778  0.45833333  0.25260417  1.0
  Bi  Bi188  1  0.77777778  0.79166667  0.25260417  1.0
  Bi  Bi189  1  0.11111111  0.29166667  0.31510417  1.0
  Bi  Bi190  1  0.11111111  0.62500000  0.31510417  1.0
  Bi  Bi191  1  0.11111111  0.95833333  0.31510417  1.0
  Bi  Bi192  1  0.44444444  0.29166667  0.31510417  1.0
  Bi  Bi193  1  0.44444444  0.62500000  0.31510417  1.0
  Bi  Bi194  1  0.44444444  0.95833333  0.31510417  1.0
  Bi  Bi195  1  0.77777778  0.29166667  0.31510417  1.0
  Bi  Bi196  1  0.77777778  0.62500000  0.31510417  1.0
  Bi  Bi197  1  0.77777778  0.95833333  0.31510417  1.0
  Bi  Bi198  1  0.22222222  0.04166667  0.30468750  1.0
  Bi  Bi199  1  0.22222222  0.37500000  0.30468750  1.0
  Bi  Bi200  1  0.22222222  0.70833333  0.30468750  1.0
  Bi  Bi201  1  0.55555556  0.04166667  0.30468750  1.0
  Bi  Bi202  1  0.55555556  0.37500000  0.30468750  1.0
  Bi  Bi203  1  0.55555556  0.70833333  0.30468750  1.0
  Bi  Bi204  1  0.88888889  0.04166667  0.30468750  1.0
  Bi  Bi205  1  0.88888889  0.37500000  0.30468750  1.0
  Bi  Bi206  1  0.88888889  0.70833333  0.30468750  1.0
  Bi  Bi207  1  0.22222222  0.20833333  0.36718750  1.0
  Bi  Bi208  1  0.22222222  0.54166667  0.36718750  1.0
  Bi  Bi209  1  0.22222222  0.87500000  0.36718750  1.0
  Bi  Bi210  1  0.55555556  0.20833333  0.36718750  1.0
  Bi  Bi211  1  0.55555556  0.54166667  0.36718750  1.0
  Bi  Bi212  1  0.55555556  0.87500000  0.36718750  1.0
  Bi  Bi213  1  0.88888889  0.20833333  0.36718750  1.0
  Bi  Bi214  1  0.88888889  0.54166667  0.36718750  1.0
  Bi  Bi215  1  0.88888889  0.87500000  0.36718750  1.0
