# generated using pymatgen
data_NiBi3
_symmetry_space_group_name_H-M   'P 1'
_cell_length_a   36.56583410
_cell_length_b   36.81909248
_cell_length_c   41.58823000
_cell_angle_alpha   109.80735382
_cell_angle_beta   133.03235828
_cell_angle_gamma   76.62985513
_symmetry_Int_Tables_number   1
_chemical_formula_structural   NiBi3
_chemical_formula_sum   'Ni144 Bi432'
_cell_volume   38506.33069600
_cell_formula_units_Z   144
loop_
 _symmetry_equiv_pos_site_id
 _symmetry_equiv_pos_as_xyz
  1  'x, y, z'
loop_
 _atom_site_type_symbol
 _atom_site_label
 _atom_site_symmetry_multiplicity
 _atom_site_fract_x
 _atom_site_fract_y
 _atom_site_fract_z
 _atom_site_occupancy
  Ni  Ni0  1  0.19636400  0.32700733  0.02441855  1.0
  Ni  Ni1  1  0.19636400  0.66034067  0.02441855  1.0
  Ni  Ni2  1  0.19636400  0.99367400  0.02441855  1.0
  Ni  Ni3  1  0.52969733  0.32700733  0.02441855  1.0
  Ni  Ni4  1  0.52969733  0.66034067  0.02441855  1.0
  Ni  Ni5  1  0.52969733  0.99367400  0.02441855  1.0
  Ni  Ni6  1  0.86303067  0.32700733  0.02441855  1.0
  Ni  Ni7  1  0.86303067  0.66034067  0.02441855  1.0
  Ni  Ni8  1  0.86303067  0.99367400  0.02441855  1.0
  Ni  Ni9  1  0.13696933  0.00632600  0.04257735  1.0
  Ni  Ni10  1  0.13696933  0.33965933  0.04257735  1.0
  Ni  Ni11  1  0.13696933  0.67299267  0.04257735  1.0
  Ni  Ni12  1  0.47030267  0.00632600  0.04257735  1.0
  Ni  Ni13  1  0.47030267  0.33965933  0.04257735  1.0
  Ni  Ni14  1  0.47030267  0.67299267  0.04257735  1.0
  Ni  Ni15  1  0.80363600  0.00632600  0.04257735  1.0
  Ni  Ni16  1  0.80363600  0.33965933  0.04257735  1.0
  Ni  Ni17  1  0.80363600  0.67299267  0.04257735  1.0
  Ni  Ni18  1  0.02969733  0.17299267  0.07821415  1.0
  Ni  Ni19  1  0.02969733  0.50632600  0.07821415  1.0
  Ni  Ni20  1  0.02969733  0.83965933  0.07821415  1.0
  Ni  Ni21  1  0.36303067  0.17299267  0.07821415  1.0
  Ni  Ni22  1  0.36303067  0.50632600  0.07821415  1.0
  Ni  Ni23  1  0.36303067  0.83965933  0.07821415  1.0
  Ni  Ni24  1  0.69636400  0.17299267  0.07821415  1.0
  Ni  Ni25  1  0.69636400  0.50632600  0.07821415  1.0
  Ni  Ni26  1  0.69636400  0.83965933  0.07821415  1.0
  Ni  Ni27  1  0.30363600  0.16034067  0.08878175  1.0
  Ni  Ni28  1  0.30363600  0.49367400  0.08878175  1.0
  Ni  Ni29  1  0.30363600  0.82700733  0.08878175  1.0
  Ni  Ni30  1  0.63696933  0.16034067  0.08878175  1.0
  Ni  Ni31  1  0.63696933  0.49367400  0.08878175  1.0
  Ni  Ni32  1  0.63696933  0.82700733  0.08878175  1.0
  Ni  Ni33  1  0.97030267  0.16034067  0.08878175  1.0
  Ni  Ni34  1  0.97030267  0.49367400  0.08878175  1.0
  Ni  Ni35  1  0.97030267  0.82700733  0.08878175  1.0
  Bi  Bi36  1  0.23390333  0.03648000  0.00978395  1.0
  Bi  Bi37  1  0.23390333  0.36981333  0.00978395  1.0
  Bi  Bi38  1  0.23390333  0.70314667  0.00978395  1.0
  Bi  Bi39  1  0.56723667  0.03648000  0.00978395  1.0
  Bi  Bi40  1  0.56723667  0.36981333  0.00978395  1.0
  Bi  Bi41  1  0.56723667  0.70314667  0.00978395  1.0
  Bi  Bi42  1  0.90057000  0.03648000  0.00978395  1.0
  Bi  Bi43  1  0.90057000  0.36981333  0.00978395  1.0
  Bi  Bi44  1  0.90057000  0.70314667  0.00978395  1.0
  Bi  Bi45  1  0.09943000  0.29685333  0.05721195  1.0
  Bi  Bi46  1  0.09943000  0.63018667  0.05721195  1.0
  Bi  Bi47  1  0.09943000  0.96352000  0.05721195  1.0
  Bi  Bi48  1  0.43276333  0.29685333  0.05721195  1.0
  Bi  Bi49  1  0.43276333  0.63018667  0.05721195  1.0
  Bi  Bi50  1  0.43276333  0.96352000  0.05721195  1.0
  Bi  Bi51  1  0.76609667  0.29685333  0.05721195  1.0
  Bi  Bi52  1  0.76609667  0.63018667  0.05721195  1.0
  Bi  Bi53  1  0.76609667  0.96352000  0.05721195  1.0
  Bi  Bi54  1  0.06723667  0.13018667  0.03789595  1.0
  Bi  Bi55  1  0.06723667  0.46352000  0.03789595  1.0
  Bi  Bi56  1  0.06723667  0.79685333  0.03789595  1.0
  Bi  Bi57  1  0.40057000  0.13018667  0.03789595  1.0
  Bi  Bi58  1  0.40057000  0.46352000  0.03789595  1.0
  Bi  Bi59  1  0.40057000  0.79685333  0.03789595  1.0
  Bi  Bi60  1  0.73390333  0.13018667  0.03789595  1.0
  Bi  Bi61  1  0.73390333  0.46352000  0.03789595  1.0
  Bi  Bi62  1  0.73390333  0.79685333  0.03789595  1.0
  Bi  Bi63  1  0.26609667  0.20314667  0.02909995  1.0
  Bi  Bi64  1  0.26609667  0.53648000  0.02909995  1.0
  Bi  Bi65  1  0.26609667  0.86981333  0.02909995  1.0
  Bi  Bi66  1  0.59943000  0.20314667  0.02909995  1.0
  Bi  Bi67  1  0.59943000  0.53648000  0.02909995  1.0
  Bi  Bi68  1  0.59943000  0.86981333  0.02909995  1.0
  Bi  Bi69  1  0.93276333  0.20314667  0.02909995  1.0
  Bi  Bi70  1  0.93276333  0.53648000  0.02909995  1.0
  Bi  Bi71  1  0.93276333  0.86981333  0.02909995  1.0
  Bi  Bi72  1  0.20657400  0.13591833  0.02321785  1.0
  Bi  Bi73  1  0.20657400  0.46925167  0.02321785  1.0
  Bi  Bi74  1  0.20657400  0.80258500  0.02321785  1.0
  Bi  Bi75  1  0.53990733  0.13591833  0.02321785  1.0
  Bi  Bi76  1  0.53990733  0.46925167  0.02321785  1.0
  Bi  Bi77  1  0.53990733  0.80258500  0.02321785  1.0
  Bi  Bi78  1  0.87324067  0.13591833  0.02321785  1.0
  Bi  Bi79  1  0.87324067  0.46925167  0.02321785  1.0
  Bi  Bi80  1  0.87324067  0.80258500  0.02321785  1.0
  Bi  Bi81  1  0.12675933  0.19741500  0.04377805  1.0
  Bi  Bi82  1  0.12675933  0.53074833  0.04377805  1.0
  Bi  Bi83  1  0.12675933  0.86408167  0.04377805  1.0
  Bi  Bi84  1  0.46009267  0.19741500  0.04377805  1.0
  Bi  Bi85  1  0.46009267  0.53074833  0.04377805  1.0
  Bi  Bi86  1  0.46009267  0.86408167  0.04377805  1.0
  Bi  Bi87  1  0.79342600  0.19741500  0.04377805  1.0
  Bi  Bi88  1  0.79342600  0.53074833  0.04377805  1.0
  Bi  Bi89  1  0.79342600  0.86408167  0.04377805  1.0
  Bi  Bi90  1  0.03990733  0.03074833  0.09166685  1.0
  Bi  Bi91  1  0.03990733  0.36408167  0.09166685  1.0
  Bi  Bi92  1  0.03990733  0.69741500  0.09166685  1.0
  Bi  Bi93  1  0.37324067  0.03074833  0.09166685  1.0
  Bi  Bi94  1  0.37324067  0.36408167  0.09166685  1.0
  Bi  Bi95  1  0.37324067  0.69741500  0.09166685  1.0
  Bi  Bi96  1  0.70657400  0.03074833  0.09166685  1.0
  Bi  Bi97  1  0.70657400  0.36408167  0.09166685  1.0
  Bi  Bi98  1  0.70657400  0.69741500  0.09166685  1.0
  Bi  Bi99  1  0.29342600  0.30258500  0.07532905  1.0
  Bi  Bi100  1  0.29342600  0.63591833  0.07532905  1.0
  Bi  Bi101  1  0.29342600  0.96925167  0.07532905  1.0
  Bi  Bi102  1  0.62675933  0.30258500  0.07532905  1.0
  Bi  Bi103  1  0.62675933  0.63591833  0.07532905  1.0
  Bi  Bi104  1  0.62675933  0.96925167  0.07532905  1.0
  Bi  Bi105  1  0.96009267  0.30258500  0.07532905  1.0
  Bi  Bi106  1  0.96009267  0.63591833  0.07532905  1.0
  Bi  Bi107  1  0.96009267  0.96925167  0.07532905  1.0
  Bi  Bi108  1  0.30351367  0.10757667  0.02287915  1.0
  Bi  Bi109  1  0.30351367  0.44091000  0.02287915  1.0
  Bi  Bi110  1  0.30351367  0.77424333  0.02287915  1.0
  Bi  Bi111  1  0.63684700  0.10757667  0.02287915  1.0
  Bi  Bi112  1  0.63684700  0.44091000  0.02287915  1.0
  Bi  Bi113  1  0.63684700  0.77424333  0.02287915  1.0
  Bi  Bi114  1  0.97018033  0.10757667  0.02287915  1.0
  Bi  Bi115  1  0.97018033  0.44091000  0.02287915  1.0
  Bi  Bi116  1  0.97018033  0.77424333  0.02287915  1.0
  Bi  Bi117  1  0.02981967  0.22575667  0.04411675  1.0
  Bi  Bi118  1  0.02981967  0.55909000  0.04411675  1.0
  Bi  Bi119  1  0.02981967  0.89242333  0.04411675  1.0
  Bi  Bi120  1  0.36315300  0.22575667  0.04411675  1.0
  Bi  Bi121  1  0.36315300  0.55909000  0.04411675  1.0
  Bi  Bi122  1  0.36315300  0.89242333  0.04411675  1.0
  Bi  Bi123  1  0.69648633  0.22575667  0.04411675  1.0
  Bi  Bi124  1  0.69648633  0.55909000  0.04411675  1.0
  Bi  Bi125  1  0.69648633  0.89242333  0.04411675  1.0
  Bi  Bi126  1  0.13684700  0.05909000  0.00833315  1.0
  Bi  Bi127  1  0.13684700  0.39242333  0.00833315  1.0
  Bi  Bi128  1  0.13684700  0.72575667  0.00833315  1.0
  Bi  Bi129  1  0.47018033  0.05909000  0.00833315  1.0
  Bi  Bi130  1  0.47018033  0.39242333  0.00833315  1.0
  Bi  Bi131  1  0.47018033  0.72575667  0.00833315  1.0
  Bi  Bi132  1  0.80351367  0.05909000  0.00833315  1.0
  Bi  Bi133  1  0.80351367  0.39242333  0.00833315  1.0
  Bi  Bi134  1  0.80351367  0.72575667  0.00833315  1.0
  Bi  Bi135  1  0.19648633  0.27424333  0.05866275  1.0
  Bi  Bi136  1  0.19648633  0.60757667  0.05866275  1.0
  Bi  Bi137  1  0.19648633  0.94091000  0.05866275  1.0
  Bi  Bi138  1  0.52981967  0.27424333  0.05866275  1.0
  Bi  Bi139  1  0.52981967  0.60757667  0.05866275  1.0
  Bi  Bi140  1  0.52981967  0.94091000  0.05866275  1.0
  Bi  Bi141  1  0.86315300  0.27424333  0.05866275  1.0
  Bi  Bi142  1  0.86315300  0.60757667  0.05866275  1.0
  Bi  Bi143  1  0.86315300  0.94091000  0.05866275  1.0
  Ni  Ni144  1  0.19636400  0.32700733  0.12441855  1.0
  Ni  Ni145  1  0.19636400  0.66034067  0.12441855  1.0
  Ni  Ni146  1  0.19636400  0.99367400  0.12441855  1.0
  Ni  Ni147  1  0.52969733  0.32700733  0.12441855  1.0
  Ni  Ni148  1  0.52969733  0.66034067  0.12441855  1.0
  Ni  Ni149  1  0.52969733  0.99367400  0.12441855  1.0
  Ni  Ni150  1  0.86303067  0.32700733  0.12441855  1.0
  Ni  Ni151  1  0.86303067  0.66034067  0.12441855  1.0
  Ni  Ni152  1  0.86303067  0.99367400  0.12441855  1.0
  Ni  Ni153  1  0.13696933  0.00632600  0.14257735  1.0
  Ni  Ni154  1  0.13696933  0.33965933  0.14257735  1.0
  Ni  Ni155  1  0.13696933  0.67299267  0.14257735  1.0
  Ni  Ni156  1  0.47030267  0.00632600  0.14257735  1.0
  Ni  Ni157  1  0.47030267  0.33965933  0.14257735  1.0
  Ni  Ni158  1  0.47030267  0.67299267  0.14257735  1.0
  Ni  Ni159  1  0.80363600  0.00632600  0.14257735  1.0
  Ni  Ni160  1  0.80363600  0.33965933  0.14257735  1.0
  Ni  Ni161  1  0.80363600  0.67299267  0.14257735  1.0
  Ni  Ni162  1  0.02969733  0.17299267  0.17821415  1.0
  Ni  Ni163  1  0.02969733  0.50632600  0.17821415  1.0
  Ni  Ni164  1  0.02969733  0.83965933  0.17821415  1.0
  Ni  Ni165  1  0.36303067  0.17299267  0.17821415  1.0
  Ni  Ni166  1  0.36303067  0.50632600  0.17821415  1.0
  Ni  Ni167  1  0.36303067  0.83965933  0.17821415  1.0
  Ni  Ni168  1  0.69636400  0.17299267  0.17821415  1.0
  Ni  Ni169  1  0.69636400  0.50632600  0.17821415  1.0
  Ni  Ni170  1  0.69636400  0.83965933  0.17821415  1.0
  Ni  Ni171  1  0.30363600  0.16034067  0.18878175  1.0
  Ni  Ni172  1  0.30363600  0.49367400  0.18878175  1.0
  Ni  Ni173  1  0.30363600  0.82700733  0.18878175  1.0
  Ni  Ni174  1  0.63696933  0.16034067  0.18878175  1.0
  Ni  Ni175  1  0.63696933  0.49367400  0.18878175  1.0
  Ni  Ni176  1  0.63696933  0.82700733  0.18878175  1.0
  Ni  Ni177  1  0.97030267  0.16034067  0.18878175  1.0
  Ni  Ni178  1  0.97030267  0.49367400  0.18878175  1.0
  Ni  Ni179  1  0.97030267  0.82700733  0.18878175  1.0
  Bi  Bi180  1  0.23390333  0.03648000  0.10978395  1.0
  Bi  Bi181  1  0.23390333  0.36981333  0.10978395  1.0
  Bi  Bi182  1  0.23390333  0.70314667  0.10978395  1.0
  Bi  Bi183  1  0.56723667  0.03648000  0.10978395  1.0
  Bi  Bi184  1  0.56723667  0.36981333  0.10978395  1.0
  Bi  Bi185  1  0.56723667  0.70314667  0.10978395  1.0
  Bi  Bi186  1  0.90057000  0.03648000  0.10978395  1.0
  Bi  Bi187  1  0.90057000  0.36981333  0.10978395  1.0
  Bi  Bi188  1  0.90057000  0.70314667  0.10978395  1.0
  Bi  Bi189  1  0.09943000  0.29685333  0.15721195  1.0
  Bi  Bi190  1  0.09943000  0.63018667  0.15721195  1.0
  Bi  Bi191  1  0.09943000  0.96352000  0.15721195  1.0
  Bi  Bi192  1  0.43276333  0.29685333  0.15721195  1.0
  Bi  Bi193  1  0.43276333  0.63018667  0.15721195  1.0
  Bi  Bi194  1  0.43276333  0.96352000  0.15721195  1.0
  Bi  Bi195  1  0.76609667  0.29685333  0.15721195  1.0
  Bi  Bi196  1  0.76609667  0.63018667  0.15721195  1.0
  Bi  Bi197  1  0.76609667  0.96352000  0.15721195  1.0
  Bi  Bi198  1  0.06723667  0.13018667  0.13789595  1.0
  Bi  Bi199  1  0.06723667  0.46352000  0.13789595  1.0
  Bi  Bi200  1  0.06723667  0.79685333  0.13789595  1.0
  Bi  Bi201  1  0.40057000  0.13018667  0.13789595  1.0
  Bi  Bi202  1  0.40057000  0.46352000  0.13789595  1.0
  Bi  Bi203  1  0.40057000  0.79685333  0.13789595  1.0
  Bi  Bi204  1  0.73390333  0.13018667  0.13789595  1.0
  Bi  Bi205  1  0.73390333  0.46352000  0.13789595  1.0
  Bi  Bi206  1  0.73390333  0.79685333  0.13789595  1.0
  Bi  Bi207  1  0.26609667  0.20314667  0.12909995  1.0
  Bi  Bi208  1  0.26609667  0.53648000  0.12909995  1.0
  Bi  Bi209  1  0.26609667  0.86981333  0.12909995  1.0
  Bi  Bi210  1  0.59943000  0.20314667  0.12909995  1.0
  Bi  Bi211  1  0.59943000  0.53648000  0.12909995  1.0
  Bi  Bi212  1  0.59943000  0.86981333  0.12909995  1.0
  Bi  Bi213  1  0.93276333  0.20314667  0.12909995  1.0
  Bi  Bi214  1  0.93276333  0.53648000  0.12909995  1.0
  Bi  Bi215  1  0.93276333  0.86981333  0.12909995  1.0
  Bi  Bi216  1  0.20657400  0.13591833  0.12321785  1.0
  Bi  Bi217  1  0.20657400  0.46925167  0.12321785  1.0
  Bi  Bi218  1  0.20657400  0.80258500  0.12321785  1.0
  Bi  Bi219  1  0.53990733  0.13591833  0.12321785  1.0
  Bi  Bi220  1  0.53990733  0.46925167  0.12321785  1.0
  Bi  Bi221  1  0.53990733  0.80258500  0.12321785  1.0
  Bi  Bi222  1  0.87324067  0.13591833  0.12321785  1.0
  Bi  Bi223  1  0.87324067  0.46925167  0.12321785  1.0
  Bi  Bi224  1  0.87324067  0.80258500  0.12321785  1.0
  Bi  Bi225  1  0.12675933  0.19741500  0.14377805  1.0
  Bi  Bi226  1  0.12675933  0.53074833  0.14377805  1.0
  Bi  Bi227  1  0.12675933  0.86408167  0.14377805  1.0
  Bi  Bi228  1  0.46009267  0.19741500  0.14377805  1.0
  Bi  Bi229  1  0.46009267  0.53074833  0.14377805  1.0
  Bi  Bi230  1  0.46009267  0.86408167  0.14377805  1.0
  Bi  Bi231  1  0.79342600  0.19741500  0.14377805  1.0
  Bi  Bi232  1  0.79342600  0.53074833  0.14377805  1.0
  Bi  Bi233  1  0.79342600  0.86408167  0.14377805  1.0
  Bi  Bi234  1  0.03990733  0.03074833  0.19166685  1.0
  Bi  Bi235  1  0.03990733  0.36408167  0.19166685  1.0
  Bi  Bi236  1  0.03990733  0.69741500  0.19166685  1.0
  Bi  Bi237  1  0.37324067  0.03074833  0.19166685  1.0
  Bi  Bi238  1  0.37324067  0.36408167  0.19166685  1.0
  Bi  Bi239  1  0.37324067  0.69741500  0.19166685  1.0
  Bi  Bi240  1  0.70657400  0.03074833  0.19166685  1.0
  Bi  Bi241  1  0.70657400  0.36408167  0.19166685  1.0
  Bi  Bi242  1  0.70657400  0.69741500  0.19166685  1.0
  Bi  Bi243  1  0.29342600  0.30258500  0.17532905  1.0
  Bi  Bi244  1  0.29342600  0.63591833  0.17532905  1.0
  Bi  Bi245  1  0.29342600  0.96925167  0.17532905  1.0
  Bi  Bi246  1  0.62675933  0.30258500  0.17532905  1.0
  Bi  Bi247  1  0.62675933  0.63591833  0.17532905  1.0
  Bi  Bi248  1  0.62675933  0.96925167  0.17532905  1.0
  Bi  Bi249  1  0.96009267  0.30258500  0.17532905  1.0
  Bi  Bi250  1  0.96009267  0.63591833  0.17532905  1.0
  Bi  Bi251  1  0.96009267  0.96925167  0.17532905  1.0
  Bi  Bi252  1  0.30351367  0.10757667  0.12287915  1.0
  Bi  Bi253  1  0.30351367  0.44091000  0.12287915  1.0
  Bi  Bi254  1  0.30351367  0.77424333  0.12287915  1.0
  Bi  Bi255  1  0.63684700  0.10757667  0.12287915  1.0
  Bi  Bi256  1  0.63684700  0.44091000  0.12287915  1.0
  Bi  Bi257  1  0.63684700  0.77424333  0.12287915  1.0
  Bi  Bi258  1  0.97018033  0.10757667  0.12287915  1.0
  Bi  Bi259  1  0.97018033  0.44091000  0.12287915  1.0
  Bi  Bi260  1  0.97018033  0.77424333  0.12287915  1.0
  Bi  Bi261  1  0.02981967  0.22575667  0.14411675  1.0
  Bi  Bi262  1  0.02981967  0.55909000  0.14411675  1.0
  Bi  Bi263  1  0.02981967  0.89242333  0.14411675  1.0
  Bi  Bi264  1  0.36315300  0.22575667  0.14411675  1.0
  Bi  Bi265  1  0.36315300  0.55909000  0.14411675  1.0
  Bi  Bi266  1  0.36315300  0.89242333  0.14411675  1.0
  Bi  Bi267  1  0.69648633  0.22575667  0.14411675  1.0
  Bi  Bi268  1  0.69648633  0.55909000  0.14411675  1.0
  Bi  Bi269  1  0.69648633  0.89242333  0.14411675  1.0
  Bi  Bi270  1  0.13684700  0.05909000  0.10833315  1.0
  Bi  Bi271  1  0.13684700  0.39242333  0.10833315  1.0
  Bi  Bi272  1  0.13684700  0.72575667  0.10833315  1.0
  Bi  Bi273  1  0.47018033  0.05909000  0.10833315  1.0
  Bi  Bi274  1  0.47018033  0.39242333  0.10833315  1.0
  Bi  Bi275  1  0.47018033  0.72575667  0.10833315  1.0
  Bi  Bi276  1  0.80351367  0.05909000  0.10833315  1.0
  Bi  Bi277  1  0.80351367  0.39242333  0.10833315  1.0
  Bi  Bi278  1  0.80351367  0.72575667  0.10833315  1.0
  Bi  Bi279  1  0.19648633  0.27424333  0.15866275  1.0
  Bi  Bi280  1  0.19648633  0.60757667  0.15866275  1.0
  Bi  Bi281  1  0.19648633  0.94091000  0.15866275  1.0
  Bi  Bi282  1  0.52981967  0.27424333  0.15866275  1.0
  Bi  Bi283  1  0.52981967  0.60757667  0.15866275  1.0
  Bi  Bi284  1  0.52981967  0.94091000  0.15866275  1.0
  Bi  Bi285  1  0.86315300  0.27424333  0.15866275  1.0
  Bi  Bi286  1  0.86315300  0.60757667  0.15866275  1.0
  Bi  Bi287  1  0.86315300  0.94091000  0.15866275  1.0
  Ni  Ni288  1  0.19636400  0.32700733  0.22441855  1.0
  Ni  Ni289  1  0.19636400  0.66034067  0.22441855  1.0
  Ni  Ni290  1  0.19636400  0.99367400  0.22441855  1.0
  Ni  Ni291  1  0.52969733  0.32700733  0.22441855  1.0
  Ni  Ni292  1  0.52969733  0.66034067  0.22441855  1.0
  Ni  Ni293  1  0.52969733  0.99367400  0.22441855  1.0
  Ni  Ni294  1  0.86303067  0.32700733  0.22441855  1.0
  Ni  Ni295  1  0.86303067  0.66034067  0.22441855  1.0
  Ni  Ni296  1  0.86303067  0.99367400  0.22441855  1.0
  Ni  Ni297  1  0.13696933  0.00632600  0.24257735  1.0
  Ni  Ni298  1  0.13696933  0.33965933  0.24257735  1.0
  Ni  Ni299  1  0.13696933  0.67299267  0.24257735  1.0
  Ni  Ni300  1  0.47030267  0.00632600  0.24257735  1.0
  Ni  Ni301  1  0.47030267  0.33965933  0.24257735  1.0
  Ni  Ni302  1  0.47030267  0.67299267  0.24257735  1.0
  Ni  Ni303  1  0.80363600  0.00632600  0.24257735  1.0
  Ni  Ni304  1  0.80363600  0.33965933  0.24257735  1.0
  Ni  Ni305  1  0.80363600  0.67299267  0.24257735  1.0
  Ni  Ni306  1  0.02969733  0.17299267  0.27821415  1.0
  Ni  Ni307  1  0.02969733  0.50632600  0.27821415  1.0
  Ni  Ni308  1  0.02969733  0.83965933  0.27821415  1.0
  Ni  Ni309  1  0.36303067  0.17299267  0.27821415  1.0
  Ni  Ni310  1  0.36303067  0.50632600  0.27821415  1.0
  Ni  Ni311  1  0.36303067  0.83965933  0.27821415  1.0
  Ni  Ni312  1  0.69636400  0.17299267  0.27821415  1.0
  Ni  Ni313  1  0.69636400  0.50632600  0.27821415  1.0
  Ni  Ni314  1  0.69636400  0.83965933  0.27821415  1.0
  Ni  Ni315  1  0.30363600  0.16034067  0.28878175  1.0
  Ni  Ni316  1  0.30363600  0.49367400  0.28878175  1.0
  Ni  Ni317  1  0.30363600  0.82700733  0.28878175  1.0
  Ni  Ni318  1  0.63696933  0.16034067  0.28878175  1.0
  Ni  Ni319  1  0.63696933  0.49367400  0.28878175  1.0
  Ni  Ni320  1  0.63696933  0.82700733  0.28878175  1.0
  Ni  Ni321  1  0.97030267  0.16034067  0.28878175  1.0
  Ni  Ni322  1  0.97030267  0.49367400  0.28878175  1.0
  Ni  Ni323  1  0.97030267  0.82700733  0.28878175  1.0
  Bi  Bi324  1  0.23390333  0.03648000  0.20978395  1.0
  Bi  Bi325  1  0.23390333  0.36981333  0.20978395  1.0
  Bi  Bi326  1  0.23390333  0.70314667  0.20978395  1.0
  Bi  Bi327  1  0.56723667  0.03648000  0.20978395  1.0
  Bi  Bi328  1  0.56723667  0.36981333  0.20978395  1.0
  Bi  Bi329  1  0.56723667  0.70314667  0.20978395  1.0
  Bi  Bi330  1  0.90057000  0.03648000  0.20978395  1.0
  Bi  Bi331  1  0.90057000  0.36981333  0.20978395  1.0
  Bi  Bi332  1  0.90057000  0.70314667  0.20978395  1.0
  Bi  Bi333  1  0.09943000  0.29685333  0.25721195  1.0
  Bi  Bi334  1  0.09943000  0.63018667  0.25721195  1.0
  Bi  Bi335  1  0.09943000  0.96352000  0.25721195  1.0
  Bi  Bi336  1  0.43276333  0.29685333  0.25721195  1.0
  Bi  Bi337  1  0.43276333  0.63018667  0.25721195  1.0
  Bi  Bi338  1  0.43276333  0.96352000  0.25721195  1.0
  Bi  Bi339  1  0.76609667  0.29685333  0.25721195  1.0
  Bi  Bi340  1  0.76609667  0.63018667  0.25721195  1.0
  Bi  Bi341  1  0.76609667  0.96352000  0.25721195  1.0
  Bi  Bi342  1  0.06723667  0.13018667  0.23789595  1.0
  Bi  Bi343  1  0.06723667  0.46352000  0.23789595  1.0
  Bi  Bi344  1  0.06723667  0.79685333  0.23789595  1.0
  Bi  Bi345  1  0.40057000  0.13018667  0.23789595  1.0
  Bi  Bi346  1  0.40057000  0.46352000  0.23789595  1.0
  Bi  Bi347  1  0.40057000  0.79685333  0.23789595  1.0
  Bi  Bi348  1  0.73390333  0.13018667  0.23789595  1.0
  Bi  Bi349  1  0.73390333  0.46352000  0.23789595  1.0
  Bi  Bi350  1  0.73390333  0.79685333  0.23789595  1.0
  Bi  Bi351  1  0.26609667  0.20314667  0.22909995  1.0
  Bi  Bi352  1  0.26609667  0.53648000  0.22909995  1.0
  Bi  Bi353  1  0.26609667  0.86981333  0.22909995  1.0
  Bi  Bi354  1  0.59943000  0.20314667  0.22909995  1.0
  Bi  Bi355  1  0.59943000  0.53648000  0.22909995  1.0
  Bi  Bi356  1  0.59943000  0.86981333  0.22909995  1.0
  Bi  Bi357  1  0.93276333  0.20314667  0.22909995  1.0
  Bi  Bi358  1  0.93276333  0.53648000  0.22909995  1.0
  Bi  Bi359  1  0.93276333  0.86981333  0.22909995  1.0
  Bi  Bi360  1  0.20657400  0.13591833  0.22321785  1.0
  Bi  Bi361  1  0.20657400  0.46925167  0.22321785  1.0
  Bi  Bi362  1  0.20657400  0.80258500  0.22321785  1.0
  Bi  Bi363  1  0.53990733  0.13591833  0.22321785  1.0
  Bi  Bi364  1  0.53990733  0.46925167  0.22321785  1.0
  Bi  Bi365  1  0.53990733  0.80258500  0.22321785  1.0
  Bi  Bi366  1  0.87324067  0.13591833  0.22321785  1.0
  Bi  Bi367  1  0.87324067  0.46925167  0.22321785  1.0
  Bi  Bi368  1  0.87324067  0.80258500  0.22321785  1.0
  Bi  Bi369  1  0.12675933  0.19741500  0.24377805  1.0
  Bi  Bi370  1  0.12675933  0.53074833  0.24377805  1.0
  Bi  Bi371  1  0.12675933  0.86408167  0.24377805  1.0
  Bi  Bi372  1  0.46009267  0.19741500  0.24377805  1.0
  Bi  Bi373  1  0.46009267  0.53074833  0.24377805  1.0
  Bi  Bi374  1  0.46009267  0.86408167  0.24377805  1.0
  Bi  Bi375  1  0.79342600  0.19741500  0.24377805  1.0
  Bi  Bi376  1  0.79342600  0.53074833  0.24377805  1.0
  Bi  Bi377  1  0.79342600  0.86408167  0.24377805  1.0
  Bi  Bi378  1  0.03990733  0.03074833  0.29166685  1.0
  Bi  Bi379  1  0.03990733  0.36408167  0.29166685  1.0
  Bi  Bi380  1  0.03990733  0.69741500  0.29166685  1.0
  Bi  Bi381  1  0.37324067  0.03074833  0.29166685  1.0
  Bi  Bi382  1  0.37324067  0.36408167  0.29166685  1.0
  Bi  Bi383  1  0.37324067  0.69741500  0.29166685  1.0
  Bi  Bi384  1  0.70657400  0.03074833  0.29166685  1.0
  Bi  Bi385  1  0.70657400  0.36408167  0.29166685  1.0
  Bi  Bi386  1  0.70657400  0.69741500  0.29166685  1.0
  Bi  Bi387  1  0.29342600  0.30258500  0.27532905  1.0
  Bi  Bi388  1  0.29342600  0.63591833  0.27532905  1.0
  Bi  Bi389  1  0.29342600  0.96925167  0.27532905  1.0
  Bi  Bi390  1  0.62675933  0.30258500  0.27532905  1.0
  Bi  Bi391  1  0.62675933  0.63591833  0.27532905  1.0
  Bi  Bi392  1  0.62675933  0.96925167  0.27532905  1.0
  Bi  Bi393  1  0.96009267  0.30258500  0.27532905  1.0
  Bi  Bi394  1  0.96009267  0.63591833  0.27532905  1.0
  Bi  Bi395  1  0.96009267  0.96925167  0.27532905  1.0
  Bi  Bi396  1  0.30351367  0.10757667  0.22287915  1.0
  Bi  Bi397  1  0.30351367  0.44091000  0.22287915  1.0
  Bi  Bi398  1  0.30351367  0.77424333  0.22287915  1.0
  Bi  Bi399  1  0.63684700  0.10757667  0.22287915  1.0
  Bi  Bi400  1  0.63684700  0.44091000  0.22287915  1.0
  Bi  Bi401  1  0.63684700  0.77424333  0.22287915  1.0
  Bi  Bi402  1  0.97018033  0.10757667  0.22287915  1.0
  Bi  Bi403  1  0.97018033  0.44091000  0.22287915  1.0
  Bi  Bi404  1  0.97018033  0.77424333  0.22287915  1.0
  Bi  Bi405  1  0.02981967  0.22575667  0.24411675  1.0
  Bi  Bi406  1  0.02981967  0.55909000  0.24411675  1.0
  Bi  Bi407  1  0.02981967  0.89242333  0.24411675  1.0
  Bi  Bi408  1  0.36315300  0.22575667  0.24411675  1.0
  Bi  Bi409  1  0.36315300  0.55909000  0.24411675  1.0
  Bi  Bi410  1  0.36315300  0.89242333  0.24411675  1.0
  Bi  Bi411  1  0.69648633  0.22575667  0.24411675  1.0
  Bi  Bi412  1  0.69648633  0.55909000  0.24411675  1.0
  Bi  Bi413  1  0.69648633  0.89242333  0.24411675  1.0
  Bi  Bi414  1  0.13684700  0.05909000  0.20833315  1.0
  Bi  Bi415  1  0.13684700  0.39242333  0.20833315  1.0
  Bi  Bi416  1  0.13684700  0.72575667  0.20833315  1.0
  Bi  Bi417  1  0.47018033  0.05909000  0.20833315  1.0
  Bi  Bi418  1  0.47018033  0.39242333  0.20833315  1.0
  Bi  Bi419  1  0.47018033  0.72575667  0.20833315  1.0
  Bi  Bi420  1  0.80351367  0.05909000  0.20833315  1.0
  Bi  Bi421  1  0.80351367  0.39242333  0.20833315  1.0
  Bi  Bi422  1  0.80351367  0.72575667  0.20833315  1.0
  Bi  Bi423  1  0.19648633  0.27424333  0.25866275  1.0
  Bi  Bi424  1  0.19648633  0.60757667  0.25866275  1.0
  Bi  Bi425  1  0.19648633  0.94091000  0.25866275  1.0
  Bi  Bi426  1  0.52981967  0.27424333  0.25866275  1.0
  Bi  Bi427  1  0.52981967  0.60757667  0.25866275  1.0
  Bi  Bi428  1  0.52981967  0.94091000  0.25866275  1.0
  Bi  Bi429  1  0.86315300  0.27424333  0.25866275  1.0
  Bi  Bi430  1  0.86315300  0.60757667  0.25866275  1.0
  Bi  Bi431  1  0.86315300  0.94091000  0.25866275  1.0
  Ni  Ni432  1  0.19636400  0.32700733  0.32441855  1.0
  Ni  Ni433  1  0.19636400  0.66034067  0.32441855  1.0
  Ni  Ni434  1  0.19636400  0.99367400  0.32441855  1.0
  Ni  Ni435  1  0.52969733  0.32700733  0.32441855  1.0
  Ni  Ni436  1  0.52969733  0.66034067  0.32441855  1.0
  Ni  Ni437  1  0.52969733  0.99367400  0.32441855  1.0
  Ni  Ni438  1  0.86303067  0.32700733  0.32441855  1.0
  Ni  Ni439  1  0.86303067  0.66034067  0.32441855  1.0
  Ni  Ni440  1  0.86303067  0.99367400  0.32441855  1.0
  Ni  Ni441  1  0.13696933  0.00632600  0.34257735  1.0
  Ni  Ni442  1  0.13696933  0.33965933  0.34257735  1.0
  Ni  Ni443  1  0.13696933  0.67299267  0.34257735  1.0
  Ni  Ni444  1  0.47030267  0.00632600  0.34257735  1.0
  Ni  Ni445  1  0.47030267  0.33965933  0.34257735  1.0
  Ni  Ni446  1  0.47030267  0.67299267  0.34257735  1.0
  Ni  Ni447  1  0.80363600  0.00632600  0.34257735  1.0
  Ni  Ni448  1  0.80363600  0.33965933  0.34257735  1.0
  Ni  Ni449  1  0.80363600  0.67299267  0.34257735  1.0
  Ni  Ni450  1  0.02969733  0.17299267  0.37821415  1.0
  Ni  Ni451  1  0.02969733  0.50632600  0.37821415  1.0
  Ni  Ni452  1  0.02969733  0.83965933  0.37821415  1.0
  Ni  Ni453  1  0.36303067  0.17299267  0.37821415  1.0
  Ni  Ni454  1  0.36303067  0.50632600  0.37821415  1.0
  Ni  Ni455  1  0.36303067  0.83965933  0.37821415  1.0
  Ni  Ni456  1  0.69636400  0.17299267  0.37821415  1.0
  Ni  Ni457  1  0.69636400  0.50632600  0.37821415  1.0
  Ni  Ni458  1  0.69636400  0.83965933  0.37821415  1.0
  Ni  Ni459  1  0.30363600  0.16034067  0.38878175  1.0
  Ni  Ni460  1  0.30363600  0.49367400  0.38878175  1.0
  Ni  Ni461  1  0.30363600  0.82700733  0.38878175  1.0
  Ni  Ni462  1  0.63696933  0.16034067  0.38878175  1.0
  Ni  Ni463  1  0.63696933  0.49367400  0.38878175  1.0
  Ni  Ni464  1  0.63696933  0.82700733  0.38878175  1.0
  Ni  Ni465  1  0.97030267  0.16034067  0.38878175  1.0
  Ni  Ni466  1  0.97030267  0.49367400  0.38878175  1.0
  Ni  Ni467  1  0.97030267  0.82700733  0.38878175  1.0
  Bi  Bi468  1  0.23390333  0.03648000  0.30978395  1.0
  Bi  Bi469  1  0.23390333  0.36981333  0.30978395  1.0
  Bi  Bi470  1  0.23390333  0.70314667  0.30978395  1.0
  Bi  Bi471  1  0.56723667  0.03648000  0.30978395  1.0
  Bi  Bi472  1  0.56723667  0.36981333  0.30978395  1.0
  Bi  Bi473  1  0.56723667  0.70314667  0.30978395  1.0
  Bi  Bi474  1  0.90057000  0.03648000  0.30978395  1.0
  Bi  Bi475  1  0.90057000  0.36981333  0.30978395  1.0
  Bi  Bi476  1  0.90057000  0.70314667  0.30978395  1.0
  Bi  Bi477  1  0.09943000  0.29685333  0.35721195  1.0
  Bi  Bi478  1  0.09943000  0.63018667  0.35721195  1.0
  Bi  Bi479  1  0.09943000  0.96352000  0.35721195  1.0
  Bi  Bi480  1  0.43276333  0.29685333  0.35721195  1.0
  Bi  Bi481  1  0.43276333  0.63018667  0.35721195  1.0
  Bi  Bi482  1  0.43276333  0.96352000  0.35721195  1.0
  Bi  Bi483  1  0.76609667  0.29685333  0.35721195  1.0
  Bi  Bi484  1  0.76609667  0.63018667  0.35721195  1.0
  Bi  Bi485  1  0.76609667  0.96352000  0.35721195  1.0
  Bi  Bi486  1  0.06723667  0.13018667  0.33789595  1.0
  Bi  Bi487  1  0.06723667  0.46352000  0.33789595  1.0
  Bi  Bi488  1  0.06723667  0.79685333  0.33789595  1.0
  Bi  Bi489  1  0.40057000  0.13018667  0.33789595  1.0
  Bi  Bi490  1  0.40057000  0.46352000  0.33789595  1.0
  Bi  Bi491  1  0.40057000  0.79685333  0.33789595  1.0
  Bi  Bi492  1  0.73390333  0.13018667  0.33789595  1.0
  Bi  Bi493  1  0.73390333  0.46352000  0.33789595  1.0
  Bi  Bi494  1  0.73390333  0.79685333  0.33789595  1.0
  Bi  Bi495  1  0.26609667  0.20314667  0.32909995  1.0
  Bi  Bi496  1  0.26609667  0.53648000  0.32909995  1.0
  Bi  Bi497  1  0.26609667  0.86981333  0.32909995  1.0
  Bi  Bi498  1  0.59943000  0.20314667  0.32909995  1.0
  Bi  Bi499  1  0.59943000  0.53648000  0.32909995  1.0
  Bi  Bi500  1  0.59943000  0.86981333  0.32909995  1.0
  Bi  Bi501  1  0.93276333  0.20314667  0.32909995  1.0
  Bi  Bi502  1  0.93276333  0.53648000  0.32909995  1.0
  Bi  Bi503  1  0.93276333  0.86981333  0.32909995  1.0
  Bi  Bi504  1  0.20657400  0.13591833  0.32321785  1.0
  Bi  Bi505  1  0.20657400  0.46925167  0.32321785  1.0
  Bi  Bi506  1  0.20657400  0.80258500  0.32321785  1.0
  Bi  Bi507  1  0.53990733  0.13591833  0.32321785  1.0
  Bi  Bi508  1  0.53990733  0.46925167  0.32321785  1.0
  Bi  Bi509  1  0.53990733  0.80258500  0.32321785  1.0
  Bi  Bi510  1  0.87324067  0.13591833  0.32321785  1.0
  Bi  Bi511  1  0.87324067  0.46925167  0.32321785  1.0
  Bi  Bi512  1  0.87324067  0.80258500  0.32321785  1.0
  Bi  Bi513  1  0.12675933  0.19741500  0.34377805  1.0
  Bi  Bi514  1  0.12675933  0.53074833  0.34377805  1.0
  Bi  Bi515  1  0.12675933  0.86408167  0.34377805  1.0
  Bi  Bi516  1  0.46009267  0.19741500  0.34377805  1.0
  Bi  Bi517  1  0.46009267  0.53074833  0.34377805  1.0
  Bi  Bi518  1  0.46009267  0.86408167  0.34377805  1.0
  Bi  Bi519  1  0.79342600  0.19741500  0.34377805  1.0
  Bi  Bi520  1  0.79342600  0.53074833  0.34377805  1.0
  Bi  Bi521  1  0.79342600  0.86408167  0.34377805  1.0
  Bi  Bi522  1  0.03990733  0.03074833  0.39166685  1.0
  Bi  Bi523  1  0.03990733  0.36408167  0.39166685  1.0
  Bi  Bi524  1  0.03990733  0.69741500  0.39166685  1.0
  Bi  Bi525  1  0.37324067  0.03074833  0.39166685  1.0
  Bi  Bi526  1  0.37324067  0.36408167  0.39166685  1.0
  Bi  Bi527  1  0.37324067  0.69741500  0.39166685  1.0
  Bi  Bi528  1  0.70657400  0.03074833  0.39166685  1.0
  Bi  Bi529  1  0.70657400  0.36408167  0.39166685  1.0
  Bi  Bi530  1  0.70657400  0.69741500  0.39166685  1.0
  Bi  Bi531  1  0.29342600  0.30258500  0.37532905  1.0
  Bi  Bi532  1  0.29342600  0.63591833  0.37532905  1.0
  Bi  Bi533  1  0.29342600  0.96925167  0.37532905  1.0
  Bi  Bi534  1  0.62675933  0.30258500  0.37532905  1.0
  Bi  Bi535  1  0.62675933  0.63591833  0.37532905  1.0
  Bi  Bi536  1  0.62675933  0.96925167  0.37532905  1.0
  Bi  Bi537  1  0.96009267  0.30258500  0.37532905  1.0
  Bi  Bi538  1  0.96009267  0.63591833  0.37532905  1.0
  Bi  Bi539  1  0.96009267  0.96925167  0.37532905  1.0
  Bi  Bi540  1  0.30351367  0.10757667  0.32287915  1.0
  Bi  Bi541  1  0.30351367  0.44091000  0.32287915  1.0
  Bi  Bi542  1  0.30351367  0.77424333  0.32287915  1.0
  Bi  Bi543  1  0.63684700  0.10757667  0.32287915  1.0
  Bi  Bi544  1  0.63684700  0.44091000  0.32287915  1.0
  Bi  Bi545  1  0.63684700  0.77424333  0.32287915  1.0
  Bi  Bi546  1  0.97018033  0.10757667  0.32287915  1.0
  Bi  Bi547  1  0.97018033  0.44091000  0.32287915  1.0
  Bi  Bi548  1  0.97018033  0.77424333  0.32287915  1.0
  Bi  Bi549  1  0.02981967  0.22575667  0.34411675  1.0
  Bi  Bi550  1  0.02981967  0.55909000  0.34411675  1.0
  Bi  Bi551  1  0.02981967  0.89242333  0.34411675  1.0
  Bi  Bi552  1  0.36315300  0.22575667  0.34411675  1.0
  Bi  Bi553  1  0.36315300  0.55909000  0.34411675  1.0
  Bi  Bi554  1  0.36315300  0.89242333  0.34411675  1.0
  Bi  Bi555  1  0.69648633  0.22575667  0.34411675  1.0
  Bi  Bi556  1  0.69648633  0.55909000  0.34411675  1.0
  Bi  Bi557  1  0.69648633  0.89242333  0.34411675  1.0
  Bi  Bi558  1  0.13684700  0.05909000  0.30833315  1.0
  Bi  Bi559  1  0.13684700  0.39242333  0.30833315  1.0
  Bi  Bi560  1  0.13684700  0.72575667  0.30833315  1.0
  Bi  Bi561  1  0.47018033  0.05909000  0.30833315  1.0
  Bi  Bi562  1  0.47018033  0.39242333  0.30833315  1.0
  Bi  Bi563  1  0.47018033  0.72575667  0.30833315  1.0
  Bi  Bi564  1  0.80351367  0.05909000  0.30833315  1.0
  Bi  Bi565  1  0.80351367  0.39242333  0.30833315  1.0
  Bi  Bi566  1  0.80351367  0.72575667  0.30833315  1.0
  Bi  Bi567  1  0.19648633  0.27424333  0.35866275  1.0
  Bi  Bi568  1  0.19648633  0.60757667  0.35866275  1.0
  Bi  Bi569  1  0.19648633  0.94091000  0.35866275  1.0
  Bi  Bi570  1  0.52981967  0.27424333  0.35866275  1.0
  Bi  Bi571  1  0.52981967  0.60757667  0.35866275  1.0
  Bi  Bi572  1  0.52981967  0.94091000  0.35866275  1.0
  Bi  Bi573  1  0.86315300  0.27424333  0.35866275  1.0
  Bi  Bi574  1  0.86315300  0.60757667  0.35866275  1.0
  Bi  Bi575  1  0.86315300  0.94091000  0.35866275  1.0
