# generated using pymatgen
data_NiBi
_symmetry_space_group_name_H-M   'P 1'
_cell_length_a   10.77388725
_cell_length_b   44.79704297
_cell_length_c   32.32166175
_cell_angle_alpha   103.91631409
_cell_angle_beta   120.00000000
_cell_angle_gamma   83.09334118
_symmetry_Int_Tables_number   1
_chemical_formula_structural   NiBi
_chemical_formula_sum   'Ni144 Bi144'
_cell_volume   13113.17535252
_cell_formula_units_Z   144
loop_
 _symmetry_equiv_pos_site_id
 _symmetry_equiv_pos_as_xyz
  1  'x, y, z'
loop_
 _atom_site_type_symbol
 _atom_site_label
 _atom_site_symmetry_multiplicity
 _atom_site_fract_x
 _atom_site_fract_y
 _atom_site_fract_z
 _atom_site_occupancy
  Ni  Ni0  1  0.22222222  0.04166667  0.04861111  1.0
  Ni  Ni1  1  0.22222222  0.37500000  0.04861111  1.0
  Ni  Ni2  1  0.22222222  0.70833333  0.04861111  1.0
  Ni  Ni3  1  0.55555556  0.04166667  0.04861111  1.0
  Ni  Ni4  1  0.55555556  0.37500000  0.04861111  1.0
  Ni  Ni5  1  0.55555556  0.70833333  0.04861111  1.0
  Ni  Ni6  1  0.88888889  0.04166667  0.04861111  1.0
  Ni  Ni7  1  0.88888889  0.37500000  0.04861111  1.0
  Ni  Ni8  1  0.88888889  0.70833333  0.04861111  1.0
  Ni  Ni9  1  0.22222222  0.20833333  0.10416667  1.0
  Ni  Ni10  1  0.22222222  0.54166667  0.10416667  1.0
  Ni  Ni11  1  0.22222222  0.87500000  0.10416667  1.0
  Ni  Ni12  1  0.55555556  0.20833333  0.10416667  1.0
  Ni  Ni13  1  0.55555556  0.54166667  0.10416667  1.0
  Ni  Ni14  1  0.55555556  0.87500000  0.10416667  1.0
  Ni  Ni15  1  0.88888889  0.20833333  0.10416667  1.0
  Ni  Ni16  1  0.88888889  0.54166667  0.10416667  1.0
  Ni  Ni17  1  0.88888889  0.87500000  0.10416667  1.0
  Ni  Ni18  1  0.11111111  0.12500000  0.00231481  1.0
  Ni  Ni19  1  0.11111111  0.45833333  0.00231481  1.0
  Ni  Ni20  1  0.11111111  0.79166667  0.00231481  1.0
  Ni  Ni21  1  0.44444444  0.12500000  0.00231481  1.0
  Ni  Ni22  1  0.44444444  0.45833333  0.00231481  1.0
  Ni  Ni23  1  0.44444444  0.79166667  0.00231481  1.0
  Ni  Ni24  1  0.77777778  0.12500000  0.00231481  1.0
  Ni  Ni25  1  0.77777778  0.45833333  0.00231481  1.0
  Ni  Ni26  1  0.77777778  0.79166667  0.00231481  1.0
  Ni  Ni27  1  0.11111111  0.29166667  0.05787037  1.0
  Ni  Ni28  1  0.11111111  0.62500000  0.05787037  1.0
  Ni  Ni29  1  0.11111111  0.95833333  0.05787037  1.0
  Ni  Ni30  1  0.44444444  0.29166667  0.05787037  1.0
  Ni  Ni31  1  0.44444444  0.62500000  0.05787037  1.0
  Ni  Ni32  1  0.44444444  0.95833333  0.05787037  1.0
  Ni  Ni33  1  0.77777778  0.29166667  0.05787037  1.0
  Ni  Ni34  1  0.77777778  0.62500000  0.05787037  1.0
  Ni  Ni35  1  0.77777778  0.95833333  0.05787037  1.0
  Bi  Bi36  1  0.00000000  0.00000000  0.10879630  1.0
  Bi  Bi37  1  0.00000000  0.33333333  0.10879630  1.0
  Bi  Bi38  1  0.00000000  0.66666667  0.10879630  1.0
  Bi  Bi39  1  0.33333333  0.00000000  0.10879630  1.0
  Bi  Bi40  1  0.33333333  0.33333333  0.10879630  1.0
  Bi  Bi41  1  0.33333333  0.66666667  0.10879630  1.0
  Bi  Bi42  1  0.66666667  0.00000000  0.10879630  1.0
  Bi  Bi43  1  0.66666667  0.33333333  0.10879630  1.0
  Bi  Bi44  1  0.66666667  0.66666667  0.10879630  1.0
  Bi  Bi45  1  0.00000000  0.16666667  0.05324074  1.0
  Bi  Bi46  1  0.00000000  0.50000000  0.05324074  1.0
  Bi  Bi47  1  0.00000000  0.83333333  0.05324074  1.0
  Bi  Bi48  1  0.33333333  0.16666667  0.05324074  1.0
  Bi  Bi49  1  0.33333333  0.50000000  0.05324074  1.0
  Bi  Bi50  1  0.33333333  0.83333333  0.05324074  1.0
  Bi  Bi51  1  0.66666667  0.16666667  0.05324074  1.0
  Bi  Bi52  1  0.66666667  0.50000000  0.05324074  1.0
  Bi  Bi53  1  0.66666667  0.83333333  0.05324074  1.0
  Bi  Bi54  1  0.00000000  0.08333333  0.02546296  1.0
  Bi  Bi55  1  0.00000000  0.41666667  0.02546296  1.0
  Bi  Bi56  1  0.00000000  0.75000000  0.02546296  1.0
  Bi  Bi57  1  0.33333333  0.08333333  0.02546296  1.0
  Bi  Bi58  1  0.33333333  0.41666667  0.02546296  1.0
  Bi  Bi59  1  0.33333333  0.75000000  0.02546296  1.0
  Bi  Bi60  1  0.66666667  0.08333333  0.02546296  1.0
  Bi  Bi61  1  0.66666667  0.41666667  0.02546296  1.0
  Bi  Bi62  1  0.66666667  0.75000000  0.02546296  1.0
  Bi  Bi63  1  0.00000000  0.25000000  0.08101852  1.0
  Bi  Bi64  1  0.00000000  0.58333333  0.08101852  1.0
  Bi  Bi65  1  0.00000000  0.91666667  0.08101852  1.0
  Bi  Bi66  1  0.33333333  0.25000000  0.08101852  1.0
  Bi  Bi67  1  0.33333333  0.58333333  0.08101852  1.0
  Bi  Bi68  1  0.33333333  0.91666667  0.08101852  1.0
  Bi  Bi69  1  0.66666667  0.25000000  0.08101852  1.0
  Bi  Bi70  1  0.66666667  0.58333333  0.08101852  1.0
  Bi  Bi71  1  0.66666667  0.91666667  0.08101852  1.0
  Ni  Ni72  1  0.22222222  0.04166667  0.15972222  1.0
  Ni  Ni73  1  0.22222222  0.37500000  0.15972222  1.0
  Ni  Ni74  1  0.22222222  0.70833333  0.15972222  1.0
  Ni  Ni75  1  0.55555556  0.04166667  0.15972222  1.0
  Ni  Ni76  1  0.55555556  0.37500000  0.15972222  1.0
  Ni  Ni77  1  0.55555556  0.70833333  0.15972222  1.0
  Ni  Ni78  1  0.88888889  0.04166667  0.15972222  1.0
  Ni  Ni79  1  0.88888889  0.37500000  0.15972222  1.0
  Ni  Ni80  1  0.88888889  0.70833333  0.15972222  1.0
  Ni  Ni81  1  0.22222222  0.20833333  0.21527778  1.0
  Ni  Ni82  1  0.22222222  0.54166667  0.21527778  1.0
  Ni  Ni83  1  0.22222222  0.87500000  0.21527778  1.0
  Ni  Ni84  1  0.55555556  0.20833333  0.21527778  1.0
  Ni  Ni85  1  0.55555556  0.54166667  0.21527778  1.0
  Ni  Ni86  1  0.55555556  0.87500000  0.21527778  1.0
  Ni  Ni87  1  0.88888889  0.20833333  0.21527778  1.0
  Ni  Ni88  1  0.88888889  0.54166667  0.21527778  1.0
  Ni  Ni89  1  0.88888889  0.87500000  0.21527778  1.0
  Ni  Ni90  1  0.11111111  0.12500000  0.11342593  1.0
  Ni  Ni91  1  0.11111111  0.45833333  0.11342593  1.0
  Ni  Ni92  1  0.11111111  0.79166667  0.11342593  1.0
  Ni  Ni93  1  0.44444444  0.12500000  0.11342593  1.0
  Ni  Ni94  1  0.44444444  0.45833333  0.11342593  1.0
  Ni  Ni95  1  0.44444444  0.79166667  0.11342593  1.0
  Ni  Ni96  1  0.77777778  0.12500000  0.11342593  1.0
  Ni  Ni97  1  0.77777778  0.45833333  0.11342593  1.0
  Ni  Ni98  1  0.77777778  0.79166667  0.11342593  1.0
  Ni  Ni99  1  0.11111111  0.29166667  0.16898148  1.0
  Ni  Ni100  1  0.11111111  0.62500000  0.16898148  1.0
  Ni  Ni101  1  0.11111111  0.95833333  0.16898148  1.0
  Ni  Ni102  1  0.44444444  0.29166667  0.16898148  1.0
  Ni  Ni103  1  0.44444444  0.62500000  0.16898148  1.0
  Ni  Ni104  1  0.44444444  0.95833333  0.16898148  1.0
  Ni  Ni105  1  0.77777778  0.29166667  0.16898148  1.0
  Ni  Ni106  1  0.77777778  0.62500000  0.16898148  1.0
  Ni  Ni107  1  0.77777778  0.95833333  0.16898148  1.0
  Bi  Bi108  1  0.00000000  0.00000000  0.21990741  1.0
  Bi  Bi109  1  0.00000000  0.33333333  0.21990741  1.0
  Bi  Bi110  1  0.00000000  0.66666667  0.21990741  1.0
  Bi  Bi111  1  0.33333333  0.00000000  0.21990741  1.0
  Bi  Bi112  1  0.33333333  0.33333333  0.21990741  1.0
  Bi  Bi113  1  0.33333333  0.66666667  0.21990741  1.0
  Bi  Bi114  1  0.66666667  0.00000000  0.21990741  1.0
  Bi  Bi115  1  0.66666667  0.33333333  0.21990741  1.0
  Bi  Bi116  1  0.66666667  0.66666667  0.21990741  1.0
  Bi  Bi117  1  0.00000000  0.16666667  0.16435185  1.0
  Bi  Bi118  1  0.00000000  0.50000000  0.16435185  1.0
  Bi  Bi119  1  0.00000000  0.83333333  0.16435185  1.0
  Bi  Bi120  1  0.33333333  0.16666667  0.16435185  1.0
  Bi  Bi121  1  0.33333333  0.50000000  0.16435185  1.0
  Bi  Bi122  1  0.33333333  0.83333333  0.16435185  1.0
  Bi  Bi123  1  0.66666667  0.16666667  0.16435185  1.0
  Bi  Bi124  1  0.66666667  0.50000000  0.16435185  1.0
  Bi  Bi125  1  0.66666667  0.83333333  0.16435185  1.0
  Bi  Bi126  1  0.00000000  0.08333333  0.13657407  1.0
  Bi  Bi127  1  0.00000000  0.41666667  0.13657407  1.0
  Bi  Bi128  1  0.00000000  0.75000000  0.13657407  1.0
  Bi  Bi129  1  0.33333333  0.08333333  0.13657407  1.0
  Bi  Bi130  1  0.33333333  0.41666667  0.13657407  1.0
  Bi  Bi131  1  0.33333333  0.75000000  0.13657407  1.0
  Bi  Bi132  1  0.66666667  0.08333333  0.13657407  1.0
  Bi  Bi133  1  0.66666667  0.41666667  0.13657407  1.0
  Bi  Bi134  1  0.66666667  0.75000000  0.13657407  1.0
  Bi  Bi135  1  0.00000000  0.25000000  0.19212963  1.0
  Bi  Bi136  1  0.00000000  0.58333333  0.19212963  1.0
  Bi  Bi137  1  0.00000000  0.91666667  0.19212963  1.0
  Bi  Bi138  1  0.33333333  0.25000000  0.19212963  1.0
  Bi  Bi139  1  0.33333333  0.58333333  0.19212963  1.0
  Bi  Bi140  1  0.33333333  0.91666667  0.19212963  1.0
  Bi  Bi141  1  0.66666667  0.25000000  0.19212963  1.0
  Bi  Bi142  1  0.66666667  0.58333333  0.19212963  1.0
  Bi  Bi143  1  0.66666667  0.91666667  0.19212963  1.0
  Ni  Ni144  1  0.22222222  0.04166667  0.27083333  1.0
  Ni  Ni145  1  0.22222222  0.37500000  0.27083333  1.0
  Ni  Ni146  1  0.22222222  0.70833333  0.27083333  1.0
  Ni  Ni147  1  0.55555556  0.04166667  0.27083333  1.0
  Ni  Ni148  1  0.55555556  0.37500000  0.27083333  1.0
  Ni  Ni149  1  0.55555556  0.70833333  0.27083333  1.0
  Ni  Ni150  1  0.88888889  0.04166667  0.27083333  1.0
  Ni  Ni151  1  0.88888889  0.37500000  0.27083333  1.0
  Ni  Ni152  1  0.88888889  0.70833333  0.27083333  1.0
  Ni  Ni153  1  0.22222222  0.20833333  0.32638889  1.0
  Ni  Ni154  1  0.22222222  0.54166667  0.32638889  1.0
  Ni  Ni155  1  0.22222222  0.87500000  0.32638889  1.0
  Ni  Ni156  1  0.55555556  0.20833333  0.32638889  1.0
  Ni  Ni157  1  0.55555556  0.54166667  0.32638889  1.0
  Ni  Ni158  1  0.55555556  0.87500000  0.32638889  1.0
  Ni  Ni159  1  0.88888889  0.20833333  0.32638889  1.0
  Ni  Ni160  1  0.88888889  0.54166667  0.32638889  1.0
  Ni  Ni161  1  0.88888889  0.87500000  0.32638889  1.0
  Ni  Ni162  1  0.11111111  0.12500000  0.22453704  1.0
  Ni  Ni163  1  0.11111111  0.45833333  0.22453704  1.0
  Ni  Ni164  1  0.11111111  0.79166667  0.22453704  1.0
  Ni  Ni165  1  0.44444444  0.12500000  0.22453704  1.0
  Ni  Ni166  1  0.44444444  0.45833333  0.22453704  1.0
  Ni  Ni167  1  0.44444444  0.79166667  0.22453704  1.0
  Ni  Ni168  1  0.77777778  0.12500000  0.22453704  1.0
  Ni  Ni169  1  0.77777778  0.45833333  0.22453704  1.0
  Ni  Ni170  1  0.77777778  0.79166667  0.22453704  1.0
  Ni  Ni171  1  0.11111111  0.29166667  0.28009259  1.0
  Ni  Ni172  1  0.11111111  0.62500000  0.28009259  1.0
  Ni  Ni173  1  0.11111111  0.95833333  0.28009259  1.0
  Ni  Ni174  1  0.44444444  0.29166667  0.28009259  1.0
  Ni  Ni175  1  0.44444444  0.62500000  0.28009259  1.0
  Ni  Ni176  1  0.44444444  0.95833333  0.28009259  1.0
  Ni  Ni177  1  0.77777778  0.29166667  0.28009259  1.0
  Ni  Ni178  1  0.77777778  0.62500000  0.28009259  1.0
  Ni  Ni179  1  0.77777778  0.95833333  0.28009259  1.0
  Bi  Bi180  1  0.00000000  0.00000000  0.33101852  1.0
  Bi  Bi181  1  0.00000000  0.33333333  0.33101852  1.0
  Bi  Bi182  1  0.00000000  0.66666667  0.33101852  1.0
  Bi  Bi183  1  0.33333333  0.00000000  0.33101852  1.0
  Bi  Bi184  1  0.33333333  0.33333333  0.33101852  1.0
  Bi  Bi185  1  0.33333333  0.66666667  0.33101852  1.0
  Bi  Bi186  1  0.66666667  0.00000000  0.33101852  1.0
  Bi  Bi187  1  0.66666667  0.33333333  0.33101852  1.0
  Bi  Bi188  1  0.66666667  0.66666667  0.33101852  1.0
  Bi  Bi189  1  0.00000000  0.16666667  0.27546296  1.0
  Bi  Bi190  1  0.00000000  0.50000000  0.27546296  1.0
  Bi  Bi191  1  0.00000000  0.83333333  0.27546296  1.0
  Bi  Bi192  1  0.33333333  0.16666667  0.27546296  1.0
  Bi  Bi193  1  0.33333333  0.50000000  0.27546296  1.0
  Bi  Bi194  1  0.33333333  0.83333333  0.27546296  1.0
  Bi  Bi195  1  0.66666667  0.16666667  0.27546296  1.0
  Bi  Bi196  1  0.66666667  0.50000000  0.27546296  1.0
  Bi  Bi197  1  0.66666667  0.83333333  0.27546296  1.0
  Bi  Bi198  1  0.00000000  0.08333333  0.24768519  1.0
  Bi  Bi199  1  0.00000000  0.41666667  0.24768519  1.0
  Bi  Bi200  1  0.00000000  0.75000000  0.24768519  1.0
  Bi  Bi201  1  0.33333333  0.08333333  0.24768519  1.0
  Bi  Bi202  1  0.33333333  0.41666667  0.24768519  1.0
  Bi  Bi203  1  0.33333333  0.75000000  0.24768519  1.0
  Bi  Bi204  1  0.66666667  0.08333333  0.24768519  1.0
  Bi  Bi205  1  0.66666667  0.41666667  0.24768519  1.0
  Bi  Bi206  1  0.66666667  0.75000000  0.24768519  1.0
  Bi  Bi207  1  0.00000000  0.25000000  0.30324074  1.0
  Bi  Bi208  1  0.00000000  0.58333333  0.30324074  1.0
  Bi  Bi209  1  0.00000000  0.91666667  0.30324074  1.0
  Bi  Bi210  1  0.33333333  0.25000000  0.30324074  1.0
  Bi  Bi211  1  0.33333333  0.58333333  0.30324074  1.0
  Bi  Bi212  1  0.33333333  0.91666667  0.30324074  1.0
  Bi  Bi213  1  0.66666667  0.25000000  0.30324074  1.0
  Bi  Bi214  1  0.66666667  0.58333333  0.30324074  1.0
  Bi  Bi215  1  0.66666667  0.91666667  0.30324074  1.0
  Ni  Ni216  1  0.22222222  0.04166667  0.38194444  1.0
  Ni  Ni217  1  0.22222222  0.37500000  0.38194444  1.0
  Ni  Ni218  1  0.22222222  0.70833333  0.38194444  1.0
  Ni  Ni219  1  0.55555556  0.04166667  0.38194444  1.0
  Ni  Ni220  1  0.55555556  0.37500000  0.38194444  1.0
  Ni  Ni221  1  0.55555556  0.70833333  0.38194444  1.0
  Ni  Ni222  1  0.88888889  0.04166667  0.38194444  1.0
  Ni  Ni223  1  0.88888889  0.37500000  0.38194444  1.0
  Ni  Ni224  1  0.88888889  0.70833333  0.38194444  1.0
  Ni  Ni225  1  0.22222222  0.20833333  0.43750000  1.0
  Ni  Ni226  1  0.22222222  0.54166667  0.43750000  1.0
  Ni  Ni227  1  0.22222222  0.87500000  0.43750000  1.0
  Ni  Ni228  1  0.55555556  0.20833333  0.43750000  1.0
  Ni  Ni229  1  0.55555556  0.54166667  0.43750000  1.0
  Ni  Ni230  1  0.55555556  0.87500000  0.43750000  1.0
  Ni  Ni231  1  0.88888889  0.20833333  0.43750000  1.0
  Ni  Ni232  1  0.88888889  0.54166667  0.43750000  1.0
  Ni  Ni233  1  0.88888889  0.87500000  0.43750000  1.0
  Ni  Ni234  1  0.11111111  0.12500000  0.33564815  1.0
  Ni  Ni235  1  0.11111111  0.45833333  0.33564815  1.0
  Ni  Ni236  1  0.11111111  0.79166667  0.33564815  1.0
  Ni  Ni237  1  0.44444444  0.12500000  0.33564815  1.0
  Ni  Ni238  1  0.44444444  0.45833333  0.33564815  1.0
  Ni  Ni239  1  0.44444444  0.79166667  0.33564815  1.0
  Ni  Ni240  1  0.77777778  0.12500000  0.33564815  1.0
  Ni  Ni241  1  0.77777778  0.45833333  0.33564815  1.0
  Ni  Ni242  1  0.77777778  0.79166667  0.33564815  1.0
  Ni  Ni243  1  0.11111111  0.29166667  0.39120370  1.0
  Ni  Ni244  1  0.11111111  0.62500000  0.39120370  1.0
  Ni  Ni245  1  0.11111111  0.95833333  0.39120370  1.0
  Ni  Ni246  1  0.44444444  0.29166667  0.39120370  1.0
  Ni  Ni247  1  0.44444444  0.62500000  0.39120370  1.0
  Ni  Ni248  1  0.44444444  0.95833333  0.39120370  1.0
  Ni  Ni249  1  0.77777778  0.29166667  0.39120370  1.0
  Ni  Ni250  1  0.77777778  0.62500000  0.39120370  1.0
  Ni  Ni251  1  0.77777778  0.95833333  0.39120370  1.0
  Bi  Bi252  1  0.00000000  0.00000000  0.44212963  1.0
  Bi  Bi253  1  0.00000000  0.33333333  0.44212963  1.0
  Bi  Bi254  1  0.00000000  0.66666667  0.44212963  1.0
  Bi  Bi255  1  0.33333333  0.00000000  0.44212963  1.0
  Bi  Bi256  1  0.33333333  0.33333333  0.44212963  1.0
  Bi  Bi257  1  0.33333333  0.66666667  0.44212963  1.0
  Bi  Bi258  1  0.66666667  0.00000000  0.44212963  1.0
  Bi  Bi259  1  0.66666667  0.33333333  0.44212963  1.0
  Bi  Bi260  1  0.66666667  0.66666667  0.44212963  1.0
  Bi  Bi261  1  0.00000000  0.16666667  0.38657407  1.0
  Bi  Bi262  1  0.00000000  0.50000000  0.38657407  1.0
  Bi  Bi263  1  0.00000000  0.83333333  0.38657407  1.0
  Bi  Bi264  1  0.33333333  0.16666667  0.38657407  1.0
  Bi  Bi265  1  0.33333333  0.50000000  0.38657407  1.0
  Bi  Bi266  1  0.33333333  0.83333333  0.38657407  1.0
  Bi  Bi267  1  0.66666667  0.16666667  0.38657407  1.0
  Bi  Bi268  1  0.66666667  0.50000000  0.38657407  1.0
  Bi  Bi269  1  0.66666667  0.83333333  0.38657407  1.0
  Bi  Bi270  1  0.00000000  0.08333333  0.35879630  1.0
  Bi  Bi271  1  0.00000000  0.41666667  0.35879630  1.0
  Bi  Bi272  1  0.00000000  0.75000000  0.35879630  1.0
  Bi  Bi273  1  0.33333333  0.08333333  0.35879630  1.0
  Bi  Bi274  1  0.33333333  0.41666667  0.35879630  1.0
  Bi  Bi275  1  0.33333333  0.75000000  0.35879630  1.0
  Bi  Bi276  1  0.66666667  0.08333333  0.35879630  1.0
  Bi  Bi277  1  0.66666667  0.41666667  0.35879630  1.0
  Bi  Bi278  1  0.66666667  0.75000000  0.35879630  1.0
  Bi  Bi279  1  0.00000000  0.25000000  0.41435185  1.0
  Bi  Bi280  1  0.00000000  0.58333333  0.41435185  1.0
  Bi  Bi281  1  0.00000000  0.91666667  0.41435185  1.0
  Bi  Bi282  1  0.33333333  0.25000000  0.41435185  1.0
  Bi  Bi283  1  0.33333333  0.58333333  0.41435185  1.0
  Bi  Bi284  1  0.33333333  0.91666667  0.41435185  1.0
  Bi  Bi285  1  0.66666667  0.25000000  0.41435185  1.0
  Bi  Bi286  1  0.66666667  0.58333333  0.41435185  1.0
  Bi  Bi287  1  0.66666667  0.91666667  0.41435185  1.0
