# generated using pymatgen
data_NiBi
_symmetry_space_group_name_H-M   'P 1'
_cell_length_a   20.22666832
_cell_length_b   26.87996497
_cell_length_c   26.59154380
_cell_angle_alpha   95.82717220
_cell_angle_beta   90.61608969
_cell_angle_gamma   91.82871243
_symmetry_Int_Tables_number   1
_chemical_formula_structural   NiBi
_chemical_formula_sum   'Ni144 Bi144'
_cell_volume   14374.15723247
_cell_formula_units_Z   144
loop_
 _symmetry_equiv_pos_site_id
 _symmetry_equiv_pos_as_xyz
  1  'x, y, z'
loop_
 _atom_site_type_symbol
 _atom_site_label
 _atom_site_symmetry_multiplicity
 _atom_site_fract_x
 _atom_site_fract_y
 _atom_site_fract_z
 _atom_site_occupancy
  Bi  Bi0  1  0.25694444  0.17013889  0.01041667  1.0
  Bi  Bi1  1  0.25694444  0.50347222  0.01041667  1.0
  Bi  Bi2  1  0.25694444  0.83680556  0.01041667  1.0
  Bi  Bi3  1  0.59027778  0.17013889  0.01041667  1.0
  Bi  Bi4  1  0.59027778  0.50347222  0.01041667  1.0
  Bi  Bi5  1  0.59027778  0.83680556  0.01041667  1.0
  Bi  Bi6  1  0.92361111  0.17013889  0.01041667  1.0
  Bi  Bi7  1  0.92361111  0.50347222  0.01041667  1.0
  Bi  Bi8  1  0.92361111  0.83680556  0.01041667  1.0
  Bi  Bi9  1  0.05694444  0.28680556  0.06041667  1.0
  Bi  Bi10  1  0.05694444  0.62013889  0.06041667  1.0
  Bi  Bi11  1  0.05694444  0.95347222  0.06041667  1.0
  Bi  Bi12  1  0.39027778  0.28680556  0.06041667  1.0
  Bi  Bi13  1  0.39027778  0.62013889  0.06041667  1.0
  Bi  Bi14  1  0.39027778  0.95347222  0.06041667  1.0
  Bi  Bi15  1  0.72361111  0.28680556  0.06041667  1.0
  Bi  Bi16  1  0.72361111  0.62013889  0.06041667  1.0
  Bi  Bi17  1  0.72361111  0.95347222  0.06041667  1.0
  Bi  Bi18  1  0.02361111  0.08402778  0.06875000  1.0
  Bi  Bi19  1  0.02361111  0.41736111  0.06875000  1.0
  Bi  Bi20  1  0.02361111  0.75069444  0.06875000  1.0
  Bi  Bi21  1  0.35694444  0.08402778  0.06875000  1.0
  Bi  Bi22  1  0.35694444  0.41736111  0.06875000  1.0
  Bi  Bi23  1  0.35694444  0.75069444  0.06875000  1.0
  Bi  Bi24  1  0.69027778  0.08402778  0.06875000  1.0
  Bi  Bi25  1  0.69027778  0.41736111  0.06875000  1.0
  Bi  Bi26  1  0.69027778  0.75069444  0.06875000  1.0
  Bi  Bi27  1  0.22361111  0.30069444  0.01875000  1.0
  Bi  Bi28  1  0.22361111  0.63402778  0.01875000  1.0
  Bi  Bi29  1  0.22361111  0.96736111  0.01875000  1.0
  Bi  Bi30  1  0.55694444  0.30069444  0.01875000  1.0
  Bi  Bi31  1  0.55694444  0.63402778  0.01875000  1.0
  Bi  Bi32  1  0.55694444  0.96736111  0.01875000  1.0
  Bi  Bi33  1  0.89027778  0.30069444  0.01875000  1.0
  Bi  Bi34  1  0.89027778  0.63402778  0.01875000  1.0
  Bi  Bi35  1  0.89027778  0.96736111  0.01875000  1.0
  Bi  Bi36  1  0.19027778  0.07013889  0.11041667  1.0
  Bi  Bi37  1  0.19027778  0.40347222  0.11041667  1.0
  Bi  Bi38  1  0.19027778  0.73680556  0.11041667  1.0
  Bi  Bi39  1  0.52361111  0.07013889  0.11041667  1.0
  Bi  Bi40  1  0.52361111  0.40347222  0.11041667  1.0
  Bi  Bi41  1  0.52361111  0.73680556  0.11041667  1.0
  Bi  Bi42  1  0.85694444  0.07013889  0.11041667  1.0
  Bi  Bi43  1  0.85694444  0.40347222  0.11041667  1.0
  Bi  Bi44  1  0.85694444  0.73680556  0.11041667  1.0
  Bi  Bi45  1  0.32361111  0.18680556  0.16041667  1.0
  Bi  Bi46  1  0.32361111  0.52013889  0.16041667  1.0
  Bi  Bi47  1  0.32361111  0.85347222  0.16041667  1.0
  Bi  Bi48  1  0.65694444  0.18680556  0.16041667  1.0
  Bi  Bi49  1  0.65694444  0.52013889  0.16041667  1.0
  Bi  Bi50  1  0.65694444  0.85347222  0.16041667  1.0
  Bi  Bi51  1  0.99027778  0.18680556  0.16041667  1.0
  Bi  Bi52  1  0.99027778  0.52013889  0.16041667  1.0
  Bi  Bi53  1  0.99027778  0.85347222  0.16041667  1.0
  Bi  Bi54  1  0.29027778  0.31736111  0.16875000  1.0
  Bi  Bi55  1  0.29027778  0.65069444  0.16875000  1.0
  Bi  Bi56  1  0.29027778  0.98402778  0.16875000  1.0
  Bi  Bi57  1  0.62361111  0.31736111  0.16875000  1.0
  Bi  Bi58  1  0.62361111  0.65069444  0.16875000  1.0
  Bi  Bi59  1  0.62361111  0.98402778  0.16875000  1.0
  Bi  Bi60  1  0.95694444  0.31736111  0.16875000  1.0
  Bi  Bi61  1  0.95694444  0.65069444  0.16875000  1.0
  Bi  Bi62  1  0.95694444  0.98402778  0.16875000  1.0
  Bi  Bi63  1  0.15694444  0.20069444  0.11875000  1.0
  Bi  Bi64  1  0.15694444  0.53402778  0.11875000  1.0
  Bi  Bi65  1  0.15694444  0.86736111  0.11875000  1.0
  Bi  Bi66  1  0.49027778  0.20069444  0.11875000  1.0
  Bi  Bi67  1  0.49027778  0.53402778  0.11875000  1.0
  Bi  Bi68  1  0.49027778  0.86736111  0.11875000  1.0
  Bi  Bi69  1  0.82361111  0.20069444  0.11875000  1.0
  Bi  Bi70  1  0.82361111  0.53402778  0.11875000  1.0
  Bi  Bi71  1  0.82361111  0.86736111  0.11875000  1.0
  Bi  Bi72  1  0.12361111  0.30347222  0.21041667  1.0
  Bi  Bi73  1  0.12361111  0.63680556  0.21041667  1.0
  Bi  Bi74  1  0.12361111  0.97013889  0.21041667  1.0
  Bi  Bi75  1  0.45694444  0.30347222  0.21041667  1.0
  Bi  Bi76  1  0.45694444  0.63680556  0.21041667  1.0
  Bi  Bi77  1  0.45694444  0.97013889  0.21041667  1.0
  Bi  Bi78  1  0.79027778  0.30347222  0.21041667  1.0
  Bi  Bi79  1  0.79027778  0.63680556  0.21041667  1.0
  Bi  Bi80  1  0.79027778  0.97013889  0.21041667  1.0
  Bi  Bi81  1  0.25694444  0.08680556  0.26041667  1.0
  Bi  Bi82  1  0.25694444  0.42013889  0.26041667  1.0
  Bi  Bi83  1  0.25694444  0.75347222  0.26041667  1.0
  Bi  Bi84  1  0.59027778  0.08680556  0.26041667  1.0
  Bi  Bi85  1  0.59027778  0.42013889  0.26041667  1.0
  Bi  Bi86  1  0.59027778  0.75347222  0.26041667  1.0
  Bi  Bi87  1  0.92361111  0.08680556  0.26041667  1.0
  Bi  Bi88  1  0.92361111  0.42013889  0.26041667  1.0
  Bi  Bi89  1  0.92361111  0.75347222  0.26041667  1.0
  Bi  Bi90  1  0.22361111  0.21736111  0.26875000  1.0
  Bi  Bi91  1  0.22361111  0.55069444  0.26875000  1.0
  Bi  Bi92  1  0.22361111  0.88402778  0.26875000  1.0
  Bi  Bi93  1  0.55694444  0.21736111  0.26875000  1.0
  Bi  Bi94  1  0.55694444  0.55069444  0.26875000  1.0
  Bi  Bi95  1  0.55694444  0.88402778  0.26875000  1.0
  Bi  Bi96  1  0.89027778  0.21736111  0.26875000  1.0
  Bi  Bi97  1  0.89027778  0.55069444  0.26875000  1.0
  Bi  Bi98  1  0.89027778  0.88402778  0.26875000  1.0
  Bi  Bi99  1  0.09027778  0.10069444  0.21875000  1.0
  Bi  Bi100  1  0.09027778  0.43402778  0.21875000  1.0
  Bi  Bi101  1  0.09027778  0.76736111  0.21875000  1.0
  Bi  Bi102  1  0.42361111  0.10069444  0.21875000  1.0
  Bi  Bi103  1  0.42361111  0.43402778  0.21875000  1.0
  Bi  Bi104  1  0.42361111  0.76736111  0.21875000  1.0
  Bi  Bi105  1  0.75694444  0.10069444  0.21875000  1.0
  Bi  Bi106  1  0.75694444  0.43402778  0.21875000  1.0
  Bi  Bi107  1  0.75694444  0.76736111  0.21875000  1.0
  Bi  Bi108  1  0.05694444  0.20347222  0.31041667  1.0
  Bi  Bi109  1  0.05694444  0.53680556  0.31041667  1.0
  Bi  Bi110  1  0.05694444  0.87013889  0.31041667  1.0
  Bi  Bi111  1  0.39027778  0.20347222  0.31041667  1.0
  Bi  Bi112  1  0.39027778  0.53680556  0.31041667  1.0
  Bi  Bi113  1  0.39027778  0.87013889  0.31041667  1.0
  Bi  Bi114  1  0.72361111  0.20347222  0.31041667  1.0
  Bi  Bi115  1  0.72361111  0.53680556  0.31041667  1.0
  Bi  Bi116  1  0.72361111  0.87013889  0.31041667  1.0
  Bi  Bi117  1  0.19027778  0.32013889  0.36041667  1.0
  Bi  Bi118  1  0.19027778  0.65347222  0.36041667  1.0
  Bi  Bi119  1  0.19027778  0.98680556  0.36041667  1.0
  Bi  Bi120  1  0.52361111  0.32013889  0.36041667  1.0
  Bi  Bi121  1  0.52361111  0.65347222  0.36041667  1.0
  Bi  Bi122  1  0.52361111  0.98680556  0.36041667  1.0
  Bi  Bi123  1  0.85694444  0.32013889  0.36041667  1.0
  Bi  Bi124  1  0.85694444  0.65347222  0.36041667  1.0
  Bi  Bi125  1  0.85694444  0.98680556  0.36041667  1.0
  Bi  Bi126  1  0.15694444  0.11736111  0.36875000  1.0
  Bi  Bi127  1  0.15694444  0.45069444  0.36875000  1.0
  Bi  Bi128  1  0.15694444  0.78402778  0.36875000  1.0
  Bi  Bi129  1  0.49027778  0.11736111  0.36875000  1.0
  Bi  Bi130  1  0.49027778  0.45069444  0.36875000  1.0
  Bi  Bi131  1  0.49027778  0.78402778  0.36875000  1.0
  Bi  Bi132  1  0.82361111  0.11736111  0.36875000  1.0
  Bi  Bi133  1  0.82361111  0.45069444  0.36875000  1.0
  Bi  Bi134  1  0.82361111  0.78402778  0.36875000  1.0
  Bi  Bi135  1  0.02361111  0.00069444  0.31875000  1.0
  Bi  Bi136  1  0.02361111  0.33402778  0.31875000  1.0
  Bi  Bi137  1  0.02361111  0.66736111  0.31875000  1.0
  Bi  Bi138  1  0.35694444  0.00069444  0.31875000  1.0
  Bi  Bi139  1  0.35694444  0.33402778  0.31875000  1.0
  Bi  Bi140  1  0.35694444  0.66736111  0.31875000  1.0
  Bi  Bi141  1  0.69027778  0.00069444  0.31875000  1.0
  Bi  Bi142  1  0.69027778  0.33402778  0.31875000  1.0
  Bi  Bi143  1  0.69027778  0.66736111  0.31875000  1.0
  Ni  Ni144  1  0.27361111  0.24375000  0.08958333  1.0
  Ni  Ni145  1  0.27361111  0.57708333  0.08958333  1.0
  Ni  Ni146  1  0.27361111  0.91041667  0.08958333  1.0
  Ni  Ni147  1  0.60694444  0.24375000  0.08958333  1.0
  Ni  Ni148  1  0.60694444  0.57708333  0.08958333  1.0
  Ni  Ni149  1  0.60694444  0.91041667  0.08958333  1.0
  Ni  Ni150  1  0.94027778  0.24375000  0.08958333  1.0
  Ni  Ni151  1  0.94027778  0.57708333  0.08958333  1.0
  Ni  Ni152  1  0.94027778  0.91041667  0.08958333  1.0
  Ni  Ni153  1  0.14027778  0.12708333  0.03958333  1.0
  Ni  Ni154  1  0.14027778  0.46041667  0.03958333  1.0
  Ni  Ni155  1  0.14027778  0.79375000  0.03958333  1.0
  Ni  Ni156  1  0.47361111  0.12708333  0.03958333  1.0
  Ni  Ni157  1  0.47361111  0.46041667  0.03958333  1.0
  Ni  Ni158  1  0.47361111  0.79375000  0.03958333  1.0
  Ni  Ni159  1  0.80694444  0.12708333  0.03958333  1.0
  Ni  Ni160  1  0.80694444  0.46041667  0.03958333  1.0
  Ni  Ni161  1  0.80694444  0.79375000  0.03958333  1.0
  Ni  Ni162  1  0.24027778  0.06875000  0.01458333  1.0
  Ni  Ni163  1  0.24027778  0.40208333  0.01458333  1.0
  Ni  Ni164  1  0.24027778  0.73541667  0.01458333  1.0
  Ni  Ni165  1  0.57361111  0.06875000  0.01458333  1.0
  Ni  Ni166  1  0.57361111  0.40208333  0.01458333  1.0
  Ni  Ni167  1  0.57361111  0.73541667  0.01458333  1.0
  Ni  Ni168  1  0.90694444  0.06875000  0.01458333  1.0
  Ni  Ni169  1  0.90694444  0.40208333  0.01458333  1.0
  Ni  Ni170  1  0.90694444  0.73541667  0.01458333  1.0
  Ni  Ni171  1  0.04027778  0.18541667  0.06458333  1.0
  Ni  Ni172  1  0.04027778  0.51875000  0.06458333  1.0
  Ni  Ni173  1  0.04027778  0.85208333  0.06458333  1.0
  Ni  Ni174  1  0.37361111  0.18541667  0.06458333  1.0
  Ni  Ni175  1  0.37361111  0.51875000  0.06458333  1.0
  Ni  Ni176  1  0.37361111  0.85208333  0.06458333  1.0
  Ni  Ni177  1  0.70694444  0.18541667  0.06458333  1.0
  Ni  Ni178  1  0.70694444  0.51875000  0.06458333  1.0
  Ni  Ni179  1  0.70694444  0.85208333  0.06458333  1.0
  Ni  Ni180  1  0.20694444  0.14375000  0.18958333  1.0
  Ni  Ni181  1  0.20694444  0.47708333  0.18958333  1.0
  Ni  Ni182  1  0.20694444  0.81041667  0.18958333  1.0
  Ni  Ni183  1  0.54027778  0.14375000  0.18958333  1.0
  Ni  Ni184  1  0.54027778  0.47708333  0.18958333  1.0
  Ni  Ni185  1  0.54027778  0.81041667  0.18958333  1.0
  Ni  Ni186  1  0.87361111  0.14375000  0.18958333  1.0
  Ni  Ni187  1  0.87361111  0.47708333  0.18958333  1.0
  Ni  Ni188  1  0.87361111  0.81041667  0.18958333  1.0
  Ni  Ni189  1  0.07361111  0.02708333  0.13958333  1.0
  Ni  Ni190  1  0.07361111  0.36041667  0.13958333  1.0
  Ni  Ni191  1  0.07361111  0.69375000  0.13958333  1.0
  Ni  Ni192  1  0.40694444  0.02708333  0.13958333  1.0
  Ni  Ni193  1  0.40694444  0.36041667  0.13958333  1.0
  Ni  Ni194  1  0.40694444  0.69375000  0.13958333  1.0
  Ni  Ni195  1  0.74027778  0.02708333  0.13958333  1.0
  Ni  Ni196  1  0.74027778  0.36041667  0.13958333  1.0
  Ni  Ni197  1  0.74027778  0.69375000  0.13958333  1.0
  Ni  Ni198  1  0.17361111  0.30208333  0.11458333  1.0
  Ni  Ni199  1  0.17361111  0.63541667  0.11458333  1.0
  Ni  Ni200  1  0.17361111  0.96875000  0.11458333  1.0
  Ni  Ni201  1  0.50694444  0.30208333  0.11458333  1.0
  Ni  Ni202  1  0.50694444  0.63541667  0.11458333  1.0
  Ni  Ni203  1  0.50694444  0.96875000  0.11458333  1.0
  Ni  Ni204  1  0.84027778  0.30208333  0.11458333  1.0
  Ni  Ni205  1  0.84027778  0.63541667  0.11458333  1.0
  Ni  Ni206  1  0.84027778  0.96875000  0.11458333  1.0
  Ni  Ni207  1  0.30694444  0.08541667  0.16458333  1.0
  Ni  Ni208  1  0.30694444  0.41875000  0.16458333  1.0
  Ni  Ni209  1  0.30694444  0.75208333  0.16458333  1.0
  Ni  Ni210  1  0.64027778  0.08541667  0.16458333  1.0
  Ni  Ni211  1  0.64027778  0.41875000  0.16458333  1.0
  Ni  Ni212  1  0.64027778  0.75208333  0.16458333  1.0
  Ni  Ni213  1  0.97361111  0.08541667  0.16458333  1.0
  Ni  Ni214  1  0.97361111  0.41875000  0.16458333  1.0
  Ni  Ni215  1  0.97361111  0.75208333  0.16458333  1.0
  Ni  Ni216  1  0.14027778  0.04375000  0.28958333  1.0
  Ni  Ni217  1  0.14027778  0.37708333  0.28958333  1.0
  Ni  Ni218  1  0.14027778  0.71041667  0.28958333  1.0
  Ni  Ni219  1  0.47361111  0.04375000  0.28958333  1.0
  Ni  Ni220  1  0.47361111  0.37708333  0.28958333  1.0
  Ni  Ni221  1  0.47361111  0.71041667  0.28958333  1.0
  Ni  Ni222  1  0.80694444  0.04375000  0.28958333  1.0
  Ni  Ni223  1  0.80694444  0.37708333  0.28958333  1.0
  Ni  Ni224  1  0.80694444  0.71041667  0.28958333  1.0
  Ni  Ni225  1  0.00694444  0.26041667  0.23958333  1.0
  Ni  Ni226  1  0.00694444  0.59375000  0.23958333  1.0
  Ni  Ni227  1  0.00694444  0.92708333  0.23958333  1.0
  Ni  Ni228  1  0.34027778  0.26041667  0.23958333  1.0
  Ni  Ni229  1  0.34027778  0.59375000  0.23958333  1.0
  Ni  Ni230  1  0.34027778  0.92708333  0.23958333  1.0
  Ni  Ni231  1  0.67361111  0.26041667  0.23958333  1.0
  Ni  Ni232  1  0.67361111  0.59375000  0.23958333  1.0
  Ni  Ni233  1  0.67361111  0.92708333  0.23958333  1.0
  Ni  Ni234  1  0.10694444  0.20208333  0.21458333  1.0
  Ni  Ni235  1  0.10694444  0.53541667  0.21458333  1.0
  Ni  Ni236  1  0.10694444  0.86875000  0.21458333  1.0
  Ni  Ni237  1  0.44027778  0.20208333  0.21458333  1.0
  Ni  Ni238  1  0.44027778  0.53541667  0.21458333  1.0
  Ni  Ni239  1  0.44027778  0.86875000  0.21458333  1.0
  Ni  Ni240  1  0.77361111  0.20208333  0.21458333  1.0
  Ni  Ni241  1  0.77361111  0.53541667  0.21458333  1.0
  Ni  Ni242  1  0.77361111  0.86875000  0.21458333  1.0
  Ni  Ni243  1  0.24027778  0.31875000  0.26458333  1.0
  Ni  Ni244  1  0.24027778  0.65208333  0.26458333  1.0
  Ni  Ni245  1  0.24027778  0.98541667  0.26458333  1.0
  Ni  Ni246  1  0.57361111  0.31875000  0.26458333  1.0
  Ni  Ni247  1  0.57361111  0.65208333  0.26458333  1.0
  Ni  Ni248  1  0.57361111  0.98541667  0.26458333  1.0
  Ni  Ni249  1  0.90694444  0.31875000  0.26458333  1.0
  Ni  Ni250  1  0.90694444  0.65208333  0.26458333  1.0
  Ni  Ni251  1  0.90694444  0.98541667  0.26458333  1.0
  Ni  Ni252  1  0.07361111  0.27708333  0.38958333  1.0
  Ni  Ni253  1  0.07361111  0.61041667  0.38958333  1.0
  Ni  Ni254  1  0.07361111  0.94375000  0.38958333  1.0
  Ni  Ni255  1  0.40694444  0.27708333  0.38958333  1.0
  Ni  Ni256  1  0.40694444  0.61041667  0.38958333  1.0
  Ni  Ni257  1  0.40694444  0.94375000  0.38958333  1.0
  Ni  Ni258  1  0.74027778  0.27708333  0.38958333  1.0
  Ni  Ni259  1  0.74027778  0.61041667  0.38958333  1.0
  Ni  Ni260  1  0.74027778  0.94375000  0.38958333  1.0
  Ni  Ni261  1  0.27361111  0.16041667  0.33958333  1.0
  Ni  Ni262  1  0.27361111  0.49375000  0.33958333  1.0
  Ni  Ni263  1  0.27361111  0.82708333  0.33958333  1.0
  Ni  Ni264  1  0.60694444  0.16041667  0.33958333  1.0
  Ni  Ni265  1  0.60694444  0.49375000  0.33958333  1.0
  Ni  Ni266  1  0.60694444  0.82708333  0.33958333  1.0
  Ni  Ni267  1  0.94027778  0.16041667  0.33958333  1.0
  Ni  Ni268  1  0.94027778  0.49375000  0.33958333  1.0
  Ni  Ni269  1  0.94027778  0.82708333  0.33958333  1.0
  Ni  Ni270  1  0.04027778  0.10208333  0.31458333  1.0
  Ni  Ni271  1  0.04027778  0.43541667  0.31458333  1.0
  Ni  Ni272  1  0.04027778  0.76875000  0.31458333  1.0
  Ni  Ni273  1  0.37361111  0.10208333  0.31458333  1.0
  Ni  Ni274  1  0.37361111  0.43541667  0.31458333  1.0
  Ni  Ni275  1  0.37361111  0.76875000  0.31458333  1.0
  Ni  Ni276  1  0.70694444  0.10208333  0.31458333  1.0
  Ni  Ni277  1  0.70694444  0.43541667  0.31458333  1.0
  Ni  Ni278  1  0.70694444  0.76875000  0.31458333  1.0
  Ni  Ni279  1  0.17361111  0.21875000  0.36458333  1.0
  Ni  Ni280  1  0.17361111  0.55208333  0.36458333  1.0
  Ni  Ni281  1  0.17361111  0.88541667  0.36458333  1.0
  Ni  Ni282  1  0.50694444  0.21875000  0.36458333  1.0
  Ni  Ni283  1  0.50694444  0.55208333  0.36458333  1.0
  Ni  Ni284  1  0.50694444  0.88541667  0.36458333  1.0
  Ni  Ni285  1  0.84027778  0.21875000  0.36458333  1.0
  Ni  Ni286  1  0.84027778  0.55208333  0.36458333  1.0
  Ni  Ni287  1  0.84027778  0.88541667  0.36458333  1.0
