# generated using pymatgen
data_NiBi3
_symmetry_space_group_name_H-M   'P 1'
_cell_length_a   12.47646900
_cell_length_b   34.64077500
_cell_length_c   35.63796000
_cell_angle_alpha   90.00000000
_cell_angle_beta   90.00000000
_cell_angle_gamma   90.00000000
_symmetry_Int_Tables_number   1
_chemical_formula_structural   NiBi3
_chemical_formula_sum   'Ni72 Bi216'
_cell_volume   15402.53227840
_cell_formula_units_Z   72
loop_
 _symmetry_equiv_pos_site_id
 _symmetry_equiv_pos_as_xyz
  1  'x, y, z'
loop_
 _atom_site_type_symbol
 _atom_site_label
 _atom_site_symmetry_multiplicity
 _atom_site_fract_x
 _atom_site_fract_y
 _atom_site_fract_z
 _atom_site_occupancy
  Ni  Ni0  1  0.25000000  0.00632600  0.10272700  1.0
  Ni  Ni1  1  0.25000000  0.33965933  0.10272700  1.0
  Ni  Ni2  1  0.25000000  0.67299267  0.10272700  1.0
  Ni  Ni3  1  0.58333333  0.00632600  0.10272700  1.0
  Ni  Ni4  1  0.58333333  0.33965933  0.10272700  1.0
  Ni  Ni5  1  0.58333333  0.67299267  0.10272700  1.0
  Ni  Ni6  1  0.91666667  0.00632600  0.10272700  1.0
  Ni  Ni7  1  0.91666667  0.33965933  0.10272700  1.0
  Ni  Ni8  1  0.91666667  0.67299267  0.10272700  1.0
  Ni  Ni9  1  0.08333333  0.32700733  0.14727300  1.0
  Ni  Ni10  1  0.08333333  0.66034067  0.14727300  1.0
  Ni  Ni11  1  0.08333333  0.99367400  0.14727300  1.0
  Ni  Ni12  1  0.41666667  0.32700733  0.14727300  1.0
  Ni  Ni13  1  0.41666667  0.66034067  0.14727300  1.0
  Ni  Ni14  1  0.41666667  0.99367400  0.14727300  1.0
  Ni  Ni15  1  0.75000000  0.32700733  0.14727300  1.0
  Ni  Ni16  1  0.75000000  0.66034067  0.14727300  1.0
  Ni  Ni17  1  0.75000000  0.99367400  0.14727300  1.0
  Ni  Ni18  1  0.25000000  0.16034067  0.22772700  1.0
  Ni  Ni19  1  0.25000000  0.49367400  0.22772700  1.0
  Ni  Ni20  1  0.25000000  0.82700733  0.22772700  1.0
  Ni  Ni21  1  0.58333333  0.16034067  0.22772700  1.0
  Ni  Ni22  1  0.58333333  0.49367400  0.22772700  1.0
  Ni  Ni23  1  0.58333333  0.82700733  0.22772700  1.0
  Ni  Ni24  1  0.91666667  0.16034067  0.22772700  1.0
  Ni  Ni25  1  0.91666667  0.49367400  0.22772700  1.0
  Ni  Ni26  1  0.91666667  0.82700733  0.22772700  1.0
  Ni  Ni27  1  0.08333333  0.17299267  0.02227300  1.0
  Ni  Ni28  1  0.08333333  0.50632600  0.02227300  1.0
  Ni  Ni29  1  0.08333333  0.83965933  0.02227300  1.0
  Ni  Ni30  1  0.41666667  0.17299267  0.02227300  1.0
  Ni  Ni31  1  0.41666667  0.50632600  0.02227300  1.0
  Ni  Ni32  1  0.41666667  0.83965933  0.02227300  1.0
  Ni  Ni33  1  0.75000000  0.17299267  0.02227300  1.0
  Ni  Ni34  1  0.75000000  0.50632600  0.02227300  1.0
  Ni  Ni35  1  0.75000000  0.83965933  0.02227300  1.0
  Bi  Bi36  1  0.08333333  0.29685333  0.07457250  1.0
  Bi  Bi37  1  0.08333333  0.63018667  0.07457250  1.0
  Bi  Bi38  1  0.08333333  0.96352000  0.07457250  1.0
  Bi  Bi39  1  0.41666667  0.29685333  0.07457250  1.0
  Bi  Bi40  1  0.41666667  0.63018667  0.07457250  1.0
  Bi  Bi41  1  0.41666667  0.96352000  0.07457250  1.0
  Bi  Bi42  1  0.75000000  0.29685333  0.07457250  1.0
  Bi  Bi43  1  0.75000000  0.63018667  0.07457250  1.0
  Bi  Bi44  1  0.75000000  0.96352000  0.07457250  1.0
  Bi  Bi45  1  0.25000000  0.03648000  0.17542750  1.0
  Bi  Bi46  1  0.25000000  0.36981333  0.17542750  1.0
  Bi  Bi47  1  0.25000000  0.70314667  0.17542750  1.0
  Bi  Bi48  1  0.58333333  0.03648000  0.17542750  1.0
  Bi  Bi49  1  0.58333333  0.36981333  0.17542750  1.0
  Bi  Bi50  1  0.58333333  0.70314667  0.17542750  1.0
  Bi  Bi51  1  0.91666667  0.03648000  0.17542750  1.0
  Bi  Bi52  1  0.91666667  0.36981333  0.17542750  1.0
  Bi  Bi53  1  0.91666667  0.70314667  0.17542750  1.0
  Bi  Bi54  1  0.08333333  0.20314667  0.19957250  1.0
  Bi  Bi55  1  0.08333333  0.53648000  0.19957250  1.0
  Bi  Bi56  1  0.08333333  0.86981333  0.19957250  1.0
  Bi  Bi57  1  0.41666667  0.20314667  0.19957250  1.0
  Bi  Bi58  1  0.41666667  0.53648000  0.19957250  1.0
  Bi  Bi59  1  0.41666667  0.86981333  0.19957250  1.0
  Bi  Bi60  1  0.75000000  0.20314667  0.19957250  1.0
  Bi  Bi61  1  0.75000000  0.53648000  0.19957250  1.0
  Bi  Bi62  1  0.75000000  0.86981333  0.19957250  1.0
  Bi  Bi63  1  0.25000000  0.13018667  0.05042750  1.0
  Bi  Bi64  1  0.25000000  0.46352000  0.05042750  1.0
  Bi  Bi65  1  0.25000000  0.79685333  0.05042750  1.0
  Bi  Bi66  1  0.58333333  0.13018667  0.05042750  1.0
  Bi  Bi67  1  0.58333333  0.46352000  0.05042750  1.0
  Bi  Bi68  1  0.58333333  0.79685333  0.05042750  1.0
  Bi  Bi69  1  0.91666667  0.13018667  0.05042750  1.0
  Bi  Bi70  1  0.91666667  0.46352000  0.05042750  1.0
  Bi  Bi71  1  0.91666667  0.79685333  0.05042750  1.0
  Bi  Bi72  1  0.08333333  0.19741500  0.09506950  1.0
  Bi  Bi73  1  0.08333333  0.53074833  0.09506950  1.0
  Bi  Bi74  1  0.08333333  0.86408167  0.09506950  1.0
  Bi  Bi75  1  0.41666667  0.19741500  0.09506950  1.0
  Bi  Bi76  1  0.41666667  0.53074833  0.09506950  1.0
  Bi  Bi77  1  0.41666667  0.86408167  0.09506950  1.0
  Bi  Bi78  1  0.75000000  0.19741500  0.09506950  1.0
  Bi  Bi79  1  0.75000000  0.53074833  0.09506950  1.0
  Bi  Bi80  1  0.75000000  0.86408167  0.09506950  1.0
  Bi  Bi81  1  0.25000000  0.13591833  0.15493050  1.0
  Bi  Bi82  1  0.25000000  0.46925167  0.15493050  1.0
  Bi  Bi83  1  0.25000000  0.80258500  0.15493050  1.0
  Bi  Bi84  1  0.58333333  0.13591833  0.15493050  1.0
  Bi  Bi85  1  0.58333333  0.46925167  0.15493050  1.0
  Bi  Bi86  1  0.58333333  0.80258500  0.15493050  1.0
  Bi  Bi87  1  0.91666667  0.13591833  0.15493050  1.0
  Bi  Bi88  1  0.91666667  0.46925167  0.15493050  1.0
  Bi  Bi89  1  0.91666667  0.80258500  0.15493050  1.0
  Bi  Bi90  1  0.08333333  0.30258500  0.22006950  1.0
  Bi  Bi91  1  0.08333333  0.63591833  0.22006950  1.0
  Bi  Bi92  1  0.08333333  0.96925167  0.22006950  1.0
  Bi  Bi93  1  0.41666667  0.30258500  0.22006950  1.0
  Bi  Bi94  1  0.41666667  0.63591833  0.22006950  1.0
  Bi  Bi95  1  0.41666667  0.96925167  0.22006950  1.0
  Bi  Bi96  1  0.75000000  0.30258500  0.22006950  1.0
  Bi  Bi97  1  0.75000000  0.63591833  0.22006950  1.0
  Bi  Bi98  1  0.75000000  0.96925167  0.22006950  1.0
  Bi  Bi99  1  0.25000000  0.03074833  0.02993050  1.0
  Bi  Bi100  1  0.25000000  0.36408167  0.02993050  1.0
  Bi  Bi101  1  0.25000000  0.69741500  0.02993050  1.0
  Bi  Bi102  1  0.58333333  0.03074833  0.02993050  1.0
  Bi  Bi103  1  0.58333333  0.36408167  0.02993050  1.0
  Bi  Bi104  1  0.58333333  0.69741500  0.02993050  1.0
  Bi  Bi105  1  0.91666667  0.03074833  0.02993050  1.0
  Bi  Bi106  1  0.91666667  0.36408167  0.02993050  1.0
  Bi  Bi107  1  0.91666667  0.69741500  0.02993050  1.0
  Bi  Bi108  1  0.25000000  0.22575667  0.02236475  1.0
  Bi  Bi109  1  0.25000000  0.55909000  0.02236475  1.0
  Bi  Bi110  1  0.25000000  0.89242333  0.02236475  1.0
  Bi  Bi111  1  0.58333333  0.22575667  0.02236475  1.0
  Bi  Bi112  1  0.58333333  0.55909000  0.02236475  1.0
  Bi  Bi113  1  0.58333333  0.89242333  0.02236475  1.0
  Bi  Bi114  1  0.91666667  0.22575667  0.02236475  1.0
  Bi  Bi115  1  0.91666667  0.55909000  0.02236475  1.0
  Bi  Bi116  1  0.91666667  0.89242333  0.02236475  1.0
  Bi  Bi117  1  0.08333333  0.10757667  0.22763525  1.0
  Bi  Bi118  1  0.08333333  0.44091000  0.22763525  1.0
  Bi  Bi119  1  0.08333333  0.77424333  0.22763525  1.0
  Bi  Bi120  1  0.41666667  0.10757667  0.22763525  1.0
  Bi  Bi121  1  0.41666667  0.44091000  0.22763525  1.0
  Bi  Bi122  1  0.41666667  0.77424333  0.22763525  1.0
  Bi  Bi123  1  0.75000000  0.10757667  0.22763525  1.0
  Bi  Bi124  1  0.75000000  0.44091000  0.22763525  1.0
  Bi  Bi125  1  0.75000000  0.77424333  0.22763525  1.0
  Bi  Bi126  1  0.25000000  0.27424333  0.14736475  1.0
  Bi  Bi127  1  0.25000000  0.60757667  0.14736475  1.0
  Bi  Bi128  1  0.25000000  0.94091000  0.14736475  1.0
  Bi  Bi129  1  0.58333333  0.27424333  0.14736475  1.0
  Bi  Bi130  1  0.58333333  0.60757667  0.14736475  1.0
  Bi  Bi131  1  0.58333333  0.94091000  0.14736475  1.0
  Bi  Bi132  1  0.91666667  0.27424333  0.14736475  1.0
  Bi  Bi133  1  0.91666667  0.60757667  0.14736475  1.0
  Bi  Bi134  1  0.91666667  0.94091000  0.14736475  1.0
  Bi  Bi135  1  0.08333333  0.05909000  0.10263525  1.0
  Bi  Bi136  1  0.08333333  0.39242333  0.10263525  1.0
  Bi  Bi137  1  0.08333333  0.72575667  0.10263525  1.0
  Bi  Bi138  1  0.41666667  0.05909000  0.10263525  1.0
  Bi  Bi139  1  0.41666667  0.39242333  0.10263525  1.0
  Bi  Bi140  1  0.41666667  0.72575667  0.10263525  1.0
  Bi  Bi141  1  0.75000000  0.05909000  0.10263525  1.0
  Bi  Bi142  1  0.75000000  0.39242333  0.10263525  1.0
  Bi  Bi143  1  0.75000000  0.72575667  0.10263525  1.0
  Ni  Ni144  1  0.25000000  0.00632600  0.35272700  1.0
  Ni  Ni145  1  0.25000000  0.33965933  0.35272700  1.0
  Ni  Ni146  1  0.25000000  0.67299267  0.35272700  1.0
  Ni  Ni147  1  0.58333333  0.00632600  0.35272700  1.0
  Ni  Ni148  1  0.58333333  0.33965933  0.35272700  1.0
  Ni  Ni149  1  0.58333333  0.67299267  0.35272700  1.0
  Ni  Ni150  1  0.91666667  0.00632600  0.35272700  1.0
  Ni  Ni151  1  0.91666667  0.33965933  0.35272700  1.0
  Ni  Ni152  1  0.91666667  0.67299267  0.35272700  1.0
  Ni  Ni153  1  0.08333333  0.32700733  0.39727300  1.0
  Ni  Ni154  1  0.08333333  0.66034067  0.39727300  1.0
  Ni  Ni155  1  0.08333333  0.99367400  0.39727300  1.0
  Ni  Ni156  1  0.41666667  0.32700733  0.39727300  1.0
  Ni  Ni157  1  0.41666667  0.66034067  0.39727300  1.0
  Ni  Ni158  1  0.41666667  0.99367400  0.39727300  1.0
  Ni  Ni159  1  0.75000000  0.32700733  0.39727300  1.0
  Ni  Ni160  1  0.75000000  0.66034067  0.39727300  1.0
  Ni  Ni161  1  0.75000000  0.99367400  0.39727300  1.0
  Ni  Ni162  1  0.25000000  0.16034067  0.47772700  1.0
  Ni  Ni163  1  0.25000000  0.49367400  0.47772700  1.0
  Ni  Ni164  1  0.25000000  0.82700733  0.47772700  1.0
  Ni  Ni165  1  0.58333333  0.16034067  0.47772700  1.0
  Ni  Ni166  1  0.58333333  0.49367400  0.47772700  1.0
  Ni  Ni167  1  0.58333333  0.82700733  0.47772700  1.0
  Ni  Ni168  1  0.91666667  0.16034067  0.47772700  1.0
  Ni  Ni169  1  0.91666667  0.49367400  0.47772700  1.0
  Ni  Ni170  1  0.91666667  0.82700733  0.47772700  1.0
  Ni  Ni171  1  0.08333333  0.17299267  0.27227300  1.0
  Ni  Ni172  1  0.08333333  0.50632600  0.27227300  1.0
  Ni  Ni173  1  0.08333333  0.83965933  0.27227300  1.0
  Ni  Ni174  1  0.41666667  0.17299267  0.27227300  1.0
  Ni  Ni175  1  0.41666667  0.50632600  0.27227300  1.0
  Ni  Ni176  1  0.41666667  0.83965933  0.27227300  1.0
  Ni  Ni177  1  0.75000000  0.17299267  0.27227300  1.0
  Ni  Ni178  1  0.75000000  0.50632600  0.27227300  1.0
  Ni  Ni179  1  0.75000000  0.83965933  0.27227300  1.0
  Bi  Bi180  1  0.08333333  0.29685333  0.32457250  1.0
  Bi  Bi181  1  0.08333333  0.63018667  0.32457250  1.0
  Bi  Bi182  1  0.08333333  0.96352000  0.32457250  1.0
  Bi  Bi183  1  0.41666667  0.29685333  0.32457250  1.0
  Bi  Bi184  1  0.41666667  0.63018667  0.32457250  1.0
  Bi  Bi185  1  0.41666667  0.96352000  0.32457250  1.0
  Bi  Bi186  1  0.75000000  0.29685333  0.32457250  1.0
  Bi  Bi187  1  0.75000000  0.63018667  0.32457250  1.0
  Bi  Bi188  1  0.75000000  0.96352000  0.32457250  1.0
  Bi  Bi189  1  0.25000000  0.03648000  0.42542750  1.0
  Bi  Bi190  1  0.25000000  0.36981333  0.42542750  1.0
  Bi  Bi191  1  0.25000000  0.70314667  0.42542750  1.0
  Bi  Bi192  1  0.58333333  0.03648000  0.42542750  1.0
  Bi  Bi193  1  0.58333333  0.36981333  0.42542750  1.0
  Bi  Bi194  1  0.58333333  0.70314667  0.42542750  1.0
  Bi  Bi195  1  0.91666667  0.03648000  0.42542750  1.0
  Bi  Bi196  1  0.91666667  0.36981333  0.42542750  1.0
  Bi  Bi197  1  0.91666667  0.70314667  0.42542750  1.0
  Bi  Bi198  1  0.08333333  0.20314667  0.44957250  1.0
  Bi  Bi199  1  0.08333333  0.53648000  0.44957250  1.0
  Bi  Bi200  1  0.08333333  0.86981333  0.44957250  1.0
  Bi  Bi201  1  0.41666667  0.20314667  0.44957250  1.0
  Bi  Bi202  1  0.41666667  0.53648000  0.44957250  1.0
  Bi  Bi203  1  0.41666667  0.86981333  0.44957250  1.0
  Bi  Bi204  1  0.75000000  0.20314667  0.44957250  1.0
  Bi  Bi205  1  0.75000000  0.53648000  0.44957250  1.0
  Bi  Bi206  1  0.75000000  0.86981333  0.44957250  1.0
  Bi  Bi207  1  0.25000000  0.13018667  0.30042750  1.0
  Bi  Bi208  1  0.25000000  0.46352000  0.30042750  1.0
  Bi  Bi209  1  0.25000000  0.79685333  0.30042750  1.0
  Bi  Bi210  1  0.58333333  0.13018667  0.30042750  1.0
  Bi  Bi211  1  0.58333333  0.46352000  0.30042750  1.0
  Bi  Bi212  1  0.58333333  0.79685333  0.30042750  1.0
  Bi  Bi213  1  0.91666667  0.13018667  0.30042750  1.0
  Bi  Bi214  1  0.91666667  0.46352000  0.30042750  1.0
  Bi  Bi215  1  0.91666667  0.79685333  0.30042750  1.0
  Bi  Bi216  1  0.08333333  0.19741500  0.34506950  1.0
  Bi  Bi217  1  0.08333333  0.53074833  0.34506950  1.0
  Bi  Bi218  1  0.08333333  0.86408167  0.34506950  1.0
  Bi  Bi219  1  0.41666667  0.19741500  0.34506950  1.0
  Bi  Bi220  1  0.41666667  0.53074833  0.34506950  1.0
  Bi  Bi221  1  0.41666667  0.86408167  0.34506950  1.0
  Bi  Bi222  1  0.75000000  0.19741500  0.34506950  1.0
  Bi  Bi223  1  0.75000000  0.53074833  0.34506950  1.0
  Bi  Bi224  1  0.75000000  0.86408167  0.34506950  1.0
  Bi  Bi225  1  0.25000000  0.13591833  0.40493050  1.0
  Bi  Bi226  1  0.25000000  0.46925167  0.40493050  1.0
  Bi  Bi227  1  0.25000000  0.80258500  0.40493050  1.0
  Bi  Bi228  1  0.58333333  0.13591833  0.40493050  1.0
  Bi  Bi229  1  0.58333333  0.46925167  0.40493050  1.0
  Bi  Bi230  1  0.58333333  0.80258500  0.40493050  1.0
  Bi  Bi231  1  0.91666667  0.13591833  0.40493050  1.0
  Bi  Bi232  1  0.91666667  0.46925167  0.40493050  1.0
  Bi  Bi233  1  0.91666667  0.80258500  0.40493050  1.0
  Bi  Bi234  1  0.08333333  0.30258500  0.47006950  1.0
  Bi  Bi235  1  0.08333333  0.63591833  0.47006950  1.0
  Bi  Bi236  1  0.08333333  0.96925167  0.47006950  1.0
  Bi  Bi237  1  0.41666667  0.30258500  0.47006950  1.0
  Bi  Bi238  1  0.41666667  0.63591833  0.47006950  1.0
  Bi  Bi239  1  0.41666667  0.96925167  0.47006950  1.0
  Bi  Bi240  1  0.75000000  0.30258500  0.47006950  1.0
  Bi  Bi241  1  0.75000000  0.63591833  0.47006950  1.0
  Bi  Bi242  1  0.75000000  0.96925167  0.47006950  1.0
  Bi  Bi243  1  0.25000000  0.03074833  0.27993050  1.0
  Bi  Bi244  1  0.25000000  0.36408167  0.27993050  1.0
  Bi  Bi245  1  0.25000000  0.69741500  0.27993050  1.0
  Bi  Bi246  1  0.58333333  0.03074833  0.27993050  1.0
  Bi  Bi247  1  0.58333333  0.36408167  0.27993050  1.0
  Bi  Bi248  1  0.58333333  0.69741500  0.27993050  1.0
  Bi  Bi249  1  0.91666667  0.03074833  0.27993050  1.0
  Bi  Bi250  1  0.91666667  0.36408167  0.27993050  1.0
  Bi  Bi251  1  0.91666667  0.69741500  0.27993050  1.0
  Bi  Bi252  1  0.25000000  0.22575667  0.27236475  1.0
  Bi  Bi253  1  0.25000000  0.55909000  0.27236475  1.0
  Bi  Bi254  1  0.25000000  0.89242333  0.27236475  1.0
  Bi  Bi255  1  0.58333333  0.22575667  0.27236475  1.0
  Bi  Bi256  1  0.58333333  0.55909000  0.27236475  1.0
  Bi  Bi257  1  0.58333333  0.89242333  0.27236475  1.0
  Bi  Bi258  1  0.91666667  0.22575667  0.27236475  1.0
  Bi  Bi259  1  0.91666667  0.55909000  0.27236475  1.0
  Bi  Bi260  1  0.91666667  0.89242333  0.27236475  1.0
  Bi  Bi261  1  0.08333333  0.10757667  0.47763525  1.0
  Bi  Bi262  1  0.08333333  0.44091000  0.47763525  1.0
  Bi  Bi263  1  0.08333333  0.77424333  0.47763525  1.0
  Bi  Bi264  1  0.41666667  0.10757667  0.47763525  1.0
  Bi  Bi265  1  0.41666667  0.44091000  0.47763525  1.0
  Bi  Bi266  1  0.41666667  0.77424333  0.47763525  1.0
  Bi  Bi267  1  0.75000000  0.10757667  0.47763525  1.0
  Bi  Bi268  1  0.75000000  0.44091000  0.47763525  1.0
  Bi  Bi269  1  0.75000000  0.77424333  0.47763525  1.0
  Bi  Bi270  1  0.25000000  0.27424333  0.39736475  1.0
  Bi  Bi271  1  0.25000000  0.60757667  0.39736475  1.0
  Bi  Bi272  1  0.25000000  0.94091000  0.39736475  1.0
  Bi  Bi273  1  0.58333333  0.27424333  0.39736475  1.0
  Bi  Bi274  1  0.58333333  0.60757667  0.39736475  1.0
  Bi  Bi275  1  0.58333333  0.94091000  0.39736475  1.0
  Bi  Bi276  1  0.91666667  0.27424333  0.39736475  1.0
  Bi  Bi277  1  0.91666667  0.60757667  0.39736475  1.0
  Bi  Bi278  1  0.91666667  0.94091000  0.39736475  1.0
  Bi  Bi279  1  0.08333333  0.05909000  0.35263525  1.0
  Bi  Bi280  1  0.08333333  0.39242333  0.35263525  1.0
  Bi  Bi281  1  0.08333333  0.72575667  0.35263525  1.0
  Bi  Bi282  1  0.41666667  0.05909000  0.35263525  1.0
  Bi  Bi283  1  0.41666667  0.39242333  0.35263525  1.0
  Bi  Bi284  1  0.41666667  0.72575667  0.35263525  1.0
  Bi  Bi285  1  0.75000000  0.05909000  0.35263525  1.0
  Bi  Bi286  1  0.75000000  0.39242333  0.35263525  1.0
  Bi  Bi287  1  0.75000000  0.72575667  0.35263525  1.0
