# generated using pymatgen
data_NiBi
_symmetry_space_group_name_H-M   'P 1'
_cell_length_a   24.26419687
_cell_length_b   28.50502632
_cell_length_c   28.06548583
_cell_angle_alpha   94.16030501
_cell_angle_beta   93.49227240
_cell_angle_gamma   114.80701995
_symmetry_Int_Tables_number   1
_chemical_formula_structural   NiBi
_chemical_formula_sum   'Ni180 Bi180'
_cell_volume   17484.23380337
_cell_formula_units_Z   180
loop_
 _symmetry_equiv_pos_site_id
 _symmetry_equiv_pos_as_xyz
  1  'x, y, z'
loop_
 _atom_site_type_symbol
 _atom_site_label
 _atom_site_symmetry_multiplicity
 _atom_site_fract_x
 _atom_site_fract_y
 _atom_site_fract_z
 _atom_site_occupancy
  Bi  Bi0  1  0.30902778  0.23611111  0.92708333  1.0
  Bi  Bi1  1  0.30902778  0.56944444  0.92708333  1.0
  Bi  Bi2  1  0.30902778  0.90277778  0.92708333  1.0
  Bi  Bi3  1  0.64236111  0.23611111  0.92708333  1.0
  Bi  Bi4  1  0.64236111  0.56944444  0.92708333  1.0
  Bi  Bi5  1  0.64236111  0.90277778  0.92708333  1.0
  Bi  Bi6  1  0.97569444  0.23611111  0.92708333  1.0
  Bi  Bi7  1  0.97569444  0.56944444  0.92708333  1.0
  Bi  Bi8  1  0.97569444  0.90277778  0.92708333  1.0
  Bi  Bi9  1  0.32291667  0.12500000  0.96875000  1.0
  Bi  Bi10  1  0.32291667  0.45833333  0.96875000  1.0
  Bi  Bi11  1  0.32291667  0.79166667  0.96875000  1.0
  Bi  Bi12  1  0.65625000  0.12500000  0.96875000  1.0
  Bi  Bi13  1  0.65625000  0.45833333  0.96875000  1.0
  Bi  Bi14  1  0.65625000  0.79166667  0.96875000  1.0
  Bi  Bi15  1  0.98958333  0.12500000  0.96875000  1.0
  Bi  Bi16  1  0.98958333  0.45833333  0.96875000  1.0
  Bi  Bi17  1  0.98958333  0.79166667  0.96875000  1.0
  Bi  Bi18  1  0.16319444  0.06944444  0.98958333  1.0
  Bi  Bi19  1  0.16319444  0.40277778  0.98958333  1.0
  Bi  Bi20  1  0.16319444  0.73611111  0.98958333  1.0
  Bi  Bi21  1  0.49652778  0.06944444  0.98958333  1.0
  Bi  Bi22  1  0.49652778  0.40277778  0.98958333  1.0
  Bi  Bi23  1  0.49652778  0.73611111  0.98958333  1.0
  Bi  Bi24  1  0.82986111  0.06944444  0.98958333  1.0
  Bi  Bi25  1  0.82986111  0.40277778  0.98958333  1.0
  Bi  Bi26  1  0.82986111  0.73611111  0.98958333  1.0
  Bi  Bi27  1  0.14930556  0.18055556  0.94791667  1.0
  Bi  Bi28  1  0.14930556  0.51388889  0.94791667  1.0
  Bi  Bi29  1  0.14930556  0.84722222  0.94791667  1.0
  Bi  Bi30  1  0.48263889  0.18055556  0.94791667  1.0
  Bi  Bi31  1  0.48263889  0.51388889  0.94791667  1.0
  Bi  Bi32  1  0.48263889  0.84722222  0.94791667  1.0
  Bi  Bi33  1  0.81597222  0.18055556  0.94791667  1.0
  Bi  Bi34  1  0.81597222  0.51388889  0.94791667  1.0
  Bi  Bi35  1  0.81597222  0.84722222  0.94791667  1.0
  Bi  Bi36  1  0.28125000  0.12500000  0.84375000  1.0
  Bi  Bi37  1  0.28125000  0.45833333  0.84375000  1.0
  Bi  Bi38  1  0.28125000  0.79166667  0.84375000  1.0
  Bi  Bi39  1  0.61458333  0.12500000  0.84375000  1.0
  Bi  Bi40  1  0.61458333  0.45833333  0.84375000  1.0
  Bi  Bi41  1  0.61458333  0.79166667  0.84375000  1.0
  Bi  Bi42  1  0.94791667  0.12500000  0.84375000  1.0
  Bi  Bi43  1  0.94791667  0.45833333  0.84375000  1.0
  Bi  Bi44  1  0.94791667  0.79166667  0.84375000  1.0
  Bi  Bi45  1  0.29513889  0.01388889  0.88541667  1.0
  Bi  Bi46  1  0.29513889  0.34722222  0.88541667  1.0
  Bi  Bi47  1  0.29513889  0.68055556  0.88541667  1.0
  Bi  Bi48  1  0.62847222  0.01388889  0.88541667  1.0
  Bi  Bi49  1  0.62847222  0.34722222  0.88541667  1.0
  Bi  Bi50  1  0.62847222  0.68055556  0.88541667  1.0
  Bi  Bi51  1  0.96180556  0.01388889  0.88541667  1.0
  Bi  Bi52  1  0.96180556  0.34722222  0.88541667  1.0
  Bi  Bi53  1  0.96180556  0.68055556  0.88541667  1.0
  Bi  Bi54  1  0.13541667  0.29166667  0.90625000  1.0
  Bi  Bi55  1  0.13541667  0.62500000  0.90625000  1.0
  Bi  Bi56  1  0.13541667  0.95833333  0.90625000  1.0
  Bi  Bi57  1  0.46875000  0.29166667  0.90625000  1.0
  Bi  Bi58  1  0.46875000  0.62500000  0.90625000  1.0
  Bi  Bi59  1  0.46875000  0.95833333  0.90625000  1.0
  Bi  Bi60  1  0.80208333  0.29166667  0.90625000  1.0
  Bi  Bi61  1  0.80208333  0.62500000  0.90625000  1.0
  Bi  Bi62  1  0.80208333  0.95833333  0.90625000  1.0
  Bi  Bi63  1  0.12152778  0.06944444  0.86458333  1.0
  Bi  Bi64  1  0.12152778  0.40277778  0.86458333  1.0
  Bi  Bi65  1  0.12152778  0.73611111  0.86458333  1.0
  Bi  Bi66  1  0.45486111  0.06944444  0.86458333  1.0
  Bi  Bi67  1  0.45486111  0.40277778  0.86458333  1.0
  Bi  Bi68  1  0.45486111  0.73611111  0.86458333  1.0
  Bi  Bi69  1  0.78819444  0.06944444  0.86458333  1.0
  Bi  Bi70  1  0.78819444  0.40277778  0.86458333  1.0
  Bi  Bi71  1  0.78819444  0.73611111  0.86458333  1.0
  Bi  Bi72  1  0.25347222  0.01388889  0.76041667  1.0
  Bi  Bi73  1  0.25347222  0.34722222  0.76041667  1.0
  Bi  Bi74  1  0.25347222  0.68055556  0.76041667  1.0
  Bi  Bi75  1  0.58680556  0.01388889  0.76041667  1.0
  Bi  Bi76  1  0.58680556  0.34722222  0.76041667  1.0
  Bi  Bi77  1  0.58680556  0.68055556  0.76041667  1.0
  Bi  Bi78  1  0.92013889  0.01388889  0.76041667  1.0
  Bi  Bi79  1  0.92013889  0.34722222  0.76041667  1.0
  Bi  Bi80  1  0.92013889  0.68055556  0.76041667  1.0
  Bi  Bi81  1  0.26736111  0.23611111  0.80208333  1.0
  Bi  Bi82  1  0.26736111  0.56944444  0.80208333  1.0
  Bi  Bi83  1  0.26736111  0.90277778  0.80208333  1.0
  Bi  Bi84  1  0.60069444  0.23611111  0.80208333  1.0
  Bi  Bi85  1  0.60069444  0.56944444  0.80208333  1.0
  Bi  Bi86  1  0.60069444  0.90277778  0.80208333  1.0
  Bi  Bi87  1  0.93402778  0.23611111  0.80208333  1.0
  Bi  Bi88  1  0.93402778  0.56944444  0.80208333  1.0
  Bi  Bi89  1  0.93402778  0.90277778  0.80208333  1.0
  Bi  Bi90  1  0.10763889  0.18055556  0.82291667  1.0
  Bi  Bi91  1  0.10763889  0.51388889  0.82291667  1.0
  Bi  Bi92  1  0.10763889  0.84722222  0.82291667  1.0
  Bi  Bi93  1  0.44097222  0.18055556  0.82291667  1.0
  Bi  Bi94  1  0.44097222  0.51388889  0.82291667  1.0
  Bi  Bi95  1  0.44097222  0.84722222  0.82291667  1.0
  Bi  Bi96  1  0.77430556  0.18055556  0.82291667  1.0
  Bi  Bi97  1  0.77430556  0.51388889  0.82291667  1.0
  Bi  Bi98  1  0.77430556  0.84722222  0.82291667  1.0
  Bi  Bi99  1  0.09375000  0.29166667  0.78125000  1.0
  Bi  Bi100  1  0.09375000  0.62500000  0.78125000  1.0
  Bi  Bi101  1  0.09375000  0.95833333  0.78125000  1.0
  Bi  Bi102  1  0.42708333  0.29166667  0.78125000  1.0
  Bi  Bi103  1  0.42708333  0.62500000  0.78125000  1.0
  Bi  Bi104  1  0.42708333  0.95833333  0.78125000  1.0
  Bi  Bi105  1  0.76041667  0.29166667  0.78125000  1.0
  Bi  Bi106  1  0.76041667  0.62500000  0.78125000  1.0
  Bi  Bi107  1  0.76041667  0.95833333  0.78125000  1.0
  Bi  Bi108  1  0.22569444  0.23611111  0.67708333  1.0
  Bi  Bi109  1  0.22569444  0.56944444  0.67708333  1.0
  Bi  Bi110  1  0.22569444  0.90277778  0.67708333  1.0
  Bi  Bi111  1  0.55902778  0.23611111  0.67708333  1.0
  Bi  Bi112  1  0.55902778  0.56944444  0.67708333  1.0
  Bi  Bi113  1  0.55902778  0.90277778  0.67708333  1.0
  Bi  Bi114  1  0.89236111  0.23611111  0.67708333  1.0
  Bi  Bi115  1  0.89236111  0.56944444  0.67708333  1.0
  Bi  Bi116  1  0.89236111  0.90277778  0.67708333  1.0
  Bi  Bi117  1  0.23958333  0.12500000  0.71875000  1.0
  Bi  Bi118  1  0.23958333  0.45833333  0.71875000  1.0
  Bi  Bi119  1  0.23958333  0.79166667  0.71875000  1.0
  Bi  Bi120  1  0.57291667  0.12500000  0.71875000  1.0
  Bi  Bi121  1  0.57291667  0.45833333  0.71875000  1.0
  Bi  Bi122  1  0.57291667  0.79166667  0.71875000  1.0
  Bi  Bi123  1  0.90625000  0.12500000  0.71875000  1.0
  Bi  Bi124  1  0.90625000  0.45833333  0.71875000  1.0
  Bi  Bi125  1  0.90625000  0.79166667  0.71875000  1.0
  Bi  Bi126  1  0.07986111  0.06944444  0.73958333  1.0
  Bi  Bi127  1  0.07986111  0.40277778  0.73958333  1.0
  Bi  Bi128  1  0.07986111  0.73611111  0.73958333  1.0
  Bi  Bi129  1  0.41319444  0.06944444  0.73958333  1.0
  Bi  Bi130  1  0.41319444  0.40277778  0.73958333  1.0
  Bi  Bi131  1  0.41319444  0.73611111  0.73958333  1.0
  Bi  Bi132  1  0.74652778  0.06944444  0.73958333  1.0
  Bi  Bi133  1  0.74652778  0.40277778  0.73958333  1.0
  Bi  Bi134  1  0.74652778  0.73611111  0.73958333  1.0
  Bi  Bi135  1  0.06597222  0.18055556  0.69791667  1.0
  Bi  Bi136  1  0.06597222  0.51388889  0.69791667  1.0
  Bi  Bi137  1  0.06597222  0.84722222  0.69791667  1.0
  Bi  Bi138  1  0.39930556  0.18055556  0.69791667  1.0
  Bi  Bi139  1  0.39930556  0.51388889  0.69791667  1.0
  Bi  Bi140  1  0.39930556  0.84722222  0.69791667  1.0
  Bi  Bi141  1  0.73263889  0.18055556  0.69791667  1.0
  Bi  Bi142  1  0.73263889  0.51388889  0.69791667  1.0
  Bi  Bi143  1  0.73263889  0.84722222  0.69791667  1.0
  Bi  Bi144  1  0.19791667  0.12500000  0.59375000  1.0
  Bi  Bi145  1  0.19791667  0.45833333  0.59375000  1.0
  Bi  Bi146  1  0.19791667  0.79166667  0.59375000  1.0
  Bi  Bi147  1  0.53125000  0.12500000  0.59375000  1.0
  Bi  Bi148  1  0.53125000  0.45833333  0.59375000  1.0
  Bi  Bi149  1  0.53125000  0.79166667  0.59375000  1.0
  Bi  Bi150  1  0.86458333  0.12500000  0.59375000  1.0
  Bi  Bi151  1  0.86458333  0.45833333  0.59375000  1.0
  Bi  Bi152  1  0.86458333  0.79166667  0.59375000  1.0
  Bi  Bi153  1  0.21180556  0.01388889  0.63541667  1.0
  Bi  Bi154  1  0.21180556  0.34722222  0.63541667  1.0
  Bi  Bi155  1  0.21180556  0.68055556  0.63541667  1.0
  Bi  Bi156  1  0.54513889  0.01388889  0.63541667  1.0
  Bi  Bi157  1  0.54513889  0.34722222  0.63541667  1.0
  Bi  Bi158  1  0.54513889  0.68055556  0.63541667  1.0
  Bi  Bi159  1  0.87847222  0.01388889  0.63541667  1.0
  Bi  Bi160  1  0.87847222  0.34722222  0.63541667  1.0
  Bi  Bi161  1  0.87847222  0.68055556  0.63541667  1.0
  Bi  Bi162  1  0.05208333  0.29166667  0.65625000  1.0
  Bi  Bi163  1  0.05208333  0.62500000  0.65625000  1.0
  Bi  Bi164  1  0.05208333  0.95833333  0.65625000  1.0
  Bi  Bi165  1  0.38541667  0.29166667  0.65625000  1.0
  Bi  Bi166  1  0.38541667  0.62500000  0.65625000  1.0
  Bi  Bi167  1  0.38541667  0.95833333  0.65625000  1.0
  Bi  Bi168  1  0.71875000  0.29166667  0.65625000  1.0
  Bi  Bi169  1  0.71875000  0.62500000  0.65625000  1.0
  Bi  Bi170  1  0.71875000  0.95833333  0.65625000  1.0
  Bi  Bi171  1  0.03819444  0.06944444  0.61458333  1.0
  Bi  Bi172  1  0.03819444  0.40277778  0.61458333  1.0
  Bi  Bi173  1  0.03819444  0.73611111  0.61458333  1.0
  Bi  Bi174  1  0.37152778  0.06944444  0.61458333  1.0
  Bi  Bi175  1  0.37152778  0.40277778  0.61458333  1.0
  Bi  Bi176  1  0.37152778  0.73611111  0.61458333  1.0
  Bi  Bi177  1  0.70486111  0.06944444  0.61458333  1.0
  Bi  Bi178  1  0.70486111  0.40277778  0.61458333  1.0
  Bi  Bi179  1  0.70486111  0.73611111  0.61458333  1.0
  Ni  Ni180  1  0.06481481  0.07870370  0.94444444  1.0
  Ni  Ni181  1  0.06481481  0.41203704  0.94444444  1.0
  Ni  Ni182  1  0.06481481  0.74537037  0.94444444  1.0
  Ni  Ni183  1  0.39814815  0.07870370  0.94444444  1.0
  Ni  Ni184  1  0.39814815  0.41203704  0.94444444  1.0
  Ni  Ni185  1  0.39814815  0.74537037  0.94444444  1.0
  Ni  Ni186  1  0.73148148  0.07870370  0.94444444  1.0
  Ni  Ni187  1  0.73148148  0.41203704  0.94444444  1.0
  Ni  Ni188  1  0.73148148  0.74537037  0.94444444  1.0
  Ni  Ni189  1  0.07870370  0.30092593  0.98611111  1.0
  Ni  Ni190  1  0.07870370  0.63425926  0.98611111  1.0
  Ni  Ni191  1  0.07870370  0.96759259  0.98611111  1.0
  Ni  Ni192  1  0.41203704  0.30092593  0.98611111  1.0
  Ni  Ni193  1  0.41203704  0.63425926  0.98611111  1.0
  Ni  Ni194  1  0.41203704  0.96759259  0.98611111  1.0
  Ni  Ni195  1  0.74537037  0.30092593  0.98611111  1.0
  Ni  Ni196  1  0.74537037  0.63425926  0.98611111  1.0
  Ni  Ni197  1  0.74537037  0.96759259  0.98611111  1.0
  Ni  Ni198  1  0.24768519  0.17129630  0.99305556  1.0
  Ni  Ni199  1  0.24768519  0.50462963  0.99305556  1.0
  Ni  Ni200  1  0.24768519  0.83796296  0.99305556  1.0
  Ni  Ni201  1  0.58101852  0.17129630  0.99305556  1.0
  Ni  Ni202  1  0.58101852  0.50462963  0.99305556  1.0
  Ni  Ni203  1  0.58101852  0.83796296  0.99305556  1.0
  Ni  Ni204  1  0.91435185  0.17129630  0.99305556  1.0
  Ni  Ni205  1  0.91435185  0.50462963  0.99305556  1.0
  Ni  Ni206  1  0.91435185  0.83796296  0.99305556  1.0
  Ni  Ni207  1  0.23379630  0.28240741  0.95138889  1.0
  Ni  Ni208  1  0.23379630  0.61574074  0.95138889  1.0
  Ni  Ni209  1  0.23379630  0.94907407  0.95138889  1.0
  Ni  Ni210  1  0.56712963  0.28240741  0.95138889  1.0
  Ni  Ni211  1  0.56712963  0.61574074  0.95138889  1.0
  Ni  Ni212  1  0.56712963  0.94907407  0.95138889  1.0
  Ni  Ni213  1  0.90046296  0.28240741  0.95138889  1.0
  Ni  Ni214  1  0.90046296  0.61574074  0.95138889  1.0
  Ni  Ni215  1  0.90046296  0.94907407  0.95138889  1.0
  Ni  Ni216  1  0.03703704  0.30092593  0.86111111  1.0
  Ni  Ni217  1  0.03703704  0.63425926  0.86111111  1.0
  Ni  Ni218  1  0.03703704  0.96759259  0.86111111  1.0
  Ni  Ni219  1  0.37037037  0.30092593  0.86111111  1.0
  Ni  Ni220  1  0.37037037  0.63425926  0.86111111  1.0
  Ni  Ni221  1  0.37037037  0.96759259  0.86111111  1.0
  Ni  Ni222  1  0.70370370  0.30092593  0.86111111  1.0
  Ni  Ni223  1  0.70370370  0.63425926  0.86111111  1.0
  Ni  Ni224  1  0.70370370  0.96759259  0.86111111  1.0
  Ni  Ni225  1  0.05092593  0.18981481  0.90277778  1.0
  Ni  Ni226  1  0.05092593  0.52314815  0.90277778  1.0
  Ni  Ni227  1  0.05092593  0.85648148  0.90277778  1.0
  Ni  Ni228  1  0.38425926  0.18981481  0.90277778  1.0
  Ni  Ni229  1  0.38425926  0.52314815  0.90277778  1.0
  Ni  Ni230  1  0.38425926  0.85648148  0.90277778  1.0
  Ni  Ni231  1  0.71759259  0.18981481  0.90277778  1.0
  Ni  Ni232  1  0.71759259  0.52314815  0.90277778  1.0
  Ni  Ni233  1  0.71759259  0.85648148  0.90277778  1.0
  Ni  Ni234  1  0.21990741  0.06018519  0.90972222  1.0
  Ni  Ni235  1  0.21990741  0.39351852  0.90972222  1.0
  Ni  Ni236  1  0.21990741  0.72685185  0.90972222  1.0
  Ni  Ni237  1  0.55324074  0.06018519  0.90972222  1.0
  Ni  Ni238  1  0.55324074  0.39351852  0.90972222  1.0
  Ni  Ni239  1  0.55324074  0.72685185  0.90972222  1.0
  Ni  Ni240  1  0.88657407  0.06018519  0.90972222  1.0
  Ni  Ni241  1  0.88657407  0.39351852  0.90972222  1.0
  Ni  Ni242  1  0.88657407  0.72685185  0.90972222  1.0
  Ni  Ni243  1  0.20601852  0.17129630  0.86805556  1.0
  Ni  Ni244  1  0.20601852  0.50462963  0.86805556  1.0
  Ni  Ni245  1  0.20601852  0.83796296  0.86805556  1.0
  Ni  Ni246  1  0.53935185  0.17129630  0.86805556  1.0
  Ni  Ni247  1  0.53935185  0.50462963  0.86805556  1.0
  Ni  Ni248  1  0.53935185  0.83796296  0.86805556  1.0
  Ni  Ni249  1  0.87268519  0.17129630  0.86805556  1.0
  Ni  Ni250  1  0.87268519  0.50462963  0.86805556  1.0
  Ni  Ni251  1  0.87268519  0.83796296  0.86805556  1.0
  Ni  Ni252  1  0.00925926  0.18981481  0.77777778  1.0
  Ni  Ni253  1  0.00925926  0.52314815  0.77777778  1.0
  Ni  Ni254  1  0.00925926  0.85648148  0.77777778  1.0
  Ni  Ni255  1  0.34259259  0.18981481  0.77777778  1.0
  Ni  Ni256  1  0.34259259  0.52314815  0.77777778  1.0
  Ni  Ni257  1  0.34259259  0.85648148  0.77777778  1.0
  Ni  Ni258  1  0.67592593  0.18981481  0.77777778  1.0
  Ni  Ni259  1  0.67592593  0.52314815  0.77777778  1.0
  Ni  Ni260  1  0.67592593  0.85648148  0.77777778  1.0
  Ni  Ni261  1  0.02314815  0.07870370  0.81944444  1.0
  Ni  Ni262  1  0.02314815  0.41203704  0.81944444  1.0
  Ni  Ni263  1  0.02314815  0.74537037  0.81944444  1.0
  Ni  Ni264  1  0.35648148  0.07870370  0.81944444  1.0
  Ni  Ni265  1  0.35648148  0.41203704  0.81944444  1.0
  Ni  Ni266  1  0.35648148  0.74537037  0.81944444  1.0
  Ni  Ni267  1  0.68981481  0.07870370  0.81944444  1.0
  Ni  Ni268  1  0.68981481  0.41203704  0.81944444  1.0
  Ni  Ni269  1  0.68981481  0.74537037  0.81944444  1.0
  Ni  Ni270  1  0.19212963  0.28240741  0.82638889  1.0
  Ni  Ni271  1  0.19212963  0.61574074  0.82638889  1.0
  Ni  Ni272  1  0.19212963  0.94907407  0.82638889  1.0
  Ni  Ni273  1  0.52546296  0.28240741  0.82638889  1.0
  Ni  Ni274  1  0.52546296  0.61574074  0.82638889  1.0
  Ni  Ni275  1  0.52546296  0.94907407  0.82638889  1.0
  Ni  Ni276  1  0.85879630  0.28240741  0.82638889  1.0
  Ni  Ni277  1  0.85879630  0.61574074  0.82638889  1.0
  Ni  Ni278  1  0.85879630  0.94907407  0.82638889  1.0
  Ni  Ni279  1  0.17824074  0.06018519  0.78472222  1.0
  Ni  Ni280  1  0.17824074  0.39351852  0.78472222  1.0
  Ni  Ni281  1  0.17824074  0.72685185  0.78472222  1.0
  Ni  Ni282  1  0.51157407  0.06018519  0.78472222  1.0
  Ni  Ni283  1  0.51157407  0.39351852  0.78472222  1.0
  Ni  Ni284  1  0.51157407  0.72685185  0.78472222  1.0
  Ni  Ni285  1  0.84490741  0.06018519  0.78472222  1.0
  Ni  Ni286  1  0.84490741  0.39351852  0.78472222  1.0
  Ni  Ni287  1  0.84490741  0.72685185  0.78472222  1.0
  Ni  Ni288  1  0.31481481  0.07870370  0.69444444  1.0
  Ni  Ni289  1  0.31481481  0.41203704  0.69444444  1.0
  Ni  Ni290  1  0.31481481  0.74537037  0.69444444  1.0
  Ni  Ni291  1  0.64814815  0.07870370  0.69444444  1.0
  Ni  Ni292  1  0.64814815  0.41203704  0.69444444  1.0
  Ni  Ni293  1  0.64814815  0.74537037  0.69444444  1.0
  Ni  Ni294  1  0.98148148  0.07870370  0.69444444  1.0
  Ni  Ni295  1  0.98148148  0.41203704  0.69444444  1.0
  Ni  Ni296  1  0.98148148  0.74537037  0.69444444  1.0
  Ni  Ni297  1  0.32870370  0.30092593  0.73611111  1.0
  Ni  Ni298  1  0.32870370  0.63425926  0.73611111  1.0
  Ni  Ni299  1  0.32870370  0.96759259  0.73611111  1.0
  Ni  Ni300  1  0.66203704  0.30092593  0.73611111  1.0
  Ni  Ni301  1  0.66203704  0.63425926  0.73611111  1.0
  Ni  Ni302  1  0.66203704  0.96759259  0.73611111  1.0
  Ni  Ni303  1  0.99537037  0.30092593  0.73611111  1.0
  Ni  Ni304  1  0.99537037  0.63425926  0.73611111  1.0
  Ni  Ni305  1  0.99537037  0.96759259  0.73611111  1.0
  Ni  Ni306  1  0.16435185  0.17129630  0.74305556  1.0
  Ni  Ni307  1  0.16435185  0.50462963  0.74305556  1.0
  Ni  Ni308  1  0.16435185  0.83796296  0.74305556  1.0
  Ni  Ni309  1  0.49768519  0.17129630  0.74305556  1.0
  Ni  Ni310  1  0.49768519  0.50462963  0.74305556  1.0
  Ni  Ni311  1  0.49768519  0.83796296  0.74305556  1.0
  Ni  Ni312  1  0.83101852  0.17129630  0.74305556  1.0
  Ni  Ni313  1  0.83101852  0.50462963  0.74305556  1.0
  Ni  Ni314  1  0.83101852  0.83796296  0.74305556  1.0
  Ni  Ni315  1  0.15046296  0.28240741  0.70138889  1.0
  Ni  Ni316  1  0.15046296  0.61574074  0.70138889  1.0
  Ni  Ni317  1  0.15046296  0.94907407  0.70138889  1.0
  Ni  Ni318  1  0.48379630  0.28240741  0.70138889  1.0
  Ni  Ni319  1  0.48379630  0.61574074  0.70138889  1.0
  Ni  Ni320  1  0.48379630  0.94907407  0.70138889  1.0
  Ni  Ni321  1  0.81712963  0.28240741  0.70138889  1.0
  Ni  Ni322  1  0.81712963  0.61574074  0.70138889  1.0
  Ni  Ni323  1  0.81712963  0.94907407  0.70138889  1.0
  Ni  Ni324  1  0.28703704  0.30092593  0.61111111  1.0
  Ni  Ni325  1  0.28703704  0.63425926  0.61111111  1.0
  Ni  Ni326  1  0.28703704  0.96759259  0.61111111  1.0
  Ni  Ni327  1  0.62037037  0.30092593  0.61111111  1.0
  Ni  Ni328  1  0.62037037  0.63425926  0.61111111  1.0
  Ni  Ni329  1  0.62037037  0.96759259  0.61111111  1.0
  Ni  Ni330  1  0.95370370  0.30092593  0.61111111  1.0
  Ni  Ni331  1  0.95370370  0.63425926  0.61111111  1.0
  Ni  Ni332  1  0.95370370  0.96759259  0.61111111  1.0
  Ni  Ni333  1  0.30092593  0.18981481  0.65277778  1.0
  Ni  Ni334  1  0.30092593  0.52314815  0.65277778  1.0
  Ni  Ni335  1  0.30092593  0.85648148  0.65277778  1.0
  Ni  Ni336  1  0.63425926  0.18981481  0.65277778  1.0
  Ni  Ni337  1  0.63425926  0.52314815  0.65277778  1.0
  Ni  Ni338  1  0.63425926  0.85648148  0.65277778  1.0
  Ni  Ni339  1  0.96759259  0.18981481  0.65277778  1.0
  Ni  Ni340  1  0.96759259  0.52314815  0.65277778  1.0
  Ni  Ni341  1  0.96759259  0.85648148  0.65277778  1.0
  Ni  Ni342  1  0.13657407  0.06018519  0.65972222  1.0
  Ni  Ni343  1  0.13657407  0.39351852  0.65972222  1.0
  Ni  Ni344  1  0.13657407  0.72685185  0.65972222  1.0
  Ni  Ni345  1  0.46990741  0.06018519  0.65972222  1.0
  Ni  Ni346  1  0.46990741  0.39351852  0.65972222  1.0
  Ni  Ni347  1  0.46990741  0.72685185  0.65972222  1.0
  Ni  Ni348  1  0.80324074  0.06018519  0.65972222  1.0
  Ni  Ni349  1  0.80324074  0.39351852  0.65972222  1.0
  Ni  Ni350  1  0.80324074  0.72685185  0.65972222  1.0
  Ni  Ni351  1  0.12268519  0.17129630  0.61805556  1.0
  Ni  Ni352  1  0.12268519  0.50462963  0.61805556  1.0
  Ni  Ni353  1  0.12268519  0.83796296  0.61805556  1.0
  Ni  Ni354  1  0.45601852  0.17129630  0.61805556  1.0
  Ni  Ni355  1  0.45601852  0.50462963  0.61805556  1.0
  Ni  Ni356  1  0.45601852  0.83796296  0.61805556  1.0
  Ni  Ni357  1  0.78935185  0.17129630  0.61805556  1.0
  Ni  Ni358  1  0.78935185  0.50462963  0.61805556  1.0
  Ni  Ni359  1  0.78935185  0.83796296  0.61805556  1.0
