# generated using pymatgen
data_NiBi
_symmetry_space_group_name_H-M   'P 1'
_cell_length_a   10.77388725
_cell_length_b   21.74108100
_cell_length_c   32.32166175
_cell_angle_alpha   90.00000000
_cell_angle_beta   120.00000000
_cell_angle_gamma   90.00000000
_symmetry_Int_Tables_number   1
_chemical_formula_structural   NiBi
_chemical_formula_sum   'Ni72 Bi72'
_cell_volume   6556.58767626
_cell_formula_units_Z   72
loop_
 _symmetry_equiv_pos_site_id
 _symmetry_equiv_pos_as_xyz
  1  'x, y, z'
loop_
 _atom_site_type_symbol
 _atom_site_label
 _atom_site_symmetry_multiplicity
 _atom_site_fract_x
 _atom_site_fract_y
 _atom_site_fract_z
 _atom_site_occupancy
  Ni  Ni0  1  0.22222222  0.08333333  0.01851852  1.0
  Ni  Ni1  1  0.22222222  0.41666667  0.01851852  1.0
  Ni  Ni2  1  0.22222222  0.75000000  0.01851852  1.0
  Ni  Ni3  1  0.55555556  0.08333333  0.01851852  1.0
  Ni  Ni4  1  0.55555556  0.41666667  0.01851852  1.0
  Ni  Ni5  1  0.55555556  0.75000000  0.01851852  1.0
  Ni  Ni6  1  0.88888889  0.08333333  0.01851852  1.0
  Ni  Ni7  1  0.88888889  0.41666667  0.01851852  1.0
  Ni  Ni8  1  0.88888889  0.75000000  0.01851852  1.0
  Ni  Ni9  1  0.11111111  0.25000000  0.05555556  1.0
  Ni  Ni10  1  0.11111111  0.58333333  0.05555556  1.0
  Ni  Ni11  1  0.11111111  0.91666667  0.05555556  1.0
  Ni  Ni12  1  0.44444444  0.25000000  0.05555556  1.0
  Ni  Ni13  1  0.44444444  0.58333333  0.05555556  1.0
  Ni  Ni14  1  0.44444444  0.91666667  0.05555556  1.0
  Ni  Ni15  1  0.77777778  0.25000000  0.05555556  1.0
  Ni  Ni16  1  0.77777778  0.58333333  0.05555556  1.0
  Ni  Ni17  1  0.77777778  0.91666667  0.05555556  1.0
  Bi  Bi18  1  0.00000000  0.00000000  0.09259259  1.0
  Bi  Bi19  1  0.00000000  0.33333333  0.09259259  1.0
  Bi  Bi20  1  0.00000000  0.66666667  0.09259259  1.0
  Bi  Bi21  1  0.33333333  0.00000000  0.09259259  1.0
  Bi  Bi22  1  0.33333333  0.33333333  0.09259259  1.0
  Bi  Bi23  1  0.33333333  0.66666667  0.09259259  1.0
  Bi  Bi24  1  0.66666667  0.00000000  0.09259259  1.0
  Bi  Bi25  1  0.66666667  0.33333333  0.09259259  1.0
  Bi  Bi26  1  0.66666667  0.66666667  0.09259259  1.0
  Bi  Bi27  1  0.00000000  0.16666667  0.09259259  1.0
  Bi  Bi28  1  0.00000000  0.50000000  0.09259259  1.0
  Bi  Bi29  1  0.00000000  0.83333333  0.09259259  1.0
  Bi  Bi30  1  0.33333333  0.16666667  0.09259259  1.0
  Bi  Bi31  1  0.33333333  0.50000000  0.09259259  1.0
  Bi  Bi32  1  0.33333333  0.83333333  0.09259259  1.0
  Bi  Bi33  1  0.66666667  0.16666667  0.09259259  1.0
  Bi  Bi34  1  0.66666667  0.50000000  0.09259259  1.0
  Bi  Bi35  1  0.66666667  0.83333333  0.09259259  1.0
  Ni  Ni36  1  0.22222222  0.08333333  0.12962963  1.0
  Ni  Ni37  1  0.22222222  0.41666667  0.12962963  1.0
  Ni  Ni38  1  0.22222222  0.75000000  0.12962963  1.0
  Ni  Ni39  1  0.55555556  0.08333333  0.12962963  1.0
  Ni  Ni40  1  0.55555556  0.41666667  0.12962963  1.0
  Ni  Ni41  1  0.55555556  0.75000000  0.12962963  1.0
  Ni  Ni42  1  0.88888889  0.08333333  0.12962963  1.0
  Ni  Ni43  1  0.88888889  0.41666667  0.12962963  1.0
  Ni  Ni44  1  0.88888889  0.75000000  0.12962963  1.0
  Ni  Ni45  1  0.11111111  0.25000000  0.16666667  1.0
  Ni  Ni46  1  0.11111111  0.58333333  0.16666667  1.0
  Ni  Ni47  1  0.11111111  0.91666667  0.16666667  1.0
  Ni  Ni48  1  0.44444444  0.25000000  0.16666667  1.0
  Ni  Ni49  1  0.44444444  0.58333333  0.16666667  1.0
  Ni  Ni50  1  0.44444444  0.91666667  0.16666667  1.0
  Ni  Ni51  1  0.77777778  0.25000000  0.16666667  1.0
  Ni  Ni52  1  0.77777778  0.58333333  0.16666667  1.0
  Ni  Ni53  1  0.77777778  0.91666667  0.16666667  1.0
  Bi  Bi54  1  0.00000000  0.00000000  0.20370370  1.0
  Bi  Bi55  1  0.00000000  0.33333333  0.20370370  1.0
  Bi  Bi56  1  0.00000000  0.66666667  0.20370370  1.0
  Bi  Bi57  1  0.33333333  0.00000000  0.20370370  1.0
  Bi  Bi58  1  0.33333333  0.33333333  0.20370370  1.0
  Bi  Bi59  1  0.33333333  0.66666667  0.20370370  1.0
  Bi  Bi60  1  0.66666667  0.00000000  0.20370370  1.0
  Bi  Bi61  1  0.66666667  0.33333333  0.20370370  1.0
  Bi  Bi62  1  0.66666667  0.66666667  0.20370370  1.0
  Bi  Bi63  1  0.00000000  0.16666667  0.20370370  1.0
  Bi  Bi64  1  0.00000000  0.50000000  0.20370370  1.0
  Bi  Bi65  1  0.00000000  0.83333333  0.20370370  1.0
  Bi  Bi66  1  0.33333333  0.16666667  0.20370370  1.0
  Bi  Bi67  1  0.33333333  0.50000000  0.20370370  1.0
  Bi  Bi68  1  0.33333333  0.83333333  0.20370370  1.0
  Bi  Bi69  1  0.66666667  0.16666667  0.20370370  1.0
  Bi  Bi70  1  0.66666667  0.50000000  0.20370370  1.0
  Bi  Bi71  1  0.66666667  0.83333333  0.20370370  1.0
  Ni  Ni72  1  0.22222222  0.08333333  0.24074074  1.0
  Ni  Ni73  1  0.22222222  0.41666667  0.24074074  1.0
  Ni  Ni74  1  0.22222222  0.75000000  0.24074074  1.0
  Ni  Ni75  1  0.55555556  0.08333333  0.24074074  1.0
  Ni  Ni76  1  0.55555556  0.41666667  0.24074074  1.0
  Ni  Ni77  1  0.55555556  0.75000000  0.24074074  1.0
  Ni  Ni78  1  0.88888889  0.08333333  0.24074074  1.0
  Ni  Ni79  1  0.88888889  0.41666667  0.24074074  1.0
  Ni  Ni80  1  0.88888889  0.75000000  0.24074074  1.0
  Ni  Ni81  1  0.11111111  0.25000000  0.27777778  1.0
  Ni  Ni82  1  0.11111111  0.58333333  0.27777778  1.0
  Ni  Ni83  1  0.11111111  0.91666667  0.27777778  1.0
  Ni  Ni84  1  0.44444444  0.25000000  0.27777778  1.0
  Ni  Ni85  1  0.44444444  0.58333333  0.27777778  1.0
  Ni  Ni86  1  0.44444444  0.91666667  0.27777778  1.0
  Ni  Ni87  1  0.77777778  0.25000000  0.27777778  1.0
  Ni  Ni88  1  0.77777778  0.58333333  0.27777778  1.0
  Ni  Ni89  1  0.77777778  0.91666667  0.27777778  1.0
  Bi  Bi90  1  0.00000000  0.00000000  0.31481481  1.0
  Bi  Bi91  1  0.00000000  0.33333333  0.31481481  1.0
  Bi  Bi92  1  0.00000000  0.66666667  0.31481481  1.0
  Bi  Bi93  1  0.33333333  0.00000000  0.31481481  1.0
  Bi  Bi94  1  0.33333333  0.33333333  0.31481481  1.0
  Bi  Bi95  1  0.33333333  0.66666667  0.31481481  1.0
  Bi  Bi96  1  0.66666667  0.00000000  0.31481481  1.0
  Bi  Bi97  1  0.66666667  0.33333333  0.31481481  1.0
  Bi  Bi98  1  0.66666667  0.66666667  0.31481481  1.0
  Bi  Bi99  1  0.00000000  0.16666667  0.31481481  1.0
  Bi  Bi100  1  0.00000000  0.50000000  0.31481481  1.0
  Bi  Bi101  1  0.00000000  0.83333333  0.31481481  1.0
  Bi  Bi102  1  0.33333333  0.16666667  0.31481481  1.0
  Bi  Bi103  1  0.33333333  0.50000000  0.31481481  1.0
  Bi  Bi104  1  0.33333333  0.83333333  0.31481481  1.0
  Bi  Bi105  1  0.66666667  0.16666667  0.31481481  1.0
  Bi  Bi106  1  0.66666667  0.50000000  0.31481481  1.0
  Bi  Bi107  1  0.66666667  0.83333333  0.31481481  1.0
  Ni  Ni108  1  0.22222222  0.08333333  0.35185185  1.0
  Ni  Ni109  1  0.22222222  0.41666667  0.35185185  1.0
  Ni  Ni110  1  0.22222222  0.75000000  0.35185185  1.0
  Ni  Ni111  1  0.55555556  0.08333333  0.35185185  1.0
  Ni  Ni112  1  0.55555556  0.41666667  0.35185185  1.0
  Ni  Ni113  1  0.55555556  0.75000000  0.35185185  1.0
  Ni  Ni114  1  0.88888889  0.08333333  0.35185185  1.0
  Ni  Ni115  1  0.88888889  0.41666667  0.35185185  1.0
  Ni  Ni116  1  0.88888889  0.75000000  0.35185185  1.0
  Ni  Ni117  1  0.11111111  0.25000000  0.38888889  1.0
  Ni  Ni118  1  0.11111111  0.58333333  0.38888889  1.0
  Ni  Ni119  1  0.11111111  0.91666667  0.38888889  1.0
  Ni  Ni120  1  0.44444444  0.25000000  0.38888889  1.0
  Ni  Ni121  1  0.44444444  0.58333333  0.38888889  1.0
  Ni  Ni122  1  0.44444444  0.91666667  0.38888889  1.0
  Ni  Ni123  1  0.77777778  0.25000000  0.38888889  1.0
  Ni  Ni124  1  0.77777778  0.58333333  0.38888889  1.0
  Ni  Ni125  1  0.77777778  0.91666667  0.38888889  1.0
  Bi  Bi126  1  0.00000000  0.00000000  0.42592593  1.0
  Bi  Bi127  1  0.00000000  0.33333333  0.42592593  1.0
  Bi  Bi128  1  0.00000000  0.66666667  0.42592593  1.0
  Bi  Bi129  1  0.33333333  0.00000000  0.42592593  1.0
  Bi  Bi130  1  0.33333333  0.33333333  0.42592593  1.0
  Bi  Bi131  1  0.33333333  0.66666667  0.42592593  1.0
  Bi  Bi132  1  0.66666667  0.00000000  0.42592593  1.0
  Bi  Bi133  1  0.66666667  0.33333333  0.42592593  1.0
  Bi  Bi134  1  0.66666667  0.66666667  0.42592593  1.0
  Bi  Bi135  1  0.00000000  0.16666667  0.42592593  1.0
  Bi  Bi136  1  0.00000000  0.50000000  0.42592593  1.0
  Bi  Bi137  1  0.00000000  0.83333333  0.42592593  1.0
  Bi  Bi138  1  0.33333333  0.16666667  0.42592593  1.0
  Bi  Bi139  1  0.33333333  0.50000000  0.42592593  1.0
  Bi  Bi140  1  0.33333333  0.83333333  0.42592593  1.0
  Bi  Bi141  1  0.66666667  0.16666667  0.42592593  1.0
  Bi  Bi142  1  0.66666667  0.50000000  0.42592593  1.0
  Bi  Bi143  1  0.66666667  0.83333333  0.42592593  1.0
