# generated using pymatgen
data_NiBi
_symmetry_space_group_name_H-M   'P 1'
_cell_length_a   24.69816339
_cell_length_b   24.69816339
_cell_length_c   38.65746738
_cell_angle_alpha   61.54335411
_cell_angle_beta   118.45664589
_cell_angle_gamma   119.54305465
_symmetry_Int_Tables_number   1
_chemical_formula_structural   NiBi
_chemical_formula_sum   'Ni144 Bi144'
_cell_volume   17113.47379103
_cell_formula_units_Z   144
loop_
 _symmetry_equiv_pos_site_id
 _symmetry_equiv_pos_as_xyz
  1  'x, y, z'
loop_
 _atom_site_type_symbol
 _atom_site_label
 _atom_site_symmetry_multiplicity
 _atom_site_fract_x
 _atom_site_fract_y
 _atom_site_fract_z
 _atom_site_occupancy
  Ni  Ni0  1  0.08382561  0.24950772  0.14406719  1.0
  Ni  Ni1  1  0.08382561  0.58284105  0.14406719  1.0
  Ni  Ni2  1  0.08382561  0.91617439  0.14406719  1.0
  Ni  Ni3  1  0.41715895  0.24950772  0.14406719  1.0
  Ni  Ni4  1  0.41715895  0.58284105  0.14406719  1.0
  Ni  Ni5  1  0.41715895  0.91617439  0.14406719  1.0
  Ni  Ni6  1  0.75049228  0.24950772  0.14406719  1.0
  Ni  Ni7  1  0.75049228  0.58284105  0.14406719  1.0
  Ni  Ni8  1  0.75049228  0.91617439  0.14406719  1.0
  Ni  Ni9  1  0.25216446  0.08116888  0.15243764  1.0
  Ni  Ni10  1  0.25216446  0.41450221  0.15243764  1.0
  Ni  Ni11  1  0.25216446  0.74783554  0.15243764  1.0
  Ni  Ni12  1  0.58549779  0.08116888  0.15243764  1.0
  Ni  Ni13  1  0.58549779  0.41450221  0.15243764  1.0
  Ni  Ni14  1  0.58549779  0.74783554  0.15243764  1.0
  Ni  Ni15  1  0.91883112  0.08116888  0.15243764  1.0
  Ni  Ni16  1  0.91883112  0.41450221  0.15243764  1.0
  Ni  Ni17  1  0.91883112  0.74783554  0.15243764  1.0
  Ni  Ni18  1  0.29833192  0.03500141  0.02040217  1.0
  Ni  Ni19  1  0.29833192  0.36833475  0.02040217  1.0
  Ni  Ni20  1  0.29833192  0.70166808  0.02040217  1.0
  Ni  Ni21  1  0.63166525  0.03500141  0.02040217  1.0
  Ni  Ni22  1  0.63166525  0.36833475  0.02040217  1.0
  Ni  Ni23  1  0.63166525  0.70166808  0.02040217  1.0
  Ni  Ni24  1  0.96499859  0.03500141  0.02040217  1.0
  Ni  Ni25  1  0.96499859  0.36833475  0.02040217  1.0
  Ni  Ni26  1  0.96499859  0.70166808  0.02040217  1.0
  Ni  Ni27  1  0.03501992  0.29831341  0.27163695  1.0
  Ni  Ni28  1  0.03501992  0.63164674  0.27163695  1.0
  Ni  Ni29  1  0.03501992  0.96498008  0.27163695  1.0
  Ni  Ni30  1  0.36835326  0.29831341  0.27163695  1.0
  Ni  Ni31  1  0.36835326  0.63164674  0.27163695  1.0
  Ni  Ni32  1  0.36835326  0.96498008  0.27163695  1.0
  Ni  Ni33  1  0.70168659  0.29831341  0.27163695  1.0
  Ni  Ni34  1  0.70168659  0.63164674  0.27163695  1.0
  Ni  Ni35  1  0.70168659  0.96498008  0.27163695  1.0
  Ni  Ni36  1  0.04064027  0.29269306  0.06247959  1.0
  Ni  Ni37  1  0.04064027  0.62602640  0.06247959  1.0
  Ni  Ni38  1  0.04064027  0.95935973  0.06247959  1.0
  Ni  Ni39  1  0.37397360  0.29269306  0.06247959  1.0
  Ni  Ni40  1  0.37397360  0.62602640  0.06247959  1.0
  Ni  Ni41  1  0.37397360  0.95935973  0.06247959  1.0
  Ni  Ni42  1  0.70730694  0.29269306  0.06247959  1.0
  Ni  Ni43  1  0.70730694  0.62602640  0.06247959  1.0
  Ni  Ni44  1  0.70730694  0.95935973  0.06247959  1.0
  Ni  Ni45  1  0.29452513  0.03880820  0.23171079  1.0
  Ni  Ni46  1  0.29452513  0.37214154  0.23171079  1.0
  Ni  Ni47  1  0.29452513  0.70547487  0.23171079  1.0
  Ni  Ni48  1  0.62785846  0.03880820  0.23171079  1.0
  Ni  Ni49  1  0.62785846  0.37214154  0.23171079  1.0
  Ni  Ni50  1  0.62785846  0.70547487  0.23171079  1.0
  Ni  Ni51  1  0.96119180  0.03880820  0.23171079  1.0
  Ni  Ni52  1  0.96119180  0.37214154  0.23171079  1.0
  Ni  Ni53  1  0.96119180  0.70547487  0.23171079  1.0
  Ni  Ni54  1  0.24512678  0.24596454  0.14542082  1.0
  Ni  Ni55  1  0.24512678  0.57929788  0.14542082  1.0
  Ni  Ni56  1  0.24512678  0.91263121  0.14542082  1.0
  Ni  Ni57  1  0.57846011  0.24596454  0.14542082  1.0
  Ni  Ni58  1  0.57846011  0.57929788  0.14542082  1.0
  Ni  Ni59  1  0.57846011  0.91263121  0.14542082  1.0
  Ni  Ni60  1  0.91179344  0.24596454  0.14542082  1.0
  Ni  Ni61  1  0.91179344  0.57929788  0.14542082  1.0
  Ni  Ni62  1  0.91179344  0.91263121  0.14542082  1.0
  Ni  Ni63  1  0.08736879  0.08820656  0.14542082  1.0
  Ni  Ni64  1  0.08736879  0.42153989  0.14542082  1.0
  Ni  Ni65  1  0.08736879  0.75487322  0.14542082  1.0
  Ni  Ni66  1  0.42070212  0.08820656  0.14542082  1.0
  Ni  Ni67  1  0.42070212  0.42153989  0.14542082  1.0
  Ni  Ni68  1  0.42070212  0.75487322  0.14542082  1.0
  Ni  Ni69  1  0.75403546  0.08820656  0.14542082  1.0
  Ni  Ni70  1  0.75403546  0.42153989  0.14542082  1.0
  Ni  Ni71  1  0.75403546  0.75487322  0.14542082  1.0
  Ni  Ni72  1  0.00000125  0.33333208  0.31316159  1.0
  Ni  Ni73  1  0.00000125  0.66666541  0.31316159  1.0
  Ni  Ni74  1  0.00000125  0.99999875  0.31316159  1.0
  Ni  Ni75  1  0.33333459  0.33333208  0.31316159  1.0
  Ni  Ni76  1  0.33333459  0.66666541  0.31316159  1.0
  Ni  Ni77  1  0.33333459  0.99999875  0.31316159  1.0
  Ni  Ni78  1  0.66666792  0.33333208  0.31316159  1.0
  Ni  Ni79  1  0.66666792  0.66666541  0.31316159  1.0
  Ni  Ni80  1  0.66666792  0.99999875  0.31316159  1.0
  Ni  Ni81  1  0.21014232  0.29275642  0.06342656  1.0
  Ni  Ni82  1  0.21014232  0.62608975  0.06342656  1.0
  Ni  Ni83  1  0.21014232  0.95942309  0.06342656  1.0
  Ni  Ni84  1  0.54347566  0.29275642  0.06342656  1.0
  Ni  Ni85  1  0.54347566  0.62608975  0.06342656  1.0
  Ni  Ni86  1  0.54347566  0.95942309  0.06342656  1.0
  Ni  Ni87  1  0.87680899  0.29275642  0.06342656  1.0
  Ni  Ni88  1  0.87680899  0.62608975  0.06342656  1.0
  Ni  Ni89  1  0.87680899  0.95942309  0.06342656  1.0
  Ni  Ni90  1  0.29426889  0.21150766  0.22997353  1.0
  Ni  Ni91  1  0.29426889  0.54484100  0.22997353  1.0
  Ni  Ni92  1  0.29426889  0.87817433  0.22997353  1.0
  Ni  Ni93  1  0.62760223  0.21150766  0.22997353  1.0
  Ni  Ni94  1  0.62760223  0.54484100  0.22997353  1.0
  Ni  Ni95  1  0.62760223  0.87817433  0.22997353  1.0
  Ni  Ni96  1  0.96093556  0.21150766  0.22997353  1.0
  Ni  Ni97  1  0.96093556  0.54484100  0.22997353  1.0
  Ni  Ni98  1  0.96093556  0.87817433  0.22997353  1.0
  Ni  Ni99  1  0.04057691  0.12319101  0.06342656  1.0
  Ni  Ni100  1  0.04057691  0.45652434  0.06342656  1.0
  Ni  Ni101  1  0.04057691  0.78985768  0.06342656  1.0
  Ni  Ni102  1  0.37391025  0.12319101  0.06342656  1.0
  Ni  Ni103  1  0.37391025  0.45652434  0.06342656  1.0
  Ni  Ni104  1  0.37391025  0.78985768  0.06342656  1.0
  Ni  Ni105  1  0.70724358  0.12319101  0.06342656  1.0
  Ni  Ni106  1  0.70724358  0.45652434  0.06342656  1.0
  Ni  Ni107  1  0.70724358  0.78985768  0.06342656  1.0
  Ni  Ni108  1  0.12182567  0.03906444  0.22997353  1.0
  Ni  Ni109  1  0.12182567  0.37239777  0.22997353  1.0
  Ni  Ni110  1  0.12182567  0.70573111  0.22997353  1.0
  Ni  Ni111  1  0.45515900  0.03906444  0.22997353  1.0
  Ni  Ni112  1  0.45515900  0.37239777  0.22997353  1.0
  Ni  Ni113  1  0.45515900  0.70573111  0.22997353  1.0
  Ni  Ni114  1  0.78849234  0.03906444  0.22997353  1.0
  Ni  Ni115  1  0.78849234  0.37239777  0.22997353  1.0
  Ni  Ni116  1  0.78849234  0.70573111  0.22997353  1.0
  Ni  Ni117  1  0.16688680  0.00027065  0.31295032  1.0
  Ni  Ni118  1  0.16688680  0.33360398  0.31295032  1.0
  Ni  Ni119  1  0.16688680  0.66693732  0.31295032  1.0
  Ni  Ni120  1  0.50022013  0.00027065  0.31295032  1.0
  Ni  Ni121  1  0.50022013  0.33360398  0.31295032  1.0
  Ni  Ni122  1  0.50022013  0.66693732  0.31295032  1.0
  Ni  Ni123  1  0.83355347  0.00027065  0.31295032  1.0
  Ni  Ni124  1  0.83355347  0.33360398  0.31295032  1.0
  Ni  Ni125  1  0.83355347  0.66693732  0.31295032  1.0
  Ni  Ni126  1  0.33306268  0.16644653  0.31295032  1.0
  Ni  Ni127  1  0.33306268  0.49977987  0.31295032  1.0
  Ni  Ni128  1  0.33306268  0.83311320  0.31295032  1.0
  Ni  Ni129  1  0.66639602  0.16644653  0.31295032  1.0
  Ni  Ni130  1  0.66639602  0.49977987  0.31295032  1.0
  Ni  Ni131  1  0.66639602  0.83311320  0.31295032  1.0
  Ni  Ni132  1  0.99972935  0.16644653  0.31295032  1.0
  Ni  Ni133  1  0.99972935  0.49977987  0.31295032  1.0
  Ni  Ni134  1  0.99972935  0.83311320  0.31295032  1.0
  Ni  Ni135  1  0.11830823  0.21502510  0.10577518  1.0
  Ni  Ni136  1  0.11830823  0.54835843  0.10577518  1.0
  Ni  Ni137  1  0.11830823  0.88169177  0.10577518  1.0
  Ni  Ni138  1  0.45164156  0.21502510  0.10577518  1.0
  Ni  Ni139  1  0.45164156  0.54835843  0.10577518  1.0
  Ni  Ni140  1  0.45164156  0.88169177  0.10577518  1.0
  Ni  Ni141  1  0.78497490  0.21502510  0.10577518  1.0
  Ni  Ni142  1  0.78497490  0.54835843  0.10577518  1.0
  Ni  Ni143  1  0.78497490  0.88169177  0.10577518  1.0
  Bi  Bi144  1  0.17798308  0.15535025  0.10352119  1.0
  Bi  Bi145  1  0.17798308  0.48868358  0.10352119  1.0
  Bi  Bi146  1  0.17798308  0.82201692  0.10352119  1.0
  Bi  Bi147  1  0.51131642  0.15535025  0.10352119  1.0
  Bi  Bi148  1  0.51131642  0.48868358  0.10352119  1.0
  Bi  Bi149  1  0.51131642  0.82201692  0.10352119  1.0
  Bi  Bi150  1  0.84464975  0.15535025  0.10352119  1.0
  Bi  Bi151  1  0.84464975  0.48868358  0.10352119  1.0
  Bi  Bi152  1  0.84464975  0.82201692  0.10352119  1.0
  Bi  Bi153  1  0.15968085  0.17365249  0.18967919  1.0
  Bi  Bi154  1  0.15968085  0.50698582  0.18967919  1.0
  Bi  Bi155  1  0.15968085  0.84031915  0.18967919  1.0
  Bi  Bi156  1  0.49301418  0.17365249  0.18967919  1.0
  Bi  Bi157  1  0.49301418  0.50698582  0.18967919  1.0
  Bi  Bi158  1  0.49301418  0.84031915  0.18967919  1.0
  Bi  Bi159  1  0.82634751  0.17365249  0.18967919  1.0
  Bi  Bi160  1  0.82634751  0.50698582  0.18967919  1.0
  Bi  Bi161  1  0.82634751  0.84031915  0.18967919  1.0
  Bi  Bi162  1  0.00759121  0.32574213  0.10581814  1.0
  Bi  Bi163  1  0.00759121  0.65907546  0.10581814  1.0
  Bi  Bi164  1  0.00759121  0.99240879  0.10581814  1.0
  Bi  Bi165  1  0.34092454  0.32574213  0.10581814  1.0
  Bi  Bi166  1  0.34092454  0.65907546  0.10581814  1.0
  Bi  Bi167  1  0.34092454  0.99240879  0.10581814  1.0
  Bi  Bi168  1  0.67425787  0.32574213  0.10581814  1.0
  Bi  Bi169  1  0.67425787  0.65907546  0.10581814  1.0
  Bi  Bi170  1  0.67425787  0.99240879  0.10581814  1.0
  Bi  Bi171  1  0.32634371  0.00698962  0.18609052  1.0
  Bi  Bi172  1  0.32634371  0.34032296  0.18609052  1.0
  Bi  Bi173  1  0.32634371  0.67365629  0.18609052  1.0
  Bi  Bi174  1  0.65967705  0.00698962  0.18609052  1.0
  Bi  Bi175  1  0.65967705  0.34032296  0.18609052  1.0
  Bi  Bi176  1  0.65967705  0.67365629  0.18609052  1.0
  Bi  Bi177  1  0.99301038  0.00698962  0.18609052  1.0
  Bi  Bi178  1  0.99301038  0.34032296  0.18609052  1.0
  Bi  Bi179  1  0.99301038  0.67365629  0.18609052  1.0
  Bi  Bi180  1  0.07648469  0.25684864  0.02096790  1.0
  Bi  Bi181  1  0.07648469  0.59018197  0.02096790  1.0
  Bi  Bi182  1  0.07648469  0.92351531  0.02096790  1.0
  Bi  Bi183  1  0.40981803  0.25684864  0.02096790  1.0
  Bi  Bi184  1  0.40981803  0.59018197  0.02096790  1.0
  Bi  Bi185  1  0.40981803  0.92351531  0.02096790  1.0
  Bi  Bi186  1  0.74315136  0.25684864  0.02096790  1.0
  Bi  Bi187  1  0.74315136  0.59018197  0.02096790  1.0
  Bi  Bi188  1  0.74315136  0.92351531  0.02096790  1.0
  Bi  Bi189  1  0.25606433  0.07726900  0.26937598  1.0
  Bi  Bi190  1  0.25606433  0.41060233  0.26937598  1.0
  Bi  Bi191  1  0.25606433  0.74393567  0.26937598  1.0
  Bi  Bi192  1  0.58939767  0.07726900  0.26937598  1.0
  Bi  Bi193  1  0.58939767  0.41060233  0.26937598  1.0
  Bi  Bi194  1  0.58939767  0.74393567  0.26937598  1.0
  Bi  Bi195  1  0.92273100  0.07726900  0.26937598  1.0
  Bi  Bi196  1  0.92273100  0.41060233  0.26937598  1.0
  Bi  Bi197  1  0.92273100  0.74393567  0.26937598  1.0
  Bi  Bi198  1  0.23759835  0.24760383  0.02012573  1.0
  Bi  Bi199  1  0.23759835  0.58093716  0.02012573  1.0
  Bi  Bi200  1  0.23759835  0.91427049  0.02012573  1.0
  Bi  Bi201  1  0.57093168  0.24760383  0.02012573  1.0
  Bi  Bi202  1  0.57093168  0.58093716  0.02012573  1.0
  Bi  Bi203  1  0.57093168  0.91427049  0.02012573  1.0
  Bi  Bi204  1  0.90426502  0.24760383  0.02012573  1.0
  Bi  Bi205  1  0.90426502  0.58093716  0.02012573  1.0
  Bi  Bi206  1  0.90426502  0.91427049  0.02012573  1.0
  Bi  Bi207  1  0.24699557  0.23880783  0.27103943  1.0
  Bi  Bi208  1  0.24699557  0.57214117  0.27103943  1.0
  Bi  Bi209  1  0.24699557  0.90547450  0.27103943  1.0
  Bi  Bi210  1  0.58032891  0.23880783  0.27103943  1.0
  Bi  Bi211  1  0.58032891  0.57214117  0.27103943  1.0
  Bi  Bi212  1  0.58032891  0.90547450  0.27103943  1.0
  Bi  Bi213  1  0.91366224  0.23880783  0.27103943  1.0
  Bi  Bi214  1  0.91366224  0.57214117  0.27103943  1.0
  Bi  Bi215  1  0.91366224  0.90547450  0.27103943  1.0
  Bi  Bi216  1  0.08572951  0.09573498  0.02012573  1.0
  Bi  Bi217  1  0.08572951  0.42906832  0.02012573  1.0
  Bi  Bi218  1  0.08572951  0.76240165  0.02012573  1.0
  Bi  Bi219  1  0.41906284  0.09573498  0.02012573  1.0
  Bi  Bi220  1  0.41906284  0.42906832  0.02012573  1.0
  Bi  Bi221  1  0.41906284  0.76240165  0.02012573  1.0
  Bi  Bi222  1  0.75239617  0.09573498  0.02012573  1.0
  Bi  Bi223  1  0.75239617  0.42906832  0.02012573  1.0
  Bi  Bi224  1  0.75239617  0.76240165  0.02012573  1.0
  Bi  Bi225  1  0.09452550  0.08633776  0.27103943  1.0
  Bi  Bi226  1  0.09452550  0.41967109  0.27103943  1.0
  Bi  Bi227  1  0.09452550  0.75300443  0.27103943  1.0
  Bi  Bi228  1  0.42785883  0.08633776  0.27103943  1.0
  Bi  Bi229  1  0.42785883  0.41967109  0.27103943  1.0
  Bi  Bi230  1  0.42785883  0.75300443  0.27103943  1.0
  Bi  Bi231  1  0.76119217  0.08633776  0.27103943  1.0
  Bi  Bi232  1  0.76119217  0.41967109  0.27103943  1.0
  Bi  Bi233  1  0.76119217  0.75300443  0.27103943  1.0
  Bi  Bi234  1  0.23764956  0.09568377  0.02038302  1.0
  Bi  Bi235  1  0.23764956  0.42901711  0.02038302  1.0
  Bi  Bi236  1  0.23764956  0.76235044  0.02038302  1.0
  Bi  Bi237  1  0.57098289  0.09568377  0.02038302  1.0
  Bi  Bi238  1  0.57098289  0.42901711  0.02038302  1.0
  Bi  Bi239  1  0.57098289  0.76235044  0.02038302  1.0
  Bi  Bi240  1  0.90431623  0.09568377  0.02038302  1.0
  Bi  Bi241  1  0.90431623  0.42901711  0.02038302  1.0
  Bi  Bi242  1  0.90431623  0.76235044  0.02038302  1.0
  Bi  Bi243  1  0.09542038  0.23791295  0.27091812  1.0
  Bi  Bi244  1  0.09542038  0.57124628  0.27091812  1.0
  Bi  Bi245  1  0.09542038  0.90457961  0.27091812  1.0
  Bi  Bi246  1  0.42875372  0.23791295  0.27091812  1.0
  Bi  Bi247  1  0.42875372  0.57124628  0.27091812  1.0
  Bi  Bi248  1  0.42875372  0.90457961  0.27091812  1.0
  Bi  Bi249  1  0.76208705  0.23791295  0.27091812  1.0
  Bi  Bi250  1  0.76208705  0.57124628  0.27091812  1.0
  Bi  Bi251  1  0.76208705  0.90457961  0.27091812  1.0
  Bi  Bi252  1  0.17741457  0.00412546  0.10263337  1.0
  Bi  Bi253  1  0.17741457  0.33745879  0.10263337  1.0
  Bi  Bi254  1  0.17741457  0.67079212  0.10263337  1.0
  Bi  Bi255  1  0.51074791  0.00412546  0.10263337  1.0
  Bi  Bi256  1  0.51074791  0.33745879  0.10263337  1.0
  Bi  Bi257  1  0.51074791  0.67079212  0.10263337  1.0
  Bi  Bi258  1  0.84408124  0.00412546  0.10263337  1.0
  Bi  Bi259  1  0.84408124  0.33745879  0.10263337  1.0
  Bi  Bi260  1  0.84408124  0.67079212  0.10263337  1.0
  Bi  Bi261  1  0.32922376  0.17588866  0.18835146  1.0
  Bi  Bi262  1  0.32922376  0.50922200  0.18835146  1.0
  Bi  Bi263  1  0.32922376  0.84255533  0.18835146  1.0
  Bi  Bi264  1  0.66255709  0.17588866  0.18835146  1.0
  Bi  Bi265  1  0.66255709  0.50922200  0.18835146  1.0
  Bi  Bi266  1  0.66255709  0.84255533  0.18835146  1.0
  Bi  Bi267  1  0.99589042  0.17588866  0.18835146  1.0
  Bi  Bi268  1  0.99589042  0.50922200  0.18835146  1.0
  Bi  Bi269  1  0.99589042  0.84255533  0.18835146  1.0
  Bi  Bi270  1  0.32920788  0.15591876  0.10263337  1.0
  Bi  Bi271  1  0.32920788  0.48925209  0.10263337  1.0
  Bi  Bi272  1  0.32920788  0.82258543  0.10263337  1.0
  Bi  Bi273  1  0.66254121  0.15591876  0.10263337  1.0
  Bi  Bi274  1  0.66254121  0.48925209  0.10263337  1.0
  Bi  Bi275  1  0.66254121  0.82258543  0.10263337  1.0
  Bi  Bi276  1  0.99587454  0.15591876  0.10263337  1.0
  Bi  Bi277  1  0.99587454  0.48925209  0.10263337  1.0
  Bi  Bi278  1  0.99587454  0.82258543  0.10263337  1.0
  Bi  Bi279  1  0.15744467  0.00410958  0.18835146  1.0
  Bi  Bi280  1  0.15744467  0.33744291  0.18835146  1.0
  Bi  Bi281  1  0.15744467  0.67077624  0.18835146  1.0
  Bi  Bi282  1  0.49077800  0.00410958  0.18835146  1.0
  Bi  Bi283  1  0.49077800  0.33744291  0.18835146  1.0
  Bi  Bi284  1  0.49077800  0.67077624  0.18835146  1.0
  Bi  Bi285  1  0.82411134  0.00410958  0.18835146  1.0
  Bi  Bi286  1  0.82411134  0.33744291  0.18835146  1.0
  Bi  Bi287  1  0.82411134  0.67077624  0.18835146  1.0
