# generated using pymatgen
data_NiGe2
_symmetry_space_group_name_H-M   'P 1'
_cell_length_a   18.53822805
_cell_length_b   17.40264900
_cell_length_c   30.89704675
_cell_angle_alpha   90.00000000
_cell_angle_beta   123.97750445
_cell_angle_gamma   90.00000000
_symmetry_Int_Tables_number   1
_chemical_formula_structural   NiGe2
_chemical_formula_sum   'Ni72 Ge144'
_cell_volume   8265.89204026
_cell_formula_units_Z   72
loop_
 _symmetry_equiv_pos_site_id
 _symmetry_equiv_pos_as_xyz
  1  'x, y, z'
loop_
 _atom_site_type_symbol
 _atom_site_label
 _atom_site_symmetry_multiplicity
 _atom_site_fract_x
 _atom_site_fract_y
 _atom_site_fract_z
 _atom_site_occupancy
  Ni  Ni0  1  0.03850300  0.00000000  0.16511610  1.0
  Ni  Ni1  1  0.03850300  0.33333333  0.16511610  1.0
  Ni  Ni2  1  0.03850300  0.66666667  0.16511610  1.0
  Ni  Ni3  1  0.37183633  0.00000000  0.16511610  1.0
  Ni  Ni4  1  0.37183633  0.33333333  0.16511610  1.0
  Ni  Ni5  1  0.37183633  0.66666667  0.16511610  1.0
  Ni  Ni6  1  0.70516967  0.00000000  0.16511610  1.0
  Ni  Ni7  1  0.70516967  0.33333333  0.16511610  1.0
  Ni  Ni8  1  0.70516967  0.66666667  0.16511610  1.0
  Ni  Ni9  1  0.12816367  0.16666667  0.11131970  1.0
  Ni  Ni10  1  0.12816367  0.50000000  0.11131970  1.0
  Ni  Ni11  1  0.12816367  0.83333333  0.11131970  1.0
  Ni  Ni12  1  0.46149700  0.16666667  0.11131970  1.0
  Ni  Ni13  1  0.46149700  0.50000000  0.11131970  1.0
  Ni  Ni14  1  0.46149700  0.83333333  0.11131970  1.0
  Ni  Ni15  1  0.79483033  0.16666667  0.11131970  1.0
  Ni  Ni16  1  0.79483033  0.50000000  0.11131970  1.0
  Ni  Ni17  1  0.79483033  0.83333333  0.11131970  1.0
  Ni  Ni18  1  0.29483033  0.00000000  0.01131970  1.0
  Ni  Ni19  1  0.29483033  0.33333333  0.01131970  1.0
  Ni  Ni20  1  0.29483033  0.66666667  0.01131970  1.0
  Ni  Ni21  1  0.62816367  0.00000000  0.01131970  1.0
  Ni  Ni22  1  0.62816367  0.33333333  0.01131970  1.0
  Ni  Ni23  1  0.62816367  0.66666667  0.01131970  1.0
  Ni  Ni24  1  0.96149700  0.00000000  0.01131970  1.0
  Ni  Ni25  1  0.96149700  0.33333333  0.01131970  1.0
  Ni  Ni26  1  0.96149700  0.66666667  0.01131970  1.0
  Ni  Ni27  1  0.20516967  0.16666667  0.06511610  1.0
  Ni  Ni28  1  0.20516967  0.50000000  0.06511610  1.0
  Ni  Ni29  1  0.20516967  0.83333333  0.06511610  1.0
  Ni  Ni30  1  0.53850300  0.16666667  0.06511610  1.0
  Ni  Ni31  1  0.53850300  0.50000000  0.06511610  1.0
  Ni  Ni32  1  0.53850300  0.83333333  0.06511610  1.0
  Ni  Ni33  1  0.87183633  0.16666667  0.06511610  1.0
  Ni  Ni34  1  0.87183633  0.50000000  0.06511610  1.0
  Ni  Ni35  1  0.87183633  0.83333333  0.06511610  1.0
  Ge  Ge36  1  0.05144333  0.21888967  0.01908390  1.0
  Ge  Ge37  1  0.05144333  0.55222300  0.01908390  1.0
  Ge  Ge38  1  0.05144333  0.88555633  0.01908390  1.0
  Ge  Ge39  1  0.38477667  0.21888967  0.01908390  1.0
  Ge  Ge40  1  0.38477667  0.55222300  0.01908390  1.0
  Ge  Ge41  1  0.38477667  0.88555633  0.01908390  1.0
  Ge  Ge42  1  0.71811000  0.21888967  0.01908390  1.0
  Ge  Ge43  1  0.71811000  0.55222300  0.01908390  1.0
  Ge  Ge44  1  0.71811000  0.88555633  0.01908390  1.0
  Ge  Ge45  1  0.11522333  0.05222300  0.05735190  1.0
  Ge  Ge46  1  0.11522333  0.38555633  0.05735190  1.0
  Ge  Ge47  1  0.11522333  0.71888967  0.05735190  1.0
  Ge  Ge48  1  0.44855667  0.05222300  0.05735190  1.0
  Ge  Ge49  1  0.44855667  0.38555633  0.05735190  1.0
  Ge  Ge50  1  0.44855667  0.71888967  0.05735190  1.0
  Ge  Ge51  1  0.78189000  0.05222300  0.05735190  1.0
  Ge  Ge52  1  0.78189000  0.38555633  0.05735190  1.0
  Ge  Ge53  1  0.78189000  0.71888967  0.05735190  1.0
  Ge  Ge54  1  0.21811000  0.28111033  0.11908390  1.0
  Ge  Ge55  1  0.21811000  0.61444367  0.11908390  1.0
  Ge  Ge56  1  0.21811000  0.94777700  0.11908390  1.0
  Ge  Ge57  1  0.55144333  0.28111033  0.11908390  1.0
  Ge  Ge58  1  0.55144333  0.61444367  0.11908390  1.0
  Ge  Ge59  1  0.55144333  0.94777700  0.11908390  1.0
  Ge  Ge60  1  0.88477667  0.28111033  0.11908390  1.0
  Ge  Ge61  1  0.88477667  0.61444367  0.11908390  1.0
  Ge  Ge62  1  0.88477667  0.94777700  0.11908390  1.0
  Ge  Ge63  1  0.28189000  0.11444367  0.15735190  1.0
  Ge  Ge64  1  0.28189000  0.44777700  0.15735190  1.0
  Ge  Ge65  1  0.28189000  0.78111033  0.15735190  1.0
  Ge  Ge66  1  0.61522333  0.11444367  0.15735190  1.0
  Ge  Ge67  1  0.61522333  0.44777700  0.15735190  1.0
  Ge  Ge68  1  0.61522333  0.78111033  0.15735190  1.0
  Ge  Ge69  1  0.94855667  0.11444367  0.15735190  1.0
  Ge  Ge70  1  0.94855667  0.44777700  0.15735190  1.0
  Ge  Ge71  1  0.94855667  0.78111033  0.15735190  1.0
  Ge  Ge72  1  0.16589600  0.25000000  0.18775550  1.0
  Ge  Ge73  1  0.16589600  0.58333333  0.18775550  1.0
  Ge  Ge74  1  0.16589600  0.91666667  0.18775550  1.0
  Ge  Ge75  1  0.49922933  0.25000000  0.18775550  1.0
  Ge  Ge76  1  0.49922933  0.58333333  0.18775550  1.0
  Ge  Ge77  1  0.49922933  0.91666667  0.18775550  1.0
  Ge  Ge78  1  0.83256267  0.25000000  0.18775550  1.0
  Ge  Ge79  1  0.83256267  0.58333333  0.18775550  1.0
  Ge  Ge80  1  0.83256267  0.91666667  0.18775550  1.0
  Ge  Ge81  1  0.00077067  0.08333333  0.08868030  1.0
  Ge  Ge82  1  0.00077067  0.41666667  0.08868030  1.0
  Ge  Ge83  1  0.00077067  0.75000000  0.08868030  1.0
  Ge  Ge84  1  0.33410400  0.08333333  0.08868030  1.0
  Ge  Ge85  1  0.33410400  0.41666667  0.08868030  1.0
  Ge  Ge86  1  0.33410400  0.75000000  0.08868030  1.0
  Ge  Ge87  1  0.66743733  0.08333333  0.08868030  1.0
  Ge  Ge88  1  0.66743733  0.41666667  0.08868030  1.0
  Ge  Ge89  1  0.66743733  0.75000000  0.08868030  1.0
  Ge  Ge90  1  0.16743733  0.08333333  0.18868030  1.0
  Ge  Ge91  1  0.16743733  0.41666667  0.18868030  1.0
  Ge  Ge92  1  0.16743733  0.75000000  0.18868030  1.0
  Ge  Ge93  1  0.50077067  0.08333333  0.18868030  1.0
  Ge  Ge94  1  0.50077067  0.41666667  0.18868030  1.0
  Ge  Ge95  1  0.50077067  0.75000000  0.18868030  1.0
  Ge  Ge96  1  0.83410400  0.08333333  0.18868030  1.0
  Ge  Ge97  1  0.83410400  0.41666667  0.18868030  1.0
  Ge  Ge98  1  0.83410400  0.75000000  0.18868030  1.0
  Ge  Ge99  1  0.33256267  0.25000000  0.08775550  1.0
  Ge  Ge100  1  0.33256267  0.58333333  0.08775550  1.0
  Ge  Ge101  1  0.33256267  0.91666667  0.08775550  1.0
  Ge  Ge102  1  0.66589600  0.25000000  0.08775550  1.0
  Ge  Ge103  1  0.66589600  0.58333333  0.08775550  1.0
  Ge  Ge104  1  0.66589600  0.91666667  0.08775550  1.0
  Ge  Ge105  1  0.99922933  0.25000000  0.08775550  1.0
  Ge  Ge106  1  0.99922933  0.58333333  0.08775550  1.0
  Ge  Ge107  1  0.99922933  0.91666667  0.08775550  1.0
  Ni  Ni108  1  0.03850300  0.00000000  0.36511610  1.0
  Ni  Ni109  1  0.03850300  0.33333333  0.36511610  1.0
  Ni  Ni110  1  0.03850300  0.66666667  0.36511610  1.0
  Ni  Ni111  1  0.37183633  0.00000000  0.36511610  1.0
  Ni  Ni112  1  0.37183633  0.33333333  0.36511610  1.0
  Ni  Ni113  1  0.37183633  0.66666667  0.36511610  1.0
  Ni  Ni114  1  0.70516967  0.00000000  0.36511610  1.0
  Ni  Ni115  1  0.70516967  0.33333333  0.36511610  1.0
  Ni  Ni116  1  0.70516967  0.66666667  0.36511610  1.0
  Ni  Ni117  1  0.12816367  0.16666667  0.31131970  1.0
  Ni  Ni118  1  0.12816367  0.50000000  0.31131970  1.0
  Ni  Ni119  1  0.12816367  0.83333333  0.31131970  1.0
  Ni  Ni120  1  0.46149700  0.16666667  0.31131970  1.0
  Ni  Ni121  1  0.46149700  0.50000000  0.31131970  1.0
  Ni  Ni122  1  0.46149700  0.83333333  0.31131970  1.0
  Ni  Ni123  1  0.79483033  0.16666667  0.31131970  1.0
  Ni  Ni124  1  0.79483033  0.50000000  0.31131970  1.0
  Ni  Ni125  1  0.79483033  0.83333333  0.31131970  1.0
  Ni  Ni126  1  0.29483033  0.00000000  0.21131970  1.0
  Ni  Ni127  1  0.29483033  0.33333333  0.21131970  1.0
  Ni  Ni128  1  0.29483033  0.66666667  0.21131970  1.0
  Ni  Ni129  1  0.62816367  0.00000000  0.21131970  1.0
  Ni  Ni130  1  0.62816367  0.33333333  0.21131970  1.0
  Ni  Ni131  1  0.62816367  0.66666667  0.21131970  1.0
  Ni  Ni132  1  0.96149700  0.00000000  0.21131970  1.0
  Ni  Ni133  1  0.96149700  0.33333333  0.21131970  1.0
  Ni  Ni134  1  0.96149700  0.66666667  0.21131970  1.0
  Ni  Ni135  1  0.20516967  0.16666667  0.26511610  1.0
  Ni  Ni136  1  0.20516967  0.50000000  0.26511610  1.0
  Ni  Ni137  1  0.20516967  0.83333333  0.26511610  1.0
  Ni  Ni138  1  0.53850300  0.16666667  0.26511610  1.0
  Ni  Ni139  1  0.53850300  0.50000000  0.26511610  1.0
  Ni  Ni140  1  0.53850300  0.83333333  0.26511610  1.0
  Ni  Ni141  1  0.87183633  0.16666667  0.26511610  1.0
  Ni  Ni142  1  0.87183633  0.50000000  0.26511610  1.0
  Ni  Ni143  1  0.87183633  0.83333333  0.26511610  1.0
  Ge  Ge144  1  0.05144333  0.21888967  0.21908390  1.0
  Ge  Ge145  1  0.05144333  0.55222300  0.21908390  1.0
  Ge  Ge146  1  0.05144333  0.88555633  0.21908390  1.0
  Ge  Ge147  1  0.38477667  0.21888967  0.21908390  1.0
  Ge  Ge148  1  0.38477667  0.55222300  0.21908390  1.0
  Ge  Ge149  1  0.38477667  0.88555633  0.21908390  1.0
  Ge  Ge150  1  0.71811000  0.21888967  0.21908390  1.0
  Ge  Ge151  1  0.71811000  0.55222300  0.21908390  1.0
  Ge  Ge152  1  0.71811000  0.88555633  0.21908390  1.0
  Ge  Ge153  1  0.11522333  0.05222300  0.25735190  1.0
  Ge  Ge154  1  0.11522333  0.38555633  0.25735190  1.0
  Ge  Ge155  1  0.11522333  0.71888967  0.25735190  1.0
  Ge  Ge156  1  0.44855667  0.05222300  0.25735190  1.0
  Ge  Ge157  1  0.44855667  0.38555633  0.25735190  1.0
  Ge  Ge158  1  0.44855667  0.71888967  0.25735190  1.0
  Ge  Ge159  1  0.78189000  0.05222300  0.25735190  1.0
  Ge  Ge160  1  0.78189000  0.38555633  0.25735190  1.0
  Ge  Ge161  1  0.78189000  0.71888967  0.25735190  1.0
  Ge  Ge162  1  0.21811000  0.28111033  0.31908390  1.0
  Ge  Ge163  1  0.21811000  0.61444367  0.31908390  1.0
  Ge  Ge164  1  0.21811000  0.94777700  0.31908390  1.0
  Ge  Ge165  1  0.55144333  0.28111033  0.31908390  1.0
  Ge  Ge166  1  0.55144333  0.61444367  0.31908390  1.0
  Ge  Ge167  1  0.55144333  0.94777700  0.31908390  1.0
  Ge  Ge168  1  0.88477667  0.28111033  0.31908390  1.0
  Ge  Ge169  1  0.88477667  0.61444367  0.31908390  1.0
  Ge  Ge170  1  0.88477667  0.94777700  0.31908390  1.0
  Ge  Ge171  1  0.28189000  0.11444367  0.35735190  1.0
  Ge  Ge172  1  0.28189000  0.44777700  0.35735190  1.0
  Ge  Ge173  1  0.28189000  0.78111033  0.35735190  1.0
  Ge  Ge174  1  0.61522333  0.11444367  0.35735190  1.0
  Ge  Ge175  1  0.61522333  0.44777700  0.35735190  1.0
  Ge  Ge176  1  0.61522333  0.78111033  0.35735190  1.0
  Ge  Ge177  1  0.94855667  0.11444367  0.35735190  1.0
  Ge  Ge178  1  0.94855667  0.44777700  0.35735190  1.0
  Ge  Ge179  1  0.94855667  0.78111033  0.35735190  1.0
  Ge  Ge180  1  0.16589600  0.25000000  0.38775550  1.0
  Ge  Ge181  1  0.16589600  0.58333333  0.38775550  1.0
  Ge  Ge182  1  0.16589600  0.91666667  0.38775550  1.0
  Ge  Ge183  1  0.49922933  0.25000000  0.38775550  1.0
  Ge  Ge184  1  0.49922933  0.58333333  0.38775550  1.0
  Ge  Ge185  1  0.49922933  0.91666667  0.38775550  1.0
  Ge  Ge186  1  0.83256267  0.25000000  0.38775550  1.0
  Ge  Ge187  1  0.83256267  0.58333333  0.38775550  1.0
  Ge  Ge188  1  0.83256267  0.91666667  0.38775550  1.0
  Ge  Ge189  1  0.00077067  0.08333333  0.28868030  1.0
  Ge  Ge190  1  0.00077067  0.41666667  0.28868030  1.0
  Ge  Ge191  1  0.00077067  0.75000000  0.28868030  1.0
  Ge  Ge192  1  0.33410400  0.08333333  0.28868030  1.0
  Ge  Ge193  1  0.33410400  0.41666667  0.28868030  1.0
  Ge  Ge194  1  0.33410400  0.75000000  0.28868030  1.0
  Ge  Ge195  1  0.66743733  0.08333333  0.28868030  1.0
  Ge  Ge196  1  0.66743733  0.41666667  0.28868030  1.0
  Ge  Ge197  1  0.66743733  0.75000000  0.28868030  1.0
  Ge  Ge198  1  0.16743733  0.08333333  0.38868030  1.0
  Ge  Ge199  1  0.16743733  0.41666667  0.38868030  1.0
  Ge  Ge200  1  0.16743733  0.75000000  0.38868030  1.0
  Ge  Ge201  1  0.50077067  0.08333333  0.38868030  1.0
  Ge  Ge202  1  0.50077067  0.41666667  0.38868030  1.0
  Ge  Ge203  1  0.50077067  0.75000000  0.38868030  1.0
  Ge  Ge204  1  0.83410400  0.08333333  0.38868030  1.0
  Ge  Ge205  1  0.83410400  0.41666667  0.38868030  1.0
  Ge  Ge206  1  0.83410400  0.75000000  0.38868030  1.0
  Ge  Ge207  1  0.33256267  0.25000000  0.28775550  1.0
  Ge  Ge208  1  0.33256267  0.58333333  0.28775550  1.0
  Ge  Ge209  1  0.33256267  0.91666667  0.28775550  1.0
  Ge  Ge210  1  0.66589600  0.25000000  0.28775550  1.0
  Ge  Ge211  1  0.66589600  0.58333333  0.28775550  1.0
  Ge  Ge212  1  0.66589600  0.91666667  0.28775550  1.0
  Ge  Ge213  1  0.99922933  0.25000000  0.28775550  1.0
  Ge  Ge214  1  0.99922933  0.58333333  0.28775550  1.0
  Ge  Ge215  1  0.99922933  0.91666667  0.28775550  1.0
