# generated using pymatgen
data_NiGe3
_symmetry_space_group_name_H-M   'P 1'
_cell_length_a   22.65170177
_cell_length_b   26.18772602
_cell_length_c   27.37338671
_cell_angle_alpha   90.91165686
_cell_angle_beta   97.68084700
_cell_angle_gamma   108.78847058
_symmetry_Int_Tables_number   1
_chemical_formula_structural   NiGe3
_chemical_formula_sum   'Ni90 Ge270'
_cell_volume   15204.51993439
_cell_formula_units_Z   90
loop_
 _symmetry_equiv_pos_site_id
 _symmetry_equiv_pos_as_xyz
  1  'x, y, z'
loop_
 _atom_site_type_symbol
 _atom_site_label
 _atom_site_symmetry_multiplicity
 _atom_site_fract_x
 _atom_site_fract_y
 _atom_site_fract_z
 _atom_site_occupancy
  Ge  Ge0  1  0.21794872  0.03846154  0.99519231  1.0
  Ge  Ge1  1  0.21794872  0.37179487  0.99519231  1.0
  Ge  Ge2  1  0.21794872  0.70512821  0.99519231  1.0
  Ge  Ge3  1  0.55128205  0.03846154  0.99519231  1.0
  Ge  Ge4  1  0.55128205  0.37179487  0.99519231  1.0
  Ge  Ge5  1  0.55128205  0.70512821  0.99519231  1.0
  Ge  Ge6  1  0.88461538  0.03846154  0.99519231  1.0
  Ge  Ge7  1  0.88461538  0.37179487  0.99519231  1.0
  Ge  Ge8  1  0.88461538  0.70512821  0.99519231  1.0
  Ge  Ge9  1  0.12820513  0.17948718  0.95673077  1.0
  Ge  Ge10  1  0.12820513  0.51282051  0.95673077  1.0
  Ge  Ge11  1  0.12820513  0.84615385  0.95673077  1.0
  Ge  Ge12  1  0.46153846  0.17948718  0.95673077  1.0
  Ge  Ge13  1  0.46153846  0.51282051  0.95673077  1.0
  Ge  Ge14  1  0.46153846  0.84615385  0.95673077  1.0
  Ge  Ge15  1  0.79487179  0.17948718  0.95673077  1.0
  Ge  Ge16  1  0.79487179  0.51282051  0.95673077  1.0
  Ge  Ge17  1  0.79487179  0.84615385  0.95673077  1.0
  Ge  Ge18  1  0.25000000  0.25000000  0.93750000  1.0
  Ge  Ge19  1  0.25000000  0.58333333  0.93750000  1.0
  Ge  Ge20  1  0.25000000  0.91666667  0.93750000  1.0
  Ge  Ge21  1  0.58333333  0.25000000  0.93750000  1.0
  Ge  Ge22  1  0.58333333  0.58333333  0.93750000  1.0
  Ge  Ge23  1  0.58333333  0.91666667  0.93750000  1.0
  Ge  Ge24  1  0.91666667  0.25000000  0.93750000  1.0
  Ge  Ge25  1  0.91666667  0.58333333  0.93750000  1.0
  Ge  Ge26  1  0.91666667  0.91666667  0.93750000  1.0
  Ge  Ge27  1  0.00641026  0.10897436  0.97596154  1.0
  Ge  Ge28  1  0.00641026  0.44230769  0.97596154  1.0
  Ge  Ge29  1  0.00641026  0.77564103  0.97596154  1.0
  Ge  Ge30  1  0.33974359  0.10897436  0.97596154  1.0
  Ge  Ge31  1  0.33974359  0.44230769  0.97596154  1.0
  Ge  Ge32  1  0.33974359  0.77564103  0.97596154  1.0
  Ge  Ge33  1  0.67307692  0.10897436  0.97596154  1.0
  Ge  Ge34  1  0.67307692  0.44230769  0.97596154  1.0
  Ge  Ge35  1  0.67307692  0.77564103  0.97596154  1.0
  Ge  Ge36  1  0.02243590  0.21474359  0.94711538  1.0
  Ge  Ge37  1  0.02243590  0.54807692  0.94711538  1.0
  Ge  Ge38  1  0.02243590  0.88141026  0.94711538  1.0
  Ge  Ge39  1  0.35576923  0.21474359  0.94711538  1.0
  Ge  Ge40  1  0.35576923  0.54807692  0.94711538  1.0
  Ge  Ge41  1  0.35576923  0.88141026  0.94711538  1.0
  Ge  Ge42  1  0.68910256  0.21474359  0.94711538  1.0
  Ge  Ge43  1  0.68910256  0.54807692  0.94711538  1.0
  Ge  Ge44  1  0.68910256  0.88141026  0.94711538  1.0
  Ge  Ge45  1  0.11217949  0.07371795  0.98557692  1.0
  Ge  Ge46  1  0.11217949  0.40705128  0.98557692  1.0
  Ge  Ge47  1  0.11217949  0.74038462  0.98557692  1.0
  Ge  Ge48  1  0.44551282  0.07371795  0.98557692  1.0
  Ge  Ge49  1  0.44551282  0.40705128  0.98557692  1.0
  Ge  Ge50  1  0.44551282  0.74038462  0.98557692  1.0
  Ge  Ge51  1  0.77884615  0.07371795  0.98557692  1.0
  Ge  Ge52  1  0.77884615  0.40705128  0.98557692  1.0
  Ge  Ge53  1  0.77884615  0.74038462  0.98557692  1.0
  Ge  Ge54  1  0.03846154  0.32051282  0.91826923  1.0
  Ge  Ge55  1  0.03846154  0.65384615  0.91826923  1.0
  Ge  Ge56  1  0.03846154  0.98717949  0.91826923  1.0
  Ge  Ge57  1  0.37179487  0.32051282  0.91826923  1.0
  Ge  Ge58  1  0.37179487  0.65384615  0.91826923  1.0
  Ge  Ge59  1  0.37179487  0.98717949  0.91826923  1.0
  Ge  Ge60  1  0.70512821  0.32051282  0.91826923  1.0
  Ge  Ge61  1  0.70512821  0.65384615  0.91826923  1.0
  Ge  Ge62  1  0.70512821  0.98717949  0.91826923  1.0
  Ge  Ge63  1  0.28205128  0.12820513  0.87980769  1.0
  Ge  Ge64  1  0.28205128  0.46153846  0.87980769  1.0
  Ge  Ge65  1  0.28205128  0.79487179  0.87980769  1.0
  Ge  Ge66  1  0.61538462  0.12820513  0.87980769  1.0
  Ge  Ge67  1  0.61538462  0.46153846  0.87980769  1.0
  Ge  Ge68  1  0.61538462  0.79487179  0.87980769  1.0
  Ge  Ge69  1  0.94871795  0.12820513  0.87980769  1.0
  Ge  Ge70  1  0.94871795  0.46153846  0.87980769  1.0
  Ge  Ge71  1  0.94871795  0.79487179  0.87980769  1.0
  Ge  Ge72  1  0.07051282  0.19871795  0.86057692  1.0
  Ge  Ge73  1  0.07051282  0.53205128  0.86057692  1.0
  Ge  Ge74  1  0.07051282  0.86538462  0.86057692  1.0
  Ge  Ge75  1  0.40384615  0.19871795  0.86057692  1.0
  Ge  Ge76  1  0.40384615  0.53205128  0.86057692  1.0
  Ge  Ge77  1  0.40384615  0.86538462  0.86057692  1.0
  Ge  Ge78  1  0.73717949  0.19871795  0.86057692  1.0
  Ge  Ge79  1  0.73717949  0.53205128  0.86057692  1.0
  Ge  Ge80  1  0.73717949  0.86538462  0.86057692  1.0
  Ge  Ge81  1  0.16025641  0.05769231  0.89903846  1.0
  Ge  Ge82  1  0.16025641  0.39102564  0.89903846  1.0
  Ge  Ge83  1  0.16025641  0.72435897  0.89903846  1.0
  Ge  Ge84  1  0.49358974  0.05769231  0.89903846  1.0
  Ge  Ge85  1  0.49358974  0.39102564  0.89903846  1.0
  Ge  Ge86  1  0.49358974  0.72435897  0.89903846  1.0
  Ge  Ge87  1  0.82692308  0.05769231  0.89903846  1.0
  Ge  Ge88  1  0.82692308  0.39102564  0.89903846  1.0
  Ge  Ge89  1  0.82692308  0.72435897  0.89903846  1.0
  Ge  Ge90  1  0.17628205  0.16346154  0.87019231  1.0
  Ge  Ge91  1  0.17628205  0.49679487  0.87019231  1.0
  Ge  Ge92  1  0.17628205  0.83012821  0.87019231  1.0
  Ge  Ge93  1  0.50961538  0.16346154  0.87019231  1.0
  Ge  Ge94  1  0.50961538  0.49679487  0.87019231  1.0
  Ge  Ge95  1  0.50961538  0.83012821  0.87019231  1.0
  Ge  Ge96  1  0.84294872  0.16346154  0.87019231  1.0
  Ge  Ge97  1  0.84294872  0.49679487  0.87019231  1.0
  Ge  Ge98  1  0.84294872  0.83012821  0.87019231  1.0
  Ge  Ge99  1  0.26602564  0.02243590  0.90865385  1.0
  Ge  Ge100  1  0.26602564  0.35576923  0.90865385  1.0
  Ge  Ge101  1  0.26602564  0.68910256  0.90865385  1.0
  Ge  Ge102  1  0.59935897  0.02243590  0.90865385  1.0
  Ge  Ge103  1  0.59935897  0.35576923  0.90865385  1.0
  Ge  Ge104  1  0.59935897  0.68910256  0.90865385  1.0
  Ge  Ge105  1  0.93269231  0.02243590  0.90865385  1.0
  Ge  Ge106  1  0.93269231  0.35576923  0.90865385  1.0
  Ge  Ge107  1  0.93269231  0.68910256  0.90865385  1.0
  Ge  Ge108  1  0.19230769  0.26923077  0.84134615  1.0
  Ge  Ge109  1  0.19230769  0.60256410  0.84134615  1.0
  Ge  Ge110  1  0.19230769  0.93589744  0.84134615  1.0
  Ge  Ge111  1  0.52564103  0.26923077  0.84134615  1.0
  Ge  Ge112  1  0.52564103  0.60256410  0.84134615  1.0
  Ge  Ge113  1  0.52564103  0.93589744  0.84134615  1.0
  Ge  Ge114  1  0.85897436  0.26923077  0.84134615  1.0
  Ge  Ge115  1  0.85897436  0.60256410  0.84134615  1.0
  Ge  Ge116  1  0.85897436  0.93589744  0.84134615  1.0
  Ge  Ge117  1  0.10256410  0.07692308  0.80288462  1.0
  Ge  Ge118  1  0.10256410  0.41025641  0.80288462  1.0
  Ge  Ge119  1  0.10256410  0.74358974  0.80288462  1.0
  Ge  Ge120  1  0.43589744  0.07692308  0.80288462  1.0
  Ge  Ge121  1  0.43589744  0.41025641  0.80288462  1.0
  Ge  Ge122  1  0.43589744  0.74358974  0.80288462  1.0
  Ge  Ge123  1  0.76923077  0.07692308  0.80288462  1.0
  Ge  Ge124  1  0.76923077  0.41025641  0.80288462  1.0
  Ge  Ge125  1  0.76923077  0.74358974  0.80288462  1.0
  Ge  Ge126  1  0.22435897  0.14743590  0.78365385  1.0
  Ge  Ge127  1  0.22435897  0.48076923  0.78365385  1.0
  Ge  Ge128  1  0.22435897  0.81410256  0.78365385  1.0
  Ge  Ge129  1  0.55769231  0.14743590  0.78365385  1.0
  Ge  Ge130  1  0.55769231  0.48076923  0.78365385  1.0
  Ge  Ge131  1  0.55769231  0.81410256  0.78365385  1.0
  Ge  Ge132  1  0.89102564  0.14743590  0.78365385  1.0
  Ge  Ge133  1  0.89102564  0.48076923  0.78365385  1.0
  Ge  Ge134  1  0.89102564  0.81410256  0.78365385  1.0
  Ge  Ge135  1  0.31410256  0.00641026  0.82211538  1.0
  Ge  Ge136  1  0.31410256  0.33974359  0.82211538  1.0
  Ge  Ge137  1  0.31410256  0.67307692  0.82211538  1.0
  Ge  Ge138  1  0.64743590  0.00641026  0.82211538  1.0
  Ge  Ge139  1  0.64743590  0.33974359  0.82211538  1.0
  Ge  Ge140  1  0.64743590  0.67307692  0.82211538  1.0
  Ge  Ge141  1  0.98076923  0.00641026  0.82211538  1.0
  Ge  Ge142  1  0.98076923  0.33974359  0.82211538  1.0
  Ge  Ge143  1  0.98076923  0.67307692  0.82211538  1.0
  Ge  Ge144  1  0.33012821  0.11217949  0.79326923  1.0
  Ge  Ge145  1  0.33012821  0.44551282  0.79326923  1.0
  Ge  Ge146  1  0.33012821  0.77884615  0.79326923  1.0
  Ge  Ge147  1  0.66346154  0.11217949  0.79326923  1.0
  Ge  Ge148  1  0.66346154  0.44551282  0.79326923  1.0
  Ge  Ge149  1  0.66346154  0.77884615  0.79326923  1.0
  Ge  Ge150  1  0.99679487  0.11217949  0.79326923  1.0
  Ge  Ge151  1  0.99679487  0.44551282  0.79326923  1.0
  Ge  Ge152  1  0.99679487  0.77884615  0.79326923  1.0
  Ge  Ge153  1  0.08653846  0.30448718  0.83173077  1.0
  Ge  Ge154  1  0.08653846  0.63782051  0.83173077  1.0
  Ge  Ge155  1  0.08653846  0.97115385  0.83173077  1.0
  Ge  Ge156  1  0.41987179  0.30448718  0.83173077  1.0
  Ge  Ge157  1  0.41987179  0.63782051  0.83173077  1.0
  Ge  Ge158  1  0.41987179  0.97115385  0.83173077  1.0
  Ge  Ge159  1  0.75320513  0.30448718  0.83173077  1.0
  Ge  Ge160  1  0.75320513  0.63782051  0.83173077  1.0
  Ge  Ge161  1  0.75320513  0.97115385  0.83173077  1.0
  Ge  Ge162  1  0.01282051  0.21794872  0.76442308  1.0
  Ge  Ge163  1  0.01282051  0.55128205  0.76442308  1.0
  Ge  Ge164  1  0.01282051  0.88461538  0.76442308  1.0
  Ge  Ge165  1  0.34615385  0.21794872  0.76442308  1.0
  Ge  Ge166  1  0.34615385  0.55128205  0.76442308  1.0
  Ge  Ge167  1  0.34615385  0.88461538  0.76442308  1.0
  Ge  Ge168  1  0.67948718  0.21794872  0.76442308  1.0
  Ge  Ge169  1  0.67948718  0.55128205  0.76442308  1.0
  Ge  Ge170  1  0.67948718  0.88461538  0.76442308  1.0
  Ge  Ge171  1  0.25641026  0.02564103  0.72596154  1.0
  Ge  Ge172  1  0.25641026  0.35897436  0.72596154  1.0
  Ge  Ge173  1  0.25641026  0.69230769  0.72596154  1.0
  Ge  Ge174  1  0.58974359  0.02564103  0.72596154  1.0
  Ge  Ge175  1  0.58974359  0.35897436  0.72596154  1.0
  Ge  Ge176  1  0.58974359  0.69230769  0.72596154  1.0
  Ge  Ge177  1  0.92307692  0.02564103  0.72596154  1.0
  Ge  Ge178  1  0.92307692  0.35897436  0.72596154  1.0
  Ge  Ge179  1  0.92307692  0.69230769  0.72596154  1.0
  Ge  Ge180  1  0.04487179  0.09615385  0.70673077  1.0
  Ge  Ge181  1  0.04487179  0.42948718  0.70673077  1.0
  Ge  Ge182  1  0.04487179  0.76282051  0.70673077  1.0
  Ge  Ge183  1  0.37820513  0.09615385  0.70673077  1.0
  Ge  Ge184  1  0.37820513  0.42948718  0.70673077  1.0
  Ge  Ge185  1  0.37820513  0.76282051  0.70673077  1.0
  Ge  Ge186  1  0.71153846  0.09615385  0.70673077  1.0
  Ge  Ge187  1  0.71153846  0.42948718  0.70673077  1.0
  Ge  Ge188  1  0.71153846  0.76282051  0.70673077  1.0
  Ge  Ge189  1  0.13461538  0.28846154  0.74519231  1.0
  Ge  Ge190  1  0.13461538  0.62179487  0.74519231  1.0
  Ge  Ge191  1  0.13461538  0.95512821  0.74519231  1.0
  Ge  Ge192  1  0.46794872  0.28846154  0.74519231  1.0
  Ge  Ge193  1  0.46794872  0.62179487  0.74519231  1.0
  Ge  Ge194  1  0.46794872  0.95512821  0.74519231  1.0
  Ge  Ge195  1  0.80128205  0.28846154  0.74519231  1.0
  Ge  Ge196  1  0.80128205  0.62179487  0.74519231  1.0
  Ge  Ge197  1  0.80128205  0.95512821  0.74519231  1.0
  Ge  Ge198  1  0.15064103  0.06089744  0.71634615  1.0
  Ge  Ge199  1  0.15064103  0.39423077  0.71634615  1.0
  Ge  Ge200  1  0.15064103  0.72756410  0.71634615  1.0
  Ge  Ge201  1  0.48397436  0.06089744  0.71634615  1.0
  Ge  Ge202  1  0.48397436  0.39423077  0.71634615  1.0
  Ge  Ge203  1  0.48397436  0.72756410  0.71634615  1.0
  Ge  Ge204  1  0.81730769  0.06089744  0.71634615  1.0
  Ge  Ge205  1  0.81730769  0.39423077  0.71634615  1.0
  Ge  Ge206  1  0.81730769  0.72756410  0.71634615  1.0
  Ge  Ge207  1  0.24038462  0.25320513  0.75480769  1.0
  Ge  Ge208  1  0.24038462  0.58653846  0.75480769  1.0
  Ge  Ge209  1  0.24038462  0.91987179  0.75480769  1.0
  Ge  Ge210  1  0.57371795  0.25320513  0.75480769  1.0
  Ge  Ge211  1  0.57371795  0.58653846  0.75480769  1.0
  Ge  Ge212  1  0.57371795  0.91987179  0.75480769  1.0
  Ge  Ge213  1  0.90705128  0.25320513  0.75480769  1.0
  Ge  Ge214  1  0.90705128  0.58653846  0.75480769  1.0
  Ge  Ge215  1  0.90705128  0.91987179  0.75480769  1.0
  Ge  Ge216  1  0.16666667  0.16666667  0.68750000  1.0
  Ge  Ge217  1  0.16666667  0.50000000  0.68750000  1.0
  Ge  Ge218  1  0.16666667  0.83333333  0.68750000  1.0
  Ge  Ge219  1  0.50000000  0.16666667  0.68750000  1.0
  Ge  Ge220  1  0.50000000  0.50000000  0.68750000  1.0
  Ge  Ge221  1  0.50000000  0.83333333  0.68750000  1.0
  Ge  Ge222  1  0.83333333  0.16666667  0.68750000  1.0
  Ge  Ge223  1  0.83333333  0.50000000  0.68750000  1.0
  Ge  Ge224  1  0.83333333  0.83333333  0.68750000  1.0
  Ge  Ge225  1  0.07692308  0.30769231  0.64903846  1.0
  Ge  Ge226  1  0.07692308  0.64102564  0.64903846  1.0
  Ge  Ge227  1  0.07692308  0.97435897  0.64903846  1.0
  Ge  Ge228  1  0.41025641  0.30769231  0.64903846  1.0
  Ge  Ge229  1  0.41025641  0.64102564  0.64903846  1.0
  Ge  Ge230  1  0.41025641  0.97435897  0.64903846  1.0
  Ge  Ge231  1  0.74358974  0.30769231  0.64903846  1.0
  Ge  Ge232  1  0.74358974  0.64102564  0.64903846  1.0
  Ge  Ge233  1  0.74358974  0.97435897  0.64903846  1.0
  Ge  Ge234  1  0.19871795  0.04487179  0.62980769  1.0
  Ge  Ge235  1  0.19871795  0.37820513  0.62980769  1.0
  Ge  Ge236  1  0.19871795  0.71153846  0.62980769  1.0
  Ge  Ge237  1  0.53205128  0.04487179  0.62980769  1.0
  Ge  Ge238  1  0.53205128  0.37820513  0.62980769  1.0
  Ge  Ge239  1  0.53205128  0.71153846  0.62980769  1.0
  Ge  Ge240  1  0.86538462  0.04487179  0.62980769  1.0
  Ge  Ge241  1  0.86538462  0.37820513  0.62980769  1.0
  Ge  Ge242  1  0.86538462  0.71153846  0.62980769  1.0
  Ge  Ge243  1  0.28846154  0.23717949  0.66826923  1.0
  Ge  Ge244  1  0.28846154  0.57051282  0.66826923  1.0
  Ge  Ge245  1  0.28846154  0.90384615  0.66826923  1.0
  Ge  Ge246  1  0.62179487  0.23717949  0.66826923  1.0
  Ge  Ge247  1  0.62179487  0.57051282  0.66826923  1.0
  Ge  Ge248  1  0.62179487  0.90384615  0.66826923  1.0
  Ge  Ge249  1  0.95512821  0.23717949  0.66826923  1.0
  Ge  Ge250  1  0.95512821  0.57051282  0.66826923  1.0
  Ge  Ge251  1  0.95512821  0.90384615  0.66826923  1.0
  Ge  Ge252  1  0.30448718  0.00961538  0.63942308  1.0
  Ge  Ge253  1  0.30448718  0.34294872  0.63942308  1.0
  Ge  Ge254  1  0.30448718  0.67628205  0.63942308  1.0
  Ge  Ge255  1  0.63782051  0.00961538  0.63942308  1.0
  Ge  Ge256  1  0.63782051  0.34294872  0.63942308  1.0
  Ge  Ge257  1  0.63782051  0.67628205  0.63942308  1.0
  Ge  Ge258  1  0.97115385  0.00961538  0.63942308  1.0
  Ge  Ge259  1  0.97115385  0.34294872  0.63942308  1.0
  Ge  Ge260  1  0.97115385  0.67628205  0.63942308  1.0
  Ge  Ge261  1  0.06089744  0.20192308  0.67788462  1.0
  Ge  Ge262  1  0.06089744  0.53525641  0.67788462  1.0
  Ge  Ge263  1  0.06089744  0.86858974  0.67788462  1.0
  Ge  Ge264  1  0.39423077  0.20192308  0.67788462  1.0
  Ge  Ge265  1  0.39423077  0.53525641  0.67788462  1.0
  Ge  Ge266  1  0.39423077  0.86858974  0.67788462  1.0
  Ge  Ge267  1  0.72756410  0.20192308  0.67788462  1.0
  Ge  Ge268  1  0.72756410  0.53525641  0.67788462  1.0
  Ge  Ge269  1  0.72756410  0.86858974  0.67788462  1.0
  Ni  Ni270  1  0.14423077  0.28525641  0.92788462  1.0
  Ni  Ni271  1  0.14423077  0.61858974  0.92788462  1.0
  Ni  Ni272  1  0.14423077  0.95192308  0.92788462  1.0
  Ni  Ni273  1  0.47756410  0.28525641  0.92788462  1.0
  Ni  Ni274  1  0.47756410  0.61858974  0.92788462  1.0
  Ni  Ni275  1  0.47756410  0.95192308  0.92788462  1.0
  Ni  Ni276  1  0.81089744  0.28525641  0.92788462  1.0
  Ni  Ni277  1  0.81089744  0.61858974  0.92788462  1.0
  Ni  Ni278  1  0.81089744  0.95192308  0.92788462  1.0
  Ni  Ni279  1  0.23397436  0.14423077  0.96634615  1.0
  Ni  Ni280  1  0.23397436  0.47756410  0.96634615  1.0
  Ni  Ni281  1  0.23397436  0.81089744  0.96634615  1.0
  Ni  Ni282  1  0.56730769  0.14423077  0.96634615  1.0
  Ni  Ni283  1  0.56730769  0.47756410  0.96634615  1.0
  Ni  Ni284  1  0.56730769  0.81089744  0.96634615  1.0
  Ni  Ni285  1  0.90064103  0.14423077  0.96634615  1.0
  Ni  Ni286  1  0.90064103  0.47756410  0.96634615  1.0
  Ni  Ni287  1  0.90064103  0.81089744  0.96634615  1.0
  Ni  Ni288  1  0.29807692  0.23397436  0.85096154  1.0
  Ni  Ni289  1  0.29807692  0.56730769  0.85096154  1.0
  Ni  Ni290  1  0.29807692  0.90064103  0.85096154  1.0
  Ni  Ni291  1  0.63141026  0.23397436  0.85096154  1.0
  Ni  Ni292  1  0.63141026  0.56730769  0.85096154  1.0
  Ni  Ni293  1  0.63141026  0.90064103  0.85096154  1.0
  Ni  Ni294  1  0.96474359  0.23397436  0.85096154  1.0
  Ni  Ni295  1  0.96474359  0.56730769  0.85096154  1.0
  Ni  Ni296  1  0.96474359  0.90064103  0.85096154  1.0
  Ni  Ni297  1  0.05448718  0.09294872  0.88942308  1.0
  Ni  Ni298  1  0.05448718  0.42628205  0.88942308  1.0
  Ni  Ni299  1  0.05448718  0.75961538  0.88942308  1.0
  Ni  Ni300  1  0.38782051  0.09294872  0.88942308  1.0
  Ni  Ni301  1  0.38782051  0.42628205  0.88942308  1.0
  Ni  Ni302  1  0.38782051  0.75961538  0.88942308  1.0
  Ni  Ni303  1  0.72115385  0.09294872  0.88942308  1.0
  Ni  Ni304  1  0.72115385  0.42628205  0.88942308  1.0
  Ni  Ni305  1  0.72115385  0.75961538  0.88942308  1.0
  Ni  Ni306  1  0.11858974  0.18269231  0.77403846  1.0
  Ni  Ni307  1  0.11858974  0.51602564  0.77403846  1.0
  Ni  Ni308  1  0.11858974  0.84935897  0.77403846  1.0
  Ni  Ni309  1  0.45192308  0.18269231  0.77403846  1.0
  Ni  Ni310  1  0.45192308  0.51602564  0.77403846  1.0
  Ni  Ni311  1  0.45192308  0.84935897  0.77403846  1.0
  Ni  Ni312  1  0.78525641  0.18269231  0.77403846  1.0
  Ni  Ni313  1  0.78525641  0.51602564  0.77403846  1.0
  Ni  Ni314  1  0.78525641  0.84935897  0.77403846  1.0
  Ni  Ni315  1  0.20833333  0.04166667  0.81250000  1.0
  Ni  Ni316  1  0.20833333  0.37500000  0.81250000  1.0
  Ni  Ni317  1  0.20833333  0.70833333  0.81250000  1.0
  Ni  Ni318  1  0.54166667  0.04166667  0.81250000  1.0
  Ni  Ni319  1  0.54166667  0.37500000  0.81250000  1.0
  Ni  Ni320  1  0.54166667  0.70833333  0.81250000  1.0
  Ni  Ni321  1  0.87500000  0.04166667  0.81250000  1.0
  Ni  Ni322  1  0.87500000  0.37500000  0.81250000  1.0
  Ni  Ni323  1  0.87500000  0.70833333  0.81250000  1.0
  Ni  Ni324  1  0.27243590  0.13141026  0.69711538  1.0
  Ni  Ni325  1  0.27243590  0.46474359  0.69711538  1.0
  Ni  Ni326  1  0.27243590  0.79807692  0.69711538  1.0
  Ni  Ni327  1  0.60576923  0.13141026  0.69711538  1.0
  Ni  Ni328  1  0.60576923  0.46474359  0.69711538  1.0
  Ni  Ni329  1  0.60576923  0.79807692  0.69711538  1.0
  Ni  Ni330  1  0.93910256  0.13141026  0.69711538  1.0
  Ni  Ni331  1  0.93910256  0.46474359  0.69711538  1.0
  Ni  Ni332  1  0.93910256  0.79807692  0.69711538  1.0
  Ni  Ni333  1  0.02884615  0.32371795  0.73557692  1.0
  Ni  Ni334  1  0.02884615  0.65705128  0.73557692  1.0
  Ni  Ni335  1  0.02884615  0.99038462  0.73557692  1.0
  Ni  Ni336  1  0.36217949  0.32371795  0.73557692  1.0
  Ni  Ni337  1  0.36217949  0.65705128  0.73557692  1.0
  Ni  Ni338  1  0.36217949  0.99038462  0.73557692  1.0
  Ni  Ni339  1  0.69551282  0.32371795  0.73557692  1.0
  Ni  Ni340  1  0.69551282  0.65705128  0.73557692  1.0
  Ni  Ni341  1  0.69551282  0.99038462  0.73557692  1.0
  Ni  Ni342  1  0.09294872  0.08012821  0.62019231  1.0
  Ni  Ni343  1  0.09294872  0.41346154  0.62019231  1.0
  Ni  Ni344  1  0.09294872  0.74679487  0.62019231  1.0
  Ni  Ni345  1  0.42628205  0.08012821  0.62019231  1.0
  Ni  Ni346  1  0.42628205  0.41346154  0.62019231  1.0
  Ni  Ni347  1  0.42628205  0.74679487  0.62019231  1.0
  Ni  Ni348  1  0.75961538  0.08012821  0.62019231  1.0
  Ni  Ni349  1  0.75961538  0.41346154  0.62019231  1.0
  Ni  Ni350  1  0.75961538  0.74679487  0.62019231  1.0
  Ni  Ni351  1  0.18269231  0.27243590  0.65865385  1.0
  Ni  Ni352  1  0.18269231  0.60576923  0.65865385  1.0
  Ni  Ni353  1  0.18269231  0.93910256  0.65865385  1.0
  Ni  Ni354  1  0.51602564  0.27243590  0.65865385  1.0
  Ni  Ni355  1  0.51602564  0.60576923  0.65865385  1.0
  Ni  Ni356  1  0.51602564  0.93910256  0.65865385  1.0
  Ni  Ni357  1  0.84935897  0.27243590  0.65865385  1.0
  Ni  Ni358  1  0.84935897  0.60576923  0.65865385  1.0
  Ni  Ni359  1  0.84935897  0.93910256  0.65865385  1.0
