# generated using pymatgen
data_NiGe2
_symmetry_space_group_name_H-M   'P 1'
_cell_length_a   18.53822805
_cell_length_b   39.43443505
_cell_length_c   43.25586545
_cell_angle_alpha   118.04095278
_cell_angle_beta   123.97750445
_cell_angle_gamma   74.76818637
_symmetry_Int_Tables_number   1
_chemical_formula_structural   NiGe2
_chemical_formula_sum   'Ni216 Ge432'
_cell_volume   23144.49771273
_cell_formula_units_Z   216
loop_
 _symmetry_equiv_pos_site_id
 _symmetry_equiv_pos_as_xyz
  1  'x, y, z'
loop_
 _atom_site_type_symbol
 _atom_site_label
 _atom_site_symmetry_multiplicity
 _atom_site_fract_x
 _atom_site_fract_y
 _atom_site_fract_z
 _atom_site_occupancy
  Ni  Ni0  1  0.03850300  0.33333333  0.11968936  1.0
  Ni  Ni1  1  0.03850300  0.66666667  0.11968936  1.0
  Ni  Ni2  1  0.03850300  1.00000000  0.11968936  1.0
  Ni  Ni3  1  0.37183633  0.33333333  0.11968936  1.0
  Ni  Ni4  1  0.37183633  0.66666667  0.11968936  1.0
  Ni  Ni5  1  0.37183633  1.00000000  0.11968936  1.0
  Ni  Ni6  1  0.70516967  0.33333333  0.11968936  1.0
  Ni  Ni7  1  0.70516967  0.66666667  0.11968936  1.0
  Ni  Ni8  1  0.70516967  1.00000000  0.11968936  1.0
  Ni  Ni9  1  0.03850300  0.16666667  0.04826079  1.0
  Ni  Ni10  1  0.03850300  0.50000000  0.04826079  1.0
  Ni  Ni11  1  0.03850300  0.83333333  0.04826079  1.0
  Ni  Ni12  1  0.37183633  0.16666667  0.04826079  1.0
  Ni  Ni13  1  0.37183633  0.50000000  0.04826079  1.0
  Ni  Ni14  1  0.37183633  0.83333333  0.04826079  1.0
  Ni  Ni15  1  0.70516967  0.16666667  0.04826079  1.0
  Ni  Ni16  1  0.70516967  0.50000000  0.04826079  1.0
  Ni  Ni17  1  0.70516967  0.83333333  0.04826079  1.0
  Ni  Ni18  1  0.12816367  0.08333333  0.11697764  1.0
  Ni  Ni19  1  0.12816367  0.41666667  0.11697764  1.0
  Ni  Ni20  1  0.12816367  0.75000000  0.11697764  1.0
  Ni  Ni21  1  0.46149700  0.08333333  0.11697764  1.0
  Ni  Ni22  1  0.46149700  0.41666667  0.11697764  1.0
  Ni  Ni23  1  0.46149700  0.75000000  0.11697764  1.0
  Ni  Ni24  1  0.79483033  0.08333333  0.11697764  1.0
  Ni  Ni25  1  0.79483033  0.41666667  0.11697764  1.0
  Ni  Ni26  1  0.79483033  0.75000000  0.11697764  1.0
  Ni  Ni27  1  0.12816367  0.25000000  0.04554907  1.0
  Ni  Ni28  1  0.12816367  0.58333333  0.04554907  1.0
  Ni  Ni29  1  0.12816367  0.91666667  0.04554907  1.0
  Ni  Ni30  1  0.46149700  0.25000000  0.04554907  1.0
  Ni  Ni31  1  0.46149700  0.58333333  0.04554907  1.0
  Ni  Ni32  1  0.46149700  0.91666667  0.04554907  1.0
  Ni  Ni33  1  0.79483033  0.25000000  0.04554907  1.0
  Ni  Ni34  1  0.79483033  0.58333333  0.04554907  1.0
  Ni  Ni35  1  0.79483033  0.91666667  0.04554907  1.0
  Ni  Ni36  1  0.29483033  0.00000000  0.00983479  1.0
  Ni  Ni37  1  0.29483033  0.33333333  0.00983479  1.0
  Ni  Ni38  1  0.29483033  0.66666667  0.00983479  1.0
  Ni  Ni39  1  0.62816367  0.00000000  0.00983479  1.0
  Ni  Ni40  1  0.62816367  0.33333333  0.00983479  1.0
  Ni  Ni41  1  0.62816367  0.66666667  0.00983479  1.0
  Ni  Ni42  1  0.96149700  0.00000000  0.00983479  1.0
  Ni  Ni43  1  0.96149700  0.33333333  0.00983479  1.0
  Ni  Ni44  1  0.96149700  0.66666667  0.00983479  1.0
  Ni  Ni45  1  0.29483033  0.16666667  0.08126336  1.0
  Ni  Ni46  1  0.29483033  0.50000000  0.08126336  1.0
  Ni  Ni47  1  0.29483033  0.83333333  0.08126336  1.0
  Ni  Ni48  1  0.62816367  0.16666667  0.08126336  1.0
  Ni  Ni49  1  0.62816367  0.50000000  0.08126336  1.0
  Ni  Ni50  1  0.62816367  0.83333333  0.08126336  1.0
  Ni  Ni51  1  0.96149700  0.16666667  0.08126336  1.0
  Ni  Ni52  1  0.96149700  0.50000000  0.08126336  1.0
  Ni  Ni53  1  0.96149700  0.83333333  0.08126336  1.0
  Ni  Ni54  1  0.20516967  0.08333333  0.08397507  1.0
  Ni  Ni55  1  0.20516967  0.41666667  0.08397507  1.0
  Ni  Ni56  1  0.20516967  0.75000000  0.08397507  1.0
  Ni  Ni57  1  0.53850300  0.08333333  0.08397507  1.0
  Ni  Ni58  1  0.53850300  0.41666667  0.08397507  1.0
  Ni  Ni59  1  0.53850300  0.75000000  0.08397507  1.0
  Ni  Ni60  1  0.87183633  0.08333333  0.08397507  1.0
  Ni  Ni61  1  0.87183633  0.41666667  0.08397507  1.0
  Ni  Ni62  1  0.87183633  0.75000000  0.08397507  1.0
  Ni  Ni63  1  0.20516967  0.25000000  0.01254650  1.0
  Ni  Ni64  1  0.20516967  0.58333333  0.01254650  1.0
  Ni  Ni65  1  0.20516967  0.91666667  0.01254650  1.0
  Ni  Ni66  1  0.53850300  0.25000000  0.01254650  1.0
  Ni  Ni67  1  0.53850300  0.58333333  0.01254650  1.0
  Ni  Ni68  1  0.53850300  0.91666667  0.01254650  1.0
  Ni  Ni69  1  0.87183633  0.25000000  0.01254650  1.0
  Ni  Ni70  1  0.87183633  0.58333333  0.01254650  1.0
  Ni  Ni71  1  0.87183633  0.91666667  0.01254650  1.0
  Ge  Ge72  1  0.05144333  0.10944483  0.06228557  1.0
  Ge  Ge73  1  0.05144333  0.44277817  0.06228557  1.0
  Ge  Ge74  1  0.05144333  0.77611150  0.06228557  1.0
  Ge  Ge75  1  0.38477667  0.10944483  0.06228557  1.0
  Ge  Ge76  1  0.38477667  0.44277817  0.06228557  1.0
  Ge  Ge77  1  0.38477667  0.77611150  0.06228557  1.0
  Ge  Ge78  1  0.71811000  0.10944483  0.06228557  1.0
  Ge  Ge79  1  0.71811000  0.44277817  0.06228557  1.0
  Ge  Ge80  1  0.71811000  0.77611150  0.06228557  1.0
  Ge  Ge81  1  0.05144333  0.27611150  0.13371414  1.0
  Ge  Ge82  1  0.05144333  0.60944483  0.13371414  1.0
  Ge  Ge83  1  0.05144333  0.94277817  0.13371414  1.0
  Ge  Ge84  1  0.38477667  0.27611150  0.13371414  1.0
  Ge  Ge85  1  0.38477667  0.60944483  0.13371414  1.0
  Ge  Ge86  1  0.38477667  0.94277817  0.13371414  1.0
  Ge  Ge87  1  0.71811000  0.27611150  0.13371414  1.0
  Ge  Ge88  1  0.71811000  0.60944483  0.13371414  1.0
  Ge  Ge89  1  0.71811000  0.94277817  0.13371414  1.0
  Ge  Ge90  1  0.11522333  0.02611150  0.05390557  1.0
  Ge  Ge91  1  0.11522333  0.35944483  0.05390557  1.0
  Ge  Ge92  1  0.11522333  0.69277817  0.05390557  1.0
  Ge  Ge93  1  0.44855667  0.02611150  0.05390557  1.0
  Ge  Ge94  1  0.44855667  0.35944483  0.05390557  1.0
  Ge  Ge95  1  0.44855667  0.69277817  0.05390557  1.0
  Ge  Ge96  1  0.78189000  0.02611150  0.05390557  1.0
  Ge  Ge97  1  0.78189000  0.35944483  0.05390557  1.0
  Ge  Ge98  1  0.78189000  0.69277817  0.05390557  1.0
  Ge  Ge99  1  0.11522333  0.19277817  0.12533414  1.0
  Ge  Ge100  1  0.11522333  0.52611150  0.12533414  1.0
  Ge  Ge101  1  0.11522333  0.85944483  0.12533414  1.0
  Ge  Ge102  1  0.44855667  0.19277817  0.12533414  1.0
  Ge  Ge103  1  0.44855667  0.52611150  0.12533414  1.0
  Ge  Ge104  1  0.44855667  0.85944483  0.12533414  1.0
  Ge  Ge105  1  0.78189000  0.19277817  0.12533414  1.0
  Ge  Ge106  1  0.78189000  0.52611150  0.12533414  1.0
  Ge  Ge107  1  0.78189000  0.85944483  0.12533414  1.0
  Ge  Ge108  1  0.21811000  0.14055517  0.00419000  1.0
  Ge  Ge109  1  0.21811000  0.47388850  0.00419000  1.0
  Ge  Ge110  1  0.21811000  0.80722183  0.00419000  1.0
  Ge  Ge111  1  0.55144333  0.14055517  0.00419000  1.0
  Ge  Ge112  1  0.55144333  0.47388850  0.00419000  1.0
  Ge  Ge113  1  0.55144333  0.80722183  0.00419000  1.0
  Ge  Ge114  1  0.88477667  0.14055517  0.00419000  1.0
  Ge  Ge115  1  0.88477667  0.47388850  0.00419000  1.0
  Ge  Ge116  1  0.88477667  0.80722183  0.00419000  1.0
  Ge  Ge117  1  0.21811000  0.30722183  0.07561857  1.0
  Ge  Ge118  1  0.21811000  0.64055517  0.07561857  1.0
  Ge  Ge119  1  0.21811000  0.97388850  0.07561857  1.0
  Ge  Ge120  1  0.55144333  0.30722183  0.07561857  1.0
  Ge  Ge121  1  0.55144333  0.64055517  0.07561857  1.0
  Ge  Ge122  1  0.55144333  0.97388850  0.07561857  1.0
  Ge  Ge123  1  0.88477667  0.30722183  0.07561857  1.0
  Ge  Ge124  1  0.88477667  0.64055517  0.07561857  1.0
  Ge  Ge125  1  0.88477667  0.97388850  0.07561857  1.0
  Ge  Ge126  1  0.28189000  0.05722183  0.13866714  1.0
  Ge  Ge127  1  0.28189000  0.39055517  0.13866714  1.0
  Ge  Ge128  1  0.28189000  0.72388850  0.13866714  1.0
  Ge  Ge129  1  0.61522333  0.05722183  0.13866714  1.0
  Ge  Ge130  1  0.61522333  0.39055517  0.13866714  1.0
  Ge  Ge131  1  0.61522333  0.72388850  0.13866714  1.0
  Ge  Ge132  1  0.94855667  0.05722183  0.13866714  1.0
  Ge  Ge133  1  0.94855667  0.39055517  0.13866714  1.0
  Ge  Ge134  1  0.94855667  0.72388850  0.13866714  1.0
  Ge  Ge135  1  0.28189000  0.22388850  0.06723857  1.0
  Ge  Ge136  1  0.28189000  0.55722183  0.06723857  1.0
  Ge  Ge137  1  0.28189000  0.89055517  0.06723857  1.0
  Ge  Ge138  1  0.61522333  0.22388850  0.06723857  1.0
  Ge  Ge139  1  0.61522333  0.55722183  0.06723857  1.0
  Ge  Ge140  1  0.61522333  0.89055517  0.06723857  1.0
  Ge  Ge141  1  0.94855667  0.22388850  0.06723857  1.0
  Ge  Ge142  1  0.94855667  0.55722183  0.06723857  1.0
  Ge  Ge143  1  0.94855667  0.89055517  0.06723857  1.0
  Ge  Ge144  1  0.16589600  0.12500000  0.04657464  1.0
  Ge  Ge145  1  0.16589600  0.45833333  0.04657464  1.0
  Ge  Ge146  1  0.16589600  0.79166667  0.04657464  1.0
  Ge  Ge147  1  0.49922933  0.12500000  0.04657464  1.0
  Ge  Ge148  1  0.49922933  0.45833333  0.04657464  1.0
  Ge  Ge149  1  0.49922933  0.79166667  0.04657464  1.0
  Ge  Ge150  1  0.83256267  0.12500000  0.04657464  1.0
  Ge  Ge151  1  0.83256267  0.45833333  0.04657464  1.0
  Ge  Ge152  1  0.83256267  0.79166667  0.04657464  1.0
  Ge  Ge153  1  0.16589600  0.29166667  0.11800321  1.0
  Ge  Ge154  1  0.16589600  0.62500000  0.11800321  1.0
  Ge  Ge155  1  0.16589600  0.95833333  0.11800321  1.0
  Ge  Ge156  1  0.49922933  0.29166667  0.11800321  1.0
  Ge  Ge157  1  0.49922933  0.62500000  0.11800321  1.0
  Ge  Ge158  1  0.49922933  0.95833333  0.11800321  1.0
  Ge  Ge159  1  0.83256267  0.29166667  0.11800321  1.0
  Ge  Ge160  1  0.83256267  0.62500000  0.11800321  1.0
  Ge  Ge161  1  0.83256267  0.95833333  0.11800321  1.0
  Ge  Ge162  1  0.00077067  0.04166667  0.08294950  1.0
  Ge  Ge163  1  0.00077067  0.37500000  0.08294950  1.0
  Ge  Ge164  1  0.00077067  0.70833333  0.08294950  1.0
  Ge  Ge165  1  0.33410400  0.04166667  0.08294950  1.0
  Ge  Ge166  1  0.33410400  0.37500000  0.08294950  1.0
  Ge  Ge167  1  0.33410400  0.70833333  0.08294950  1.0
  Ge  Ge168  1  0.66743733  0.04166667  0.08294950  1.0
  Ge  Ge169  1  0.66743733  0.37500000  0.08294950  1.0
  Ge  Ge170  1  0.66743733  0.70833333  0.08294950  1.0
  Ge  Ge171  1  0.00077067  0.20833333  0.01152093  1.0
  Ge  Ge172  1  0.00077067  0.54166667  0.01152093  1.0
  Ge  Ge173  1  0.00077067  0.87500000  0.01152093  1.0
  Ge  Ge174  1  0.33410400  0.20833333  0.01152093  1.0
  Ge  Ge175  1  0.33410400  0.54166667  0.01152093  1.0
  Ge  Ge176  1  0.33410400  0.87500000  0.01152093  1.0
  Ge  Ge177  1  0.66743733  0.20833333  0.01152093  1.0
  Ge  Ge178  1  0.66743733  0.54166667  0.01152093  1.0
  Ge  Ge179  1  0.66743733  0.87500000  0.01152093  1.0
  Ge  Ge180  1  0.16743733  0.04166667  0.01152093  1.0
  Ge  Ge181  1  0.16743733  0.37500000  0.01152093  1.0
  Ge  Ge182  1  0.16743733  0.70833333  0.01152093  1.0
  Ge  Ge183  1  0.50077067  0.04166667  0.01152093  1.0
  Ge  Ge184  1  0.50077067  0.37500000  0.01152093  1.0
  Ge  Ge185  1  0.50077067  0.70833333  0.01152093  1.0
  Ge  Ge186  1  0.83410400  0.04166667  0.01152093  1.0
  Ge  Ge187  1  0.83410400  0.37500000  0.01152093  1.0
  Ge  Ge188  1  0.83410400  0.70833333  0.01152093  1.0
  Ge  Ge189  1  0.16743733  0.20833333  0.08294950  1.0
  Ge  Ge190  1  0.16743733  0.54166667  0.08294950  1.0
  Ge  Ge191  1  0.16743733  0.87500000  0.08294950  1.0
  Ge  Ge192  1  0.50077067  0.20833333  0.08294950  1.0
  Ge  Ge193  1  0.50077067  0.54166667  0.08294950  1.0
  Ge  Ge194  1  0.50077067  0.87500000  0.08294950  1.0
  Ge  Ge195  1  0.83410400  0.20833333  0.08294950  1.0
  Ge  Ge196  1  0.83410400  0.54166667  0.08294950  1.0
  Ge  Ge197  1  0.83410400  0.87500000  0.08294950  1.0
  Ge  Ge198  1  0.33256267  0.12500000  0.11800321  1.0
  Ge  Ge199  1  0.33256267  0.45833333  0.11800321  1.0
  Ge  Ge200  1  0.33256267  0.79166667  0.11800321  1.0
  Ge  Ge201  1  0.66589600  0.12500000  0.11800321  1.0
  Ge  Ge202  1  0.66589600  0.45833333  0.11800321  1.0
  Ge  Ge203  1  0.66589600  0.79166667  0.11800321  1.0
  Ge  Ge204  1  0.99922933  0.12500000  0.11800321  1.0
  Ge  Ge205  1  0.99922933  0.45833333  0.11800321  1.0
  Ge  Ge206  1  0.99922933  0.79166667  0.11800321  1.0
  Ge  Ge207  1  0.33256267  0.29166667  0.04657464  1.0
  Ge  Ge208  1  0.33256267  0.62500000  0.04657464  1.0
  Ge  Ge209  1  0.33256267  0.95833333  0.04657464  1.0
  Ge  Ge210  1  0.66589600  0.29166667  0.04657464  1.0
  Ge  Ge211  1  0.66589600  0.62500000  0.04657464  1.0
  Ge  Ge212  1  0.66589600  0.95833333  0.04657464  1.0
  Ge  Ge213  1  0.99922933  0.29166667  0.04657464  1.0
  Ge  Ge214  1  0.99922933  0.62500000  0.04657464  1.0
  Ge  Ge215  1  0.99922933  0.95833333  0.04657464  1.0
  Ni  Ni216  1  0.03850300  0.33333333  0.26254650  1.0
  Ni  Ni217  1  0.03850300  0.66666667  0.26254650  1.0
  Ni  Ni218  1  0.03850300  1.00000000  0.26254650  1.0
  Ni  Ni219  1  0.37183633  0.33333333  0.26254650  1.0
  Ni  Ni220  1  0.37183633  0.66666667  0.26254650  1.0
  Ni  Ni221  1  0.37183633  1.00000000  0.26254650  1.0
  Ni  Ni222  1  0.70516967  0.33333333  0.26254650  1.0
  Ni  Ni223  1  0.70516967  0.66666667  0.26254650  1.0
  Ni  Ni224  1  0.70516967  1.00000000  0.26254650  1.0
  Ni  Ni225  1  0.03850300  0.16666667  0.19111793  1.0
  Ni  Ni226  1  0.03850300  0.50000000  0.19111793  1.0
  Ni  Ni227  1  0.03850300  0.83333333  0.19111793  1.0
  Ni  Ni228  1  0.37183633  0.16666667  0.19111793  1.0
  Ni  Ni229  1  0.37183633  0.50000000  0.19111793  1.0
  Ni  Ni230  1  0.37183633  0.83333333  0.19111793  1.0
  Ni  Ni231  1  0.70516967  0.16666667  0.19111793  1.0
  Ni  Ni232  1  0.70516967  0.50000000  0.19111793  1.0
  Ni  Ni233  1  0.70516967  0.83333333  0.19111793  1.0
  Ni  Ni234  1  0.12816367  0.08333333  0.25983479  1.0
  Ni  Ni235  1  0.12816367  0.41666667  0.25983479  1.0
  Ni  Ni236  1  0.12816367  0.75000000  0.25983479  1.0
  Ni  Ni237  1  0.46149700  0.08333333  0.25983479  1.0
  Ni  Ni238  1  0.46149700  0.41666667  0.25983479  1.0
  Ni  Ni239  1  0.46149700  0.75000000  0.25983479  1.0
  Ni  Ni240  1  0.79483033  0.08333333  0.25983479  1.0
  Ni  Ni241  1  0.79483033  0.41666667  0.25983479  1.0
  Ni  Ni242  1  0.79483033  0.75000000  0.25983479  1.0
  Ni  Ni243  1  0.12816367  0.25000000  0.18840621  1.0
  Ni  Ni244  1  0.12816367  0.58333333  0.18840621  1.0
  Ni  Ni245  1  0.12816367  0.91666667  0.18840621  1.0
  Ni  Ni246  1  0.46149700  0.25000000  0.18840621  1.0
  Ni  Ni247  1  0.46149700  0.58333333  0.18840621  1.0
  Ni  Ni248  1  0.46149700  0.91666667  0.18840621  1.0
  Ni  Ni249  1  0.79483033  0.25000000  0.18840621  1.0
  Ni  Ni250  1  0.79483033  0.58333333  0.18840621  1.0
  Ni  Ni251  1  0.79483033  0.91666667  0.18840621  1.0
  Ni  Ni252  1  0.29483033  0.00000000  0.15269193  1.0
  Ni  Ni253  1  0.29483033  0.33333333  0.15269193  1.0
  Ni  Ni254  1  0.29483033  0.66666667  0.15269193  1.0
  Ni  Ni255  1  0.62816367  0.00000000  0.15269193  1.0
  Ni  Ni256  1  0.62816367  0.33333333  0.15269193  1.0
  Ni  Ni257  1  0.62816367  0.66666667  0.15269193  1.0
  Ni  Ni258  1  0.96149700  0.00000000  0.15269193  1.0
  Ni  Ni259  1  0.96149700  0.33333333  0.15269193  1.0
  Ni  Ni260  1  0.96149700  0.66666667  0.15269193  1.0
  Ni  Ni261  1  0.29483033  0.16666667  0.22412050  1.0
  Ni  Ni262  1  0.29483033  0.50000000  0.22412050  1.0
  Ni  Ni263  1  0.29483033  0.83333333  0.22412050  1.0
  Ni  Ni264  1  0.62816367  0.16666667  0.22412050  1.0
  Ni  Ni265  1  0.62816367  0.50000000  0.22412050  1.0
  Ni  Ni266  1  0.62816367  0.83333333  0.22412050  1.0
  Ni  Ni267  1  0.96149700  0.16666667  0.22412050  1.0
  Ni  Ni268  1  0.96149700  0.50000000  0.22412050  1.0
  Ni  Ni269  1  0.96149700  0.83333333  0.22412050  1.0
  Ni  Ni270  1  0.20516967  0.08333333  0.22683221  1.0
  Ni  Ni271  1  0.20516967  0.41666667  0.22683221  1.0
  Ni  Ni272  1  0.20516967  0.75000000  0.22683221  1.0
  Ni  Ni273  1  0.53850300  0.08333333  0.22683221  1.0
  Ni  Ni274  1  0.53850300  0.41666667  0.22683221  1.0
  Ni  Ni275  1  0.53850300  0.75000000  0.22683221  1.0
  Ni  Ni276  1  0.87183633  0.08333333  0.22683221  1.0
  Ni  Ni277  1  0.87183633  0.41666667  0.22683221  1.0
  Ni  Ni278  1  0.87183633  0.75000000  0.22683221  1.0
  Ni  Ni279  1  0.20516967  0.25000000  0.15540364  1.0
  Ni  Ni280  1  0.20516967  0.58333333  0.15540364  1.0
  Ni  Ni281  1  0.20516967  0.91666667  0.15540364  1.0
  Ni  Ni282  1  0.53850300  0.25000000  0.15540364  1.0
  Ni  Ni283  1  0.53850300  0.58333333  0.15540364  1.0
  Ni  Ni284  1  0.53850300  0.91666667  0.15540364  1.0
  Ni  Ni285  1  0.87183633  0.25000000  0.15540364  1.0
  Ni  Ni286  1  0.87183633  0.58333333  0.15540364  1.0
  Ni  Ni287  1  0.87183633  0.91666667  0.15540364  1.0
  Ge  Ge288  1  0.05144333  0.10944483  0.20514271  1.0
  Ge  Ge289  1  0.05144333  0.44277817  0.20514271  1.0
  Ge  Ge290  1  0.05144333  0.77611150  0.20514271  1.0
  Ge  Ge291  1  0.38477667  0.10944483  0.20514271  1.0
  Ge  Ge292  1  0.38477667  0.44277817  0.20514271  1.0
  Ge  Ge293  1  0.38477667  0.77611150  0.20514271  1.0
  Ge  Ge294  1  0.71811000  0.10944483  0.20514271  1.0
  Ge  Ge295  1  0.71811000  0.44277817  0.20514271  1.0
  Ge  Ge296  1  0.71811000  0.77611150  0.20514271  1.0
  Ge  Ge297  1  0.05144333  0.27611150  0.27657129  1.0
  Ge  Ge298  1  0.05144333  0.60944483  0.27657129  1.0
  Ge  Ge299  1  0.05144333  0.94277817  0.27657129  1.0
  Ge  Ge300  1  0.38477667  0.27611150  0.27657129  1.0
  Ge  Ge301  1  0.38477667  0.60944483  0.27657129  1.0
  Ge  Ge302  1  0.38477667  0.94277817  0.27657129  1.0
  Ge  Ge303  1  0.71811000  0.27611150  0.27657129  1.0
  Ge  Ge304  1  0.71811000  0.60944483  0.27657129  1.0
  Ge  Ge305  1  0.71811000  0.94277817  0.27657129  1.0
  Ge  Ge306  1  0.11522333  0.02611150  0.19676271  1.0
  Ge  Ge307  1  0.11522333  0.35944483  0.19676271  1.0
  Ge  Ge308  1  0.11522333  0.69277817  0.19676271  1.0
  Ge  Ge309  1  0.44855667  0.02611150  0.19676271  1.0
  Ge  Ge310  1  0.44855667  0.35944483  0.19676271  1.0
  Ge  Ge311  1  0.44855667  0.69277817  0.19676271  1.0
  Ge  Ge312  1  0.78189000  0.02611150  0.19676271  1.0
  Ge  Ge313  1  0.78189000  0.35944483  0.19676271  1.0
  Ge  Ge314  1  0.78189000  0.69277817  0.19676271  1.0
  Ge  Ge315  1  0.11522333  0.19277817  0.26819129  1.0
  Ge  Ge316  1  0.11522333  0.52611150  0.26819129  1.0
  Ge  Ge317  1  0.11522333  0.85944483  0.26819129  1.0
  Ge  Ge318  1  0.44855667  0.19277817  0.26819129  1.0
  Ge  Ge319  1  0.44855667  0.52611150  0.26819129  1.0
  Ge  Ge320  1  0.44855667  0.85944483  0.26819129  1.0
  Ge  Ge321  1  0.78189000  0.19277817  0.26819129  1.0
  Ge  Ge322  1  0.78189000  0.52611150  0.26819129  1.0
  Ge  Ge323  1  0.78189000  0.85944483  0.26819129  1.0
  Ge  Ge324  1  0.21811000  0.14055517  0.14704714  1.0
  Ge  Ge325  1  0.21811000  0.47388850  0.14704714  1.0
  Ge  Ge326  1  0.21811000  0.80722183  0.14704714  1.0
  Ge  Ge327  1  0.55144333  0.14055517  0.14704714  1.0
  Ge  Ge328  1  0.55144333  0.47388850  0.14704714  1.0
  Ge  Ge329  1  0.55144333  0.80722183  0.14704714  1.0
  Ge  Ge330  1  0.88477667  0.14055517  0.14704714  1.0
  Ge  Ge331  1  0.88477667  0.47388850  0.14704714  1.0
  Ge  Ge332  1  0.88477667  0.80722183  0.14704714  1.0
  Ge  Ge333  1  0.21811000  0.30722183  0.21847571  1.0
  Ge  Ge334  1  0.21811000  0.64055517  0.21847571  1.0
  Ge  Ge335  1  0.21811000  0.97388850  0.21847571  1.0
  Ge  Ge336  1  0.55144333  0.30722183  0.21847571  1.0
  Ge  Ge337  1  0.55144333  0.64055517  0.21847571  1.0
  Ge  Ge338  1  0.55144333  0.97388850  0.21847571  1.0
  Ge  Ge339  1  0.88477667  0.30722183  0.21847571  1.0
  Ge  Ge340  1  0.88477667  0.64055517  0.21847571  1.0
  Ge  Ge341  1  0.88477667  0.97388850  0.21847571  1.0
  Ge  Ge342  1  0.28189000  0.05722183  0.28152429  1.0
  Ge  Ge343  1  0.28189000  0.39055517  0.28152429  1.0
  Ge  Ge344  1  0.28189000  0.72388850  0.28152429  1.0
  Ge  Ge345  1  0.61522333  0.05722183  0.28152429  1.0
  Ge  Ge346  1  0.61522333  0.39055517  0.28152429  1.0
  Ge  Ge347  1  0.61522333  0.72388850  0.28152429  1.0
  Ge  Ge348  1  0.94855667  0.05722183  0.28152429  1.0
  Ge  Ge349  1  0.94855667  0.39055517  0.28152429  1.0
  Ge  Ge350  1  0.94855667  0.72388850  0.28152429  1.0
  Ge  Ge351  1  0.28189000  0.22388850  0.21009571  1.0
  Ge  Ge352  1  0.28189000  0.55722183  0.21009571  1.0
  Ge  Ge353  1  0.28189000  0.89055517  0.21009571  1.0
  Ge  Ge354  1  0.61522333  0.22388850  0.21009571  1.0
  Ge  Ge355  1  0.61522333  0.55722183  0.21009571  1.0
  Ge  Ge356  1  0.61522333  0.89055517  0.21009571  1.0
  Ge  Ge357  1  0.94855667  0.22388850  0.21009571  1.0
  Ge  Ge358  1  0.94855667  0.55722183  0.21009571  1.0
  Ge  Ge359  1  0.94855667  0.89055517  0.21009571  1.0
  Ge  Ge360  1  0.16589600  0.12500000  0.18943179  1.0
  Ge  Ge361  1  0.16589600  0.45833333  0.18943179  1.0
  Ge  Ge362  1  0.16589600  0.79166667  0.18943179  1.0
  Ge  Ge363  1  0.49922933  0.12500000  0.18943179  1.0
  Ge  Ge364  1  0.49922933  0.45833333  0.18943179  1.0
  Ge  Ge365  1  0.49922933  0.79166667  0.18943179  1.0
  Ge  Ge366  1  0.83256267  0.12500000  0.18943179  1.0
  Ge  Ge367  1  0.83256267  0.45833333  0.18943179  1.0
  Ge  Ge368  1  0.83256267  0.79166667  0.18943179  1.0
  Ge  Ge369  1  0.16589600  0.29166667  0.26086036  1.0
  Ge  Ge370  1  0.16589600  0.62500000  0.26086036  1.0
  Ge  Ge371  1  0.16589600  0.95833333  0.26086036  1.0
  Ge  Ge372  1  0.49922933  0.29166667  0.26086036  1.0
  Ge  Ge373  1  0.49922933  0.62500000  0.26086036  1.0
  Ge  Ge374  1  0.49922933  0.95833333  0.26086036  1.0
  Ge  Ge375  1  0.83256267  0.29166667  0.26086036  1.0
  Ge  Ge376  1  0.83256267  0.62500000  0.26086036  1.0
  Ge  Ge377  1  0.83256267  0.95833333  0.26086036  1.0
  Ge  Ge378  1  0.00077067  0.04166667  0.22580664  1.0
  Ge  Ge379  1  0.00077067  0.37500000  0.22580664  1.0
  Ge  Ge380  1  0.00077067  0.70833333  0.22580664  1.0
  Ge  Ge381  1  0.33410400  0.04166667  0.22580664  1.0
  Ge  Ge382  1  0.33410400  0.37500000  0.22580664  1.0
  Ge  Ge383  1  0.33410400  0.70833333  0.22580664  1.0
  Ge  Ge384  1  0.66743733  0.04166667  0.22580664  1.0
  Ge  Ge385  1  0.66743733  0.37500000  0.22580664  1.0
  Ge  Ge386  1  0.66743733  0.70833333  0.22580664  1.0
  Ge  Ge387  1  0.00077067  0.20833333  0.15437807  1.0
  Ge  Ge388  1  0.00077067  0.54166667  0.15437807  1.0
  Ge  Ge389  1  0.00077067  0.87500000  0.15437807  1.0
  Ge  Ge390  1  0.33410400  0.20833333  0.15437807  1.0
  Ge  Ge391  1  0.33410400  0.54166667  0.15437807  1.0
  Ge  Ge392  1  0.33410400  0.87500000  0.15437807  1.0
  Ge  Ge393  1  0.66743733  0.20833333  0.15437807  1.0
  Ge  Ge394  1  0.66743733  0.54166667  0.15437807  1.0
  Ge  Ge395  1  0.66743733  0.87500000  0.15437807  1.0
  Ge  Ge396  1  0.16743733  0.04166667  0.15437807  1.0
  Ge  Ge397  1  0.16743733  0.37500000  0.15437807  1.0
  Ge  Ge398  1  0.16743733  0.70833333  0.15437807  1.0
  Ge  Ge399  1  0.50077067  0.04166667  0.15437807  1.0
  Ge  Ge400  1  0.50077067  0.37500000  0.15437807  1.0
  Ge  Ge401  1  0.50077067  0.70833333  0.15437807  1.0
  Ge  Ge402  1  0.83410400  0.04166667  0.15437807  1.0
  Ge  Ge403  1  0.83410400  0.37500000  0.15437807  1.0
  Ge  Ge404  1  0.83410400  0.70833333  0.15437807  1.0
  Ge  Ge405  1  0.16743733  0.20833333  0.22580664  1.0
  Ge  Ge406  1  0.16743733  0.54166667  0.22580664  1.0
  Ge  Ge407  1  0.16743733  0.87500000  0.22580664  1.0
  Ge  Ge408  1  0.50077067  0.20833333  0.22580664  1.0
  Ge  Ge409  1  0.50077067  0.54166667  0.22580664  1.0
  Ge  Ge410  1  0.50077067  0.87500000  0.22580664  1.0
  Ge  Ge411  1  0.83410400  0.20833333  0.22580664  1.0
  Ge  Ge412  1  0.83410400  0.54166667  0.22580664  1.0
  Ge  Ge413  1  0.83410400  0.87500000  0.22580664  1.0
  Ge  Ge414  1  0.33256267  0.12500000  0.26086036  1.0
  Ge  Ge415  1  0.33256267  0.45833333  0.26086036  1.0
  Ge  Ge416  1  0.33256267  0.79166667  0.26086036  1.0
  Ge  Ge417  1  0.66589600  0.12500000  0.26086036  1.0
  Ge  Ge418  1  0.66589600  0.45833333  0.26086036  1.0
  Ge  Ge419  1  0.66589600  0.79166667  0.26086036  1.0
  Ge  Ge420  1  0.99922933  0.12500000  0.26086036  1.0
  Ge  Ge421  1  0.99922933  0.45833333  0.26086036  1.0
  Ge  Ge422  1  0.99922933  0.79166667  0.26086036  1.0
  Ge  Ge423  1  0.33256267  0.29166667  0.18943179  1.0
  Ge  Ge424  1  0.33256267  0.62500000  0.18943179  1.0
  Ge  Ge425  1  0.33256267  0.95833333  0.18943179  1.0
  Ge  Ge426  1  0.66589600  0.29166667  0.18943179  1.0
  Ge  Ge427  1  0.66589600  0.62500000  0.18943179  1.0
  Ge  Ge428  1  0.66589600  0.95833333  0.18943179  1.0
  Ge  Ge429  1  0.99922933  0.29166667  0.18943179  1.0
  Ge  Ge430  1  0.99922933  0.62500000  0.18943179  1.0
  Ge  Ge431  1  0.99922933  0.95833333  0.18943179  1.0
  Ni  Ni432  1  0.03850300  0.33333333  0.40540364  1.0
  Ni  Ni433  1  0.03850300  0.66666667  0.40540364  1.0
  Ni  Ni434  1  0.03850300  1.00000000  0.40540364  1.0
  Ni  Ni435  1  0.37183633  0.33333333  0.40540364  1.0
  Ni  Ni436  1  0.37183633  0.66666667  0.40540364  1.0
  Ni  Ni437  1  0.37183633  1.00000000  0.40540364  1.0
  Ni  Ni438  1  0.70516967  0.33333333  0.40540364  1.0
  Ni  Ni439  1  0.70516967  0.66666667  0.40540364  1.0
  Ni  Ni440  1  0.70516967  1.00000000  0.40540364  1.0
  Ni  Ni441  1  0.03850300  0.16666667  0.33397507  1.0
  Ni  Ni442  1  0.03850300  0.50000000  0.33397507  1.0
  Ni  Ni443  1  0.03850300  0.83333333  0.33397507  1.0
  Ni  Ni444  1  0.37183633  0.16666667  0.33397507  1.0
  Ni  Ni445  1  0.37183633  0.50000000  0.33397507  1.0
  Ni  Ni446  1  0.37183633  0.83333333  0.33397507  1.0
  Ni  Ni447  1  0.70516967  0.16666667  0.33397507  1.0
  Ni  Ni448  1  0.70516967  0.50000000  0.33397507  1.0
  Ni  Ni449  1  0.70516967  0.83333333  0.33397507  1.0
  Ni  Ni450  1  0.12816367  0.08333333  0.40269193  1.0
  Ni  Ni451  1  0.12816367  0.41666667  0.40269193  1.0
  Ni  Ni452  1  0.12816367  0.75000000  0.40269193  1.0
  Ni  Ni453  1  0.46149700  0.08333333  0.40269193  1.0
  Ni  Ni454  1  0.46149700  0.41666667  0.40269193  1.0
  Ni  Ni455  1  0.46149700  0.75000000  0.40269193  1.0
  Ni  Ni456  1  0.79483033  0.08333333  0.40269193  1.0
  Ni  Ni457  1  0.79483033  0.41666667  0.40269193  1.0
  Ni  Ni458  1  0.79483033  0.75000000  0.40269193  1.0
  Ni  Ni459  1  0.12816367  0.25000000  0.33126336  1.0
  Ni  Ni460  1  0.12816367  0.58333333  0.33126336  1.0
  Ni  Ni461  1  0.12816367  0.91666667  0.33126336  1.0
  Ni  Ni462  1  0.46149700  0.25000000  0.33126336  1.0
  Ni  Ni463  1  0.46149700  0.58333333  0.33126336  1.0
  Ni  Ni464  1  0.46149700  0.91666667  0.33126336  1.0
  Ni  Ni465  1  0.79483033  0.25000000  0.33126336  1.0
  Ni  Ni466  1  0.79483033  0.58333333  0.33126336  1.0
  Ni  Ni467  1  0.79483033  0.91666667  0.33126336  1.0
  Ni  Ni468  1  0.29483033  0.00000000  0.29554907  1.0
  Ni  Ni469  1  0.29483033  0.33333333  0.29554907  1.0
  Ni  Ni470  1  0.29483033  0.66666667  0.29554907  1.0
  Ni  Ni471  1  0.62816367  0.00000000  0.29554907  1.0
  Ni  Ni472  1  0.62816367  0.33333333  0.29554907  1.0
  Ni  Ni473  1  0.62816367  0.66666667  0.29554907  1.0
  Ni  Ni474  1  0.96149700  0.00000000  0.29554907  1.0
  Ni  Ni475  1  0.96149700  0.33333333  0.29554907  1.0
  Ni  Ni476  1  0.96149700  0.66666667  0.29554907  1.0
  Ni  Ni477  1  0.29483033  0.16666667  0.36697764  1.0
  Ni  Ni478  1  0.29483033  0.50000000  0.36697764  1.0
  Ni  Ni479  1  0.29483033  0.83333333  0.36697764  1.0
  Ni  Ni480  1  0.62816367  0.16666667  0.36697764  1.0
  Ni  Ni481  1  0.62816367  0.50000000  0.36697764  1.0
  Ni  Ni482  1  0.62816367  0.83333333  0.36697764  1.0
  Ni  Ni483  1  0.96149700  0.16666667  0.36697764  1.0
  Ni  Ni484  1  0.96149700  0.50000000  0.36697764  1.0
  Ni  Ni485  1  0.96149700  0.83333333  0.36697764  1.0
  Ni  Ni486  1  0.20516967  0.08333333  0.36968936  1.0
  Ni  Ni487  1  0.20516967  0.41666667  0.36968936  1.0
  Ni  Ni488  1  0.20516967  0.75000000  0.36968936  1.0
  Ni  Ni489  1  0.53850300  0.08333333  0.36968936  1.0
  Ni  Ni490  1  0.53850300  0.41666667  0.36968936  1.0
  Ni  Ni491  1  0.53850300  0.75000000  0.36968936  1.0
  Ni  Ni492  1  0.87183633  0.08333333  0.36968936  1.0
  Ni  Ni493  1  0.87183633  0.41666667  0.36968936  1.0
  Ni  Ni494  1  0.87183633  0.75000000  0.36968936  1.0
  Ni  Ni495  1  0.20516967  0.25000000  0.29826079  1.0
  Ni  Ni496  1  0.20516967  0.58333333  0.29826079  1.0
  Ni  Ni497  1  0.20516967  0.91666667  0.29826079  1.0
  Ni  Ni498  1  0.53850300  0.25000000  0.29826079  1.0
  Ni  Ni499  1  0.53850300  0.58333333  0.29826079  1.0
  Ni  Ni500  1  0.53850300  0.91666667  0.29826079  1.0
  Ni  Ni501  1  0.87183633  0.25000000  0.29826079  1.0
  Ni  Ni502  1  0.87183633  0.58333333  0.29826079  1.0
  Ni  Ni503  1  0.87183633  0.91666667  0.29826079  1.0
  Ge  Ge504  1  0.05144333  0.10944483  0.34799986  1.0
  Ge  Ge505  1  0.05144333  0.44277817  0.34799986  1.0
  Ge  Ge506  1  0.05144333  0.77611150  0.34799986  1.0
  Ge  Ge507  1  0.38477667  0.10944483  0.34799986  1.0
  Ge  Ge508  1  0.38477667  0.44277817  0.34799986  1.0
  Ge  Ge509  1  0.38477667  0.77611150  0.34799986  1.0
  Ge  Ge510  1  0.71811000  0.10944483  0.34799986  1.0
  Ge  Ge511  1  0.71811000  0.44277817  0.34799986  1.0
  Ge  Ge512  1  0.71811000  0.77611150  0.34799986  1.0
  Ge  Ge513  1  0.05144333  0.27611150  0.41942843  1.0
  Ge  Ge514  1  0.05144333  0.60944483  0.41942843  1.0
  Ge  Ge515  1  0.05144333  0.94277817  0.41942843  1.0
  Ge  Ge516  1  0.38477667  0.27611150  0.41942843  1.0
  Ge  Ge517  1  0.38477667  0.60944483  0.41942843  1.0
  Ge  Ge518  1  0.38477667  0.94277817  0.41942843  1.0
  Ge  Ge519  1  0.71811000  0.27611150  0.41942843  1.0
  Ge  Ge520  1  0.71811000  0.60944483  0.41942843  1.0
  Ge  Ge521  1  0.71811000  0.94277817  0.41942843  1.0
  Ge  Ge522  1  0.11522333  0.02611150  0.33961986  1.0
  Ge  Ge523  1  0.11522333  0.35944483  0.33961986  1.0
  Ge  Ge524  1  0.11522333  0.69277817  0.33961986  1.0
  Ge  Ge525  1  0.44855667  0.02611150  0.33961986  1.0
  Ge  Ge526  1  0.44855667  0.35944483  0.33961986  1.0
  Ge  Ge527  1  0.44855667  0.69277817  0.33961986  1.0
  Ge  Ge528  1  0.78189000  0.02611150  0.33961986  1.0
  Ge  Ge529  1  0.78189000  0.35944483  0.33961986  1.0
  Ge  Ge530  1  0.78189000  0.69277817  0.33961986  1.0
  Ge  Ge531  1  0.11522333  0.19277817  0.41104843  1.0
  Ge  Ge532  1  0.11522333  0.52611150  0.41104843  1.0
  Ge  Ge533  1  0.11522333  0.85944483  0.41104843  1.0
  Ge  Ge534  1  0.44855667  0.19277817  0.41104843  1.0
  Ge  Ge535  1  0.44855667  0.52611150  0.41104843  1.0
  Ge  Ge536  1  0.44855667  0.85944483  0.41104843  1.0
  Ge  Ge537  1  0.78189000  0.19277817  0.41104843  1.0
  Ge  Ge538  1  0.78189000  0.52611150  0.41104843  1.0
  Ge  Ge539  1  0.78189000  0.85944483  0.41104843  1.0
  Ge  Ge540  1  0.21811000  0.14055517  0.28990429  1.0
  Ge  Ge541  1  0.21811000  0.47388850  0.28990429  1.0
  Ge  Ge542  1  0.21811000  0.80722183  0.28990429  1.0
  Ge  Ge543  1  0.55144333  0.14055517  0.28990429  1.0
  Ge  Ge544  1  0.55144333  0.47388850  0.28990429  1.0
  Ge  Ge545  1  0.55144333  0.80722183  0.28990429  1.0
  Ge  Ge546  1  0.88477667  0.14055517  0.28990429  1.0
  Ge  Ge547  1  0.88477667  0.47388850  0.28990429  1.0
  Ge  Ge548  1  0.88477667  0.80722183  0.28990429  1.0
  Ge  Ge549  1  0.21811000  0.30722183  0.36133286  1.0
  Ge  Ge550  1  0.21811000  0.64055517  0.36133286  1.0
  Ge  Ge551  1  0.21811000  0.97388850  0.36133286  1.0
  Ge  Ge552  1  0.55144333  0.30722183  0.36133286  1.0
  Ge  Ge553  1  0.55144333  0.64055517  0.36133286  1.0
  Ge  Ge554  1  0.55144333  0.97388850  0.36133286  1.0
  Ge  Ge555  1  0.88477667  0.30722183  0.36133286  1.0
  Ge  Ge556  1  0.88477667  0.64055517  0.36133286  1.0
  Ge  Ge557  1  0.88477667  0.97388850  0.36133286  1.0
  Ge  Ge558  1  0.28189000  0.05722183  0.42438143  1.0
  Ge  Ge559  1  0.28189000  0.39055517  0.42438143  1.0
  Ge  Ge560  1  0.28189000  0.72388850  0.42438143  1.0
  Ge  Ge561  1  0.61522333  0.05722183  0.42438143  1.0
  Ge  Ge562  1  0.61522333  0.39055517  0.42438143  1.0
  Ge  Ge563  1  0.61522333  0.72388850  0.42438143  1.0
  Ge  Ge564  1  0.94855667  0.05722183  0.42438143  1.0
  Ge  Ge565  1  0.94855667  0.39055517  0.42438143  1.0
  Ge  Ge566  1  0.94855667  0.72388850  0.42438143  1.0
  Ge  Ge567  1  0.28189000  0.22388850  0.35295286  1.0
  Ge  Ge568  1  0.28189000  0.55722183  0.35295286  1.0
  Ge  Ge569  1  0.28189000  0.89055517  0.35295286  1.0
  Ge  Ge570  1  0.61522333  0.22388850  0.35295286  1.0
  Ge  Ge571  1  0.61522333  0.55722183  0.35295286  1.0
  Ge  Ge572  1  0.61522333  0.89055517  0.35295286  1.0
  Ge  Ge573  1  0.94855667  0.22388850  0.35295286  1.0
  Ge  Ge574  1  0.94855667  0.55722183  0.35295286  1.0
  Ge  Ge575  1  0.94855667  0.89055517  0.35295286  1.0
  Ge  Ge576  1  0.16589600  0.12500000  0.33228893  1.0
  Ge  Ge577  1  0.16589600  0.45833333  0.33228893  1.0
  Ge  Ge578  1  0.16589600  0.79166667  0.33228893  1.0
  Ge  Ge579  1  0.49922933  0.12500000  0.33228893  1.0
  Ge  Ge580  1  0.49922933  0.45833333  0.33228893  1.0
  Ge  Ge581  1  0.49922933  0.79166667  0.33228893  1.0
  Ge  Ge582  1  0.83256267  0.12500000  0.33228893  1.0
  Ge  Ge583  1  0.83256267  0.45833333  0.33228893  1.0
  Ge  Ge584  1  0.83256267  0.79166667  0.33228893  1.0
  Ge  Ge585  1  0.16589600  0.29166667  0.40371750  1.0
  Ge  Ge586  1  0.16589600  0.62500000  0.40371750  1.0
  Ge  Ge587  1  0.16589600  0.95833333  0.40371750  1.0
  Ge  Ge588  1  0.49922933  0.29166667  0.40371750  1.0
  Ge  Ge589  1  0.49922933  0.62500000  0.40371750  1.0
  Ge  Ge590  1  0.49922933  0.95833333  0.40371750  1.0
  Ge  Ge591  1  0.83256267  0.29166667  0.40371750  1.0
  Ge  Ge592  1  0.83256267  0.62500000  0.40371750  1.0
  Ge  Ge593  1  0.83256267  0.95833333  0.40371750  1.0
  Ge  Ge594  1  0.00077067  0.04166667  0.36866379  1.0
  Ge  Ge595  1  0.00077067  0.37500000  0.36866379  1.0
  Ge  Ge596  1  0.00077067  0.70833333  0.36866379  1.0
  Ge  Ge597  1  0.33410400  0.04166667  0.36866379  1.0
  Ge  Ge598  1  0.33410400  0.37500000  0.36866379  1.0
  Ge  Ge599  1  0.33410400  0.70833333  0.36866379  1.0
  Ge  Ge600  1  0.66743733  0.04166667  0.36866379  1.0
  Ge  Ge601  1  0.66743733  0.37500000  0.36866379  1.0
  Ge  Ge602  1  0.66743733  0.70833333  0.36866379  1.0
  Ge  Ge603  1  0.00077067  0.20833333  0.29723521  1.0
  Ge  Ge604  1  0.00077067  0.54166667  0.29723521  1.0
  Ge  Ge605  1  0.00077067  0.87500000  0.29723521  1.0
  Ge  Ge606  1  0.33410400  0.20833333  0.29723521  1.0
  Ge  Ge607  1  0.33410400  0.54166667  0.29723521  1.0
  Ge  Ge608  1  0.33410400  0.87500000  0.29723521  1.0
  Ge  Ge609  1  0.66743733  0.20833333  0.29723521  1.0
  Ge  Ge610  1  0.66743733  0.54166667  0.29723521  1.0
  Ge  Ge611  1  0.66743733  0.87500000  0.29723521  1.0
  Ge  Ge612  1  0.16743733  0.04166667  0.29723521  1.0
  Ge  Ge613  1  0.16743733  0.37500000  0.29723521  1.0
  Ge  Ge614  1  0.16743733  0.70833333  0.29723521  1.0
  Ge  Ge615  1  0.50077067  0.04166667  0.29723521  1.0
  Ge  Ge616  1  0.50077067  0.37500000  0.29723521  1.0
  Ge  Ge617  1  0.50077067  0.70833333  0.29723521  1.0
  Ge  Ge618  1  0.83410400  0.04166667  0.29723521  1.0
  Ge  Ge619  1  0.83410400  0.37500000  0.29723521  1.0
  Ge  Ge620  1  0.83410400  0.70833333  0.29723521  1.0
  Ge  Ge621  1  0.16743733  0.20833333  0.36866379  1.0
  Ge  Ge622  1  0.16743733  0.54166667  0.36866379  1.0
  Ge  Ge623  1  0.16743733  0.87500000  0.36866379  1.0
  Ge  Ge624  1  0.50077067  0.20833333  0.36866379  1.0
  Ge  Ge625  1  0.50077067  0.54166667  0.36866379  1.0
  Ge  Ge626  1  0.50077067  0.87500000  0.36866379  1.0
  Ge  Ge627  1  0.83410400  0.20833333  0.36866379  1.0
  Ge  Ge628  1  0.83410400  0.54166667  0.36866379  1.0
  Ge  Ge629  1  0.83410400  0.87500000  0.36866379  1.0
  Ge  Ge630  1  0.33256267  0.12500000  0.40371750  1.0
  Ge  Ge631  1  0.33256267  0.45833333  0.40371750  1.0
  Ge  Ge632  1  0.33256267  0.79166667  0.40371750  1.0
  Ge  Ge633  1  0.66589600  0.12500000  0.40371750  1.0
  Ge  Ge634  1  0.66589600  0.45833333  0.40371750  1.0
  Ge  Ge635  1  0.66589600  0.79166667  0.40371750  1.0
  Ge  Ge636  1  0.99922933  0.12500000  0.40371750  1.0
  Ge  Ge637  1  0.99922933  0.45833333  0.40371750  1.0
  Ge  Ge638  1  0.99922933  0.79166667  0.40371750  1.0
  Ge  Ge639  1  0.33256267  0.29166667  0.33228893  1.0
  Ge  Ge640  1  0.33256267  0.62500000  0.33228893  1.0
  Ge  Ge641  1  0.33256267  0.95833333  0.33228893  1.0
  Ge  Ge642  1  0.66589600  0.29166667  0.33228893  1.0
  Ge  Ge643  1  0.66589600  0.62500000  0.33228893  1.0
  Ge  Ge644  1  0.66589600  0.95833333  0.33228893  1.0
  Ge  Ge645  1  0.99922933  0.29166667  0.33228893  1.0
  Ge  Ge646  1  0.99922933  0.62500000  0.33228893  1.0
  Ge  Ge647  1  0.99922933  0.95833333  0.33228893  1.0
