# generated using pymatgen
data_NiGe2
_symmetry_space_group_name_H-M   'P 1'
_cell_length_a   17.41276799
_cell_length_b   25.42672003
_cell_length_c   40.60618100
_cell_angle_alpha   133.19029878
_cell_angle_beta   90.00000000
_cell_angle_gamma   69.97617765
_symmetry_Int_Tables_number   1
_chemical_formula_structural   NiGe2
_chemical_formula_sum   'Ni108 Ge216'
_cell_volume   11572.24885636
_cell_formula_units_Z   108
loop_
 _symmetry_equiv_pos_site_id
 _symmetry_equiv_pos_as_xyz
  1  'x, y, z'
loop_
 _atom_site_type_symbol
 _atom_site_label
 _atom_site_symmetry_multiplicity
 _atom_site_fract_x
 _atom_site_fract_y
 _atom_site_fract_z
 _atom_site_occupancy
  Ni  Ni0  1  0.29483033  0.07700600  0.03300257  1.0
  Ni  Ni1  1  0.29483033  0.41033933  0.03300257  1.0
  Ni  Ni2  1  0.29483033  0.74367267  0.03300257  1.0
  Ni  Ni3  1  0.62816367  0.07700600  0.03300257  1.0
  Ni  Ni4  1  0.62816367  0.41033933  0.03300257  1.0
  Ni  Ni5  1  0.62816367  0.74367267  0.03300257  1.0
  Ni  Ni6  1  0.96149700  0.07700600  0.03300257  1.0
  Ni  Ni7  1  0.96149700  0.41033933  0.03300257  1.0
  Ni  Ni8  1  0.96149700  0.74367267  0.03300257  1.0
  Ni  Ni9  1  0.20516967  0.25632733  0.03842600  1.0
  Ni  Ni10  1  0.20516967  0.58966067  0.03842600  1.0
  Ni  Ni11  1  0.20516967  0.92299400  0.03842600  1.0
  Ni  Ni12  1  0.53850300  0.25632733  0.03842600  1.0
  Ni  Ni13  1  0.53850300  0.58966067  0.03842600  1.0
  Ni  Ni14  1  0.53850300  0.92299400  0.03842600  1.0
  Ni  Ni15  1  0.87183633  0.25632733  0.03842600  1.0
  Ni  Ni16  1  0.87183633  0.58966067  0.03842600  1.0
  Ni  Ni17  1  0.87183633  0.92299400  0.03842600  1.0
  Ni  Ni18  1  0.03850300  0.25632733  0.10985457  1.0
  Ni  Ni19  1  0.03850300  0.58966067  0.10985457  1.0
  Ni  Ni20  1  0.03850300  0.92299400  0.10985457  1.0
  Ni  Ni21  1  0.37183633  0.25632733  0.10985457  1.0
  Ni  Ni22  1  0.37183633  0.58966067  0.10985457  1.0
  Ni  Ni23  1  0.37183633  0.92299400  0.10985457  1.0
  Ni  Ni24  1  0.70516967  0.25632733  0.10985457  1.0
  Ni  Ni25  1  0.70516967  0.58966067  0.10985457  1.0
  Ni  Ni26  1  0.70516967  0.92299400  0.10985457  1.0
  Ni  Ni27  1  0.12816367  0.07700600  0.10443114  1.0
  Ni  Ni28  1  0.12816367  0.41033933  0.10443114  1.0
  Ni  Ni29  1  0.12816367  0.74367267  0.10443114  1.0
  Ni  Ni30  1  0.46149700  0.07700600  0.10443114  1.0
  Ni  Ni31  1  0.46149700  0.41033933  0.10443114  1.0
  Ni  Ni32  1  0.46149700  0.74367267  0.10443114  1.0
  Ni  Ni33  1  0.79483033  0.07700600  0.10443114  1.0
  Ni  Ni34  1  0.79483033  0.41033933  0.10443114  1.0
  Ni  Ni35  1  0.79483033  0.74367267  0.10443114  1.0
  Ge  Ge36  1  0.28189000  0.00000000  0.04904729  1.0
  Ge  Ge37  1  0.28189000  0.33333333  0.04904729  1.0
  Ge  Ge38  1  0.28189000  0.66666667  0.04904729  1.0
  Ge  Ge39  1  0.61522333  0.00000000  0.04904729  1.0
  Ge  Ge40  1  0.61522333  0.33333333  0.04904729  1.0
  Ge  Ge41  1  0.61522333  0.66666667  0.04904729  1.0
  Ge  Ge42  1  0.94855667  0.00000000  0.04904729  1.0
  Ge  Ge43  1  0.94855667  0.33333333  0.04904729  1.0
  Ge  Ge44  1  0.94855667  0.66666667  0.04904729  1.0
  Ge  Ge45  1  0.21811000  0.00000000  0.12047586  1.0
  Ge  Ge46  1  0.21811000  0.33333333  0.12047586  1.0
  Ge  Ge47  1  0.21811000  0.66666667  0.12047586  1.0
  Ge  Ge48  1  0.55144333  0.00000000  0.12047586  1.0
  Ge  Ge49  1  0.55144333  0.33333333  0.12047586  1.0
  Ge  Ge50  1  0.55144333  0.66666667  0.12047586  1.0
  Ge  Ge51  1  0.88477667  0.00000000  0.12047586  1.0
  Ge  Ge52  1  0.88477667  0.33333333  0.12047586  1.0
  Ge  Ge53  1  0.88477667  0.66666667  0.12047586  1.0
  Ge  Ge54  1  0.11522333  0.00000000  0.02238129  1.0
  Ge  Ge55  1  0.11522333  0.33333333  0.02238129  1.0
  Ge  Ge56  1  0.11522333  0.66666667  0.02238129  1.0
  Ge  Ge57  1  0.44855667  0.00000000  0.02238129  1.0
  Ge  Ge58  1  0.44855667  0.33333333  0.02238129  1.0
  Ge  Ge59  1  0.44855667  0.66666667  0.02238129  1.0
  Ge  Ge60  1  0.78189000  0.00000000  0.02238129  1.0
  Ge  Ge61  1  0.78189000  0.33333333  0.02238129  1.0
  Ge  Ge62  1  0.78189000  0.66666667  0.02238129  1.0
  Ge  Ge63  1  0.05144333  0.00000000  0.09380986  1.0
  Ge  Ge64  1  0.05144333  0.33333333  0.09380986  1.0
  Ge  Ge65  1  0.05144333  0.66666667  0.09380986  1.0
  Ge  Ge66  1  0.38477667  0.00000000  0.09380986  1.0
  Ge  Ge67  1  0.38477667  0.33333333  0.09380986  1.0
  Ge  Ge68  1  0.38477667  0.66666667  0.09380986  1.0
  Ge  Ge69  1  0.71811000  0.00000000  0.09380986  1.0
  Ge  Ge70  1  0.71811000  0.33333333  0.09380986  1.0
  Ge  Ge71  1  0.71811000  0.66666667  0.09380986  1.0
  Ge  Ge72  1  0.16743733  0.16666667  0.10714286  1.0
  Ge  Ge73  1  0.16743733  0.50000000  0.10714286  1.0
  Ge  Ge74  1  0.16743733  0.83333333  0.10714286  1.0
  Ge  Ge75  1  0.50077067  0.16666667  0.10714286  1.0
  Ge  Ge76  1  0.50077067  0.50000000  0.10714286  1.0
  Ge  Ge77  1  0.50077067  0.83333333  0.10714286  1.0
  Ge  Ge78  1  0.83410400  0.16666667  0.10714286  1.0
  Ge  Ge79  1  0.83410400  0.50000000  0.10714286  1.0
  Ge  Ge80  1  0.83410400  0.83333333  0.10714286  1.0
  Ge  Ge81  1  0.33256267  0.16666667  0.03571429  1.0
  Ge  Ge82  1  0.33256267  0.50000000  0.03571429  1.0
  Ge  Ge83  1  0.33256267  0.83333333  0.03571429  1.0
  Ge  Ge84  1  0.66589600  0.16666667  0.03571429  1.0
  Ge  Ge85  1  0.66589600  0.50000000  0.03571429  1.0
  Ge  Ge86  1  0.66589600  0.83333333  0.03571429  1.0
  Ge  Ge87  1  0.99922933  0.16666667  0.03571429  1.0
  Ge  Ge88  1  0.99922933  0.50000000  0.03571429  1.0
  Ge  Ge89  1  0.99922933  0.83333333  0.03571429  1.0
  Ge  Ge90  1  0.16589600  0.16666667  0.03571429  1.0
  Ge  Ge91  1  0.16589600  0.50000000  0.03571429  1.0
  Ge  Ge92  1  0.16589600  0.83333333  0.03571429  1.0
  Ge  Ge93  1  0.49922933  0.16666667  0.03571429  1.0
  Ge  Ge94  1  0.49922933  0.50000000  0.03571429  1.0
  Ge  Ge95  1  0.49922933  0.83333333  0.03571429  1.0
  Ge  Ge96  1  0.83256267  0.16666667  0.03571429  1.0
  Ge  Ge97  1  0.83256267  0.50000000  0.03571429  1.0
  Ge  Ge98  1  0.83256267  0.83333333  0.03571429  1.0
  Ge  Ge99  1  0.00077067  0.16666667  0.10714286  1.0
  Ge  Ge100  1  0.00077067  0.50000000  0.10714286  1.0
  Ge  Ge101  1  0.00077067  0.83333333  0.10714286  1.0
  Ge  Ge102  1  0.33410400  0.16666667  0.10714286  1.0
  Ge  Ge103  1  0.33410400  0.50000000  0.10714286  1.0
  Ge  Ge104  1  0.33410400  0.83333333  0.10714286  1.0
  Ge  Ge105  1  0.66743733  0.16666667  0.10714286  1.0
  Ge  Ge106  1  0.66743733  0.50000000  0.10714286  1.0
  Ge  Ge107  1  0.66743733  0.83333333  0.10714286  1.0
  Ni  Ni108  1  0.29483033  0.07700600  0.17585971  1.0
  Ni  Ni109  1  0.29483033  0.41033933  0.17585971  1.0
  Ni  Ni110  1  0.29483033  0.74367267  0.17585971  1.0
  Ni  Ni111  1  0.62816367  0.07700600  0.17585971  1.0
  Ni  Ni112  1  0.62816367  0.41033933  0.17585971  1.0
  Ni  Ni113  1  0.62816367  0.74367267  0.17585971  1.0
  Ni  Ni114  1  0.96149700  0.07700600  0.17585971  1.0
  Ni  Ni115  1  0.96149700  0.41033933  0.17585971  1.0
  Ni  Ni116  1  0.96149700  0.74367267  0.17585971  1.0
  Ni  Ni117  1  0.20516967  0.25632733  0.18128314  1.0
  Ni  Ni118  1  0.20516967  0.58966067  0.18128314  1.0
  Ni  Ni119  1  0.20516967  0.92299400  0.18128314  1.0
  Ni  Ni120  1  0.53850300  0.25632733  0.18128314  1.0
  Ni  Ni121  1  0.53850300  0.58966067  0.18128314  1.0
  Ni  Ni122  1  0.53850300  0.92299400  0.18128314  1.0
  Ni  Ni123  1  0.87183633  0.25632733  0.18128314  1.0
  Ni  Ni124  1  0.87183633  0.58966067  0.18128314  1.0
  Ni  Ni125  1  0.87183633  0.92299400  0.18128314  1.0
  Ni  Ni126  1  0.03850300  0.25632733  0.25271171  1.0
  Ni  Ni127  1  0.03850300  0.58966067  0.25271171  1.0
  Ni  Ni128  1  0.03850300  0.92299400  0.25271171  1.0
  Ni  Ni129  1  0.37183633  0.25632733  0.25271171  1.0
  Ni  Ni130  1  0.37183633  0.58966067  0.25271171  1.0
  Ni  Ni131  1  0.37183633  0.92299400  0.25271171  1.0
  Ni  Ni132  1  0.70516967  0.25632733  0.25271171  1.0
  Ni  Ni133  1  0.70516967  0.58966067  0.25271171  1.0
  Ni  Ni134  1  0.70516967  0.92299400  0.25271171  1.0
  Ni  Ni135  1  0.12816367  0.07700600  0.24728829  1.0
  Ni  Ni136  1  0.12816367  0.41033933  0.24728829  1.0
  Ni  Ni137  1  0.12816367  0.74367267  0.24728829  1.0
  Ni  Ni138  1  0.46149700  0.07700600  0.24728829  1.0
  Ni  Ni139  1  0.46149700  0.41033933  0.24728829  1.0
  Ni  Ni140  1  0.46149700  0.74367267  0.24728829  1.0
  Ni  Ni141  1  0.79483033  0.07700600  0.24728829  1.0
  Ni  Ni142  1  0.79483033  0.41033933  0.24728829  1.0
  Ni  Ni143  1  0.79483033  0.74367267  0.24728829  1.0
  Ge  Ge144  1  0.28189000  0.00000000  0.19190443  1.0
  Ge  Ge145  1  0.28189000  0.33333333  0.19190443  1.0
  Ge  Ge146  1  0.28189000  0.66666667  0.19190443  1.0
  Ge  Ge147  1  0.61522333  0.00000000  0.19190443  1.0
  Ge  Ge148  1  0.61522333  0.33333333  0.19190443  1.0
  Ge  Ge149  1  0.61522333  0.66666667  0.19190443  1.0
  Ge  Ge150  1  0.94855667  0.00000000  0.19190443  1.0
  Ge  Ge151  1  0.94855667  0.33333333  0.19190443  1.0
  Ge  Ge152  1  0.94855667  0.66666667  0.19190443  1.0
  Ge  Ge153  1  0.21811000  0.00000000  0.26333300  1.0
  Ge  Ge154  1  0.21811000  0.33333333  0.26333300  1.0
  Ge  Ge155  1  0.21811000  0.66666667  0.26333300  1.0
  Ge  Ge156  1  0.55144333  0.00000000  0.26333300  1.0
  Ge  Ge157  1  0.55144333  0.33333333  0.26333300  1.0
  Ge  Ge158  1  0.55144333  0.66666667  0.26333300  1.0
  Ge  Ge159  1  0.88477667  0.00000000  0.26333300  1.0
  Ge  Ge160  1  0.88477667  0.33333333  0.26333300  1.0
  Ge  Ge161  1  0.88477667  0.66666667  0.26333300  1.0
  Ge  Ge162  1  0.11522333  0.00000000  0.16523843  1.0
  Ge  Ge163  1  0.11522333  0.33333333  0.16523843  1.0
  Ge  Ge164  1  0.11522333  0.66666667  0.16523843  1.0
  Ge  Ge165  1  0.44855667  0.00000000  0.16523843  1.0
  Ge  Ge166  1  0.44855667  0.33333333  0.16523843  1.0
  Ge  Ge167  1  0.44855667  0.66666667  0.16523843  1.0
  Ge  Ge168  1  0.78189000  0.00000000  0.16523843  1.0
  Ge  Ge169  1  0.78189000  0.33333333  0.16523843  1.0
  Ge  Ge170  1  0.78189000  0.66666667  0.16523843  1.0
  Ge  Ge171  1  0.05144333  0.00000000  0.23666700  1.0
  Ge  Ge172  1  0.05144333  0.33333333  0.23666700  1.0
  Ge  Ge173  1  0.05144333  0.66666667  0.23666700  1.0
  Ge  Ge174  1  0.38477667  0.00000000  0.23666700  1.0
  Ge  Ge175  1  0.38477667  0.33333333  0.23666700  1.0
  Ge  Ge176  1  0.38477667  0.66666667  0.23666700  1.0
  Ge  Ge177  1  0.71811000  0.00000000  0.23666700  1.0
  Ge  Ge178  1  0.71811000  0.33333333  0.23666700  1.0
  Ge  Ge179  1  0.71811000  0.66666667  0.23666700  1.0
  Ge  Ge180  1  0.16743733  0.16666667  0.25000000  1.0
  Ge  Ge181  1  0.16743733  0.50000000  0.25000000  1.0
  Ge  Ge182  1  0.16743733  0.83333333  0.25000000  1.0
  Ge  Ge183  1  0.50077067  0.16666667  0.25000000  1.0
  Ge  Ge184  1  0.50077067  0.50000000  0.25000000  1.0
  Ge  Ge185  1  0.50077067  0.83333333  0.25000000  1.0
  Ge  Ge186  1  0.83410400  0.16666667  0.25000000  1.0
  Ge  Ge187  1  0.83410400  0.50000000  0.25000000  1.0
  Ge  Ge188  1  0.83410400  0.83333333  0.25000000  1.0
  Ge  Ge189  1  0.33256267  0.16666667  0.17857143  1.0
  Ge  Ge190  1  0.33256267  0.50000000  0.17857143  1.0
  Ge  Ge191  1  0.33256267  0.83333333  0.17857143  1.0
  Ge  Ge192  1  0.66589600  0.16666667  0.17857143  1.0
  Ge  Ge193  1  0.66589600  0.50000000  0.17857143  1.0
  Ge  Ge194  1  0.66589600  0.83333333  0.17857143  1.0
  Ge  Ge195  1  0.99922933  0.16666667  0.17857143  1.0
  Ge  Ge196  1  0.99922933  0.50000000  0.17857143  1.0
  Ge  Ge197  1  0.99922933  0.83333333  0.17857143  1.0
  Ge  Ge198  1  0.16589600  0.16666667  0.17857143  1.0
  Ge  Ge199  1  0.16589600  0.50000000  0.17857143  1.0
  Ge  Ge200  1  0.16589600  0.83333333  0.17857143  1.0
  Ge  Ge201  1  0.49922933  0.16666667  0.17857143  1.0
  Ge  Ge202  1  0.49922933  0.50000000  0.17857143  1.0
  Ge  Ge203  1  0.49922933  0.83333333  0.17857143  1.0
  Ge  Ge204  1  0.83256267  0.16666667  0.17857143  1.0
  Ge  Ge205  1  0.83256267  0.50000000  0.17857143  1.0
  Ge  Ge206  1  0.83256267  0.83333333  0.17857143  1.0
  Ge  Ge207  1  0.00077067  0.16666667  0.25000000  1.0
  Ge  Ge208  1  0.00077067  0.50000000  0.25000000  1.0
  Ge  Ge209  1  0.00077067  0.83333333  0.25000000  1.0
  Ge  Ge210  1  0.33410400  0.16666667  0.25000000  1.0
  Ge  Ge211  1  0.33410400  0.50000000  0.25000000  1.0
  Ge  Ge212  1  0.33410400  0.83333333  0.25000000  1.0
  Ge  Ge213  1  0.66743733  0.16666667  0.25000000  1.0
  Ge  Ge214  1  0.66743733  0.50000000  0.25000000  1.0
  Ge  Ge215  1  0.66743733  0.83333333  0.25000000  1.0
  Ni  Ni216  1  0.29483033  0.07700600  0.31871686  1.0
  Ni  Ni217  1  0.29483033  0.41033933  0.31871686  1.0
  Ni  Ni218  1  0.29483033  0.74367267  0.31871686  1.0
  Ni  Ni219  1  0.62816367  0.07700600  0.31871686  1.0
  Ni  Ni220  1  0.62816367  0.41033933  0.31871686  1.0
  Ni  Ni221  1  0.62816367  0.74367267  0.31871686  1.0
  Ni  Ni222  1  0.96149700  0.07700600  0.31871686  1.0
  Ni  Ni223  1  0.96149700  0.41033933  0.31871686  1.0
  Ni  Ni224  1  0.96149700  0.74367267  0.31871686  1.0
  Ni  Ni225  1  0.20516967  0.25632733  0.32414029  1.0
  Ni  Ni226  1  0.20516967  0.58966067  0.32414029  1.0
  Ni  Ni227  1  0.20516967  0.92299400  0.32414029  1.0
  Ni  Ni228  1  0.53850300  0.25632733  0.32414029  1.0
  Ni  Ni229  1  0.53850300  0.58966067  0.32414029  1.0
  Ni  Ni230  1  0.53850300  0.92299400  0.32414029  1.0
  Ni  Ni231  1  0.87183633  0.25632733  0.32414029  1.0
  Ni  Ni232  1  0.87183633  0.58966067  0.32414029  1.0
  Ni  Ni233  1  0.87183633  0.92299400  0.32414029  1.0
  Ni  Ni234  1  0.03850300  0.25632733  0.39556886  1.0
  Ni  Ni235  1  0.03850300  0.58966067  0.39556886  1.0
  Ni  Ni236  1  0.03850300  0.92299400  0.39556886  1.0
  Ni  Ni237  1  0.37183633  0.25632733  0.39556886  1.0
  Ni  Ni238  1  0.37183633  0.58966067  0.39556886  1.0
  Ni  Ni239  1  0.37183633  0.92299400  0.39556886  1.0
  Ni  Ni240  1  0.70516967  0.25632733  0.39556886  1.0
  Ni  Ni241  1  0.70516967  0.58966067  0.39556886  1.0
  Ni  Ni242  1  0.70516967  0.92299400  0.39556886  1.0
  Ni  Ni243  1  0.12816367  0.07700600  0.39014543  1.0
  Ni  Ni244  1  0.12816367  0.41033933  0.39014543  1.0
  Ni  Ni245  1  0.12816367  0.74367267  0.39014543  1.0
  Ni  Ni246  1  0.46149700  0.07700600  0.39014543  1.0
  Ni  Ni247  1  0.46149700  0.41033933  0.39014543  1.0
  Ni  Ni248  1  0.46149700  0.74367267  0.39014543  1.0
  Ni  Ni249  1  0.79483033  0.07700600  0.39014543  1.0
  Ni  Ni250  1  0.79483033  0.41033933  0.39014543  1.0
  Ni  Ni251  1  0.79483033  0.74367267  0.39014543  1.0
  Ge  Ge252  1  0.28189000  0.00000000  0.33476157  1.0
  Ge  Ge253  1  0.28189000  0.33333333  0.33476157  1.0
  Ge  Ge254  1  0.28189000  0.66666667  0.33476157  1.0
  Ge  Ge255  1  0.61522333  0.00000000  0.33476157  1.0
  Ge  Ge256  1  0.61522333  0.33333333  0.33476157  1.0
  Ge  Ge257  1  0.61522333  0.66666667  0.33476157  1.0
  Ge  Ge258  1  0.94855667  0.00000000  0.33476157  1.0
  Ge  Ge259  1  0.94855667  0.33333333  0.33476157  1.0
  Ge  Ge260  1  0.94855667  0.66666667  0.33476157  1.0
  Ge  Ge261  1  0.21811000  0.00000000  0.40619014  1.0
  Ge  Ge262  1  0.21811000  0.33333333  0.40619014  1.0
  Ge  Ge263  1  0.21811000  0.66666667  0.40619014  1.0
  Ge  Ge264  1  0.55144333  0.00000000  0.40619014  1.0
  Ge  Ge265  1  0.55144333  0.33333333  0.40619014  1.0
  Ge  Ge266  1  0.55144333  0.66666667  0.40619014  1.0
  Ge  Ge267  1  0.88477667  0.00000000  0.40619014  1.0
  Ge  Ge268  1  0.88477667  0.33333333  0.40619014  1.0
  Ge  Ge269  1  0.88477667  0.66666667  0.40619014  1.0
  Ge  Ge270  1  0.11522333  0.00000000  0.30809557  1.0
  Ge  Ge271  1  0.11522333  0.33333333  0.30809557  1.0
  Ge  Ge272  1  0.11522333  0.66666667  0.30809557  1.0
  Ge  Ge273  1  0.44855667  0.00000000  0.30809557  1.0
  Ge  Ge274  1  0.44855667  0.33333333  0.30809557  1.0
  Ge  Ge275  1  0.44855667  0.66666667  0.30809557  1.0
  Ge  Ge276  1  0.78189000  0.00000000  0.30809557  1.0
  Ge  Ge277  1  0.78189000  0.33333333  0.30809557  1.0
  Ge  Ge278  1  0.78189000  0.66666667  0.30809557  1.0
  Ge  Ge279  1  0.05144333  0.00000000  0.37952414  1.0
  Ge  Ge280  1  0.05144333  0.33333333  0.37952414  1.0
  Ge  Ge281  1  0.05144333  0.66666667  0.37952414  1.0
  Ge  Ge282  1  0.38477667  0.00000000  0.37952414  1.0
  Ge  Ge283  1  0.38477667  0.33333333  0.37952414  1.0
  Ge  Ge284  1  0.38477667  0.66666667  0.37952414  1.0
  Ge  Ge285  1  0.71811000  0.00000000  0.37952414  1.0
  Ge  Ge286  1  0.71811000  0.33333333  0.37952414  1.0
  Ge  Ge287  1  0.71811000  0.66666667  0.37952414  1.0
  Ge  Ge288  1  0.16743733  0.16666667  0.39285714  1.0
  Ge  Ge289  1  0.16743733  0.50000000  0.39285714  1.0
  Ge  Ge290  1  0.16743733  0.83333333  0.39285714  1.0
  Ge  Ge291  1  0.50077067  0.16666667  0.39285714  1.0
  Ge  Ge292  1  0.50077067  0.50000000  0.39285714  1.0
  Ge  Ge293  1  0.50077067  0.83333333  0.39285714  1.0
  Ge  Ge294  1  0.83410400  0.16666667  0.39285714  1.0
  Ge  Ge295  1  0.83410400  0.50000000  0.39285714  1.0
  Ge  Ge296  1  0.83410400  0.83333333  0.39285714  1.0
  Ge  Ge297  1  0.33256267  0.16666667  0.32142857  1.0
  Ge  Ge298  1  0.33256267  0.50000000  0.32142857  1.0
  Ge  Ge299  1  0.33256267  0.83333333  0.32142857  1.0
  Ge  Ge300  1  0.66589600  0.16666667  0.32142857  1.0
  Ge  Ge301  1  0.66589600  0.50000000  0.32142857  1.0
  Ge  Ge302  1  0.66589600  0.83333333  0.32142857  1.0
  Ge  Ge303  1  0.99922933  0.16666667  0.32142857  1.0
  Ge  Ge304  1  0.99922933  0.50000000  0.32142857  1.0
  Ge  Ge305  1  0.99922933  0.83333333  0.32142857  1.0
  Ge  Ge306  1  0.16589600  0.16666667  0.32142857  1.0
  Ge  Ge307  1  0.16589600  0.50000000  0.32142857  1.0
  Ge  Ge308  1  0.16589600  0.83333333  0.32142857  1.0
  Ge  Ge309  1  0.49922933  0.16666667  0.32142857  1.0
  Ge  Ge310  1  0.49922933  0.50000000  0.32142857  1.0
  Ge  Ge311  1  0.49922933  0.83333333  0.32142857  1.0
  Ge  Ge312  1  0.83256267  0.16666667  0.32142857  1.0
  Ge  Ge313  1  0.83256267  0.50000000  0.32142857  1.0
  Ge  Ge314  1  0.83256267  0.83333333  0.32142857  1.0
  Ge  Ge315  1  0.00077067  0.16666667  0.39285714  1.0
  Ge  Ge316  1  0.00077067  0.50000000  0.39285714  1.0
  Ge  Ge317  1  0.00077067  0.83333333  0.39285714  1.0
  Ge  Ge318  1  0.33410400  0.16666667  0.39285714  1.0
  Ge  Ge319  1  0.33410400  0.50000000  0.39285714  1.0
  Ge  Ge320  1  0.33410400  0.83333333  0.39285714  1.0
  Ge  Ge321  1  0.66743733  0.16666667  0.39285714  1.0
  Ge  Ge322  1  0.66743733  0.50000000  0.39285714  1.0
  Ge  Ge323  1  0.66743733  0.83333333  0.39285714  1.0
