# generated using pymatgen
data_NiGe
_symmetry_space_group_name_H-M   'P 1'
_cell_length_a   10.49056800
_cell_length_b   17.44755600
_cell_length_c   26.85566500
_cell_angle_alpha   90.00000000
_cell_angle_beta   90.00000000
_cell_angle_gamma   90.00000000
_symmetry_Int_Tables_number   1
_chemical_formula_structural   NiGe
_chemical_formula_sum   'Ni72 Ge72'
_cell_volume   4915.52053769
_cell_formula_units_Z   72
loop_
 _symmetry_equiv_pos_site_id
 _symmetry_equiv_pos_as_xyz
  1  'x, y, z'
loop_
 _atom_site_type_symbol
 _atom_site_label
 _atom_site_symmetry_multiplicity
 _atom_site_fract_x
 _atom_site_fract_y
 _atom_site_fract_z
 _atom_site_occupancy
  Ni  Ni0  1  0.25000000  0.23000033  0.07911300  1.0
  Ni  Ni1  1  0.25000000  0.56333367  0.07911300  1.0
  Ni  Ni2  1  0.25000000  0.89666700  0.07911300  1.0
  Ni  Ni3  1  0.58333333  0.23000033  0.07911300  1.0
  Ni  Ni4  1  0.58333333  0.56333367  0.07911300  1.0
  Ni  Ni5  1  0.58333333  0.89666700  0.07911300  1.0
  Ni  Ni6  1  0.91666667  0.23000033  0.07911300  1.0
  Ni  Ni7  1  0.91666667  0.56333367  0.07911300  1.0
  Ni  Ni8  1  0.91666667  0.89666700  0.07911300  1.0
  Ni  Ni9  1  0.08333333  0.10333300  0.08170980  1.0
  Ni  Ni10  1  0.08333333  0.43666633  0.08170980  1.0
  Ni  Ni11  1  0.08333333  0.76999967  0.08170980  1.0
  Ni  Ni12  1  0.41666667  0.10333300  0.08170980  1.0
  Ni  Ni13  1  0.41666667  0.43666633  0.08170980  1.0
  Ni  Ni14  1  0.41666667  0.76999967  0.08170980  1.0
  Ni  Ni15  1  0.75000000  0.10333300  0.08170980  1.0
  Ni  Ni16  1  0.75000000  0.43666633  0.08170980  1.0
  Ni  Ni17  1  0.75000000  0.76999967  0.08170980  1.0
  Ni  Ni18  1  0.25000000  0.26999967  0.17911300  1.0
  Ni  Ni19  1  0.25000000  0.60333300  0.17911300  1.0
  Ni  Ni20  1  0.25000000  0.93666633  0.17911300  1.0
  Ni  Ni21  1  0.58333333  0.26999967  0.17911300  1.0
  Ni  Ni22  1  0.58333333  0.60333300  0.17911300  1.0
  Ni  Ni23  1  0.58333333  0.93666633  0.17911300  1.0
  Ni  Ni24  1  0.91666667  0.26999967  0.17911300  1.0
  Ni  Ni25  1  0.91666667  0.60333300  0.17911300  1.0
  Ni  Ni26  1  0.91666667  0.93666633  0.17911300  1.0
  Ni  Ni27  1  0.08333333  0.06333367  0.18170980  1.0
  Ni  Ni28  1  0.08333333  0.39666700  0.18170980  1.0
  Ni  Ni29  1  0.08333333  0.73000033  0.18170980  1.0
  Ni  Ni30  1  0.41666667  0.06333367  0.18170980  1.0
  Ni  Ni31  1  0.41666667  0.39666700  0.18170980  1.0
  Ni  Ni32  1  0.41666667  0.73000033  0.18170980  1.0
  Ni  Ni33  1  0.75000000  0.06333367  0.18170980  1.0
  Ni  Ni34  1  0.75000000  0.39666700  0.18170980  1.0
  Ni  Ni35  1  0.75000000  0.73000033  0.18170980  1.0
  Ge  Ge36  1  0.25000000  0.02960733  0.04253260  1.0
  Ge  Ge37  1  0.25000000  0.36294067  0.04253260  1.0
  Ge  Ge38  1  0.25000000  0.69627400  0.04253260  1.0
  Ge  Ge39  1  0.58333333  0.02960733  0.04253260  1.0
  Ge  Ge40  1  0.58333333  0.36294067  0.04253260  1.0
  Ge  Ge41  1  0.58333333  0.69627400  0.04253260  1.0
  Ge  Ge42  1  0.91666667  0.02960733  0.04253260  1.0
  Ge  Ge43  1  0.91666667  0.36294067  0.04253260  1.0
  Ge  Ge44  1  0.91666667  0.69627400  0.04253260  1.0
  Ge  Ge45  1  0.08333333  0.30372600  0.11829020  1.0
  Ge  Ge46  1  0.08333333  0.63705933  0.11829020  1.0
  Ge  Ge47  1  0.08333333  0.97039267  0.11829020  1.0
  Ge  Ge48  1  0.41666667  0.30372600  0.11829020  1.0
  Ge  Ge49  1  0.41666667  0.63705933  0.11829020  1.0
  Ge  Ge50  1  0.41666667  0.97039267  0.11829020  1.0
  Ge  Ge51  1  0.75000000  0.30372600  0.11829020  1.0
  Ge  Ge52  1  0.75000000  0.63705933  0.11829020  1.0
  Ge  Ge53  1  0.75000000  0.97039267  0.11829020  1.0
  Ge  Ge54  1  0.25000000  0.13705933  0.14253260  1.0
  Ge  Ge55  1  0.25000000  0.47039267  0.14253260  1.0
  Ge  Ge56  1  0.25000000  0.80372600  0.14253260  1.0
  Ge  Ge57  1  0.58333333  0.13705933  0.14253260  1.0
  Ge  Ge58  1  0.58333333  0.47039267  0.14253260  1.0
  Ge  Ge59  1  0.58333333  0.80372600  0.14253260  1.0
  Ge  Ge60  1  0.91666667  0.13705933  0.14253260  1.0
  Ge  Ge61  1  0.91666667  0.47039267  0.14253260  1.0
  Ge  Ge62  1  0.91666667  0.80372600  0.14253260  1.0
  Ge  Ge63  1  0.08333333  0.19627400  0.01829020  1.0
  Ge  Ge64  1  0.08333333  0.52960733  0.01829020  1.0
  Ge  Ge65  1  0.08333333  0.86294067  0.01829020  1.0
  Ge  Ge66  1  0.41666667  0.19627400  0.01829020  1.0
  Ge  Ge67  1  0.41666667  0.52960733  0.01829020  1.0
  Ge  Ge68  1  0.41666667  0.86294067  0.01829020  1.0
  Ge  Ge69  1  0.75000000  0.19627400  0.01829020  1.0
  Ge  Ge70  1  0.75000000  0.52960733  0.01829020  1.0
  Ge  Ge71  1  0.75000000  0.86294067  0.01829020  1.0
  Ni  Ni72  1  0.25000000  0.23000033  0.27911300  1.0
  Ni  Ni73  1  0.25000000  0.56333367  0.27911300  1.0
  Ni  Ni74  1  0.25000000  0.89666700  0.27911300  1.0
  Ni  Ni75  1  0.58333333  0.23000033  0.27911300  1.0
  Ni  Ni76  1  0.58333333  0.56333367  0.27911300  1.0
  Ni  Ni77  1  0.58333333  0.89666700  0.27911300  1.0
  Ni  Ni78  1  0.91666667  0.23000033  0.27911300  1.0
  Ni  Ni79  1  0.91666667  0.56333367  0.27911300  1.0
  Ni  Ni80  1  0.91666667  0.89666700  0.27911300  1.0
  Ni  Ni81  1  0.08333333  0.10333300  0.28170980  1.0
  Ni  Ni82  1  0.08333333  0.43666633  0.28170980  1.0
  Ni  Ni83  1  0.08333333  0.76999967  0.28170980  1.0
  Ni  Ni84  1  0.41666667  0.10333300  0.28170980  1.0
  Ni  Ni85  1  0.41666667  0.43666633  0.28170980  1.0
  Ni  Ni86  1  0.41666667  0.76999967  0.28170980  1.0
  Ni  Ni87  1  0.75000000  0.10333300  0.28170980  1.0
  Ni  Ni88  1  0.75000000  0.43666633  0.28170980  1.0
  Ni  Ni89  1  0.75000000  0.76999967  0.28170980  1.0
  Ni  Ni90  1  0.25000000  0.26999967  0.37911300  1.0
  Ni  Ni91  1  0.25000000  0.60333300  0.37911300  1.0
  Ni  Ni92  1  0.25000000  0.93666633  0.37911300  1.0
  Ni  Ni93  1  0.58333333  0.26999967  0.37911300  1.0
  Ni  Ni94  1  0.58333333  0.60333300  0.37911300  1.0
  Ni  Ni95  1  0.58333333  0.93666633  0.37911300  1.0
  Ni  Ni96  1  0.91666667  0.26999967  0.37911300  1.0
  Ni  Ni97  1  0.91666667  0.60333300  0.37911300  1.0
  Ni  Ni98  1  0.91666667  0.93666633  0.37911300  1.0
  Ni  Ni99  1  0.08333333  0.06333367  0.38170980  1.0
  Ni  Ni100  1  0.08333333  0.39666700  0.38170980  1.0
  Ni  Ni101  1  0.08333333  0.73000033  0.38170980  1.0
  Ni  Ni102  1  0.41666667  0.06333367  0.38170980  1.0
  Ni  Ni103  1  0.41666667  0.39666700  0.38170980  1.0
  Ni  Ni104  1  0.41666667  0.73000033  0.38170980  1.0
  Ni  Ni105  1  0.75000000  0.06333367  0.38170980  1.0
  Ni  Ni106  1  0.75000000  0.39666700  0.38170980  1.0
  Ni  Ni107  1  0.75000000  0.73000033  0.38170980  1.0
  Ge  Ge108  1  0.25000000  0.02960733  0.24253260  1.0
  Ge  Ge109  1  0.25000000  0.36294067  0.24253260  1.0
  Ge  Ge110  1  0.25000000  0.69627400  0.24253260  1.0
  Ge  Ge111  1  0.58333333  0.02960733  0.24253260  1.0
  Ge  Ge112  1  0.58333333  0.36294067  0.24253260  1.0
  Ge  Ge113  1  0.58333333  0.69627400  0.24253260  1.0
  Ge  Ge114  1  0.91666667  0.02960733  0.24253260  1.0
  Ge  Ge115  1  0.91666667  0.36294067  0.24253260  1.0
  Ge  Ge116  1  0.91666667  0.69627400  0.24253260  1.0
  Ge  Ge117  1  0.08333333  0.30372600  0.31829020  1.0
  Ge  Ge118  1  0.08333333  0.63705933  0.31829020  1.0
  Ge  Ge119  1  0.08333333  0.97039267  0.31829020  1.0
  Ge  Ge120  1  0.41666667  0.30372600  0.31829020  1.0
  Ge  Ge121  1  0.41666667  0.63705933  0.31829020  1.0
  Ge  Ge122  1  0.41666667  0.97039267  0.31829020  1.0
  Ge  Ge123  1  0.75000000  0.30372600  0.31829020  1.0
  Ge  Ge124  1  0.75000000  0.63705933  0.31829020  1.0
  Ge  Ge125  1  0.75000000  0.97039267  0.31829020  1.0
  Ge  Ge126  1  0.25000000  0.13705933  0.34253260  1.0
  Ge  Ge127  1  0.25000000  0.47039267  0.34253260  1.0
  Ge  Ge128  1  0.25000000  0.80372600  0.34253260  1.0
  Ge  Ge129  1  0.58333333  0.13705933  0.34253260  1.0
  Ge  Ge130  1  0.58333333  0.47039267  0.34253260  1.0
  Ge  Ge131  1  0.58333333  0.80372600  0.34253260  1.0
  Ge  Ge132  1  0.91666667  0.13705933  0.34253260  1.0
  Ge  Ge133  1  0.91666667  0.47039267  0.34253260  1.0
  Ge  Ge134  1  0.91666667  0.80372600  0.34253260  1.0
  Ge  Ge135  1  0.08333333  0.19627400  0.21829020  1.0
  Ge  Ge136  1  0.08333333  0.52960733  0.21829020  1.0
  Ge  Ge137  1  0.08333333  0.86294067  0.21829020  1.0
  Ge  Ge138  1  0.41666667  0.19627400  0.21829020  1.0
  Ge  Ge139  1  0.41666667  0.52960733  0.21829020  1.0
  Ge  Ge140  1  0.41666667  0.86294067  0.21829020  1.0
  Ge  Ge141  1  0.75000000  0.19627400  0.21829020  1.0
  Ge  Ge142  1  0.75000000  0.52960733  0.21829020  1.0
  Ge  Ge143  1  0.75000000  0.86294067  0.21829020  1.0
