# generated using pymatgen
data_NiGe
_symmetry_space_group_name_H-M   'P 1'
_cell_length_a   17.44755600
_cell_length_b   26.45467246
_cell_length_c   37.59793100
_cell_angle_alpha   52.47593225
_cell_angle_beta   90.00000000
_cell_angle_gamma   90.00000000
_symmetry_Int_Tables_number   1
_chemical_formula_structural   NiGe
_chemical_formula_sum   'Ni216 Ge216'
_cell_volume   13763.45750553
_cell_formula_units_Z   216
loop_
 _symmetry_equiv_pos_site_id
 _symmetry_equiv_pos_as_xyz
  1  'x, y, z'
loop_
 _atom_site_type_symbol
 _atom_site_label
 _atom_site_symmetry_multiplicity
 _atom_site_fract_x
 _atom_site_fract_y
 _atom_site_fract_z
 _atom_site_occupancy
  Ni  Ni0  1  0.23000033  0.04166667  0.05264400  1.0
  Ni  Ni1  1  0.23000033  0.37500000  0.05264400  1.0
  Ni  Ni2  1  0.23000033  0.70833333  0.05264400  1.0
  Ni  Ni3  1  0.56333367  0.04166667  0.05264400  1.0
  Ni  Ni4  1  0.56333367  0.37500000  0.05264400  1.0
  Ni  Ni5  1  0.56333367  0.70833333  0.05264400  1.0
  Ni  Ni6  1  0.89666700  0.04166667  0.05264400  1.0
  Ni  Ni7  1  0.89666700  0.37500000  0.05264400  1.0
  Ni  Ni8  1  0.89666700  0.70833333  0.05264400  1.0
  Ni  Ni9  1  0.23000033  0.20833333  0.12407257  1.0
  Ni  Ni10  1  0.23000033  0.54166667  0.12407257  1.0
  Ni  Ni11  1  0.23000033  0.87500000  0.12407257  1.0
  Ni  Ni12  1  0.56333367  0.20833333  0.12407257  1.0
  Ni  Ni13  1  0.56333367  0.54166667  0.12407257  1.0
  Ni  Ni14  1  0.56333367  0.87500000  0.12407257  1.0
  Ni  Ni15  1  0.89666700  0.20833333  0.12407257  1.0
  Ni  Ni16  1  0.89666700  0.54166667  0.12407257  1.0
  Ni  Ni17  1  0.89666700  0.87500000  0.12407257  1.0
  Ni  Ni18  1  0.10333300  0.12500000  0.01878457  1.0
  Ni  Ni19  1  0.10333300  0.45833333  0.01878457  1.0
  Ni  Ni20  1  0.10333300  0.79166667  0.01878457  1.0
  Ni  Ni21  1  0.43666633  0.12500000  0.01878457  1.0
  Ni  Ni22  1  0.43666633  0.45833333  0.01878457  1.0
  Ni  Ni23  1  0.43666633  0.79166667  0.01878457  1.0
  Ni  Ni24  1  0.76999967  0.12500000  0.01878457  1.0
  Ni  Ni25  1  0.76999967  0.45833333  0.01878457  1.0
  Ni  Ni26  1  0.76999967  0.79166667  0.01878457  1.0
  Ni  Ni27  1  0.10333300  0.29166667  0.09021314  1.0
  Ni  Ni28  1  0.10333300  0.62500000  0.09021314  1.0
  Ni  Ni29  1  0.10333300  0.95833333  0.09021314  1.0
  Ni  Ni30  1  0.43666633  0.29166667  0.09021314  1.0
  Ni  Ni31  1  0.43666633  0.62500000  0.09021314  1.0
  Ni  Ni32  1  0.43666633  0.95833333  0.09021314  1.0
  Ni  Ni33  1  0.76999967  0.29166667  0.09021314  1.0
  Ni  Ni34  1  0.76999967  0.62500000  0.09021314  1.0
  Ni  Ni35  1  0.76999967  0.95833333  0.09021314  1.0
  Ni  Ni36  1  0.26999967  0.04166667  0.12407257  1.0
  Ni  Ni37  1  0.26999967  0.37500000  0.12407257  1.0
  Ni  Ni38  1  0.26999967  0.70833333  0.12407257  1.0
  Ni  Ni39  1  0.60333300  0.04166667  0.12407257  1.0
  Ni  Ni40  1  0.60333300  0.37500000  0.12407257  1.0
  Ni  Ni41  1  0.60333300  0.70833333  0.12407257  1.0
  Ni  Ni42  1  0.93666633  0.04166667  0.12407257  1.0
  Ni  Ni43  1  0.93666633  0.37500000  0.12407257  1.0
  Ni  Ni44  1  0.93666633  0.70833333  0.12407257  1.0
  Ni  Ni45  1  0.26999967  0.20833333  0.05264400  1.0
  Ni  Ni46  1  0.26999967  0.54166667  0.05264400  1.0
  Ni  Ni47  1  0.26999967  0.87500000  0.05264400  1.0
  Ni  Ni48  1  0.60333300  0.20833333  0.05264400  1.0
  Ni  Ni49  1  0.60333300  0.54166667  0.05264400  1.0
  Ni  Ni50  1  0.60333300  0.87500000  0.05264400  1.0
  Ni  Ni51  1  0.93666633  0.20833333  0.05264400  1.0
  Ni  Ni52  1  0.93666633  0.54166667  0.05264400  1.0
  Ni  Ni53  1  0.93666633  0.87500000  0.05264400  1.0
  Ni  Ni54  1  0.06333367  0.12500000  0.09021314  1.0
  Ni  Ni55  1  0.06333367  0.45833333  0.09021314  1.0
  Ni  Ni56  1  0.06333367  0.79166667  0.09021314  1.0
  Ni  Ni57  1  0.39666700  0.12500000  0.09021314  1.0
  Ni  Ni58  1  0.39666700  0.45833333  0.09021314  1.0
  Ni  Ni59  1  0.39666700  0.79166667  0.09021314  1.0
  Ni  Ni60  1  0.73000033  0.12500000  0.09021314  1.0
  Ni  Ni61  1  0.73000033  0.45833333  0.09021314  1.0
  Ni  Ni62  1  0.73000033  0.79166667  0.09021314  1.0
  Ni  Ni63  1  0.06333367  0.29166667  0.01878457  1.0
  Ni  Ni64  1  0.06333367  0.62500000  0.01878457  1.0
  Ni  Ni65  1  0.06333367  0.95833333  0.01878457  1.0
  Ni  Ni66  1  0.39666700  0.29166667  0.01878457  1.0
  Ni  Ni67  1  0.39666700  0.62500000  0.01878457  1.0
  Ni  Ni68  1  0.39666700  0.95833333  0.01878457  1.0
  Ni  Ni69  1  0.73000033  0.29166667  0.01878457  1.0
  Ni  Ni70  1  0.73000033  0.62500000  0.01878457  1.0
  Ni  Ni71  1  0.73000033  0.95833333  0.01878457  1.0
  Ge  Ge72  1  0.02960733  0.04166667  0.02651514  1.0
  Ge  Ge73  1  0.02960733  0.37500000  0.02651514  1.0
  Ge  Ge74  1  0.02960733  0.70833333  0.02651514  1.0
  Ge  Ge75  1  0.36294067  0.04166667  0.02651514  1.0
  Ge  Ge76  1  0.36294067  0.37500000  0.02651514  1.0
  Ge  Ge77  1  0.36294067  0.70833333  0.02651514  1.0
  Ge  Ge78  1  0.69627400  0.04166667  0.02651514  1.0
  Ge  Ge79  1  0.69627400  0.37500000  0.02651514  1.0
  Ge  Ge80  1  0.69627400  0.70833333  0.02651514  1.0
  Ge  Ge81  1  0.02960733  0.20833333  0.09794371  1.0
  Ge  Ge82  1  0.02960733  0.54166667  0.09794371  1.0
  Ge  Ge83  1  0.02960733  0.87500000  0.09794371  1.0
  Ge  Ge84  1  0.36294067  0.20833333  0.09794371  1.0
  Ge  Ge85  1  0.36294067  0.54166667  0.09794371  1.0
  Ge  Ge86  1  0.36294067  0.87500000  0.09794371  1.0
  Ge  Ge87  1  0.69627400  0.20833333  0.09794371  1.0
  Ge  Ge88  1  0.69627400  0.54166667  0.09794371  1.0
  Ge  Ge89  1  0.69627400  0.87500000  0.09794371  1.0
  Ge  Ge90  1  0.30372600  0.12500000  0.04491343  1.0
  Ge  Ge91  1  0.30372600  0.45833333  0.04491343  1.0
  Ge  Ge92  1  0.30372600  0.79166667  0.04491343  1.0
  Ge  Ge93  1  0.63705933  0.12500000  0.04491343  1.0
  Ge  Ge94  1  0.63705933  0.45833333  0.04491343  1.0
  Ge  Ge95  1  0.63705933  0.79166667  0.04491343  1.0
  Ge  Ge96  1  0.97039267  0.12500000  0.04491343  1.0
  Ge  Ge97  1  0.97039267  0.45833333  0.04491343  1.0
  Ge  Ge98  1  0.97039267  0.79166667  0.04491343  1.0
  Ge  Ge99  1  0.30372600  0.29166667  0.11634200  1.0
  Ge  Ge100  1  0.30372600  0.62500000  0.11634200  1.0
  Ge  Ge101  1  0.30372600  0.95833333  0.11634200  1.0
  Ge  Ge102  1  0.63705933  0.29166667  0.11634200  1.0
  Ge  Ge103  1  0.63705933  0.62500000  0.11634200  1.0
  Ge  Ge104  1  0.63705933  0.95833333  0.11634200  1.0
  Ge  Ge105  1  0.97039267  0.29166667  0.11634200  1.0
  Ge  Ge106  1  0.97039267  0.62500000  0.11634200  1.0
  Ge  Ge107  1  0.97039267  0.95833333  0.11634200  1.0
  Ge  Ge108  1  0.13705933  0.04166667  0.09794371  1.0
  Ge  Ge109  1  0.13705933  0.37500000  0.09794371  1.0
  Ge  Ge110  1  0.13705933  0.70833333  0.09794371  1.0
  Ge  Ge111  1  0.47039267  0.04166667  0.09794371  1.0
  Ge  Ge112  1  0.47039267  0.37500000  0.09794371  1.0
  Ge  Ge113  1  0.47039267  0.70833333  0.09794371  1.0
  Ge  Ge114  1  0.80372600  0.04166667  0.09794371  1.0
  Ge  Ge115  1  0.80372600  0.37500000  0.09794371  1.0
  Ge  Ge116  1  0.80372600  0.70833333  0.09794371  1.0
  Ge  Ge117  1  0.13705933  0.20833333  0.02651514  1.0
  Ge  Ge118  1  0.13705933  0.54166667  0.02651514  1.0
  Ge  Ge119  1  0.13705933  0.87500000  0.02651514  1.0
  Ge  Ge120  1  0.47039267  0.20833333  0.02651514  1.0
  Ge  Ge121  1  0.47039267  0.54166667  0.02651514  1.0
  Ge  Ge122  1  0.47039267  0.87500000  0.02651514  1.0
  Ge  Ge123  1  0.80372600  0.20833333  0.02651514  1.0
  Ge  Ge124  1  0.80372600  0.54166667  0.02651514  1.0
  Ge  Ge125  1  0.80372600  0.87500000  0.02651514  1.0
  Ge  Ge126  1  0.19627400  0.12500000  0.11634200  1.0
  Ge  Ge127  1  0.19627400  0.45833333  0.11634200  1.0
  Ge  Ge128  1  0.19627400  0.79166667  0.11634200  1.0
  Ge  Ge129  1  0.52960733  0.12500000  0.11634200  1.0
  Ge  Ge130  1  0.52960733  0.45833333  0.11634200  1.0
  Ge  Ge131  1  0.52960733  0.79166667  0.11634200  1.0
  Ge  Ge132  1  0.86294067  0.12500000  0.11634200  1.0
  Ge  Ge133  1  0.86294067  0.45833333  0.11634200  1.0
  Ge  Ge134  1  0.86294067  0.79166667  0.11634200  1.0
  Ge  Ge135  1  0.19627400  0.29166667  0.04491343  1.0
  Ge  Ge136  1  0.19627400  0.62500000  0.04491343  1.0
  Ge  Ge137  1  0.19627400  0.95833333  0.04491343  1.0
  Ge  Ge138  1  0.52960733  0.29166667  0.04491343  1.0
  Ge  Ge139  1  0.52960733  0.62500000  0.04491343  1.0
  Ge  Ge140  1  0.52960733  0.95833333  0.04491343  1.0
  Ge  Ge141  1  0.86294067  0.29166667  0.04491343  1.0
  Ge  Ge142  1  0.86294067  0.62500000  0.04491343  1.0
  Ge  Ge143  1  0.86294067  0.95833333  0.04491343  1.0
  Ni  Ni144  1  0.23000033  0.04166667  0.19550114  1.0
  Ni  Ni145  1  0.23000033  0.37500000  0.19550114  1.0
  Ni  Ni146  1  0.23000033  0.70833333  0.19550114  1.0
  Ni  Ni147  1  0.56333367  0.04166667  0.19550114  1.0
  Ni  Ni148  1  0.56333367  0.37500000  0.19550114  1.0
  Ni  Ni149  1  0.56333367  0.70833333  0.19550114  1.0
  Ni  Ni150  1  0.89666700  0.04166667  0.19550114  1.0
  Ni  Ni151  1  0.89666700  0.37500000  0.19550114  1.0
  Ni  Ni152  1  0.89666700  0.70833333  0.19550114  1.0
  Ni  Ni153  1  0.23000033  0.20833333  0.26692971  1.0
  Ni  Ni154  1  0.23000033  0.54166667  0.26692971  1.0
  Ni  Ni155  1  0.23000033  0.87500000  0.26692971  1.0
  Ni  Ni156  1  0.56333367  0.20833333  0.26692971  1.0
  Ni  Ni157  1  0.56333367  0.54166667  0.26692971  1.0
  Ni  Ni158  1  0.56333367  0.87500000  0.26692971  1.0
  Ni  Ni159  1  0.89666700  0.20833333  0.26692971  1.0
  Ni  Ni160  1  0.89666700  0.54166667  0.26692971  1.0
  Ni  Ni161  1  0.89666700  0.87500000  0.26692971  1.0
  Ni  Ni162  1  0.10333300  0.12500000  0.16164171  1.0
  Ni  Ni163  1  0.10333300  0.45833333  0.16164171  1.0
  Ni  Ni164  1  0.10333300  0.79166667  0.16164171  1.0
  Ni  Ni165  1  0.43666633  0.12500000  0.16164171  1.0
  Ni  Ni166  1  0.43666633  0.45833333  0.16164171  1.0
  Ni  Ni167  1  0.43666633  0.79166667  0.16164171  1.0
  Ni  Ni168  1  0.76999967  0.12500000  0.16164171  1.0
  Ni  Ni169  1  0.76999967  0.45833333  0.16164171  1.0
  Ni  Ni170  1  0.76999967  0.79166667  0.16164171  1.0
  Ni  Ni171  1  0.10333300  0.29166667  0.23307029  1.0
  Ni  Ni172  1  0.10333300  0.62500000  0.23307029  1.0
  Ni  Ni173  1  0.10333300  0.95833333  0.23307029  1.0
  Ni  Ni174  1  0.43666633  0.29166667  0.23307029  1.0
  Ni  Ni175  1  0.43666633  0.62500000  0.23307029  1.0
  Ni  Ni176  1  0.43666633  0.95833333  0.23307029  1.0
  Ni  Ni177  1  0.76999967  0.29166667  0.23307029  1.0
  Ni  Ni178  1  0.76999967  0.62500000  0.23307029  1.0
  Ni  Ni179  1  0.76999967  0.95833333  0.23307029  1.0
  Ni  Ni180  1  0.26999967  0.04166667  0.26692971  1.0
  Ni  Ni181  1  0.26999967  0.37500000  0.26692971  1.0
  Ni  Ni182  1  0.26999967  0.70833333  0.26692971  1.0
  Ni  Ni183  1  0.60333300  0.04166667  0.26692971  1.0
  Ni  Ni184  1  0.60333300  0.37500000  0.26692971  1.0
  Ni  Ni185  1  0.60333300  0.70833333  0.26692971  1.0
  Ni  Ni186  1  0.93666633  0.04166667  0.26692971  1.0
  Ni  Ni187  1  0.93666633  0.37500000  0.26692971  1.0
  Ni  Ni188  1  0.93666633  0.70833333  0.26692971  1.0
  Ni  Ni189  1  0.26999967  0.20833333  0.19550114  1.0
  Ni  Ni190  1  0.26999967  0.54166667  0.19550114  1.0
  Ni  Ni191  1  0.26999967  0.87500000  0.19550114  1.0
  Ni  Ni192  1  0.60333300  0.20833333  0.19550114  1.0
  Ni  Ni193  1  0.60333300  0.54166667  0.19550114  1.0
  Ni  Ni194  1  0.60333300  0.87500000  0.19550114  1.0
  Ni  Ni195  1  0.93666633  0.20833333  0.19550114  1.0
  Ni  Ni196  1  0.93666633  0.54166667  0.19550114  1.0
  Ni  Ni197  1  0.93666633  0.87500000  0.19550114  1.0
  Ni  Ni198  1  0.06333367  0.12500000  0.23307029  1.0
  Ni  Ni199  1  0.06333367  0.45833333  0.23307029  1.0
  Ni  Ni200  1  0.06333367  0.79166667  0.23307029  1.0
  Ni  Ni201  1  0.39666700  0.12500000  0.23307029  1.0
  Ni  Ni202  1  0.39666700  0.45833333  0.23307029  1.0
  Ni  Ni203  1  0.39666700  0.79166667  0.23307029  1.0
  Ni  Ni204  1  0.73000033  0.12500000  0.23307029  1.0
  Ni  Ni205  1  0.73000033  0.45833333  0.23307029  1.0
  Ni  Ni206  1  0.73000033  0.79166667  0.23307029  1.0
  Ni  Ni207  1  0.06333367  0.29166667  0.16164171  1.0
  Ni  Ni208  1  0.06333367  0.62500000  0.16164171  1.0
  Ni  Ni209  1  0.06333367  0.95833333  0.16164171  1.0
  Ni  Ni210  1  0.39666700  0.29166667  0.16164171  1.0
  Ni  Ni211  1  0.39666700  0.62500000  0.16164171  1.0
  Ni  Ni212  1  0.39666700  0.95833333  0.16164171  1.0
  Ni  Ni213  1  0.73000033  0.29166667  0.16164171  1.0
  Ni  Ni214  1  0.73000033  0.62500000  0.16164171  1.0
  Ni  Ni215  1  0.73000033  0.95833333  0.16164171  1.0
  Ge  Ge216  1  0.02960733  0.04166667  0.16937229  1.0
  Ge  Ge217  1  0.02960733  0.37500000  0.16937229  1.0
  Ge  Ge218  1  0.02960733  0.70833333  0.16937229  1.0
  Ge  Ge219  1  0.36294067  0.04166667  0.16937229  1.0
  Ge  Ge220  1  0.36294067  0.37500000  0.16937229  1.0
  Ge  Ge221  1  0.36294067  0.70833333  0.16937229  1.0
  Ge  Ge222  1  0.69627400  0.04166667  0.16937229  1.0
  Ge  Ge223  1  0.69627400  0.37500000  0.16937229  1.0
  Ge  Ge224  1  0.69627400  0.70833333  0.16937229  1.0
  Ge  Ge225  1  0.02960733  0.20833333  0.24080086  1.0
  Ge  Ge226  1  0.02960733  0.54166667  0.24080086  1.0
  Ge  Ge227  1  0.02960733  0.87500000  0.24080086  1.0
  Ge  Ge228  1  0.36294067  0.20833333  0.24080086  1.0
  Ge  Ge229  1  0.36294067  0.54166667  0.24080086  1.0
  Ge  Ge230  1  0.36294067  0.87500000  0.24080086  1.0
  Ge  Ge231  1  0.69627400  0.20833333  0.24080086  1.0
  Ge  Ge232  1  0.69627400  0.54166667  0.24080086  1.0
  Ge  Ge233  1  0.69627400  0.87500000  0.24080086  1.0
  Ge  Ge234  1  0.30372600  0.12500000  0.18777057  1.0
  Ge  Ge235  1  0.30372600  0.45833333  0.18777057  1.0
  Ge  Ge236  1  0.30372600  0.79166667  0.18777057  1.0
  Ge  Ge237  1  0.63705933  0.12500000  0.18777057  1.0
  Ge  Ge238  1  0.63705933  0.45833333  0.18777057  1.0
  Ge  Ge239  1  0.63705933  0.79166667  0.18777057  1.0
  Ge  Ge240  1  0.97039267  0.12500000  0.18777057  1.0
  Ge  Ge241  1  0.97039267  0.45833333  0.18777057  1.0
  Ge  Ge242  1  0.97039267  0.79166667  0.18777057  1.0
  Ge  Ge243  1  0.30372600  0.29166667  0.25919914  1.0
  Ge  Ge244  1  0.30372600  0.62500000  0.25919914  1.0
  Ge  Ge245  1  0.30372600  0.95833333  0.25919914  1.0
  Ge  Ge246  1  0.63705933  0.29166667  0.25919914  1.0
  Ge  Ge247  1  0.63705933  0.62500000  0.25919914  1.0
  Ge  Ge248  1  0.63705933  0.95833333  0.25919914  1.0
  Ge  Ge249  1  0.97039267  0.29166667  0.25919914  1.0
  Ge  Ge250  1  0.97039267  0.62500000  0.25919914  1.0
  Ge  Ge251  1  0.97039267  0.95833333  0.25919914  1.0
  Ge  Ge252  1  0.13705933  0.04166667  0.24080086  1.0
  Ge  Ge253  1  0.13705933  0.37500000  0.24080086  1.0
  Ge  Ge254  1  0.13705933  0.70833333  0.24080086  1.0
  Ge  Ge255  1  0.47039267  0.04166667  0.24080086  1.0
  Ge  Ge256  1  0.47039267  0.37500000  0.24080086  1.0
  Ge  Ge257  1  0.47039267  0.70833333  0.24080086  1.0
  Ge  Ge258  1  0.80372600  0.04166667  0.24080086  1.0
  Ge  Ge259  1  0.80372600  0.37500000  0.24080086  1.0
  Ge  Ge260  1  0.80372600  0.70833333  0.24080086  1.0
  Ge  Ge261  1  0.13705933  0.20833333  0.16937229  1.0
  Ge  Ge262  1  0.13705933  0.54166667  0.16937229  1.0
  Ge  Ge263  1  0.13705933  0.87500000  0.16937229  1.0
  Ge  Ge264  1  0.47039267  0.20833333  0.16937229  1.0
  Ge  Ge265  1  0.47039267  0.54166667  0.16937229  1.0
  Ge  Ge266  1  0.47039267  0.87500000  0.16937229  1.0
  Ge  Ge267  1  0.80372600  0.20833333  0.16937229  1.0
  Ge  Ge268  1  0.80372600  0.54166667  0.16937229  1.0
  Ge  Ge269  1  0.80372600  0.87500000  0.16937229  1.0
  Ge  Ge270  1  0.19627400  0.12500000  0.25919914  1.0
  Ge  Ge271  1  0.19627400  0.45833333  0.25919914  1.0
  Ge  Ge272  1  0.19627400  0.79166667  0.25919914  1.0
  Ge  Ge273  1  0.52960733  0.12500000  0.25919914  1.0
  Ge  Ge274  1  0.52960733  0.45833333  0.25919914  1.0
  Ge  Ge275  1  0.52960733  0.79166667  0.25919914  1.0
  Ge  Ge276  1  0.86294067  0.12500000  0.25919914  1.0
  Ge  Ge277  1  0.86294067  0.45833333  0.25919914  1.0
  Ge  Ge278  1  0.86294067  0.79166667  0.25919914  1.0
  Ge  Ge279  1  0.19627400  0.29166667  0.18777057  1.0
  Ge  Ge280  1  0.19627400  0.62500000  0.18777057  1.0
  Ge  Ge281  1  0.19627400  0.95833333  0.18777057  1.0
  Ge  Ge282  1  0.52960733  0.29166667  0.18777057  1.0
  Ge  Ge283  1  0.52960733  0.62500000  0.18777057  1.0
  Ge  Ge284  1  0.52960733  0.95833333  0.18777057  1.0
  Ge  Ge285  1  0.86294067  0.29166667  0.18777057  1.0
  Ge  Ge286  1  0.86294067  0.62500000  0.18777057  1.0
  Ge  Ge287  1  0.86294067  0.95833333  0.18777057  1.0
  Ni  Ni288  1  0.23000033  0.04166667  0.33835829  1.0
  Ni  Ni289  1  0.23000033  0.37500000  0.33835829  1.0
  Ni  Ni290  1  0.23000033  0.70833333  0.33835829  1.0
  Ni  Ni291  1  0.56333367  0.04166667  0.33835829  1.0
  Ni  Ni292  1  0.56333367  0.37500000  0.33835829  1.0
  Ni  Ni293  1  0.56333367  0.70833333  0.33835829  1.0
  Ni  Ni294  1  0.89666700  0.04166667  0.33835829  1.0
  Ni  Ni295  1  0.89666700  0.37500000  0.33835829  1.0
  Ni  Ni296  1  0.89666700  0.70833333  0.33835829  1.0
  Ni  Ni297  1  0.23000033  0.20833333  0.40978686  1.0
  Ni  Ni298  1  0.23000033  0.54166667  0.40978686  1.0
  Ni  Ni299  1  0.23000033  0.87500000  0.40978686  1.0
  Ni  Ni300  1  0.56333367  0.20833333  0.40978686  1.0
  Ni  Ni301  1  0.56333367  0.54166667  0.40978686  1.0
  Ni  Ni302  1  0.56333367  0.87500000  0.40978686  1.0
  Ni  Ni303  1  0.89666700  0.20833333  0.40978686  1.0
  Ni  Ni304  1  0.89666700  0.54166667  0.40978686  1.0
  Ni  Ni305  1  0.89666700  0.87500000  0.40978686  1.0
  Ni  Ni306  1  0.10333300  0.12500000  0.30449886  1.0
  Ni  Ni307  1  0.10333300  0.45833333  0.30449886  1.0
  Ni  Ni308  1  0.10333300  0.79166667  0.30449886  1.0
  Ni  Ni309  1  0.43666633  0.12500000  0.30449886  1.0
  Ni  Ni310  1  0.43666633  0.45833333  0.30449886  1.0
  Ni  Ni311  1  0.43666633  0.79166667  0.30449886  1.0
  Ni  Ni312  1  0.76999967  0.12500000  0.30449886  1.0
  Ni  Ni313  1  0.76999967  0.45833333  0.30449886  1.0
  Ni  Ni314  1  0.76999967  0.79166667  0.30449886  1.0
  Ni  Ni315  1  0.10333300  0.29166667  0.37592743  1.0
  Ni  Ni316  1  0.10333300  0.62500000  0.37592743  1.0
  Ni  Ni317  1  0.10333300  0.95833333  0.37592743  1.0
  Ni  Ni318  1  0.43666633  0.29166667  0.37592743  1.0
  Ni  Ni319  1  0.43666633  0.62500000  0.37592743  1.0
  Ni  Ni320  1  0.43666633  0.95833333  0.37592743  1.0
  Ni  Ni321  1  0.76999967  0.29166667  0.37592743  1.0
  Ni  Ni322  1  0.76999967  0.62500000  0.37592743  1.0
  Ni  Ni323  1  0.76999967  0.95833333  0.37592743  1.0
  Ni  Ni324  1  0.26999967  0.04166667  0.40978686  1.0
  Ni  Ni325  1  0.26999967  0.37500000  0.40978686  1.0
  Ni  Ni326  1  0.26999967  0.70833333  0.40978686  1.0
  Ni  Ni327  1  0.60333300  0.04166667  0.40978686  1.0
  Ni  Ni328  1  0.60333300  0.37500000  0.40978686  1.0
  Ni  Ni329  1  0.60333300  0.70833333  0.40978686  1.0
  Ni  Ni330  1  0.93666633  0.04166667  0.40978686  1.0
  Ni  Ni331  1  0.93666633  0.37500000  0.40978686  1.0
  Ni  Ni332  1  0.93666633  0.70833333  0.40978686  1.0
  Ni  Ni333  1  0.26999967  0.20833333  0.33835829  1.0
  Ni  Ni334  1  0.26999967  0.54166667  0.33835829  1.0
  Ni  Ni335  1  0.26999967  0.87500000  0.33835829  1.0
  Ni  Ni336  1  0.60333300  0.20833333  0.33835829  1.0
  Ni  Ni337  1  0.60333300  0.54166667  0.33835829  1.0
  Ni  Ni338  1  0.60333300  0.87500000  0.33835829  1.0
  Ni  Ni339  1  0.93666633  0.20833333  0.33835829  1.0
  Ni  Ni340  1  0.93666633  0.54166667  0.33835829  1.0
  Ni  Ni341  1  0.93666633  0.87500000  0.33835829  1.0
  Ni  Ni342  1  0.06333367  0.12500000  0.37592743  1.0
  Ni  Ni343  1  0.06333367  0.45833333  0.37592743  1.0
  Ni  Ni344  1  0.06333367  0.79166667  0.37592743  1.0
  Ni  Ni345  1  0.39666700  0.12500000  0.37592743  1.0
  Ni  Ni346  1  0.39666700  0.45833333  0.37592743  1.0
  Ni  Ni347  1  0.39666700  0.79166667  0.37592743  1.0
  Ni  Ni348  1  0.73000033  0.12500000  0.37592743  1.0
  Ni  Ni349  1  0.73000033  0.45833333  0.37592743  1.0
  Ni  Ni350  1  0.73000033  0.79166667  0.37592743  1.0
  Ni  Ni351  1  0.06333367  0.29166667  0.30449886  1.0
  Ni  Ni352  1  0.06333367  0.62500000  0.30449886  1.0
  Ni  Ni353  1  0.06333367  0.95833333  0.30449886  1.0
  Ni  Ni354  1  0.39666700  0.29166667  0.30449886  1.0
  Ni  Ni355  1  0.39666700  0.62500000  0.30449886  1.0
  Ni  Ni356  1  0.39666700  0.95833333  0.30449886  1.0
  Ni  Ni357  1  0.73000033  0.29166667  0.30449886  1.0
  Ni  Ni358  1  0.73000033  0.62500000  0.30449886  1.0
  Ni  Ni359  1  0.73000033  0.95833333  0.30449886  1.0
  Ge  Ge360  1  0.02960733  0.04166667  0.31222943  1.0
  Ge  Ge361  1  0.02960733  0.37500000  0.31222943  1.0
  Ge  Ge362  1  0.02960733  0.70833333  0.31222943  1.0
  Ge  Ge363  1  0.36294067  0.04166667  0.31222943  1.0
  Ge  Ge364  1  0.36294067  0.37500000  0.31222943  1.0
  Ge  Ge365  1  0.36294067  0.70833333  0.31222943  1.0
  Ge  Ge366  1  0.69627400  0.04166667  0.31222943  1.0
  Ge  Ge367  1  0.69627400  0.37500000  0.31222943  1.0
  Ge  Ge368  1  0.69627400  0.70833333  0.31222943  1.0
  Ge  Ge369  1  0.02960733  0.20833333  0.38365800  1.0
  Ge  Ge370  1  0.02960733  0.54166667  0.38365800  1.0
  Ge  Ge371  1  0.02960733  0.87500000  0.38365800  1.0
  Ge  Ge372  1  0.36294067  0.20833333  0.38365800  1.0
  Ge  Ge373  1  0.36294067  0.54166667  0.38365800  1.0
  Ge  Ge374  1  0.36294067  0.87500000  0.38365800  1.0
  Ge  Ge375  1  0.69627400  0.20833333  0.38365800  1.0
  Ge  Ge376  1  0.69627400  0.54166667  0.38365800  1.0
  Ge  Ge377  1  0.69627400  0.87500000  0.38365800  1.0
  Ge  Ge378  1  0.30372600  0.12500000  0.33062771  1.0
  Ge  Ge379  1  0.30372600  0.45833333  0.33062771  1.0
  Ge  Ge380  1  0.30372600  0.79166667  0.33062771  1.0
  Ge  Ge381  1  0.63705933  0.12500000  0.33062771  1.0
  Ge  Ge382  1  0.63705933  0.45833333  0.33062771  1.0
  Ge  Ge383  1  0.63705933  0.79166667  0.33062771  1.0
  Ge  Ge384  1  0.97039267  0.12500000  0.33062771  1.0
  Ge  Ge385  1  0.97039267  0.45833333  0.33062771  1.0
  Ge  Ge386  1  0.97039267  0.79166667  0.33062771  1.0
  Ge  Ge387  1  0.30372600  0.29166667  0.40205629  1.0
  Ge  Ge388  1  0.30372600  0.62500000  0.40205629  1.0
  Ge  Ge389  1  0.30372600  0.95833333  0.40205629  1.0
  Ge  Ge390  1  0.63705933  0.29166667  0.40205629  1.0
  Ge  Ge391  1  0.63705933  0.62500000  0.40205629  1.0
  Ge  Ge392  1  0.63705933  0.95833333  0.40205629  1.0
  Ge  Ge393  1  0.97039267  0.29166667  0.40205629  1.0
  Ge  Ge394  1  0.97039267  0.62500000  0.40205629  1.0
  Ge  Ge395  1  0.97039267  0.95833333  0.40205629  1.0
  Ge  Ge396  1  0.13705933  0.04166667  0.38365800  1.0
  Ge  Ge397  1  0.13705933  0.37500000  0.38365800  1.0
  Ge  Ge398  1  0.13705933  0.70833333  0.38365800  1.0
  Ge  Ge399  1  0.47039267  0.04166667  0.38365800  1.0
  Ge  Ge400  1  0.47039267  0.37500000  0.38365800  1.0
  Ge  Ge401  1  0.47039267  0.70833333  0.38365800  1.0
  Ge  Ge402  1  0.80372600  0.04166667  0.38365800  1.0
  Ge  Ge403  1  0.80372600  0.37500000  0.38365800  1.0
  Ge  Ge404  1  0.80372600  0.70833333  0.38365800  1.0
  Ge  Ge405  1  0.13705933  0.20833333  0.31222943  1.0
  Ge  Ge406  1  0.13705933  0.54166667  0.31222943  1.0
  Ge  Ge407  1  0.13705933  0.87500000  0.31222943  1.0
  Ge  Ge408  1  0.47039267  0.20833333  0.31222943  1.0
  Ge  Ge409  1  0.47039267  0.54166667  0.31222943  1.0
  Ge  Ge410  1  0.47039267  0.87500000  0.31222943  1.0
  Ge  Ge411  1  0.80372600  0.20833333  0.31222943  1.0
  Ge  Ge412  1  0.80372600  0.54166667  0.31222943  1.0
  Ge  Ge413  1  0.80372600  0.87500000  0.31222943  1.0
  Ge  Ge414  1  0.19627400  0.12500000  0.40205629  1.0
  Ge  Ge415  1  0.19627400  0.45833333  0.40205629  1.0
  Ge  Ge416  1  0.19627400  0.79166667  0.40205629  1.0
  Ge  Ge417  1  0.52960733  0.12500000  0.40205629  1.0
  Ge  Ge418  1  0.52960733  0.45833333  0.40205629  1.0
  Ge  Ge419  1  0.52960733  0.79166667  0.40205629  1.0
  Ge  Ge420  1  0.86294067  0.12500000  0.40205629  1.0
  Ge  Ge421  1  0.86294067  0.45833333  0.40205629  1.0
  Ge  Ge422  1  0.86294067  0.79166667  0.40205629  1.0
  Ge  Ge423  1  0.19627400  0.29166667  0.33062771  1.0
  Ge  Ge424  1  0.19627400  0.62500000  0.33062771  1.0
  Ge  Ge425  1  0.19627400  0.95833333  0.33062771  1.0
  Ge  Ge426  1  0.52960733  0.29166667  0.33062771  1.0
  Ge  Ge427  1  0.52960733  0.62500000  0.33062771  1.0
  Ge  Ge428  1  0.52960733  0.95833333  0.33062771  1.0
  Ge  Ge429  1  0.86294067  0.29166667  0.33062771  1.0
  Ge  Ge430  1  0.86294067  0.62500000  0.33062771  1.0
  Ge  Ge431  1  0.86294067  0.95833333  0.33062771  1.0
