# generated using pymatgen
data_NiGe3
_symmetry_space_group_name_H-M   'P 1'
_cell_length_a   12.32252399
_cell_length_b   35.73954659
_cell_length_c   27.05320580
_cell_angle_alpha   87.41163557
_cell_angle_beta   85.64618118
_cell_angle_gamma   80.07299428
_symmetry_Int_Tables_number   1
_chemical_formula_structural   NiGe3
_chemical_formula_sum   'Ni72 Ge216'
_cell_volume   11695.78456491
_cell_formula_units_Z   72
loop_
 _symmetry_equiv_pos_site_id
 _symmetry_equiv_pos_as_xyz
  1  'x, y, z'
loop_
 _atom_site_type_symbol
 _atom_site_label
 _atom_site_symmetry_multiplicity
 _atom_site_fract_x
 _atom_site_fract_y
 _atom_site_fract_z
 _atom_site_occupancy
  Ge  Ge0  1  0.03333333  0.26458333  0.94375000  1.0
  Ge  Ge1  1  0.03333333  0.59791667  0.94375000  1.0
  Ge  Ge2  1  0.03333333  0.93125000  0.94375000  1.0
  Ge  Ge3  1  0.36666667  0.26458333  0.94375000  1.0
  Ge  Ge4  1  0.36666667  0.59791667  0.94375000  1.0
  Ge  Ge5  1  0.36666667  0.93125000  0.94375000  1.0
  Ge  Ge6  1  0.70000000  0.26458333  0.94375000  1.0
  Ge  Ge7  1  0.70000000  0.59791667  0.94375000  1.0
  Ge  Ge8  1  0.70000000  0.93125000  0.94375000  1.0
  Ge  Ge9  1  0.13333333  0.04791667  0.99375000  1.0
  Ge  Ge10  1  0.13333333  0.38125000  0.99375000  1.0
  Ge  Ge11  1  0.13333333  0.71458333  0.99375000  1.0
  Ge  Ge12  1  0.46666667  0.04791667  0.99375000  1.0
  Ge  Ge13  1  0.46666667  0.38125000  0.99375000  1.0
  Ge  Ge14  1  0.46666667  0.71458333  0.99375000  1.0
  Ge  Ge15  1  0.80000000  0.04791667  0.99375000  1.0
  Ge  Ge16  1  0.80000000  0.38125000  0.99375000  1.0
  Ge  Ge17  1  0.80000000  0.71458333  0.99375000  1.0
  Ge  Ge18  1  0.08333333  0.15625000  0.96875000  1.0
  Ge  Ge19  1  0.08333333  0.48958333  0.96875000  1.0
  Ge  Ge20  1  0.08333333  0.82291667  0.96875000  1.0
  Ge  Ge21  1  0.41666667  0.15625000  0.96875000  1.0
  Ge  Ge22  1  0.41666667  0.48958333  0.96875000  1.0
  Ge  Ge23  1  0.41666667  0.82291667  0.96875000  1.0
  Ge  Ge24  1  0.75000000  0.15625000  0.96875000  1.0
  Ge  Ge25  1  0.75000000  0.48958333  0.96875000  1.0
  Ge  Ge26  1  0.75000000  0.82291667  0.96875000  1.0
  Ge  Ge27  1  0.31666667  0.03958333  0.91875000  1.0
  Ge  Ge28  1  0.31666667  0.37291667  0.91875000  1.0
  Ge  Ge29  1  0.31666667  0.70625000  0.91875000  1.0
  Ge  Ge30  1  0.65000000  0.03958333  0.91875000  1.0
  Ge  Ge31  1  0.65000000  0.37291667  0.91875000  1.0
  Ge  Ge32  1  0.65000000  0.70625000  0.91875000  1.0
  Ge  Ge33  1  0.98333333  0.03958333  0.91875000  1.0
  Ge  Ge34  1  0.98333333  0.37291667  0.91875000  1.0
  Ge  Ge35  1  0.98333333  0.70625000  0.91875000  1.0
  Ge  Ge36  1  0.27500000  0.10208333  0.98125000  1.0
  Ge  Ge37  1  0.27500000  0.43541667  0.98125000  1.0
  Ge  Ge38  1  0.27500000  0.76875000  0.98125000  1.0
  Ge  Ge39  1  0.60833333  0.10208333  0.98125000  1.0
  Ge  Ge40  1  0.60833333  0.43541667  0.98125000  1.0
  Ge  Ge41  1  0.60833333  0.76875000  0.98125000  1.0
  Ge  Ge42  1  0.94166667  0.10208333  0.98125000  1.0
  Ge  Ge43  1  0.94166667  0.43541667  0.98125000  1.0
  Ge  Ge44  1  0.94166667  0.76875000  0.98125000  1.0
  Ge  Ge45  1  0.17500000  0.31875000  0.93125000  1.0
  Ge  Ge46  1  0.17500000  0.65208333  0.93125000  1.0
  Ge  Ge47  1  0.17500000  0.98541667  0.93125000  1.0
  Ge  Ge48  1  0.50833333  0.31875000  0.93125000  1.0
  Ge  Ge49  1  0.50833333  0.65208333  0.93125000  1.0
  Ge  Ge50  1  0.50833333  0.98541667  0.93125000  1.0
  Ge  Ge51  1  0.84166667  0.31875000  0.93125000  1.0
  Ge  Ge52  1  0.84166667  0.65208333  0.93125000  1.0
  Ge  Ge53  1  0.84166667  0.98541667  0.93125000  1.0
  Ge  Ge54  1  0.16666667  0.03125000  0.84375000  1.0
  Ge  Ge55  1  0.16666667  0.36458333  0.84375000  1.0
  Ge  Ge56  1  0.16666667  0.69791667  0.84375000  1.0
  Ge  Ge57  1  0.50000000  0.03125000  0.84375000  1.0
  Ge  Ge58  1  0.50000000  0.36458333  0.84375000  1.0
  Ge  Ge59  1  0.50000000  0.69791667  0.84375000  1.0
  Ge  Ge60  1  0.83333333  0.03125000  0.84375000  1.0
  Ge  Ge61  1  0.83333333  0.36458333  0.84375000  1.0
  Ge  Ge62  1  0.83333333  0.69791667  0.84375000  1.0
  Ge  Ge63  1  0.26666667  0.14791667  0.89375000  1.0
  Ge  Ge64  1  0.26666667  0.48125000  0.89375000  1.0
  Ge  Ge65  1  0.26666667  0.81458333  0.89375000  1.0
  Ge  Ge66  1  0.60000000  0.14791667  0.89375000  1.0
  Ge  Ge67  1  0.60000000  0.48125000  0.89375000  1.0
  Ge  Ge68  1  0.60000000  0.81458333  0.89375000  1.0
  Ge  Ge69  1  0.93333333  0.14791667  0.89375000  1.0
  Ge  Ge70  1  0.93333333  0.48125000  0.89375000  1.0
  Ge  Ge71  1  0.93333333  0.81458333  0.89375000  1.0
  Ge  Ge72  1  0.21666667  0.25625000  0.86875000  1.0
  Ge  Ge73  1  0.21666667  0.58958333  0.86875000  1.0
  Ge  Ge74  1  0.21666667  0.92291667  0.86875000  1.0
  Ge  Ge75  1  0.55000000  0.25625000  0.86875000  1.0
  Ge  Ge76  1  0.55000000  0.58958333  0.86875000  1.0
  Ge  Ge77  1  0.55000000  0.92291667  0.86875000  1.0
  Ge  Ge78  1  0.88333333  0.25625000  0.86875000  1.0
  Ge  Ge79  1  0.88333333  0.58958333  0.86875000  1.0
  Ge  Ge80  1  0.88333333  0.92291667  0.86875000  1.0
  Ge  Ge81  1  0.11666667  0.13958333  0.81875000  1.0
  Ge  Ge82  1  0.11666667  0.47291667  0.81875000  1.0
  Ge  Ge83  1  0.11666667  0.80625000  0.81875000  1.0
  Ge  Ge84  1  0.45000000  0.13958333  0.81875000  1.0
  Ge  Ge85  1  0.45000000  0.47291667  0.81875000  1.0
  Ge  Ge86  1  0.45000000  0.80625000  0.81875000  1.0
  Ge  Ge87  1  0.78333333  0.13958333  0.81875000  1.0
  Ge  Ge88  1  0.78333333  0.47291667  0.81875000  1.0
  Ge  Ge89  1  0.78333333  0.80625000  0.81875000  1.0
  Ge  Ge90  1  0.07500000  0.20208333  0.88125000  1.0
  Ge  Ge91  1  0.07500000  0.53541667  0.88125000  1.0
  Ge  Ge92  1  0.07500000  0.86875000  0.88125000  1.0
  Ge  Ge93  1  0.40833333  0.20208333  0.88125000  1.0
  Ge  Ge94  1  0.40833333  0.53541667  0.88125000  1.0
  Ge  Ge95  1  0.40833333  0.86875000  0.88125000  1.0
  Ge  Ge96  1  0.74166667  0.20208333  0.88125000  1.0
  Ge  Ge97  1  0.74166667  0.53541667  0.88125000  1.0
  Ge  Ge98  1  0.74166667  0.86875000  0.88125000  1.0
  Ge  Ge99  1  0.30833333  0.08541667  0.83125000  1.0
  Ge  Ge100  1  0.30833333  0.41875000  0.83125000  1.0
  Ge  Ge101  1  0.30833333  0.75208333  0.83125000  1.0
  Ge  Ge102  1  0.64166667  0.08541667  0.83125000  1.0
  Ge  Ge103  1  0.64166667  0.41875000  0.83125000  1.0
  Ge  Ge104  1  0.64166667  0.75208333  0.83125000  1.0
  Ge  Ge105  1  0.97500000  0.08541667  0.83125000  1.0
  Ge  Ge106  1  0.97500000  0.41875000  0.83125000  1.0
  Ge  Ge107  1  0.97500000  0.75208333  0.83125000  1.0
  Ge  Ge108  1  0.30000000  0.13125000  0.74375000  1.0
  Ge  Ge109  1  0.30000000  0.46458333  0.74375000  1.0
  Ge  Ge110  1  0.30000000  0.79791667  0.74375000  1.0
  Ge  Ge111  1  0.63333333  0.13125000  0.74375000  1.0
  Ge  Ge112  1  0.63333333  0.46458333  0.74375000  1.0
  Ge  Ge113  1  0.63333333  0.79791667  0.74375000  1.0
  Ge  Ge114  1  0.96666667  0.13125000  0.74375000  1.0
  Ge  Ge115  1  0.96666667  0.46458333  0.74375000  1.0
  Ge  Ge116  1  0.96666667  0.79791667  0.74375000  1.0
  Ge  Ge117  1  0.06666667  0.24791667  0.79375000  1.0
  Ge  Ge118  1  0.06666667  0.58125000  0.79375000  1.0
  Ge  Ge119  1  0.06666667  0.91458333  0.79375000  1.0
  Ge  Ge120  1  0.40000000  0.24791667  0.79375000  1.0
  Ge  Ge121  1  0.40000000  0.58125000  0.79375000  1.0
  Ge  Ge122  1  0.40000000  0.91458333  0.79375000  1.0
  Ge  Ge123  1  0.73333333  0.24791667  0.79375000  1.0
  Ge  Ge124  1  0.73333333  0.58125000  0.79375000  1.0
  Ge  Ge125  1  0.73333333  0.91458333  0.79375000  1.0
  Ge  Ge126  1  0.01666667  0.02291667  0.76875000  1.0
  Ge  Ge127  1  0.01666667  0.35625000  0.76875000  1.0
  Ge  Ge128  1  0.01666667  0.68958333  0.76875000  1.0
  Ge  Ge129  1  0.35000000  0.02291667  0.76875000  1.0
  Ge  Ge130  1  0.35000000  0.35625000  0.76875000  1.0
  Ge  Ge131  1  0.35000000  0.68958333  0.76875000  1.0
  Ge  Ge132  1  0.68333333  0.02291667  0.76875000  1.0
  Ge  Ge133  1  0.68333333  0.35625000  0.76875000  1.0
  Ge  Ge134  1  0.68333333  0.68958333  0.76875000  1.0
  Ge  Ge135  1  0.25000000  0.23958333  0.71875000  1.0
  Ge  Ge136  1  0.25000000  0.57291667  0.71875000  1.0
  Ge  Ge137  1  0.25000000  0.90625000  0.71875000  1.0
  Ge  Ge138  1  0.58333333  0.23958333  0.71875000  1.0
  Ge  Ge139  1  0.58333333  0.57291667  0.71875000  1.0
  Ge  Ge140  1  0.58333333  0.90625000  0.71875000  1.0
  Ge  Ge141  1  0.91666667  0.23958333  0.71875000  1.0
  Ge  Ge142  1  0.91666667  0.57291667  0.71875000  1.0
  Ge  Ge143  1  0.91666667  0.90625000  0.71875000  1.0
  Ge  Ge144  1  0.20833333  0.30208333  0.78125000  1.0
  Ge  Ge145  1  0.20833333  0.63541667  0.78125000  1.0
  Ge  Ge146  1  0.20833333  0.96875000  0.78125000  1.0
  Ge  Ge147  1  0.54166667  0.30208333  0.78125000  1.0
  Ge  Ge148  1  0.54166667  0.63541667  0.78125000  1.0
  Ge  Ge149  1  0.54166667  0.96875000  0.78125000  1.0
  Ge  Ge150  1  0.87500000  0.30208333  0.78125000  1.0
  Ge  Ge151  1  0.87500000  0.63541667  0.78125000  1.0
  Ge  Ge152  1  0.87500000  0.96875000  0.78125000  1.0
  Ge  Ge153  1  0.10833333  0.18541667  0.73125000  1.0
  Ge  Ge154  1  0.10833333  0.51875000  0.73125000  1.0
  Ge  Ge155  1  0.10833333  0.85208333  0.73125000  1.0
  Ge  Ge156  1  0.44166667  0.18541667  0.73125000  1.0
  Ge  Ge157  1  0.44166667  0.51875000  0.73125000  1.0
  Ge  Ge158  1  0.44166667  0.85208333  0.73125000  1.0
  Ge  Ge159  1  0.77500000  0.18541667  0.73125000  1.0
  Ge  Ge160  1  0.77500000  0.51875000  0.73125000  1.0
  Ge  Ge161  1  0.77500000  0.85208333  0.73125000  1.0
  Ge  Ge162  1  0.10000000  0.23125000  0.64375000  1.0
  Ge  Ge163  1  0.10000000  0.56458333  0.64375000  1.0
  Ge  Ge164  1  0.10000000  0.89791667  0.64375000  1.0
  Ge  Ge165  1  0.43333333  0.23125000  0.64375000  1.0
  Ge  Ge166  1  0.43333333  0.56458333  0.64375000  1.0
  Ge  Ge167  1  0.43333333  0.89791667  0.64375000  1.0
  Ge  Ge168  1  0.76666667  0.23125000  0.64375000  1.0
  Ge  Ge169  1  0.76666667  0.56458333  0.64375000  1.0
  Ge  Ge170  1  0.76666667  0.89791667  0.64375000  1.0
  Ge  Ge171  1  0.20000000  0.01458333  0.69375000  1.0
  Ge  Ge172  1  0.20000000  0.34791667  0.69375000  1.0
  Ge  Ge173  1  0.20000000  0.68125000  0.69375000  1.0
  Ge  Ge174  1  0.53333333  0.01458333  0.69375000  1.0
  Ge  Ge175  1  0.53333333  0.34791667  0.69375000  1.0
  Ge  Ge176  1  0.53333333  0.68125000  0.69375000  1.0
  Ge  Ge177  1  0.86666667  0.01458333  0.69375000  1.0
  Ge  Ge178  1  0.86666667  0.34791667  0.69375000  1.0
  Ge  Ge179  1  0.86666667  0.68125000  0.69375000  1.0
  Ge  Ge180  1  0.15000000  0.12291667  0.66875000  1.0
  Ge  Ge181  1  0.15000000  0.45625000  0.66875000  1.0
  Ge  Ge182  1  0.15000000  0.78958333  0.66875000  1.0
  Ge  Ge183  1  0.48333333  0.12291667  0.66875000  1.0
  Ge  Ge184  1  0.48333333  0.45625000  0.66875000  1.0
  Ge  Ge185  1  0.48333333  0.78958333  0.66875000  1.0
  Ge  Ge186  1  0.81666667  0.12291667  0.66875000  1.0
  Ge  Ge187  1  0.81666667  0.45625000  0.66875000  1.0
  Ge  Ge188  1  0.81666667  0.78958333  0.66875000  1.0
  Ge  Ge189  1  0.05000000  0.00625000  0.61875000  1.0
  Ge  Ge190  1  0.05000000  0.33958333  0.61875000  1.0
  Ge  Ge191  1  0.05000000  0.67291667  0.61875000  1.0
  Ge  Ge192  1  0.38333333  0.00625000  0.61875000  1.0
  Ge  Ge193  1  0.38333333  0.33958333  0.61875000  1.0
  Ge  Ge194  1  0.38333333  0.67291667  0.61875000  1.0
  Ge  Ge195  1  0.71666667  0.00625000  0.61875000  1.0
  Ge  Ge196  1  0.71666667  0.33958333  0.61875000  1.0
  Ge  Ge197  1  0.71666667  0.67291667  0.61875000  1.0
  Ge  Ge198  1  0.00833333  0.06875000  0.68125000  1.0
  Ge  Ge199  1  0.00833333  0.40208333  0.68125000  1.0
  Ge  Ge200  1  0.00833333  0.73541667  0.68125000  1.0
  Ge  Ge201  1  0.34166667  0.06875000  0.68125000  1.0
  Ge  Ge202  1  0.34166667  0.40208333  0.68125000  1.0
  Ge  Ge203  1  0.34166667  0.73541667  0.68125000  1.0
  Ge  Ge204  1  0.67500000  0.06875000  0.68125000  1.0
  Ge  Ge205  1  0.67500000  0.40208333  0.68125000  1.0
  Ge  Ge206  1  0.67500000  0.73541667  0.68125000  1.0
  Ge  Ge207  1  0.24166667  0.28541667  0.63125000  1.0
  Ge  Ge208  1  0.24166667  0.61875000  0.63125000  1.0
  Ge  Ge209  1  0.24166667  0.95208333  0.63125000  1.0
  Ge  Ge210  1  0.57500000  0.28541667  0.63125000  1.0
  Ge  Ge211  1  0.57500000  0.61875000  0.63125000  1.0
  Ge  Ge212  1  0.57500000  0.95208333  0.63125000  1.0
  Ge  Ge213  1  0.90833333  0.28541667  0.63125000  1.0
  Ge  Ge214  1  0.90833333  0.61875000  0.63125000  1.0
  Ge  Ge215  1  0.90833333  0.95208333  0.63125000  1.0
  Ni  Ni216  1  0.22500000  0.21041667  0.95625000  1.0
  Ni  Ni217  1  0.22500000  0.54375000  0.95625000  1.0
  Ni  Ni218  1  0.22500000  0.87708333  0.95625000  1.0
  Ni  Ni219  1  0.55833333  0.21041667  0.95625000  1.0
  Ni  Ni220  1  0.55833333  0.54375000  0.95625000  1.0
  Ni  Ni221  1  0.55833333  0.87708333  0.95625000  1.0
  Ni  Ni222  1  0.89166667  0.21041667  0.95625000  1.0
  Ni  Ni223  1  0.89166667  0.54375000  0.95625000  1.0
  Ni  Ni224  1  0.89166667  0.87708333  0.95625000  1.0
  Ni  Ni225  1  0.12500000  0.09375000  0.90625000  1.0
  Ni  Ni226  1  0.12500000  0.42708333  0.90625000  1.0
  Ni  Ni227  1  0.12500000  0.76041667  0.90625000  1.0
  Ni  Ni228  1  0.45833333  0.09375000  0.90625000  1.0
  Ni  Ni229  1  0.45833333  0.42708333  0.90625000  1.0
  Ni  Ni230  1  0.45833333  0.76041667  0.90625000  1.0
  Ni  Ni231  1  0.79166667  0.09375000  0.90625000  1.0
  Ni  Ni232  1  0.79166667  0.42708333  0.90625000  1.0
  Ni  Ni233  1  0.79166667  0.76041667  0.90625000  1.0
  Ni  Ni234  1  0.02500000  0.31041667  0.85625000  1.0
  Ni  Ni235  1  0.02500000  0.64375000  0.85625000  1.0
  Ni  Ni236  1  0.02500000  0.97708333  0.85625000  1.0
  Ni  Ni237  1  0.35833333  0.31041667  0.85625000  1.0
  Ni  Ni238  1  0.35833333  0.64375000  0.85625000  1.0
  Ni  Ni239  1  0.35833333  0.97708333  0.85625000  1.0
  Ni  Ni240  1  0.69166667  0.31041667  0.85625000  1.0
  Ni  Ni241  1  0.69166667  0.64375000  0.85625000  1.0
  Ni  Ni242  1  0.69166667  0.97708333  0.85625000  1.0
  Ni  Ni243  1  0.25833333  0.19375000  0.80625000  1.0
  Ni  Ni244  1  0.25833333  0.52708333  0.80625000  1.0
  Ni  Ni245  1  0.25833333  0.86041667  0.80625000  1.0
  Ni  Ni246  1  0.59166667  0.19375000  0.80625000  1.0
  Ni  Ni247  1  0.59166667  0.52708333  0.80625000  1.0
  Ni  Ni248  1  0.59166667  0.86041667  0.80625000  1.0
  Ni  Ni249  1  0.92500000  0.19375000  0.80625000  1.0
  Ni  Ni250  1  0.92500000  0.52708333  0.80625000  1.0
  Ni  Ni251  1  0.92500000  0.86041667  0.80625000  1.0
  Ni  Ni252  1  0.15833333  0.07708333  0.75625000  1.0
  Ni  Ni253  1  0.15833333  0.41041667  0.75625000  1.0
  Ni  Ni254  1  0.15833333  0.74375000  0.75625000  1.0
  Ni  Ni255  1  0.49166667  0.07708333  0.75625000  1.0
  Ni  Ni256  1  0.49166667  0.41041667  0.75625000  1.0
  Ni  Ni257  1  0.49166667  0.74375000  0.75625000  1.0
  Ni  Ni258  1  0.82500000  0.07708333  0.75625000  1.0
  Ni  Ni259  1  0.82500000  0.41041667  0.75625000  1.0
  Ni  Ni260  1  0.82500000  0.74375000  0.75625000  1.0
  Ni  Ni261  1  0.05833333  0.29375000  0.70625000  1.0
  Ni  Ni262  1  0.05833333  0.62708333  0.70625000  1.0
  Ni  Ni263  1  0.05833333  0.96041667  0.70625000  1.0
  Ni  Ni264  1  0.39166667  0.29375000  0.70625000  1.0
  Ni  Ni265  1  0.39166667  0.62708333  0.70625000  1.0
  Ni  Ni266  1  0.39166667  0.96041667  0.70625000  1.0
  Ni  Ni267  1  0.72500000  0.29375000  0.70625000  1.0
  Ni  Ni268  1  0.72500000  0.62708333  0.70625000  1.0
  Ni  Ni269  1  0.72500000  0.96041667  0.70625000  1.0
  Ni  Ni270  1  0.29166667  0.17708333  0.65625000  1.0
  Ni  Ni271  1  0.29166667  0.51041667  0.65625000  1.0
  Ni  Ni272  1  0.29166667  0.84375000  0.65625000  1.0
  Ni  Ni273  1  0.62500000  0.17708333  0.65625000  1.0
  Ni  Ni274  1  0.62500000  0.51041667  0.65625000  1.0
  Ni  Ni275  1  0.62500000  0.84375000  0.65625000  1.0
  Ni  Ni276  1  0.95833333  0.17708333  0.65625000  1.0
  Ni  Ni277  1  0.95833333  0.51041667  0.65625000  1.0
  Ni  Ni278  1  0.95833333  0.84375000  0.65625000  1.0
  Ni  Ni279  1  0.19166667  0.06041667  0.60625000  1.0
  Ni  Ni280  1  0.19166667  0.39375000  0.60625000  1.0
  Ni  Ni281  1  0.19166667  0.72708333  0.60625000  1.0
  Ni  Ni282  1  0.52500000  0.06041667  0.60625000  1.0
  Ni  Ni283  1  0.52500000  0.39375000  0.60625000  1.0
  Ni  Ni284  1  0.52500000  0.72708333  0.60625000  1.0
  Ni  Ni285  1  0.85833333  0.06041667  0.60625000  1.0
  Ni  Ni286  1  0.85833333  0.39375000  0.60625000  1.0
  Ni  Ni287  1  0.85833333  0.72708333  0.60625000  1.0
