# generated using pymatgen
data_NiGe2
_symmetry_space_group_name_H-M   'P 1'
_cell_length_a   25.42672003
_cell_length_b   37.07170484
_cell_length_c   29.09594178
_cell_angle_alpha   91.23908788
_cell_angle_beta   94.94614902
_cell_angle_gamma   104.30333481
_symmetry_Int_Tables_number   1
_chemical_formula_structural   NiGe2
_chemical_formula_sum   'Ni216 Ge432'
_cell_volume   26450.85452883
_cell_formula_units_Z   216
loop_
 _symmetry_equiv_pos_site_id
 _symmetry_equiv_pos_as_xyz
  1  'x, y, z'
loop_
 _atom_site_type_symbol
 _atom_site_label
 _atom_site_symmetry_multiplicity
 _atom_site_fract_x
 _atom_site_fract_y
 _atom_site_fract_z
 _atom_site_occupancy
  Ge  Ge0  1  0.10312653  0.07695641  0.94178991  1.0
  Ge  Ge1  1  0.10312653  0.41028974  0.94178991  1.0
  Ge  Ge2  1  0.10312653  0.74362307  0.94178991  1.0
  Ge  Ge3  1  0.43645986  0.07695641  0.94178991  1.0
  Ge  Ge4  1  0.43645986  0.41028974  0.94178991  1.0
  Ge  Ge5  1  0.43645986  0.74362307  0.94178991  1.0
  Ge  Ge6  1  0.76979320  0.07695641  0.94178991  1.0
  Ge  Ge7  1  0.76979320  0.41028974  0.94178991  1.0
  Ge  Ge8  1  0.76979320  0.74362307  0.94178991  1.0
  Ge  Ge9  1  0.29062653  0.18112307  0.87928991  1.0
  Ge  Ge10  1  0.29062653  0.51445641  0.87928991  1.0
  Ge  Ge11  1  0.29062653  0.84778974  0.87928991  1.0
  Ge  Ge12  1  0.62395986  0.18112307  0.87928991  1.0
  Ge  Ge13  1  0.62395986  0.51445641  0.87928991  1.0
  Ge  Ge14  1  0.62395986  0.84778974  0.87928991  1.0
  Ge  Ge15  1  0.95729320  0.18112307  0.87928991  1.0
  Ge  Ge16  1  0.95729320  0.51445641  0.87928991  1.0
  Ge  Ge17  1  0.95729320  0.84778974  0.87928991  1.0
  Ge  Ge18  1  0.32277861  0.02088682  0.93716366  1.0
  Ge  Ge19  1  0.32277861  0.35422016  0.93716366  1.0
  Ge  Ge20  1  0.32277861  0.68755349  0.93716366  1.0
  Ge  Ge21  1  0.65611195  0.02088682  0.93716366  1.0
  Ge  Ge22  1  0.65611195  0.35422016  0.93716366  1.0
  Ge  Ge23  1  0.65611195  0.68755349  0.93716366  1.0
  Ge  Ge24  1  0.98944528  0.02088682  0.93716366  1.0
  Ge  Ge25  1  0.98944528  0.35422016  0.93716366  1.0
  Ge  Ge26  1  0.98944528  0.68755349  0.93716366  1.0
  Ge  Ge27  1  0.13527861  0.25005349  0.99966366  1.0
  Ge  Ge28  1  0.13527861  0.58338682  0.99966366  1.0
  Ge  Ge29  1  0.13527861  0.91672016  0.99966366  1.0
  Ge  Ge30  1  0.46861195  0.25005349  0.99966366  1.0
  Ge  Ge31  1  0.46861195  0.58338682  0.99966366  1.0
  Ge  Ge32  1  0.46861195  0.91672016  0.99966366  1.0
  Ge  Ge33  1  0.80194528  0.25005349  0.99966366  1.0
  Ge  Ge34  1  0.80194528  0.58338682  0.99966366  1.0
  Ge  Ge35  1  0.80194528  0.91672016  0.99966366  1.0
  Ge  Ge36  1  0.04437566  0.21098370  0.96137353  1.0
  Ge  Ge37  1  0.04437566  0.54431703  0.96137353  1.0
  Ge  Ge38  1  0.04437566  0.87765036  0.96137353  1.0
  Ge  Ge39  1  0.37770899  0.21098370  0.96137353  1.0
  Ge  Ge40  1  0.37770899  0.54431703  0.96137353  1.0
  Ge  Ge41  1  0.37770899  0.87765036  0.96137353  1.0
  Ge  Ge42  1  0.71104232  0.21098370  0.96137353  1.0
  Ge  Ge43  1  0.71104232  0.54431703  0.96137353  1.0
  Ge  Ge44  1  0.71104232  0.87765036  0.96137353  1.0
  Ge  Ge45  1  0.23187566  0.31515036  0.89887353  1.0
  Ge  Ge46  1  0.23187566  0.64848370  0.89887353  1.0
  Ge  Ge47  1  0.23187566  0.98181703  0.89887353  1.0
  Ge  Ge48  1  0.56520899  0.31515036  0.89887353  1.0
  Ge  Ge49  1  0.56520899  0.64848370  0.89887353  1.0
  Ge  Ge50  1  0.56520899  0.98181703  0.89887353  1.0
  Ge  Ge51  1  0.89854232  0.31515036  0.89887353  1.0
  Ge  Ge52  1  0.89854232  0.64848370  0.89887353  1.0
  Ge  Ge53  1  0.89854232  0.98181703  0.89887353  1.0
  Ge  Ge54  1  0.26402774  0.15491411  0.95674728  1.0
  Ge  Ge55  1  0.26402774  0.48824745  0.95674728  1.0
  Ge  Ge56  1  0.26402774  0.82158078  0.95674728  1.0
  Ge  Ge57  1  0.59736107  0.15491411  0.95674728  1.0
  Ge  Ge58  1  0.59736107  0.48824745  0.95674728  1.0
  Ge  Ge59  1  0.59736107  0.82158078  0.95674728  1.0
  Ge  Ge60  1  0.93069441  0.15491411  0.95674728  1.0
  Ge  Ge61  1  0.93069441  0.48824745  0.95674728  1.0
  Ge  Ge62  1  0.93069441  0.82158078  0.95674728  1.0
  Ge  Ge63  1  0.11819441  0.25908078  0.89424728  1.0
  Ge  Ge64  1  0.11819441  0.59241411  0.89424728  1.0
  Ge  Ge65  1  0.11819441  0.92574745  0.89424728  1.0
  Ge  Ge66  1  0.45152774  0.25908078  0.89424728  1.0
  Ge  Ge67  1  0.45152774  0.59241411  0.89424728  1.0
  Ge  Ge68  1  0.45152774  0.92574745  0.89424728  1.0
  Ge  Ge69  1  0.78486107  0.25908078  0.89424728  1.0
  Ge  Ge70  1  0.78486107  0.59241411  0.89424728  1.0
  Ge  Ge71  1  0.78486107  0.92574745  0.89424728  1.0
  Ge  Ge72  1  0.06402630  0.14202509  0.93407709  1.0
  Ge  Ge73  1  0.06402630  0.47535843  0.93407709  1.0
  Ge  Ge74  1  0.06402630  0.80869176  0.93407709  1.0
  Ge  Ge75  1  0.39735964  0.14202509  0.93407709  1.0
  Ge  Ge76  1  0.39735964  0.47535843  0.93407709  1.0
  Ge  Ge77  1  0.39735964  0.80869176  0.93407709  1.0
  Ge  Ge78  1  0.73069297  0.14202509  0.93407709  1.0
  Ge  Ge79  1  0.73069297  0.47535843  0.93407709  1.0
  Ge  Ge80  1  0.73069297  0.80869176  0.93407709  1.0
  Ge  Ge81  1  0.20985964  0.03785843  0.99657709  1.0
  Ge  Ge82  1  0.20985964  0.37119176  0.99657709  1.0
  Ge  Ge83  1  0.20985964  0.70452509  0.99657709  1.0
  Ge  Ge84  1  0.54319297  0.03785843  0.99657709  1.0
  Ge  Ge85  1  0.54319297  0.37119176  0.99657709  1.0
  Ge  Ge86  1  0.54319297  0.70452509  0.99657709  1.0
  Ge  Ge87  1  0.87652630  0.03785843  0.99657709  1.0
  Ge  Ge88  1  0.87652630  0.37119176  0.99657709  1.0
  Ge  Ge89  1  0.87652630  0.70452509  0.99657709  1.0
  Ge  Ge90  1  0.06354464  0.30859543  0.93321009  1.0
  Ge  Ge91  1  0.06354464  0.64192876  0.93321009  1.0
  Ge  Ge92  1  0.06354464  0.97526209  0.93321009  1.0
  Ge  Ge93  1  0.39687797  0.30859543  0.93321009  1.0
  Ge  Ge94  1  0.39687797  0.64192876  0.93321009  1.0
  Ge  Ge95  1  0.39687797  0.97526209  0.93321009  1.0
  Ge  Ge96  1  0.73021130  0.30859543  0.93321009  1.0
  Ge  Ge97  1  0.73021130  0.64192876  0.93321009  1.0
  Ge  Ge98  1  0.73021130  0.97526209  0.93321009  1.0
  Ge  Ge99  1  0.20937797  0.20442876  0.99571009  1.0
  Ge  Ge100  1  0.20937797  0.53776209  0.99571009  1.0
  Ge  Ge101  1  0.20937797  0.87109543  0.99571009  1.0
  Ge  Ge102  1  0.54271130  0.20442876  0.99571009  1.0
  Ge  Ge103  1  0.54271130  0.53776209  0.99571009  1.0
  Ge  Ge104  1  0.54271130  0.87109543  0.99571009  1.0
  Ge  Ge105  1  0.87604464  0.20442876  0.99571009  1.0
  Ge  Ge106  1  0.87604464  0.53776209  0.99571009  1.0
  Ge  Ge107  1  0.87604464  0.87109543  0.99571009  1.0
  Ge  Ge108  1  0.30312797  0.08984543  0.96446009  1.0
  Ge  Ge109  1  0.30312797  0.42317876  0.96446009  1.0
  Ge  Ge110  1  0.30312797  0.75651209  0.96446009  1.0
  Ge  Ge111  1  0.63646130  0.08984543  0.96446009  1.0
  Ge  Ge112  1  0.63646130  0.42317876  0.96446009  1.0
  Ge  Ge113  1  0.63646130  0.75651209  0.96446009  1.0
  Ge  Ge114  1  0.96979464  0.08984543  0.96446009  1.0
  Ge  Ge115  1  0.96979464  0.42317876  0.96446009  1.0
  Ge  Ge116  1  0.96979464  0.75651209  0.96446009  1.0
  Ge  Ge117  1  0.15729464  0.19401209  0.90196009  1.0
  Ge  Ge118  1  0.15729464  0.52734543  0.90196009  1.0
  Ge  Ge119  1  0.15729464  0.86067876  0.90196009  1.0
  Ge  Ge120  1  0.49062797  0.19401209  0.90196009  1.0
  Ge  Ge121  1  0.49062797  0.52734543  0.90196009  1.0
  Ge  Ge122  1  0.49062797  0.86067876  0.90196009  1.0
  Ge  Ge123  1  0.82396130  0.19401209  0.90196009  1.0
  Ge  Ge124  1  0.82396130  0.52734543  0.90196009  1.0
  Ge  Ge125  1  0.82396130  0.86067876  0.90196009  1.0
  Ge  Ge126  1  0.30360964  0.25660843  0.96532709  1.0
  Ge  Ge127  1  0.30360964  0.58994176  0.96532709  1.0
  Ge  Ge128  1  0.30360964  0.92327509  0.96532709  1.0
  Ge  Ge129  1  0.63694297  0.25660843  0.96532709  1.0
  Ge  Ge130  1  0.63694297  0.58994176  0.96532709  1.0
  Ge  Ge131  1  0.63694297  0.92327509  0.96532709  1.0
  Ge  Ge132  1  0.97027630  0.25660843  0.96532709  1.0
  Ge  Ge133  1  0.97027630  0.58994176  0.96532709  1.0
  Ge  Ge134  1  0.97027630  0.92327509  0.96532709  1.0
  Ge  Ge135  1  0.15777630  0.02744176  0.90282709  1.0
  Ge  Ge136  1  0.15777630  0.36077509  0.90282709  1.0
  Ge  Ge137  1  0.15777630  0.69410843  0.90282709  1.0
  Ge  Ge138  1  0.49110964  0.02744176  0.90282709  1.0
  Ge  Ge139  1  0.49110964  0.36077509  0.90282709  1.0
  Ge  Ge140  1  0.49110964  0.69410843  0.90282709  1.0
  Ge  Ge141  1  0.82444297  0.02744176  0.90282709  1.0
  Ge  Ge142  1  0.82444297  0.36077509  0.90282709  1.0
  Ge  Ge143  1  0.82444297  0.69410843  0.90282709  1.0
  Ge  Ge144  1  0.14479320  0.28528974  0.81678991  1.0
  Ge  Ge145  1  0.14479320  0.61862307  0.81678991  1.0
  Ge  Ge146  1  0.14479320  0.95195641  0.81678991  1.0
  Ge  Ge147  1  0.47812653  0.28528974  0.81678991  1.0
  Ge  Ge148  1  0.47812653  0.61862307  0.81678991  1.0
  Ge  Ge149  1  0.47812653  0.95195641  0.81678991  1.0
  Ge  Ge150  1  0.81145986  0.28528974  0.81678991  1.0
  Ge  Ge151  1  0.81145986  0.61862307  0.81678991  1.0
  Ge  Ge152  1  0.81145986  0.95195641  0.81678991  1.0
  Ge  Ge153  1  0.33229320  0.05612307  0.75428991  1.0
  Ge  Ge154  1  0.33229320  0.38945641  0.75428991  1.0
  Ge  Ge155  1  0.33229320  0.72278974  0.75428991  1.0
  Ge  Ge156  1  0.66562653  0.05612307  0.75428991  1.0
  Ge  Ge157  1  0.66562653  0.38945641  0.75428991  1.0
  Ge  Ge158  1  0.66562653  0.72278974  0.75428991  1.0
  Ge  Ge159  1  0.99895986  0.05612307  0.75428991  1.0
  Ge  Ge160  1  0.99895986  0.38945641  0.75428991  1.0
  Ge  Ge161  1  0.99895986  0.72278974  0.75428991  1.0
  Ge  Ge162  1  0.03111195  0.22922016  0.81216366  1.0
  Ge  Ge163  1  0.03111195  0.56255349  0.81216366  1.0
  Ge  Ge164  1  0.03111195  0.89588682  0.81216366  1.0
  Ge  Ge165  1  0.36444528  0.22922016  0.81216366  1.0
  Ge  Ge166  1  0.36444528  0.56255349  0.81216366  1.0
  Ge  Ge167  1  0.36444528  0.89588682  0.81216366  1.0
  Ge  Ge168  1  0.69777861  0.22922016  0.81216366  1.0
  Ge  Ge169  1  0.69777861  0.56255349  0.81216366  1.0
  Ge  Ge170  1  0.69777861  0.89588682  0.81216366  1.0
  Ge  Ge171  1  0.17694528  0.12505349  0.87466366  1.0
  Ge  Ge172  1  0.17694528  0.45838682  0.87466366  1.0
  Ge  Ge173  1  0.17694528  0.79172016  0.87466366  1.0
  Ge  Ge174  1  0.51027861  0.12505349  0.87466366  1.0
  Ge  Ge175  1  0.51027861  0.45838682  0.87466366  1.0
  Ge  Ge176  1  0.51027861  0.79172016  0.87466366  1.0
  Ge  Ge177  1  0.84361195  0.12505349  0.87466366  1.0
  Ge  Ge178  1  0.84361195  0.45838682  0.87466366  1.0
  Ge  Ge179  1  0.84361195  0.79172016  0.87466366  1.0
  Ge  Ge180  1  0.08604232  0.08598370  0.83637353  1.0
  Ge  Ge181  1  0.08604232  0.41931703  0.83637353  1.0
  Ge  Ge182  1  0.08604232  0.75265036  0.83637353  1.0
  Ge  Ge183  1  0.41937566  0.08598370  0.83637353  1.0
  Ge  Ge184  1  0.41937566  0.41931703  0.83637353  1.0
  Ge  Ge185  1  0.41937566  0.75265036  0.83637353  1.0
  Ge  Ge186  1  0.75270899  0.08598370  0.83637353  1.0
  Ge  Ge187  1  0.75270899  0.41931703  0.83637353  1.0
  Ge  Ge188  1  0.75270899  0.75265036  0.83637353  1.0
  Ge  Ge189  1  0.27354232  0.19015036  0.77387353  1.0
  Ge  Ge190  1  0.27354232  0.52348370  0.77387353  1.0
  Ge  Ge191  1  0.27354232  0.85681703  0.77387353  1.0
  Ge  Ge192  1  0.60687566  0.19015036  0.77387353  1.0
  Ge  Ge193  1  0.60687566  0.52348370  0.77387353  1.0
  Ge  Ge194  1  0.60687566  0.85681703  0.77387353  1.0
  Ge  Ge195  1  0.94020899  0.19015036  0.77387353  1.0
  Ge  Ge196  1  0.94020899  0.52348370  0.77387353  1.0
  Ge  Ge197  1  0.94020899  0.85681703  0.77387353  1.0
  Ge  Ge198  1  0.30569441  0.02991411  0.83174728  1.0
  Ge  Ge199  1  0.30569441  0.36324745  0.83174728  1.0
  Ge  Ge200  1  0.30569441  0.69658078  0.83174728  1.0
  Ge  Ge201  1  0.63902774  0.02991411  0.83174728  1.0
  Ge  Ge202  1  0.63902774  0.36324745  0.83174728  1.0
  Ge  Ge203  1  0.63902774  0.69658078  0.83174728  1.0
  Ge  Ge204  1  0.97236107  0.02991411  0.83174728  1.0
  Ge  Ge205  1  0.97236107  0.36324745  0.83174728  1.0
  Ge  Ge206  1  0.97236107  0.69658078  0.83174728  1.0
  Ge  Ge207  1  0.15986107  0.13408078  0.76924728  1.0
  Ge  Ge208  1  0.15986107  0.46741411  0.76924728  1.0
  Ge  Ge209  1  0.15986107  0.80074745  0.76924728  1.0
  Ge  Ge210  1  0.49319441  0.13408078  0.76924728  1.0
  Ge  Ge211  1  0.49319441  0.46741411  0.76924728  1.0
  Ge  Ge212  1  0.49319441  0.80074745  0.76924728  1.0
  Ge  Ge213  1  0.82652774  0.13408078  0.76924728  1.0
  Ge  Ge214  1  0.82652774  0.46741411  0.76924728  1.0
  Ge  Ge215  1  0.82652774  0.80074745  0.76924728  1.0
  Ge  Ge216  1  0.10569297  0.01702509  0.80907709  1.0
  Ge  Ge217  1  0.10569297  0.35035843  0.80907709  1.0
  Ge  Ge218  1  0.10569297  0.68369176  0.80907709  1.0
  Ge  Ge219  1  0.43902630  0.01702509  0.80907709  1.0
  Ge  Ge220  1  0.43902630  0.35035843  0.80907709  1.0
  Ge  Ge221  1  0.43902630  0.68369176  0.80907709  1.0
  Ge  Ge222  1  0.77235964  0.01702509  0.80907709  1.0
  Ge  Ge223  1  0.77235964  0.35035843  0.80907709  1.0
  Ge  Ge224  1  0.77235964  0.68369176  0.80907709  1.0
  Ge  Ge225  1  0.25152630  0.24619176  0.87157709  1.0
  Ge  Ge226  1  0.25152630  0.57952509  0.87157709  1.0
  Ge  Ge227  1  0.25152630  0.91285843  0.87157709  1.0
  Ge  Ge228  1  0.58485964  0.24619176  0.87157709  1.0
  Ge  Ge229  1  0.58485964  0.57952509  0.87157709  1.0
  Ge  Ge230  1  0.58485964  0.91285843  0.87157709  1.0
  Ge  Ge231  1  0.91819297  0.24619176  0.87157709  1.0
  Ge  Ge232  1  0.91819297  0.57952509  0.87157709  1.0
  Ge  Ge233  1  0.91819297  0.91285843  0.87157709  1.0
  Ge  Ge234  1  0.10521130  0.18359543  0.80821009  1.0
  Ge  Ge235  1  0.10521130  0.51692876  0.80821009  1.0
  Ge  Ge236  1  0.10521130  0.85026209  0.80821009  1.0
  Ge  Ge237  1  0.43854464  0.18359543  0.80821009  1.0
  Ge  Ge238  1  0.43854464  0.51692876  0.80821009  1.0
  Ge  Ge239  1  0.43854464  0.85026209  0.80821009  1.0
  Ge  Ge240  1  0.77187797  0.18359543  0.80821009  1.0
  Ge  Ge241  1  0.77187797  0.51692876  0.80821009  1.0
  Ge  Ge242  1  0.77187797  0.85026209  0.80821009  1.0
  Ge  Ge243  1  0.25104464  0.07942876  0.87071009  1.0
  Ge  Ge244  1  0.25104464  0.41276209  0.87071009  1.0
  Ge  Ge245  1  0.25104464  0.74609543  0.87071009  1.0
  Ge  Ge246  1  0.58437797  0.07942876  0.87071009  1.0
  Ge  Ge247  1  0.58437797  0.41276209  0.87071009  1.0
  Ge  Ge248  1  0.58437797  0.74609543  0.87071009  1.0
  Ge  Ge249  1  0.91771130  0.07942876  0.87071009  1.0
  Ge  Ge250  1  0.91771130  0.41276209  0.87071009  1.0
  Ge  Ge251  1  0.91771130  0.74609543  0.87071009  1.0
  Ge  Ge252  1  0.01146130  0.29817876  0.83946009  1.0
  Ge  Ge253  1  0.01146130  0.63151209  0.83946009  1.0
  Ge  Ge254  1  0.01146130  0.96484543  0.83946009  1.0
  Ge  Ge255  1  0.34479464  0.29817876  0.83946009  1.0
  Ge  Ge256  1  0.34479464  0.63151209  0.83946009  1.0
  Ge  Ge257  1  0.34479464  0.96484543  0.83946009  1.0
  Ge  Ge258  1  0.67812797  0.29817876  0.83946009  1.0
  Ge  Ge259  1  0.67812797  0.63151209  0.83946009  1.0
  Ge  Ge260  1  0.67812797  0.96484543  0.83946009  1.0
  Ge  Ge261  1  0.19896130  0.06901209  0.77696009  1.0
  Ge  Ge262  1  0.19896130  0.40234543  0.77696009  1.0
  Ge  Ge263  1  0.19896130  0.73567876  0.77696009  1.0
  Ge  Ge264  1  0.53229464  0.06901209  0.77696009  1.0
  Ge  Ge265  1  0.53229464  0.40234543  0.77696009  1.0
  Ge  Ge266  1  0.53229464  0.73567876  0.77696009  1.0
  Ge  Ge267  1  0.86562797  0.06901209  0.77696009  1.0
  Ge  Ge268  1  0.86562797  0.40234543  0.77696009  1.0
  Ge  Ge269  1  0.86562797  0.73567876  0.77696009  1.0
  Ge  Ge270  1  0.01194297  0.13160843  0.84032709  1.0
  Ge  Ge271  1  0.01194297  0.46494176  0.84032709  1.0
  Ge  Ge272  1  0.01194297  0.79827509  0.84032709  1.0
  Ge  Ge273  1  0.34527630  0.13160843  0.84032709  1.0
  Ge  Ge274  1  0.34527630  0.46494176  0.84032709  1.0
  Ge  Ge275  1  0.34527630  0.79827509  0.84032709  1.0
  Ge  Ge276  1  0.67860964  0.13160843  0.84032709  1.0
  Ge  Ge277  1  0.67860964  0.46494176  0.84032709  1.0
  Ge  Ge278  1  0.67860964  0.79827509  0.84032709  1.0
  Ge  Ge279  1  0.19944297  0.23577509  0.77782709  1.0
  Ge  Ge280  1  0.19944297  0.56910843  0.77782709  1.0
  Ge  Ge281  1  0.19944297  0.90244176  0.77782709  1.0
  Ge  Ge282  1  0.53277630  0.23577509  0.77782709  1.0
  Ge  Ge283  1  0.53277630  0.56910843  0.77782709  1.0
  Ge  Ge284  1  0.53277630  0.90244176  0.77782709  1.0
  Ge  Ge285  1  0.86610964  0.23577509  0.77782709  1.0
  Ge  Ge286  1  0.86610964  0.56910843  0.77782709  1.0
  Ge  Ge287  1  0.86610964  0.90244176  0.77782709  1.0
  Ge  Ge288  1  0.18645986  0.16028974  0.69178991  1.0
  Ge  Ge289  1  0.18645986  0.49362307  0.69178991  1.0
  Ge  Ge290  1  0.18645986  0.82695641  0.69178991  1.0
  Ge  Ge291  1  0.51979320  0.16028974  0.69178991  1.0
  Ge  Ge292  1  0.51979320  0.49362307  0.69178991  1.0
  Ge  Ge293  1  0.51979320  0.82695641  0.69178991  1.0
  Ge  Ge294  1  0.85312653  0.16028974  0.69178991  1.0
  Ge  Ge295  1  0.85312653  0.49362307  0.69178991  1.0
  Ge  Ge296  1  0.85312653  0.82695641  0.69178991  1.0
  Ge  Ge297  1  0.04062653  0.26445641  0.62928991  1.0
  Ge  Ge298  1  0.04062653  0.59778974  0.62928991  1.0
  Ge  Ge299  1  0.04062653  0.93112307  0.62928991  1.0
  Ge  Ge300  1  0.37395986  0.26445641  0.62928991  1.0
  Ge  Ge301  1  0.37395986  0.59778974  0.62928991  1.0
  Ge  Ge302  1  0.37395986  0.93112307  0.62928991  1.0
  Ge  Ge303  1  0.70729320  0.26445641  0.62928991  1.0
  Ge  Ge304  1  0.70729320  0.59778974  0.62928991  1.0
  Ge  Ge305  1  0.70729320  0.93112307  0.62928991  1.0
  Ge  Ge306  1  0.07277861  0.10422016  0.68716366  1.0
  Ge  Ge307  1  0.07277861  0.43755349  0.68716366  1.0
  Ge  Ge308  1  0.07277861  0.77088682  0.68716366  1.0
  Ge  Ge309  1  0.40611195  0.10422016  0.68716366  1.0
  Ge  Ge310  1  0.40611195  0.43755349  0.68716366  1.0
  Ge  Ge311  1  0.40611195  0.77088682  0.68716366  1.0
  Ge  Ge312  1  0.73944528  0.10422016  0.68716366  1.0
  Ge  Ge313  1  0.73944528  0.43755349  0.68716366  1.0
  Ge  Ge314  1  0.73944528  0.77088682  0.68716366  1.0
  Ge  Ge315  1  0.21861195  0.00005349  0.74966366  1.0
  Ge  Ge316  1  0.21861195  0.33338682  0.74966366  1.0
  Ge  Ge317  1  0.21861195  0.66672016  0.74966366  1.0
  Ge  Ge318  1  0.55194528  0.00005349  0.74966366  1.0
  Ge  Ge319  1  0.55194528  0.33338682  0.74966366  1.0
  Ge  Ge320  1  0.55194528  0.66672016  0.74966366  1.0
  Ge  Ge321  1  0.88527861  0.00005349  0.74966366  1.0
  Ge  Ge322  1  0.88527861  0.33338682  0.74966366  1.0
  Ge  Ge323  1  0.88527861  0.66672016  0.74966366  1.0
  Ge  Ge324  1  0.12770899  0.29431703  0.71137353  1.0
  Ge  Ge325  1  0.12770899  0.62765036  0.71137353  1.0
  Ge  Ge326  1  0.12770899  0.96098370  0.71137353  1.0
  Ge  Ge327  1  0.46104232  0.29431703  0.71137353  1.0
  Ge  Ge328  1  0.46104232  0.62765036  0.71137353  1.0
  Ge  Ge329  1  0.46104232  0.96098370  0.71137353  1.0
  Ge  Ge330  1  0.79437566  0.29431703  0.71137353  1.0
  Ge  Ge331  1  0.79437566  0.62765036  0.71137353  1.0
  Ge  Ge332  1  0.79437566  0.96098370  0.71137353  1.0
  Ge  Ge333  1  0.31520899  0.06515036  0.64887353  1.0
  Ge  Ge334  1  0.31520899  0.39848370  0.64887353  1.0
  Ge  Ge335  1  0.31520899  0.73181703  0.64887353  1.0
  Ge  Ge336  1  0.64854232  0.06515036  0.64887353  1.0
  Ge  Ge337  1  0.64854232  0.39848370  0.64887353  1.0
  Ge  Ge338  1  0.64854232  0.73181703  0.64887353  1.0
  Ge  Ge339  1  0.98187566  0.06515036  0.64887353  1.0
  Ge  Ge340  1  0.98187566  0.39848370  0.64887353  1.0
  Ge  Ge341  1  0.98187566  0.73181703  0.64887353  1.0
  Ge  Ge342  1  0.01402774  0.23824745  0.70674728  1.0
  Ge  Ge343  1  0.01402774  0.57158078  0.70674728  1.0
  Ge  Ge344  1  0.01402774  0.90491411  0.70674728  1.0
  Ge  Ge345  1  0.34736107  0.23824745  0.70674728  1.0
  Ge  Ge346  1  0.34736107  0.57158078  0.70674728  1.0
  Ge  Ge347  1  0.34736107  0.90491411  0.70674728  1.0
  Ge  Ge348  1  0.68069441  0.23824745  0.70674728  1.0
  Ge  Ge349  1  0.68069441  0.57158078  0.70674728  1.0
  Ge  Ge350  1  0.68069441  0.90491411  0.70674728  1.0
  Ge  Ge351  1  0.20152774  0.00908078  0.64424728  1.0
  Ge  Ge352  1  0.20152774  0.34241411  0.64424728  1.0
  Ge  Ge353  1  0.20152774  0.67574745  0.64424728  1.0
  Ge  Ge354  1  0.53486107  0.00908078  0.64424728  1.0
  Ge  Ge355  1  0.53486107  0.34241411  0.64424728  1.0
  Ge  Ge356  1  0.53486107  0.67574745  0.64424728  1.0
  Ge  Ge357  1  0.86819441  0.00908078  0.64424728  1.0
  Ge  Ge358  1  0.86819441  0.34241411  0.64424728  1.0
  Ge  Ge359  1  0.86819441  0.67574745  0.64424728  1.0
  Ge  Ge360  1  0.14735964  0.22535843  0.68407709  1.0
  Ge  Ge361  1  0.14735964  0.55869176  0.68407709  1.0
  Ge  Ge362  1  0.14735964  0.89202509  0.68407709  1.0
  Ge  Ge363  1  0.48069297  0.22535843  0.68407709  1.0
  Ge  Ge364  1  0.48069297  0.55869176  0.68407709  1.0
  Ge  Ge365  1  0.48069297  0.89202509  0.68407709  1.0
  Ge  Ge366  1  0.81402630  0.22535843  0.68407709  1.0
  Ge  Ge367  1  0.81402630  0.55869176  0.68407709  1.0
  Ge  Ge368  1  0.81402630  0.89202509  0.68407709  1.0
  Ge  Ge369  1  0.29319297  0.12119176  0.74657709  1.0
  Ge  Ge370  1  0.29319297  0.45452509  0.74657709  1.0
  Ge  Ge371  1  0.29319297  0.78785843  0.74657709  1.0
  Ge  Ge372  1  0.62652630  0.12119176  0.74657709  1.0
  Ge  Ge373  1  0.62652630  0.45452509  0.74657709  1.0
  Ge  Ge374  1  0.62652630  0.78785843  0.74657709  1.0
  Ge  Ge375  1  0.95985964  0.12119176  0.74657709  1.0
  Ge  Ge376  1  0.95985964  0.45452509  0.74657709  1.0
  Ge  Ge377  1  0.95985964  0.78785843  0.74657709  1.0
  Ge  Ge378  1  0.14687797  0.05859543  0.68321009  1.0
  Ge  Ge379  1  0.14687797  0.39192876  0.68321009  1.0
  Ge  Ge380  1  0.14687797  0.72526209  0.68321009  1.0
  Ge  Ge381  1  0.48021130  0.05859543  0.68321009  1.0
  Ge  Ge382  1  0.48021130  0.39192876  0.68321009  1.0
  Ge  Ge383  1  0.48021130  0.72526209  0.68321009  1.0
  Ge  Ge384  1  0.81354464  0.05859543  0.68321009  1.0
  Ge  Ge385  1  0.81354464  0.39192876  0.68321009  1.0
  Ge  Ge386  1  0.81354464  0.72526209  0.68321009  1.0
  Ge  Ge387  1  0.29271130  0.28776209  0.74571009  1.0
  Ge  Ge388  1  0.29271130  0.62109543  0.74571009  1.0
  Ge  Ge389  1  0.29271130  0.95442876  0.74571009  1.0
  Ge  Ge390  1  0.62604464  0.28776209  0.74571009  1.0
  Ge  Ge391  1  0.62604464  0.62109543  0.74571009  1.0
  Ge  Ge392  1  0.62604464  0.95442876  0.74571009  1.0
  Ge  Ge393  1  0.95937797  0.28776209  0.74571009  1.0
  Ge  Ge394  1  0.95937797  0.62109543  0.74571009  1.0
  Ge  Ge395  1  0.95937797  0.95442876  0.74571009  1.0
  Ge  Ge396  1  0.05312797  0.17317876  0.71446009  1.0
  Ge  Ge397  1  0.05312797  0.50651209  0.71446009  1.0
  Ge  Ge398  1  0.05312797  0.83984543  0.71446009  1.0
  Ge  Ge399  1  0.38646130  0.17317876  0.71446009  1.0
  Ge  Ge400  1  0.38646130  0.50651209  0.71446009  1.0
  Ge  Ge401  1  0.38646130  0.83984543  0.71446009  1.0
  Ge  Ge402  1  0.71979464  0.17317876  0.71446009  1.0
  Ge  Ge403  1  0.71979464  0.50651209  0.71446009  1.0
  Ge  Ge404  1  0.71979464  0.83984543  0.71446009  1.0
  Ge  Ge405  1  0.24062797  0.27734543  0.65196009  1.0
  Ge  Ge406  1  0.24062797  0.61067876  0.65196009  1.0
  Ge  Ge407  1  0.24062797  0.94401209  0.65196009  1.0
  Ge  Ge408  1  0.57396130  0.27734543  0.65196009  1.0
  Ge  Ge409  1  0.57396130  0.61067876  0.65196009  1.0
  Ge  Ge410  1  0.57396130  0.94401209  0.65196009  1.0
  Ge  Ge411  1  0.90729464  0.27734543  0.65196009  1.0
  Ge  Ge412  1  0.90729464  0.61067876  0.65196009  1.0
  Ge  Ge413  1  0.90729464  0.94401209  0.65196009  1.0
  Ge  Ge414  1  0.05360964  0.00660843  0.71532709  1.0
  Ge  Ge415  1  0.05360964  0.33994176  0.71532709  1.0
  Ge  Ge416  1  0.05360964  0.67327509  0.71532709  1.0
  Ge  Ge417  1  0.38694297  0.00660843  0.71532709  1.0
  Ge  Ge418  1  0.38694297  0.33994176  0.71532709  1.0
  Ge  Ge419  1  0.38694297  0.67327509  0.71532709  1.0
  Ge  Ge420  1  0.72027630  0.00660843  0.71532709  1.0
  Ge  Ge421  1  0.72027630  0.33994176  0.71532709  1.0
  Ge  Ge422  1  0.72027630  0.67327509  0.71532709  1.0
  Ge  Ge423  1  0.24110964  0.11077509  0.65282709  1.0
  Ge  Ge424  1  0.24110964  0.44410843  0.65282709  1.0
  Ge  Ge425  1  0.24110964  0.77744176  0.65282709  1.0
  Ge  Ge426  1  0.57444297  0.11077509  0.65282709  1.0
  Ge  Ge427  1  0.57444297  0.44410843  0.65282709  1.0
  Ge  Ge428  1  0.57444297  0.77744176  0.65282709  1.0
  Ge  Ge429  1  0.90777630  0.11077509  0.65282709  1.0
  Ge  Ge430  1  0.90777630  0.44410843  0.65282709  1.0
  Ge  Ge431  1  0.90777630  0.77744176  0.65282709  1.0
  Ni  Ni432  1  0.01608586  0.24657274  0.89398791  1.0
  Ni  Ni433  1  0.01608586  0.57990607  0.89398791  1.0
  Ni  Ni434  1  0.01608586  0.91323941  0.89398791  1.0
  Ni  Ni435  1  0.34941920  0.24657274  0.89398791  1.0
  Ni  Ni436  1  0.34941920  0.57990607  0.89398791  1.0
  Ni  Ni437  1  0.34941920  0.91323941  0.89398791  1.0
  Ni  Ni438  1  0.68275253  0.24657274  0.89398791  1.0
  Ni  Ni439  1  0.68275253  0.57990607  0.89398791  1.0
  Ni  Ni440  1  0.68275253  0.91323941  0.89398791  1.0
  Ni  Ni441  1  0.16191920  0.14240607  0.95648791  1.0
  Ni  Ni442  1  0.16191920  0.47573941  0.95648791  1.0
  Ni  Ni443  1  0.16191920  0.80907274  0.95648791  1.0
  Ni  Ni444  1  0.49525253  0.14240607  0.95648791  1.0
  Ni  Ni445  1  0.49525253  0.47573941  0.95648791  1.0
  Ni  Ni446  1  0.49525253  0.80907274  0.95648791  1.0
  Ni  Ni447  1  0.82858586  0.14240607  0.95648791  1.0
  Ni  Ni448  1  0.82858586  0.47573941  0.95648791  1.0
  Ni  Ni449  1  0.82858586  0.80907274  0.95648791  1.0
  Ni  Ni450  1  0.05940174  0.02696445  0.87954928  1.0
  Ni  Ni451  1  0.05940174  0.36029778  0.87954928  1.0
  Ni  Ni452  1  0.05940174  0.69363111  0.87954928  1.0
  Ni  Ni453  1  0.39273507  0.02696445  0.87954928  1.0
  Ni  Ni454  1  0.39273507  0.36029778  0.87954928  1.0
  Ni  Ni455  1  0.39273507  0.69363111  0.87954928  1.0
  Ni  Ni456  1  0.72606841  0.02696445  0.87954928  1.0
  Ni  Ni457  1  0.72606841  0.36029778  0.87954928  1.0
  Ni  Ni458  1  0.72606841  0.69363111  0.87954928  1.0
  Ni  Ni459  1  0.20523507  0.25613111  0.94204928  1.0
  Ni  Ni460  1  0.20523507  0.58946445  0.94204928  1.0
  Ni  Ni461  1  0.20523507  0.92279778  0.94204928  1.0
  Ni  Ni462  1  0.53856841  0.25613111  0.94204928  1.0
  Ni  Ni463  1  0.53856841  0.58946445  0.94204928  1.0
  Ni  Ni464  1  0.53856841  0.92279778  0.94204928  1.0
  Ni  Ni465  1  0.87190174  0.25613111  0.94204928  1.0
  Ni  Ni466  1  0.87190174  0.58946445  0.94204928  1.0
  Ni  Ni467  1  0.87190174  0.92279778  0.94204928  1.0
  Ni  Ni468  1  0.20523507  0.08946445  0.94204928  1.0
  Ni  Ni469  1  0.20523507  0.42279778  0.94204928  1.0
  Ni  Ni470  1  0.20523507  0.75613111  0.94204928  1.0
  Ni  Ni471  1  0.53856841  0.08946445  0.94204928  1.0
  Ni  Ni472  1  0.53856841  0.42279778  0.94204928  1.0
  Ni  Ni473  1  0.53856841  0.75613111  0.94204928  1.0
  Ni  Ni474  1  0.87190174  0.08946445  0.94204928  1.0
  Ni  Ni475  1  0.87190174  0.42279778  0.94204928  1.0
  Ni  Ni476  1  0.87190174  0.75613111  0.94204928  1.0
  Ni  Ni477  1  0.05940174  0.19363111  0.87954928  1.0
  Ni  Ni478  1  0.05940174  0.52696445  0.87954928  1.0
  Ni  Ni479  1  0.05940174  0.86029778  0.87954928  1.0
  Ni  Ni480  1  0.39273507  0.19363111  0.87954928  1.0
  Ni  Ni481  1  0.39273507  0.52696445  0.87954928  1.0
  Ni  Ni482  1  0.39273507  0.86029778  0.87954928  1.0
  Ni  Ni483  1  0.72606841  0.19363111  0.87954928  1.0
  Ni  Ni484  1  0.72606841  0.52696445  0.87954928  1.0
  Ni  Ni485  1  0.72606841  0.86029778  0.87954928  1.0
  Ni  Ni486  1  0.01608586  0.07990607  0.89398791  1.0
  Ni  Ni487  1  0.01608586  0.41323941  0.89398791  1.0
  Ni  Ni488  1  0.01608586  0.74657274  0.89398791  1.0
  Ni  Ni489  1  0.34941920  0.07990607  0.89398791  1.0
  Ni  Ni490  1  0.34941920  0.41323941  0.89398791  1.0
  Ni  Ni491  1  0.34941920  0.74657274  0.89398791  1.0
  Ni  Ni492  1  0.68275253  0.07990607  0.89398791  1.0
  Ni  Ni493  1  0.68275253  0.41323941  0.89398791  1.0
  Ni  Ni494  1  0.68275253  0.74657274  0.89398791  1.0
  Ni  Ni495  1  0.16191920  0.30907274  0.95648791  1.0
  Ni  Ni496  1  0.16191920  0.64240607  0.95648791  1.0
  Ni  Ni497  1  0.16191920  0.97573941  0.95648791  1.0
  Ni  Ni498  1  0.49525253  0.30907274  0.95648791  1.0
  Ni  Ni499  1  0.49525253  0.64240607  0.95648791  1.0
  Ni  Ni500  1  0.49525253  0.97573941  0.95648791  1.0
  Ni  Ni501  1  0.82858586  0.30907274  0.95648791  1.0
  Ni  Ni502  1  0.82858586  0.64240607  0.95648791  1.0
  Ni  Ni503  1  0.82858586  0.97573941  0.95648791  1.0
  Ni  Ni504  1  0.05775253  0.12157274  0.76898791  1.0
  Ni  Ni505  1  0.05775253  0.45490607  0.76898791  1.0
  Ni  Ni506  1  0.05775253  0.78823941  0.76898791  1.0
  Ni  Ni507  1  0.39108586  0.12157274  0.76898791  1.0
  Ni  Ni508  1  0.39108586  0.45490607  0.76898791  1.0
  Ni  Ni509  1  0.39108586  0.78823941  0.76898791  1.0
  Ni  Ni510  1  0.72441920  0.12157274  0.76898791  1.0
  Ni  Ni511  1  0.72441920  0.45490607  0.76898791  1.0
  Ni  Ni512  1  0.72441920  0.78823941  0.76898791  1.0
  Ni  Ni513  1  0.20358586  0.01740607  0.83148791  1.0
  Ni  Ni514  1  0.20358586  0.35073941  0.83148791  1.0
  Ni  Ni515  1  0.20358586  0.68407274  0.83148791  1.0
  Ni  Ni516  1  0.53691920  0.01740607  0.83148791  1.0
  Ni  Ni517  1  0.53691920  0.35073941  0.83148791  1.0
  Ni  Ni518  1  0.53691920  0.68407274  0.83148791  1.0
  Ni  Ni519  1  0.87025253  0.01740607  0.83148791  1.0
  Ni  Ni520  1  0.87025253  0.35073941  0.83148791  1.0
  Ni  Ni521  1  0.87025253  0.68407274  0.83148791  1.0
  Ni  Ni522  1  0.10106841  0.23529778  0.75454928  1.0
  Ni  Ni523  1  0.10106841  0.56863111  0.75454928  1.0
  Ni  Ni524  1  0.10106841  0.90196445  0.75454928  1.0
  Ni  Ni525  1  0.43440174  0.23529778  0.75454928  1.0
  Ni  Ni526  1  0.43440174  0.56863111  0.75454928  1.0
  Ni  Ni527  1  0.43440174  0.90196445  0.75454928  1.0
  Ni  Ni528  1  0.76773507  0.23529778  0.75454928  1.0
  Ni  Ni529  1  0.76773507  0.56863111  0.75454928  1.0
  Ni  Ni530  1  0.76773507  0.90196445  0.75454928  1.0
  Ni  Ni531  1  0.24690174  0.13113111  0.81704928  1.0
  Ni  Ni532  1  0.24690174  0.46446445  0.81704928  1.0
  Ni  Ni533  1  0.24690174  0.79779778  0.81704928  1.0
  Ni  Ni534  1  0.58023507  0.13113111  0.81704928  1.0
  Ni  Ni535  1  0.58023507  0.46446445  0.81704928  1.0
  Ni  Ni536  1  0.58023507  0.79779778  0.81704928  1.0
  Ni  Ni537  1  0.91356841  0.13113111  0.81704928  1.0
  Ni  Ni538  1  0.91356841  0.46446445  0.81704928  1.0
  Ni  Ni539  1  0.91356841  0.79779778  0.81704928  1.0
  Ni  Ni540  1  0.24690174  0.29779778  0.81704928  1.0
  Ni  Ni541  1  0.24690174  0.63113111  0.81704928  1.0
  Ni  Ni542  1  0.24690174  0.96446445  0.81704928  1.0
  Ni  Ni543  1  0.58023507  0.29779778  0.81704928  1.0
  Ni  Ni544  1  0.58023507  0.63113111  0.81704928  1.0
  Ni  Ni545  1  0.58023507  0.96446445  0.81704928  1.0
  Ni  Ni546  1  0.91356841  0.29779778  0.81704928  1.0
  Ni  Ni547  1  0.91356841  0.63113111  0.81704928  1.0
  Ni  Ni548  1  0.91356841  0.96446445  0.81704928  1.0
  Ni  Ni549  1  0.10106841  0.06863111  0.75454928  1.0
  Ni  Ni550  1  0.10106841  0.40196445  0.75454928  1.0
  Ni  Ni551  1  0.10106841  0.73529778  0.75454928  1.0
  Ni  Ni552  1  0.43440174  0.06863111  0.75454928  1.0
  Ni  Ni553  1  0.43440174  0.40196445  0.75454928  1.0
  Ni  Ni554  1  0.43440174  0.73529778  0.75454928  1.0
  Ni  Ni555  1  0.76773507  0.06863111  0.75454928  1.0
  Ni  Ni556  1  0.76773507  0.40196445  0.75454928  1.0
  Ni  Ni557  1  0.76773507  0.73529778  0.75454928  1.0
  Ni  Ni558  1  0.05775253  0.28823941  0.76898791  1.0
  Ni  Ni559  1  0.05775253  0.62157274  0.76898791  1.0
  Ni  Ni560  1  0.05775253  0.95490607  0.76898791  1.0
  Ni  Ni561  1  0.39108586  0.28823941  0.76898791  1.0
  Ni  Ni562  1  0.39108586  0.62157274  0.76898791  1.0
  Ni  Ni563  1  0.39108586  0.95490607  0.76898791  1.0
  Ni  Ni564  1  0.72441920  0.28823941  0.76898791  1.0
  Ni  Ni565  1  0.72441920  0.62157274  0.76898791  1.0
  Ni  Ni566  1  0.72441920  0.95490607  0.76898791  1.0
  Ni  Ni567  1  0.20358586  0.18407274  0.83148791  1.0
  Ni  Ni568  1  0.20358586  0.51740607  0.83148791  1.0
  Ni  Ni569  1  0.20358586  0.85073941  0.83148791  1.0
  Ni  Ni570  1  0.53691920  0.18407274  0.83148791  1.0
  Ni  Ni571  1  0.53691920  0.51740607  0.83148791  1.0
  Ni  Ni572  1  0.53691920  0.85073941  0.83148791  1.0
  Ni  Ni573  1  0.87025253  0.18407274  0.83148791  1.0
  Ni  Ni574  1  0.87025253  0.51740607  0.83148791  1.0
  Ni  Ni575  1  0.87025253  0.85073941  0.83148791  1.0
  Ni  Ni576  1  0.09941920  0.32990607  0.64398791  1.0
  Ni  Ni577  1  0.09941920  0.66323941  0.64398791  1.0
  Ni  Ni578  1  0.09941920  0.99657274  0.64398791  1.0
  Ni  Ni579  1  0.43275253  0.32990607  0.64398791  1.0
  Ni  Ni580  1  0.43275253  0.66323941  0.64398791  1.0
  Ni  Ni581  1  0.43275253  0.99657274  0.64398791  1.0
  Ni  Ni582  1  0.76608586  0.32990607  0.64398791  1.0
  Ni  Ni583  1  0.76608586  0.66323941  0.64398791  1.0
  Ni  Ni584  1  0.76608586  0.99657274  0.64398791  1.0
  Ni  Ni585  1  0.24525253  0.22573941  0.70648791  1.0
  Ni  Ni586  1  0.24525253  0.55907274  0.70648791  1.0
  Ni  Ni587  1  0.24525253  0.89240607  0.70648791  1.0
  Ni  Ni588  1  0.57858586  0.22573941  0.70648791  1.0
  Ni  Ni589  1  0.57858586  0.55907274  0.70648791  1.0
  Ni  Ni590  1  0.57858586  0.89240607  0.70648791  1.0
  Ni  Ni591  1  0.91191920  0.22573941  0.70648791  1.0
  Ni  Ni592  1  0.91191920  0.55907274  0.70648791  1.0
  Ni  Ni593  1  0.91191920  0.89240607  0.70648791  1.0
  Ni  Ni594  1  0.14273507  0.11029778  0.62954928  1.0
  Ni  Ni595  1  0.14273507  0.44363111  0.62954928  1.0
  Ni  Ni596  1  0.14273507  0.77696445  0.62954928  1.0
  Ni  Ni597  1  0.47606841  0.11029778  0.62954928  1.0
  Ni  Ni598  1  0.47606841  0.44363111  0.62954928  1.0
  Ni  Ni599  1  0.47606841  0.77696445  0.62954928  1.0
  Ni  Ni600  1  0.80940174  0.11029778  0.62954928  1.0
  Ni  Ni601  1  0.80940174  0.44363111  0.62954928  1.0
  Ni  Ni602  1  0.80940174  0.77696445  0.62954928  1.0
  Ni  Ni603  1  0.28856841  0.00613111  0.69204928  1.0
  Ni  Ni604  1  0.28856841  0.33946445  0.69204928  1.0
  Ni  Ni605  1  0.28856841  0.67279778  0.69204928  1.0
  Ni  Ni606  1  0.62190174  0.00613111  0.69204928  1.0
  Ni  Ni607  1  0.62190174  0.33946445  0.69204928  1.0
  Ni  Ni608  1  0.62190174  0.67279778  0.69204928  1.0
  Ni  Ni609  1  0.95523507  0.00613111  0.69204928  1.0
  Ni  Ni610  1  0.95523507  0.33946445  0.69204928  1.0
  Ni  Ni611  1  0.95523507  0.67279778  0.69204928  1.0
  Ni  Ni612  1  0.28856841  0.17279778  0.69204928  1.0
  Ni  Ni613  1  0.28856841  0.50613111  0.69204928  1.0
  Ni  Ni614  1  0.28856841  0.83946445  0.69204928  1.0
  Ni  Ni615  1  0.62190174  0.17279778  0.69204928  1.0
  Ni  Ni616  1  0.62190174  0.50613111  0.69204928  1.0
  Ni  Ni617  1  0.62190174  0.83946445  0.69204928  1.0
  Ni  Ni618  1  0.95523507  0.17279778  0.69204928  1.0
  Ni  Ni619  1  0.95523507  0.50613111  0.69204928  1.0
  Ni  Ni620  1  0.95523507  0.83946445  0.69204928  1.0
  Ni  Ni621  1  0.14273507  0.27696445  0.62954928  1.0
  Ni  Ni622  1  0.14273507  0.61029778  0.62954928  1.0
  Ni  Ni623  1  0.14273507  0.94363111  0.62954928  1.0
  Ni  Ni624  1  0.47606841  0.27696445  0.62954928  1.0
  Ni  Ni625  1  0.47606841  0.61029778  0.62954928  1.0
  Ni  Ni626  1  0.47606841  0.94363111  0.62954928  1.0
  Ni  Ni627  1  0.80940174  0.27696445  0.62954928  1.0
  Ni  Ni628  1  0.80940174  0.61029778  0.62954928  1.0
  Ni  Ni629  1  0.80940174  0.94363111  0.62954928  1.0
  Ni  Ni630  1  0.09941920  0.16323941  0.64398791  1.0
  Ni  Ni631  1  0.09941920  0.49657274  0.64398791  1.0
  Ni  Ni632  1  0.09941920  0.82990607  0.64398791  1.0
  Ni  Ni633  1  0.43275253  0.16323941  0.64398791  1.0
  Ni  Ni634  1  0.43275253  0.49657274  0.64398791  1.0
  Ni  Ni635  1  0.43275253  0.82990607  0.64398791  1.0
  Ni  Ni636  1  0.76608586  0.16323941  0.64398791  1.0
  Ni  Ni637  1  0.76608586  0.49657274  0.64398791  1.0
  Ni  Ni638  1  0.76608586  0.82990607  0.64398791  1.0
  Ni  Ni639  1  0.24525253  0.05907274  0.70648791  1.0
  Ni  Ni640  1  0.24525253  0.39240607  0.70648791  1.0
  Ni  Ni641  1  0.24525253  0.72573941  0.70648791  1.0
  Ni  Ni642  1  0.57858586  0.05907274  0.70648791  1.0
  Ni  Ni643  1  0.57858586  0.39240607  0.70648791  1.0
  Ni  Ni644  1  0.57858586  0.72573941  0.70648791  1.0
  Ni  Ni645  1  0.91191920  0.05907274  0.70648791  1.0
  Ni  Ni646  1  0.91191920  0.39240607  0.70648791  1.0
  Ni  Ni647  1  0.91191920  0.72573941  0.70648791  1.0
