# generated using pymatgen
data_NiGe
_symmetry_space_group_name_H-M   'P 1'
_cell_length_a   23.74992290
_cell_length_b   25.96364486
_cell_length_c   29.07344707
_cell_angle_alpha   98.03044988
_cell_angle_beta   91.23856191
_cell_angle_gamma   94.16407366
_symmetry_Int_Tables_number   1
_chemical_formula_structural   NiGe
_chemical_formula_sum   'Ni288 Ge288'
_cell_volume   17695.87393568
_cell_formula_units_Z   288
loop_
 _symmetry_equiv_pos_site_id
 _symmetry_equiv_pos_as_xyz
  1  'x, y, z'
loop_
 _atom_site_type_symbol
 _atom_site_label
 _atom_site_symmetry_multiplicity
 _atom_site_fract_x
 _atom_site_fract_y
 _atom_site_fract_z
 _atom_site_occupancy
  Ge  Ge0  1  0.29636933  0.26489956  0.00558733  1.0
  Ge  Ge1  1  0.29636933  0.59823289  0.00558733  1.0
  Ge  Ge2  1  0.29636933  0.93156622  0.00558733  1.0
  Ge  Ge3  1  0.62970267  0.26489956  0.00558733  1.0
  Ge  Ge4  1  0.62970267  0.59823289  0.00558733  1.0
  Ge  Ge5  1  0.62970267  0.93156622  0.00558733  1.0
  Ge  Ge6  1  0.96303600  0.26489956  0.00558733  1.0
  Ge  Ge7  1  0.96303600  0.59823289  0.00558733  1.0
  Ge  Ge8  1  0.96303600  0.93156622  0.00558733  1.0
  Ge  Ge9  1  0.12970267  0.07971437  0.06114289  1.0
  Ge  Ge10  1  0.12970267  0.41304770  0.06114289  1.0
  Ge  Ge11  1  0.12970267  0.74638104  0.06114289  1.0
  Ge  Ge12  1  0.46303600  0.07971437  0.06114289  1.0
  Ge  Ge13  1  0.46303600  0.41304770  0.06114289  1.0
  Ge  Ge14  1  0.46303600  0.74638104  0.06114289  1.0
  Ge  Ge15  1  0.79636933  0.07971437  0.06114289  1.0
  Ge  Ge16  1  0.79636933  0.41304770  0.06114289  1.0
  Ge  Ge17  1  0.79636933  0.74638104  0.06114289  1.0
  Ge  Ge18  1  0.03696400  0.03139674  0.10552378  1.0
  Ge  Ge19  1  0.03696400  0.36473007  0.10552378  1.0
  Ge  Ge20  1  0.03696400  0.69806341  0.10552378  1.0
  Ge  Ge21  1  0.37029733  0.03139674  0.10552378  1.0
  Ge  Ge22  1  0.37029733  0.36473007  0.10552378  1.0
  Ge  Ge23  1  0.37029733  0.69806341  0.10552378  1.0
  Ge  Ge24  1  0.70363067  0.03139674  0.10552378  1.0
  Ge  Ge25  1  0.70363067  0.36473007  0.10552378  1.0
  Ge  Ge26  1  0.70363067  0.69806341  0.10552378  1.0
  Ge  Ge27  1  0.20363067  0.21658193  0.04996822  1.0
  Ge  Ge28  1  0.20363067  0.54991526  0.04996822  1.0
  Ge  Ge29  1  0.20363067  0.88324859  0.04996822  1.0
  Ge  Ge30  1  0.53696400  0.21658193  0.04996822  1.0
  Ge  Ge31  1  0.53696400  0.54991526  0.04996822  1.0
  Ge  Ge32  1  0.53696400  0.88324859  0.04996822  1.0
  Ge  Ge33  1  0.87029733  0.21658193  0.04996822  1.0
  Ge  Ge34  1  0.87029733  0.54991526  0.04996822  1.0
  Ge  Ge35  1  0.87029733  0.88324859  0.04996822  1.0
  Ge  Ge36  1  0.26676200  0.10603200  0.07101200  1.0
  Ge  Ge37  1  0.26676200  0.43936533  0.07101200  1.0
  Ge  Ge38  1  0.26676200  0.77269867  0.07101200  1.0
  Ge  Ge39  1  0.60009533  0.10603200  0.07101200  1.0
  Ge  Ge40  1  0.60009533  0.43936533  0.07101200  1.0
  Ge  Ge41  1  0.60009533  0.77269867  0.07101200  1.0
  Ge  Ge42  1  0.93342867  0.10603200  0.07101200  1.0
  Ge  Ge43  1  0.93342867  0.43936533  0.07101200  1.0
  Ge  Ge44  1  0.93342867  0.77269867  0.07101200  1.0
  Ge  Ge45  1  0.10009533  0.29121719  0.01545644  1.0
  Ge  Ge46  1  0.10009533  0.62455052  0.01545644  1.0
  Ge  Ge47  1  0.10009533  0.95788385  0.01545644  1.0
  Ge  Ge48  1  0.43342867  0.29121719  0.01545644  1.0
  Ge  Ge49  1  0.43342867  0.62455052  0.01545644  1.0
  Ge  Ge50  1  0.43342867  0.95788385  0.01545644  1.0
  Ge  Ge51  1  0.76676200  0.29121719  0.01545644  1.0
  Ge  Ge52  1  0.76676200  0.62455052  0.01545644  1.0
  Ge  Ge53  1  0.76676200  0.95788385  0.01545644  1.0
  Ge  Ge54  1  0.06657133  0.19026430  0.04009911  1.0
  Ge  Ge55  1  0.06657133  0.52359763  0.04009911  1.0
  Ge  Ge56  1  0.06657133  0.85693096  0.04009911  1.0
  Ge  Ge57  1  0.39990467  0.19026430  0.04009911  1.0
  Ge  Ge58  1  0.39990467  0.52359763  0.04009911  1.0
  Ge  Ge59  1  0.39990467  0.85693096  0.04009911  1.0
  Ge  Ge60  1  0.73323800  0.19026430  0.04009911  1.0
  Ge  Ge61  1  0.73323800  0.52359763  0.04009911  1.0
  Ge  Ge62  1  0.73323800  0.85693096  0.04009911  1.0
  Ge  Ge63  1  0.23323800  0.00507911  0.09565467  1.0
  Ge  Ge64  1  0.23323800  0.33841244  0.09565467  1.0
  Ge  Ge65  1  0.23323800  0.67174578  0.09565467  1.0
  Ge  Ge66  1  0.56657133  0.00507911  0.09565467  1.0
  Ge  Ge67  1  0.56657133  0.33841244  0.09565467  1.0
  Ge  Ge68  1  0.56657133  0.67174578  0.09565467  1.0
  Ge  Ge69  1  0.89990467  0.00507911  0.09565467  1.0
  Ge  Ge70  1  0.89990467  0.33841244  0.09565467  1.0
  Ge  Ge71  1  0.89990467  0.67174578  0.09565467  1.0
  Ge  Ge72  1  0.29636933  0.22786252  0.11669844  1.0
  Ge  Ge73  1  0.29636933  0.56119585  0.11669844  1.0
  Ge  Ge74  1  0.29636933  0.89452919  0.11669844  1.0
  Ge  Ge75  1  0.62970267  0.22786252  0.11669844  1.0
  Ge  Ge76  1  0.62970267  0.56119585  0.11669844  1.0
  Ge  Ge77  1  0.62970267  0.89452919  0.11669844  1.0
  Ge  Ge78  1  0.96303600  0.22786252  0.11669844  1.0
  Ge  Ge79  1  0.96303600  0.56119585  0.11669844  1.0
  Ge  Ge80  1  0.96303600  0.89452919  0.11669844  1.0
  Ge  Ge81  1  0.12970267  0.04267733  0.17225400  1.0
  Ge  Ge82  1  0.12970267  0.37601067  0.17225400  1.0
  Ge  Ge83  1  0.12970267  0.70934400  0.17225400  1.0
  Ge  Ge84  1  0.46303600  0.04267733  0.17225400  1.0
  Ge  Ge85  1  0.46303600  0.37601067  0.17225400  1.0
  Ge  Ge86  1  0.46303600  0.70934400  0.17225400  1.0
  Ge  Ge87  1  0.79636933  0.04267733  0.17225400  1.0
  Ge  Ge88  1  0.79636933  0.37601067  0.17225400  1.0
  Ge  Ge89  1  0.79636933  0.70934400  0.17225400  1.0
  Ge  Ge90  1  0.03696400  0.32769304  0.21663489  1.0
  Ge  Ge91  1  0.03696400  0.66102637  0.21663489  1.0
  Ge  Ge92  1  0.03696400  0.99435970  0.21663489  1.0
  Ge  Ge93  1  0.37029733  0.32769304  0.21663489  1.0
  Ge  Ge94  1  0.37029733  0.66102637  0.21663489  1.0
  Ge  Ge95  1  0.37029733  0.99435970  0.21663489  1.0
  Ge  Ge96  1  0.70363067  0.32769304  0.21663489  1.0
  Ge  Ge97  1  0.70363067  0.66102637  0.21663489  1.0
  Ge  Ge98  1  0.70363067  0.99435970  0.21663489  1.0
  Ge  Ge99  1  0.20363067  0.17954489  0.16107933  1.0
  Ge  Ge100  1  0.20363067  0.51287822  0.16107933  1.0
  Ge  Ge101  1  0.20363067  0.84621156  0.16107933  1.0
  Ge  Ge102  1  0.53696400  0.17954489  0.16107933  1.0
  Ge  Ge103  1  0.53696400  0.51287822  0.16107933  1.0
  Ge  Ge104  1  0.53696400  0.84621156  0.16107933  1.0
  Ge  Ge105  1  0.87029733  0.17954489  0.16107933  1.0
  Ge  Ge106  1  0.87029733  0.51287822  0.16107933  1.0
  Ge  Ge107  1  0.87029733  0.84621156  0.16107933  1.0
  Ge  Ge108  1  0.26676200  0.06899496  0.18212311  1.0
  Ge  Ge109  1  0.26676200  0.40232830  0.18212311  1.0
  Ge  Ge110  1  0.26676200  0.73566163  0.18212311  1.0
  Ge  Ge111  1  0.60009533  0.06899496  0.18212311  1.0
  Ge  Ge112  1  0.60009533  0.40232830  0.18212311  1.0
  Ge  Ge113  1  0.60009533  0.73566163  0.18212311  1.0
  Ge  Ge114  1  0.93342867  0.06899496  0.18212311  1.0
  Ge  Ge115  1  0.93342867  0.40232830  0.18212311  1.0
  Ge  Ge116  1  0.93342867  0.73566163  0.18212311  1.0
  Ge  Ge117  1  0.10009533  0.25418015  0.12656756  1.0
  Ge  Ge118  1  0.10009533  0.58751348  0.12656756  1.0
  Ge  Ge119  1  0.10009533  0.92084681  0.12656756  1.0
  Ge  Ge120  1  0.43342867  0.25418015  0.12656756  1.0
  Ge  Ge121  1  0.43342867  0.58751348  0.12656756  1.0
  Ge  Ge122  1  0.43342867  0.92084681  0.12656756  1.0
  Ge  Ge123  1  0.76676200  0.25418015  0.12656756  1.0
  Ge  Ge124  1  0.76676200  0.58751348  0.12656756  1.0
  Ge  Ge125  1  0.76676200  0.92084681  0.12656756  1.0
  Ge  Ge126  1  0.06657133  0.15322726  0.15121022  1.0
  Ge  Ge127  1  0.06657133  0.48656059  0.15121022  1.0
  Ge  Ge128  1  0.06657133  0.81989393  0.15121022  1.0
  Ge  Ge129  1  0.39990467  0.15322726  0.15121022  1.0
  Ge  Ge130  1  0.39990467  0.48656059  0.15121022  1.0
  Ge  Ge131  1  0.39990467  0.81989393  0.15121022  1.0
  Ge  Ge132  1  0.73323800  0.15322726  0.15121022  1.0
  Ge  Ge133  1  0.73323800  0.48656059  0.15121022  1.0
  Ge  Ge134  1  0.73323800  0.81989393  0.15121022  1.0
  Ge  Ge135  1  0.23323800  0.30137541  0.20676578  1.0
  Ge  Ge136  1  0.23323800  0.63470874  0.20676578  1.0
  Ge  Ge137  1  0.23323800  0.96804207  0.20676578  1.0
  Ge  Ge138  1  0.56657133  0.30137541  0.20676578  1.0
  Ge  Ge139  1  0.56657133  0.63470874  0.20676578  1.0
  Ge  Ge140  1  0.56657133  0.96804207  0.20676578  1.0
  Ge  Ge141  1  0.89990467  0.30137541  0.20676578  1.0
  Ge  Ge142  1  0.89990467  0.63470874  0.20676578  1.0
  Ge  Ge143  1  0.89990467  0.96804207  0.20676578  1.0
  Ge  Ge144  1  0.29636933  0.19082548  0.22780956  1.0
  Ge  Ge145  1  0.29636933  0.52415881  0.22780956  1.0
  Ge  Ge146  1  0.29636933  0.85749215  0.22780956  1.0
  Ge  Ge147  1  0.62970267  0.19082548  0.22780956  1.0
  Ge  Ge148  1  0.62970267  0.52415881  0.22780956  1.0
  Ge  Ge149  1  0.62970267  0.85749215  0.22780956  1.0
  Ge  Ge150  1  0.96303600  0.19082548  0.22780956  1.0
  Ge  Ge151  1  0.96303600  0.52415881  0.22780956  1.0
  Ge  Ge152  1  0.96303600  0.85749215  0.22780956  1.0
  Ge  Ge153  1  0.12970267  0.00564030  0.28336511  1.0
  Ge  Ge154  1  0.12970267  0.33897363  0.28336511  1.0
  Ge  Ge155  1  0.12970267  0.67230696  0.28336511  1.0
  Ge  Ge156  1  0.46303600  0.00564030  0.28336511  1.0
  Ge  Ge157  1  0.46303600  0.33897363  0.28336511  1.0
  Ge  Ge158  1  0.46303600  0.67230696  0.28336511  1.0
  Ge  Ge159  1  0.79636933  0.00564030  0.28336511  1.0
  Ge  Ge160  1  0.79636933  0.33897363  0.28336511  1.0
  Ge  Ge161  1  0.79636933  0.67230696  0.28336511  1.0
  Ge  Ge162  1  0.03696400  0.29065600  0.32774600  1.0
  Ge  Ge163  1  0.03696400  0.62398933  0.32774600  1.0
  Ge  Ge164  1  0.03696400  0.95732267  0.32774600  1.0
  Ge  Ge165  1  0.37029733  0.29065600  0.32774600  1.0
  Ge  Ge166  1  0.37029733  0.62398933  0.32774600  1.0
  Ge  Ge167  1  0.37029733  0.95732267  0.32774600  1.0
  Ge  Ge168  1  0.70363067  0.29065600  0.32774600  1.0
  Ge  Ge169  1  0.70363067  0.62398933  0.32774600  1.0
  Ge  Ge170  1  0.70363067  0.95732267  0.32774600  1.0
  Ge  Ge171  1  0.20363067  0.14250785  0.27219044  1.0
  Ge  Ge172  1  0.20363067  0.47584119  0.27219044  1.0
  Ge  Ge173  1  0.20363067  0.80917452  0.27219044  1.0
  Ge  Ge174  1  0.53696400  0.14250785  0.27219044  1.0
  Ge  Ge175  1  0.53696400  0.47584119  0.27219044  1.0
  Ge  Ge176  1  0.53696400  0.80917452  0.27219044  1.0
  Ge  Ge177  1  0.87029733  0.14250785  0.27219044  1.0
  Ge  Ge178  1  0.87029733  0.47584119  0.27219044  1.0
  Ge  Ge179  1  0.87029733  0.80917452  0.27219044  1.0
  Ge  Ge180  1  0.26676200  0.03195793  0.29323422  1.0
  Ge  Ge181  1  0.26676200  0.36529126  0.29323422  1.0
  Ge  Ge182  1  0.26676200  0.69862459  0.29323422  1.0
  Ge  Ge183  1  0.60009533  0.03195793  0.29323422  1.0
  Ge  Ge184  1  0.60009533  0.36529126  0.29323422  1.0
  Ge  Ge185  1  0.60009533  0.69862459  0.29323422  1.0
  Ge  Ge186  1  0.93342867  0.03195793  0.29323422  1.0
  Ge  Ge187  1  0.93342867  0.36529126  0.29323422  1.0
  Ge  Ge188  1  0.93342867  0.69862459  0.29323422  1.0
  Ge  Ge189  1  0.10009533  0.21714311  0.23767867  1.0
  Ge  Ge190  1  0.10009533  0.55047644  0.23767867  1.0
  Ge  Ge191  1  0.10009533  0.88380978  0.23767867  1.0
  Ge  Ge192  1  0.43342867  0.21714311  0.23767867  1.0
  Ge  Ge193  1  0.43342867  0.55047644  0.23767867  1.0
  Ge  Ge194  1  0.43342867  0.88380978  0.23767867  1.0
  Ge  Ge195  1  0.76676200  0.21714311  0.23767867  1.0
  Ge  Ge196  1  0.76676200  0.55047644  0.23767867  1.0
  Ge  Ge197  1  0.76676200  0.88380978  0.23767867  1.0
  Ge  Ge198  1  0.06657133  0.11619022  0.26232133  1.0
  Ge  Ge199  1  0.06657133  0.44952356  0.26232133  1.0
  Ge  Ge200  1  0.06657133  0.78285689  0.26232133  1.0
  Ge  Ge201  1  0.39990467  0.11619022  0.26232133  1.0
  Ge  Ge202  1  0.39990467  0.44952356  0.26232133  1.0
  Ge  Ge203  1  0.39990467  0.78285689  0.26232133  1.0
  Ge  Ge204  1  0.73323800  0.11619022  0.26232133  1.0
  Ge  Ge205  1  0.73323800  0.44952356  0.26232133  1.0
  Ge  Ge206  1  0.73323800  0.78285689  0.26232133  1.0
  Ge  Ge207  1  0.23323800  0.26433837  0.31787689  1.0
  Ge  Ge208  1  0.23323800  0.59767170  0.31787689  1.0
  Ge  Ge209  1  0.23323800  0.93100504  0.31787689  1.0
  Ge  Ge210  1  0.56657133  0.26433837  0.31787689  1.0
  Ge  Ge211  1  0.56657133  0.59767170  0.31787689  1.0
  Ge  Ge212  1  0.56657133  0.93100504  0.31787689  1.0
  Ge  Ge213  1  0.89990467  0.26433837  0.31787689  1.0
  Ge  Ge214  1  0.89990467  0.59767170  0.31787689  1.0
  Ge  Ge215  1  0.89990467  0.93100504  0.31787689  1.0
  Ge  Ge216  1  0.29636933  0.15378844  0.33892067  1.0
  Ge  Ge217  1  0.29636933  0.48712178  0.33892067  1.0
  Ge  Ge218  1  0.29636933  0.82045511  0.33892067  1.0
  Ge  Ge219  1  0.62970267  0.15378844  0.33892067  1.0
  Ge  Ge220  1  0.62970267  0.48712178  0.33892067  1.0
  Ge  Ge221  1  0.62970267  0.82045511  0.33892067  1.0
  Ge  Ge222  1  0.96303600  0.15378844  0.33892067  1.0
  Ge  Ge223  1  0.96303600  0.48712178  0.33892067  1.0
  Ge  Ge224  1  0.96303600  0.82045511  0.33892067  1.0
  Ge  Ge225  1  0.12970267  0.30193659  0.39447622  1.0
  Ge  Ge226  1  0.12970267  0.63526993  0.39447622  1.0
  Ge  Ge227  1  0.12970267  0.96860326  0.39447622  1.0
  Ge  Ge228  1  0.46303600  0.30193659  0.39447622  1.0
  Ge  Ge229  1  0.46303600  0.63526993  0.39447622  1.0
  Ge  Ge230  1  0.46303600  0.96860326  0.39447622  1.0
  Ge  Ge231  1  0.79636933  0.30193659  0.39447622  1.0
  Ge  Ge232  1  0.79636933  0.63526993  0.39447622  1.0
  Ge  Ge233  1  0.79636933  0.96860326  0.39447622  1.0
  Ge  Ge234  1  0.03696400  0.25361896  0.43885711  1.0
  Ge  Ge235  1  0.03696400  0.58695230  0.43885711  1.0
  Ge  Ge236  1  0.03696400  0.92028563  0.43885711  1.0
  Ge  Ge237  1  0.37029733  0.25361896  0.43885711  1.0
  Ge  Ge238  1  0.37029733  0.58695230  0.43885711  1.0
  Ge  Ge239  1  0.37029733  0.92028563  0.43885711  1.0
  Ge  Ge240  1  0.70363067  0.25361896  0.43885711  1.0
  Ge  Ge241  1  0.70363067  0.58695230  0.43885711  1.0
  Ge  Ge242  1  0.70363067  0.92028563  0.43885711  1.0
  Ge  Ge243  1  0.20363067  0.10547081  0.38330156  1.0
  Ge  Ge244  1  0.20363067  0.43880415  0.38330156  1.0
  Ge  Ge245  1  0.20363067  0.77213748  0.38330156  1.0
  Ge  Ge246  1  0.53696400  0.10547081  0.38330156  1.0
  Ge  Ge247  1  0.53696400  0.43880415  0.38330156  1.0
  Ge  Ge248  1  0.53696400  0.77213748  0.38330156  1.0
  Ge  Ge249  1  0.87029733  0.10547081  0.38330156  1.0
  Ge  Ge250  1  0.87029733  0.43880415  0.38330156  1.0
  Ge  Ge251  1  0.87029733  0.77213748  0.38330156  1.0
  Ge  Ge252  1  0.26676200  0.32825422  0.40434533  1.0
  Ge  Ge253  1  0.26676200  0.66158756  0.40434533  1.0
  Ge  Ge254  1  0.26676200  0.99492089  0.40434533  1.0
  Ge  Ge255  1  0.60009533  0.32825422  0.40434533  1.0
  Ge  Ge256  1  0.60009533  0.66158756  0.40434533  1.0
  Ge  Ge257  1  0.60009533  0.99492089  0.40434533  1.0
  Ge  Ge258  1  0.93342867  0.32825422  0.40434533  1.0
  Ge  Ge259  1  0.93342867  0.66158756  0.40434533  1.0
  Ge  Ge260  1  0.93342867  0.99492089  0.40434533  1.0
  Ge  Ge261  1  0.10009533  0.18010607  0.34878978  1.0
  Ge  Ge262  1  0.10009533  0.51343941  0.34878978  1.0
  Ge  Ge263  1  0.10009533  0.84677274  0.34878978  1.0
  Ge  Ge264  1  0.43342867  0.18010607  0.34878978  1.0
  Ge  Ge265  1  0.43342867  0.51343941  0.34878978  1.0
  Ge  Ge266  1  0.43342867  0.84677274  0.34878978  1.0
  Ge  Ge267  1  0.76676200  0.18010607  0.34878978  1.0
  Ge  Ge268  1  0.76676200  0.51343941  0.34878978  1.0
  Ge  Ge269  1  0.76676200  0.84677274  0.34878978  1.0
  Ge  Ge270  1  0.06657133  0.07915319  0.37343244  1.0
  Ge  Ge271  1  0.06657133  0.41248652  0.37343244  1.0
  Ge  Ge272  1  0.06657133  0.74581985  0.37343244  1.0
  Ge  Ge273  1  0.39990467  0.07915319  0.37343244  1.0
  Ge  Ge274  1  0.39990467  0.41248652  0.37343244  1.0
  Ge  Ge275  1  0.39990467  0.74581985  0.37343244  1.0
  Ge  Ge276  1  0.73323800  0.07915319  0.37343244  1.0
  Ge  Ge277  1  0.73323800  0.41248652  0.37343244  1.0
  Ge  Ge278  1  0.73323800  0.74581985  0.37343244  1.0
  Ge  Ge279  1  0.23323800  0.22730133  0.42898800  1.0
  Ge  Ge280  1  0.23323800  0.56063467  0.42898800  1.0
  Ge  Ge281  1  0.23323800  0.89396800  0.42898800  1.0
  Ge  Ge282  1  0.56657133  0.22730133  0.42898800  1.0
  Ge  Ge283  1  0.56657133  0.56063467  0.42898800  1.0
  Ge  Ge284  1  0.56657133  0.89396800  0.42898800  1.0
  Ge  Ge285  1  0.89990467  0.22730133  0.42898800  1.0
  Ge  Ge286  1  0.89990467  0.56063467  0.42898800  1.0
  Ge  Ge287  1  0.89990467  0.89396800  0.42898800  1.0
  Ni  Ni288  1  0.03274883  0.11170237  0.07313839  1.0
  Ni  Ni289  1  0.03274883  0.44503570  0.07313839  1.0
  Ni  Ni290  1  0.03274883  0.77836904  0.07313839  1.0
  Ni  Ni291  1  0.36608217  0.11170237  0.07313839  1.0
  Ni  Ni292  1  0.36608217  0.44503570  0.07313839  1.0
  Ni  Ni293  1  0.36608217  0.77836904  0.07313839  1.0
  Ni  Ni294  1  0.69941550  0.11170237  0.07313839  1.0
  Ni  Ni295  1  0.69941550  0.44503570  0.07313839  1.0
  Ni  Ni296  1  0.69941550  0.77836904  0.07313839  1.0
  Ni  Ni297  1  0.19941550  0.29688756  0.01758283  1.0
  Ni  Ni298  1  0.19941550  0.63022089  0.01758283  1.0
  Ni  Ni299  1  0.19941550  0.96355422  0.01758283  1.0
  Ni  Ni300  1  0.53274883  0.29688756  0.01758283  1.0
  Ni  Ni301  1  0.53274883  0.63022089  0.01758283  1.0
  Ni  Ni302  1  0.53274883  0.96355422  0.01758283  1.0
  Ni  Ni303  1  0.86608217  0.29688756  0.01758283  1.0
  Ni  Ni304  1  0.86608217  0.63022089  0.01758283  1.0
  Ni  Ni305  1  0.86608217  0.96355422  0.01758283  1.0
  Ni  Ni306  1  0.30058450  0.18459393  0.03797272  1.0
  Ni  Ni307  1  0.30058450  0.51792726  0.03797272  1.0
  Ni  Ni308  1  0.30058450  0.85126059  0.03797272  1.0
  Ni  Ni309  1  0.63391783  0.18459393  0.03797272  1.0
  Ni  Ni310  1  0.63391783  0.51792726  0.03797272  1.0
  Ni  Ni311  1  0.63391783  0.85126059  0.03797272  1.0
  Ni  Ni312  1  0.96725117  0.18459393  0.03797272  1.0
  Ni  Ni313  1  0.96725117  0.51792726  0.03797272  1.0
  Ni  Ni314  1  0.96725117  0.85126059  0.03797272  1.0
  Ni  Ni315  1  0.13391783  0.33274207  0.09352828  1.0
  Ni  Ni316  1  0.13391783  0.66607541  0.09352828  1.0
  Ni  Ni317  1  0.13391783  0.99940874  0.09352828  1.0
  Ni  Ni318  1  0.46725117  0.33274207  0.09352828  1.0
  Ni  Ni319  1  0.46725117  0.66607541  0.09352828  1.0
  Ni  Ni320  1  0.46725117  0.99940874  0.09352828  1.0
  Ni  Ni321  1  0.80058450  0.33274207  0.09352828  1.0
  Ni  Ni322  1  0.80058450  0.66607541  0.09352828  1.0
  Ni  Ni323  1  0.80058450  0.99940874  0.09352828  1.0
  Ni  Ni324  1  0.30274850  0.01985081  0.03869406  1.0
  Ni  Ni325  1  0.30274850  0.35318415  0.03869406  1.0
  Ni  Ni326  1  0.30274850  0.68651748  0.03869406  1.0
  Ni  Ni327  1  0.63608183  0.01985081  0.03869406  1.0
  Ni  Ni328  1  0.63608183  0.35318415  0.03869406  1.0
  Ni  Ni329  1  0.63608183  0.68651748  0.03869406  1.0
  Ni  Ni330  1  0.96941517  0.01985081  0.03869406  1.0
  Ni  Ni331  1  0.96941517  0.35318415  0.03869406  1.0
  Ni  Ni332  1  0.96941517  0.68651748  0.03869406  1.0
  Ni  Ni333  1  0.13608183  0.16799896  0.09424961  1.0
  Ni  Ni334  1  0.13608183  0.50133230  0.09424961  1.0
  Ni  Ni335  1  0.13608183  0.83466563  0.09424961  1.0
  Ni  Ni336  1  0.46941517  0.16799896  0.09424961  1.0
  Ni  Ni337  1  0.46941517  0.50133230  0.09424961  1.0
  Ni  Ni338  1  0.46941517  0.83466563  0.09424961  1.0
  Ni  Ni339  1  0.80274850  0.16799896  0.09424961  1.0
  Ni  Ni340  1  0.80274850  0.50133230  0.09424961  1.0
  Ni  Ni341  1  0.80274850  0.83466563  0.09424961  1.0
  Ni  Ni342  1  0.03058483  0.27644548  0.07241706  1.0
  Ni  Ni343  1  0.03058483  0.60977881  0.07241706  1.0
  Ni  Ni344  1  0.03058483  0.94311215  0.07241706  1.0
  Ni  Ni345  1  0.36391817  0.27644548  0.07241706  1.0
  Ni  Ni346  1  0.36391817  0.60977881  0.07241706  1.0
  Ni  Ni347  1  0.36391817  0.94311215  0.07241706  1.0
  Ni  Ni348  1  0.69725150  0.27644548  0.07241706  1.0
  Ni  Ni349  1  0.69725150  0.60977881  0.07241706  1.0
  Ni  Ni350  1  0.69725150  0.94311215  0.07241706  1.0
  Ni  Ni351  1  0.19725150  0.12829733  0.01686150  1.0
  Ni  Ni352  1  0.19725150  0.46163067  0.01686150  1.0
  Ni  Ni353  1  0.19725150  0.79496400  0.01686150  1.0
  Ni  Ni354  1  0.53058483  0.12829733  0.01686150  1.0
  Ni  Ni355  1  0.53058483  0.46163067  0.01686150  1.0
  Ni  Ni356  1  0.53058483  0.79496400  0.01686150  1.0
  Ni  Ni357  1  0.86391817  0.12829733  0.01686150  1.0
  Ni  Ni358  1  0.86391817  0.46163067  0.01686150  1.0
  Ni  Ni359  1  0.86391817  0.79496400  0.01686150  1.0
  Ni  Ni360  1  0.03274883  0.07466533  0.18424950  1.0
  Ni  Ni361  1  0.03274883  0.40799867  0.18424950  1.0
  Ni  Ni362  1  0.03274883  0.74133200  0.18424950  1.0
  Ni  Ni363  1  0.36608217  0.07466533  0.18424950  1.0
  Ni  Ni364  1  0.36608217  0.40799867  0.18424950  1.0
  Ni  Ni365  1  0.36608217  0.74133200  0.18424950  1.0
  Ni  Ni366  1  0.69941550  0.07466533  0.18424950  1.0
  Ni  Ni367  1  0.69941550  0.40799867  0.18424950  1.0
  Ni  Ni368  1  0.69941550  0.74133200  0.18424950  1.0
  Ni  Ni369  1  0.19941550  0.25985052  0.12869394  1.0
  Ni  Ni370  1  0.19941550  0.59318385  0.12869394  1.0
  Ni  Ni371  1  0.19941550  0.92651719  0.12869394  1.0
  Ni  Ni372  1  0.53274883  0.25985052  0.12869394  1.0
  Ni  Ni373  1  0.53274883  0.59318385  0.12869394  1.0
  Ni  Ni374  1  0.53274883  0.92651719  0.12869394  1.0
  Ni  Ni375  1  0.86608217  0.25985052  0.12869394  1.0
  Ni  Ni376  1  0.86608217  0.59318385  0.12869394  1.0
  Ni  Ni377  1  0.86608217  0.92651719  0.12869394  1.0
  Ni  Ni378  1  0.30058450  0.14755689  0.14908383  1.0
  Ni  Ni379  1  0.30058450  0.48089022  0.14908383  1.0
  Ni  Ni380  1  0.30058450  0.81422356  0.14908383  1.0
  Ni  Ni381  1  0.63391783  0.14755689  0.14908383  1.0
  Ni  Ni382  1  0.63391783  0.48089022  0.14908383  1.0
  Ni  Ni383  1  0.63391783  0.81422356  0.14908383  1.0
  Ni  Ni384  1  0.96725117  0.14755689  0.14908383  1.0
  Ni  Ni385  1  0.96725117  0.48089022  0.14908383  1.0
  Ni  Ni386  1  0.96725117  0.81422356  0.14908383  1.0
  Ni  Ni387  1  0.13391783  0.29570504  0.20463939  1.0
  Ni  Ni388  1  0.13391783  0.62903837  0.20463939  1.0
  Ni  Ni389  1  0.13391783  0.96237170  0.20463939  1.0
  Ni  Ni390  1  0.46725117  0.29570504  0.20463939  1.0
  Ni  Ni391  1  0.46725117  0.62903837  0.20463939  1.0
  Ni  Ni392  1  0.46725117  0.96237170  0.20463939  1.0
  Ni  Ni393  1  0.80058450  0.29570504  0.20463939  1.0
  Ni  Ni394  1  0.80058450  0.62903837  0.20463939  1.0
  Ni  Ni395  1  0.80058450  0.96237170  0.20463939  1.0
  Ni  Ni396  1  0.30274850  0.31614711  0.14980517  1.0
  Ni  Ni397  1  0.30274850  0.64948044  0.14980517  1.0
  Ni  Ni398  1  0.30274850  0.98281378  0.14980517  1.0
  Ni  Ni399  1  0.63608183  0.31614711  0.14980517  1.0
  Ni  Ni400  1  0.63608183  0.64948044  0.14980517  1.0
  Ni  Ni401  1  0.63608183  0.98281378  0.14980517  1.0
  Ni  Ni402  1  0.96941517  0.31614711  0.14980517  1.0
  Ni  Ni403  1  0.96941517  0.64948044  0.14980517  1.0
  Ni  Ni404  1  0.96941517  0.98281378  0.14980517  1.0
  Ni  Ni405  1  0.13608183  0.13096193  0.20536072  1.0
  Ni  Ni406  1  0.13608183  0.46429526  0.20536072  1.0
  Ni  Ni407  1  0.13608183  0.79762859  0.20536072  1.0
  Ni  Ni408  1  0.46941517  0.13096193  0.20536072  1.0
  Ni  Ni409  1  0.46941517  0.46429526  0.20536072  1.0
  Ni  Ni410  1  0.46941517  0.79762859  0.20536072  1.0
  Ni  Ni411  1  0.80274850  0.13096193  0.20536072  1.0
  Ni  Ni412  1  0.80274850  0.46429526  0.20536072  1.0
  Ni  Ni413  1  0.80274850  0.79762859  0.20536072  1.0
  Ni  Ni414  1  0.03058483  0.23940844  0.18352817  1.0
  Ni  Ni415  1  0.03058483  0.57274178  0.18352817  1.0
  Ni  Ni416  1  0.03058483  0.90607511  0.18352817  1.0
  Ni  Ni417  1  0.36391817  0.23940844  0.18352817  1.0
  Ni  Ni418  1  0.36391817  0.57274178  0.18352817  1.0
  Ni  Ni419  1  0.36391817  0.90607511  0.18352817  1.0
  Ni  Ni420  1  0.69725150  0.23940844  0.18352817  1.0
  Ni  Ni421  1  0.69725150  0.57274178  0.18352817  1.0
  Ni  Ni422  1  0.69725150  0.90607511  0.18352817  1.0
  Ni  Ni423  1  0.19725150  0.09126030  0.12797261  1.0
  Ni  Ni424  1  0.19725150  0.42459363  0.12797261  1.0
  Ni  Ni425  1  0.19725150  0.75792696  0.12797261  1.0
  Ni  Ni426  1  0.53058483  0.09126030  0.12797261  1.0
  Ni  Ni427  1  0.53058483  0.42459363  0.12797261  1.0
  Ni  Ni428  1  0.53058483  0.75792696  0.12797261  1.0
  Ni  Ni429  1  0.86391817  0.09126030  0.12797261  1.0
  Ni  Ni430  1  0.86391817  0.42459363  0.12797261  1.0
  Ni  Ni431  1  0.86391817  0.75792696  0.12797261  1.0
  Ni  Ni432  1  0.03274883  0.03762830  0.29536061  1.0
  Ni  Ni433  1  0.03274883  0.37096163  0.29536061  1.0
  Ni  Ni434  1  0.03274883  0.70429496  0.29536061  1.0
  Ni  Ni435  1  0.36608217  0.03762830  0.29536061  1.0
  Ni  Ni436  1  0.36608217  0.37096163  0.29536061  1.0
  Ni  Ni437  1  0.36608217  0.70429496  0.29536061  1.0
  Ni  Ni438  1  0.69941550  0.03762830  0.29536061  1.0
  Ni  Ni439  1  0.69941550  0.37096163  0.29536061  1.0
  Ni  Ni440  1  0.69941550  0.70429496  0.29536061  1.0
  Ni  Ni441  1  0.19941550  0.22281348  0.23980506  1.0
  Ni  Ni442  1  0.19941550  0.55614681  0.23980506  1.0
  Ni  Ni443  1  0.19941550  0.88948015  0.23980506  1.0
  Ni  Ni444  1  0.53274883  0.22281348  0.23980506  1.0
  Ni  Ni445  1  0.53274883  0.55614681  0.23980506  1.0
  Ni  Ni446  1  0.53274883  0.88948015  0.23980506  1.0
  Ni  Ni447  1  0.86608217  0.22281348  0.23980506  1.0
  Ni  Ni448  1  0.86608217  0.55614681  0.23980506  1.0
  Ni  Ni449  1  0.86608217  0.88948015  0.23980506  1.0
  Ni  Ni450  1  0.30058450  0.11051985  0.26019494  1.0
  Ni  Ni451  1  0.30058450  0.44385319  0.26019494  1.0
  Ni  Ni452  1  0.30058450  0.77718652  0.26019494  1.0
  Ni  Ni453  1  0.63391783  0.11051985  0.26019494  1.0
  Ni  Ni454  1  0.63391783  0.44385319  0.26019494  1.0
  Ni  Ni455  1  0.63391783  0.77718652  0.26019494  1.0
  Ni  Ni456  1  0.96725117  0.11051985  0.26019494  1.0
  Ni  Ni457  1  0.96725117  0.44385319  0.26019494  1.0
  Ni  Ni458  1  0.96725117  0.77718652  0.26019494  1.0
  Ni  Ni459  1  0.13391783  0.25866800  0.31575050  1.0
  Ni  Ni460  1  0.13391783  0.59200133  0.31575050  1.0
  Ni  Ni461  1  0.13391783  0.92533467  0.31575050  1.0
  Ni  Ni462  1  0.46725117  0.25866800  0.31575050  1.0
  Ni  Ni463  1  0.46725117  0.59200133  0.31575050  1.0
  Ni  Ni464  1  0.46725117  0.92533467  0.31575050  1.0
  Ni  Ni465  1  0.80058450  0.25866800  0.31575050  1.0
  Ni  Ni466  1  0.80058450  0.59200133  0.31575050  1.0
  Ni  Ni467  1  0.80058450  0.92533467  0.31575050  1.0
  Ni  Ni468  1  0.30274850  0.27911007  0.26091628  1.0
  Ni  Ni469  1  0.30274850  0.61244341  0.26091628  1.0
  Ni  Ni470  1  0.30274850  0.94577674  0.26091628  1.0
  Ni  Ni471  1  0.63608183  0.27911007  0.26091628  1.0
  Ni  Ni472  1  0.63608183  0.61244341  0.26091628  1.0
  Ni  Ni473  1  0.63608183  0.94577674  0.26091628  1.0
  Ni  Ni474  1  0.96941517  0.27911007  0.26091628  1.0
  Ni  Ni475  1  0.96941517  0.61244341  0.26091628  1.0
  Ni  Ni476  1  0.96941517  0.94577674  0.26091628  1.0
  Ni  Ni477  1  0.13608183  0.09392489  0.31647183  1.0
  Ni  Ni478  1  0.13608183  0.42725822  0.31647183  1.0
  Ni  Ni479  1  0.13608183  0.76059156  0.31647183  1.0
  Ni  Ni480  1  0.46941517  0.09392489  0.31647183  1.0
  Ni  Ni481  1  0.46941517  0.42725822  0.31647183  1.0
  Ni  Ni482  1  0.46941517  0.76059156  0.31647183  1.0
  Ni  Ni483  1  0.80274850  0.09392489  0.31647183  1.0
  Ni  Ni484  1  0.80274850  0.42725822  0.31647183  1.0
  Ni  Ni485  1  0.80274850  0.76059156  0.31647183  1.0
  Ni  Ni486  1  0.03058483  0.20237141  0.29463928  1.0
  Ni  Ni487  1  0.03058483  0.53570474  0.29463928  1.0
  Ni  Ni488  1  0.03058483  0.86903807  0.29463928  1.0
  Ni  Ni489  1  0.36391817  0.20237141  0.29463928  1.0
  Ni  Ni490  1  0.36391817  0.53570474  0.29463928  1.0
  Ni  Ni491  1  0.36391817  0.86903807  0.29463928  1.0
  Ni  Ni492  1  0.69725150  0.20237141  0.29463928  1.0
  Ni  Ni493  1  0.69725150  0.53570474  0.29463928  1.0
  Ni  Ni494  1  0.69725150  0.86903807  0.29463928  1.0
  Ni  Ni495  1  0.19725150  0.05422326  0.23908372  1.0
  Ni  Ni496  1  0.19725150  0.38755659  0.23908372  1.0
  Ni  Ni497  1  0.19725150  0.72088993  0.23908372  1.0
  Ni  Ni498  1  0.53058483  0.05422326  0.23908372  1.0
  Ni  Ni499  1  0.53058483  0.38755659  0.23908372  1.0
  Ni  Ni500  1  0.53058483  0.72088993  0.23908372  1.0
  Ni  Ni501  1  0.86391817  0.05422326  0.23908372  1.0
  Ni  Ni502  1  0.86391817  0.38755659  0.23908372  1.0
  Ni  Ni503  1  0.86391817  0.72088993  0.23908372  1.0
  Ni  Ni504  1  0.03274883  0.00059126  0.40647172  1.0
  Ni  Ni505  1  0.03274883  0.33392459  0.40647172  1.0
  Ni  Ni506  1  0.03274883  0.66725793  0.40647172  1.0
  Ni  Ni507  1  0.36608217  0.00059126  0.40647172  1.0
  Ni  Ni508  1  0.36608217  0.33392459  0.40647172  1.0
  Ni  Ni509  1  0.36608217  0.66725793  0.40647172  1.0
  Ni  Ni510  1  0.69941550  0.00059126  0.40647172  1.0
  Ni  Ni511  1  0.69941550  0.33392459  0.40647172  1.0
  Ni  Ni512  1  0.69941550  0.66725793  0.40647172  1.0
  Ni  Ni513  1  0.19941550  0.18577644  0.35091617  1.0
  Ni  Ni514  1  0.19941550  0.51910978  0.35091617  1.0
  Ni  Ni515  1  0.19941550  0.85244311  0.35091617  1.0
  Ni  Ni516  1  0.53274883  0.18577644  0.35091617  1.0
  Ni  Ni517  1  0.53274883  0.51910978  0.35091617  1.0
  Ni  Ni518  1  0.53274883  0.85244311  0.35091617  1.0
  Ni  Ni519  1  0.86608217  0.18577644  0.35091617  1.0
  Ni  Ni520  1  0.86608217  0.51910978  0.35091617  1.0
  Ni  Ni521  1  0.86608217  0.85244311  0.35091617  1.0
  Ni  Ni522  1  0.30058450  0.07348281  0.37130606  1.0
  Ni  Ni523  1  0.30058450  0.40681615  0.37130606  1.0
  Ni  Ni524  1  0.30058450  0.74014948  0.37130606  1.0
  Ni  Ni525  1  0.63391783  0.07348281  0.37130606  1.0
  Ni  Ni526  1  0.63391783  0.40681615  0.37130606  1.0
  Ni  Ni527  1  0.63391783  0.74014948  0.37130606  1.0
  Ni  Ni528  1  0.96725117  0.07348281  0.37130606  1.0
  Ni  Ni529  1  0.96725117  0.40681615  0.37130606  1.0
  Ni  Ni530  1  0.96725117  0.74014948  0.37130606  1.0
  Ni  Ni531  1  0.13391783  0.22163096  0.42686161  1.0
  Ni  Ni532  1  0.13391783  0.55496430  0.42686161  1.0
  Ni  Ni533  1  0.13391783  0.88829763  0.42686161  1.0
  Ni  Ni534  1  0.46725117  0.22163096  0.42686161  1.0
  Ni  Ni535  1  0.46725117  0.55496430  0.42686161  1.0
  Ni  Ni536  1  0.46725117  0.88829763  0.42686161  1.0
  Ni  Ni537  1  0.80058450  0.22163096  0.42686161  1.0
  Ni  Ni538  1  0.80058450  0.55496430  0.42686161  1.0
  Ni  Ni539  1  0.80058450  0.88829763  0.42686161  1.0
  Ni  Ni540  1  0.30274850  0.24207304  0.37202739  1.0
  Ni  Ni541  1  0.30274850  0.57540637  0.37202739  1.0
  Ni  Ni542  1  0.30274850  0.90873970  0.37202739  1.0
  Ni  Ni543  1  0.63608183  0.24207304  0.37202739  1.0
  Ni  Ni544  1  0.63608183  0.57540637  0.37202739  1.0
  Ni  Ni545  1  0.63608183  0.90873970  0.37202739  1.0
  Ni  Ni546  1  0.96941517  0.24207304  0.37202739  1.0
  Ni  Ni547  1  0.96941517  0.57540637  0.37202739  1.0
  Ni  Ni548  1  0.96941517  0.90873970  0.37202739  1.0
  Ni  Ni549  1  0.13608183  0.05688785  0.42758294  1.0
  Ni  Ni550  1  0.13608183  0.39022119  0.42758294  1.0
  Ni  Ni551  1  0.13608183  0.72355452  0.42758294  1.0
  Ni  Ni552  1  0.46941517  0.05688785  0.42758294  1.0
  Ni  Ni553  1  0.46941517  0.39022119  0.42758294  1.0
  Ni  Ni554  1  0.46941517  0.72355452  0.42758294  1.0
  Ni  Ni555  1  0.80274850  0.05688785  0.42758294  1.0
  Ni  Ni556  1  0.80274850  0.39022119  0.42758294  1.0
  Ni  Ni557  1  0.80274850  0.72355452  0.42758294  1.0
  Ni  Ni558  1  0.03058483  0.16533437  0.40575039  1.0
  Ni  Ni559  1  0.03058483  0.49866770  0.40575039  1.0
  Ni  Ni560  1  0.03058483  0.83200104  0.40575039  1.0
  Ni  Ni561  1  0.36391817  0.16533437  0.40575039  1.0
  Ni  Ni562  1  0.36391817  0.49866770  0.40575039  1.0
  Ni  Ni563  1  0.36391817  0.83200104  0.40575039  1.0
  Ni  Ni564  1  0.69725150  0.16533437  0.40575039  1.0
  Ni  Ni565  1  0.69725150  0.49866770  0.40575039  1.0
  Ni  Ni566  1  0.69725150  0.83200104  0.40575039  1.0
  Ni  Ni567  1  0.19725150  0.01718622  0.35019483  1.0
  Ni  Ni568  1  0.19725150  0.35051956  0.35019483  1.0
  Ni  Ni569  1  0.19725150  0.68385289  0.35019483  1.0
  Ni  Ni570  1  0.53058483  0.01718622  0.35019483  1.0
  Ni  Ni571  1  0.53058483  0.35051956  0.35019483  1.0
  Ni  Ni572  1  0.53058483  0.68385289  0.35019483  1.0
  Ni  Ni573  1  0.86391817  0.01718622  0.35019483  1.0
  Ni  Ni574  1  0.86391817  0.35051956  0.35019483  1.0
  Ni  Ni575  1  0.86391817  0.68385289  0.35019483  1.0
