# generated using pymatgen
data_NiGe3
_symmetry_space_group_name_H-M   'P 1'
_cell_length_a   23.10740999
_cell_length_b   26.18772602
_cell_length_c   62.70775004
_cell_angle_alpha   25.19913217
_cell_angle_beta   37.02213163
_cell_angle_gamma   28.06973020
_symmetry_Int_Tables_number   1
_chemical_formula_structural   NiGe3
_chemical_formula_sum   'Ni45 Ge135'
_cell_volume   7602.25996719
_cell_formula_units_Z   45
loop_
 _symmetry_equiv_pos_site_id
 _symmetry_equiv_pos_as_xyz
  1  'x, y, z'
loop_
 _atom_site_type_symbol
 _atom_site_label
 _atom_site_symmetry_multiplicity
 _atom_site_fract_x
 _atom_site_fract_y
 _atom_site_fract_z
 _atom_site_occupancy
  Ni  Ni0  1  0.00000000  0.00000000  0.03846154  1.0
  Ni  Ni1  1  0.00000000  0.33333333  0.03846154  1.0
  Ni  Ni2  1  0.00000000  0.66666667  0.03846154  1.0
  Ni  Ni3  1  0.33333333  0.00000000  0.03846154  1.0
  Ni  Ni4  1  0.33333333  0.33333333  0.03846154  1.0
  Ni  Ni5  1  0.33333333  0.66666667  0.03846154  1.0
  Ni  Ni6  1  0.66666667  0.00000000  0.03846154  1.0
  Ni  Ni7  1  0.66666667  0.33333333  0.03846154  1.0
  Ni  Ni8  1  0.66666667  0.66666667  0.03846154  1.0
  Ge  Ge9  1  0.25000000  0.16666667  0.03846154  1.0
  Ge  Ge10  1  0.25000000  0.50000000  0.03846154  1.0
  Ge  Ge11  1  0.25000000  0.83333333  0.03846154  1.0
  Ge  Ge12  1  0.58333333  0.16666667  0.03846154  1.0
  Ge  Ge13  1  0.58333333  0.50000000  0.03846154  1.0
  Ge  Ge14  1  0.58333333  0.83333333  0.03846154  1.0
  Ge  Ge15  1  0.91666667  0.16666667  0.03846154  1.0
  Ge  Ge16  1  0.91666667  0.50000000  0.03846154  1.0
  Ge  Ge17  1  0.91666667  0.83333333  0.03846154  1.0
  Ge  Ge18  1  0.08333333  0.16666667  0.03846154  1.0
  Ge  Ge19  1  0.08333333  0.50000000  0.03846154  1.0
  Ge  Ge20  1  0.08333333  0.83333333  0.03846154  1.0
  Ge  Ge21  1  0.41666667  0.16666667  0.03846154  1.0
  Ge  Ge22  1  0.41666667  0.50000000  0.03846154  1.0
  Ge  Ge23  1  0.41666667  0.83333333  0.03846154  1.0
  Ge  Ge24  1  0.75000000  0.16666667  0.03846154  1.0
  Ge  Ge25  1  0.75000000  0.50000000  0.03846154  1.0
  Ge  Ge26  1  0.75000000  0.83333333  0.03846154  1.0
  Ge  Ge27  1  0.16666667  0.00000000  0.03846154  1.0
  Ge  Ge28  1  0.16666667  0.33333333  0.03846154  1.0
  Ge  Ge29  1  0.16666667  0.66666667  0.03846154  1.0
  Ge  Ge30  1  0.50000000  0.00000000  0.03846154  1.0
  Ge  Ge31  1  0.50000000  0.33333333  0.03846154  1.0
  Ge  Ge32  1  0.50000000  0.66666667  0.03846154  1.0
  Ge  Ge33  1  0.83333333  0.00000000  0.03846154  1.0
  Ge  Ge34  1  0.83333333  0.33333333  0.03846154  1.0
  Ge  Ge35  1  0.83333333  0.66666667  0.03846154  1.0
  Ni  Ni36  1  0.00000000  0.00000000  0.11538462  1.0
  Ni  Ni37  1  0.00000000  0.33333333  0.11538462  1.0
  Ni  Ni38  1  0.00000000  0.66666667  0.11538462  1.0
  Ni  Ni39  1  0.33333333  0.00000000  0.11538462  1.0
  Ni  Ni40  1  0.33333333  0.33333333  0.11538462  1.0
  Ni  Ni41  1  0.33333333  0.66666667  0.11538462  1.0
  Ni  Ni42  1  0.66666667  0.00000000  0.11538462  1.0
  Ni  Ni43  1  0.66666667  0.33333333  0.11538462  1.0
  Ni  Ni44  1  0.66666667  0.66666667  0.11538462  1.0
  Ge  Ge45  1  0.25000000  0.16666667  0.11538462  1.0
  Ge  Ge46  1  0.25000000  0.50000000  0.11538462  1.0
  Ge  Ge47  1  0.25000000  0.83333333  0.11538462  1.0
  Ge  Ge48  1  0.58333333  0.16666667  0.11538462  1.0
  Ge  Ge49  1  0.58333333  0.50000000  0.11538462  1.0
  Ge  Ge50  1  0.58333333  0.83333333  0.11538462  1.0
  Ge  Ge51  1  0.91666667  0.16666667  0.11538462  1.0
  Ge  Ge52  1  0.91666667  0.50000000  0.11538462  1.0
  Ge  Ge53  1  0.91666667  0.83333333  0.11538462  1.0
  Ge  Ge54  1  0.08333333  0.16666667  0.11538462  1.0
  Ge  Ge55  1  0.08333333  0.50000000  0.11538462  1.0
  Ge  Ge56  1  0.08333333  0.83333333  0.11538462  1.0
  Ge  Ge57  1  0.41666667  0.16666667  0.11538462  1.0
  Ge  Ge58  1  0.41666667  0.50000000  0.11538462  1.0
  Ge  Ge59  1  0.41666667  0.83333333  0.11538462  1.0
  Ge  Ge60  1  0.75000000  0.16666667  0.11538462  1.0
  Ge  Ge61  1  0.75000000  0.50000000  0.11538462  1.0
  Ge  Ge62  1  0.75000000  0.83333333  0.11538462  1.0
  Ge  Ge63  1  0.16666667  0.00000000  0.11538462  1.0
  Ge  Ge64  1  0.16666667  0.33333333  0.11538462  1.0
  Ge  Ge65  1  0.16666667  0.66666667  0.11538462  1.0
  Ge  Ge66  1  0.50000000  0.00000000  0.11538462  1.0
  Ge  Ge67  1  0.50000000  0.33333333  0.11538462  1.0
  Ge  Ge68  1  0.50000000  0.66666667  0.11538462  1.0
  Ge  Ge69  1  0.83333333  0.00000000  0.11538462  1.0
  Ge  Ge70  1  0.83333333  0.33333333  0.11538462  1.0
  Ge  Ge71  1  0.83333333  0.66666667  0.11538462  1.0
  Ni  Ni72  1  0.00000000  0.00000000  0.19230769  1.0
  Ni  Ni73  1  0.00000000  0.33333333  0.19230769  1.0
  Ni  Ni74  1  0.00000000  0.66666667  0.19230769  1.0
  Ni  Ni75  1  0.33333333  0.00000000  0.19230769  1.0
  Ni  Ni76  1  0.33333333  0.33333333  0.19230769  1.0
  Ni  Ni77  1  0.33333333  0.66666667  0.19230769  1.0
  Ni  Ni78  1  0.66666667  0.00000000  0.19230769  1.0
  Ni  Ni79  1  0.66666667  0.33333333  0.19230769  1.0
  Ni  Ni80  1  0.66666667  0.66666667  0.19230769  1.0
  Ge  Ge81  1  0.25000000  0.16666667  0.19230769  1.0
  Ge  Ge82  1  0.25000000  0.50000000  0.19230769  1.0
  Ge  Ge83  1  0.25000000  0.83333333  0.19230769  1.0
  Ge  Ge84  1  0.58333333  0.16666667  0.19230769  1.0
  Ge  Ge85  1  0.58333333  0.50000000  0.19230769  1.0
  Ge  Ge86  1  0.58333333  0.83333333  0.19230769  1.0
  Ge  Ge87  1  0.91666667  0.16666667  0.19230769  1.0
  Ge  Ge88  1  0.91666667  0.50000000  0.19230769  1.0
  Ge  Ge89  1  0.91666667  0.83333333  0.19230769  1.0
  Ge  Ge90  1  0.08333333  0.16666667  0.19230769  1.0
  Ge  Ge91  1  0.08333333  0.50000000  0.19230769  1.0
  Ge  Ge92  1  0.08333333  0.83333333  0.19230769  1.0
  Ge  Ge93  1  0.41666667  0.16666667  0.19230769  1.0
  Ge  Ge94  1  0.41666667  0.50000000  0.19230769  1.0
  Ge  Ge95  1  0.41666667  0.83333333  0.19230769  1.0
  Ge  Ge96  1  0.75000000  0.16666667  0.19230769  1.0
  Ge  Ge97  1  0.75000000  0.50000000  0.19230769  1.0
  Ge  Ge98  1  0.75000000  0.83333333  0.19230769  1.0
  Ge  Ge99  1  0.16666667  0.00000000  0.19230769  1.0
  Ge  Ge100  1  0.16666667  0.33333333  0.19230769  1.0
  Ge  Ge101  1  0.16666667  0.66666667  0.19230769  1.0
  Ge  Ge102  1  0.50000000  0.00000000  0.19230769  1.0
  Ge  Ge103  1  0.50000000  0.33333333  0.19230769  1.0
  Ge  Ge104  1  0.50000000  0.66666667  0.19230769  1.0
  Ge  Ge105  1  0.83333333  0.00000000  0.19230769  1.0
  Ge  Ge106  1  0.83333333  0.33333333  0.19230769  1.0
  Ge  Ge107  1  0.83333333  0.66666667  0.19230769  1.0
  Ni  Ni108  1  0.00000000  0.00000000  0.26923077  1.0
  Ni  Ni109  1  0.00000000  0.33333333  0.26923077  1.0
  Ni  Ni110  1  0.00000000  0.66666667  0.26923077  1.0
  Ni  Ni111  1  0.33333333  0.00000000  0.26923077  1.0
  Ni  Ni112  1  0.33333333  0.33333333  0.26923077  1.0
  Ni  Ni113  1  0.33333333  0.66666667  0.26923077  1.0
  Ni  Ni114  1  0.66666667  0.00000000  0.26923077  1.0
  Ni  Ni115  1  0.66666667  0.33333333  0.26923077  1.0
  Ni  Ni116  1  0.66666667  0.66666667  0.26923077  1.0
  Ge  Ge117  1  0.25000000  0.16666667  0.26923077  1.0
  Ge  Ge118  1  0.25000000  0.50000000  0.26923077  1.0
  Ge  Ge119  1  0.25000000  0.83333333  0.26923077  1.0
  Ge  Ge120  1  0.58333333  0.16666667  0.26923077  1.0
  Ge  Ge121  1  0.58333333  0.50000000  0.26923077  1.0
  Ge  Ge122  1  0.58333333  0.83333333  0.26923077  1.0
  Ge  Ge123  1  0.91666667  0.16666667  0.26923077  1.0
  Ge  Ge124  1  0.91666667  0.50000000  0.26923077  1.0
  Ge  Ge125  1  0.91666667  0.83333333  0.26923077  1.0
  Ge  Ge126  1  0.08333333  0.16666667  0.26923077  1.0
  Ge  Ge127  1  0.08333333  0.50000000  0.26923077  1.0
  Ge  Ge128  1  0.08333333  0.83333333  0.26923077  1.0
  Ge  Ge129  1  0.41666667  0.16666667  0.26923077  1.0
  Ge  Ge130  1  0.41666667  0.50000000  0.26923077  1.0
  Ge  Ge131  1  0.41666667  0.83333333  0.26923077  1.0
  Ge  Ge132  1  0.75000000  0.16666667  0.26923077  1.0
  Ge  Ge133  1  0.75000000  0.50000000  0.26923077  1.0
  Ge  Ge134  1  0.75000000  0.83333333  0.26923077  1.0
  Ge  Ge135  1  0.16666667  0.00000000  0.26923077  1.0
  Ge  Ge136  1  0.16666667  0.33333333  0.26923077  1.0
  Ge  Ge137  1  0.16666667  0.66666667  0.26923077  1.0
  Ge  Ge138  1  0.50000000  0.00000000  0.26923077  1.0
  Ge  Ge139  1  0.50000000  0.33333333  0.26923077  1.0
  Ge  Ge140  1  0.50000000  0.66666667  0.26923077  1.0
  Ge  Ge141  1  0.83333333  0.00000000  0.26923077  1.0
  Ge  Ge142  1  0.83333333  0.33333333  0.26923077  1.0
  Ge  Ge143  1  0.83333333  0.66666667  0.26923077  1.0
  Ni  Ni144  1  0.00000000  0.00000000  0.34615385  1.0
  Ni  Ni145  1  0.00000000  0.33333333  0.34615385  1.0
  Ni  Ni146  1  0.00000000  0.66666667  0.34615385  1.0
  Ni  Ni147  1  0.33333333  0.00000000  0.34615385  1.0
  Ni  Ni148  1  0.33333333  0.33333333  0.34615385  1.0
  Ni  Ni149  1  0.33333333  0.66666667  0.34615385  1.0
  Ni  Ni150  1  0.66666667  0.00000000  0.34615385  1.0
  Ni  Ni151  1  0.66666667  0.33333333  0.34615385  1.0
  Ni  Ni152  1  0.66666667  0.66666667  0.34615385  1.0
  Ge  Ge153  1  0.25000000  0.16666667  0.34615385  1.0
  Ge  Ge154  1  0.25000000  0.50000000  0.34615385  1.0
  Ge  Ge155  1  0.25000000  0.83333333  0.34615385  1.0
  Ge  Ge156  1  0.58333333  0.16666667  0.34615385  1.0
  Ge  Ge157  1  0.58333333  0.50000000  0.34615385  1.0
  Ge  Ge158  1  0.58333333  0.83333333  0.34615385  1.0
  Ge  Ge159  1  0.91666667  0.16666667  0.34615385  1.0
  Ge  Ge160  1  0.91666667  0.50000000  0.34615385  1.0
  Ge  Ge161  1  0.91666667  0.83333333  0.34615385  1.0
  Ge  Ge162  1  0.08333333  0.16666667  0.34615385  1.0
  Ge  Ge163  1  0.08333333  0.50000000  0.34615385  1.0
  Ge  Ge164  1  0.08333333  0.83333333  0.34615385  1.0
  Ge  Ge165  1  0.41666667  0.16666667  0.34615385  1.0
  Ge  Ge166  1  0.41666667  0.50000000  0.34615385  1.0
  Ge  Ge167  1  0.41666667  0.83333333  0.34615385  1.0
  Ge  Ge168  1  0.75000000  0.16666667  0.34615385  1.0
  Ge  Ge169  1  0.75000000  0.50000000  0.34615385  1.0
  Ge  Ge170  1  0.75000000  0.83333333  0.34615385  1.0
  Ge  Ge171  1  0.16666667  0.00000000  0.34615385  1.0
  Ge  Ge172  1  0.16666667  0.33333333  0.34615385  1.0
  Ge  Ge173  1  0.16666667  0.66666667  0.34615385  1.0
  Ge  Ge174  1  0.50000000  0.00000000  0.34615385  1.0
  Ge  Ge175  1  0.50000000  0.33333333  0.34615385  1.0
  Ge  Ge176  1  0.50000000  0.66666667  0.34615385  1.0
  Ge  Ge177  1  0.83333333  0.00000000  0.34615385  1.0
  Ge  Ge178  1  0.83333333  0.33333333  0.34615385  1.0
  Ge  Ge179  1  0.83333333  0.66666667  0.34615385  1.0
