# generated using pymatgen
data_NiGe
_symmetry_space_group_name_H-M   'P 1'
_cell_length_a   10.49056800
_cell_length_b   36.64674228
_cell_length_c   29.07926000
_cell_angle_alpha   61.56893022
_cell_angle_beta   90.00000000
_cell_angle_gamma   90.00000000
_symmetry_Int_Tables_number   1
_chemical_formula_structural   NiGe
_chemical_formula_sum   'Ni144 Ge144'
_cell_volume   9831.04107538
_cell_formula_units_Z   144
loop_
 _symmetry_equiv_pos_site_id
 _symmetry_equiv_pos_as_xyz
  1  'x, y, z'
loop_
 _atom_site_type_symbol
 _atom_site_label
 _atom_site_symmetry_multiplicity
 _atom_site_fract_x
 _atom_site_fract_y
 _atom_site_fract_z
 _atom_site_occupancy
  Ni  Ni0  1  0.25000000  0.08441533  0.08735100  1.0
  Ni  Ni1  1  0.25000000  0.41774867  0.08735100  1.0
  Ni  Ni2  1  0.25000000  0.75108200  0.08735100  1.0
  Ni  Ni3  1  0.58333333  0.08441533  0.08735100  1.0
  Ni  Ni4  1  0.58333333  0.41774867  0.08735100  1.0
  Ni  Ni5  1  0.58333333  0.75108200  0.08735100  1.0
  Ni  Ni6  1  0.91666667  0.08441533  0.08735100  1.0
  Ni  Ni7  1  0.91666667  0.41774867  0.08735100  1.0
  Ni  Ni8  1  0.91666667  0.75108200  0.08735100  1.0
  Ni  Ni9  1  0.25000000  0.25108200  0.18735100  1.0
  Ni  Ni10  1  0.25000000  0.58441533  0.18735100  1.0
  Ni  Ni11  1  0.25000000  0.91774867  0.18735100  1.0
  Ni  Ni12  1  0.58333333  0.25108200  0.18735100  1.0
  Ni  Ni13  1  0.58333333  0.58441533  0.18735100  1.0
  Ni  Ni14  1  0.58333333  0.91774867  0.18735100  1.0
  Ni  Ni15  1  0.91666667  0.25108200  0.18735100  1.0
  Ni  Ni16  1  0.91666667  0.58441533  0.18735100  1.0
  Ni  Ni17  1  0.91666667  0.91774867  0.18735100  1.0
  Ni  Ni18  1  0.08333333  0.08225133  0.01264900  1.0
  Ni  Ni19  1  0.08333333  0.41558467  0.01264900  1.0
  Ni  Ni20  1  0.08333333  0.74891800  0.01264900  1.0
  Ni  Ni21  1  0.41666667  0.08225133  0.01264900  1.0
  Ni  Ni22  1  0.41666667  0.41558467  0.01264900  1.0
  Ni  Ni23  1  0.41666667  0.74891800  0.01264900  1.0
  Ni  Ni24  1  0.75000000  0.08225133  0.01264900  1.0
  Ni  Ni25  1  0.75000000  0.41558467  0.01264900  1.0
  Ni  Ni26  1  0.75000000  0.74891800  0.01264900  1.0
  Ni  Ni27  1  0.08333333  0.24891800  0.11264900  1.0
  Ni  Ni28  1  0.08333333  0.58225133  0.11264900  1.0
  Ni  Ni29  1  0.08333333  0.91558467  0.11264900  1.0
  Ni  Ni30  1  0.41666667  0.24891800  0.11264900  1.0
  Ni  Ni31  1  0.41666667  0.58225133  0.11264900  1.0
  Ni  Ni32  1  0.41666667  0.91558467  0.11264900  1.0
  Ni  Ni33  1  0.75000000  0.24891800  0.11264900  1.0
  Ni  Ni34  1  0.75000000  0.58225133  0.11264900  1.0
  Ni  Ni35  1  0.75000000  0.91558467  0.11264900  1.0
  Ni  Ni36  1  0.25000000  0.00108200  0.16135060  1.0
  Ni  Ni37  1  0.25000000  0.33441533  0.16135060  1.0
  Ni  Ni38  1  0.25000000  0.66774867  0.16135060  1.0
  Ni  Ni39  1  0.58333333  0.00108200  0.16135060  1.0
  Ni  Ni40  1  0.58333333  0.33441533  0.16135060  1.0
  Ni  Ni41  1  0.58333333  0.66774867  0.16135060  1.0
  Ni  Ni42  1  0.91666667  0.00108200  0.16135060  1.0
  Ni  Ni43  1  0.91666667  0.33441533  0.16135060  1.0
  Ni  Ni44  1  0.91666667  0.66774867  0.16135060  1.0
  Ni  Ni45  1  0.25000000  0.16774867  0.06135060  1.0
  Ni  Ni46  1  0.25000000  0.50108200  0.06135060  1.0
  Ni  Ni47  1  0.25000000  0.83441533  0.06135060  1.0
  Ni  Ni48  1  0.58333333  0.16774867  0.06135060  1.0
  Ni  Ni49  1  0.58333333  0.50108200  0.06135060  1.0
  Ni  Ni50  1  0.58333333  0.83441533  0.06135060  1.0
  Ni  Ni51  1  0.91666667  0.16774867  0.06135060  1.0
  Ni  Ni52  1  0.91666667  0.50108200  0.06135060  1.0
  Ni  Ni53  1  0.91666667  0.83441533  0.06135060  1.0
  Ni  Ni54  1  0.08333333  0.16558467  0.13864940  1.0
  Ni  Ni55  1  0.08333333  0.49891800  0.13864940  1.0
  Ni  Ni56  1  0.08333333  0.83225133  0.13864940  1.0
  Ni  Ni57  1  0.41666667  0.16558467  0.13864940  1.0
  Ni  Ni58  1  0.41666667  0.49891800  0.13864940  1.0
  Ni  Ni59  1  0.41666667  0.83225133  0.13864940  1.0
  Ni  Ni60  1  0.75000000  0.16558467  0.13864940  1.0
  Ni  Ni61  1  0.75000000  0.49891800  0.13864940  1.0
  Ni  Ni62  1  0.75000000  0.83225133  0.13864940  1.0
  Ni  Ni63  1  0.08333333  0.33225133  0.03864940  1.0
  Ni  Ni64  1  0.08333333  0.66558467  0.03864940  1.0
  Ni  Ni65  1  0.08333333  0.99891800  0.03864940  1.0
  Ni  Ni66  1  0.41666667  0.33225133  0.03864940  1.0
  Ni  Ni67  1  0.41666667  0.66558467  0.03864940  1.0
  Ni  Ni68  1  0.41666667  0.99891800  0.03864940  1.0
  Ni  Ni69  1  0.75000000  0.33225133  0.03864940  1.0
  Ni  Ni70  1  0.75000000  0.66558467  0.03864940  1.0
  Ni  Ni71  1  0.75000000  0.99891800  0.03864940  1.0
  Ge  Ge72  1  0.25000000  0.11489900  0.14882500  1.0
  Ge  Ge73  1  0.25000000  0.44823233  0.14882500  1.0
  Ge  Ge74  1  0.25000000  0.78156567  0.14882500  1.0
  Ge  Ge75  1  0.58333333  0.11489900  0.14882500  1.0
  Ge  Ge76  1  0.58333333  0.44823233  0.14882500  1.0
  Ge  Ge77  1  0.58333333  0.78156567  0.14882500  1.0
  Ge  Ge78  1  0.91666667  0.11489900  0.14882500  1.0
  Ge  Ge79  1  0.91666667  0.44823233  0.14882500  1.0
  Ge  Ge80  1  0.91666667  0.78156567  0.14882500  1.0
  Ge  Ge81  1  0.25000000  0.28156567  0.04882500  1.0
  Ge  Ge82  1  0.25000000  0.61489900  0.04882500  1.0
  Ge  Ge83  1  0.25000000  0.94823233  0.04882500  1.0
  Ge  Ge84  1  0.58333333  0.28156567  0.04882500  1.0
  Ge  Ge85  1  0.58333333  0.61489900  0.04882500  1.0
  Ge  Ge86  1  0.58333333  0.94823233  0.04882500  1.0
  Ge  Ge87  1  0.91666667  0.28156567  0.04882500  1.0
  Ge  Ge88  1  0.91666667  0.61489900  0.04882500  1.0
  Ge  Ge89  1  0.91666667  0.94823233  0.04882500  1.0
  Ge  Ge90  1  0.08333333  0.05176767  0.15117500  1.0
  Ge  Ge91  1  0.08333333  0.38510100  0.15117500  1.0
  Ge  Ge92  1  0.08333333  0.71843433  0.15117500  1.0
  Ge  Ge93  1  0.41666667  0.05176767  0.15117500  1.0
  Ge  Ge94  1  0.41666667  0.38510100  0.15117500  1.0
  Ge  Ge95  1  0.41666667  0.71843433  0.15117500  1.0
  Ge  Ge96  1  0.75000000  0.05176767  0.15117500  1.0
  Ge  Ge97  1  0.75000000  0.38510100  0.15117500  1.0
  Ge  Ge98  1  0.75000000  0.71843433  0.15117500  1.0
  Ge  Ge99  1  0.08333333  0.21843433  0.05117500  1.0
  Ge  Ge100  1  0.08333333  0.55176767  0.05117500  1.0
  Ge  Ge101  1  0.08333333  0.88510100  0.05117500  1.0
  Ge  Ge102  1  0.41666667  0.21843433  0.05117500  1.0
  Ge  Ge103  1  0.41666667  0.55176767  0.05117500  1.0
  Ge  Ge104  1  0.41666667  0.88510100  0.05117500  1.0
  Ge  Ge105  1  0.75000000  0.21843433  0.05117500  1.0
  Ge  Ge106  1  0.75000000  0.55176767  0.05117500  1.0
  Ge  Ge107  1  0.75000000  0.88510100  0.05117500  1.0
  Ge  Ge108  1  0.25000000  0.03156567  0.06329620  1.0
  Ge  Ge109  1  0.25000000  0.36489900  0.06329620  1.0
  Ge  Ge110  1  0.25000000  0.69823233  0.06329620  1.0
  Ge  Ge111  1  0.58333333  0.03156567  0.06329620  1.0
  Ge  Ge112  1  0.58333333  0.36489900  0.06329620  1.0
  Ge  Ge113  1  0.58333333  0.69823233  0.06329620  1.0
  Ge  Ge114  1  0.91666667  0.03156567  0.06329620  1.0
  Ge  Ge115  1  0.91666667  0.36489900  0.06329620  1.0
  Ge  Ge116  1  0.91666667  0.69823233  0.06329620  1.0
  Ge  Ge117  1  0.25000000  0.19823233  0.16329620  1.0
  Ge  Ge118  1  0.25000000  0.53156567  0.16329620  1.0
  Ge  Ge119  1  0.25000000  0.86489900  0.16329620  1.0
  Ge  Ge120  1  0.58333333  0.19823233  0.16329620  1.0
  Ge  Ge121  1  0.58333333  0.53156567  0.16329620  1.0
  Ge  Ge122  1  0.58333333  0.86489900  0.16329620  1.0
  Ge  Ge123  1  0.91666667  0.19823233  0.16329620  1.0
  Ge  Ge124  1  0.91666667  0.53156567  0.16329620  1.0
  Ge  Ge125  1  0.91666667  0.86489900  0.16329620  1.0
  Ge  Ge126  1  0.08333333  0.13510100  0.03670380  1.0
  Ge  Ge127  1  0.08333333  0.46843433  0.03670380  1.0
  Ge  Ge128  1  0.08333333  0.80176767  0.03670380  1.0
  Ge  Ge129  1  0.41666667  0.13510100  0.03670380  1.0
  Ge  Ge130  1  0.41666667  0.46843433  0.03670380  1.0
  Ge  Ge131  1  0.41666667  0.80176767  0.03670380  1.0
  Ge  Ge132  1  0.75000000  0.13510100  0.03670380  1.0
  Ge  Ge133  1  0.75000000  0.46843433  0.03670380  1.0
  Ge  Ge134  1  0.75000000  0.80176767  0.03670380  1.0
  Ge  Ge135  1  0.08333333  0.30176767  0.13670380  1.0
  Ge  Ge136  1  0.08333333  0.63510100  0.13670380  1.0
  Ge  Ge137  1  0.08333333  0.96843433  0.13670380  1.0
  Ge  Ge138  1  0.41666667  0.30176767  0.13670380  1.0
  Ge  Ge139  1  0.41666667  0.63510100  0.13670380  1.0
  Ge  Ge140  1  0.41666667  0.96843433  0.13670380  1.0
  Ge  Ge141  1  0.75000000  0.30176767  0.13670380  1.0
  Ge  Ge142  1  0.75000000  0.63510100  0.13670380  1.0
  Ge  Ge143  1  0.75000000  0.96843433  0.13670380  1.0
  Ni  Ni144  1  0.25000000  0.08441533  0.28735100  1.0
  Ni  Ni145  1  0.25000000  0.41774867  0.28735100  1.0
  Ni  Ni146  1  0.25000000  0.75108200  0.28735100  1.0
  Ni  Ni147  1  0.58333333  0.08441533  0.28735100  1.0
  Ni  Ni148  1  0.58333333  0.41774867  0.28735100  1.0
  Ni  Ni149  1  0.58333333  0.75108200  0.28735100  1.0
  Ni  Ni150  1  0.91666667  0.08441533  0.28735100  1.0
  Ni  Ni151  1  0.91666667  0.41774867  0.28735100  1.0
  Ni  Ni152  1  0.91666667  0.75108200  0.28735100  1.0
  Ni  Ni153  1  0.25000000  0.25108200  0.38735100  1.0
  Ni  Ni154  1  0.25000000  0.58441533  0.38735100  1.0
  Ni  Ni155  1  0.25000000  0.91774867  0.38735100  1.0
  Ni  Ni156  1  0.58333333  0.25108200  0.38735100  1.0
  Ni  Ni157  1  0.58333333  0.58441533  0.38735100  1.0
  Ni  Ni158  1  0.58333333  0.91774867  0.38735100  1.0
  Ni  Ni159  1  0.91666667  0.25108200  0.38735100  1.0
  Ni  Ni160  1  0.91666667  0.58441533  0.38735100  1.0
  Ni  Ni161  1  0.91666667  0.91774867  0.38735100  1.0
  Ni  Ni162  1  0.08333333  0.08225133  0.21264900  1.0
  Ni  Ni163  1  0.08333333  0.41558467  0.21264900  1.0
  Ni  Ni164  1  0.08333333  0.74891800  0.21264900  1.0
  Ni  Ni165  1  0.41666667  0.08225133  0.21264900  1.0
  Ni  Ni166  1  0.41666667  0.41558467  0.21264900  1.0
  Ni  Ni167  1  0.41666667  0.74891800  0.21264900  1.0
  Ni  Ni168  1  0.75000000  0.08225133  0.21264900  1.0
  Ni  Ni169  1  0.75000000  0.41558467  0.21264900  1.0
  Ni  Ni170  1  0.75000000  0.74891800  0.21264900  1.0
  Ni  Ni171  1  0.08333333  0.24891800  0.31264900  1.0
  Ni  Ni172  1  0.08333333  0.58225133  0.31264900  1.0
  Ni  Ni173  1  0.08333333  0.91558467  0.31264900  1.0
  Ni  Ni174  1  0.41666667  0.24891800  0.31264900  1.0
  Ni  Ni175  1  0.41666667  0.58225133  0.31264900  1.0
  Ni  Ni176  1  0.41666667  0.91558467  0.31264900  1.0
  Ni  Ni177  1  0.75000000  0.24891800  0.31264900  1.0
  Ni  Ni178  1  0.75000000  0.58225133  0.31264900  1.0
  Ni  Ni179  1  0.75000000  0.91558467  0.31264900  1.0
  Ni  Ni180  1  0.25000000  0.00108200  0.36135060  1.0
  Ni  Ni181  1  0.25000000  0.33441533  0.36135060  1.0
  Ni  Ni182  1  0.25000000  0.66774867  0.36135060  1.0
  Ni  Ni183  1  0.58333333  0.00108200  0.36135060  1.0
  Ni  Ni184  1  0.58333333  0.33441533  0.36135060  1.0
  Ni  Ni185  1  0.58333333  0.66774867  0.36135060  1.0
  Ni  Ni186  1  0.91666667  0.00108200  0.36135060  1.0
  Ni  Ni187  1  0.91666667  0.33441533  0.36135060  1.0
  Ni  Ni188  1  0.91666667  0.66774867  0.36135060  1.0
  Ni  Ni189  1  0.25000000  0.16774867  0.26135060  1.0
  Ni  Ni190  1  0.25000000  0.50108200  0.26135060  1.0
  Ni  Ni191  1  0.25000000  0.83441533  0.26135060  1.0
  Ni  Ni192  1  0.58333333  0.16774867  0.26135060  1.0
  Ni  Ni193  1  0.58333333  0.50108200  0.26135060  1.0
  Ni  Ni194  1  0.58333333  0.83441533  0.26135060  1.0
  Ni  Ni195  1  0.91666667  0.16774867  0.26135060  1.0
  Ni  Ni196  1  0.91666667  0.50108200  0.26135060  1.0
  Ni  Ni197  1  0.91666667  0.83441533  0.26135060  1.0
  Ni  Ni198  1  0.08333333  0.16558467  0.33864940  1.0
  Ni  Ni199  1  0.08333333  0.49891800  0.33864940  1.0
  Ni  Ni200  1  0.08333333  0.83225133  0.33864940  1.0
  Ni  Ni201  1  0.41666667  0.16558467  0.33864940  1.0
  Ni  Ni202  1  0.41666667  0.49891800  0.33864940  1.0
  Ni  Ni203  1  0.41666667  0.83225133  0.33864940  1.0
  Ni  Ni204  1  0.75000000  0.16558467  0.33864940  1.0
  Ni  Ni205  1  0.75000000  0.49891800  0.33864940  1.0
  Ni  Ni206  1  0.75000000  0.83225133  0.33864940  1.0
  Ni  Ni207  1  0.08333333  0.33225133  0.23864940  1.0
  Ni  Ni208  1  0.08333333  0.66558467  0.23864940  1.0
  Ni  Ni209  1  0.08333333  0.99891800  0.23864940  1.0
  Ni  Ni210  1  0.41666667  0.33225133  0.23864940  1.0
  Ni  Ni211  1  0.41666667  0.66558467  0.23864940  1.0
  Ni  Ni212  1  0.41666667  0.99891800  0.23864940  1.0
  Ni  Ni213  1  0.75000000  0.33225133  0.23864940  1.0
  Ni  Ni214  1  0.75000000  0.66558467  0.23864940  1.0
  Ni  Ni215  1  0.75000000  0.99891800  0.23864940  1.0
  Ge  Ge216  1  0.25000000  0.11489900  0.34882500  1.0
  Ge  Ge217  1  0.25000000  0.44823233  0.34882500  1.0
  Ge  Ge218  1  0.25000000  0.78156567  0.34882500  1.0
  Ge  Ge219  1  0.58333333  0.11489900  0.34882500  1.0
  Ge  Ge220  1  0.58333333  0.44823233  0.34882500  1.0
  Ge  Ge221  1  0.58333333  0.78156567  0.34882500  1.0
  Ge  Ge222  1  0.91666667  0.11489900  0.34882500  1.0
  Ge  Ge223  1  0.91666667  0.44823233  0.34882500  1.0
  Ge  Ge224  1  0.91666667  0.78156567  0.34882500  1.0
  Ge  Ge225  1  0.25000000  0.28156567  0.24882500  1.0
  Ge  Ge226  1  0.25000000  0.61489900  0.24882500  1.0
  Ge  Ge227  1  0.25000000  0.94823233  0.24882500  1.0
  Ge  Ge228  1  0.58333333  0.28156567  0.24882500  1.0
  Ge  Ge229  1  0.58333333  0.61489900  0.24882500  1.0
  Ge  Ge230  1  0.58333333  0.94823233  0.24882500  1.0
  Ge  Ge231  1  0.91666667  0.28156567  0.24882500  1.0
  Ge  Ge232  1  0.91666667  0.61489900  0.24882500  1.0
  Ge  Ge233  1  0.91666667  0.94823233  0.24882500  1.0
  Ge  Ge234  1  0.08333333  0.05176767  0.35117500  1.0
  Ge  Ge235  1  0.08333333  0.38510100  0.35117500  1.0
  Ge  Ge236  1  0.08333333  0.71843433  0.35117500  1.0
  Ge  Ge237  1  0.41666667  0.05176767  0.35117500  1.0
  Ge  Ge238  1  0.41666667  0.38510100  0.35117500  1.0
  Ge  Ge239  1  0.41666667  0.71843433  0.35117500  1.0
  Ge  Ge240  1  0.75000000  0.05176767  0.35117500  1.0
  Ge  Ge241  1  0.75000000  0.38510100  0.35117500  1.0
  Ge  Ge242  1  0.75000000  0.71843433  0.35117500  1.0
  Ge  Ge243  1  0.08333333  0.21843433  0.25117500  1.0
  Ge  Ge244  1  0.08333333  0.55176767  0.25117500  1.0
  Ge  Ge245  1  0.08333333  0.88510100  0.25117500  1.0
  Ge  Ge246  1  0.41666667  0.21843433  0.25117500  1.0
  Ge  Ge247  1  0.41666667  0.55176767  0.25117500  1.0
  Ge  Ge248  1  0.41666667  0.88510100  0.25117500  1.0
  Ge  Ge249  1  0.75000000  0.21843433  0.25117500  1.0
  Ge  Ge250  1  0.75000000  0.55176767  0.25117500  1.0
  Ge  Ge251  1  0.75000000  0.88510100  0.25117500  1.0
  Ge  Ge252  1  0.25000000  0.03156567  0.26329620  1.0
  Ge  Ge253  1  0.25000000  0.36489900  0.26329620  1.0
  Ge  Ge254  1  0.25000000  0.69823233  0.26329620  1.0
  Ge  Ge255  1  0.58333333  0.03156567  0.26329620  1.0
  Ge  Ge256  1  0.58333333  0.36489900  0.26329620  1.0
  Ge  Ge257  1  0.58333333  0.69823233  0.26329620  1.0
  Ge  Ge258  1  0.91666667  0.03156567  0.26329620  1.0
  Ge  Ge259  1  0.91666667  0.36489900  0.26329620  1.0
  Ge  Ge260  1  0.91666667  0.69823233  0.26329620  1.0
  Ge  Ge261  1  0.25000000  0.19823233  0.36329620  1.0
  Ge  Ge262  1  0.25000000  0.53156567  0.36329620  1.0
  Ge  Ge263  1  0.25000000  0.86489900  0.36329620  1.0
  Ge  Ge264  1  0.58333333  0.19823233  0.36329620  1.0
  Ge  Ge265  1  0.58333333  0.53156567  0.36329620  1.0
  Ge  Ge266  1  0.58333333  0.86489900  0.36329620  1.0
  Ge  Ge267  1  0.91666667  0.19823233  0.36329620  1.0
  Ge  Ge268  1  0.91666667  0.53156567  0.36329620  1.0
  Ge  Ge269  1  0.91666667  0.86489900  0.36329620  1.0
  Ge  Ge270  1  0.08333333  0.13510100  0.23670380  1.0
  Ge  Ge271  1  0.08333333  0.46843433  0.23670380  1.0
  Ge  Ge272  1  0.08333333  0.80176767  0.23670380  1.0
  Ge  Ge273  1  0.41666667  0.13510100  0.23670380  1.0
  Ge  Ge274  1  0.41666667  0.46843433  0.23670380  1.0
  Ge  Ge275  1  0.41666667  0.80176767  0.23670380  1.0
  Ge  Ge276  1  0.75000000  0.13510100  0.23670380  1.0
  Ge  Ge277  1  0.75000000  0.46843433  0.23670380  1.0
  Ge  Ge278  1  0.75000000  0.80176767  0.23670380  1.0
  Ge  Ge279  1  0.08333333  0.30176767  0.33670380  1.0
  Ge  Ge280  1  0.08333333  0.63510100  0.33670380  1.0
  Ge  Ge281  1  0.08333333  0.96843433  0.33670380  1.0
  Ge  Ge282  1  0.41666667  0.30176767  0.33670380  1.0
  Ge  Ge283  1  0.41666667  0.63510100  0.33670380  1.0
  Ge  Ge284  1  0.41666667  0.96843433  0.33670380  1.0
  Ge  Ge285  1  0.75000000  0.30176767  0.33670380  1.0
  Ge  Ge286  1  0.75000000  0.63510100  0.33670380  1.0
  Ge  Ge287  1  0.75000000  0.96843433  0.33670380  1.0
