# generated using pymatgen
data_NiGe2
_symmetry_space_group_name_H-M   'P 1'
_cell_length_a   24.61821848
_cell_length_b   25.42672003
_cell_length_c   27.30499172
_cell_angle_alpha   94.47608614
_cell_angle_beta   90.02001896
_cell_angle_gamma   76.01732061
_symmetry_Int_Tables_number   1
_chemical_formula_structural   NiGe2
_chemical_formula_sum   'Ni144 Ge288'
_cell_volume   16531.78408052
_cell_formula_units_Z   144
loop_
 _symmetry_equiv_pos_site_id
 _symmetry_equiv_pos_as_xyz
  1  'x, y, z'
loop_
 _atom_site_type_symbol
 _atom_site_label
 _atom_site_symmetry_multiplicity
 _atom_site_fract_x
 _atom_site_fract_y
 _atom_site_fract_z
 _atom_site_occupancy
  Ge  Ge0  1  0.07664347  0.02520013  0.01890010  1.0
  Ge  Ge1  1  0.07664347  0.35853347  0.01890010  1.0
  Ge  Ge2  1  0.07664347  0.69186680  0.01890010  1.0
  Ge  Ge3  1  0.40997680  0.02520013  0.01890010  1.0
  Ge  Ge4  1  0.40997680  0.35853347  0.01890010  1.0
  Ge  Ge5  1  0.40997680  0.69186680  0.01890010  1.0
  Ge  Ge6  1  0.74331013  0.02520013  0.01890010  1.0
  Ge  Ge7  1  0.74331013  0.35853347  0.01890010  1.0
  Ge  Ge8  1  0.74331013  0.69186680  0.01890010  1.0
  Ge  Ge9  1  0.20997680  0.15853347  0.11890010  1.0
  Ge  Ge10  1  0.20997680  0.49186680  0.11890010  1.0
  Ge  Ge11  1  0.20997680  0.82520013  0.11890010  1.0
  Ge  Ge12  1  0.54331013  0.15853347  0.11890010  1.0
  Ge  Ge13  1  0.54331013  0.49186680  0.11890010  1.0
  Ge  Ge14  1  0.54331013  0.82520013  0.11890010  1.0
  Ge  Ge15  1  0.87664347  0.15853347  0.11890010  1.0
  Ge  Ge16  1  0.87664347  0.49186680  0.11890010  1.0
  Ge  Ge17  1  0.87664347  0.82520013  0.11890010  1.0
  Ge  Ge18  1  0.18157813  0.06635480  0.04976610  1.0
  Ge  Ge19  1  0.18157813  0.39968813  0.04976610  1.0
  Ge  Ge20  1  0.18157813  0.73302147  0.04976610  1.0
  Ge  Ge21  1  0.51491147  0.06635480  0.04976610  1.0
  Ge  Ge22  1  0.51491147  0.39968813  0.04976610  1.0
  Ge  Ge23  1  0.51491147  0.73302147  0.04976610  1.0
  Ge  Ge24  1  0.84824480  0.06635480  0.04976610  1.0
  Ge  Ge25  1  0.84824480  0.39968813  0.04976610  1.0
  Ge  Ge26  1  0.84824480  0.73302147  0.04976610  1.0
  Ge  Ge27  1  0.31491147  0.19968813  0.14976610  1.0
  Ge  Ge28  1  0.31491147  0.53302147  0.14976610  1.0
  Ge  Ge29  1  0.31491147  0.86635480  0.14976610  1.0
  Ge  Ge30  1  0.64824480  0.19968813  0.14976610  1.0
  Ge  Ge31  1  0.64824480  0.53302147  0.14976610  1.0
  Ge  Ge32  1  0.64824480  0.86635480  0.14976610  1.0
  Ge  Ge33  1  0.98157813  0.19968813  0.14976610  1.0
  Ge  Ge34  1  0.98157813  0.53302147  0.14976610  1.0
  Ge  Ge35  1  0.98157813  0.86635480  0.14976610  1.0
  Ge  Ge36  1  0.08508853  0.20031187  0.15023390  1.0
  Ge  Ge37  1  0.08508853  0.53364520  0.15023390  1.0
  Ge  Ge38  1  0.08508853  0.86697853  0.15023390  1.0
  Ge  Ge39  1  0.41842187  0.20031187  0.15023390  1.0
  Ge  Ge40  1  0.41842187  0.53364520  0.15023390  1.0
  Ge  Ge41  1  0.41842187  0.86697853  0.15023390  1.0
  Ge  Ge42  1  0.75175520  0.20031187  0.15023390  1.0
  Ge  Ge43  1  0.75175520  0.53364520  0.15023390  1.0
  Ge  Ge44  1  0.75175520  0.86697853  0.15023390  1.0
  Ge  Ge45  1  0.28508853  0.06697853  0.05023390  1.0
  Ge  Ge46  1  0.28508853  0.40031187  0.05023390  1.0
  Ge  Ge47  1  0.28508853  0.73364520  0.05023390  1.0
  Ge  Ge48  1  0.61842187  0.06697853  0.05023390  1.0
  Ge  Ge49  1  0.61842187  0.40031187  0.05023390  1.0
  Ge  Ge50  1  0.61842187  0.73364520  0.05023390  1.0
  Ge  Ge51  1  0.95175520  0.06697853  0.05023390  1.0
  Ge  Ge52  1  0.95175520  0.40031187  0.05023390  1.0
  Ge  Ge53  1  0.95175520  0.73364520  0.05023390  1.0
  Ge  Ge54  1  0.19002320  0.24146653  0.18109990  1.0
  Ge  Ge55  1  0.19002320  0.57479987  0.18109990  1.0
  Ge  Ge56  1  0.19002320  0.90813320  0.18109990  1.0
  Ge  Ge57  1  0.52335653  0.24146653  0.18109990  1.0
  Ge  Ge58  1  0.52335653  0.57479987  0.18109990  1.0
  Ge  Ge59  1  0.52335653  0.90813320  0.18109990  1.0
  Ge  Ge60  1  0.85668987  0.24146653  0.18109990  1.0
  Ge  Ge61  1  0.85668987  0.57479987  0.18109990  1.0
  Ge  Ge62  1  0.85668987  0.90813320  0.18109990  1.0
  Ge  Ge63  1  0.05668987  0.10813320  0.08109990  1.0
  Ge  Ge64  1  0.05668987  0.44146653  0.08109990  1.0
  Ge  Ge65  1  0.05668987  0.77479987  0.08109990  1.0
  Ge  Ge66  1  0.39002320  0.10813320  0.08109990  1.0
  Ge  Ge67  1  0.39002320  0.44146653  0.08109990  1.0
  Ge  Ge68  1  0.39002320  0.77479987  0.08109990  1.0
  Ge  Ge69  1  0.72335653  0.10813320  0.08109990  1.0
  Ge  Ge70  1  0.72335653  0.44146653  0.08109990  1.0
  Ge  Ge71  1  0.72335653  0.77479987  0.08109990  1.0
  Ge  Ge72  1  0.09953760  0.26697493  0.07523120  1.0
  Ge  Ge73  1  0.09953760  0.60030827  0.07523120  1.0
  Ge  Ge74  1  0.09953760  0.93364160  0.07523120  1.0
  Ge  Ge75  1  0.43287093  0.26697493  0.07523120  1.0
  Ge  Ge76  1  0.43287093  0.60030827  0.07523120  1.0
  Ge  Ge77  1  0.43287093  0.93364160  0.07523120  1.0
  Ge  Ge78  1  0.76620427  0.26697493  0.07523120  1.0
  Ge  Ge79  1  0.76620427  0.60030827  0.07523120  1.0
  Ge  Ge80  1  0.76620427  0.93364160  0.07523120  1.0
  Ge  Ge81  1  0.23287093  0.06697493  0.17523120  1.0
  Ge  Ge82  1  0.23287093  0.40030827  0.17523120  1.0
  Ge  Ge83  1  0.23287093  0.73364160  0.17523120  1.0
  Ge  Ge84  1  0.56620427  0.06697493  0.17523120  1.0
  Ge  Ge85  1  0.56620427  0.40030827  0.17523120  1.0
  Ge  Ge86  1  0.56620427  0.73364160  0.17523120  1.0
  Ge  Ge87  1  0.89953760  0.06697493  0.17523120  1.0
  Ge  Ge88  1  0.89953760  0.40030827  0.17523120  1.0
  Ge  Ge89  1  0.89953760  0.73364160  0.17523120  1.0
  Ge  Ge90  1  0.06712907  0.06635840  0.17476880  1.0
  Ge  Ge91  1  0.06712907  0.39969173  0.17476880  1.0
  Ge  Ge92  1  0.06712907  0.73302507  0.17476880  1.0
  Ge  Ge93  1  0.40046240  0.06635840  0.17476880  1.0
  Ge  Ge94  1  0.40046240  0.39969173  0.17476880  1.0
  Ge  Ge95  1  0.40046240  0.73302507  0.17476880  1.0
  Ge  Ge96  1  0.73379573  0.06635840  0.17476880  1.0
  Ge  Ge97  1  0.73379573  0.39969173  0.17476880  1.0
  Ge  Ge98  1  0.73379573  0.73302507  0.17476880  1.0
  Ge  Ge99  1  0.26712907  0.26635840  0.07476880  1.0
  Ge  Ge100  1  0.26712907  0.59969173  0.07476880  1.0
  Ge  Ge101  1  0.26712907  0.93302507  0.07476880  1.0
  Ge  Ge102  1  0.60046240  0.26635840  0.07476880  1.0
  Ge  Ge103  1  0.60046240  0.59969173  0.07476880  1.0
  Ge  Ge104  1  0.60046240  0.93302507  0.07476880  1.0
  Ge  Ge105  1  0.93379573  0.26635840  0.07476880  1.0
  Ge  Ge106  1  0.93379573  0.59969173  0.07476880  1.0
  Ge  Ge107  1  0.93379573  0.93302507  0.07476880  1.0
  Ge  Ge108  1  0.16712907  0.33302507  0.12476880  1.0
  Ge  Ge109  1  0.16712907  0.66635840  0.12476880  1.0
  Ge  Ge110  1  0.16712907  0.99969173  0.12476880  1.0
  Ge  Ge111  1  0.50046240  0.33302507  0.12476880  1.0
  Ge  Ge112  1  0.50046240  0.66635840  0.12476880  1.0
  Ge  Ge113  1  0.50046240  0.99969173  0.12476880  1.0
  Ge  Ge114  1  0.83379573  0.33302507  0.12476880  1.0
  Ge  Ge115  1  0.83379573  0.66635840  0.12476880  1.0
  Ge  Ge116  1  0.83379573  0.99969173  0.12476880  1.0
  Ge  Ge117  1  0.03379573  0.19969173  0.02476880  1.0
  Ge  Ge118  1  0.03379573  0.53302507  0.02476880  1.0
  Ge  Ge119  1  0.03379573  0.86635840  0.02476880  1.0
  Ge  Ge120  1  0.36712907  0.19969173  0.02476880  1.0
  Ge  Ge121  1  0.36712907  0.53302507  0.02476880  1.0
  Ge  Ge122  1  0.36712907  0.86635840  0.02476880  1.0
  Ge  Ge123  1  0.70046240  0.19969173  0.02476880  1.0
  Ge  Ge124  1  0.70046240  0.53302507  0.02476880  1.0
  Ge  Ge125  1  0.70046240  0.86635840  0.02476880  1.0
  Ge  Ge126  1  0.19953760  0.20030827  0.02523120  1.0
  Ge  Ge127  1  0.19953760  0.53364160  0.02523120  1.0
  Ge  Ge128  1  0.19953760  0.86697493  0.02523120  1.0
  Ge  Ge129  1  0.53287093  0.20030827  0.02523120  1.0
  Ge  Ge130  1  0.53287093  0.53364160  0.02523120  1.0
  Ge  Ge131  1  0.53287093  0.86697493  0.02523120  1.0
  Ge  Ge132  1  0.86620427  0.20030827  0.02523120  1.0
  Ge  Ge133  1  0.86620427  0.53364160  0.02523120  1.0
  Ge  Ge134  1  0.86620427  0.86697493  0.02523120  1.0
  Ge  Ge135  1  0.33287093  0.00030827  0.12523120  1.0
  Ge  Ge136  1  0.33287093  0.33364160  0.12523120  1.0
  Ge  Ge137  1  0.33287093  0.66697493  0.12523120  1.0
  Ge  Ge138  1  0.66620427  0.00030827  0.12523120  1.0
  Ge  Ge139  1  0.66620427  0.33364160  0.12523120  1.0
  Ge  Ge140  1  0.66620427  0.66697493  0.12523120  1.0
  Ge  Ge141  1  0.99953760  0.00030827  0.12523120  1.0
  Ge  Ge142  1  0.99953760  0.33364160  0.12523120  1.0
  Ge  Ge143  1  0.99953760  0.66697493  0.12523120  1.0
  Ge  Ge144  1  0.00997680  0.29186680  0.21890010  1.0
  Ge  Ge145  1  0.00997680  0.62520013  0.21890010  1.0
  Ge  Ge146  1  0.00997680  0.95853347  0.21890010  1.0
  Ge  Ge147  1  0.34331013  0.29186680  0.21890010  1.0
  Ge  Ge148  1  0.34331013  0.62520013  0.21890010  1.0
  Ge  Ge149  1  0.34331013  0.95853347  0.21890010  1.0
  Ge  Ge150  1  0.67664347  0.29186680  0.21890010  1.0
  Ge  Ge151  1  0.67664347  0.62520013  0.21890010  1.0
  Ge  Ge152  1  0.67664347  0.95853347  0.21890010  1.0
  Ge  Ge153  1  0.14331013  0.09186680  0.31890010  1.0
  Ge  Ge154  1  0.14331013  0.42520013  0.31890010  1.0
  Ge  Ge155  1  0.14331013  0.75853347  0.31890010  1.0
  Ge  Ge156  1  0.47664347  0.09186680  0.31890010  1.0
  Ge  Ge157  1  0.47664347  0.42520013  0.31890010  1.0
  Ge  Ge158  1  0.47664347  0.75853347  0.31890010  1.0
  Ge  Ge159  1  0.80997680  0.09186680  0.31890010  1.0
  Ge  Ge160  1  0.80997680  0.42520013  0.31890010  1.0
  Ge  Ge161  1  0.80997680  0.75853347  0.31890010  1.0
  Ge  Ge162  1  0.11491147  0.33302147  0.24976610  1.0
  Ge  Ge163  1  0.11491147  0.66635480  0.24976610  1.0
  Ge  Ge164  1  0.11491147  0.99968813  0.24976610  1.0
  Ge  Ge165  1  0.44824480  0.33302147  0.24976610  1.0
  Ge  Ge166  1  0.44824480  0.66635480  0.24976610  1.0
  Ge  Ge167  1  0.44824480  0.99968813  0.24976610  1.0
  Ge  Ge168  1  0.78157813  0.33302147  0.24976610  1.0
  Ge  Ge169  1  0.78157813  0.66635480  0.24976610  1.0
  Ge  Ge170  1  0.78157813  0.99968813  0.24976610  1.0
  Ge  Ge171  1  0.24824480  0.13302147  0.34976610  1.0
  Ge  Ge172  1  0.24824480  0.46635480  0.34976610  1.0
  Ge  Ge173  1  0.24824480  0.79968813  0.34976610  1.0
  Ge  Ge174  1  0.58157813  0.13302147  0.34976610  1.0
  Ge  Ge175  1  0.58157813  0.46635480  0.34976610  1.0
  Ge  Ge176  1  0.58157813  0.79968813  0.34976610  1.0
  Ge  Ge177  1  0.91491147  0.13302147  0.34976610  1.0
  Ge  Ge178  1  0.91491147  0.46635480  0.34976610  1.0
  Ge  Ge179  1  0.91491147  0.79968813  0.34976610  1.0
  Ge  Ge180  1  0.01842187  0.13364520  0.35023390  1.0
  Ge  Ge181  1  0.01842187  0.46697853  0.35023390  1.0
  Ge  Ge182  1  0.01842187  0.80031187  0.35023390  1.0
  Ge  Ge183  1  0.35175520  0.13364520  0.35023390  1.0
  Ge  Ge184  1  0.35175520  0.46697853  0.35023390  1.0
  Ge  Ge185  1  0.35175520  0.80031187  0.35023390  1.0
  Ge  Ge186  1  0.68508853  0.13364520  0.35023390  1.0
  Ge  Ge187  1  0.68508853  0.46697853  0.35023390  1.0
  Ge  Ge188  1  0.68508853  0.80031187  0.35023390  1.0
  Ge  Ge189  1  0.21842187  0.00031187  0.25023390  1.0
  Ge  Ge190  1  0.21842187  0.33364520  0.25023390  1.0
  Ge  Ge191  1  0.21842187  0.66697853  0.25023390  1.0
  Ge  Ge192  1  0.55175520  0.00031187  0.25023390  1.0
  Ge  Ge193  1  0.55175520  0.33364520  0.25023390  1.0
  Ge  Ge194  1  0.55175520  0.66697853  0.25023390  1.0
  Ge  Ge195  1  0.88508853  0.00031187  0.25023390  1.0
  Ge  Ge196  1  0.88508853  0.33364520  0.25023390  1.0
  Ge  Ge197  1  0.88508853  0.66697853  0.25023390  1.0
  Ge  Ge198  1  0.12335653  0.17479987  0.38109990  1.0
  Ge  Ge199  1  0.12335653  0.50813320  0.38109990  1.0
  Ge  Ge200  1  0.12335653  0.84146653  0.38109990  1.0
  Ge  Ge201  1  0.45668987  0.17479987  0.38109990  1.0
  Ge  Ge202  1  0.45668987  0.50813320  0.38109990  1.0
  Ge  Ge203  1  0.45668987  0.84146653  0.38109990  1.0
  Ge  Ge204  1  0.79002320  0.17479987  0.38109990  1.0
  Ge  Ge205  1  0.79002320  0.50813320  0.38109990  1.0
  Ge  Ge206  1  0.79002320  0.84146653  0.38109990  1.0
  Ge  Ge207  1  0.32335653  0.04146653  0.28109990  1.0
  Ge  Ge208  1  0.32335653  0.37479987  0.28109990  1.0
  Ge  Ge209  1  0.32335653  0.70813320  0.28109990  1.0
  Ge  Ge210  1  0.65668987  0.04146653  0.28109990  1.0
  Ge  Ge211  1  0.65668987  0.37479987  0.28109990  1.0
  Ge  Ge212  1  0.65668987  0.70813320  0.28109990  1.0
  Ge  Ge213  1  0.99002320  0.04146653  0.28109990  1.0
  Ge  Ge214  1  0.99002320  0.37479987  0.28109990  1.0
  Ge  Ge215  1  0.99002320  0.70813320  0.28109990  1.0
  Ge  Ge216  1  0.03287093  0.20030827  0.27523120  1.0
  Ge  Ge217  1  0.03287093  0.53364160  0.27523120  1.0
  Ge  Ge218  1  0.03287093  0.86697493  0.27523120  1.0
  Ge  Ge219  1  0.36620427  0.20030827  0.27523120  1.0
  Ge  Ge220  1  0.36620427  0.53364160  0.27523120  1.0
  Ge  Ge221  1  0.36620427  0.86697493  0.27523120  1.0
  Ge  Ge222  1  0.69953760  0.20030827  0.27523120  1.0
  Ge  Ge223  1  0.69953760  0.53364160  0.27523120  1.0
  Ge  Ge224  1  0.69953760  0.86697493  0.27523120  1.0
  Ge  Ge225  1  0.16620427  0.00030827  0.37523120  1.0
  Ge  Ge226  1  0.16620427  0.33364160  0.37523120  1.0
  Ge  Ge227  1  0.16620427  0.66697493  0.37523120  1.0
  Ge  Ge228  1  0.49953760  0.00030827  0.37523120  1.0
  Ge  Ge229  1  0.49953760  0.33364160  0.37523120  1.0
  Ge  Ge230  1  0.49953760  0.66697493  0.37523120  1.0
  Ge  Ge231  1  0.83287093  0.00030827  0.37523120  1.0
  Ge  Ge232  1  0.83287093  0.33364160  0.37523120  1.0
  Ge  Ge233  1  0.83287093  0.66697493  0.37523120  1.0
  Ge  Ge234  1  0.00046240  0.33302507  0.37476880  1.0
  Ge  Ge235  1  0.00046240  0.66635840  0.37476880  1.0
  Ge  Ge236  1  0.00046240  0.99969173  0.37476880  1.0
  Ge  Ge237  1  0.33379573  0.33302507  0.37476880  1.0
  Ge  Ge238  1  0.33379573  0.66635840  0.37476880  1.0
  Ge  Ge239  1  0.33379573  0.99969173  0.37476880  1.0
  Ge  Ge240  1  0.66712907  0.33302507  0.37476880  1.0
  Ge  Ge241  1  0.66712907  0.66635840  0.37476880  1.0
  Ge  Ge242  1  0.66712907  0.99969173  0.37476880  1.0
  Ge  Ge243  1  0.20046240  0.19969173  0.27476880  1.0
  Ge  Ge244  1  0.20046240  0.53302507  0.27476880  1.0
  Ge  Ge245  1  0.20046240  0.86635840  0.27476880  1.0
  Ge  Ge246  1  0.53379573  0.19969173  0.27476880  1.0
  Ge  Ge247  1  0.53379573  0.53302507  0.27476880  1.0
  Ge  Ge248  1  0.53379573  0.86635840  0.27476880  1.0
  Ge  Ge249  1  0.86712907  0.19969173  0.27476880  1.0
  Ge  Ge250  1  0.86712907  0.53302507  0.27476880  1.0
  Ge  Ge251  1  0.86712907  0.86635840  0.27476880  1.0
  Ge  Ge252  1  0.10046240  0.26635840  0.32476880  1.0
  Ge  Ge253  1  0.10046240  0.59969173  0.32476880  1.0
  Ge  Ge254  1  0.10046240  0.93302507  0.32476880  1.0
  Ge  Ge255  1  0.43379573  0.26635840  0.32476880  1.0
  Ge  Ge256  1  0.43379573  0.59969173  0.32476880  1.0
  Ge  Ge257  1  0.43379573  0.93302507  0.32476880  1.0
  Ge  Ge258  1  0.76712907  0.26635840  0.32476880  1.0
  Ge  Ge259  1  0.76712907  0.59969173  0.32476880  1.0
  Ge  Ge260  1  0.76712907  0.93302507  0.32476880  1.0
  Ge  Ge261  1  0.30046240  0.13302507  0.22476880  1.0
  Ge  Ge262  1  0.30046240  0.46635840  0.22476880  1.0
  Ge  Ge263  1  0.30046240  0.79969173  0.22476880  1.0
  Ge  Ge264  1  0.63379573  0.13302507  0.22476880  1.0
  Ge  Ge265  1  0.63379573  0.46635840  0.22476880  1.0
  Ge  Ge266  1  0.63379573  0.79969173  0.22476880  1.0
  Ge  Ge267  1  0.96712907  0.13302507  0.22476880  1.0
  Ge  Ge268  1  0.96712907  0.46635840  0.22476880  1.0
  Ge  Ge269  1  0.96712907  0.79969173  0.22476880  1.0
  Ge  Ge270  1  0.13287093  0.13364160  0.22523120  1.0
  Ge  Ge271  1  0.13287093  0.46697493  0.22523120  1.0
  Ge  Ge272  1  0.13287093  0.80030827  0.22523120  1.0
  Ge  Ge273  1  0.46620427  0.13364160  0.22523120  1.0
  Ge  Ge274  1  0.46620427  0.46697493  0.22523120  1.0
  Ge  Ge275  1  0.46620427  0.80030827  0.22523120  1.0
  Ge  Ge276  1  0.79953760  0.13364160  0.22523120  1.0
  Ge  Ge277  1  0.79953760  0.46697493  0.22523120  1.0
  Ge  Ge278  1  0.79953760  0.80030827  0.22523120  1.0
  Ge  Ge279  1  0.26620427  0.26697493  0.32523120  1.0
  Ge  Ge280  1  0.26620427  0.60030827  0.32523120  1.0
  Ge  Ge281  1  0.26620427  0.93364160  0.32523120  1.0
  Ge  Ge282  1  0.59953760  0.26697493  0.32523120  1.0
  Ge  Ge283  1  0.59953760  0.60030827  0.32523120  1.0
  Ge  Ge284  1  0.59953760  0.93364160  0.32523120  1.0
  Ge  Ge285  1  0.93287093  0.26697493  0.32523120  1.0
  Ge  Ge286  1  0.93287093  0.60030827  0.32523120  1.0
  Ge  Ge287  1  0.93287093  0.93364160  0.32523120  1.0
  Ni  Ni288  1  0.14103393  0.10253093  0.13465270  1.0
  Ni  Ni289  1  0.14103393  0.43586427  0.13465270  1.0
  Ni  Ni290  1  0.14103393  0.76919760  0.13465270  1.0
  Ni  Ni291  1  0.47436727  0.10253093  0.13465270  1.0
  Ni  Ni292  1  0.47436727  0.43586427  0.13465270  1.0
  Ni  Ni293  1  0.47436727  0.76919760  0.13465270  1.0
  Ni  Ni294  1  0.80770060  0.10253093  0.13465270  1.0
  Ni  Ni295  1  0.80770060  0.43586427  0.13465270  1.0
  Ni  Ni296  1  0.80770060  0.76919760  0.13465270  1.0
  Ni  Ni297  1  0.00770060  0.30253093  0.03465270  1.0
  Ni  Ni298  1  0.00770060  0.63586427  0.03465270  1.0
  Ni  Ni299  1  0.00770060  0.96919760  0.03465270  1.0
  Ni  Ni300  1  0.34103393  0.30253093  0.03465270  1.0
  Ni  Ni301  1  0.34103393  0.63586427  0.03465270  1.0
  Ni  Ni302  1  0.34103393  0.96919760  0.03465270  1.0
  Ni  Ni303  1  0.67436727  0.30253093  0.03465270  1.0
  Ni  Ni304  1  0.67436727  0.63586427  0.03465270  1.0
  Ni  Ni305  1  0.67436727  0.96919760  0.03465270  1.0
  Ni  Ni306  1  0.09229940  0.29746907  0.16534730  1.0
  Ni  Ni307  1  0.09229940  0.63080240  0.16534730  1.0
  Ni  Ni308  1  0.09229940  0.96413573  0.16534730  1.0
  Ni  Ni309  1  0.42563273  0.29746907  0.16534730  1.0
  Ni  Ni310  1  0.42563273  0.63080240  0.16534730  1.0
  Ni  Ni311  1  0.42563273  0.96413573  0.16534730  1.0
  Ni  Ni312  1  0.75896607  0.29746907  0.16534730  1.0
  Ni  Ni313  1  0.75896607  0.63080240  0.16534730  1.0
  Ni  Ni314  1  0.75896607  0.96413573  0.16534730  1.0
  Ni  Ni315  1  0.29229940  0.16413573  0.06534730  1.0
  Ni  Ni316  1  0.29229940  0.49746907  0.06534730  1.0
  Ni  Ni317  1  0.29229940  0.83080240  0.06534730  1.0
  Ni  Ni318  1  0.62563273  0.16413573  0.06534730  1.0
  Ni  Ni319  1  0.62563273  0.49746907  0.06534730  1.0
  Ni  Ni320  1  0.62563273  0.83080240  0.06534730  1.0
  Ni  Ni321  1  0.95896607  0.16413573  0.06534730  1.0
  Ni  Ni322  1  0.95896607  0.49746907  0.06534730  1.0
  Ni  Ni323  1  0.95896607  0.83080240  0.06534730  1.0
  Ni  Ni324  1  0.25896607  0.29746907  0.16534730  1.0
  Ni  Ni325  1  0.25896607  0.63080240  0.16534730  1.0
  Ni  Ni326  1  0.25896607  0.96413573  0.16534730  1.0
  Ni  Ni327  1  0.59229940  0.29746907  0.16534730  1.0
  Ni  Ni328  1  0.59229940  0.63080240  0.16534730  1.0
  Ni  Ni329  1  0.59229940  0.96413573  0.16534730  1.0
  Ni  Ni330  1  0.92563273  0.29746907  0.16534730  1.0
  Ni  Ni331  1  0.92563273  0.63080240  0.16534730  1.0
  Ni  Ni332  1  0.92563273  0.96413573  0.16534730  1.0
  Ni  Ni333  1  0.12563273  0.16413573  0.06534730  1.0
  Ni  Ni334  1  0.12563273  0.49746907  0.06534730  1.0
  Ni  Ni335  1  0.12563273  0.83080240  0.06534730  1.0
  Ni  Ni336  1  0.45896607  0.16413573  0.06534730  1.0
  Ni  Ni337  1  0.45896607  0.49746907  0.06534730  1.0
  Ni  Ni338  1  0.45896607  0.83080240  0.06534730  1.0
  Ni  Ni339  1  0.79229940  0.16413573  0.06534730  1.0
  Ni  Ni340  1  0.79229940  0.49746907  0.06534730  1.0
  Ni  Ni341  1  0.79229940  0.83080240  0.06534730  1.0
  Ni  Ni342  1  0.17436727  0.30253093  0.03465270  1.0
  Ni  Ni343  1  0.17436727  0.63586427  0.03465270  1.0
  Ni  Ni344  1  0.17436727  0.96919760  0.03465270  1.0
  Ni  Ni345  1  0.50770060  0.30253093  0.03465270  1.0
  Ni  Ni346  1  0.50770060  0.63586427  0.03465270  1.0
  Ni  Ni347  1  0.50770060  0.96919760  0.03465270  1.0
  Ni  Ni348  1  0.84103393  0.30253093  0.03465270  1.0
  Ni  Ni349  1  0.84103393  0.63586427  0.03465270  1.0
  Ni  Ni350  1  0.84103393  0.96919760  0.03465270  1.0
  Ni  Ni351  1  0.30770060  0.10253093  0.13465270  1.0
  Ni  Ni352  1  0.30770060  0.43586427  0.13465270  1.0
  Ni  Ni353  1  0.30770060  0.76919760  0.13465270  1.0
  Ni  Ni354  1  0.64103393  0.10253093  0.13465270  1.0
  Ni  Ni355  1  0.64103393  0.43586427  0.13465270  1.0
  Ni  Ni356  1  0.64103393  0.76919760  0.13465270  1.0
  Ni  Ni357  1  0.97436727  0.10253093  0.13465270  1.0
  Ni  Ni358  1  0.97436727  0.43586427  0.13465270  1.0
  Ni  Ni359  1  0.97436727  0.76919760  0.13465270  1.0
  Ni  Ni360  1  0.07436727  0.03586427  0.33465270  1.0
  Ni  Ni361  1  0.07436727  0.36919760  0.33465270  1.0
  Ni  Ni362  1  0.07436727  0.70253093  0.33465270  1.0
  Ni  Ni363  1  0.40770060  0.03586427  0.33465270  1.0
  Ni  Ni364  1  0.40770060  0.36919760  0.33465270  1.0
  Ni  Ni365  1  0.40770060  0.70253093  0.33465270  1.0
  Ni  Ni366  1  0.74103393  0.03586427  0.33465270  1.0
  Ni  Ni367  1  0.74103393  0.36919760  0.33465270  1.0
  Ni  Ni368  1  0.74103393  0.70253093  0.33465270  1.0
  Ni  Ni369  1  0.27436727  0.23586427  0.23465270  1.0
  Ni  Ni370  1  0.27436727  0.56919760  0.23465270  1.0
  Ni  Ni371  1  0.27436727  0.90253093  0.23465270  1.0
  Ni  Ni372  1  0.60770060  0.23586427  0.23465270  1.0
  Ni  Ni373  1  0.60770060  0.56919760  0.23465270  1.0
  Ni  Ni374  1  0.60770060  0.90253093  0.23465270  1.0
  Ni  Ni375  1  0.94103393  0.23586427  0.23465270  1.0
  Ni  Ni376  1  0.94103393  0.56919760  0.23465270  1.0
  Ni  Ni377  1  0.94103393  0.90253093  0.23465270  1.0
  Ni  Ni378  1  0.02563273  0.23080240  0.36534730  1.0
  Ni  Ni379  1  0.02563273  0.56413573  0.36534730  1.0
  Ni  Ni380  1  0.02563273  0.89746907  0.36534730  1.0
  Ni  Ni381  1  0.35896607  0.23080240  0.36534730  1.0
  Ni  Ni382  1  0.35896607  0.56413573  0.36534730  1.0
  Ni  Ni383  1  0.35896607  0.89746907  0.36534730  1.0
  Ni  Ni384  1  0.69229940  0.23080240  0.36534730  1.0
  Ni  Ni385  1  0.69229940  0.56413573  0.36534730  1.0
  Ni  Ni386  1  0.69229940  0.89746907  0.36534730  1.0
  Ni  Ni387  1  0.22563273  0.09746907  0.26534730  1.0
  Ni  Ni388  1  0.22563273  0.43080240  0.26534730  1.0
  Ni  Ni389  1  0.22563273  0.76413573  0.26534730  1.0
  Ni  Ni390  1  0.55896607  0.09746907  0.26534730  1.0
  Ni  Ni391  1  0.55896607  0.43080240  0.26534730  1.0
  Ni  Ni392  1  0.55896607  0.76413573  0.26534730  1.0
  Ni  Ni393  1  0.89229940  0.09746907  0.26534730  1.0
  Ni  Ni394  1  0.89229940  0.43080240  0.26534730  1.0
  Ni  Ni395  1  0.89229940  0.76413573  0.26534730  1.0
  Ni  Ni396  1  0.19229940  0.23080240  0.36534730  1.0
  Ni  Ni397  1  0.19229940  0.56413573  0.36534730  1.0
  Ni  Ni398  1  0.19229940  0.89746907  0.36534730  1.0
  Ni  Ni399  1  0.52563273  0.23080240  0.36534730  1.0
  Ni  Ni400  1  0.52563273  0.56413573  0.36534730  1.0
  Ni  Ni401  1  0.52563273  0.89746907  0.36534730  1.0
  Ni  Ni402  1  0.85896607  0.23080240  0.36534730  1.0
  Ni  Ni403  1  0.85896607  0.56413573  0.36534730  1.0
  Ni  Ni404  1  0.85896607  0.89746907  0.36534730  1.0
  Ni  Ni405  1  0.05896607  0.09746907  0.26534730  1.0
  Ni  Ni406  1  0.05896607  0.43080240  0.26534730  1.0
  Ni  Ni407  1  0.05896607  0.76413573  0.26534730  1.0
  Ni  Ni408  1  0.39229940  0.09746907  0.26534730  1.0
  Ni  Ni409  1  0.39229940  0.43080240  0.26534730  1.0
  Ni  Ni410  1  0.39229940  0.76413573  0.26534730  1.0
  Ni  Ni411  1  0.72563273  0.09746907  0.26534730  1.0
  Ni  Ni412  1  0.72563273  0.43080240  0.26534730  1.0
  Ni  Ni413  1  0.72563273  0.76413573  0.26534730  1.0
  Ni  Ni414  1  0.10770060  0.23586427  0.23465270  1.0
  Ni  Ni415  1  0.10770060  0.56919760  0.23465270  1.0
  Ni  Ni416  1  0.10770060  0.90253093  0.23465270  1.0
  Ni  Ni417  1  0.44103393  0.23586427  0.23465270  1.0
  Ni  Ni418  1  0.44103393  0.56919760  0.23465270  1.0
  Ni  Ni419  1  0.44103393  0.90253093  0.23465270  1.0
  Ni  Ni420  1  0.77436727  0.23586427  0.23465270  1.0
  Ni  Ni421  1  0.77436727  0.56919760  0.23465270  1.0
  Ni  Ni422  1  0.77436727  0.90253093  0.23465270  1.0
  Ni  Ni423  1  0.24103393  0.03586427  0.33465270  1.0
  Ni  Ni424  1  0.24103393  0.36919760  0.33465270  1.0
  Ni  Ni425  1  0.24103393  0.70253093  0.33465270  1.0
  Ni  Ni426  1  0.57436727  0.03586427  0.33465270  1.0
  Ni  Ni427  1  0.57436727  0.36919760  0.33465270  1.0
  Ni  Ni428  1  0.57436727  0.70253093  0.33465270  1.0
  Ni  Ni429  1  0.90770060  0.03586427  0.33465270  1.0
  Ni  Ni430  1  0.90770060  0.36919760  0.33465270  1.0
  Ni  Ni431  1  0.90770060  0.70253093  0.33465270  1.0
