# generated using pymatgen
data_NiGe3
_symmetry_space_group_name_H-M   'P 1'
_cell_length_a   12.32252399
_cell_length_b   22.65170177
_cell_length_c   30.62129673
_cell_angle_alpha   85.17041432
_cell_angle_beta   86.15431584
_cell_angle_gamma   74.21668909
_symmetry_Int_Tables_number   1
_chemical_formula_structural   NiGe3
_chemical_formula_sum   'Ni54 Ge162'
_cell_volume   8187.04919544
_cell_formula_units_Z   54
loop_
 _symmetry_equiv_pos_site_id
 _symmetry_equiv_pos_as_xyz
  1  'x, y, z'
loop_
 _atom_site_type_symbol
 _atom_site_label
 _atom_site_symmetry_multiplicity
 _atom_site_fract_x
 _atom_site_fract_y
 _atom_site_fract_z
 _atom_site_occupancy
  Ge  Ge0  1  0.22023810  0.20833333  0.11607143  1.0
  Ge  Ge1  1  0.22023810  0.54166667  0.11607143  1.0
  Ge  Ge2  1  0.22023810  0.87500000  0.11607143  1.0
  Ge  Ge3  1  0.55357143  0.20833333  0.11607143  1.0
  Ge  Ge4  1  0.55357143  0.54166667  0.11607143  1.0
  Ge  Ge5  1  0.55357143  0.87500000  0.11607143  1.0
  Ge  Ge6  1  0.88690476  0.20833333  0.11607143  1.0
  Ge  Ge7  1  0.88690476  0.54166667  0.11607143  1.0
  Ge  Ge8  1  0.88690476  0.87500000  0.11607143  1.0
  Ge  Ge9  1  0.14880952  0.04166667  0.04464286  1.0
  Ge  Ge10  1  0.14880952  0.37500000  0.04464286  1.0
  Ge  Ge11  1  0.14880952  0.70833333  0.04464286  1.0
  Ge  Ge12  1  0.48214286  0.04166667  0.04464286  1.0
  Ge  Ge13  1  0.48214286  0.37500000  0.04464286  1.0
  Ge  Ge14  1  0.48214286  0.70833333  0.04464286  1.0
  Ge  Ge15  1  0.81547619  0.04166667  0.04464286  1.0
  Ge  Ge16  1  0.81547619  0.37500000  0.04464286  1.0
  Ge  Ge17  1  0.81547619  0.70833333  0.04464286  1.0
  Ge  Ge18  1  0.27976190  0.12500000  0.00892857  1.0
  Ge  Ge19  1  0.27976190  0.45833333  0.00892857  1.0
  Ge  Ge20  1  0.27976190  0.79166667  0.00892857  1.0
  Ge  Ge21  1  0.61309524  0.12500000  0.00892857  1.0
  Ge  Ge22  1  0.61309524  0.45833333  0.00892857  1.0
  Ge  Ge23  1  0.61309524  0.79166667  0.00892857  1.0
  Ge  Ge24  1  0.94642857  0.12500000  0.00892857  1.0
  Ge  Ge25  1  0.94642857  0.45833333  0.00892857  1.0
  Ge  Ge26  1  0.94642857  0.79166667  0.00892857  1.0
  Ge  Ge27  1  0.01785714  0.29166667  0.08035714  1.0
  Ge  Ge28  1  0.01785714  0.62500000  0.08035714  1.0
  Ge  Ge29  1  0.01785714  0.95833333  0.08035714  1.0
  Ge  Ge30  1  0.35119048  0.29166667  0.08035714  1.0
  Ge  Ge31  1  0.35119048  0.62500000  0.08035714  1.0
  Ge  Ge32  1  0.35119048  0.95833333  0.08035714  1.0
  Ge  Ge33  1  0.68452381  0.29166667  0.08035714  1.0
  Ge  Ge34  1  0.68452381  0.62500000  0.08035714  1.0
  Ge  Ge35  1  0.68452381  0.95833333  0.08035714  1.0
  Ge  Ge36  1  0.28571429  0.08333333  0.09821429  1.0
  Ge  Ge37  1  0.28571429  0.41666667  0.09821429  1.0
  Ge  Ge38  1  0.28571429  0.75000000  0.09821429  1.0
  Ge  Ge39  1  0.61904762  0.08333333  0.09821429  1.0
  Ge  Ge40  1  0.61904762  0.41666667  0.09821429  1.0
  Ge  Ge41  1  0.61904762  0.75000000  0.09821429  1.0
  Ge  Ge42  1  0.95238095  0.08333333  0.09821429  1.0
  Ge  Ge43  1  0.95238095  0.41666667  0.09821429  1.0
  Ge  Ge44  1  0.95238095  0.75000000  0.09821429  1.0
  Ge  Ge45  1  0.21428571  0.25000000  0.02678571  1.0
  Ge  Ge46  1  0.21428571  0.58333333  0.02678571  1.0
  Ge  Ge47  1  0.21428571  0.91666667  0.02678571  1.0
  Ge  Ge48  1  0.54761905  0.25000000  0.02678571  1.0
  Ge  Ge49  1  0.54761905  0.58333333  0.02678571  1.0
  Ge  Ge50  1  0.54761905  0.91666667  0.02678571  1.0
  Ge  Ge51  1  0.88095238  0.25000000  0.02678571  1.0
  Ge  Ge52  1  0.88095238  0.58333333  0.02678571  1.0
  Ge  Ge53  1  0.88095238  0.91666667  0.02678571  1.0
  Ge  Ge54  1  0.02976190  0.20833333  0.25892857  1.0
  Ge  Ge55  1  0.02976190  0.54166667  0.25892857  1.0
  Ge  Ge56  1  0.02976190  0.87500000  0.25892857  1.0
  Ge  Ge57  1  0.36309524  0.20833333  0.25892857  1.0
  Ge  Ge58  1  0.36309524  0.54166667  0.25892857  1.0
  Ge  Ge59  1  0.36309524  0.87500000  0.25892857  1.0
  Ge  Ge60  1  0.69642857  0.20833333  0.25892857  1.0
  Ge  Ge61  1  0.69642857  0.54166667  0.25892857  1.0
  Ge  Ge62  1  0.69642857  0.87500000  0.25892857  1.0
  Ge  Ge63  1  0.29166667  0.04166667  0.18750000  1.0
  Ge  Ge64  1  0.29166667  0.37500000  0.18750000  1.0
  Ge  Ge65  1  0.29166667  0.70833333  0.18750000  1.0
  Ge  Ge66  1  0.62500000  0.04166667  0.18750000  1.0
  Ge  Ge67  1  0.62500000  0.37500000  0.18750000  1.0
  Ge  Ge68  1  0.62500000  0.70833333  0.18750000  1.0
  Ge  Ge69  1  0.95833333  0.04166667  0.18750000  1.0
  Ge  Ge70  1  0.95833333  0.37500000  0.18750000  1.0
  Ge  Ge71  1  0.95833333  0.70833333  0.18750000  1.0
  Ge  Ge72  1  0.08928571  0.12500000  0.15178571  1.0
  Ge  Ge73  1  0.08928571  0.45833333  0.15178571  1.0
  Ge  Ge74  1  0.08928571  0.79166667  0.15178571  1.0
  Ge  Ge75  1  0.42261905  0.12500000  0.15178571  1.0
  Ge  Ge76  1  0.42261905  0.45833333  0.15178571  1.0
  Ge  Ge77  1  0.42261905  0.79166667  0.15178571  1.0
  Ge  Ge78  1  0.75595238  0.12500000  0.15178571  1.0
  Ge  Ge79  1  0.75595238  0.45833333  0.15178571  1.0
  Ge  Ge80  1  0.75595238  0.79166667  0.15178571  1.0
  Ge  Ge81  1  0.16071429  0.29166667  0.22321429  1.0
  Ge  Ge82  1  0.16071429  0.62500000  0.22321429  1.0
  Ge  Ge83  1  0.16071429  0.95833333  0.22321429  1.0
  Ge  Ge84  1  0.49404762  0.29166667  0.22321429  1.0
  Ge  Ge85  1  0.49404762  0.62500000  0.22321429  1.0
  Ge  Ge86  1  0.49404762  0.95833333  0.22321429  1.0
  Ge  Ge87  1  0.82738095  0.29166667  0.22321429  1.0
  Ge  Ge88  1  0.82738095  0.62500000  0.22321429  1.0
  Ge  Ge89  1  0.82738095  0.95833333  0.22321429  1.0
  Ge  Ge90  1  0.09523810  0.08333333  0.24107143  1.0
  Ge  Ge91  1  0.09523810  0.41666667  0.24107143  1.0
  Ge  Ge92  1  0.09523810  0.75000000  0.24107143  1.0
  Ge  Ge93  1  0.42857143  0.08333333  0.24107143  1.0
  Ge  Ge94  1  0.42857143  0.41666667  0.24107143  1.0
  Ge  Ge95  1  0.42857143  0.75000000  0.24107143  1.0
  Ge  Ge96  1  0.76190476  0.08333333  0.24107143  1.0
  Ge  Ge97  1  0.76190476  0.41666667  0.24107143  1.0
  Ge  Ge98  1  0.76190476  0.75000000  0.24107143  1.0
  Ge  Ge99  1  0.02380952  0.25000000  0.16964286  1.0
  Ge  Ge100  1  0.02380952  0.58333333  0.16964286  1.0
  Ge  Ge101  1  0.02380952  0.91666667  0.16964286  1.0
  Ge  Ge102  1  0.35714286  0.25000000  0.16964286  1.0
  Ge  Ge103  1  0.35714286  0.58333333  0.16964286  1.0
  Ge  Ge104  1  0.35714286  0.91666667  0.16964286  1.0
  Ge  Ge105  1  0.69047619  0.25000000  0.16964286  1.0
  Ge  Ge106  1  0.69047619  0.58333333  0.16964286  1.0
  Ge  Ge107  1  0.69047619  0.91666667  0.16964286  1.0
  Ge  Ge108  1  0.17261905  0.20833333  0.40178571  1.0
  Ge  Ge109  1  0.17261905  0.54166667  0.40178571  1.0
  Ge  Ge110  1  0.17261905  0.87500000  0.40178571  1.0
  Ge  Ge111  1  0.50595238  0.20833333  0.40178571  1.0
  Ge  Ge112  1  0.50595238  0.54166667  0.40178571  1.0
  Ge  Ge113  1  0.50595238  0.87500000  0.40178571  1.0
  Ge  Ge114  1  0.83928571  0.20833333  0.40178571  1.0
  Ge  Ge115  1  0.83928571  0.54166667  0.40178571  1.0
  Ge  Ge116  1  0.83928571  0.87500000  0.40178571  1.0
  Ge  Ge117  1  0.10119048  0.04166667  0.33035714  1.0
  Ge  Ge118  1  0.10119048  0.37500000  0.33035714  1.0
  Ge  Ge119  1  0.10119048  0.70833333  0.33035714  1.0
  Ge  Ge120  1  0.43452381  0.04166667  0.33035714  1.0
  Ge  Ge121  1  0.43452381  0.37500000  0.33035714  1.0
  Ge  Ge122  1  0.43452381  0.70833333  0.33035714  1.0
  Ge  Ge123  1  0.76785714  0.04166667  0.33035714  1.0
  Ge  Ge124  1  0.76785714  0.37500000  0.33035714  1.0
  Ge  Ge125  1  0.76785714  0.70833333  0.33035714  1.0
  Ge  Ge126  1  0.23214286  0.12500000  0.29464286  1.0
  Ge  Ge127  1  0.23214286  0.45833333  0.29464286  1.0
  Ge  Ge128  1  0.23214286  0.79166667  0.29464286  1.0
  Ge  Ge129  1  0.56547619  0.12500000  0.29464286  1.0
  Ge  Ge130  1  0.56547619  0.45833333  0.29464286  1.0
  Ge  Ge131  1  0.56547619  0.79166667  0.29464286  1.0
  Ge  Ge132  1  0.89880952  0.12500000  0.29464286  1.0
  Ge  Ge133  1  0.89880952  0.45833333  0.29464286  1.0
  Ge  Ge134  1  0.89880952  0.79166667  0.29464286  1.0
  Ge  Ge135  1  0.30357143  0.29166667  0.36607143  1.0
  Ge  Ge136  1  0.30357143  0.62500000  0.36607143  1.0
  Ge  Ge137  1  0.30357143  0.95833333  0.36607143  1.0
  Ge  Ge138  1  0.63690476  0.29166667  0.36607143  1.0
  Ge  Ge139  1  0.63690476  0.62500000  0.36607143  1.0
  Ge  Ge140  1  0.63690476  0.95833333  0.36607143  1.0
  Ge  Ge141  1  0.97023810  0.29166667  0.36607143  1.0
  Ge  Ge142  1  0.97023810  0.62500000  0.36607143  1.0
  Ge  Ge143  1  0.97023810  0.95833333  0.36607143  1.0
  Ge  Ge144  1  0.23809524  0.08333333  0.38392857  1.0
  Ge  Ge145  1  0.23809524  0.41666667  0.38392857  1.0
  Ge  Ge146  1  0.23809524  0.75000000  0.38392857  1.0
  Ge  Ge147  1  0.57142857  0.08333333  0.38392857  1.0
  Ge  Ge148  1  0.57142857  0.41666667  0.38392857  1.0
  Ge  Ge149  1  0.57142857  0.75000000  0.38392857  1.0
  Ge  Ge150  1  0.90476190  0.08333333  0.38392857  1.0
  Ge  Ge151  1  0.90476190  0.41666667  0.38392857  1.0
  Ge  Ge152  1  0.90476190  0.75000000  0.38392857  1.0
  Ge  Ge153  1  0.16666667  0.25000000  0.31250000  1.0
  Ge  Ge154  1  0.16666667  0.58333333  0.31250000  1.0
  Ge  Ge155  1  0.16666667  0.91666667  0.31250000  1.0
  Ge  Ge156  1  0.50000000  0.25000000  0.31250000  1.0
  Ge  Ge157  1  0.50000000  0.58333333  0.31250000  1.0
  Ge  Ge158  1  0.50000000  0.91666667  0.31250000  1.0
  Ge  Ge159  1  0.83333333  0.25000000  0.31250000  1.0
  Ge  Ge160  1  0.83333333  0.58333333  0.31250000  1.0
  Ge  Ge161  1  0.83333333  0.91666667  0.31250000  1.0
  Ni  Ni162  1  0.08333333  0.16666667  0.06250000  1.0
  Ni  Ni163  1  0.08333333  0.50000000  0.06250000  1.0
  Ni  Ni164  1  0.08333333  0.83333333  0.06250000  1.0
  Ni  Ni165  1  0.41666667  0.16666667  0.06250000  1.0
  Ni  Ni166  1  0.41666667  0.50000000  0.06250000  1.0
  Ni  Ni167  1  0.41666667  0.83333333  0.06250000  1.0
  Ni  Ni168  1  0.75000000  0.16666667  0.06250000  1.0
  Ni  Ni169  1  0.75000000  0.50000000  0.06250000  1.0
  Ni  Ni170  1  0.75000000  0.83333333  0.06250000  1.0
  Ni  Ni171  1  0.15476190  0.00000000  0.13392857  1.0
  Ni  Ni172  1  0.15476190  0.33333333  0.13392857  1.0
  Ni  Ni173  1  0.15476190  0.66666667  0.13392857  1.0
  Ni  Ni174  1  0.48809524  0.00000000  0.13392857  1.0
  Ni  Ni175  1  0.48809524  0.33333333  0.13392857  1.0
  Ni  Ni176  1  0.48809524  0.66666667  0.13392857  1.0
  Ni  Ni177  1  0.82142857  0.00000000  0.13392857  1.0
  Ni  Ni178  1  0.82142857  0.33333333  0.13392857  1.0
  Ni  Ni179  1  0.82142857  0.66666667  0.13392857  1.0
  Ni  Ni180  1  0.22619048  0.16666667  0.20535714  1.0
  Ni  Ni181  1  0.22619048  0.50000000  0.20535714  1.0
  Ni  Ni182  1  0.22619048  0.83333333  0.20535714  1.0
  Ni  Ni183  1  0.55952381  0.16666667  0.20535714  1.0
  Ni  Ni184  1  0.55952381  0.50000000  0.20535714  1.0
  Ni  Ni185  1  0.55952381  0.83333333  0.20535714  1.0
  Ni  Ni186  1  0.89285714  0.16666667  0.20535714  1.0
  Ni  Ni187  1  0.89285714  0.50000000  0.20535714  1.0
  Ni  Ni188  1  0.89285714  0.83333333  0.20535714  1.0
  Ni  Ni189  1  0.29761905  0.33333333  0.27678571  1.0
  Ni  Ni190  1  0.29761905  0.66666667  0.27678571  1.0
  Ni  Ni191  1  0.29761905  0.00000000  0.27678571  1.0
  Ni  Ni192  1  0.63095238  0.33333333  0.27678571  1.0
  Ni  Ni193  1  0.63095238  0.66666667  0.27678571  1.0
  Ni  Ni194  1  0.63095238  0.00000000  0.27678571  1.0
  Ni  Ni195  1  0.96428571  0.33333333  0.27678571  1.0
  Ni  Ni196  1  0.96428571  0.66666667  0.27678571  1.0
  Ni  Ni197  1  0.96428571  0.00000000  0.27678571  1.0
  Ni  Ni198  1  0.03571429  0.16666667  0.34821429  1.0
  Ni  Ni199  1  0.03571429  0.50000000  0.34821429  1.0
  Ni  Ni200  1  0.03571429  0.83333333  0.34821429  1.0
  Ni  Ni201  1  0.36904762  0.16666667  0.34821429  1.0
  Ni  Ni202  1  0.36904762  0.50000000  0.34821429  1.0
  Ni  Ni203  1  0.36904762  0.83333333  0.34821429  1.0
  Ni  Ni204  1  0.70238095  0.16666667  0.34821429  1.0
  Ni  Ni205  1  0.70238095  0.50000000  0.34821429  1.0
  Ni  Ni206  1  0.70238095  0.83333333  0.34821429  1.0
  Ni  Ni207  1  0.10714286  0.00000000  0.41964286  1.0
  Ni  Ni208  1  0.10714286  0.33333333  0.41964286  1.0
  Ni  Ni209  1  0.10714286  0.66666667  0.41964286  1.0
  Ni  Ni210  1  0.44047619  0.00000000  0.41964286  1.0
  Ni  Ni211  1  0.44047619  0.33333333  0.41964286  1.0
  Ni  Ni212  1  0.44047619  0.66666667  0.41964286  1.0
  Ni  Ni213  1  0.77380952  0.00000000  0.41964286  1.0
  Ni  Ni214  1  0.77380952  0.33333333  0.41964286  1.0
  Ni  Ni215  1  0.77380952  0.66666667  0.41964286  1.0
