# generated using pymatgen
data_NiGe2
_symmetry_space_group_name_H-M   'P 1'
_cell_length_a   18.53822805
_cell_length_b   40.95748758
_cell_length_c   29.00441500
_cell_angle_alpha   64.85595581
_cell_angle_beta   90.00000000
_cell_angle_gamma   59.60819085
_symmetry_Int_Tables_number   1
_chemical_formula_structural   NiGe2
_chemical_formula_sum   'Ni144 Ge288'
_cell_volume   16531.78408052
_cell_formula_units_Z   144
loop_
 _symmetry_equiv_pos_site_id
 _symmetry_equiv_pos_as_xyz
  1  'x, y, z'
loop_
 _atom_site_type_symbol
 _atom_site_label
 _atom_site_symmetry_multiplicity
 _atom_site_fract_x
 _atom_site_fract_y
 _atom_site_fract_z
 _atom_site_occupancy
  Ni  Ni0  1  0.03850300  0.01925150  0.18278925  1.0
  Ni  Ni1  1  0.03850300  0.35258483  0.18278925  1.0
  Ni  Ni2  1  0.03850300  0.68591817  0.18278925  1.0
  Ni  Ni3  1  0.37183633  0.01925150  0.18278925  1.0
  Ni  Ni4  1  0.37183633  0.35258483  0.18278925  1.0
  Ni  Ni5  1  0.37183633  0.68591817  0.18278925  1.0
  Ni  Ni6  1  0.70516967  0.01925150  0.18278925  1.0
  Ni  Ni7  1  0.70516967  0.35258483  0.18278925  1.0
  Ni  Ni8  1  0.70516967  0.68591817  0.18278925  1.0
  Ni  Ni9  1  0.03850300  0.18591817  0.08278925  1.0
  Ni  Ni10  1  0.03850300  0.51925150  0.08278925  1.0
  Ni  Ni11  1  0.03850300  0.85258483  0.08278925  1.0
  Ni  Ni12  1  0.37183633  0.18591817  0.08278925  1.0
  Ni  Ni13  1  0.37183633  0.51925150  0.08278925  1.0
  Ni  Ni14  1  0.37183633  0.85258483  0.08278925  1.0
  Ni  Ni15  1  0.70516967  0.18591817  0.08278925  1.0
  Ni  Ni16  1  0.70516967  0.51925150  0.08278925  1.0
  Ni  Ni17  1  0.70516967  0.85258483  0.08278925  1.0
  Ni  Ni18  1  0.12816367  0.06408183  0.05589105  1.0
  Ni  Ni19  1  0.12816367  0.39741517  0.05589105  1.0
  Ni  Ni20  1  0.12816367  0.73074850  0.05589105  1.0
  Ni  Ni21  1  0.46149700  0.06408183  0.05589105  1.0
  Ni  Ni22  1  0.46149700  0.39741517  0.05589105  1.0
  Ni  Ni23  1  0.46149700  0.73074850  0.05589105  1.0
  Ni  Ni24  1  0.79483033  0.06408183  0.05589105  1.0
  Ni  Ni25  1  0.79483033  0.39741517  0.05589105  1.0
  Ni  Ni26  1  0.79483033  0.73074850  0.05589105  1.0
  Ni  Ni27  1  0.12816367  0.23074850  0.15589105  1.0
  Ni  Ni28  1  0.12816367  0.56408183  0.15589105  1.0
  Ni  Ni29  1  0.12816367  0.89741517  0.15589105  1.0
  Ni  Ni30  1  0.46149700  0.23074850  0.15589105  1.0
  Ni  Ni31  1  0.46149700  0.56408183  0.15589105  1.0
  Ni  Ni32  1  0.46149700  0.89741517  0.15589105  1.0
  Ni  Ni33  1  0.79483033  0.23074850  0.15589105  1.0
  Ni  Ni34  1  0.79483033  0.56408183  0.15589105  1.0
  Ni  Ni35  1  0.79483033  0.89741517  0.15589105  1.0
  Ni  Ni36  1  0.29483033  0.14741517  0.10589105  1.0
  Ni  Ni37  1  0.29483033  0.48074850  0.10589105  1.0
  Ni  Ni38  1  0.29483033  0.81408183  0.10589105  1.0
  Ni  Ni39  1  0.62816367  0.14741517  0.10589105  1.0
  Ni  Ni40  1  0.62816367  0.48074850  0.10589105  1.0
  Ni  Ni41  1  0.62816367  0.81408183  0.10589105  1.0
  Ni  Ni42  1  0.96149700  0.14741517  0.10589105  1.0
  Ni  Ni43  1  0.96149700  0.48074850  0.10589105  1.0
  Ni  Ni44  1  0.96149700  0.81408183  0.10589105  1.0
  Ni  Ni45  1  0.29483033  0.31408183  0.00589105  1.0
  Ni  Ni46  1  0.29483033  0.64741517  0.00589105  1.0
  Ni  Ni47  1  0.29483033  0.98074850  0.00589105  1.0
  Ni  Ni48  1  0.62816367  0.31408183  0.00589105  1.0
  Ni  Ni49  1  0.62816367  0.64741517  0.00589105  1.0
  Ni  Ni50  1  0.62816367  0.98074850  0.00589105  1.0
  Ni  Ni51  1  0.96149700  0.31408183  0.00589105  1.0
  Ni  Ni52  1  0.96149700  0.64741517  0.00589105  1.0
  Ni  Ni53  1  0.96149700  0.98074850  0.00589105  1.0
  Ni  Ni54  1  0.20516967  0.10258483  0.03278925  1.0
  Ni  Ni55  1  0.20516967  0.43591817  0.03278925  1.0
  Ni  Ni56  1  0.20516967  0.76925150  0.03278925  1.0
  Ni  Ni57  1  0.53850300  0.10258483  0.03278925  1.0
  Ni  Ni58  1  0.53850300  0.43591817  0.03278925  1.0
  Ni  Ni59  1  0.53850300  0.76925150  0.03278925  1.0
  Ni  Ni60  1  0.87183633  0.10258483  0.03278925  1.0
  Ni  Ni61  1  0.87183633  0.43591817  0.03278925  1.0
  Ni  Ni62  1  0.87183633  0.76925150  0.03278925  1.0
  Ni  Ni63  1  0.20516967  0.26925150  0.13278925  1.0
  Ni  Ni64  1  0.20516967  0.60258483  0.13278925  1.0
  Ni  Ni65  1  0.20516967  0.93591817  0.13278925  1.0
  Ni  Ni66  1  0.53850300  0.26925150  0.13278925  1.0
  Ni  Ni67  1  0.53850300  0.60258483  0.13278925  1.0
  Ni  Ni68  1  0.53850300  0.93591817  0.13278925  1.0
  Ni  Ni69  1  0.87183633  0.26925150  0.13278925  1.0
  Ni  Ni70  1  0.87183633  0.60258483  0.13278925  1.0
  Ni  Ni71  1  0.87183633  0.93591817  0.13278925  1.0
  Ge  Ge72  1  0.05144333  0.14094500  0.04110695  1.0
  Ge  Ge73  1  0.05144333  0.47427833  0.04110695  1.0
  Ge  Ge74  1  0.05144333  0.80761167  0.04110695  1.0
  Ge  Ge75  1  0.38477667  0.14094500  0.04110695  1.0
  Ge  Ge76  1  0.38477667  0.47427833  0.04110695  1.0
  Ge  Ge77  1  0.38477667  0.80761167  0.04110695  1.0
  Ge  Ge78  1  0.71811000  0.14094500  0.04110695  1.0
  Ge  Ge79  1  0.71811000  0.47427833  0.04110695  1.0
  Ge  Ge80  1  0.71811000  0.80761167  0.04110695  1.0
  Ge  Ge81  1  0.05144333  0.30761167  0.14110695  1.0
  Ge  Ge82  1  0.05144333  0.64094500  0.14110695  1.0
  Ge  Ge83  1  0.05144333  0.97427833  0.14110695  1.0
  Ge  Ge84  1  0.38477667  0.30761167  0.14110695  1.0
  Ge  Ge85  1  0.38477667  0.64094500  0.14110695  1.0
  Ge  Ge86  1  0.38477667  0.97427833  0.14110695  1.0
  Ge  Ge87  1  0.71811000  0.30761167  0.14110695  1.0
  Ge  Ge88  1  0.71811000  0.64094500  0.14110695  1.0
  Ge  Ge89  1  0.71811000  0.97427833  0.14110695  1.0
  Ge  Ge90  1  0.11522333  0.10905500  0.16024095  1.0
  Ge  Ge91  1  0.11522333  0.44238833  0.16024095  1.0
  Ge  Ge92  1  0.11522333  0.77572167  0.16024095  1.0
  Ge  Ge93  1  0.44855667  0.10905500  0.16024095  1.0
  Ge  Ge94  1  0.44855667  0.44238833  0.16024095  1.0
  Ge  Ge95  1  0.44855667  0.77572167  0.16024095  1.0
  Ge  Ge96  1  0.78189000  0.10905500  0.16024095  1.0
  Ge  Ge97  1  0.78189000  0.44238833  0.16024095  1.0
  Ge  Ge98  1  0.78189000  0.77572167  0.16024095  1.0
  Ge  Ge99  1  0.11522333  0.27572167  0.06024095  1.0
  Ge  Ge100  1  0.11522333  0.60905500  0.06024095  1.0
  Ge  Ge101  1  0.11522333  0.94238833  0.06024095  1.0
  Ge  Ge102  1  0.44855667  0.27572167  0.06024095  1.0
  Ge  Ge103  1  0.44855667  0.60905500  0.06024095  1.0
  Ge  Ge104  1  0.44855667  0.94238833  0.06024095  1.0
  Ge  Ge105  1  0.78189000  0.27572167  0.06024095  1.0
  Ge  Ge106  1  0.78189000  0.60905500  0.06024095  1.0
  Ge  Ge107  1  0.78189000  0.94238833  0.06024095  1.0
  Ge  Ge108  1  0.21811000  0.05761167  0.12843935  1.0
  Ge  Ge109  1  0.21811000  0.39094500  0.12843935  1.0
  Ge  Ge110  1  0.21811000  0.72427833  0.12843935  1.0
  Ge  Ge111  1  0.55144333  0.05761167  0.12843935  1.0
  Ge  Ge112  1  0.55144333  0.39094500  0.12843935  1.0
  Ge  Ge113  1  0.55144333  0.72427833  0.12843935  1.0
  Ge  Ge114  1  0.88477667  0.05761167  0.12843935  1.0
  Ge  Ge115  1  0.88477667  0.39094500  0.12843935  1.0
  Ge  Ge116  1  0.88477667  0.72427833  0.12843935  1.0
  Ge  Ge117  1  0.21811000  0.22427833  0.02843935  1.0
  Ge  Ge118  1  0.21811000  0.55761167  0.02843935  1.0
  Ge  Ge119  1  0.21811000  0.89094500  0.02843935  1.0
  Ge  Ge120  1  0.55144333  0.22427833  0.02843935  1.0
  Ge  Ge121  1  0.55144333  0.55761167  0.02843935  1.0
  Ge  Ge122  1  0.55144333  0.89094500  0.02843935  1.0
  Ge  Ge123  1  0.88477667  0.22427833  0.02843935  1.0
  Ge  Ge124  1  0.88477667  0.55761167  0.02843935  1.0
  Ge  Ge125  1  0.88477667  0.89094500  0.02843935  1.0
  Ge  Ge126  1  0.28189000  0.02572167  0.04757335  1.0
  Ge  Ge127  1  0.28189000  0.35905500  0.04757335  1.0
  Ge  Ge128  1  0.28189000  0.69238833  0.04757335  1.0
  Ge  Ge129  1  0.61522333  0.02572167  0.04757335  1.0
  Ge  Ge130  1  0.61522333  0.35905500  0.04757335  1.0
  Ge  Ge131  1  0.61522333  0.69238833  0.04757335  1.0
  Ge  Ge132  1  0.94855667  0.02572167  0.04757335  1.0
  Ge  Ge133  1  0.94855667  0.35905500  0.04757335  1.0
  Ge  Ge134  1  0.94855667  0.69238833  0.04757335  1.0
  Ge  Ge135  1  0.28189000  0.19238833  0.14757335  1.0
  Ge  Ge136  1  0.28189000  0.52572167  0.14757335  1.0
  Ge  Ge137  1  0.28189000  0.85905500  0.14757335  1.0
  Ge  Ge138  1  0.61522333  0.19238833  0.14757335  1.0
  Ge  Ge139  1  0.61522333  0.52572167  0.14757335  1.0
  Ge  Ge140  1  0.61522333  0.85905500  0.14757335  1.0
  Ge  Ge141  1  0.94855667  0.19238833  0.14757335  1.0
  Ge  Ge142  1  0.94855667  0.52572167  0.14757335  1.0
  Ge  Ge143  1  0.94855667  0.85905500  0.14757335  1.0
  Ge  Ge144  1  0.16589600  0.00038533  0.14410895  1.0
  Ge  Ge145  1  0.16589600  0.33371867  0.14410895  1.0
  Ge  Ge146  1  0.16589600  0.66705200  0.14410895  1.0
  Ge  Ge147  1  0.49922933  0.00038533  0.14410895  1.0
  Ge  Ge148  1  0.49922933  0.33371867  0.14410895  1.0
  Ge  Ge149  1  0.49922933  0.66705200  0.14410895  1.0
  Ge  Ge150  1  0.83256267  0.00038533  0.14410895  1.0
  Ge  Ge151  1  0.83256267  0.33371867  0.14410895  1.0
  Ge  Ge152  1  0.83256267  0.66705200  0.14410895  1.0
  Ge  Ge153  1  0.16589600  0.16705200  0.04410895  1.0
  Ge  Ge154  1  0.16589600  0.50038533  0.04410895  1.0
  Ge  Ge155  1  0.16589600  0.83371867  0.04410895  1.0
  Ge  Ge156  1  0.49922933  0.16705200  0.04410895  1.0
  Ge  Ge157  1  0.49922933  0.50038533  0.04410895  1.0
  Ge  Ge158  1  0.49922933  0.83371867  0.04410895  1.0
  Ge  Ge159  1  0.83256267  0.16705200  0.04410895  1.0
  Ge  Ge160  1  0.83256267  0.50038533  0.04410895  1.0
  Ge  Ge161  1  0.83256267  0.83371867  0.04410895  1.0
  Ge  Ge162  1  0.00077067  0.08294800  0.19457135  1.0
  Ge  Ge163  1  0.00077067  0.41628133  0.19457135  1.0
  Ge  Ge164  1  0.00077067  0.74961467  0.19457135  1.0
  Ge  Ge165  1  0.33410400  0.08294800  0.19457135  1.0
  Ge  Ge166  1  0.33410400  0.41628133  0.19457135  1.0
  Ge  Ge167  1  0.33410400  0.74961467  0.19457135  1.0
  Ge  Ge168  1  0.66743733  0.08294800  0.19457135  1.0
  Ge  Ge169  1  0.66743733  0.41628133  0.19457135  1.0
  Ge  Ge170  1  0.66743733  0.74961467  0.19457135  1.0
  Ge  Ge171  1  0.00077067  0.24961467  0.09457135  1.0
  Ge  Ge172  1  0.00077067  0.58294800  0.09457135  1.0
  Ge  Ge173  1  0.00077067  0.91628133  0.09457135  1.0
  Ge  Ge174  1  0.33410400  0.24961467  0.09457135  1.0
  Ge  Ge175  1  0.33410400  0.58294800  0.09457135  1.0
  Ge  Ge176  1  0.33410400  0.91628133  0.09457135  1.0
  Ge  Ge177  1  0.66743733  0.24961467  0.09457135  1.0
  Ge  Ge178  1  0.66743733  0.58294800  0.09457135  1.0
  Ge  Ge179  1  0.66743733  0.91628133  0.09457135  1.0
  Ge  Ge180  1  0.16743733  0.16628133  0.14457135  1.0
  Ge  Ge181  1  0.16743733  0.49961467  0.14457135  1.0
  Ge  Ge182  1  0.16743733  0.83294800  0.14457135  1.0
  Ge  Ge183  1  0.50077067  0.16628133  0.14457135  1.0
  Ge  Ge184  1  0.50077067  0.49961467  0.14457135  1.0
  Ge  Ge185  1  0.50077067  0.83294800  0.14457135  1.0
  Ge  Ge186  1  0.83410400  0.16628133  0.14457135  1.0
  Ge  Ge187  1  0.83410400  0.49961467  0.14457135  1.0
  Ge  Ge188  1  0.83410400  0.83294800  0.14457135  1.0
  Ge  Ge189  1  0.16743733  0.33294800  0.04457135  1.0
  Ge  Ge190  1  0.16743733  0.66628133  0.04457135  1.0
  Ge  Ge191  1  0.16743733  0.99961467  0.04457135  1.0
  Ge  Ge192  1  0.50077067  0.33294800  0.04457135  1.0
  Ge  Ge193  1  0.50077067  0.66628133  0.04457135  1.0
  Ge  Ge194  1  0.50077067  0.99961467  0.04457135  1.0
  Ge  Ge195  1  0.83410400  0.33294800  0.04457135  1.0
  Ge  Ge196  1  0.83410400  0.66628133  0.04457135  1.0
  Ge  Ge197  1  0.83410400  0.99961467  0.04457135  1.0
  Ge  Ge198  1  0.33256267  0.08371867  0.09410895  1.0
  Ge  Ge199  1  0.33256267  0.41705200  0.09410895  1.0
  Ge  Ge200  1  0.33256267  0.75038533  0.09410895  1.0
  Ge  Ge201  1  0.66589600  0.08371867  0.09410895  1.0
  Ge  Ge202  1  0.66589600  0.41705200  0.09410895  1.0
  Ge  Ge203  1  0.66589600  0.75038533  0.09410895  1.0
  Ge  Ge204  1  0.99922933  0.08371867  0.09410895  1.0
  Ge  Ge205  1  0.99922933  0.41705200  0.09410895  1.0
  Ge  Ge206  1  0.99922933  0.75038533  0.09410895  1.0
  Ge  Ge207  1  0.33256267  0.25038533  0.19410895  1.0
  Ge  Ge208  1  0.33256267  0.58371867  0.19410895  1.0
  Ge  Ge209  1  0.33256267  0.91705200  0.19410895  1.0
  Ge  Ge210  1  0.66589600  0.25038533  0.19410895  1.0
  Ge  Ge211  1  0.66589600  0.58371867  0.19410895  1.0
  Ge  Ge212  1  0.66589600  0.91705200  0.19410895  1.0
  Ge  Ge213  1  0.99922933  0.25038533  0.19410895  1.0
  Ge  Ge214  1  0.99922933  0.58371867  0.19410895  1.0
  Ge  Ge215  1  0.99922933  0.91705200  0.19410895  1.0
  Ni  Ni216  1  0.03850300  0.01925150  0.38278925  1.0
  Ni  Ni217  1  0.03850300  0.35258483  0.38278925  1.0
  Ni  Ni218  1  0.03850300  0.68591817  0.38278925  1.0
  Ni  Ni219  1  0.37183633  0.01925150  0.38278925  1.0
  Ni  Ni220  1  0.37183633  0.35258483  0.38278925  1.0
  Ni  Ni221  1  0.37183633  0.68591817  0.38278925  1.0
  Ni  Ni222  1  0.70516967  0.01925150  0.38278925  1.0
  Ni  Ni223  1  0.70516967  0.35258483  0.38278925  1.0
  Ni  Ni224  1  0.70516967  0.68591817  0.38278925  1.0
  Ni  Ni225  1  0.03850300  0.18591817  0.28278925  1.0
  Ni  Ni226  1  0.03850300  0.51925150  0.28278925  1.0
  Ni  Ni227  1  0.03850300  0.85258483  0.28278925  1.0
  Ni  Ni228  1  0.37183633  0.18591817  0.28278925  1.0
  Ni  Ni229  1  0.37183633  0.51925150  0.28278925  1.0
  Ni  Ni230  1  0.37183633  0.85258483  0.28278925  1.0
  Ni  Ni231  1  0.70516967  0.18591817  0.28278925  1.0
  Ni  Ni232  1  0.70516967  0.51925150  0.28278925  1.0
  Ni  Ni233  1  0.70516967  0.85258483  0.28278925  1.0
  Ni  Ni234  1  0.12816367  0.06408183  0.25589105  1.0
  Ni  Ni235  1  0.12816367  0.39741517  0.25589105  1.0
  Ni  Ni236  1  0.12816367  0.73074850  0.25589105  1.0
  Ni  Ni237  1  0.46149700  0.06408183  0.25589105  1.0
  Ni  Ni238  1  0.46149700  0.39741517  0.25589105  1.0
  Ni  Ni239  1  0.46149700  0.73074850  0.25589105  1.0
  Ni  Ni240  1  0.79483033  0.06408183  0.25589105  1.0
  Ni  Ni241  1  0.79483033  0.39741517  0.25589105  1.0
  Ni  Ni242  1  0.79483033  0.73074850  0.25589105  1.0
  Ni  Ni243  1  0.12816367  0.23074850  0.35589105  1.0
  Ni  Ni244  1  0.12816367  0.56408183  0.35589105  1.0
  Ni  Ni245  1  0.12816367  0.89741517  0.35589105  1.0
  Ni  Ni246  1  0.46149700  0.23074850  0.35589105  1.0
  Ni  Ni247  1  0.46149700  0.56408183  0.35589105  1.0
  Ni  Ni248  1  0.46149700  0.89741517  0.35589105  1.0
  Ni  Ni249  1  0.79483033  0.23074850  0.35589105  1.0
  Ni  Ni250  1  0.79483033  0.56408183  0.35589105  1.0
  Ni  Ni251  1  0.79483033  0.89741517  0.35589105  1.0
  Ni  Ni252  1  0.29483033  0.14741517  0.30589105  1.0
  Ni  Ni253  1  0.29483033  0.48074850  0.30589105  1.0
  Ni  Ni254  1  0.29483033  0.81408183  0.30589105  1.0
  Ni  Ni255  1  0.62816367  0.14741517  0.30589105  1.0
  Ni  Ni256  1  0.62816367  0.48074850  0.30589105  1.0
  Ni  Ni257  1  0.62816367  0.81408183  0.30589105  1.0
  Ni  Ni258  1  0.96149700  0.14741517  0.30589105  1.0
  Ni  Ni259  1  0.96149700  0.48074850  0.30589105  1.0
  Ni  Ni260  1  0.96149700  0.81408183  0.30589105  1.0
  Ni  Ni261  1  0.29483033  0.31408183  0.20589105  1.0
  Ni  Ni262  1  0.29483033  0.64741517  0.20589105  1.0
  Ni  Ni263  1  0.29483033  0.98074850  0.20589105  1.0
  Ni  Ni264  1  0.62816367  0.31408183  0.20589105  1.0
  Ni  Ni265  1  0.62816367  0.64741517  0.20589105  1.0
  Ni  Ni266  1  0.62816367  0.98074850  0.20589105  1.0
  Ni  Ni267  1  0.96149700  0.31408183  0.20589105  1.0
  Ni  Ni268  1  0.96149700  0.64741517  0.20589105  1.0
  Ni  Ni269  1  0.96149700  0.98074850  0.20589105  1.0
  Ni  Ni270  1  0.20516967  0.10258483  0.23278925  1.0
  Ni  Ni271  1  0.20516967  0.43591817  0.23278925  1.0
  Ni  Ni272  1  0.20516967  0.76925150  0.23278925  1.0
  Ni  Ni273  1  0.53850300  0.10258483  0.23278925  1.0
  Ni  Ni274  1  0.53850300  0.43591817  0.23278925  1.0
  Ni  Ni275  1  0.53850300  0.76925150  0.23278925  1.0
  Ni  Ni276  1  0.87183633  0.10258483  0.23278925  1.0
  Ni  Ni277  1  0.87183633  0.43591817  0.23278925  1.0
  Ni  Ni278  1  0.87183633  0.76925150  0.23278925  1.0
  Ni  Ni279  1  0.20516967  0.26925150  0.33278925  1.0
  Ni  Ni280  1  0.20516967  0.60258483  0.33278925  1.0
  Ni  Ni281  1  0.20516967  0.93591817  0.33278925  1.0
  Ni  Ni282  1  0.53850300  0.26925150  0.33278925  1.0
  Ni  Ni283  1  0.53850300  0.60258483  0.33278925  1.0
  Ni  Ni284  1  0.53850300  0.93591817  0.33278925  1.0
  Ni  Ni285  1  0.87183633  0.26925150  0.33278925  1.0
  Ni  Ni286  1  0.87183633  0.60258483  0.33278925  1.0
  Ni  Ni287  1  0.87183633  0.93591817  0.33278925  1.0
  Ge  Ge288  1  0.05144333  0.14094500  0.24110695  1.0
  Ge  Ge289  1  0.05144333  0.47427833  0.24110695  1.0
  Ge  Ge290  1  0.05144333  0.80761167  0.24110695  1.0
  Ge  Ge291  1  0.38477667  0.14094500  0.24110695  1.0
  Ge  Ge292  1  0.38477667  0.47427833  0.24110695  1.0
  Ge  Ge293  1  0.38477667  0.80761167  0.24110695  1.0
  Ge  Ge294  1  0.71811000  0.14094500  0.24110695  1.0
  Ge  Ge295  1  0.71811000  0.47427833  0.24110695  1.0
  Ge  Ge296  1  0.71811000  0.80761167  0.24110695  1.0
  Ge  Ge297  1  0.05144333  0.30761167  0.34110695  1.0
  Ge  Ge298  1  0.05144333  0.64094500  0.34110695  1.0
  Ge  Ge299  1  0.05144333  0.97427833  0.34110695  1.0
  Ge  Ge300  1  0.38477667  0.30761167  0.34110695  1.0
  Ge  Ge301  1  0.38477667  0.64094500  0.34110695  1.0
  Ge  Ge302  1  0.38477667  0.97427833  0.34110695  1.0
  Ge  Ge303  1  0.71811000  0.30761167  0.34110695  1.0
  Ge  Ge304  1  0.71811000  0.64094500  0.34110695  1.0
  Ge  Ge305  1  0.71811000  0.97427833  0.34110695  1.0
  Ge  Ge306  1  0.11522333  0.10905500  0.36024095  1.0
  Ge  Ge307  1  0.11522333  0.44238833  0.36024095  1.0
  Ge  Ge308  1  0.11522333  0.77572167  0.36024095  1.0
  Ge  Ge309  1  0.44855667  0.10905500  0.36024095  1.0
  Ge  Ge310  1  0.44855667  0.44238833  0.36024095  1.0
  Ge  Ge311  1  0.44855667  0.77572167  0.36024095  1.0
  Ge  Ge312  1  0.78189000  0.10905500  0.36024095  1.0
  Ge  Ge313  1  0.78189000  0.44238833  0.36024095  1.0
  Ge  Ge314  1  0.78189000  0.77572167  0.36024095  1.0
  Ge  Ge315  1  0.11522333  0.27572167  0.26024095  1.0
  Ge  Ge316  1  0.11522333  0.60905500  0.26024095  1.0
  Ge  Ge317  1  0.11522333  0.94238833  0.26024095  1.0
  Ge  Ge318  1  0.44855667  0.27572167  0.26024095  1.0
  Ge  Ge319  1  0.44855667  0.60905500  0.26024095  1.0
  Ge  Ge320  1  0.44855667  0.94238833  0.26024095  1.0
  Ge  Ge321  1  0.78189000  0.27572167  0.26024095  1.0
  Ge  Ge322  1  0.78189000  0.60905500  0.26024095  1.0
  Ge  Ge323  1  0.78189000  0.94238833  0.26024095  1.0
  Ge  Ge324  1  0.21811000  0.05761167  0.32843935  1.0
  Ge  Ge325  1  0.21811000  0.39094500  0.32843935  1.0
  Ge  Ge326  1  0.21811000  0.72427833  0.32843935  1.0
  Ge  Ge327  1  0.55144333  0.05761167  0.32843935  1.0
  Ge  Ge328  1  0.55144333  0.39094500  0.32843935  1.0
  Ge  Ge329  1  0.55144333  0.72427833  0.32843935  1.0
  Ge  Ge330  1  0.88477667  0.05761167  0.32843935  1.0
  Ge  Ge331  1  0.88477667  0.39094500  0.32843935  1.0
  Ge  Ge332  1  0.88477667  0.72427833  0.32843935  1.0
  Ge  Ge333  1  0.21811000  0.22427833  0.22843935  1.0
  Ge  Ge334  1  0.21811000  0.55761167  0.22843935  1.0
  Ge  Ge335  1  0.21811000  0.89094500  0.22843935  1.0
  Ge  Ge336  1  0.55144333  0.22427833  0.22843935  1.0
  Ge  Ge337  1  0.55144333  0.55761167  0.22843935  1.0
  Ge  Ge338  1  0.55144333  0.89094500  0.22843935  1.0
  Ge  Ge339  1  0.88477667  0.22427833  0.22843935  1.0
  Ge  Ge340  1  0.88477667  0.55761167  0.22843935  1.0
  Ge  Ge341  1  0.88477667  0.89094500  0.22843935  1.0
  Ge  Ge342  1  0.28189000  0.02572167  0.24757335  1.0
  Ge  Ge343  1  0.28189000  0.35905500  0.24757335  1.0
  Ge  Ge344  1  0.28189000  0.69238833  0.24757335  1.0
  Ge  Ge345  1  0.61522333  0.02572167  0.24757335  1.0
  Ge  Ge346  1  0.61522333  0.35905500  0.24757335  1.0
  Ge  Ge347  1  0.61522333  0.69238833  0.24757335  1.0
  Ge  Ge348  1  0.94855667  0.02572167  0.24757335  1.0
  Ge  Ge349  1  0.94855667  0.35905500  0.24757335  1.0
  Ge  Ge350  1  0.94855667  0.69238833  0.24757335  1.0
  Ge  Ge351  1  0.28189000  0.19238833  0.34757335  1.0
  Ge  Ge352  1  0.28189000  0.52572167  0.34757335  1.0
  Ge  Ge353  1  0.28189000  0.85905500  0.34757335  1.0
  Ge  Ge354  1  0.61522333  0.19238833  0.34757335  1.0
  Ge  Ge355  1  0.61522333  0.52572167  0.34757335  1.0
  Ge  Ge356  1  0.61522333  0.85905500  0.34757335  1.0
  Ge  Ge357  1  0.94855667  0.19238833  0.34757335  1.0
  Ge  Ge358  1  0.94855667  0.52572167  0.34757335  1.0
  Ge  Ge359  1  0.94855667  0.85905500  0.34757335  1.0
  Ge  Ge360  1  0.16589600  0.00038533  0.34410895  1.0
  Ge  Ge361  1  0.16589600  0.33371867  0.34410895  1.0
  Ge  Ge362  1  0.16589600  0.66705200  0.34410895  1.0
  Ge  Ge363  1  0.49922933  0.00038533  0.34410895  1.0
  Ge  Ge364  1  0.49922933  0.33371867  0.34410895  1.0
  Ge  Ge365  1  0.49922933  0.66705200  0.34410895  1.0
  Ge  Ge366  1  0.83256267  0.00038533  0.34410895  1.0
  Ge  Ge367  1  0.83256267  0.33371867  0.34410895  1.0
  Ge  Ge368  1  0.83256267  0.66705200  0.34410895  1.0
  Ge  Ge369  1  0.16589600  0.16705200  0.24410895  1.0
  Ge  Ge370  1  0.16589600  0.50038533  0.24410895  1.0
  Ge  Ge371  1  0.16589600  0.83371867  0.24410895  1.0
  Ge  Ge372  1  0.49922933  0.16705200  0.24410895  1.0
  Ge  Ge373  1  0.49922933  0.50038533  0.24410895  1.0
  Ge  Ge374  1  0.49922933  0.83371867  0.24410895  1.0
  Ge  Ge375  1  0.83256267  0.16705200  0.24410895  1.0
  Ge  Ge376  1  0.83256267  0.50038533  0.24410895  1.0
  Ge  Ge377  1  0.83256267  0.83371867  0.24410895  1.0
  Ge  Ge378  1  0.00077067  0.08294800  0.39457135  1.0
  Ge  Ge379  1  0.00077067  0.41628133  0.39457135  1.0
  Ge  Ge380  1  0.00077067  0.74961467  0.39457135  1.0
  Ge  Ge381  1  0.33410400  0.08294800  0.39457135  1.0
  Ge  Ge382  1  0.33410400  0.41628133  0.39457135  1.0
  Ge  Ge383  1  0.33410400  0.74961467  0.39457135  1.0
  Ge  Ge384  1  0.66743733  0.08294800  0.39457135  1.0
  Ge  Ge385  1  0.66743733  0.41628133  0.39457135  1.0
  Ge  Ge386  1  0.66743733  0.74961467  0.39457135  1.0
  Ge  Ge387  1  0.00077067  0.24961467  0.29457135  1.0
  Ge  Ge388  1  0.00077067  0.58294800  0.29457135  1.0
  Ge  Ge389  1  0.00077067  0.91628133  0.29457135  1.0
  Ge  Ge390  1  0.33410400  0.24961467  0.29457135  1.0
  Ge  Ge391  1  0.33410400  0.58294800  0.29457135  1.0
  Ge  Ge392  1  0.33410400  0.91628133  0.29457135  1.0
  Ge  Ge393  1  0.66743733  0.24961467  0.29457135  1.0
  Ge  Ge394  1  0.66743733  0.58294800  0.29457135  1.0
  Ge  Ge395  1  0.66743733  0.91628133  0.29457135  1.0
  Ge  Ge396  1  0.16743733  0.16628133  0.34457135  1.0
  Ge  Ge397  1  0.16743733  0.49961467  0.34457135  1.0
  Ge  Ge398  1  0.16743733  0.83294800  0.34457135  1.0
  Ge  Ge399  1  0.50077067  0.16628133  0.34457135  1.0
  Ge  Ge400  1  0.50077067  0.49961467  0.34457135  1.0
  Ge  Ge401  1  0.50077067  0.83294800  0.34457135  1.0
  Ge  Ge402  1  0.83410400  0.16628133  0.34457135  1.0
  Ge  Ge403  1  0.83410400  0.49961467  0.34457135  1.0
  Ge  Ge404  1  0.83410400  0.83294800  0.34457135  1.0
  Ge  Ge405  1  0.16743733  0.33294800  0.24457135  1.0
  Ge  Ge406  1  0.16743733  0.66628133  0.24457135  1.0
  Ge  Ge407  1  0.16743733  0.99961467  0.24457135  1.0
  Ge  Ge408  1  0.50077067  0.33294800  0.24457135  1.0
  Ge  Ge409  1  0.50077067  0.66628133  0.24457135  1.0
  Ge  Ge410  1  0.50077067  0.99961467  0.24457135  1.0
  Ge  Ge411  1  0.83410400  0.33294800  0.24457135  1.0
  Ge  Ge412  1  0.83410400  0.66628133  0.24457135  1.0
  Ge  Ge413  1  0.83410400  0.99961467  0.24457135  1.0
  Ge  Ge414  1  0.33256267  0.08371867  0.29410895  1.0
  Ge  Ge415  1  0.33256267  0.41705200  0.29410895  1.0
  Ge  Ge416  1  0.33256267  0.75038533  0.29410895  1.0
  Ge  Ge417  1  0.66589600  0.08371867  0.29410895  1.0
  Ge  Ge418  1  0.66589600  0.41705200  0.29410895  1.0
  Ge  Ge419  1  0.66589600  0.75038533  0.29410895  1.0
  Ge  Ge420  1  0.99922933  0.08371867  0.29410895  1.0
  Ge  Ge421  1  0.99922933  0.41705200  0.29410895  1.0
  Ge  Ge422  1  0.99922933  0.75038533  0.29410895  1.0
  Ge  Ge423  1  0.33256267  0.25038533  0.39410895  1.0
  Ge  Ge424  1  0.33256267  0.58371867  0.39410895  1.0
  Ge  Ge425  1  0.33256267  0.91705200  0.39410895  1.0
  Ge  Ge426  1  0.66589600  0.25038533  0.39410895  1.0
  Ge  Ge427  1  0.66589600  0.58371867  0.39410895  1.0
  Ge  Ge428  1  0.66589600  0.91705200  0.39410895  1.0
  Ge  Ge429  1  0.99922933  0.25038533  0.39410895  1.0
  Ge  Ge430  1  0.99922933  0.58371867  0.39410895  1.0
  Ge  Ge431  1  0.99922933  0.91705200  0.39410895  1.0
