# generated using pymatgen
data_NiGe3
_symmetry_space_group_name_H-M   'P 1'
_cell_length_a   17.08872453
_cell_length_b   20.92932773
_cell_length_c   29.59853913
_cell_angle_alpha   90.00000000
_cell_angle_beta   90.00000000
_cell_angle_gamma   90.00000000
_symmetry_Int_Tables_number   1
_chemical_formula_structural   NiGe3
_chemical_formula_sum   'Ni72 Ge216'
_cell_volume   10586.08079418
_cell_formula_units_Z   72
loop_
 _symmetry_equiv_pos_site_id
 _symmetry_equiv_pos_as_xyz
  1  'x, y, z'
loop_
 _atom_site_type_symbol
 _atom_site_label
 _atom_site_symmetry_multiplicity
 _atom_site_fract_x
 _atom_site_fract_y
 _atom_site_fract_z
 _atom_site_occupancy
  Ge  Ge0  1  0.00000000  0.12500000  0.95833333  1.0
  Ge  Ge1  1  0.00000000  0.45833333  0.95833333  1.0
  Ge  Ge2  1  0.00000000  0.79166667  0.95833333  1.0
  Ge  Ge3  1  0.33333333  0.12500000  0.95833333  1.0
  Ge  Ge4  1  0.33333333  0.45833333  0.95833333  1.0
  Ge  Ge5  1  0.33333333  0.79166667  0.95833333  1.0
  Ge  Ge6  1  0.66666667  0.12500000  0.95833333  1.0
  Ge  Ge7  1  0.66666667  0.45833333  0.95833333  1.0
  Ge  Ge8  1  0.66666667  0.79166667  0.95833333  1.0
  Ge  Ge9  1  0.16666667  0.23611111  0.90277778  1.0
  Ge  Ge10  1  0.16666667  0.56944444  0.90277778  1.0
  Ge  Ge11  1  0.16666667  0.90277778  0.90277778  1.0
  Ge  Ge12  1  0.50000000  0.23611111  0.90277778  1.0
  Ge  Ge13  1  0.50000000  0.56944444  0.90277778  1.0
  Ge  Ge14  1  0.50000000  0.90277778  0.90277778  1.0
  Ge  Ge15  1  0.83333333  0.23611111  0.90277778  1.0
  Ge  Ge16  1  0.83333333  0.56944444  0.90277778  1.0
  Ge  Ge17  1  0.83333333  0.90277778  0.90277778  1.0
  Ge  Ge18  1  0.08333333  0.01388889  0.93055556  1.0
  Ge  Ge19  1  0.08333333  0.34722222  0.93055556  1.0
  Ge  Ge20  1  0.08333333  0.68055556  0.93055556  1.0
  Ge  Ge21  1  0.41666667  0.01388889  0.93055556  1.0
  Ge  Ge22  1  0.41666667  0.34722222  0.93055556  1.0
  Ge  Ge23  1  0.41666667  0.68055556  0.93055556  1.0
  Ge  Ge24  1  0.75000000  0.01388889  0.93055556  1.0
  Ge  Ge25  1  0.75000000  0.34722222  0.93055556  1.0
  Ge  Ge26  1  0.75000000  0.68055556  0.93055556  1.0
  Ge  Ge27  1  0.25000000  0.23611111  0.98611111  1.0
  Ge  Ge28  1  0.25000000  0.56944444  0.98611111  1.0
  Ge  Ge29  1  0.25000000  0.90277778  0.98611111  1.0
  Ge  Ge30  1  0.58333333  0.23611111  0.98611111  1.0
  Ge  Ge31  1  0.58333333  0.56944444  0.98611111  1.0
  Ge  Ge32  1  0.58333333  0.90277778  0.98611111  1.0
  Ge  Ge33  1  0.91666667  0.23611111  0.98611111  1.0
  Ge  Ge34  1  0.91666667  0.56944444  0.98611111  1.0
  Ge  Ge35  1  0.91666667  0.90277778  0.98611111  1.0
  Ge  Ge36  1  0.25000000  0.01388889  0.93055556  1.0
  Ge  Ge37  1  0.25000000  0.34722222  0.93055556  1.0
  Ge  Ge38  1  0.25000000  0.68055556  0.93055556  1.0
  Ge  Ge39  1  0.58333333  0.01388889  0.93055556  1.0
  Ge  Ge40  1  0.58333333  0.34722222  0.93055556  1.0
  Ge  Ge41  1  0.58333333  0.68055556  0.93055556  1.0
  Ge  Ge42  1  0.91666667  0.01388889  0.93055556  1.0
  Ge  Ge43  1  0.91666667  0.34722222  0.93055556  1.0
  Ge  Ge44  1  0.91666667  0.68055556  0.93055556  1.0
  Ge  Ge45  1  0.08333333  0.23611111  0.98611111  1.0
  Ge  Ge46  1  0.08333333  0.56944444  0.98611111  1.0
  Ge  Ge47  1  0.08333333  0.90277778  0.98611111  1.0
  Ge  Ge48  1  0.41666667  0.23611111  0.98611111  1.0
  Ge  Ge49  1  0.41666667  0.56944444  0.98611111  1.0
  Ge  Ge50  1  0.41666667  0.90277778  0.98611111  1.0
  Ge  Ge51  1  0.75000000  0.23611111  0.98611111  1.0
  Ge  Ge52  1  0.75000000  0.56944444  0.98611111  1.0
  Ge  Ge53  1  0.75000000  0.90277778  0.98611111  1.0
  Ge  Ge54  1  0.00000000  0.01388889  0.84722222  1.0
  Ge  Ge55  1  0.00000000  0.34722222  0.84722222  1.0
  Ge  Ge56  1  0.00000000  0.68055556  0.84722222  1.0
  Ge  Ge57  1  0.33333333  0.01388889  0.84722222  1.0
  Ge  Ge58  1  0.33333333  0.34722222  0.84722222  1.0
  Ge  Ge59  1  0.33333333  0.68055556  0.84722222  1.0
  Ge  Ge60  1  0.66666667  0.01388889  0.84722222  1.0
  Ge  Ge61  1  0.66666667  0.34722222  0.84722222  1.0
  Ge  Ge62  1  0.66666667  0.68055556  0.84722222  1.0
  Ge  Ge63  1  0.16666667  0.12500000  0.79166667  1.0
  Ge  Ge64  1  0.16666667  0.45833333  0.79166667  1.0
  Ge  Ge65  1  0.16666667  0.79166667  0.79166667  1.0
  Ge  Ge66  1  0.50000000  0.12500000  0.79166667  1.0
  Ge  Ge67  1  0.50000000  0.45833333  0.79166667  1.0
  Ge  Ge68  1  0.50000000  0.79166667  0.79166667  1.0
  Ge  Ge69  1  0.83333333  0.12500000  0.79166667  1.0
  Ge  Ge70  1  0.83333333  0.45833333  0.79166667  1.0
  Ge  Ge71  1  0.83333333  0.79166667  0.79166667  1.0
  Ge  Ge72  1  0.08333333  0.23611111  0.81944444  1.0
  Ge  Ge73  1  0.08333333  0.56944444  0.81944444  1.0
  Ge  Ge74  1  0.08333333  0.90277778  0.81944444  1.0
  Ge  Ge75  1  0.41666667  0.23611111  0.81944444  1.0
  Ge  Ge76  1  0.41666667  0.56944444  0.81944444  1.0
  Ge  Ge77  1  0.41666667  0.90277778  0.81944444  1.0
  Ge  Ge78  1  0.75000000  0.23611111  0.81944444  1.0
  Ge  Ge79  1  0.75000000  0.56944444  0.81944444  1.0
  Ge  Ge80  1  0.75000000  0.90277778  0.81944444  1.0
  Ge  Ge81  1  0.25000000  0.12500000  0.87500000  1.0
  Ge  Ge82  1  0.25000000  0.45833333  0.87500000  1.0
  Ge  Ge83  1  0.25000000  0.79166667  0.87500000  1.0
  Ge  Ge84  1  0.58333333  0.12500000  0.87500000  1.0
  Ge  Ge85  1  0.58333333  0.45833333  0.87500000  1.0
  Ge  Ge86  1  0.58333333  0.79166667  0.87500000  1.0
  Ge  Ge87  1  0.91666667  0.12500000  0.87500000  1.0
  Ge  Ge88  1  0.91666667  0.45833333  0.87500000  1.0
  Ge  Ge89  1  0.91666667  0.79166667  0.87500000  1.0
  Ge  Ge90  1  0.25000000  0.23611111  0.81944444  1.0
  Ge  Ge91  1  0.25000000  0.56944444  0.81944444  1.0
  Ge  Ge92  1  0.25000000  0.90277778  0.81944444  1.0
  Ge  Ge93  1  0.58333333  0.23611111  0.81944444  1.0
  Ge  Ge94  1  0.58333333  0.56944444  0.81944444  1.0
  Ge  Ge95  1  0.58333333  0.90277778  0.81944444  1.0
  Ge  Ge96  1  0.91666667  0.23611111  0.81944444  1.0
  Ge  Ge97  1  0.91666667  0.56944444  0.81944444  1.0
  Ge  Ge98  1  0.91666667  0.90277778  0.81944444  1.0
  Ge  Ge99  1  0.08333333  0.12500000  0.87500000  1.0
  Ge  Ge100  1  0.08333333  0.45833333  0.87500000  1.0
  Ge  Ge101  1  0.08333333  0.79166667  0.87500000  1.0
  Ge  Ge102  1  0.41666667  0.12500000  0.87500000  1.0
  Ge  Ge103  1  0.41666667  0.45833333  0.87500000  1.0
  Ge  Ge104  1  0.41666667  0.79166667  0.87500000  1.0
  Ge  Ge105  1  0.75000000  0.12500000  0.87500000  1.0
  Ge  Ge106  1  0.75000000  0.45833333  0.87500000  1.0
  Ge  Ge107  1  0.75000000  0.79166667  0.87500000  1.0
  Ge  Ge108  1  0.00000000  0.23611111  0.73611111  1.0
  Ge  Ge109  1  0.00000000  0.56944444  0.73611111  1.0
  Ge  Ge110  1  0.00000000  0.90277778  0.73611111  1.0
  Ge  Ge111  1  0.33333333  0.23611111  0.73611111  1.0
  Ge  Ge112  1  0.33333333  0.56944444  0.73611111  1.0
  Ge  Ge113  1  0.33333333  0.90277778  0.73611111  1.0
  Ge  Ge114  1  0.66666667  0.23611111  0.73611111  1.0
  Ge  Ge115  1  0.66666667  0.56944444  0.73611111  1.0
  Ge  Ge116  1  0.66666667  0.90277778  0.73611111  1.0
  Ge  Ge117  1  0.16666667  0.01388889  0.68055556  1.0
  Ge  Ge118  1  0.16666667  0.34722222  0.68055556  1.0
  Ge  Ge119  1  0.16666667  0.68055556  0.68055556  1.0
  Ge  Ge120  1  0.50000000  0.01388889  0.68055556  1.0
  Ge  Ge121  1  0.50000000  0.34722222  0.68055556  1.0
  Ge  Ge122  1  0.50000000  0.68055556  0.68055556  1.0
  Ge  Ge123  1  0.83333333  0.01388889  0.68055556  1.0
  Ge  Ge124  1  0.83333333  0.34722222  0.68055556  1.0
  Ge  Ge125  1  0.83333333  0.68055556  0.68055556  1.0
  Ge  Ge126  1  0.08333333  0.12500000  0.70833333  1.0
  Ge  Ge127  1  0.08333333  0.45833333  0.70833333  1.0
  Ge  Ge128  1  0.08333333  0.79166667  0.70833333  1.0
  Ge  Ge129  1  0.41666667  0.12500000  0.70833333  1.0
  Ge  Ge130  1  0.41666667  0.45833333  0.70833333  1.0
  Ge  Ge131  1  0.41666667  0.79166667  0.70833333  1.0
  Ge  Ge132  1  0.75000000  0.12500000  0.70833333  1.0
  Ge  Ge133  1  0.75000000  0.45833333  0.70833333  1.0
  Ge  Ge134  1  0.75000000  0.79166667  0.70833333  1.0
  Ge  Ge135  1  0.25000000  0.01388889  0.76388889  1.0
  Ge  Ge136  1  0.25000000  0.34722222  0.76388889  1.0
  Ge  Ge137  1  0.25000000  0.68055556  0.76388889  1.0
  Ge  Ge138  1  0.58333333  0.01388889  0.76388889  1.0
  Ge  Ge139  1  0.58333333  0.34722222  0.76388889  1.0
  Ge  Ge140  1  0.58333333  0.68055556  0.76388889  1.0
  Ge  Ge141  1  0.91666667  0.01388889  0.76388889  1.0
  Ge  Ge142  1  0.91666667  0.34722222  0.76388889  1.0
  Ge  Ge143  1  0.91666667  0.68055556  0.76388889  1.0
  Ge  Ge144  1  0.25000000  0.12500000  0.70833333  1.0
  Ge  Ge145  1  0.25000000  0.45833333  0.70833333  1.0
  Ge  Ge146  1  0.25000000  0.79166667  0.70833333  1.0
  Ge  Ge147  1  0.58333333  0.12500000  0.70833333  1.0
  Ge  Ge148  1  0.58333333  0.45833333  0.70833333  1.0
  Ge  Ge149  1  0.58333333  0.79166667  0.70833333  1.0
  Ge  Ge150  1  0.91666667  0.12500000  0.70833333  1.0
  Ge  Ge151  1  0.91666667  0.45833333  0.70833333  1.0
  Ge  Ge152  1  0.91666667  0.79166667  0.70833333  1.0
  Ge  Ge153  1  0.08333333  0.01388889  0.76388889  1.0
  Ge  Ge154  1  0.08333333  0.34722222  0.76388889  1.0
  Ge  Ge155  1  0.08333333  0.68055556  0.76388889  1.0
  Ge  Ge156  1  0.41666667  0.01388889  0.76388889  1.0
  Ge  Ge157  1  0.41666667  0.34722222  0.76388889  1.0
  Ge  Ge158  1  0.41666667  0.68055556  0.76388889  1.0
  Ge  Ge159  1  0.75000000  0.01388889  0.76388889  1.0
  Ge  Ge160  1  0.75000000  0.34722222  0.76388889  1.0
  Ge  Ge161  1  0.75000000  0.68055556  0.76388889  1.0
  Ge  Ge162  1  0.00000000  0.12500000  0.62500000  1.0
  Ge  Ge163  1  0.00000000  0.45833333  0.62500000  1.0
  Ge  Ge164  1  0.00000000  0.79166667  0.62500000  1.0
  Ge  Ge165  1  0.33333333  0.12500000  0.62500000  1.0
  Ge  Ge166  1  0.33333333  0.45833333  0.62500000  1.0
  Ge  Ge167  1  0.33333333  0.79166667  0.62500000  1.0
  Ge  Ge168  1  0.66666667  0.12500000  0.62500000  1.0
  Ge  Ge169  1  0.66666667  0.45833333  0.62500000  1.0
  Ge  Ge170  1  0.66666667  0.79166667  0.62500000  1.0
  Ge  Ge171  1  0.16666667  0.23611111  0.56944444  1.0
  Ge  Ge172  1  0.16666667  0.56944444  0.56944444  1.0
  Ge  Ge173  1  0.16666667  0.90277778  0.56944444  1.0
  Ge  Ge174  1  0.50000000  0.23611111  0.56944444  1.0
  Ge  Ge175  1  0.50000000  0.56944444  0.56944444  1.0
  Ge  Ge176  1  0.50000000  0.90277778  0.56944444  1.0
  Ge  Ge177  1  0.83333333  0.23611111  0.56944444  1.0
  Ge  Ge178  1  0.83333333  0.56944444  0.56944444  1.0
  Ge  Ge179  1  0.83333333  0.90277778  0.56944444  1.0
  Ge  Ge180  1  0.08333333  0.01388889  0.59722222  1.0
  Ge  Ge181  1  0.08333333  0.34722222  0.59722222  1.0
  Ge  Ge182  1  0.08333333  0.68055556  0.59722222  1.0
  Ge  Ge183  1  0.41666667  0.01388889  0.59722222  1.0
  Ge  Ge184  1  0.41666667  0.34722222  0.59722222  1.0
  Ge  Ge185  1  0.41666667  0.68055556  0.59722222  1.0
  Ge  Ge186  1  0.75000000  0.01388889  0.59722222  1.0
  Ge  Ge187  1  0.75000000  0.34722222  0.59722222  1.0
  Ge  Ge188  1  0.75000000  0.68055556  0.59722222  1.0
  Ge  Ge189  1  0.25000000  0.23611111  0.65277778  1.0
  Ge  Ge190  1  0.25000000  0.56944444  0.65277778  1.0
  Ge  Ge191  1  0.25000000  0.90277778  0.65277778  1.0
  Ge  Ge192  1  0.58333333  0.23611111  0.65277778  1.0
  Ge  Ge193  1  0.58333333  0.56944444  0.65277778  1.0
  Ge  Ge194  1  0.58333333  0.90277778  0.65277778  1.0
  Ge  Ge195  1  0.91666667  0.23611111  0.65277778  1.0
  Ge  Ge196  1  0.91666667  0.56944444  0.65277778  1.0
  Ge  Ge197  1  0.91666667  0.90277778  0.65277778  1.0
  Ge  Ge198  1  0.25000000  0.01388889  0.59722222  1.0
  Ge  Ge199  1  0.25000000  0.34722222  0.59722222  1.0
  Ge  Ge200  1  0.25000000  0.68055556  0.59722222  1.0
  Ge  Ge201  1  0.58333333  0.01388889  0.59722222  1.0
  Ge  Ge202  1  0.58333333  0.34722222  0.59722222  1.0
  Ge  Ge203  1  0.58333333  0.68055556  0.59722222  1.0
  Ge  Ge204  1  0.91666667  0.01388889  0.59722222  1.0
  Ge  Ge205  1  0.91666667  0.34722222  0.59722222  1.0
  Ge  Ge206  1  0.91666667  0.68055556  0.59722222  1.0
  Ge  Ge207  1  0.08333333  0.23611111  0.65277778  1.0
  Ge  Ge208  1  0.08333333  0.56944444  0.65277778  1.0
  Ge  Ge209  1  0.08333333  0.90277778  0.65277778  1.0
  Ge  Ge210  1  0.41666667  0.23611111  0.65277778  1.0
  Ge  Ge211  1  0.41666667  0.56944444  0.65277778  1.0
  Ge  Ge212  1  0.41666667  0.90277778  0.65277778  1.0
  Ge  Ge213  1  0.75000000  0.23611111  0.65277778  1.0
  Ge  Ge214  1  0.75000000  0.56944444  0.65277778  1.0
  Ge  Ge215  1  0.75000000  0.90277778  0.65277778  1.0
  Ni  Ni216  1  0.33333333  0.23611111  0.90277778  1.0
  Ni  Ni217  1  0.33333333  0.56944444  0.90277778  1.0
  Ni  Ni218  1  0.33333333  0.90277778  0.90277778  1.0
  Ni  Ni219  1  0.66666667  0.23611111  0.90277778  1.0
  Ni  Ni220  1  0.66666667  0.56944444  0.90277778  1.0
  Ni  Ni221  1  0.66666667  0.90277778  0.90277778  1.0
  Ni  Ni222  1  0.00000000  0.23611111  0.90277778  1.0
  Ni  Ni223  1  1.00000000  0.56944444  0.90277778  1.0
  Ni  Ni224  1  1.00000000  0.90277778  0.90277778  1.0
  Ni  Ni225  1  0.16666667  0.12500000  0.95833333  1.0
  Ni  Ni226  1  0.16666667  0.45833333  0.95833333  1.0
  Ni  Ni227  1  0.16666667  0.79166667  0.95833333  1.0
  Ni  Ni228  1  0.50000000  0.12500000  0.95833333  1.0
  Ni  Ni229  1  0.50000000  0.45833333  0.95833333  1.0
  Ni  Ni230  1  0.50000000  0.79166667  0.95833333  1.0
  Ni  Ni231  1  0.83333333  0.12500000  0.95833333  1.0
  Ni  Ni232  1  0.83333333  0.45833333  0.95833333  1.0
  Ni  Ni233  1  0.83333333  0.79166667  0.95833333  1.0
  Ni  Ni234  1  0.33333333  0.12500000  0.79166667  1.0
  Ni  Ni235  1  0.33333333  0.45833333  0.79166667  1.0
  Ni  Ni236  1  0.33333333  0.79166667  0.79166667  1.0
  Ni  Ni237  1  0.66666667  0.12500000  0.79166667  1.0
  Ni  Ni238  1  0.66666667  0.45833333  0.79166667  1.0
  Ni  Ni239  1  0.66666667  0.79166667  0.79166667  1.0
  Ni  Ni240  1  0.00000000  0.12500000  0.79166667  1.0
  Ni  Ni241  1  1.00000000  0.45833333  0.79166667  1.0
  Ni  Ni242  1  1.00000000  0.79166667  0.79166667  1.0
  Ni  Ni243  1  0.16666667  0.01388889  0.84722222  1.0
  Ni  Ni244  1  0.16666667  0.34722222  0.84722222  1.0
  Ni  Ni245  1  0.16666667  0.68055556  0.84722222  1.0
  Ni  Ni246  1  0.50000000  0.01388889  0.84722222  1.0
  Ni  Ni247  1  0.50000000  0.34722222  0.84722222  1.0
  Ni  Ni248  1  0.50000000  0.68055556  0.84722222  1.0
  Ni  Ni249  1  0.83333333  0.01388889  0.84722222  1.0
  Ni  Ni250  1  0.83333333  0.34722222  0.84722222  1.0
  Ni  Ni251  1  0.83333333  0.68055556  0.84722222  1.0
  Ni  Ni252  1  0.33333333  0.01388889  0.68055556  1.0
  Ni  Ni253  1  0.33333333  0.34722222  0.68055556  1.0
  Ni  Ni254  1  0.33333333  0.68055556  0.68055556  1.0
  Ni  Ni255  1  0.66666667  0.01388889  0.68055556  1.0
  Ni  Ni256  1  0.66666667  0.34722222  0.68055556  1.0
  Ni  Ni257  1  0.66666667  0.68055556  0.68055556  1.0
  Ni  Ni258  1  0.00000000  0.01388889  0.68055556  1.0
  Ni  Ni259  1  1.00000000  0.34722222  0.68055556  1.0
  Ni  Ni260  1  1.00000000  0.68055556  0.68055556  1.0
  Ni  Ni261  1  0.16666667  0.23611111  0.73611111  1.0
  Ni  Ni262  1  0.16666667  0.56944444  0.73611111  1.0
  Ni  Ni263  1  0.16666667  0.90277778  0.73611111  1.0
  Ni  Ni264  1  0.50000000  0.23611111  0.73611111  1.0
  Ni  Ni265  1  0.50000000  0.56944444  0.73611111  1.0
  Ni  Ni266  1  0.50000000  0.90277778  0.73611111  1.0
  Ni  Ni267  1  0.83333333  0.23611111  0.73611111  1.0
  Ni  Ni268  1  0.83333333  0.56944444  0.73611111  1.0
  Ni  Ni269  1  0.83333333  0.90277778  0.73611111  1.0
  Ni  Ni270  1  0.33333333  0.23611111  0.56944444  1.0
  Ni  Ni271  1  0.33333333  0.56944444  0.56944444  1.0
  Ni  Ni272  1  0.33333333  0.90277778  0.56944444  1.0
  Ni  Ni273  1  0.66666667  0.23611111  0.56944444  1.0
  Ni  Ni274  1  0.66666667  0.56944444  0.56944444  1.0
  Ni  Ni275  1  0.66666667  0.90277778  0.56944444  1.0
  Ni  Ni276  1  0.00000000  0.23611111  0.56944444  1.0
  Ni  Ni277  1  1.00000000  0.56944444  0.56944444  1.0
  Ni  Ni278  1  1.00000000  0.90277778  0.56944444  1.0
  Ni  Ni279  1  0.16666667  0.12500000  0.62500000  1.0
  Ni  Ni280  1  0.16666667  0.45833333  0.62500000  1.0
  Ni  Ni281  1  0.16666667  0.79166667  0.62500000  1.0
  Ni  Ni282  1  0.50000000  0.12500000  0.62500000  1.0
  Ni  Ni283  1  0.50000000  0.45833333  0.62500000  1.0
  Ni  Ni284  1  0.50000000  0.79166667  0.62500000  1.0
  Ni  Ni285  1  0.83333333  0.12500000  0.62500000  1.0
  Ni  Ni286  1  0.83333333  0.45833333  0.62500000  1.0
  Ni  Ni287  1  0.83333333  0.79166667  0.62500000  1.0
