# generated using pymatgen
data_NiGe3
_symmetry_space_group_name_H-M   'P 1'
_cell_length_a   14.47101924
_cell_length_b   39.76184585
_cell_length_c   57.88407696
_cell_angle_alpha   145.88673221
_cell_angle_beta   74.04426326
_cell_angle_gamma   124.33523414
_symmetry_Int_Tables_number   1
_chemical_formula_structural   NiGe3
_chemical_formula_sum   'Ni90 Ge270'
_cell_volume   14034.94147790
_cell_formula_units_Z   90
loop_
 _symmetry_equiv_pos_site_id
 _symmetry_equiv_pos_as_xyz
  1  'x, y, z'
loop_
 _atom_site_type_symbol
 _atom_site_label
 _atom_site_symmetry_multiplicity
 _atom_site_fract_x
 _atom_site_fract_y
 _atom_site_fract_z
 _atom_site_occupancy
  Ni  Ni0  1  0.00000000  0.00000000  0.06250000  1.0
  Ni  Ni1  1  0.00000000  0.33333333  0.06250000  1.0
  Ni  Ni2  1  0.00000000  0.66666667  0.06250000  1.0
  Ni  Ni3  1  0.33333333  0.00000000  0.06250000  1.0
  Ni  Ni4  1  0.33333333  0.33333333  0.06250000  1.0
  Ni  Ni5  1  0.33333333  0.66666667  0.06250000  1.0
  Ni  Ni6  1  0.66666667  0.00000000  0.06250000  1.0
  Ni  Ni7  1  0.66666667  0.33333333  0.06250000  1.0
  Ni  Ni8  1  0.66666667  0.66666667  0.06250000  1.0
  Ni  Ni9  1  0.00000000  0.16666667  0.02083333  1.0
  Ni  Ni10  1  0.00000000  0.50000000  0.02083333  1.0
  Ni  Ni11  1  1.00000000  0.83333333  0.02083333  1.0
  Ni  Ni12  1  0.33333333  0.16666667  0.02083333  1.0
  Ni  Ni13  1  0.33333333  0.50000000  0.02083333  1.0
  Ni  Ni14  1  0.33333333  0.83333333  0.02083333  1.0
  Ni  Ni15  1  0.66666667  0.16666667  0.02083333  1.0
  Ni  Ni16  1  0.66666667  0.50000000  0.02083333  1.0
  Ni  Ni17  1  0.66666667  0.83333333  0.02083333  1.0
  Ge  Ge18  1  0.08333333  0.08333333  0.06250000  1.0
  Ge  Ge19  1  0.08333333  0.41666667  0.06250000  1.0
  Ge  Ge20  1  0.08333333  0.75000000  0.06250000  1.0
  Ge  Ge21  1  0.41666667  0.08333333  0.06250000  1.0
  Ge  Ge22  1  0.41666667  0.41666667  0.06250000  1.0
  Ge  Ge23  1  0.41666667  0.75000000  0.06250000  1.0
  Ge  Ge24  1  0.75000000  0.08333333  0.06250000  1.0
  Ge  Ge25  1  0.75000000  0.41666667  0.06250000  1.0
  Ge  Ge26  1  0.75000000  0.75000000  0.06250000  1.0
  Ge  Ge27  1  0.08333333  0.25000000  0.02083333  1.0
  Ge  Ge28  1  0.08333333  0.58333333  0.02083333  1.0
  Ge  Ge29  1  0.08333333  0.91666667  0.02083333  1.0
  Ge  Ge30  1  0.41666667  0.25000000  0.02083333  1.0
  Ge  Ge31  1  0.41666667  0.58333333  0.02083333  1.0
  Ge  Ge32  1  0.41666667  0.91666667  0.02083333  1.0
  Ge  Ge33  1  0.75000000  0.25000000  0.02083333  1.0
  Ge  Ge34  1  0.75000000  0.58333333  0.02083333  1.0
  Ge  Ge35  1  0.75000000  0.91666667  0.02083333  1.0
  Ge  Ge36  1  0.25000000  0.08333333  0.02083333  1.0
  Ge  Ge37  1  0.25000000  0.41666667  0.02083333  1.0
  Ge  Ge38  1  0.25000000  0.75000000  0.02083333  1.0
  Ge  Ge39  1  0.58333333  0.08333333  0.02083333  1.0
  Ge  Ge40  1  0.58333333  0.41666667  0.02083333  1.0
  Ge  Ge41  1  0.58333333  0.75000000  0.02083333  1.0
  Ge  Ge42  1  0.91666667  0.08333333  0.02083333  1.0
  Ge  Ge43  1  0.91666667  0.41666667  0.02083333  1.0
  Ge  Ge44  1  0.91666667  0.75000000  0.02083333  1.0
  Ge  Ge45  1  0.25000000  0.25000000  0.06250000  1.0
  Ge  Ge46  1  0.25000000  0.58333333  0.06250000  1.0
  Ge  Ge47  1  0.25000000  0.91666667  0.06250000  1.0
  Ge  Ge48  1  0.58333333  0.25000000  0.06250000  1.0
  Ge  Ge49  1  0.58333333  0.58333333  0.06250000  1.0
  Ge  Ge50  1  0.58333333  0.91666667  0.06250000  1.0
  Ge  Ge51  1  0.91666667  0.25000000  0.06250000  1.0
  Ge  Ge52  1  0.91666667  0.58333333  0.06250000  1.0
  Ge  Ge53  1  0.91666667  0.91666667  0.06250000  1.0
  Ge  Ge54  1  0.16666667  0.33333333  0.02083333  1.0
  Ge  Ge55  1  0.16666667  0.66666667  0.02083333  1.0
  Ge  Ge56  1  0.16666667  0.00000000  0.02083333  1.0
  Ge  Ge57  1  0.50000000  0.33333333  0.02083333  1.0
  Ge  Ge58  1  0.50000000  0.66666667  0.02083333  1.0
  Ge  Ge59  1  0.50000000  0.00000000  0.02083333  1.0
  Ge  Ge60  1  0.83333333  0.33333333  0.02083333  1.0
  Ge  Ge61  1  0.83333333  0.66666667  0.02083333  1.0
  Ge  Ge62  1  0.83333333  0.00000000  0.02083333  1.0
  Ge  Ge63  1  0.16666667  0.16666667  0.06250000  1.0
  Ge  Ge64  1  0.16666667  0.50000000  0.06250000  1.0
  Ge  Ge65  1  0.16666667  0.83333333  0.06250000  1.0
  Ge  Ge66  1  0.50000000  0.16666667  0.06250000  1.0
  Ge  Ge67  1  0.50000000  0.50000000  0.06250000  1.0
  Ge  Ge68  1  0.50000000  0.83333333  0.06250000  1.0
  Ge  Ge69  1  0.83333333  0.16666667  0.06250000  1.0
  Ge  Ge70  1  0.83333333  0.50000000  0.06250000  1.0
  Ge  Ge71  1  0.83333333  0.83333333  0.06250000  1.0
  Ni  Ni72  1  0.00000000  0.00000000  0.14583333  1.0
  Ni  Ni73  1  0.00000000  0.33333333  0.14583333  1.0
  Ni  Ni74  1  0.00000000  0.66666667  0.14583333  1.0
  Ni  Ni75  1  0.33333333  0.00000000  0.14583333  1.0
  Ni  Ni76  1  0.33333333  0.33333333  0.14583333  1.0
  Ni  Ni77  1  0.33333333  0.66666667  0.14583333  1.0
  Ni  Ni78  1  0.66666667  0.00000000  0.14583333  1.0
  Ni  Ni79  1  0.66666667  0.33333333  0.14583333  1.0
  Ni  Ni80  1  0.66666667  0.66666667  0.14583333  1.0
  Ni  Ni81  1  0.00000000  0.16666667  0.10416667  1.0
  Ni  Ni82  1  0.00000000  0.50000000  0.10416667  1.0
  Ni  Ni83  1  1.00000000  0.83333333  0.10416667  1.0
  Ni  Ni84  1  0.33333333  0.16666667  0.10416667  1.0
  Ni  Ni85  1  0.33333333  0.50000000  0.10416667  1.0
  Ni  Ni86  1  0.33333333  0.83333333  0.10416667  1.0
  Ni  Ni87  1  0.66666667  0.16666667  0.10416667  1.0
  Ni  Ni88  1  0.66666667  0.50000000  0.10416667  1.0
  Ni  Ni89  1  0.66666667  0.83333333  0.10416667  1.0
  Ge  Ge90  1  0.08333333  0.08333333  0.14583333  1.0
  Ge  Ge91  1  0.08333333  0.41666667  0.14583333  1.0
  Ge  Ge92  1  0.08333333  0.75000000  0.14583333  1.0
  Ge  Ge93  1  0.41666667  0.08333333  0.14583333  1.0
  Ge  Ge94  1  0.41666667  0.41666667  0.14583333  1.0
  Ge  Ge95  1  0.41666667  0.75000000  0.14583333  1.0
  Ge  Ge96  1  0.75000000  0.08333333  0.14583333  1.0
  Ge  Ge97  1  0.75000000  0.41666667  0.14583333  1.0
  Ge  Ge98  1  0.75000000  0.75000000  0.14583333  1.0
  Ge  Ge99  1  0.08333333  0.25000000  0.10416667  1.0
  Ge  Ge100  1  0.08333333  0.58333333  0.10416667  1.0
  Ge  Ge101  1  0.08333333  0.91666667  0.10416667  1.0
  Ge  Ge102  1  0.41666667  0.25000000  0.10416667  1.0
  Ge  Ge103  1  0.41666667  0.58333333  0.10416667  1.0
  Ge  Ge104  1  0.41666667  0.91666667  0.10416667  1.0
  Ge  Ge105  1  0.75000000  0.25000000  0.10416667  1.0
  Ge  Ge106  1  0.75000000  0.58333333  0.10416667  1.0
  Ge  Ge107  1  0.75000000  0.91666667  0.10416667  1.0
  Ge  Ge108  1  0.25000000  0.08333333  0.10416667  1.0
  Ge  Ge109  1  0.25000000  0.41666667  0.10416667  1.0
  Ge  Ge110  1  0.25000000  0.75000000  0.10416667  1.0
  Ge  Ge111  1  0.58333333  0.08333333  0.10416667  1.0
  Ge  Ge112  1  0.58333333  0.41666667  0.10416667  1.0
  Ge  Ge113  1  0.58333333  0.75000000  0.10416667  1.0
  Ge  Ge114  1  0.91666667  0.08333333  0.10416667  1.0
  Ge  Ge115  1  0.91666667  0.41666667  0.10416667  1.0
  Ge  Ge116  1  0.91666667  0.75000000  0.10416667  1.0
  Ge  Ge117  1  0.25000000  0.25000000  0.14583333  1.0
  Ge  Ge118  1  0.25000000  0.58333333  0.14583333  1.0
  Ge  Ge119  1  0.25000000  0.91666667  0.14583333  1.0
  Ge  Ge120  1  0.58333333  0.25000000  0.14583333  1.0
  Ge  Ge121  1  0.58333333  0.58333333  0.14583333  1.0
  Ge  Ge122  1  0.58333333  0.91666667  0.14583333  1.0
  Ge  Ge123  1  0.91666667  0.25000000  0.14583333  1.0
  Ge  Ge124  1  0.91666667  0.58333333  0.14583333  1.0
  Ge  Ge125  1  0.91666667  0.91666667  0.14583333  1.0
  Ge  Ge126  1  0.16666667  0.33333333  0.10416667  1.0
  Ge  Ge127  1  0.16666667  0.66666667  0.10416667  1.0
  Ge  Ge128  1  0.16666667  0.00000000  0.10416667  1.0
  Ge  Ge129  1  0.50000000  0.33333333  0.10416667  1.0
  Ge  Ge130  1  0.50000000  0.66666667  0.10416667  1.0
  Ge  Ge131  1  0.50000000  0.00000000  0.10416667  1.0
  Ge  Ge132  1  0.83333333  0.33333333  0.10416667  1.0
  Ge  Ge133  1  0.83333333  0.66666667  0.10416667  1.0
  Ge  Ge134  1  0.83333333  0.00000000  0.10416667  1.0
  Ge  Ge135  1  0.16666667  0.16666667  0.14583333  1.0
  Ge  Ge136  1  0.16666667  0.50000000  0.14583333  1.0
  Ge  Ge137  1  0.16666667  0.83333333  0.14583333  1.0
  Ge  Ge138  1  0.50000000  0.16666667  0.14583333  1.0
  Ge  Ge139  1  0.50000000  0.50000000  0.14583333  1.0
  Ge  Ge140  1  0.50000000  0.83333333  0.14583333  1.0
  Ge  Ge141  1  0.83333333  0.16666667  0.14583333  1.0
  Ge  Ge142  1  0.83333333  0.50000000  0.14583333  1.0
  Ge  Ge143  1  0.83333333  0.83333333  0.14583333  1.0
  Ni  Ni144  1  0.00000000  0.00000000  0.22916667  1.0
  Ni  Ni145  1  0.00000000  0.33333333  0.22916667  1.0
  Ni  Ni146  1  0.00000000  0.66666667  0.22916667  1.0
  Ni  Ni147  1  0.33333333  0.00000000  0.22916667  1.0
  Ni  Ni148  1  0.33333333  0.33333333  0.22916667  1.0
  Ni  Ni149  1  0.33333333  0.66666667  0.22916667  1.0
  Ni  Ni150  1  0.66666667  0.00000000  0.22916667  1.0
  Ni  Ni151  1  0.66666667  0.33333333  0.22916667  1.0
  Ni  Ni152  1  0.66666667  0.66666667  0.22916667  1.0
  Ni  Ni153  1  0.00000000  0.16666667  0.18750000  1.0
  Ni  Ni154  1  0.00000000  0.50000000  0.18750000  1.0
  Ni  Ni155  1  1.00000000  0.83333333  0.18750000  1.0
  Ni  Ni156  1  0.33333333  0.16666667  0.18750000  1.0
  Ni  Ni157  1  0.33333333  0.50000000  0.18750000  1.0
  Ni  Ni158  1  0.33333333  0.83333333  0.18750000  1.0
  Ni  Ni159  1  0.66666667  0.16666667  0.18750000  1.0
  Ni  Ni160  1  0.66666667  0.50000000  0.18750000  1.0
  Ni  Ni161  1  0.66666667  0.83333333  0.18750000  1.0
  Ge  Ge162  1  0.08333333  0.08333333  0.22916667  1.0
  Ge  Ge163  1  0.08333333  0.41666667  0.22916667  1.0
  Ge  Ge164  1  0.08333333  0.75000000  0.22916667  1.0
  Ge  Ge165  1  0.41666667  0.08333333  0.22916667  1.0
  Ge  Ge166  1  0.41666667  0.41666667  0.22916667  1.0
  Ge  Ge167  1  0.41666667  0.75000000  0.22916667  1.0
  Ge  Ge168  1  0.75000000  0.08333333  0.22916667  1.0
  Ge  Ge169  1  0.75000000  0.41666667  0.22916667  1.0
  Ge  Ge170  1  0.75000000  0.75000000  0.22916667  1.0
  Ge  Ge171  1  0.08333333  0.25000000  0.18750000  1.0
  Ge  Ge172  1  0.08333333  0.58333333  0.18750000  1.0
  Ge  Ge173  1  0.08333333  0.91666667  0.18750000  1.0
  Ge  Ge174  1  0.41666667  0.25000000  0.18750000  1.0
  Ge  Ge175  1  0.41666667  0.58333333  0.18750000  1.0
  Ge  Ge176  1  0.41666667  0.91666667  0.18750000  1.0
  Ge  Ge177  1  0.75000000  0.25000000  0.18750000  1.0
  Ge  Ge178  1  0.75000000  0.58333333  0.18750000  1.0
  Ge  Ge179  1  0.75000000  0.91666667  0.18750000  1.0
  Ge  Ge180  1  0.25000000  0.08333333  0.18750000  1.0
  Ge  Ge181  1  0.25000000  0.41666667  0.18750000  1.0
  Ge  Ge182  1  0.25000000  0.75000000  0.18750000  1.0
  Ge  Ge183  1  0.58333333  0.08333333  0.18750000  1.0
  Ge  Ge184  1  0.58333333  0.41666667  0.18750000  1.0
  Ge  Ge185  1  0.58333333  0.75000000  0.18750000  1.0
  Ge  Ge186  1  0.91666667  0.08333333  0.18750000  1.0
  Ge  Ge187  1  0.91666667  0.41666667  0.18750000  1.0
  Ge  Ge188  1  0.91666667  0.75000000  0.18750000  1.0
  Ge  Ge189  1  0.25000000  0.25000000  0.22916667  1.0
  Ge  Ge190  1  0.25000000  0.58333333  0.22916667  1.0
  Ge  Ge191  1  0.25000000  0.91666667  0.22916667  1.0
  Ge  Ge192  1  0.58333333  0.25000000  0.22916667  1.0
  Ge  Ge193  1  0.58333333  0.58333333  0.22916667  1.0
  Ge  Ge194  1  0.58333333  0.91666667  0.22916667  1.0
  Ge  Ge195  1  0.91666667  0.25000000  0.22916667  1.0
  Ge  Ge196  1  0.91666667  0.58333333  0.22916667  1.0
  Ge  Ge197  1  0.91666667  0.91666667  0.22916667  1.0
  Ge  Ge198  1  0.16666667  0.33333333  0.18750000  1.0
  Ge  Ge199  1  0.16666667  0.66666667  0.18750000  1.0
  Ge  Ge200  1  0.16666667  0.00000000  0.18750000  1.0
  Ge  Ge201  1  0.50000000  0.33333333  0.18750000  1.0
  Ge  Ge202  1  0.50000000  0.66666667  0.18750000  1.0
  Ge  Ge203  1  0.50000000  0.00000000  0.18750000  1.0
  Ge  Ge204  1  0.83333333  0.33333333  0.18750000  1.0
  Ge  Ge205  1  0.83333333  0.66666667  0.18750000  1.0
  Ge  Ge206  1  0.83333333  0.00000000  0.18750000  1.0
  Ge  Ge207  1  0.16666667  0.16666667  0.22916667  1.0
  Ge  Ge208  1  0.16666667  0.50000000  0.22916667  1.0
  Ge  Ge209  1  0.16666667  0.83333333  0.22916667  1.0
  Ge  Ge210  1  0.50000000  0.16666667  0.22916667  1.0
  Ge  Ge211  1  0.50000000  0.50000000  0.22916667  1.0
  Ge  Ge212  1  0.50000000  0.83333333  0.22916667  1.0
  Ge  Ge213  1  0.83333333  0.16666667  0.22916667  1.0
  Ge  Ge214  1  0.83333333  0.50000000  0.22916667  1.0
  Ge  Ge215  1  0.83333333  0.83333333  0.22916667  1.0
  Ni  Ni216  1  0.00000000  0.00000000  0.31250000  1.0
  Ni  Ni217  1  0.00000000  0.33333333  0.31250000  1.0
  Ni  Ni218  1  0.00000000  0.66666667  0.31250000  1.0
  Ni  Ni219  1  0.33333333  0.00000000  0.31250000  1.0
  Ni  Ni220  1  0.33333333  0.33333333  0.31250000  1.0
  Ni  Ni221  1  0.33333333  0.66666667  0.31250000  1.0
  Ni  Ni222  1  0.66666667  0.00000000  0.31250000  1.0
  Ni  Ni223  1  0.66666667  0.33333333  0.31250000  1.0
  Ni  Ni224  1  0.66666667  0.66666667  0.31250000  1.0
  Ni  Ni225  1  0.00000000  0.16666667  0.27083333  1.0
  Ni  Ni226  1  0.00000000  0.50000000  0.27083333  1.0
  Ni  Ni227  1  1.00000000  0.83333333  0.27083333  1.0
  Ni  Ni228  1  0.33333333  0.16666667  0.27083333  1.0
  Ni  Ni229  1  0.33333333  0.50000000  0.27083333  1.0
  Ni  Ni230  1  0.33333333  0.83333333  0.27083333  1.0
  Ni  Ni231  1  0.66666667  0.16666667  0.27083333  1.0
  Ni  Ni232  1  0.66666667  0.50000000  0.27083333  1.0
  Ni  Ni233  1  0.66666667  0.83333333  0.27083333  1.0
  Ge  Ge234  1  0.08333333  0.08333333  0.31250000  1.0
  Ge  Ge235  1  0.08333333  0.41666667  0.31250000  1.0
  Ge  Ge236  1  0.08333333  0.75000000  0.31250000  1.0
  Ge  Ge237  1  0.41666667  0.08333333  0.31250000  1.0
  Ge  Ge238  1  0.41666667  0.41666667  0.31250000  1.0
  Ge  Ge239  1  0.41666667  0.75000000  0.31250000  1.0
  Ge  Ge240  1  0.75000000  0.08333333  0.31250000  1.0
  Ge  Ge241  1  0.75000000  0.41666667  0.31250000  1.0
  Ge  Ge242  1  0.75000000  0.75000000  0.31250000  1.0
  Ge  Ge243  1  0.08333333  0.25000000  0.27083333  1.0
  Ge  Ge244  1  0.08333333  0.58333333  0.27083333  1.0
  Ge  Ge245  1  0.08333333  0.91666667  0.27083333  1.0
  Ge  Ge246  1  0.41666667  0.25000000  0.27083333  1.0
  Ge  Ge247  1  0.41666667  0.58333333  0.27083333  1.0
  Ge  Ge248  1  0.41666667  0.91666667  0.27083333  1.0
  Ge  Ge249  1  0.75000000  0.25000000  0.27083333  1.0
  Ge  Ge250  1  0.75000000  0.58333333  0.27083333  1.0
  Ge  Ge251  1  0.75000000  0.91666667  0.27083333  1.0
  Ge  Ge252  1  0.25000000  0.08333333  0.27083333  1.0
  Ge  Ge253  1  0.25000000  0.41666667  0.27083333  1.0
  Ge  Ge254  1  0.25000000  0.75000000  0.27083333  1.0
  Ge  Ge255  1  0.58333333  0.08333333  0.27083333  1.0
  Ge  Ge256  1  0.58333333  0.41666667  0.27083333  1.0
  Ge  Ge257  1  0.58333333  0.75000000  0.27083333  1.0
  Ge  Ge258  1  0.91666667  0.08333333  0.27083333  1.0
  Ge  Ge259  1  0.91666667  0.41666667  0.27083333  1.0
  Ge  Ge260  1  0.91666667  0.75000000  0.27083333  1.0
  Ge  Ge261  1  0.25000000  0.25000000  0.31250000  1.0
  Ge  Ge262  1  0.25000000  0.58333333  0.31250000  1.0
  Ge  Ge263  1  0.25000000  0.91666667  0.31250000  1.0
  Ge  Ge264  1  0.58333333  0.25000000  0.31250000  1.0
  Ge  Ge265  1  0.58333333  0.58333333  0.31250000  1.0
  Ge  Ge266  1  0.58333333  0.91666667  0.31250000  1.0
  Ge  Ge267  1  0.91666667  0.25000000  0.31250000  1.0
  Ge  Ge268  1  0.91666667  0.58333333  0.31250000  1.0
  Ge  Ge269  1  0.91666667  0.91666667  0.31250000  1.0
  Ge  Ge270  1  0.16666667  0.33333333  0.27083333  1.0
  Ge  Ge271  1  0.16666667  0.66666667  0.27083333  1.0
  Ge  Ge272  1  0.16666667  0.00000000  0.27083333  1.0
  Ge  Ge273  1  0.50000000  0.33333333  0.27083333  1.0
  Ge  Ge274  1  0.50000000  0.66666667  0.27083333  1.0
  Ge  Ge275  1  0.50000000  0.00000000  0.27083333  1.0
  Ge  Ge276  1  0.83333333  0.33333333  0.27083333  1.0
  Ge  Ge277  1  0.83333333  0.66666667  0.27083333  1.0
  Ge  Ge278  1  0.83333333  0.00000000  0.27083333  1.0
  Ge  Ge279  1  0.16666667  0.16666667  0.31250000  1.0
  Ge  Ge280  1  0.16666667  0.50000000  0.31250000  1.0
  Ge  Ge281  1  0.16666667  0.83333333  0.31250000  1.0
  Ge  Ge282  1  0.50000000  0.16666667  0.31250000  1.0
  Ge  Ge283  1  0.50000000  0.50000000  0.31250000  1.0
  Ge  Ge284  1  0.50000000  0.83333333  0.31250000  1.0
  Ge  Ge285  1  0.83333333  0.16666667  0.31250000  1.0
  Ge  Ge286  1  0.83333333  0.50000000  0.31250000  1.0
  Ge  Ge287  1  0.83333333  0.83333333  0.31250000  1.0
  Ni  Ni288  1  0.00000000  0.00000000  0.39583333  1.0
  Ni  Ni289  1  0.00000000  0.33333333  0.39583333  1.0
  Ni  Ni290  1  0.00000000  0.66666667  0.39583333  1.0
  Ni  Ni291  1  0.33333333  0.00000000  0.39583333  1.0
  Ni  Ni292  1  0.33333333  0.33333333  0.39583333  1.0
  Ni  Ni293  1  0.33333333  0.66666667  0.39583333  1.0
  Ni  Ni294  1  0.66666667  0.00000000  0.39583333  1.0
  Ni  Ni295  1  0.66666667  0.33333333  0.39583333  1.0
  Ni  Ni296  1  0.66666667  0.66666667  0.39583333  1.0
  Ni  Ni297  1  0.00000000  0.16666667  0.35416667  1.0
  Ni  Ni298  1  0.00000000  0.50000000  0.35416667  1.0
  Ni  Ni299  1  1.00000000  0.83333333  0.35416667  1.0
  Ni  Ni300  1  0.33333333  0.16666667  0.35416667  1.0
  Ni  Ni301  1  0.33333333  0.50000000  0.35416667  1.0
  Ni  Ni302  1  0.33333333  0.83333333  0.35416667  1.0
  Ni  Ni303  1  0.66666667  0.16666667  0.35416667  1.0
  Ni  Ni304  1  0.66666667  0.50000000  0.35416667  1.0
  Ni  Ni305  1  0.66666667  0.83333333  0.35416667  1.0
  Ge  Ge306  1  0.08333333  0.08333333  0.39583333  1.0
  Ge  Ge307  1  0.08333333  0.41666667  0.39583333  1.0
  Ge  Ge308  1  0.08333333  0.75000000  0.39583333  1.0
  Ge  Ge309  1  0.41666667  0.08333333  0.39583333  1.0
  Ge  Ge310  1  0.41666667  0.41666667  0.39583333  1.0
  Ge  Ge311  1  0.41666667  0.75000000  0.39583333  1.0
  Ge  Ge312  1  0.75000000  0.08333333  0.39583333  1.0
  Ge  Ge313  1  0.75000000  0.41666667  0.39583333  1.0
  Ge  Ge314  1  0.75000000  0.75000000  0.39583333  1.0
  Ge  Ge315  1  0.08333333  0.25000000  0.35416667  1.0
  Ge  Ge316  1  0.08333333  0.58333333  0.35416667  1.0
  Ge  Ge317  1  0.08333333  0.91666667  0.35416667  1.0
  Ge  Ge318  1  0.41666667  0.25000000  0.35416667  1.0
  Ge  Ge319  1  0.41666667  0.58333333  0.35416667  1.0
  Ge  Ge320  1  0.41666667  0.91666667  0.35416667  1.0
  Ge  Ge321  1  0.75000000  0.25000000  0.35416667  1.0
  Ge  Ge322  1  0.75000000  0.58333333  0.35416667  1.0
  Ge  Ge323  1  0.75000000  0.91666667  0.35416667  1.0
  Ge  Ge324  1  0.25000000  0.08333333  0.35416667  1.0
  Ge  Ge325  1  0.25000000  0.41666667  0.35416667  1.0
  Ge  Ge326  1  0.25000000  0.75000000  0.35416667  1.0
  Ge  Ge327  1  0.58333333  0.08333333  0.35416667  1.0
  Ge  Ge328  1  0.58333333  0.41666667  0.35416667  1.0
  Ge  Ge329  1  0.58333333  0.75000000  0.35416667  1.0
  Ge  Ge330  1  0.91666667  0.08333333  0.35416667  1.0
  Ge  Ge331  1  0.91666667  0.41666667  0.35416667  1.0
  Ge  Ge332  1  0.91666667  0.75000000  0.35416667  1.0
  Ge  Ge333  1  0.25000000  0.25000000  0.39583333  1.0
  Ge  Ge334  1  0.25000000  0.58333333  0.39583333  1.0
  Ge  Ge335  1  0.25000000  0.91666667  0.39583333  1.0
  Ge  Ge336  1  0.58333333  0.25000000  0.39583333  1.0
  Ge  Ge337  1  0.58333333  0.58333333  0.39583333  1.0
  Ge  Ge338  1  0.58333333  0.91666667  0.39583333  1.0
  Ge  Ge339  1  0.91666667  0.25000000  0.39583333  1.0
  Ge  Ge340  1  0.91666667  0.58333333  0.39583333  1.0
  Ge  Ge341  1  0.91666667  0.91666667  0.39583333  1.0
  Ge  Ge342  1  0.16666667  0.33333333  0.35416667  1.0
  Ge  Ge343  1  0.16666667  0.66666667  0.35416667  1.0
  Ge  Ge344  1  0.16666667  0.00000000  0.35416667  1.0
  Ge  Ge345  1  0.50000000  0.33333333  0.35416667  1.0
  Ge  Ge346  1  0.50000000  0.66666667  0.35416667  1.0
  Ge  Ge347  1  0.50000000  0.00000000  0.35416667  1.0
  Ge  Ge348  1  0.83333333  0.33333333  0.35416667  1.0
  Ge  Ge349  1  0.83333333  0.66666667  0.35416667  1.0
  Ge  Ge350  1  0.83333333  0.00000000  0.35416667  1.0
  Ge  Ge351  1  0.16666667  0.16666667  0.39583333  1.0
  Ge  Ge352  1  0.16666667  0.50000000  0.39583333  1.0
  Ge  Ge353  1  0.16666667  0.83333333  0.39583333  1.0
  Ge  Ge354  1  0.50000000  0.16666667  0.39583333  1.0
  Ge  Ge355  1  0.50000000  0.50000000  0.39583333  1.0
  Ge  Ge356  1  0.50000000  0.83333333  0.39583333  1.0
  Ge  Ge357  1  0.83333333  0.16666667  0.39583333  1.0
  Ge  Ge358  1  0.83333333  0.50000000  0.39583333  1.0
  Ge  Ge359  1  0.83333333  0.83333333  0.39583333  1.0
