# generated using pymatgen
data_NiGe
_symmetry_space_group_name_H-M   'P 1'
_cell_length_a   10.49056800
_cell_length_b   23.74992290
_cell_length_c   37.59793100
_cell_angle_alpha   132.72350530
_cell_angle_beta   90.00000000
_cell_angle_gamma   90.00000000
_symmetry_Int_Tables_number   1
_chemical_formula_structural   NiGe
_chemical_formula_sum   'Ni108 Ge108'
_cell_volume   6881.72875276
_cell_formula_units_Z   108
loop_
 _symmetry_equiv_pos_site_id
 _symmetry_equiv_pos_as_xyz
  1  'x, y, z'
loop_
 _atom_site_type_symbol
 _atom_site_label
 _atom_site_symmetry_multiplicity
 _atom_site_fract_x
 _atom_site_fract_y
 _atom_site_fract_z
 _atom_site_occupancy
  Ni  Ni0  1  0.25000000  0.23000033  0.12470043  1.0
  Ni  Ni1  1  0.25000000  0.56333367  0.12470043  1.0
  Ni  Ni2  1  0.25000000  0.89666700  0.12470043  1.0
  Ni  Ni3  1  0.58333333  0.23000033  0.12470043  1.0
  Ni  Ni4  1  0.58333333  0.56333367  0.12470043  1.0
  Ni  Ni5  1  0.58333333  0.89666700  0.12470043  1.0
  Ni  Ni6  1  0.91666667  0.23000033  0.12470043  1.0
  Ni  Ni7  1  0.91666667  0.56333367  0.12470043  1.0
  Ni  Ni8  1  0.91666667  0.89666700  0.12470043  1.0
  Ni  Ni9  1  0.08333333  0.10333300  0.07226929  1.0
  Ni  Ni10  1  0.08333333  0.43666633  0.07226929  1.0
  Ni  Ni11  1  0.08333333  0.76999967  0.07226929  1.0
  Ni  Ni12  1  0.41666667  0.10333300  0.07226929  1.0
  Ni  Ni13  1  0.41666667  0.43666633  0.07226929  1.0
  Ni  Ni14  1  0.41666667  0.76999967  0.07226929  1.0
  Ni  Ni15  1  0.75000000  0.10333300  0.07226929  1.0
  Ni  Ni16  1  0.75000000  0.43666633  0.07226929  1.0
  Ni  Ni17  1  0.75000000  0.76999967  0.07226929  1.0
  Ni  Ni18  1  0.25000000  0.26999967  0.07041443  1.0
  Ni  Ni19  1  0.25000000  0.60333300  0.07041443  1.0
  Ni  Ni20  1  0.25000000  0.93666633  0.07041443  1.0
  Ni  Ni21  1  0.58333333  0.26999967  0.07041443  1.0
  Ni  Ni22  1  0.58333333  0.60333300  0.07041443  1.0
  Ni  Ni23  1  0.58333333  0.93666633  0.07041443  1.0
  Ni  Ni24  1  0.91666667  0.26999967  0.07041443  1.0
  Ni  Ni25  1  0.91666667  0.60333300  0.07041443  1.0
  Ni  Ni26  1  0.91666667  0.93666633  0.07041443  1.0
  Ni  Ni27  1  0.08333333  0.06333367  0.12655529  1.0
  Ni  Ni28  1  0.08333333  0.39666700  0.12655529  1.0
  Ni  Ni29  1  0.08333333  0.73000033  0.12655529  1.0
  Ni  Ni30  1  0.41666667  0.06333367  0.12655529  1.0
  Ni  Ni31  1  0.41666667  0.39666700  0.12655529  1.0
  Ni  Ni32  1  0.41666667  0.73000033  0.12655529  1.0
  Ni  Ni33  1  0.75000000  0.06333367  0.12655529  1.0
  Ni  Ni34  1  0.75000000  0.39666700  0.12655529  1.0
  Ni  Ni35  1  0.75000000  0.73000033  0.12655529  1.0
  Ge  Ge36  1  0.25000000  0.02960733  0.01268886  1.0
  Ge  Ge37  1  0.25000000  0.36294067  0.01268886  1.0
  Ge  Ge38  1  0.25000000  0.69627400  0.01268886  1.0
  Ge  Ge39  1  0.58333333  0.02960733  0.01268886  1.0
  Ge  Ge40  1  0.58333333  0.36294067  0.01268886  1.0
  Ge  Ge41  1  0.58333333  0.69627400  0.01268886  1.0
  Ge  Ge42  1  0.91666667  0.02960733  0.01268886  1.0
  Ge  Ge43  1  0.91666667  0.36294067  0.01268886  1.0
  Ge  Ge44  1  0.91666667  0.69627400  0.01268886  1.0
  Ge  Ge45  1  0.08333333  0.30372600  0.04142371  1.0
  Ge  Ge46  1  0.08333333  0.63705933  0.04142371  1.0
  Ge  Ge47  1  0.08333333  0.97039267  0.04142371  1.0
  Ge  Ge48  1  0.41666667  0.30372600  0.04142371  1.0
  Ge  Ge49  1  0.41666667  0.63705933  0.04142371  1.0
  Ge  Ge50  1  0.41666667  0.97039267  0.04142371  1.0
  Ge  Ge51  1  0.75000000  0.30372600  0.04142371  1.0
  Ge  Ge52  1  0.75000000  0.63705933  0.04142371  1.0
  Ge  Ge53  1  0.75000000  0.97039267  0.04142371  1.0
  Ge  Ge54  1  0.25000000  0.13705933  0.13016829  1.0
  Ge  Ge55  1  0.25000000  0.47039267  0.13016829  1.0
  Ge  Ge56  1  0.25000000  0.80372600  0.13016829  1.0
  Ge  Ge57  1  0.58333333  0.13705933  0.13016829  1.0
  Ge  Ge58  1  0.58333333  0.47039267  0.13016829  1.0
  Ge  Ge59  1  0.58333333  0.80372600  0.13016829  1.0
  Ge  Ge60  1  0.91666667  0.13705933  0.13016829  1.0
  Ge  Ge61  1  0.91666667  0.47039267  0.13016829  1.0
  Ge  Ge62  1  0.91666667  0.80372600  0.13016829  1.0
  Ge  Ge63  1  0.08333333  0.19627400  0.06680143  1.0
  Ge  Ge64  1  0.08333333  0.52960733  0.06680143  1.0
  Ge  Ge65  1  0.08333333  0.86294067  0.06680143  1.0
  Ge  Ge66  1  0.41666667  0.19627400  0.06680143  1.0
  Ge  Ge67  1  0.41666667  0.52960733  0.06680143  1.0
  Ge  Ge68  1  0.41666667  0.86294067  0.06680143  1.0
  Ge  Ge69  1  0.75000000  0.19627400  0.06680143  1.0
  Ge  Ge70  1  0.75000000  0.52960733  0.06680143  1.0
  Ge  Ge71  1  0.75000000  0.86294067  0.06680143  1.0
  Ni  Ni72  1  0.25000000  0.23000033  0.26755757  1.0
  Ni  Ni73  1  0.25000000  0.56333367  0.26755757  1.0
  Ni  Ni74  1  0.25000000  0.89666700  0.26755757  1.0
  Ni  Ni75  1  0.58333333  0.23000033  0.26755757  1.0
  Ni  Ni76  1  0.58333333  0.56333367  0.26755757  1.0
  Ni  Ni77  1  0.58333333  0.89666700  0.26755757  1.0
  Ni  Ni78  1  0.91666667  0.23000033  0.26755757  1.0
  Ni  Ni79  1  0.91666667  0.56333367  0.26755757  1.0
  Ni  Ni80  1  0.91666667  0.89666700  0.26755757  1.0
  Ni  Ni81  1  0.08333333  0.10333300  0.21512643  1.0
  Ni  Ni82  1  0.08333333  0.43666633  0.21512643  1.0
  Ni  Ni83  1  0.08333333  0.76999967  0.21512643  1.0
  Ni  Ni84  1  0.41666667  0.10333300  0.21512643  1.0
  Ni  Ni85  1  0.41666667  0.43666633  0.21512643  1.0
  Ni  Ni86  1  0.41666667  0.76999967  0.21512643  1.0
  Ni  Ni87  1  0.75000000  0.10333300  0.21512643  1.0
  Ni  Ni88  1  0.75000000  0.43666633  0.21512643  1.0
  Ni  Ni89  1  0.75000000  0.76999967  0.21512643  1.0
  Ni  Ni90  1  0.25000000  0.26999967  0.21327157  1.0
  Ni  Ni91  1  0.25000000  0.60333300  0.21327157  1.0
  Ni  Ni92  1  0.25000000  0.93666633  0.21327157  1.0
  Ni  Ni93  1  0.58333333  0.26999967  0.21327157  1.0
  Ni  Ni94  1  0.58333333  0.60333300  0.21327157  1.0
  Ni  Ni95  1  0.58333333  0.93666633  0.21327157  1.0
  Ni  Ni96  1  0.91666667  0.26999967  0.21327157  1.0
  Ni  Ni97  1  0.91666667  0.60333300  0.21327157  1.0
  Ni  Ni98  1  0.91666667  0.93666633  0.21327157  1.0
  Ni  Ni99  1  0.08333333  0.06333367  0.26941243  1.0
  Ni  Ni100  1  0.08333333  0.39666700  0.26941243  1.0
  Ni  Ni101  1  0.08333333  0.73000033  0.26941243  1.0
  Ni  Ni102  1  0.41666667  0.06333367  0.26941243  1.0
  Ni  Ni103  1  0.41666667  0.39666700  0.26941243  1.0
  Ni  Ni104  1  0.41666667  0.73000033  0.26941243  1.0
  Ni  Ni105  1  0.75000000  0.06333367  0.26941243  1.0
  Ni  Ni106  1  0.75000000  0.39666700  0.26941243  1.0
  Ni  Ni107  1  0.75000000  0.73000033  0.26941243  1.0
  Ge  Ge108  1  0.25000000  0.02960733  0.15554600  1.0
  Ge  Ge109  1  0.25000000  0.36294067  0.15554600  1.0
  Ge  Ge110  1  0.25000000  0.69627400  0.15554600  1.0
  Ge  Ge111  1  0.58333333  0.02960733  0.15554600  1.0
  Ge  Ge112  1  0.58333333  0.36294067  0.15554600  1.0
  Ge  Ge113  1  0.58333333  0.69627400  0.15554600  1.0
  Ge  Ge114  1  0.91666667  0.02960733  0.15554600  1.0
  Ge  Ge115  1  0.91666667  0.36294067  0.15554600  1.0
  Ge  Ge116  1  0.91666667  0.69627400  0.15554600  1.0
  Ge  Ge117  1  0.08333333  0.30372600  0.18428086  1.0
  Ge  Ge118  1  0.08333333  0.63705933  0.18428086  1.0
  Ge  Ge119  1  0.08333333  0.97039267  0.18428086  1.0
  Ge  Ge120  1  0.41666667  0.30372600  0.18428086  1.0
  Ge  Ge121  1  0.41666667  0.63705933  0.18428086  1.0
  Ge  Ge122  1  0.41666667  0.97039267  0.18428086  1.0
  Ge  Ge123  1  0.75000000  0.30372600  0.18428086  1.0
  Ge  Ge124  1  0.75000000  0.63705933  0.18428086  1.0
  Ge  Ge125  1  0.75000000  0.97039267  0.18428086  1.0
  Ge  Ge126  1  0.25000000  0.13705933  0.27302543  1.0
  Ge  Ge127  1  0.25000000  0.47039267  0.27302543  1.0
  Ge  Ge128  1  0.25000000  0.80372600  0.27302543  1.0
  Ge  Ge129  1  0.58333333  0.13705933  0.27302543  1.0
  Ge  Ge130  1  0.58333333  0.47039267  0.27302543  1.0
  Ge  Ge131  1  0.58333333  0.80372600  0.27302543  1.0
  Ge  Ge132  1  0.91666667  0.13705933  0.27302543  1.0
  Ge  Ge133  1  0.91666667  0.47039267  0.27302543  1.0
  Ge  Ge134  1  0.91666667  0.80372600  0.27302543  1.0
  Ge  Ge135  1  0.08333333  0.19627400  0.20965857  1.0
  Ge  Ge136  1  0.08333333  0.52960733  0.20965857  1.0
  Ge  Ge137  1  0.08333333  0.86294067  0.20965857  1.0
  Ge  Ge138  1  0.41666667  0.19627400  0.20965857  1.0
  Ge  Ge139  1  0.41666667  0.52960733  0.20965857  1.0
  Ge  Ge140  1  0.41666667  0.86294067  0.20965857  1.0
  Ge  Ge141  1  0.75000000  0.19627400  0.20965857  1.0
  Ge  Ge142  1  0.75000000  0.52960733  0.20965857  1.0
  Ge  Ge143  1  0.75000000  0.86294067  0.20965857  1.0
  Ni  Ni144  1  0.25000000  0.23000033  0.41041471  1.0
  Ni  Ni145  1  0.25000000  0.56333367  0.41041471  1.0
  Ni  Ni146  1  0.25000000  0.89666700  0.41041471  1.0
  Ni  Ni147  1  0.58333333  0.23000033  0.41041471  1.0
  Ni  Ni148  1  0.58333333  0.56333367  0.41041471  1.0
  Ni  Ni149  1  0.58333333  0.89666700  0.41041471  1.0
  Ni  Ni150  1  0.91666667  0.23000033  0.41041471  1.0
  Ni  Ni151  1  0.91666667  0.56333367  0.41041471  1.0
  Ni  Ni152  1  0.91666667  0.89666700  0.41041471  1.0
  Ni  Ni153  1  0.08333333  0.10333300  0.35798357  1.0
  Ni  Ni154  1  0.08333333  0.43666633  0.35798357  1.0
  Ni  Ni155  1  0.08333333  0.76999967  0.35798357  1.0
  Ni  Ni156  1  0.41666667  0.10333300  0.35798357  1.0
  Ni  Ni157  1  0.41666667  0.43666633  0.35798357  1.0
  Ni  Ni158  1  0.41666667  0.76999967  0.35798357  1.0
  Ni  Ni159  1  0.75000000  0.10333300  0.35798357  1.0
  Ni  Ni160  1  0.75000000  0.43666633  0.35798357  1.0
  Ni  Ni161  1  0.75000000  0.76999967  0.35798357  1.0
  Ni  Ni162  1  0.25000000  0.26999967  0.35612871  1.0
  Ni  Ni163  1  0.25000000  0.60333300  0.35612871  1.0
  Ni  Ni164  1  0.25000000  0.93666633  0.35612871  1.0
  Ni  Ni165  1  0.58333333  0.26999967  0.35612871  1.0
  Ni  Ni166  1  0.58333333  0.60333300  0.35612871  1.0
  Ni  Ni167  1  0.58333333  0.93666633  0.35612871  1.0
  Ni  Ni168  1  0.91666667  0.26999967  0.35612871  1.0
  Ni  Ni169  1  0.91666667  0.60333300  0.35612871  1.0
  Ni  Ni170  1  0.91666667  0.93666633  0.35612871  1.0
  Ni  Ni171  1  0.08333333  0.06333367  0.41226957  1.0
  Ni  Ni172  1  0.08333333  0.39666700  0.41226957  1.0
  Ni  Ni173  1  0.08333333  0.73000033  0.41226957  1.0
  Ni  Ni174  1  0.41666667  0.06333367  0.41226957  1.0
  Ni  Ni175  1  0.41666667  0.39666700  0.41226957  1.0
  Ni  Ni176  1  0.41666667  0.73000033  0.41226957  1.0
  Ni  Ni177  1  0.75000000  0.06333367  0.41226957  1.0
  Ni  Ni178  1  0.75000000  0.39666700  0.41226957  1.0
  Ni  Ni179  1  0.75000000  0.73000033  0.41226957  1.0
  Ge  Ge180  1  0.25000000  0.02960733  0.29840314  1.0
  Ge  Ge181  1  0.25000000  0.36294067  0.29840314  1.0
  Ge  Ge182  1  0.25000000  0.69627400  0.29840314  1.0
  Ge  Ge183  1  0.58333333  0.02960733  0.29840314  1.0
  Ge  Ge184  1  0.58333333  0.36294067  0.29840314  1.0
  Ge  Ge185  1  0.58333333  0.69627400  0.29840314  1.0
  Ge  Ge186  1  0.91666667  0.02960733  0.29840314  1.0
  Ge  Ge187  1  0.91666667  0.36294067  0.29840314  1.0
  Ge  Ge188  1  0.91666667  0.69627400  0.29840314  1.0
  Ge  Ge189  1  0.08333333  0.30372600  0.32713800  1.0
  Ge  Ge190  1  0.08333333  0.63705933  0.32713800  1.0
  Ge  Ge191  1  0.08333333  0.97039267  0.32713800  1.0
  Ge  Ge192  1  0.41666667  0.30372600  0.32713800  1.0
  Ge  Ge193  1  0.41666667  0.63705933  0.32713800  1.0
  Ge  Ge194  1  0.41666667  0.97039267  0.32713800  1.0
  Ge  Ge195  1  0.75000000  0.30372600  0.32713800  1.0
  Ge  Ge196  1  0.75000000  0.63705933  0.32713800  1.0
  Ge  Ge197  1  0.75000000  0.97039267  0.32713800  1.0
  Ge  Ge198  1  0.25000000  0.13705933  0.41588257  1.0
  Ge  Ge199  1  0.25000000  0.47039267  0.41588257  1.0
  Ge  Ge200  1  0.25000000  0.80372600  0.41588257  1.0
  Ge  Ge201  1  0.58333333  0.13705933  0.41588257  1.0
  Ge  Ge202  1  0.58333333  0.47039267  0.41588257  1.0
  Ge  Ge203  1  0.58333333  0.80372600  0.41588257  1.0
  Ge  Ge204  1  0.91666667  0.13705933  0.41588257  1.0
  Ge  Ge205  1  0.91666667  0.47039267  0.41588257  1.0
  Ge  Ge206  1  0.91666667  0.80372600  0.41588257  1.0
  Ge  Ge207  1  0.08333333  0.19627400  0.35251571  1.0
  Ge  Ge208  1  0.08333333  0.52960733  0.35251571  1.0
  Ge  Ge209  1  0.08333333  0.86294067  0.35251571  1.0
  Ge  Ge210  1  0.41666667  0.19627400  0.35251571  1.0
  Ge  Ge211  1  0.41666667  0.52960733  0.35251571  1.0
  Ge  Ge212  1  0.41666667  0.86294067  0.35251571  1.0
  Ge  Ge213  1  0.75000000  0.19627400  0.35251571  1.0
  Ge  Ge214  1  0.75000000  0.52960733  0.35251571  1.0
  Ge  Ge215  1  0.75000000  0.86294067  0.35251571  1.0
