# generated using pymatgen
data_NiGe
_symmetry_space_group_name_H-M   'P 1'
_cell_length_a   17.44755600
_cell_length_b   33.89127508
_cell_length_c   31.47170400
_cell_angle_alpha   108.03126687
_cell_angle_beta   90.00000000
_cell_angle_gamma   90.00000000
_symmetry_Int_Tables_number   1
_chemical_formula_structural   NiGe
_chemical_formula_sum   'Ni288 Ge288'
_cell_volume   17695.87393568
_cell_formula_units_Z   288
loop_
 _symmetry_equiv_pos_site_id
 _symmetry_equiv_pos_as_xyz
  1  'x, y, z'
loop_
 _atom_site_type_symbol
 _atom_site_label
 _atom_site_symmetry_multiplicity
 _atom_site_fract_x
 _atom_site_fract_y
 _atom_site_fract_z
 _atom_site_occupancy
  Ni  Ni0  1  0.23000033  0.08225133  0.10530917  1.0
  Ni  Ni1  1  0.23000033  0.41558467  0.10530917  1.0
  Ni  Ni2  1  0.23000033  0.74891800  0.10530917  1.0
  Ni  Ni3  1  0.56333367  0.08225133  0.10530917  1.0
  Ni  Ni4  1  0.56333367  0.41558467  0.10530917  1.0
  Ni  Ni5  1  0.56333367  0.74891800  0.10530917  1.0
  Ni  Ni6  1  0.89666700  0.08225133  0.10530917  1.0
  Ni  Ni7  1  0.89666700  0.41558467  0.10530917  1.0
  Ni  Ni8  1  0.89666700  0.74891800  0.10530917  1.0
  Ni  Ni9  1  0.23000033  0.24891800  0.04975361  1.0
  Ni  Ni10  1  0.23000033  0.58225133  0.04975361  1.0
  Ni  Ni11  1  0.23000033  0.91558467  0.04975361  1.0
  Ni  Ni12  1  0.56333367  0.24891800  0.04975361  1.0
  Ni  Ni13  1  0.56333367  0.58225133  0.04975361  1.0
  Ni  Ni14  1  0.56333367  0.91558467  0.04975361  1.0
  Ni  Ni15  1  0.89666700  0.24891800  0.04975361  1.0
  Ni  Ni16  1  0.89666700  0.58225133  0.04975361  1.0
  Ni  Ni17  1  0.89666700  0.91558467  0.04975361  1.0
  Ni  Ni18  1  0.10333300  0.08441533  0.05047494  1.0
  Ni  Ni19  1  0.10333300  0.41774867  0.05047494  1.0
  Ni  Ni20  1  0.10333300  0.75108200  0.05047494  1.0
  Ni  Ni21  1  0.43666633  0.08441533  0.05047494  1.0
  Ni  Ni22  1  0.43666633  0.41774867  0.05047494  1.0
  Ni  Ni23  1  0.43666633  0.75108200  0.05047494  1.0
  Ni  Ni24  1  0.76999967  0.08441533  0.05047494  1.0
  Ni  Ni25  1  0.76999967  0.41774867  0.05047494  1.0
  Ni  Ni26  1  0.76999967  0.75108200  0.05047494  1.0
  Ni  Ni27  1  0.10333300  0.25108200  0.10603050  1.0
  Ni  Ni28  1  0.10333300  0.58441533  0.10603050  1.0
  Ni  Ni29  1  0.10333300  0.91774867  0.10603050  1.0
  Ni  Ni30  1  0.43666633  0.25108200  0.10603050  1.0
  Ni  Ni31  1  0.43666633  0.58441533  0.10603050  1.0
  Ni  Ni32  1  0.43666633  0.91774867  0.10603050  1.0
  Ni  Ni33  1  0.76999967  0.25108200  0.10603050  1.0
  Ni  Ni34  1  0.76999967  0.58441533  0.10603050  1.0
  Ni  Ni35  1  0.76999967  0.91774867  0.10603050  1.0
  Ni  Ni36  1  0.26999967  0.16558467  0.02197583  1.0
  Ni  Ni37  1  0.26999967  0.49891800  0.02197583  1.0
  Ni  Ni38  1  0.26999967  0.83225133  0.02197583  1.0
  Ni  Ni39  1  0.60333300  0.16558467  0.02197583  1.0
  Ni  Ni40  1  0.60333300  0.49891800  0.02197583  1.0
  Ni  Ni41  1  0.60333300  0.83225133  0.02197583  1.0
  Ni  Ni42  1  0.93666633  0.16558467  0.02197583  1.0
  Ni  Ni43  1  0.93666633  0.49891800  0.02197583  1.0
  Ni  Ni44  1  0.93666633  0.83225133  0.02197583  1.0
  Ni  Ni45  1  0.26999967  0.33225133  0.07753139  1.0
  Ni  Ni46  1  0.26999967  0.66558467  0.07753139  1.0
  Ni  Ni47  1  0.26999967  0.99891800  0.07753139  1.0
  Ni  Ni48  1  0.60333300  0.33225133  0.07753139  1.0
  Ni  Ni49  1  0.60333300  0.66558467  0.07753139  1.0
  Ni  Ni50  1  0.60333300  0.99891800  0.07753139  1.0
  Ni  Ni51  1  0.93666633  0.33225133  0.07753139  1.0
  Ni  Ni52  1  0.93666633  0.66558467  0.07753139  1.0
  Ni  Ni53  1  0.93666633  0.99891800  0.07753139  1.0
  Ni  Ni54  1  0.06333367  0.00108200  0.02269717  1.0
  Ni  Ni55  1  0.06333367  0.33441533  0.02269717  1.0
  Ni  Ni56  1  0.06333367  0.66774867  0.02269717  1.0
  Ni  Ni57  1  0.39666700  0.00108200  0.02269717  1.0
  Ni  Ni58  1  0.39666700  0.33441533  0.02269717  1.0
  Ni  Ni59  1  0.39666700  0.66774867  0.02269717  1.0
  Ni  Ni60  1  0.73000033  0.00108200  0.02269717  1.0
  Ni  Ni61  1  0.73000033  0.33441533  0.02269717  1.0
  Ni  Ni62  1  0.73000033  0.66774867  0.02269717  1.0
  Ni  Ni63  1  0.06333367  0.16774867  0.07825272  1.0
  Ni  Ni64  1  0.06333367  0.50108200  0.07825272  1.0
  Ni  Ni65  1  0.06333367  0.83441533  0.07825272  1.0
  Ni  Ni66  1  0.39666700  0.16774867  0.07825272  1.0
  Ni  Ni67  1  0.39666700  0.50108200  0.07825272  1.0
  Ni  Ni68  1  0.39666700  0.83441533  0.07825272  1.0
  Ni  Ni69  1  0.73000033  0.16774867  0.07825272  1.0
  Ni  Ni70  1  0.73000033  0.50108200  0.07825272  1.0
  Ni  Ni71  1  0.73000033  0.83441533  0.07825272  1.0
  Ge  Ge72  1  0.02960733  0.05176767  0.09514794  1.0
  Ge  Ge73  1  0.02960733  0.38510100  0.09514794  1.0
  Ge  Ge74  1  0.02960733  0.71843433  0.09514794  1.0
  Ge  Ge75  1  0.36294067  0.05176767  0.09514794  1.0
  Ge  Ge76  1  0.36294067  0.38510100  0.09514794  1.0
  Ge  Ge77  1  0.36294067  0.71843433  0.09514794  1.0
  Ge  Ge78  1  0.69627400  0.05176767  0.09514794  1.0
  Ge  Ge79  1  0.69627400  0.38510100  0.09514794  1.0
  Ge  Ge80  1  0.69627400  0.71843433  0.09514794  1.0
  Ge  Ge81  1  0.02960733  0.21843433  0.03959239  1.0
  Ge  Ge82  1  0.02960733  0.55176767  0.03959239  1.0
  Ge  Ge83  1  0.02960733  0.88510100  0.03959239  1.0
  Ge  Ge84  1  0.36294067  0.21843433  0.03959239  1.0
  Ge  Ge85  1  0.36294067  0.55176767  0.03959239  1.0
  Ge  Ge86  1  0.36294067  0.88510100  0.03959239  1.0
  Ge  Ge87  1  0.69627400  0.21843433  0.03959239  1.0
  Ge  Ge88  1  0.69627400  0.55176767  0.03959239  1.0
  Ge  Ge89  1  0.69627400  0.88510100  0.03959239  1.0
  Ge  Ge90  1  0.30372600  0.11489900  0.06063617  1.0
  Ge  Ge91  1  0.30372600  0.44823233  0.06063617  1.0
  Ge  Ge92  1  0.30372600  0.78156567  0.06063617  1.0
  Ge  Ge93  1  0.63705933  0.11489900  0.06063617  1.0
  Ge  Ge94  1  0.63705933  0.44823233  0.06063617  1.0
  Ge  Ge95  1  0.63705933  0.78156567  0.06063617  1.0
  Ge  Ge96  1  0.97039267  0.11489900  0.06063617  1.0
  Ge  Ge97  1  0.97039267  0.44823233  0.06063617  1.0
  Ge  Ge98  1  0.97039267  0.78156567  0.06063617  1.0
  Ge  Ge99  1  0.30372600  0.28156567  0.00508061  1.0
  Ge  Ge100  1  0.30372600  0.61489900  0.00508061  1.0
  Ge  Ge101  1  0.30372600  0.94823233  0.00508061  1.0
  Ge  Ge102  1  0.63705933  0.28156567  0.00508061  1.0
  Ge  Ge103  1  0.63705933  0.61489900  0.00508061  1.0
  Ge  Ge104  1  0.63705933  0.94823233  0.00508061  1.0
  Ge  Ge105  1  0.97039267  0.28156567  0.00508061  1.0
  Ge  Ge106  1  0.97039267  0.61489900  0.00508061  1.0
  Ge  Ge107  1  0.97039267  0.94823233  0.00508061  1.0
  Ge  Ge108  1  0.13705933  0.13510100  0.01181461  1.0
  Ge  Ge109  1  0.13705933  0.46843433  0.01181461  1.0
  Ge  Ge110  1  0.13705933  0.80176767  0.01181461  1.0
  Ge  Ge111  1  0.47039267  0.13510100  0.01181461  1.0
  Ge  Ge112  1  0.47039267  0.46843433  0.01181461  1.0
  Ge  Ge113  1  0.47039267  0.80176767  0.01181461  1.0
  Ge  Ge114  1  0.80372600  0.13510100  0.01181461  1.0
  Ge  Ge115  1  0.80372600  0.46843433  0.01181461  1.0
  Ge  Ge116  1  0.80372600  0.80176767  0.01181461  1.0
  Ge  Ge117  1  0.13705933  0.30176767  0.06737017  1.0
  Ge  Ge118  1  0.13705933  0.63510100  0.06737017  1.0
  Ge  Ge119  1  0.13705933  0.96843433  0.06737017  1.0
  Ge  Ge120  1  0.47039267  0.30176767  0.06737017  1.0
  Ge  Ge121  1  0.47039267  0.63510100  0.06737017  1.0
  Ge  Ge122  1  0.47039267  0.96843433  0.06737017  1.0
  Ge  Ge123  1  0.80372600  0.30176767  0.06737017  1.0
  Ge  Ge124  1  0.80372600  0.63510100  0.06737017  1.0
  Ge  Ge125  1  0.80372600  0.96843433  0.06737017  1.0
  Ge  Ge126  1  0.19627400  0.03156567  0.03285839  1.0
  Ge  Ge127  1  0.19627400  0.36489900  0.03285839  1.0
  Ge  Ge128  1  0.19627400  0.69823233  0.03285839  1.0
  Ge  Ge129  1  0.52960733  0.03156567  0.03285839  1.0
  Ge  Ge130  1  0.52960733  0.36489900  0.03285839  1.0
  Ge  Ge131  1  0.52960733  0.69823233  0.03285839  1.0
  Ge  Ge132  1  0.86294067  0.03156567  0.03285839  1.0
  Ge  Ge133  1  0.86294067  0.36489900  0.03285839  1.0
  Ge  Ge134  1  0.86294067  0.69823233  0.03285839  1.0
  Ge  Ge135  1  0.19627400  0.19823233  0.08841394  1.0
  Ge  Ge136  1  0.19627400  0.53156567  0.08841394  1.0
  Ge  Ge137  1  0.19627400  0.86489900  0.08841394  1.0
  Ge  Ge138  1  0.52960733  0.19823233  0.08841394  1.0
  Ge  Ge139  1  0.52960733  0.53156567  0.08841394  1.0
  Ge  Ge140  1  0.52960733  0.86489900  0.08841394  1.0
  Ge  Ge141  1  0.86294067  0.19823233  0.08841394  1.0
  Ge  Ge142  1  0.86294067  0.53156567  0.08841394  1.0
  Ge  Ge143  1  0.86294067  0.86489900  0.08841394  1.0
  Ni  Ni144  1  0.23000033  0.08225133  0.21642028  1.0
  Ni  Ni145  1  0.23000033  0.41558467  0.21642028  1.0
  Ni  Ni146  1  0.23000033  0.74891800  0.21642028  1.0
  Ni  Ni147  1  0.56333367  0.08225133  0.21642028  1.0
  Ni  Ni148  1  0.56333367  0.41558467  0.21642028  1.0
  Ni  Ni149  1  0.56333367  0.74891800  0.21642028  1.0
  Ni  Ni150  1  0.89666700  0.08225133  0.21642028  1.0
  Ni  Ni151  1  0.89666700  0.41558467  0.21642028  1.0
  Ni  Ni152  1  0.89666700  0.74891800  0.21642028  1.0
  Ni  Ni153  1  0.23000033  0.24891800  0.16086472  1.0
  Ni  Ni154  1  0.23000033  0.58225133  0.16086472  1.0
  Ni  Ni155  1  0.23000033  0.91558467  0.16086472  1.0
  Ni  Ni156  1  0.56333367  0.24891800  0.16086472  1.0
  Ni  Ni157  1  0.56333367  0.58225133  0.16086472  1.0
  Ni  Ni158  1  0.56333367  0.91558467  0.16086472  1.0
  Ni  Ni159  1  0.89666700  0.24891800  0.16086472  1.0
  Ni  Ni160  1  0.89666700  0.58225133  0.16086472  1.0
  Ni  Ni161  1  0.89666700  0.91558467  0.16086472  1.0
  Ni  Ni162  1  0.10333300  0.08441533  0.16158606  1.0
  Ni  Ni163  1  0.10333300  0.41774867  0.16158606  1.0
  Ni  Ni164  1  0.10333300  0.75108200  0.16158606  1.0
  Ni  Ni165  1  0.43666633  0.08441533  0.16158606  1.0
  Ni  Ni166  1  0.43666633  0.41774867  0.16158606  1.0
  Ni  Ni167  1  0.43666633  0.75108200  0.16158606  1.0
  Ni  Ni168  1  0.76999967  0.08441533  0.16158606  1.0
  Ni  Ni169  1  0.76999967  0.41774867  0.16158606  1.0
  Ni  Ni170  1  0.76999967  0.75108200  0.16158606  1.0
  Ni  Ni171  1  0.10333300  0.25108200  0.21714161  1.0
  Ni  Ni172  1  0.10333300  0.58441533  0.21714161  1.0
  Ni  Ni173  1  0.10333300  0.91774867  0.21714161  1.0
  Ni  Ni174  1  0.43666633  0.25108200  0.21714161  1.0
  Ni  Ni175  1  0.43666633  0.58441533  0.21714161  1.0
  Ni  Ni176  1  0.43666633  0.91774867  0.21714161  1.0
  Ni  Ni177  1  0.76999967  0.25108200  0.21714161  1.0
  Ni  Ni178  1  0.76999967  0.58441533  0.21714161  1.0
  Ni  Ni179  1  0.76999967  0.91774867  0.21714161  1.0
  Ni  Ni180  1  0.26999967  0.16558467  0.13308694  1.0
  Ni  Ni181  1  0.26999967  0.49891800  0.13308694  1.0
  Ni  Ni182  1  0.26999967  0.83225133  0.13308694  1.0
  Ni  Ni183  1  0.60333300  0.16558467  0.13308694  1.0
  Ni  Ni184  1  0.60333300  0.49891800  0.13308694  1.0
  Ni  Ni185  1  0.60333300  0.83225133  0.13308694  1.0
  Ni  Ni186  1  0.93666633  0.16558467  0.13308694  1.0
  Ni  Ni187  1  0.93666633  0.49891800  0.13308694  1.0
  Ni  Ni188  1  0.93666633  0.83225133  0.13308694  1.0
  Ni  Ni189  1  0.26999967  0.33225133  0.18864250  1.0
  Ni  Ni190  1  0.26999967  0.66558467  0.18864250  1.0
  Ni  Ni191  1  0.26999967  0.99891800  0.18864250  1.0
  Ni  Ni192  1  0.60333300  0.33225133  0.18864250  1.0
  Ni  Ni193  1  0.60333300  0.66558467  0.18864250  1.0
  Ni  Ni194  1  0.60333300  0.99891800  0.18864250  1.0
  Ni  Ni195  1  0.93666633  0.33225133  0.18864250  1.0
  Ni  Ni196  1  0.93666633  0.66558467  0.18864250  1.0
  Ni  Ni197  1  0.93666633  0.99891800  0.18864250  1.0
  Ni  Ni198  1  0.06333367  0.00108200  0.13380828  1.0
  Ni  Ni199  1  0.06333367  0.33441533  0.13380828  1.0
  Ni  Ni200  1  0.06333367  0.66774867  0.13380828  1.0
  Ni  Ni201  1  0.39666700  0.00108200  0.13380828  1.0
  Ni  Ni202  1  0.39666700  0.33441533  0.13380828  1.0
  Ni  Ni203  1  0.39666700  0.66774867  0.13380828  1.0
  Ni  Ni204  1  0.73000033  0.00108200  0.13380828  1.0
  Ni  Ni205  1  0.73000033  0.33441533  0.13380828  1.0
  Ni  Ni206  1  0.73000033  0.66774867  0.13380828  1.0
  Ni  Ni207  1  0.06333367  0.16774867  0.18936383  1.0
  Ni  Ni208  1  0.06333367  0.50108200  0.18936383  1.0
  Ni  Ni209  1  0.06333367  0.83441533  0.18936383  1.0
  Ni  Ni210  1  0.39666700  0.16774867  0.18936383  1.0
  Ni  Ni211  1  0.39666700  0.50108200  0.18936383  1.0
  Ni  Ni212  1  0.39666700  0.83441533  0.18936383  1.0
  Ni  Ni213  1  0.73000033  0.16774867  0.18936383  1.0
  Ni  Ni214  1  0.73000033  0.50108200  0.18936383  1.0
  Ni  Ni215  1  0.73000033  0.83441533  0.18936383  1.0
  Ge  Ge216  1  0.02960733  0.05176767  0.20625906  1.0
  Ge  Ge217  1  0.02960733  0.38510100  0.20625906  1.0
  Ge  Ge218  1  0.02960733  0.71843433  0.20625906  1.0
  Ge  Ge219  1  0.36294067  0.05176767  0.20625906  1.0
  Ge  Ge220  1  0.36294067  0.38510100  0.20625906  1.0
  Ge  Ge221  1  0.36294067  0.71843433  0.20625906  1.0
  Ge  Ge222  1  0.69627400  0.05176767  0.20625906  1.0
  Ge  Ge223  1  0.69627400  0.38510100  0.20625906  1.0
  Ge  Ge224  1  0.69627400  0.71843433  0.20625906  1.0
  Ge  Ge225  1  0.02960733  0.21843433  0.15070350  1.0
  Ge  Ge226  1  0.02960733  0.55176767  0.15070350  1.0
  Ge  Ge227  1  0.02960733  0.88510100  0.15070350  1.0
  Ge  Ge228  1  0.36294067  0.21843433  0.15070350  1.0
  Ge  Ge229  1  0.36294067  0.55176767  0.15070350  1.0
  Ge  Ge230  1  0.36294067  0.88510100  0.15070350  1.0
  Ge  Ge231  1  0.69627400  0.21843433  0.15070350  1.0
  Ge  Ge232  1  0.69627400  0.55176767  0.15070350  1.0
  Ge  Ge233  1  0.69627400  0.88510100  0.15070350  1.0
  Ge  Ge234  1  0.30372600  0.11489900  0.17174728  1.0
  Ge  Ge235  1  0.30372600  0.44823233  0.17174728  1.0
  Ge  Ge236  1  0.30372600  0.78156567  0.17174728  1.0
  Ge  Ge237  1  0.63705933  0.11489900  0.17174728  1.0
  Ge  Ge238  1  0.63705933  0.44823233  0.17174728  1.0
  Ge  Ge239  1  0.63705933  0.78156567  0.17174728  1.0
  Ge  Ge240  1  0.97039267  0.11489900  0.17174728  1.0
  Ge  Ge241  1  0.97039267  0.44823233  0.17174728  1.0
  Ge  Ge242  1  0.97039267  0.78156567  0.17174728  1.0
  Ge  Ge243  1  0.30372600  0.28156567  0.11619172  1.0
  Ge  Ge244  1  0.30372600  0.61489900  0.11619172  1.0
  Ge  Ge245  1  0.30372600  0.94823233  0.11619172  1.0
  Ge  Ge246  1  0.63705933  0.28156567  0.11619172  1.0
  Ge  Ge247  1  0.63705933  0.61489900  0.11619172  1.0
  Ge  Ge248  1  0.63705933  0.94823233  0.11619172  1.0
  Ge  Ge249  1  0.97039267  0.28156567  0.11619172  1.0
  Ge  Ge250  1  0.97039267  0.61489900  0.11619172  1.0
  Ge  Ge251  1  0.97039267  0.94823233  0.11619172  1.0
  Ge  Ge252  1  0.13705933  0.13510100  0.12292572  1.0
  Ge  Ge253  1  0.13705933  0.46843433  0.12292572  1.0
  Ge  Ge254  1  0.13705933  0.80176767  0.12292572  1.0
  Ge  Ge255  1  0.47039267  0.13510100  0.12292572  1.0
  Ge  Ge256  1  0.47039267  0.46843433  0.12292572  1.0
  Ge  Ge257  1  0.47039267  0.80176767  0.12292572  1.0
  Ge  Ge258  1  0.80372600  0.13510100  0.12292572  1.0
  Ge  Ge259  1  0.80372600  0.46843433  0.12292572  1.0
  Ge  Ge260  1  0.80372600  0.80176767  0.12292572  1.0
  Ge  Ge261  1  0.13705933  0.30176767  0.17848128  1.0
  Ge  Ge262  1  0.13705933  0.63510100  0.17848128  1.0
  Ge  Ge263  1  0.13705933  0.96843433  0.17848128  1.0
  Ge  Ge264  1  0.47039267  0.30176767  0.17848128  1.0
  Ge  Ge265  1  0.47039267  0.63510100  0.17848128  1.0
  Ge  Ge266  1  0.47039267  0.96843433  0.17848128  1.0
  Ge  Ge267  1  0.80372600  0.30176767  0.17848128  1.0
  Ge  Ge268  1  0.80372600  0.63510100  0.17848128  1.0
  Ge  Ge269  1  0.80372600  0.96843433  0.17848128  1.0
  Ge  Ge270  1  0.19627400  0.03156567  0.14396950  1.0
  Ge  Ge271  1  0.19627400  0.36489900  0.14396950  1.0
  Ge  Ge272  1  0.19627400  0.69823233  0.14396950  1.0
  Ge  Ge273  1  0.52960733  0.03156567  0.14396950  1.0
  Ge  Ge274  1  0.52960733  0.36489900  0.14396950  1.0
  Ge  Ge275  1  0.52960733  0.69823233  0.14396950  1.0
  Ge  Ge276  1  0.86294067  0.03156567  0.14396950  1.0
  Ge  Ge277  1  0.86294067  0.36489900  0.14396950  1.0
  Ge  Ge278  1  0.86294067  0.69823233  0.14396950  1.0
  Ge  Ge279  1  0.19627400  0.19823233  0.19952506  1.0
  Ge  Ge280  1  0.19627400  0.53156567  0.19952506  1.0
  Ge  Ge281  1  0.19627400  0.86489900  0.19952506  1.0
  Ge  Ge282  1  0.52960733  0.19823233  0.19952506  1.0
  Ge  Ge283  1  0.52960733  0.53156567  0.19952506  1.0
  Ge  Ge284  1  0.52960733  0.86489900  0.19952506  1.0
  Ge  Ge285  1  0.86294067  0.19823233  0.19952506  1.0
  Ge  Ge286  1  0.86294067  0.53156567  0.19952506  1.0
  Ge  Ge287  1  0.86294067  0.86489900  0.19952506  1.0
  Ni  Ni288  1  0.23000033  0.08225133  0.32753139  1.0
  Ni  Ni289  1  0.23000033  0.41558467  0.32753139  1.0
  Ni  Ni290  1  0.23000033  0.74891800  0.32753139  1.0
  Ni  Ni291  1  0.56333367  0.08225133  0.32753139  1.0
  Ni  Ni292  1  0.56333367  0.41558467  0.32753139  1.0
  Ni  Ni293  1  0.56333367  0.74891800  0.32753139  1.0
  Ni  Ni294  1  0.89666700  0.08225133  0.32753139  1.0
  Ni  Ni295  1  0.89666700  0.41558467  0.32753139  1.0
  Ni  Ni296  1  0.89666700  0.74891800  0.32753139  1.0
  Ni  Ni297  1  0.23000033  0.24891800  0.27197583  1.0
  Ni  Ni298  1  0.23000033  0.58225133  0.27197583  1.0
  Ni  Ni299  1  0.23000033  0.91558467  0.27197583  1.0
  Ni  Ni300  1  0.56333367  0.24891800  0.27197583  1.0
  Ni  Ni301  1  0.56333367  0.58225133  0.27197583  1.0
  Ni  Ni302  1  0.56333367  0.91558467  0.27197583  1.0
  Ni  Ni303  1  0.89666700  0.24891800  0.27197583  1.0
  Ni  Ni304  1  0.89666700  0.58225133  0.27197583  1.0
  Ni  Ni305  1  0.89666700  0.91558467  0.27197583  1.0
  Ni  Ni306  1  0.10333300  0.08441533  0.27269717  1.0
  Ni  Ni307  1  0.10333300  0.41774867  0.27269717  1.0
  Ni  Ni308  1  0.10333300  0.75108200  0.27269717  1.0
  Ni  Ni309  1  0.43666633  0.08441533  0.27269717  1.0
  Ni  Ni310  1  0.43666633  0.41774867  0.27269717  1.0
  Ni  Ni311  1  0.43666633  0.75108200  0.27269717  1.0
  Ni  Ni312  1  0.76999967  0.08441533  0.27269717  1.0
  Ni  Ni313  1  0.76999967  0.41774867  0.27269717  1.0
  Ni  Ni314  1  0.76999967  0.75108200  0.27269717  1.0
  Ni  Ni315  1  0.10333300  0.25108200  0.32825272  1.0
  Ni  Ni316  1  0.10333300  0.58441533  0.32825272  1.0
  Ni  Ni317  1  0.10333300  0.91774867  0.32825272  1.0
  Ni  Ni318  1  0.43666633  0.25108200  0.32825272  1.0
  Ni  Ni319  1  0.43666633  0.58441533  0.32825272  1.0
  Ni  Ni320  1  0.43666633  0.91774867  0.32825272  1.0
  Ni  Ni321  1  0.76999967  0.25108200  0.32825272  1.0
  Ni  Ni322  1  0.76999967  0.58441533  0.32825272  1.0
  Ni  Ni323  1  0.76999967  0.91774867  0.32825272  1.0
  Ni  Ni324  1  0.26999967  0.16558467  0.24419806  1.0
  Ni  Ni325  1  0.26999967  0.49891800  0.24419806  1.0
  Ni  Ni326  1  0.26999967  0.83225133  0.24419806  1.0
  Ni  Ni327  1  0.60333300  0.16558467  0.24419806  1.0
  Ni  Ni328  1  0.60333300  0.49891800  0.24419806  1.0
  Ni  Ni329  1  0.60333300  0.83225133  0.24419806  1.0
  Ni  Ni330  1  0.93666633  0.16558467  0.24419806  1.0
  Ni  Ni331  1  0.93666633  0.49891800  0.24419806  1.0
  Ni  Ni332  1  0.93666633  0.83225133  0.24419806  1.0
  Ni  Ni333  1  0.26999967  0.33225133  0.29975361  1.0
  Ni  Ni334  1  0.26999967  0.66558467  0.29975361  1.0
  Ni  Ni335  1  0.26999967  0.99891800  0.29975361  1.0
  Ni  Ni336  1  0.60333300  0.33225133  0.29975361  1.0
  Ni  Ni337  1  0.60333300  0.66558467  0.29975361  1.0
  Ni  Ni338  1  0.60333300  0.99891800  0.29975361  1.0
  Ni  Ni339  1  0.93666633  0.33225133  0.29975361  1.0
  Ni  Ni340  1  0.93666633  0.66558467  0.29975361  1.0
  Ni  Ni341  1  0.93666633  0.99891800  0.29975361  1.0
  Ni  Ni342  1  0.06333367  0.00108200  0.24491939  1.0
  Ni  Ni343  1  0.06333367  0.33441533  0.24491939  1.0
  Ni  Ni344  1  0.06333367  0.66774867  0.24491939  1.0
  Ni  Ni345  1  0.39666700  0.00108200  0.24491939  1.0
  Ni  Ni346  1  0.39666700  0.33441533  0.24491939  1.0
  Ni  Ni347  1  0.39666700  0.66774867  0.24491939  1.0
  Ni  Ni348  1  0.73000033  0.00108200  0.24491939  1.0
  Ni  Ni349  1  0.73000033  0.33441533  0.24491939  1.0
  Ni  Ni350  1  0.73000033  0.66774867  0.24491939  1.0
  Ni  Ni351  1  0.06333367  0.16774867  0.30047494  1.0
  Ni  Ni352  1  0.06333367  0.50108200  0.30047494  1.0
  Ni  Ni353  1  0.06333367  0.83441533  0.30047494  1.0
  Ni  Ni354  1  0.39666700  0.16774867  0.30047494  1.0
  Ni  Ni355  1  0.39666700  0.50108200  0.30047494  1.0
  Ni  Ni356  1  0.39666700  0.83441533  0.30047494  1.0
  Ni  Ni357  1  0.73000033  0.16774867  0.30047494  1.0
  Ni  Ni358  1  0.73000033  0.50108200  0.30047494  1.0
  Ni  Ni359  1  0.73000033  0.83441533  0.30047494  1.0
  Ge  Ge360  1  0.02960733  0.05176767  0.31737017  1.0
  Ge  Ge361  1  0.02960733  0.38510100  0.31737017  1.0
  Ge  Ge362  1  0.02960733  0.71843433  0.31737017  1.0
  Ge  Ge363  1  0.36294067  0.05176767  0.31737017  1.0
  Ge  Ge364  1  0.36294067  0.38510100  0.31737017  1.0
  Ge  Ge365  1  0.36294067  0.71843433  0.31737017  1.0
  Ge  Ge366  1  0.69627400  0.05176767  0.31737017  1.0
  Ge  Ge367  1  0.69627400  0.38510100  0.31737017  1.0
  Ge  Ge368  1  0.69627400  0.71843433  0.31737017  1.0
  Ge  Ge369  1  0.02960733  0.21843433  0.26181461  1.0
  Ge  Ge370  1  0.02960733  0.55176767  0.26181461  1.0
  Ge  Ge371  1  0.02960733  0.88510100  0.26181461  1.0
  Ge  Ge372  1  0.36294067  0.21843433  0.26181461  1.0
  Ge  Ge373  1  0.36294067  0.55176767  0.26181461  1.0
  Ge  Ge374  1  0.36294067  0.88510100  0.26181461  1.0
  Ge  Ge375  1  0.69627400  0.21843433  0.26181461  1.0
  Ge  Ge376  1  0.69627400  0.55176767  0.26181461  1.0
  Ge  Ge377  1  0.69627400  0.88510100  0.26181461  1.0
  Ge  Ge378  1  0.30372600  0.11489900  0.28285839  1.0
  Ge  Ge379  1  0.30372600  0.44823233  0.28285839  1.0
  Ge  Ge380  1  0.30372600  0.78156567  0.28285839  1.0
  Ge  Ge381  1  0.63705933  0.11489900  0.28285839  1.0
  Ge  Ge382  1  0.63705933  0.44823233  0.28285839  1.0
  Ge  Ge383  1  0.63705933  0.78156567  0.28285839  1.0
  Ge  Ge384  1  0.97039267  0.11489900  0.28285839  1.0
  Ge  Ge385  1  0.97039267  0.44823233  0.28285839  1.0
  Ge  Ge386  1  0.97039267  0.78156567  0.28285839  1.0
  Ge  Ge387  1  0.30372600  0.28156567  0.22730283  1.0
  Ge  Ge388  1  0.30372600  0.61489900  0.22730283  1.0
  Ge  Ge389  1  0.30372600  0.94823233  0.22730283  1.0
  Ge  Ge390  1  0.63705933  0.28156567  0.22730283  1.0
  Ge  Ge391  1  0.63705933  0.61489900  0.22730283  1.0
  Ge  Ge392  1  0.63705933  0.94823233  0.22730283  1.0
  Ge  Ge393  1  0.97039267  0.28156567  0.22730283  1.0
  Ge  Ge394  1  0.97039267  0.61489900  0.22730283  1.0
  Ge  Ge395  1  0.97039267  0.94823233  0.22730283  1.0
  Ge  Ge396  1  0.13705933  0.13510100  0.23403683  1.0
  Ge  Ge397  1  0.13705933  0.46843433  0.23403683  1.0
  Ge  Ge398  1  0.13705933  0.80176767  0.23403683  1.0
  Ge  Ge399  1  0.47039267  0.13510100  0.23403683  1.0
  Ge  Ge400  1  0.47039267  0.46843433  0.23403683  1.0
  Ge  Ge401  1  0.47039267  0.80176767  0.23403683  1.0
  Ge  Ge402  1  0.80372600  0.13510100  0.23403683  1.0
  Ge  Ge403  1  0.80372600  0.46843433  0.23403683  1.0
  Ge  Ge404  1  0.80372600  0.80176767  0.23403683  1.0
  Ge  Ge405  1  0.13705933  0.30176767  0.28959239  1.0
  Ge  Ge406  1  0.13705933  0.63510100  0.28959239  1.0
  Ge  Ge407  1  0.13705933  0.96843433  0.28959239  1.0
  Ge  Ge408  1  0.47039267  0.30176767  0.28959239  1.0
  Ge  Ge409  1  0.47039267  0.63510100  0.28959239  1.0
  Ge  Ge410  1  0.47039267  0.96843433  0.28959239  1.0
  Ge  Ge411  1  0.80372600  0.30176767  0.28959239  1.0
  Ge  Ge412  1  0.80372600  0.63510100  0.28959239  1.0
  Ge  Ge413  1  0.80372600  0.96843433  0.28959239  1.0
  Ge  Ge414  1  0.19627400  0.03156567  0.25508061  1.0
  Ge  Ge415  1  0.19627400  0.36489900  0.25508061  1.0
  Ge  Ge416  1  0.19627400  0.69823233  0.25508061  1.0
  Ge  Ge417  1  0.52960733  0.03156567  0.25508061  1.0
  Ge  Ge418  1  0.52960733  0.36489900  0.25508061  1.0
  Ge  Ge419  1  0.52960733  0.69823233  0.25508061  1.0
  Ge  Ge420  1  0.86294067  0.03156567  0.25508061  1.0
  Ge  Ge421  1  0.86294067  0.36489900  0.25508061  1.0
  Ge  Ge422  1  0.86294067  0.69823233  0.25508061  1.0
  Ge  Ge423  1  0.19627400  0.19823233  0.31063617  1.0
  Ge  Ge424  1  0.19627400  0.53156567  0.31063617  1.0
  Ge  Ge425  1  0.19627400  0.86489900  0.31063617  1.0
  Ge  Ge426  1  0.52960733  0.19823233  0.31063617  1.0
  Ge  Ge427  1  0.52960733  0.53156567  0.31063617  1.0
  Ge  Ge428  1  0.52960733  0.86489900  0.31063617  1.0
  Ge  Ge429  1  0.86294067  0.19823233  0.31063617  1.0
  Ge  Ge430  1  0.86294067  0.53156567  0.31063617  1.0
  Ge  Ge431  1  0.86294067  0.86489900  0.31063617  1.0
  Ni  Ni432  1  0.23000033  0.08225133  0.43864250  1.0
  Ni  Ni433  1  0.23000033  0.41558467  0.43864250  1.0
  Ni  Ni434  1  0.23000033  0.74891800  0.43864250  1.0
  Ni  Ni435  1  0.56333367  0.08225133  0.43864250  1.0
  Ni  Ni436  1  0.56333367  0.41558467  0.43864250  1.0
  Ni  Ni437  1  0.56333367  0.74891800  0.43864250  1.0
  Ni  Ni438  1  0.89666700  0.08225133  0.43864250  1.0
  Ni  Ni439  1  0.89666700  0.41558467  0.43864250  1.0
  Ni  Ni440  1  0.89666700  0.74891800  0.43864250  1.0
  Ni  Ni441  1  0.23000033  0.24891800  0.38308694  1.0
  Ni  Ni442  1  0.23000033  0.58225133  0.38308694  1.0
  Ni  Ni443  1  0.23000033  0.91558467  0.38308694  1.0
  Ni  Ni444  1  0.56333367  0.24891800  0.38308694  1.0
  Ni  Ni445  1  0.56333367  0.58225133  0.38308694  1.0
  Ni  Ni446  1  0.56333367  0.91558467  0.38308694  1.0
  Ni  Ni447  1  0.89666700  0.24891800  0.38308694  1.0
  Ni  Ni448  1  0.89666700  0.58225133  0.38308694  1.0
  Ni  Ni449  1  0.89666700  0.91558467  0.38308694  1.0
  Ni  Ni450  1  0.10333300  0.08441533  0.38380828  1.0
  Ni  Ni451  1  0.10333300  0.41774867  0.38380828  1.0
  Ni  Ni452  1  0.10333300  0.75108200  0.38380828  1.0
  Ni  Ni453  1  0.43666633  0.08441533  0.38380828  1.0
  Ni  Ni454  1  0.43666633  0.41774867  0.38380828  1.0
  Ni  Ni455  1  0.43666633  0.75108200  0.38380828  1.0
  Ni  Ni456  1  0.76999967  0.08441533  0.38380828  1.0
  Ni  Ni457  1  0.76999967  0.41774867  0.38380828  1.0
  Ni  Ni458  1  0.76999967  0.75108200  0.38380828  1.0
  Ni  Ni459  1  0.10333300  0.25108200  0.43936383  1.0
  Ni  Ni460  1  0.10333300  0.58441533  0.43936383  1.0
  Ni  Ni461  1  0.10333300  0.91774867  0.43936383  1.0
  Ni  Ni462  1  0.43666633  0.25108200  0.43936383  1.0
  Ni  Ni463  1  0.43666633  0.58441533  0.43936383  1.0
  Ni  Ni464  1  0.43666633  0.91774867  0.43936383  1.0
  Ni  Ni465  1  0.76999967  0.25108200  0.43936383  1.0
  Ni  Ni466  1  0.76999967  0.58441533  0.43936383  1.0
  Ni  Ni467  1  0.76999967  0.91774867  0.43936383  1.0
  Ni  Ni468  1  0.26999967  0.16558467  0.35530917  1.0
  Ni  Ni469  1  0.26999967  0.49891800  0.35530917  1.0
  Ni  Ni470  1  0.26999967  0.83225133  0.35530917  1.0
  Ni  Ni471  1  0.60333300  0.16558467  0.35530917  1.0
  Ni  Ni472  1  0.60333300  0.49891800  0.35530917  1.0
  Ni  Ni473  1  0.60333300  0.83225133  0.35530917  1.0
  Ni  Ni474  1  0.93666633  0.16558467  0.35530917  1.0
  Ni  Ni475  1  0.93666633  0.49891800  0.35530917  1.0
  Ni  Ni476  1  0.93666633  0.83225133  0.35530917  1.0
  Ni  Ni477  1  0.26999967  0.33225133  0.41086472  1.0
  Ni  Ni478  1  0.26999967  0.66558467  0.41086472  1.0
  Ni  Ni479  1  0.26999967  0.99891800  0.41086472  1.0
  Ni  Ni480  1  0.60333300  0.33225133  0.41086472  1.0
  Ni  Ni481  1  0.60333300  0.66558467  0.41086472  1.0
  Ni  Ni482  1  0.60333300  0.99891800  0.41086472  1.0
  Ni  Ni483  1  0.93666633  0.33225133  0.41086472  1.0
  Ni  Ni484  1  0.93666633  0.66558467  0.41086472  1.0
  Ni  Ni485  1  0.93666633  0.99891800  0.41086472  1.0
  Ni  Ni486  1  0.06333367  0.00108200  0.35603050  1.0
  Ni  Ni487  1  0.06333367  0.33441533  0.35603050  1.0
  Ni  Ni488  1  0.06333367  0.66774867  0.35603050  1.0
  Ni  Ni489  1  0.39666700  0.00108200  0.35603050  1.0
  Ni  Ni490  1  0.39666700  0.33441533  0.35603050  1.0
  Ni  Ni491  1  0.39666700  0.66774867  0.35603050  1.0
  Ni  Ni492  1  0.73000033  0.00108200  0.35603050  1.0
  Ni  Ni493  1  0.73000033  0.33441533  0.35603050  1.0
  Ni  Ni494  1  0.73000033  0.66774867  0.35603050  1.0
  Ni  Ni495  1  0.06333367  0.16774867  0.41158606  1.0
  Ni  Ni496  1  0.06333367  0.50108200  0.41158606  1.0
  Ni  Ni497  1  0.06333367  0.83441533  0.41158606  1.0
  Ni  Ni498  1  0.39666700  0.16774867  0.41158606  1.0
  Ni  Ni499  1  0.39666700  0.50108200  0.41158606  1.0
  Ni  Ni500  1  0.39666700  0.83441533  0.41158606  1.0
  Ni  Ni501  1  0.73000033  0.16774867  0.41158606  1.0
  Ni  Ni502  1  0.73000033  0.50108200  0.41158606  1.0
  Ni  Ni503  1  0.73000033  0.83441533  0.41158606  1.0
  Ge  Ge504  1  0.02960733  0.05176767  0.42848128  1.0
  Ge  Ge505  1  0.02960733  0.38510100  0.42848128  1.0
  Ge  Ge506  1  0.02960733  0.71843433  0.42848128  1.0
  Ge  Ge507  1  0.36294067  0.05176767  0.42848128  1.0
  Ge  Ge508  1  0.36294067  0.38510100  0.42848128  1.0
  Ge  Ge509  1  0.36294067  0.71843433  0.42848128  1.0
  Ge  Ge510  1  0.69627400  0.05176767  0.42848128  1.0
  Ge  Ge511  1  0.69627400  0.38510100  0.42848128  1.0
  Ge  Ge512  1  0.69627400  0.71843433  0.42848128  1.0
  Ge  Ge513  1  0.02960733  0.21843433  0.37292572  1.0
  Ge  Ge514  1  0.02960733  0.55176767  0.37292572  1.0
  Ge  Ge515  1  0.02960733  0.88510100  0.37292572  1.0
  Ge  Ge516  1  0.36294067  0.21843433  0.37292572  1.0
  Ge  Ge517  1  0.36294067  0.55176767  0.37292572  1.0
  Ge  Ge518  1  0.36294067  0.88510100  0.37292572  1.0
  Ge  Ge519  1  0.69627400  0.21843433  0.37292572  1.0
  Ge  Ge520  1  0.69627400  0.55176767  0.37292572  1.0
  Ge  Ge521  1  0.69627400  0.88510100  0.37292572  1.0
  Ge  Ge522  1  0.30372600  0.11489900  0.39396950  1.0
  Ge  Ge523  1  0.30372600  0.44823233  0.39396950  1.0
  Ge  Ge524  1  0.30372600  0.78156567  0.39396950  1.0
  Ge  Ge525  1  0.63705933  0.11489900  0.39396950  1.0
  Ge  Ge526  1  0.63705933  0.44823233  0.39396950  1.0
  Ge  Ge527  1  0.63705933  0.78156567  0.39396950  1.0
  Ge  Ge528  1  0.97039267  0.11489900  0.39396950  1.0
  Ge  Ge529  1  0.97039267  0.44823233  0.39396950  1.0
  Ge  Ge530  1  0.97039267  0.78156567  0.39396950  1.0
  Ge  Ge531  1  0.30372600  0.28156567  0.33841394  1.0
  Ge  Ge532  1  0.30372600  0.61489900  0.33841394  1.0
  Ge  Ge533  1  0.30372600  0.94823233  0.33841394  1.0
  Ge  Ge534  1  0.63705933  0.28156567  0.33841394  1.0
  Ge  Ge535  1  0.63705933  0.61489900  0.33841394  1.0
  Ge  Ge536  1  0.63705933  0.94823233  0.33841394  1.0
  Ge  Ge537  1  0.97039267  0.28156567  0.33841394  1.0
  Ge  Ge538  1  0.97039267  0.61489900  0.33841394  1.0
  Ge  Ge539  1  0.97039267  0.94823233  0.33841394  1.0
  Ge  Ge540  1  0.13705933  0.13510100  0.34514794  1.0
  Ge  Ge541  1  0.13705933  0.46843433  0.34514794  1.0
  Ge  Ge542  1  0.13705933  0.80176767  0.34514794  1.0
  Ge  Ge543  1  0.47039267  0.13510100  0.34514794  1.0
  Ge  Ge544  1  0.47039267  0.46843433  0.34514794  1.0
  Ge  Ge545  1  0.47039267  0.80176767  0.34514794  1.0
  Ge  Ge546  1  0.80372600  0.13510100  0.34514794  1.0
  Ge  Ge547  1  0.80372600  0.46843433  0.34514794  1.0
  Ge  Ge548  1  0.80372600  0.80176767  0.34514794  1.0
  Ge  Ge549  1  0.13705933  0.30176767  0.40070350  1.0
  Ge  Ge550  1  0.13705933  0.63510100  0.40070350  1.0
  Ge  Ge551  1  0.13705933  0.96843433  0.40070350  1.0
  Ge  Ge552  1  0.47039267  0.30176767  0.40070350  1.0
  Ge  Ge553  1  0.47039267  0.63510100  0.40070350  1.0
  Ge  Ge554  1  0.47039267  0.96843433  0.40070350  1.0
  Ge  Ge555  1  0.80372600  0.30176767  0.40070350  1.0
  Ge  Ge556  1  0.80372600  0.63510100  0.40070350  1.0
  Ge  Ge557  1  0.80372600  0.96843433  0.40070350  1.0
  Ge  Ge558  1  0.19627400  0.03156567  0.36619172  1.0
  Ge  Ge559  1  0.19627400  0.36489900  0.36619172  1.0
  Ge  Ge560  1  0.19627400  0.69823233  0.36619172  1.0
  Ge  Ge561  1  0.52960733  0.03156567  0.36619172  1.0
  Ge  Ge562  1  0.52960733  0.36489900  0.36619172  1.0
  Ge  Ge563  1  0.52960733  0.69823233  0.36619172  1.0
  Ge  Ge564  1  0.86294067  0.03156567  0.36619172  1.0
  Ge  Ge565  1  0.86294067  0.36489900  0.36619172  1.0
  Ge  Ge566  1  0.86294067  0.69823233  0.36619172  1.0
  Ge  Ge567  1  0.19627400  0.19823233  0.42174728  1.0
  Ge  Ge568  1  0.19627400  0.53156567  0.42174728  1.0
  Ge  Ge569  1  0.19627400  0.86489900  0.42174728  1.0
  Ge  Ge570  1  0.52960733  0.19823233  0.42174728  1.0
  Ge  Ge571  1  0.52960733  0.53156567  0.42174728  1.0
  Ge  Ge572  1  0.52960733  0.86489900  0.42174728  1.0
  Ge  Ge573  1  0.86294067  0.19823233  0.42174728  1.0
  Ge  Ge574  1  0.86294067  0.53156567  0.42174728  1.0
  Ge  Ge575  1  0.86294067  0.86489900  0.42174728  1.0
