# generated using pymatgen
data_NiGe
_symmetry_space_group_name_H-M   'P 1'
_cell_length_a   19.22741908
_cell_length_b   20.35851732
_cell_length_c   34.96856000
_cell_angle_alpha   121.01693163
_cell_angle_beta   123.06598852
_cell_angle_gamma   73.67142674
_symmetry_Int_Tables_number   1
_chemical_formula_structural   NiGe
_chemical_formula_sum   'Ni144 Ge144'
_cell_volume   9831.04107538
_cell_formula_units_Z   144
loop_
 _symmetry_equiv_pos_site_id
 _symmetry_equiv_pos_as_xyz
  1  'x, y, z'
loop_
 _atom_site_type_symbol
 _atom_site_label
 _atom_site_symmetry_multiplicity
 _atom_site_fract_x
 _atom_site_fract_y
 _atom_site_fract_z
 _atom_site_occupancy
  Ni  Ni0  1  0.16883067  0.10333300  0.00664910  1.0
  Ni  Ni1  1  0.16883067  0.43666633  0.00664910  1.0
  Ni  Ni2  1  0.16883067  0.76999967  0.00664910  1.0
  Ni  Ni3  1  0.50216400  0.10333300  0.00664910  1.0
  Ni  Ni4  1  0.50216400  0.43666633  0.00664910  1.0
  Ni  Ni5  1  0.50216400  0.76999967  0.00664910  1.0
  Ni  Ni6  1  0.83549733  0.10333300  0.00664910  1.0
  Ni  Ni7  1  0.83549733  0.43666633  0.00664910  1.0
  Ni  Ni8  1  0.83549733  0.76999967  0.00664910  1.0
  Ni  Ni9  1  0.16450267  0.23000033  0.09335090  1.0
  Ni  Ni10  1  0.16450267  0.56333367  0.09335090  1.0
  Ni  Ni11  1  0.16450267  0.89666700  0.09335090  1.0
  Ni  Ni12  1  0.49783600  0.23000033  0.09335090  1.0
  Ni  Ni13  1  0.49783600  0.56333367  0.09335090  1.0
  Ni  Ni14  1  0.49783600  0.89666700  0.09335090  1.0
  Ni  Ni15  1  0.83116933  0.23000033  0.09335090  1.0
  Ni  Ni16  1  0.83116933  0.56333367  0.09335090  1.0
  Ni  Ni17  1  0.83116933  0.89666700  0.09335090  1.0
  Ni  Ni18  1  0.00216400  0.06333367  0.04464930  1.0
  Ni  Ni19  1  0.00216400  0.39666700  0.04464930  1.0
  Ni  Ni20  1  0.00216400  0.73000033  0.04464930  1.0
  Ni  Ni21  1  0.33549733  0.06333367  0.04464930  1.0
  Ni  Ni22  1  0.33549733  0.39666700  0.04464930  1.0
  Ni  Ni23  1  0.33549733  0.73000033  0.04464930  1.0
  Ni  Ni24  1  0.66883067  0.06333367  0.04464930  1.0
  Ni  Ni25  1  0.66883067  0.39666700  0.04464930  1.0
  Ni  Ni26  1  0.66883067  0.73000033  0.04464930  1.0
  Ni  Ni27  1  0.33116933  0.26999967  0.05535070  1.0
  Ni  Ni28  1  0.33116933  0.60333300  0.05535070  1.0
  Ni  Ni29  1  0.33116933  0.93666633  0.05535070  1.0
  Ni  Ni30  1  0.66450267  0.26999967  0.05535070  1.0
  Ni  Ni31  1  0.66450267  0.60333300  0.05535070  1.0
  Ni  Ni32  1  0.66450267  0.93666633  0.05535070  1.0
  Ni  Ni33  1  0.99783600  0.26999967  0.05535070  1.0
  Ni  Ni34  1  0.99783600  0.60333300  0.05535070  1.0
  Ni  Ni35  1  0.99783600  0.93666633  0.05535070  1.0
  Ge  Ge36  1  0.22979800  0.30372600  0.08505720  1.0
  Ge  Ge37  1  0.22979800  0.63705933  0.08505720  1.0
  Ge  Ge38  1  0.22979800  0.97039267  0.08505720  1.0
  Ge  Ge39  1  0.56313133  0.30372600  0.08505720  1.0
  Ge  Ge40  1  0.56313133  0.63705933  0.08505720  1.0
  Ge  Ge41  1  0.56313133  0.97039267  0.08505720  1.0
  Ge  Ge42  1  0.89646467  0.30372600  0.08505720  1.0
  Ge  Ge43  1  0.89646467  0.63705933  0.08505720  1.0
  Ge  Ge44  1  0.89646467  0.97039267  0.08505720  1.0
  Ge  Ge45  1  0.10353533  0.02960733  0.01494280  1.0
  Ge  Ge46  1  0.10353533  0.36294067  0.01494280  1.0
  Ge  Ge47  1  0.10353533  0.69627400  0.01494280  1.0
  Ge  Ge48  1  0.43686867  0.02960733  0.01494280  1.0
  Ge  Ge49  1  0.43686867  0.36294067  0.01494280  1.0
  Ge  Ge50  1  0.43686867  0.69627400  0.01494280  1.0
  Ge  Ge51  1  0.77020200  0.02960733  0.01494280  1.0
  Ge  Ge52  1  0.77020200  0.36294067  0.01494280  1.0
  Ge  Ge53  1  0.77020200  0.69627400  0.01494280  1.0
  Ge  Ge54  1  0.06313133  0.19627400  0.00282160  1.0
  Ge  Ge55  1  0.06313133  0.52960733  0.00282160  1.0
  Ge  Ge56  1  0.06313133  0.86294067  0.00282160  1.0
  Ge  Ge57  1  0.39646467  0.19627400  0.00282160  1.0
  Ge  Ge58  1  0.39646467  0.52960733  0.00282160  1.0
  Ge  Ge59  1  0.39646467  0.86294067  0.00282160  1.0
  Ge  Ge60  1  0.72979800  0.19627400  0.00282160  1.0
  Ge  Ge61  1  0.72979800  0.52960733  0.00282160  1.0
  Ge  Ge62  1  0.72979800  0.86294067  0.00282160  1.0
  Ge  Ge63  1  0.27020200  0.13705933  0.09717840  1.0
  Ge  Ge64  1  0.27020200  0.47039267  0.09717840  1.0
  Ge  Ge65  1  0.27020200  0.80372600  0.09717840  1.0
  Ge  Ge66  1  0.60353533  0.13705933  0.09717840  1.0
  Ge  Ge67  1  0.60353533  0.47039267  0.09717840  1.0
  Ge  Ge68  1  0.60353533  0.80372600  0.09717840  1.0
  Ge  Ge69  1  0.93686867  0.13705933  0.09717840  1.0
  Ge  Ge70  1  0.93686867  0.47039267  0.09717840  1.0
  Ge  Ge71  1  0.93686867  0.80372600  0.09717840  1.0
  Ni  Ni72  1  0.16883067  0.10333300  0.10664910  1.0
  Ni  Ni73  1  0.16883067  0.43666633  0.10664910  1.0
  Ni  Ni74  1  0.16883067  0.76999967  0.10664910  1.0
  Ni  Ni75  1  0.50216400  0.10333300  0.10664910  1.0
  Ni  Ni76  1  0.50216400  0.43666633  0.10664910  1.0
  Ni  Ni77  1  0.50216400  0.76999967  0.10664910  1.0
  Ni  Ni78  1  0.83549733  0.10333300  0.10664910  1.0
  Ni  Ni79  1  0.83549733  0.43666633  0.10664910  1.0
  Ni  Ni80  1  0.83549733  0.76999967  0.10664910  1.0
  Ni  Ni81  1  0.16450267  0.23000033  0.19335090  1.0
  Ni  Ni82  1  0.16450267  0.56333367  0.19335090  1.0
  Ni  Ni83  1  0.16450267  0.89666700  0.19335090  1.0
  Ni  Ni84  1  0.49783600  0.23000033  0.19335090  1.0
  Ni  Ni85  1  0.49783600  0.56333367  0.19335090  1.0
  Ni  Ni86  1  0.49783600  0.89666700  0.19335090  1.0
  Ni  Ni87  1  0.83116933  0.23000033  0.19335090  1.0
  Ni  Ni88  1  0.83116933  0.56333367  0.19335090  1.0
  Ni  Ni89  1  0.83116933  0.89666700  0.19335090  1.0
  Ni  Ni90  1  0.00216400  0.06333367  0.14464930  1.0
  Ni  Ni91  1  0.00216400  0.39666700  0.14464930  1.0
  Ni  Ni92  1  0.00216400  0.73000033  0.14464930  1.0
  Ni  Ni93  1  0.33549733  0.06333367  0.14464930  1.0
  Ni  Ni94  1  0.33549733  0.39666700  0.14464930  1.0
  Ni  Ni95  1  0.33549733  0.73000033  0.14464930  1.0
  Ni  Ni96  1  0.66883067  0.06333367  0.14464930  1.0
  Ni  Ni97  1  0.66883067  0.39666700  0.14464930  1.0
  Ni  Ni98  1  0.66883067  0.73000033  0.14464930  1.0
  Ni  Ni99  1  0.33116933  0.26999967  0.15535070  1.0
  Ni  Ni100  1  0.33116933  0.60333300  0.15535070  1.0
  Ni  Ni101  1  0.33116933  0.93666633  0.15535070  1.0
  Ni  Ni102  1  0.66450267  0.26999967  0.15535070  1.0
  Ni  Ni103  1  0.66450267  0.60333300  0.15535070  1.0
  Ni  Ni104  1  0.66450267  0.93666633  0.15535070  1.0
  Ni  Ni105  1  0.99783600  0.26999967  0.15535070  1.0
  Ni  Ni106  1  0.99783600  0.60333300  0.15535070  1.0
  Ni  Ni107  1  0.99783600  0.93666633  0.15535070  1.0
  Ge  Ge108  1  0.22979800  0.30372600  0.18505720  1.0
  Ge  Ge109  1  0.22979800  0.63705933  0.18505720  1.0
  Ge  Ge110  1  0.22979800  0.97039267  0.18505720  1.0
  Ge  Ge111  1  0.56313133  0.30372600  0.18505720  1.0
  Ge  Ge112  1  0.56313133  0.63705933  0.18505720  1.0
  Ge  Ge113  1  0.56313133  0.97039267  0.18505720  1.0
  Ge  Ge114  1  0.89646467  0.30372600  0.18505720  1.0
  Ge  Ge115  1  0.89646467  0.63705933  0.18505720  1.0
  Ge  Ge116  1  0.89646467  0.97039267  0.18505720  1.0
  Ge  Ge117  1  0.10353533  0.02960733  0.11494280  1.0
  Ge  Ge118  1  0.10353533  0.36294067  0.11494280  1.0
  Ge  Ge119  1  0.10353533  0.69627400  0.11494280  1.0
  Ge  Ge120  1  0.43686867  0.02960733  0.11494280  1.0
  Ge  Ge121  1  0.43686867  0.36294067  0.11494280  1.0
  Ge  Ge122  1  0.43686867  0.69627400  0.11494280  1.0
  Ge  Ge123  1  0.77020200  0.02960733  0.11494280  1.0
  Ge  Ge124  1  0.77020200  0.36294067  0.11494280  1.0
  Ge  Ge125  1  0.77020200  0.69627400  0.11494280  1.0
  Ge  Ge126  1  0.06313133  0.19627400  0.10282160  1.0
  Ge  Ge127  1  0.06313133  0.52960733  0.10282160  1.0
  Ge  Ge128  1  0.06313133  0.86294067  0.10282160  1.0
  Ge  Ge129  1  0.39646467  0.19627400  0.10282160  1.0
  Ge  Ge130  1  0.39646467  0.52960733  0.10282160  1.0
  Ge  Ge131  1  0.39646467  0.86294067  0.10282160  1.0
  Ge  Ge132  1  0.72979800  0.19627400  0.10282160  1.0
  Ge  Ge133  1  0.72979800  0.52960733  0.10282160  1.0
  Ge  Ge134  1  0.72979800  0.86294067  0.10282160  1.0
  Ge  Ge135  1  0.27020200  0.13705933  0.19717840  1.0
  Ge  Ge136  1  0.27020200  0.47039267  0.19717840  1.0
  Ge  Ge137  1  0.27020200  0.80372600  0.19717840  1.0
  Ge  Ge138  1  0.60353533  0.13705933  0.19717840  1.0
  Ge  Ge139  1  0.60353533  0.47039267  0.19717840  1.0
  Ge  Ge140  1  0.60353533  0.80372600  0.19717840  1.0
  Ge  Ge141  1  0.93686867  0.13705933  0.19717840  1.0
  Ge  Ge142  1  0.93686867  0.47039267  0.19717840  1.0
  Ge  Ge143  1  0.93686867  0.80372600  0.19717840  1.0
  Ni  Ni144  1  0.16883067  0.10333300  0.20664910  1.0
  Ni  Ni145  1  0.16883067  0.43666633  0.20664910  1.0
  Ni  Ni146  1  0.16883067  0.76999967  0.20664910  1.0
  Ni  Ni147  1  0.50216400  0.10333300  0.20664910  1.0
  Ni  Ni148  1  0.50216400  0.43666633  0.20664910  1.0
  Ni  Ni149  1  0.50216400  0.76999967  0.20664910  1.0
  Ni  Ni150  1  0.83549733  0.10333300  0.20664910  1.0
  Ni  Ni151  1  0.83549733  0.43666633  0.20664910  1.0
  Ni  Ni152  1  0.83549733  0.76999967  0.20664910  1.0
  Ni  Ni153  1  0.16450267  0.23000033  0.29335090  1.0
  Ni  Ni154  1  0.16450267  0.56333367  0.29335090  1.0
  Ni  Ni155  1  0.16450267  0.89666700  0.29335090  1.0
  Ni  Ni156  1  0.49783600  0.23000033  0.29335090  1.0
  Ni  Ni157  1  0.49783600  0.56333367  0.29335090  1.0
  Ni  Ni158  1  0.49783600  0.89666700  0.29335090  1.0
  Ni  Ni159  1  0.83116933  0.23000033  0.29335090  1.0
  Ni  Ni160  1  0.83116933  0.56333367  0.29335090  1.0
  Ni  Ni161  1  0.83116933  0.89666700  0.29335090  1.0
  Ni  Ni162  1  0.00216400  0.06333367  0.24464930  1.0
  Ni  Ni163  1  0.00216400  0.39666700  0.24464930  1.0
  Ni  Ni164  1  0.00216400  0.73000033  0.24464930  1.0
  Ni  Ni165  1  0.33549733  0.06333367  0.24464930  1.0
  Ni  Ni166  1  0.33549733  0.39666700  0.24464930  1.0
  Ni  Ni167  1  0.33549733  0.73000033  0.24464930  1.0
  Ni  Ni168  1  0.66883067  0.06333367  0.24464930  1.0
  Ni  Ni169  1  0.66883067  0.39666700  0.24464930  1.0
  Ni  Ni170  1  0.66883067  0.73000033  0.24464930  1.0
  Ni  Ni171  1  0.33116933  0.26999967  0.25535070  1.0
  Ni  Ni172  1  0.33116933  0.60333300  0.25535070  1.0
  Ni  Ni173  1  0.33116933  0.93666633  0.25535070  1.0
  Ni  Ni174  1  0.66450267  0.26999967  0.25535070  1.0
  Ni  Ni175  1  0.66450267  0.60333300  0.25535070  1.0
  Ni  Ni176  1  0.66450267  0.93666633  0.25535070  1.0
  Ni  Ni177  1  0.99783600  0.26999967  0.25535070  1.0
  Ni  Ni178  1  0.99783600  0.60333300  0.25535070  1.0
  Ni  Ni179  1  0.99783600  0.93666633  0.25535070  1.0
  Ge  Ge180  1  0.22979800  0.30372600  0.28505720  1.0
  Ge  Ge181  1  0.22979800  0.63705933  0.28505720  1.0
  Ge  Ge182  1  0.22979800  0.97039267  0.28505720  1.0
  Ge  Ge183  1  0.56313133  0.30372600  0.28505720  1.0
  Ge  Ge184  1  0.56313133  0.63705933  0.28505720  1.0
  Ge  Ge185  1  0.56313133  0.97039267  0.28505720  1.0
  Ge  Ge186  1  0.89646467  0.30372600  0.28505720  1.0
  Ge  Ge187  1  0.89646467  0.63705933  0.28505720  1.0
  Ge  Ge188  1  0.89646467  0.97039267  0.28505720  1.0
  Ge  Ge189  1  0.10353533  0.02960733  0.21494280  1.0
  Ge  Ge190  1  0.10353533  0.36294067  0.21494280  1.0
  Ge  Ge191  1  0.10353533  0.69627400  0.21494280  1.0
  Ge  Ge192  1  0.43686867  0.02960733  0.21494280  1.0
  Ge  Ge193  1  0.43686867  0.36294067  0.21494280  1.0
  Ge  Ge194  1  0.43686867  0.69627400  0.21494280  1.0
  Ge  Ge195  1  0.77020200  0.02960733  0.21494280  1.0
  Ge  Ge196  1  0.77020200  0.36294067  0.21494280  1.0
  Ge  Ge197  1  0.77020200  0.69627400  0.21494280  1.0
  Ge  Ge198  1  0.06313133  0.19627400  0.20282160  1.0
  Ge  Ge199  1  0.06313133  0.52960733  0.20282160  1.0
  Ge  Ge200  1  0.06313133  0.86294067  0.20282160  1.0
  Ge  Ge201  1  0.39646467  0.19627400  0.20282160  1.0
  Ge  Ge202  1  0.39646467  0.52960733  0.20282160  1.0
  Ge  Ge203  1  0.39646467  0.86294067  0.20282160  1.0
  Ge  Ge204  1  0.72979800  0.19627400  0.20282160  1.0
  Ge  Ge205  1  0.72979800  0.52960733  0.20282160  1.0
  Ge  Ge206  1  0.72979800  0.86294067  0.20282160  1.0
  Ge  Ge207  1  0.27020200  0.13705933  0.29717840  1.0
  Ge  Ge208  1  0.27020200  0.47039267  0.29717840  1.0
  Ge  Ge209  1  0.27020200  0.80372600  0.29717840  1.0
  Ge  Ge210  1  0.60353533  0.13705933  0.29717840  1.0
  Ge  Ge211  1  0.60353533  0.47039267  0.29717840  1.0
  Ge  Ge212  1  0.60353533  0.80372600  0.29717840  1.0
  Ge  Ge213  1  0.93686867  0.13705933  0.29717840  1.0
  Ge  Ge214  1  0.93686867  0.47039267  0.29717840  1.0
  Ge  Ge215  1  0.93686867  0.80372600  0.29717840  1.0
  Ni  Ni216  1  0.16883067  0.10333300  0.30664910  1.0
  Ni  Ni217  1  0.16883067  0.43666633  0.30664910  1.0
  Ni  Ni218  1  0.16883067  0.76999967  0.30664910  1.0
  Ni  Ni219  1  0.50216400  0.10333300  0.30664910  1.0
  Ni  Ni220  1  0.50216400  0.43666633  0.30664910  1.0
  Ni  Ni221  1  0.50216400  0.76999967  0.30664910  1.0
  Ni  Ni222  1  0.83549733  0.10333300  0.30664910  1.0
  Ni  Ni223  1  0.83549733  0.43666633  0.30664910  1.0
  Ni  Ni224  1  0.83549733  0.76999967  0.30664910  1.0
  Ni  Ni225  1  0.16450267  0.23000033  0.39335090  1.0
  Ni  Ni226  1  0.16450267  0.56333367  0.39335090  1.0
  Ni  Ni227  1  0.16450267  0.89666700  0.39335090  1.0
  Ni  Ni228  1  0.49783600  0.23000033  0.39335090  1.0
  Ni  Ni229  1  0.49783600  0.56333367  0.39335090  1.0
  Ni  Ni230  1  0.49783600  0.89666700  0.39335090  1.0
  Ni  Ni231  1  0.83116933  0.23000033  0.39335090  1.0
  Ni  Ni232  1  0.83116933  0.56333367  0.39335090  1.0
  Ni  Ni233  1  0.83116933  0.89666700  0.39335090  1.0
  Ni  Ni234  1  0.00216400  0.06333367  0.34464930  1.0
  Ni  Ni235  1  0.00216400  0.39666700  0.34464930  1.0
  Ni  Ni236  1  0.00216400  0.73000033  0.34464930  1.0
  Ni  Ni237  1  0.33549733  0.06333367  0.34464930  1.0
  Ni  Ni238  1  0.33549733  0.39666700  0.34464930  1.0
  Ni  Ni239  1  0.33549733  0.73000033  0.34464930  1.0
  Ni  Ni240  1  0.66883067  0.06333367  0.34464930  1.0
  Ni  Ni241  1  0.66883067  0.39666700  0.34464930  1.0
  Ni  Ni242  1  0.66883067  0.73000033  0.34464930  1.0
  Ni  Ni243  1  0.33116933  0.26999967  0.35535070  1.0
  Ni  Ni244  1  0.33116933  0.60333300  0.35535070  1.0
  Ni  Ni245  1  0.33116933  0.93666633  0.35535070  1.0
  Ni  Ni246  1  0.66450267  0.26999967  0.35535070  1.0
  Ni  Ni247  1  0.66450267  0.60333300  0.35535070  1.0
  Ni  Ni248  1  0.66450267  0.93666633  0.35535070  1.0
  Ni  Ni249  1  0.99783600  0.26999967  0.35535070  1.0
  Ni  Ni250  1  0.99783600  0.60333300  0.35535070  1.0
  Ni  Ni251  1  0.99783600  0.93666633  0.35535070  1.0
  Ge  Ge252  1  0.22979800  0.30372600  0.38505720  1.0
  Ge  Ge253  1  0.22979800  0.63705933  0.38505720  1.0
  Ge  Ge254  1  0.22979800  0.97039267  0.38505720  1.0
  Ge  Ge255  1  0.56313133  0.30372600  0.38505720  1.0
  Ge  Ge256  1  0.56313133  0.63705933  0.38505720  1.0
  Ge  Ge257  1  0.56313133  0.97039267  0.38505720  1.0
  Ge  Ge258  1  0.89646467  0.30372600  0.38505720  1.0
  Ge  Ge259  1  0.89646467  0.63705933  0.38505720  1.0
  Ge  Ge260  1  0.89646467  0.97039267  0.38505720  1.0
  Ge  Ge261  1  0.10353533  0.02960733  0.31494280  1.0
  Ge  Ge262  1  0.10353533  0.36294067  0.31494280  1.0
  Ge  Ge263  1  0.10353533  0.69627400  0.31494280  1.0
  Ge  Ge264  1  0.43686867  0.02960733  0.31494280  1.0
  Ge  Ge265  1  0.43686867  0.36294067  0.31494280  1.0
  Ge  Ge266  1  0.43686867  0.69627400  0.31494280  1.0
  Ge  Ge267  1  0.77020200  0.02960733  0.31494280  1.0
  Ge  Ge268  1  0.77020200  0.36294067  0.31494280  1.0
  Ge  Ge269  1  0.77020200  0.69627400  0.31494280  1.0
  Ge  Ge270  1  0.06313133  0.19627400  0.30282160  1.0
  Ge  Ge271  1  0.06313133  0.52960733  0.30282160  1.0
  Ge  Ge272  1  0.06313133  0.86294067  0.30282160  1.0
  Ge  Ge273  1  0.39646467  0.19627400  0.30282160  1.0
  Ge  Ge274  1  0.39646467  0.52960733  0.30282160  1.0
  Ge  Ge275  1  0.39646467  0.86294067  0.30282160  1.0
  Ge  Ge276  1  0.72979800  0.19627400  0.30282160  1.0
  Ge  Ge277  1  0.72979800  0.52960733  0.30282160  1.0
  Ge  Ge278  1  0.72979800  0.86294067  0.30282160  1.0
  Ge  Ge279  1  0.27020200  0.13705933  0.39717840  1.0
  Ge  Ge280  1  0.27020200  0.47039267  0.39717840  1.0
  Ge  Ge281  1  0.27020200  0.80372600  0.39717840  1.0
  Ge  Ge282  1  0.60353533  0.13705933  0.39717840  1.0
  Ge  Ge283  1  0.60353533  0.47039267  0.39717840  1.0
  Ge  Ge284  1  0.60353533  0.80372600  0.39717840  1.0
  Ge  Ge285  1  0.93686867  0.13705933  0.39717840  1.0
  Ge  Ge286  1  0.93686867  0.47039267  0.39717840  1.0
  Ge  Ge287  1  0.93686867  0.80372600  0.39717840  1.0
