# generated using pymatgen
data_NiGe
_symmetry_space_group_name_H-M   'P 1'
_cell_length_a   10.49056800
_cell_length_b   16.11339900
_cell_length_c   29.07926000
_cell_angle_alpha   90.00000000
_cell_angle_beta   90.00000000
_cell_angle_gamma   90.00000000
_symmetry_Int_Tables_number   1
_chemical_formula_structural   NiGe
_chemical_formula_sum   'Ni72 Ge72'
_cell_volume   4915.52053769
_cell_formula_units_Z   72
loop_
 _symmetry_equiv_pos_site_id
 _symmetry_equiv_pos_as_xyz
  1  'x, y, z'
loop_
 _atom_site_type_symbol
 _atom_site_label
 _atom_site_symmetry_multiplicity
 _atom_site_fract_x
 _atom_site_fract_y
 _atom_site_fract_z
 _atom_site_occupancy
  Ni  Ni0  1  0.08333333  0.16883067  0.06199980  1.0
  Ni  Ni1  1  0.08333333  0.50216400  0.06199980  1.0
  Ni  Ni2  1  0.08333333  0.83549733  0.06199980  1.0
  Ni  Ni3  1  0.41666667  0.16883067  0.06199980  1.0
  Ni  Ni4  1  0.41666667  0.50216400  0.06199980  1.0
  Ni  Ni5  1  0.41666667  0.83549733  0.06199980  1.0
  Ni  Ni6  1  0.75000000  0.16883067  0.06199980  1.0
  Ni  Ni7  1  0.75000000  0.50216400  0.06199980  1.0
  Ni  Ni8  1  0.75000000  0.83549733  0.06199980  1.0
  Ni  Ni9  1  0.25000000  0.16450267  0.13800020  1.0
  Ni  Ni10  1  0.25000000  0.49783600  0.13800020  1.0
  Ni  Ni11  1  0.25000000  0.83116933  0.13800020  1.0
  Ni  Ni12  1  0.58333333  0.16450267  0.13800020  1.0
  Ni  Ni13  1  0.58333333  0.49783600  0.13800020  1.0
  Ni  Ni14  1  0.58333333  0.83116933  0.13800020  1.0
  Ni  Ni15  1  0.91666667  0.16450267  0.13800020  1.0
  Ni  Ni16  1  0.91666667  0.49783600  0.13800020  1.0
  Ni  Ni17  1  0.91666667  0.83116933  0.13800020  1.0
  Ni  Ni18  1  0.08333333  0.00216400  0.03800020  1.0
  Ni  Ni19  1  0.08333333  0.33549733  0.03800020  1.0
  Ni  Ni20  1  0.08333333  0.66883067  0.03800020  1.0
  Ni  Ni21  1  0.41666667  0.00216400  0.03800020  1.0
  Ni  Ni22  1  0.41666667  0.33549733  0.03800020  1.0
  Ni  Ni23  1  0.41666667  0.66883067  0.03800020  1.0
  Ni  Ni24  1  0.75000000  0.00216400  0.03800020  1.0
  Ni  Ni25  1  0.75000000  0.33549733  0.03800020  1.0
  Ni  Ni26  1  0.75000000  0.66883067  0.03800020  1.0
  Ni  Ni27  1  0.25000000  0.33116933  0.16199980  1.0
  Ni  Ni28  1  0.25000000  0.66450267  0.16199980  1.0
  Ni  Ni29  1  0.25000000  0.99783600  0.16199980  1.0
  Ni  Ni30  1  0.58333333  0.33116933  0.16199980  1.0
  Ni  Ni31  1  0.58333333  0.66450267  0.16199980  1.0
  Ni  Ni32  1  0.58333333  0.99783600  0.16199980  1.0
  Ni  Ni33  1  0.91666667  0.33116933  0.16199980  1.0
  Ni  Ni34  1  0.91666667  0.66450267  0.16199980  1.0
  Ni  Ni35  1  0.91666667  0.99783600  0.16199980  1.0
  Ge  Ge36  1  0.08333333  0.22979800  0.18223560  1.0
  Ge  Ge37  1  0.08333333  0.56313133  0.18223560  1.0
  Ge  Ge38  1  0.08333333  0.89646467  0.18223560  1.0
  Ge  Ge39  1  0.41666667  0.22979800  0.18223560  1.0
  Ge  Ge40  1  0.41666667  0.56313133  0.18223560  1.0
  Ge  Ge41  1  0.41666667  0.89646467  0.18223560  1.0
  Ge  Ge42  1  0.75000000  0.22979800  0.18223560  1.0
  Ge  Ge43  1  0.75000000  0.56313133  0.18223560  1.0
  Ge  Ge44  1  0.75000000  0.89646467  0.18223560  1.0
  Ge  Ge45  1  0.25000000  0.10353533  0.01776440  1.0
  Ge  Ge46  1  0.25000000  0.43686867  0.01776440  1.0
  Ge  Ge47  1  0.25000000  0.77020200  0.01776440  1.0
  Ge  Ge48  1  0.58333333  0.10353533  0.01776440  1.0
  Ge  Ge49  1  0.58333333  0.43686867  0.01776440  1.0
  Ge  Ge50  1  0.58333333  0.77020200  0.01776440  1.0
  Ge  Ge51  1  0.91666667  0.10353533  0.01776440  1.0
  Ge  Ge52  1  0.91666667  0.43686867  0.01776440  1.0
  Ge  Ge53  1  0.91666667  0.77020200  0.01776440  1.0
  Ge  Ge54  1  0.08333333  0.06313133  0.11776440  1.0
  Ge  Ge55  1  0.08333333  0.39646467  0.11776440  1.0
  Ge  Ge56  1  0.08333333  0.72979800  0.11776440  1.0
  Ge  Ge57  1  0.41666667  0.06313133  0.11776440  1.0
  Ge  Ge58  1  0.41666667  0.39646467  0.11776440  1.0
  Ge  Ge59  1  0.41666667  0.72979800  0.11776440  1.0
  Ge  Ge60  1  0.75000000  0.06313133  0.11776440  1.0
  Ge  Ge61  1  0.75000000  0.39646467  0.11776440  1.0
  Ge  Ge62  1  0.75000000  0.72979800  0.11776440  1.0
  Ge  Ge63  1  0.25000000  0.27020200  0.08223560  1.0
  Ge  Ge64  1  0.25000000  0.60353533  0.08223560  1.0
  Ge  Ge65  1  0.25000000  0.93686867  0.08223560  1.0
  Ge  Ge66  1  0.58333333  0.27020200  0.08223560  1.0
  Ge  Ge67  1  0.58333333  0.60353533  0.08223560  1.0
  Ge  Ge68  1  0.58333333  0.93686867  0.08223560  1.0
  Ge  Ge69  1  0.91666667  0.27020200  0.08223560  1.0
  Ge  Ge70  1  0.91666667  0.60353533  0.08223560  1.0
  Ge  Ge71  1  0.91666667  0.93686867  0.08223560  1.0
  Ni  Ni72  1  0.08333333  0.16883067  0.26199980  1.0
  Ni  Ni73  1  0.08333333  0.50216400  0.26199980  1.0
  Ni  Ni74  1  0.08333333  0.83549733  0.26199980  1.0
  Ni  Ni75  1  0.41666667  0.16883067  0.26199980  1.0
  Ni  Ni76  1  0.41666667  0.50216400  0.26199980  1.0
  Ni  Ni77  1  0.41666667  0.83549733  0.26199980  1.0
  Ni  Ni78  1  0.75000000  0.16883067  0.26199980  1.0
  Ni  Ni79  1  0.75000000  0.50216400  0.26199980  1.0
  Ni  Ni80  1  0.75000000  0.83549733  0.26199980  1.0
  Ni  Ni81  1  0.25000000  0.16450267  0.33800020  1.0
  Ni  Ni82  1  0.25000000  0.49783600  0.33800020  1.0
  Ni  Ni83  1  0.25000000  0.83116933  0.33800020  1.0
  Ni  Ni84  1  0.58333333  0.16450267  0.33800020  1.0
  Ni  Ni85  1  0.58333333  0.49783600  0.33800020  1.0
  Ni  Ni86  1  0.58333333  0.83116933  0.33800020  1.0
  Ni  Ni87  1  0.91666667  0.16450267  0.33800020  1.0
  Ni  Ni88  1  0.91666667  0.49783600  0.33800020  1.0
  Ni  Ni89  1  0.91666667  0.83116933  0.33800020  1.0
  Ni  Ni90  1  0.08333333  0.00216400  0.23800020  1.0
  Ni  Ni91  1  0.08333333  0.33549733  0.23800020  1.0
  Ni  Ni92  1  0.08333333  0.66883067  0.23800020  1.0
  Ni  Ni93  1  0.41666667  0.00216400  0.23800020  1.0
  Ni  Ni94  1  0.41666667  0.33549733  0.23800020  1.0
  Ni  Ni95  1  0.41666667  0.66883067  0.23800020  1.0
  Ni  Ni96  1  0.75000000  0.00216400  0.23800020  1.0
  Ni  Ni97  1  0.75000000  0.33549733  0.23800020  1.0
  Ni  Ni98  1  0.75000000  0.66883067  0.23800020  1.0
  Ni  Ni99  1  0.25000000  0.33116933  0.36199980  1.0
  Ni  Ni100  1  0.25000000  0.66450267  0.36199980  1.0
  Ni  Ni101  1  0.25000000  0.99783600  0.36199980  1.0
  Ni  Ni102  1  0.58333333  0.33116933  0.36199980  1.0
  Ni  Ni103  1  0.58333333  0.66450267  0.36199980  1.0
  Ni  Ni104  1  0.58333333  0.99783600  0.36199980  1.0
  Ni  Ni105  1  0.91666667  0.33116933  0.36199980  1.0
  Ni  Ni106  1  0.91666667  0.66450267  0.36199980  1.0
  Ni  Ni107  1  0.91666667  0.99783600  0.36199980  1.0
  Ge  Ge108  1  0.08333333  0.22979800  0.38223560  1.0
  Ge  Ge109  1  0.08333333  0.56313133  0.38223560  1.0
  Ge  Ge110  1  0.08333333  0.89646467  0.38223560  1.0
  Ge  Ge111  1  0.41666667  0.22979800  0.38223560  1.0
  Ge  Ge112  1  0.41666667  0.56313133  0.38223560  1.0
  Ge  Ge113  1  0.41666667  0.89646467  0.38223560  1.0
  Ge  Ge114  1  0.75000000  0.22979800  0.38223560  1.0
  Ge  Ge115  1  0.75000000  0.56313133  0.38223560  1.0
  Ge  Ge116  1  0.75000000  0.89646467  0.38223560  1.0
  Ge  Ge117  1  0.25000000  0.10353533  0.21776440  1.0
  Ge  Ge118  1  0.25000000  0.43686867  0.21776440  1.0
  Ge  Ge119  1  0.25000000  0.77020200  0.21776440  1.0
  Ge  Ge120  1  0.58333333  0.10353533  0.21776440  1.0
  Ge  Ge121  1  0.58333333  0.43686867  0.21776440  1.0
  Ge  Ge122  1  0.58333333  0.77020200  0.21776440  1.0
  Ge  Ge123  1  0.91666667  0.10353533  0.21776440  1.0
  Ge  Ge124  1  0.91666667  0.43686867  0.21776440  1.0
  Ge  Ge125  1  0.91666667  0.77020200  0.21776440  1.0
  Ge  Ge126  1  0.08333333  0.06313133  0.31776440  1.0
  Ge  Ge127  1  0.08333333  0.39646467  0.31776440  1.0
  Ge  Ge128  1  0.08333333  0.72979800  0.31776440  1.0
  Ge  Ge129  1  0.41666667  0.06313133  0.31776440  1.0
  Ge  Ge130  1  0.41666667  0.39646467  0.31776440  1.0
  Ge  Ge131  1  0.41666667  0.72979800  0.31776440  1.0
  Ge  Ge132  1  0.75000000  0.06313133  0.31776440  1.0
  Ge  Ge133  1  0.75000000  0.39646467  0.31776440  1.0
  Ge  Ge134  1  0.75000000  0.72979800  0.31776440  1.0
  Ge  Ge135  1  0.25000000  0.27020200  0.28223560  1.0
  Ge  Ge136  1  0.25000000  0.60353533  0.28223560  1.0
  Ge  Ge137  1  0.25000000  0.93686867  0.28223560  1.0
  Ge  Ge138  1  0.58333333  0.27020200  0.28223560  1.0
  Ge  Ge139  1  0.58333333  0.60353533  0.28223560  1.0
  Ge  Ge140  1  0.58333333  0.93686867  0.28223560  1.0
  Ge  Ge141  1  0.91666667  0.27020200  0.28223560  1.0
  Ge  Ge142  1  0.91666667  0.60353533  0.28223560  1.0
  Ge  Ge143  1  0.91666667  0.93686867  0.28223560  1.0
