# generated using pymatgen
data_NiPb
_symmetry_space_group_name_H-M   'P 1'
_cell_length_a   21.58280215
_cell_length_b   19.94165033
_cell_length_c   58.15057094
_cell_angle_alpha   128.67226956
_cell_angle_beta   150.00000000
_cell_angle_gamma   57.23811989
_symmetry_Int_Tables_number   1
_chemical_formula_structural   NiPb
_chemical_formula_sum   'Ni108 Pb108'
_cell_volume   9770.01901069
_cell_formula_units_Z   108
loop_
 _symmetry_equiv_pos_site_id
 _symmetry_equiv_pos_as_xyz
  1  'x, y, z'
loop_
 _atom_site_type_symbol
 _atom_site_label
 _atom_site_symmetry_multiplicity
 _atom_site_fract_x
 _atom_site_fract_y
 _atom_site_fract_z
 _atom_site_occupancy
  Ni  Ni0  1  0.00000000  0.16666667  0.02678571  1.0
  Ni  Ni1  1  0.00000000  0.50000000  0.02678571  1.0
  Ni  Ni2  1  0.00000000  0.83333333  0.02678571  1.0
  Ni  Ni3  1  0.33333333  0.16666667  0.02678571  1.0
  Ni  Ni4  1  0.33333333  0.50000000  0.02678571  1.0
  Ni  Ni5  1  0.33333333  0.83333333  0.02678571  1.0
  Ni  Ni6  1  0.66666667  0.16666667  0.02678571  1.0
  Ni  Ni7  1  0.66666667  0.50000000  0.02678571  1.0
  Ni  Ni8  1  0.66666667  0.83333333  0.02678571  1.0
  Ni  Ni9  1  0.00000000  0.00000000  0.06250000  1.0
  Ni  Ni10  1  0.00000000  0.33333333  0.06250000  1.0
  Ni  Ni11  1  0.00000000  0.66666667  0.06250000  1.0
  Ni  Ni12  1  0.33333333  0.00000000  0.06250000  1.0
  Ni  Ni13  1  0.33333333  0.33333333  0.06250000  1.0
  Ni  Ni14  1  0.33333333  0.66666667  0.06250000  1.0
  Ni  Ni15  1  0.66666667  0.00000000  0.06250000  1.0
  Ni  Ni16  1  0.66666667  0.33333333  0.06250000  1.0
  Ni  Ni17  1  0.66666667  0.66666667  0.06250000  1.0
  Pb  Pb18  1  0.11111111  0.25000000  0.04464286  1.0
  Pb  Pb19  1  0.11111111  0.58333333  0.04464286  1.0
  Pb  Pb20  1  0.11111111  0.91666667  0.04464286  1.0
  Pb  Pb21  1  0.44444444  0.25000000  0.04464286  1.0
  Pb  Pb22  1  0.44444444  0.58333333  0.04464286  1.0
  Pb  Pb23  1  0.44444444  0.91666667  0.04464286  1.0
  Pb  Pb24  1  0.77777778  0.25000000  0.04464286  1.0
  Pb  Pb25  1  0.77777778  0.58333333  0.04464286  1.0
  Pb  Pb26  1  0.77777778  0.91666667  0.04464286  1.0
  Pb  Pb27  1  0.22222222  0.08333333  0.00892857  1.0
  Pb  Pb28  1  0.22222222  0.41666667  0.00892857  1.0
  Pb  Pb29  1  0.22222222  0.75000000  0.00892857  1.0
  Pb  Pb30  1  0.55555556  0.08333333  0.00892857  1.0
  Pb  Pb31  1  0.55555556  0.41666667  0.00892857  1.0
  Pb  Pb32  1  0.55555556  0.75000000  0.00892857  1.0
  Pb  Pb33  1  0.88888889  0.08333333  0.00892857  1.0
  Pb  Pb34  1  0.88888889  0.41666667  0.00892857  1.0
  Pb  Pb35  1  0.88888889  0.75000000  0.00892857  1.0
  Ni  Ni36  1  0.00000000  0.16666667  0.09821429  1.0
  Ni  Ni37  1  0.00000000  0.50000000  0.09821429  1.0
  Ni  Ni38  1  0.00000000  0.83333333  0.09821429  1.0
  Ni  Ni39  1  0.33333333  0.16666667  0.09821429  1.0
  Ni  Ni40  1  0.33333333  0.50000000  0.09821429  1.0
  Ni  Ni41  1  0.33333333  0.83333333  0.09821429  1.0
  Ni  Ni42  1  0.66666667  0.16666667  0.09821429  1.0
  Ni  Ni43  1  0.66666667  0.50000000  0.09821429  1.0
  Ni  Ni44  1  0.66666667  0.83333333  0.09821429  1.0
  Ni  Ni45  1  0.00000000  0.00000000  0.13392857  1.0
  Ni  Ni46  1  0.00000000  0.33333333  0.13392857  1.0
  Ni  Ni47  1  0.00000000  0.66666667  0.13392857  1.0
  Ni  Ni48  1  0.33333333  0.00000000  0.13392857  1.0
  Ni  Ni49  1  0.33333333  0.33333333  0.13392857  1.0
  Ni  Ni50  1  0.33333333  0.66666667  0.13392857  1.0
  Ni  Ni51  1  0.66666667  0.00000000  0.13392857  1.0
  Ni  Ni52  1  0.66666667  0.33333333  0.13392857  1.0
  Ni  Ni53  1  0.66666667  0.66666667  0.13392857  1.0
  Pb  Pb54  1  0.11111111  0.25000000  0.11607143  1.0
  Pb  Pb55  1  0.11111111  0.58333333  0.11607143  1.0
  Pb  Pb56  1  0.11111111  0.91666667  0.11607143  1.0
  Pb  Pb57  1  0.44444444  0.25000000  0.11607143  1.0
  Pb  Pb58  1  0.44444444  0.58333333  0.11607143  1.0
  Pb  Pb59  1  0.44444444  0.91666667  0.11607143  1.0
  Pb  Pb60  1  0.77777778  0.25000000  0.11607143  1.0
  Pb  Pb61  1  0.77777778  0.58333333  0.11607143  1.0
  Pb  Pb62  1  0.77777778  0.91666667  0.11607143  1.0
  Pb  Pb63  1  0.22222222  0.08333333  0.08035714  1.0
  Pb  Pb64  1  0.22222222  0.41666667  0.08035714  1.0
  Pb  Pb65  1  0.22222222  0.75000000  0.08035714  1.0
  Pb  Pb66  1  0.55555556  0.08333333  0.08035714  1.0
  Pb  Pb67  1  0.55555556  0.41666667  0.08035714  1.0
  Pb  Pb68  1  0.55555556  0.75000000  0.08035714  1.0
  Pb  Pb69  1  0.88888889  0.08333333  0.08035714  1.0
  Pb  Pb70  1  0.88888889  0.41666667  0.08035714  1.0
  Pb  Pb71  1  0.88888889  0.75000000  0.08035714  1.0
  Ni  Ni72  1  0.00000000  0.16666667  0.16964286  1.0
  Ni  Ni73  1  0.00000000  0.50000000  0.16964286  1.0
  Ni  Ni74  1  0.00000000  0.83333333  0.16964286  1.0
  Ni  Ni75  1  0.33333333  0.16666667  0.16964286  1.0
  Ni  Ni76  1  0.33333333  0.50000000  0.16964286  1.0
  Ni  Ni77  1  0.33333333  0.83333333  0.16964286  1.0
  Ni  Ni78  1  0.66666667  0.16666667  0.16964286  1.0
  Ni  Ni79  1  0.66666667  0.50000000  0.16964286  1.0
  Ni  Ni80  1  0.66666667  0.83333333  0.16964286  1.0
  Ni  Ni81  1  0.00000000  0.00000000  0.20535714  1.0
  Ni  Ni82  1  0.00000000  0.33333333  0.20535714  1.0
  Ni  Ni83  1  0.00000000  0.66666667  0.20535714  1.0
  Ni  Ni84  1  0.33333333  0.00000000  0.20535714  1.0
  Ni  Ni85  1  0.33333333  0.33333333  0.20535714  1.0
  Ni  Ni86  1  0.33333333  0.66666667  0.20535714  1.0
  Ni  Ni87  1  0.66666667  0.00000000  0.20535714  1.0
  Ni  Ni88  1  0.66666667  0.33333333  0.20535714  1.0
  Ni  Ni89  1  0.66666667  0.66666667  0.20535714  1.0
  Pb  Pb90  1  0.11111111  0.25000000  0.18750000  1.0
  Pb  Pb91  1  0.11111111  0.58333333  0.18750000  1.0
  Pb  Pb92  1  0.11111111  0.91666667  0.18750000  1.0
  Pb  Pb93  1  0.44444444  0.25000000  0.18750000  1.0
  Pb  Pb94  1  0.44444444  0.58333333  0.18750000  1.0
  Pb  Pb95  1  0.44444444  0.91666667  0.18750000  1.0
  Pb  Pb96  1  0.77777778  0.25000000  0.18750000  1.0
  Pb  Pb97  1  0.77777778  0.58333333  0.18750000  1.0
  Pb  Pb98  1  0.77777778  0.91666667  0.18750000  1.0
  Pb  Pb99  1  0.22222222  0.08333333  0.15178571  1.0
  Pb  Pb100  1  0.22222222  0.41666667  0.15178571  1.0
  Pb  Pb101  1  0.22222222  0.75000000  0.15178571  1.0
  Pb  Pb102  1  0.55555556  0.08333333  0.15178571  1.0
  Pb  Pb103  1  0.55555556  0.41666667  0.15178571  1.0
  Pb  Pb104  1  0.55555556  0.75000000  0.15178571  1.0
  Pb  Pb105  1  0.88888889  0.08333333  0.15178571  1.0
  Pb  Pb106  1  0.88888889  0.41666667  0.15178571  1.0
  Pb  Pb107  1  0.88888889  0.75000000  0.15178571  1.0
  Ni  Ni108  1  0.00000000  0.16666667  0.24107143  1.0
  Ni  Ni109  1  0.00000000  0.50000000  0.24107143  1.0
  Ni  Ni110  1  0.00000000  0.83333333  0.24107143  1.0
  Ni  Ni111  1  0.33333333  0.16666667  0.24107143  1.0
  Ni  Ni112  1  0.33333333  0.50000000  0.24107143  1.0
  Ni  Ni113  1  0.33333333  0.83333333  0.24107143  1.0
  Ni  Ni114  1  0.66666667  0.16666667  0.24107143  1.0
  Ni  Ni115  1  0.66666667  0.50000000  0.24107143  1.0
  Ni  Ni116  1  0.66666667  0.83333333  0.24107143  1.0
  Ni  Ni117  1  0.00000000  0.00000000  0.27678571  1.0
  Ni  Ni118  1  0.00000000  0.33333333  0.27678571  1.0
  Ni  Ni119  1  0.00000000  0.66666667  0.27678571  1.0
  Ni  Ni120  1  0.33333333  0.00000000  0.27678571  1.0
  Ni  Ni121  1  0.33333333  0.33333333  0.27678571  1.0
  Ni  Ni122  1  0.33333333  0.66666667  0.27678571  1.0
  Ni  Ni123  1  0.66666667  0.00000000  0.27678571  1.0
  Ni  Ni124  1  0.66666667  0.33333333  0.27678571  1.0
  Ni  Ni125  1  0.66666667  0.66666667  0.27678571  1.0
  Pb  Pb126  1  0.11111111  0.25000000  0.25892857  1.0
  Pb  Pb127  1  0.11111111  0.58333333  0.25892857  1.0
  Pb  Pb128  1  0.11111111  0.91666667  0.25892857  1.0
  Pb  Pb129  1  0.44444444  0.25000000  0.25892857  1.0
  Pb  Pb130  1  0.44444444  0.58333333  0.25892857  1.0
  Pb  Pb131  1  0.44444444  0.91666667  0.25892857  1.0
  Pb  Pb132  1  0.77777778  0.25000000  0.25892857  1.0
  Pb  Pb133  1  0.77777778  0.58333333  0.25892857  1.0
  Pb  Pb134  1  0.77777778  0.91666667  0.25892857  1.0
  Pb  Pb135  1  0.22222222  0.08333333  0.22321429  1.0
  Pb  Pb136  1  0.22222222  0.41666667  0.22321429  1.0
  Pb  Pb137  1  0.22222222  0.75000000  0.22321429  1.0
  Pb  Pb138  1  0.55555556  0.08333333  0.22321429  1.0
  Pb  Pb139  1  0.55555556  0.41666667  0.22321429  1.0
  Pb  Pb140  1  0.55555556  0.75000000  0.22321429  1.0
  Pb  Pb141  1  0.88888889  0.08333333  0.22321429  1.0
  Pb  Pb142  1  0.88888889  0.41666667  0.22321429  1.0
  Pb  Pb143  1  0.88888889  0.75000000  0.22321429  1.0
  Ni  Ni144  1  0.00000000  0.16666667  0.31250000  1.0
  Ni  Ni145  1  0.00000000  0.50000000  0.31250000  1.0
  Ni  Ni146  1  0.00000000  0.83333333  0.31250000  1.0
  Ni  Ni147  1  0.33333333  0.16666667  0.31250000  1.0
  Ni  Ni148  1  0.33333333  0.50000000  0.31250000  1.0
  Ni  Ni149  1  0.33333333  0.83333333  0.31250000  1.0
  Ni  Ni150  1  0.66666667  0.16666667  0.31250000  1.0
  Ni  Ni151  1  0.66666667  0.50000000  0.31250000  1.0
  Ni  Ni152  1  0.66666667  0.83333333  0.31250000  1.0
  Ni  Ni153  1  0.00000000  0.00000000  0.34821429  1.0
  Ni  Ni154  1  0.00000000  0.33333333  0.34821429  1.0
  Ni  Ni155  1  0.00000000  0.66666667  0.34821429  1.0
  Ni  Ni156  1  0.33333333  0.00000000  0.34821429  1.0
  Ni  Ni157  1  0.33333333  0.33333333  0.34821429  1.0
  Ni  Ni158  1  0.33333333  0.66666667  0.34821429  1.0
  Ni  Ni159  1  0.66666667  0.00000000  0.34821429  1.0
  Ni  Ni160  1  0.66666667  0.33333333  0.34821429  1.0
  Ni  Ni161  1  0.66666667  0.66666667  0.34821429  1.0
  Pb  Pb162  1  0.11111111  0.25000000  0.33035714  1.0
  Pb  Pb163  1  0.11111111  0.58333333  0.33035714  1.0
  Pb  Pb164  1  0.11111111  0.91666667  0.33035714  1.0
  Pb  Pb165  1  0.44444444  0.25000000  0.33035714  1.0
  Pb  Pb166  1  0.44444444  0.58333333  0.33035714  1.0
  Pb  Pb167  1  0.44444444  0.91666667  0.33035714  1.0
  Pb  Pb168  1  0.77777778  0.25000000  0.33035714  1.0
  Pb  Pb169  1  0.77777778  0.58333333  0.33035714  1.0
  Pb  Pb170  1  0.77777778  0.91666667  0.33035714  1.0
  Pb  Pb171  1  0.22222222  0.08333333  0.29464286  1.0
  Pb  Pb172  1  0.22222222  0.41666667  0.29464286  1.0
  Pb  Pb173  1  0.22222222  0.75000000  0.29464286  1.0
  Pb  Pb174  1  0.55555556  0.08333333  0.29464286  1.0
  Pb  Pb175  1  0.55555556  0.41666667  0.29464286  1.0
  Pb  Pb176  1  0.55555556  0.75000000  0.29464286  1.0
  Pb  Pb177  1  0.88888889  0.08333333  0.29464286  1.0
  Pb  Pb178  1  0.88888889  0.41666667  0.29464286  1.0
  Pb  Pb179  1  0.88888889  0.75000000  0.29464286  1.0
  Ni  Ni180  1  0.00000000  0.16666667  0.38392857  1.0
  Ni  Ni181  1  0.00000000  0.50000000  0.38392857  1.0
  Ni  Ni182  1  0.00000000  0.83333333  0.38392857  1.0
  Ni  Ni183  1  0.33333333  0.16666667  0.38392857  1.0
  Ni  Ni184  1  0.33333333  0.50000000  0.38392857  1.0
  Ni  Ni185  1  0.33333333  0.83333333  0.38392857  1.0
  Ni  Ni186  1  0.66666667  0.16666667  0.38392857  1.0
  Ni  Ni187  1  0.66666667  0.50000000  0.38392857  1.0
  Ni  Ni188  1  0.66666667  0.83333333  0.38392857  1.0
  Ni  Ni189  1  0.00000000  0.00000000  0.41964286  1.0
  Ni  Ni190  1  0.00000000  0.33333333  0.41964286  1.0
  Ni  Ni191  1  0.00000000  0.66666667  0.41964286  1.0
  Ni  Ni192  1  0.33333333  0.00000000  0.41964286  1.0
  Ni  Ni193  1  0.33333333  0.33333333  0.41964286  1.0
  Ni  Ni194  1  0.33333333  0.66666667  0.41964286  1.0
  Ni  Ni195  1  0.66666667  0.00000000  0.41964286  1.0
  Ni  Ni196  1  0.66666667  0.33333333  0.41964286  1.0
  Ni  Ni197  1  0.66666667  0.66666667  0.41964286  1.0
  Pb  Pb198  1  0.11111111  0.25000000  0.40178571  1.0
  Pb  Pb199  1  0.11111111  0.58333333  0.40178571  1.0
  Pb  Pb200  1  0.11111111  0.91666667  0.40178571  1.0
  Pb  Pb201  1  0.44444444  0.25000000  0.40178571  1.0
  Pb  Pb202  1  0.44444444  0.58333333  0.40178571  1.0
  Pb  Pb203  1  0.44444444  0.91666667  0.40178571  1.0
  Pb  Pb204  1  0.77777778  0.25000000  0.40178571  1.0
  Pb  Pb205  1  0.77777778  0.58333333  0.40178571  1.0
  Pb  Pb206  1  0.77777778  0.91666667  0.40178571  1.0
  Pb  Pb207  1  0.22222222  0.08333333  0.36607143  1.0
  Pb  Pb208  1  0.22222222  0.41666667  0.36607143  1.0
  Pb  Pb209  1  0.22222222  0.75000000  0.36607143  1.0
  Pb  Pb210  1  0.55555556  0.08333333  0.36607143  1.0
  Pb  Pb211  1  0.55555556  0.41666667  0.36607143  1.0
  Pb  Pb212  1  0.55555556  0.75000000  0.36607143  1.0
  Pb  Pb213  1  0.88888889  0.08333333  0.36607143  1.0
  Pb  Pb214  1  0.88888889  0.41666667  0.36607143  1.0
  Pb  Pb215  1  0.88888889  0.75000000  0.36607143  1.0
