# generated using pymatgen
data_NiPb
_symmetry_space_group_name_H-M   'P 1'
_cell_length_a   19.94165033
_cell_length_b   26.61229635
_cell_length_c   26.45336042
_cell_angle_alpha   96.07259552
_cell_angle_beta   90.34351853
_cell_angle_gamma   91.02444927
_symmetry_Int_Tables_number   1
_chemical_formula_structural   NiPb
_chemical_formula_sum   'Ni144 Pb144'
_cell_volume   13957.17001527
_cell_formula_units_Z   144
loop_
 _symmetry_equiv_pos_site_id
 _symmetry_equiv_pos_as_xyz
  1  'x, y, z'
loop_
 _atom_site_type_symbol
 _atom_site_label
 _atom_site_symmetry_multiplicity
 _atom_site_fract_x
 _atom_site_fract_y
 _atom_site_fract_z
 _atom_site_occupancy
  Ni  Ni0  1  0.24027778  0.06875000  0.01458333  1.0
  Ni  Ni1  1  0.24027778  0.40208333  0.01458333  1.0
  Ni  Ni2  1  0.24027778  0.73541667  0.01458333  1.0
  Ni  Ni3  1  0.57361111  0.06875000  0.01458333  1.0
  Ni  Ni4  1  0.57361111  0.40208333  0.01458333  1.0
  Ni  Ni5  1  0.57361111  0.73541667  0.01458333  1.0
  Ni  Ni6  1  0.90694444  0.06875000  0.01458333  1.0
  Ni  Ni7  1  0.90694444  0.40208333  0.01458333  1.0
  Ni  Ni8  1  0.90694444  0.73541667  0.01458333  1.0
  Ni  Ni9  1  0.04027778  0.18541667  0.06458333  1.0
  Ni  Ni10  1  0.04027778  0.51875000  0.06458333  1.0
  Ni  Ni11  1  0.04027778  0.85208333  0.06458333  1.0
  Ni  Ni12  1  0.37361111  0.18541667  0.06458333  1.0
  Ni  Ni13  1  0.37361111  0.51875000  0.06458333  1.0
  Ni  Ni14  1  0.37361111  0.85208333  0.06458333  1.0
  Ni  Ni15  1  0.70694444  0.18541667  0.06458333  1.0
  Ni  Ni16  1  0.70694444  0.51875000  0.06458333  1.0
  Ni  Ni17  1  0.70694444  0.85208333  0.06458333  1.0
  Ni  Ni18  1  0.27361111  0.24375000  0.08958333  1.0
  Ni  Ni19  1  0.27361111  0.57708333  0.08958333  1.0
  Ni  Ni20  1  0.27361111  0.91041667  0.08958333  1.0
  Ni  Ni21  1  0.60694444  0.24375000  0.08958333  1.0
  Ni  Ni22  1  0.60694444  0.57708333  0.08958333  1.0
  Ni  Ni23  1  0.60694444  0.91041667  0.08958333  1.0
  Ni  Ni24  1  0.94027778  0.24375000  0.08958333  1.0
  Ni  Ni25  1  0.94027778  0.57708333  0.08958333  1.0
  Ni  Ni26  1  0.94027778  0.91041667  0.08958333  1.0
  Ni  Ni27  1  0.14027778  0.12708333  0.03958333  1.0
  Ni  Ni28  1  0.14027778  0.46041667  0.03958333  1.0
  Ni  Ni29  1  0.14027778  0.79375000  0.03958333  1.0
  Ni  Ni30  1  0.47361111  0.12708333  0.03958333  1.0
  Ni  Ni31  1  0.47361111  0.46041667  0.03958333  1.0
  Ni  Ni32  1  0.47361111  0.79375000  0.03958333  1.0
  Ni  Ni33  1  0.80694444  0.12708333  0.03958333  1.0
  Ni  Ni34  1  0.80694444  0.46041667  0.03958333  1.0
  Ni  Ni35  1  0.80694444  0.79375000  0.03958333  1.0
  Ni  Ni36  1  0.17361111  0.30208333  0.11458333  1.0
  Ni  Ni37  1  0.17361111  0.63541667  0.11458333  1.0
  Ni  Ni38  1  0.17361111  0.96875000  0.11458333  1.0
  Ni  Ni39  1  0.50694444  0.30208333  0.11458333  1.0
  Ni  Ni40  1  0.50694444  0.63541667  0.11458333  1.0
  Ni  Ni41  1  0.50694444  0.96875000  0.11458333  1.0
  Ni  Ni42  1  0.84027778  0.30208333  0.11458333  1.0
  Ni  Ni43  1  0.84027778  0.63541667  0.11458333  1.0
  Ni  Ni44  1  0.84027778  0.96875000  0.11458333  1.0
  Ni  Ni45  1  0.30694444  0.08541667  0.16458333  1.0
  Ni  Ni46  1  0.30694444  0.41875000  0.16458333  1.0
  Ni  Ni47  1  0.30694444  0.75208333  0.16458333  1.0
  Ni  Ni48  1  0.64027778  0.08541667  0.16458333  1.0
  Ni  Ni49  1  0.64027778  0.41875000  0.16458333  1.0
  Ni  Ni50  1  0.64027778  0.75208333  0.16458333  1.0
  Ni  Ni51  1  0.97361111  0.08541667  0.16458333  1.0
  Ni  Ni52  1  0.97361111  0.41875000  0.16458333  1.0
  Ni  Ni53  1  0.97361111  0.75208333  0.16458333  1.0
  Ni  Ni54  1  0.20694444  0.14375000  0.18958333  1.0
  Ni  Ni55  1  0.20694444  0.47708333  0.18958333  1.0
  Ni  Ni56  1  0.20694444  0.81041667  0.18958333  1.0
  Ni  Ni57  1  0.54027778  0.14375000  0.18958333  1.0
  Ni  Ni58  1  0.54027778  0.47708333  0.18958333  1.0
  Ni  Ni59  1  0.54027778  0.81041667  0.18958333  1.0
  Ni  Ni60  1  0.87361111  0.14375000  0.18958333  1.0
  Ni  Ni61  1  0.87361111  0.47708333  0.18958333  1.0
  Ni  Ni62  1  0.87361111  0.81041667  0.18958333  1.0
  Ni  Ni63  1  0.07361111  0.02708333  0.13958333  1.0
  Ni  Ni64  1  0.07361111  0.36041667  0.13958333  1.0
  Ni  Ni65  1  0.07361111  0.69375000  0.13958333  1.0
  Ni  Ni66  1  0.40694444  0.02708333  0.13958333  1.0
  Ni  Ni67  1  0.40694444  0.36041667  0.13958333  1.0
  Ni  Ni68  1  0.40694444  0.69375000  0.13958333  1.0
  Ni  Ni69  1  0.74027778  0.02708333  0.13958333  1.0
  Ni  Ni70  1  0.74027778  0.36041667  0.13958333  1.0
  Ni  Ni71  1  0.74027778  0.69375000  0.13958333  1.0
  Ni  Ni72  1  0.10694444  0.20208333  0.21458333  1.0
  Ni  Ni73  1  0.10694444  0.53541667  0.21458333  1.0
  Ni  Ni74  1  0.10694444  0.86875000  0.21458333  1.0
  Ni  Ni75  1  0.44027778  0.20208333  0.21458333  1.0
  Ni  Ni76  1  0.44027778  0.53541667  0.21458333  1.0
  Ni  Ni77  1  0.44027778  0.86875000  0.21458333  1.0
  Ni  Ni78  1  0.77361111  0.20208333  0.21458333  1.0
  Ni  Ni79  1  0.77361111  0.53541667  0.21458333  1.0
  Ni  Ni80  1  0.77361111  0.86875000  0.21458333  1.0
  Ni  Ni81  1  0.24027778  0.31875000  0.26458333  1.0
  Ni  Ni82  1  0.24027778  0.65208333  0.26458333  1.0
  Ni  Ni83  1  0.24027778  0.98541667  0.26458333  1.0
  Ni  Ni84  1  0.57361111  0.31875000  0.26458333  1.0
  Ni  Ni85  1  0.57361111  0.65208333  0.26458333  1.0
  Ni  Ni86  1  0.57361111  0.98541667  0.26458333  1.0
  Ni  Ni87  1  0.90694444  0.31875000  0.26458333  1.0
  Ni  Ni88  1  0.90694444  0.65208333  0.26458333  1.0
  Ni  Ni89  1  0.90694444  0.98541667  0.26458333  1.0
  Ni  Ni90  1  0.14027778  0.04375000  0.28958333  1.0
  Ni  Ni91  1  0.14027778  0.37708333  0.28958333  1.0
  Ni  Ni92  1  0.14027778  0.71041667  0.28958333  1.0
  Ni  Ni93  1  0.47361111  0.04375000  0.28958333  1.0
  Ni  Ni94  1  0.47361111  0.37708333  0.28958333  1.0
  Ni  Ni95  1  0.47361111  0.71041667  0.28958333  1.0
  Ni  Ni96  1  0.80694444  0.04375000  0.28958333  1.0
  Ni  Ni97  1  0.80694444  0.37708333  0.28958333  1.0
  Ni  Ni98  1  0.80694444  0.71041667  0.28958333  1.0
  Ni  Ni99  1  0.00694444  0.26041667  0.23958333  1.0
  Ni  Ni100  1  0.00694444  0.59375000  0.23958333  1.0
  Ni  Ni101  1  0.00694444  0.92708333  0.23958333  1.0
  Ni  Ni102  1  0.34027778  0.26041667  0.23958333  1.0
  Ni  Ni103  1  0.34027778  0.59375000  0.23958333  1.0
  Ni  Ni104  1  0.34027778  0.92708333  0.23958333  1.0
  Ni  Ni105  1  0.67361111  0.26041667  0.23958333  1.0
  Ni  Ni106  1  0.67361111  0.59375000  0.23958333  1.0
  Ni  Ni107  1  0.67361111  0.92708333  0.23958333  1.0
  Ni  Ni108  1  0.04027778  0.10208333  0.31458333  1.0
  Ni  Ni109  1  0.04027778  0.43541667  0.31458333  1.0
  Ni  Ni110  1  0.04027778  0.76875000  0.31458333  1.0
  Ni  Ni111  1  0.37361111  0.10208333  0.31458333  1.0
  Ni  Ni112  1  0.37361111  0.43541667  0.31458333  1.0
  Ni  Ni113  1  0.37361111  0.76875000  0.31458333  1.0
  Ni  Ni114  1  0.70694444  0.10208333  0.31458333  1.0
  Ni  Ni115  1  0.70694444  0.43541667  0.31458333  1.0
  Ni  Ni116  1  0.70694444  0.76875000  0.31458333  1.0
  Ni  Ni117  1  0.17361111  0.21875000  0.36458333  1.0
  Ni  Ni118  1  0.17361111  0.55208333  0.36458333  1.0
  Ni  Ni119  1  0.17361111  0.88541667  0.36458333  1.0
  Ni  Ni120  1  0.50694444  0.21875000  0.36458333  1.0
  Ni  Ni121  1  0.50694444  0.55208333  0.36458333  1.0
  Ni  Ni122  1  0.50694444  0.88541667  0.36458333  1.0
  Ni  Ni123  1  0.84027778  0.21875000  0.36458333  1.0
  Ni  Ni124  1  0.84027778  0.55208333  0.36458333  1.0
  Ni  Ni125  1  0.84027778  0.88541667  0.36458333  1.0
  Ni  Ni126  1  0.07361111  0.27708333  0.38958333  1.0
  Ni  Ni127  1  0.07361111  0.61041667  0.38958333  1.0
  Ni  Ni128  1  0.07361111  0.94375000  0.38958333  1.0
  Ni  Ni129  1  0.40694444  0.27708333  0.38958333  1.0
  Ni  Ni130  1  0.40694444  0.61041667  0.38958333  1.0
  Ni  Ni131  1  0.40694444  0.94375000  0.38958333  1.0
  Ni  Ni132  1  0.74027778  0.27708333  0.38958333  1.0
  Ni  Ni133  1  0.74027778  0.61041667  0.38958333  1.0
  Ni  Ni134  1  0.74027778  0.94375000  0.38958333  1.0
  Ni  Ni135  1  0.27361111  0.16041667  0.33958333  1.0
  Ni  Ni136  1  0.27361111  0.49375000  0.33958333  1.0
  Ni  Ni137  1  0.27361111  0.82708333  0.33958333  1.0
  Ni  Ni138  1  0.60694444  0.16041667  0.33958333  1.0
  Ni  Ni139  1  0.60694444  0.49375000  0.33958333  1.0
  Ni  Ni140  1  0.60694444  0.82708333  0.33958333  1.0
  Ni  Ni141  1  0.94027778  0.16041667  0.33958333  1.0
  Ni  Ni142  1  0.94027778  0.49375000  0.33958333  1.0
  Ni  Ni143  1  0.94027778  0.82708333  0.33958333  1.0
  Pb  Pb144  1  0.25694444  0.17013889  0.01041667  1.0
  Pb  Pb145  1  0.25694444  0.50347222  0.01041667  1.0
  Pb  Pb146  1  0.25694444  0.83680556  0.01041667  1.0
  Pb  Pb147  1  0.59027778  0.17013889  0.01041667  1.0
  Pb  Pb148  1  0.59027778  0.50347222  0.01041667  1.0
  Pb  Pb149  1  0.59027778  0.83680556  0.01041667  1.0
  Pb  Pb150  1  0.92361111  0.17013889  0.01041667  1.0
  Pb  Pb151  1  0.92361111  0.50347222  0.01041667  1.0
  Pb  Pb152  1  0.92361111  0.83680556  0.01041667  1.0
  Pb  Pb153  1  0.05694444  0.28680556  0.06041667  1.0
  Pb  Pb154  1  0.05694444  0.62013889  0.06041667  1.0
  Pb  Pb155  1  0.05694444  0.95347222  0.06041667  1.0
  Pb  Pb156  1  0.39027778  0.28680556  0.06041667  1.0
  Pb  Pb157  1  0.39027778  0.62013889  0.06041667  1.0
  Pb  Pb158  1  0.39027778  0.95347222  0.06041667  1.0
  Pb  Pb159  1  0.72361111  0.28680556  0.06041667  1.0
  Pb  Pb160  1  0.72361111  0.62013889  0.06041667  1.0
  Pb  Pb161  1  0.72361111  0.95347222  0.06041667  1.0
  Pb  Pb162  1  0.02361111  0.08402778  0.06875000  1.0
  Pb  Pb163  1  0.02361111  0.41736111  0.06875000  1.0
  Pb  Pb164  1  0.02361111  0.75069444  0.06875000  1.0
  Pb  Pb165  1  0.35694444  0.08402778  0.06875000  1.0
  Pb  Pb166  1  0.35694444  0.41736111  0.06875000  1.0
  Pb  Pb167  1  0.35694444  0.75069444  0.06875000  1.0
  Pb  Pb168  1  0.69027778  0.08402778  0.06875000  1.0
  Pb  Pb169  1  0.69027778  0.41736111  0.06875000  1.0
  Pb  Pb170  1  0.69027778  0.75069444  0.06875000  1.0
  Pb  Pb171  1  0.22361111  0.30069444  0.01875000  1.0
  Pb  Pb172  1  0.22361111  0.63402778  0.01875000  1.0
  Pb  Pb173  1  0.22361111  0.96736111  0.01875000  1.0
  Pb  Pb174  1  0.55694444  0.30069444  0.01875000  1.0
  Pb  Pb175  1  0.55694444  0.63402778  0.01875000  1.0
  Pb  Pb176  1  0.55694444  0.96736111  0.01875000  1.0
  Pb  Pb177  1  0.89027778  0.30069444  0.01875000  1.0
  Pb  Pb178  1  0.89027778  0.63402778  0.01875000  1.0
  Pb  Pb179  1  0.89027778  0.96736111  0.01875000  1.0
  Pb  Pb180  1  0.19027778  0.07013889  0.11041667  1.0
  Pb  Pb181  1  0.19027778  0.40347222  0.11041667  1.0
  Pb  Pb182  1  0.19027778  0.73680556  0.11041667  1.0
  Pb  Pb183  1  0.52361111  0.07013889  0.11041667  1.0
  Pb  Pb184  1  0.52361111  0.40347222  0.11041667  1.0
  Pb  Pb185  1  0.52361111  0.73680556  0.11041667  1.0
  Pb  Pb186  1  0.85694444  0.07013889  0.11041667  1.0
  Pb  Pb187  1  0.85694444  0.40347222  0.11041667  1.0
  Pb  Pb188  1  0.85694444  0.73680556  0.11041667  1.0
  Pb  Pb189  1  0.32361111  0.18680556  0.16041667  1.0
  Pb  Pb190  1  0.32361111  0.52013889  0.16041667  1.0
  Pb  Pb191  1  0.32361111  0.85347222  0.16041667  1.0
  Pb  Pb192  1  0.65694444  0.18680556  0.16041667  1.0
  Pb  Pb193  1  0.65694444  0.52013889  0.16041667  1.0
  Pb  Pb194  1  0.65694444  0.85347222  0.16041667  1.0
  Pb  Pb195  1  0.99027778  0.18680556  0.16041667  1.0
  Pb  Pb196  1  0.99027778  0.52013889  0.16041667  1.0
  Pb  Pb197  1  0.99027778  0.85347222  0.16041667  1.0
  Pb  Pb198  1  0.29027778  0.31736111  0.16875000  1.0
  Pb  Pb199  1  0.29027778  0.65069444  0.16875000  1.0
  Pb  Pb200  1  0.29027778  0.98402778  0.16875000  1.0
  Pb  Pb201  1  0.62361111  0.31736111  0.16875000  1.0
  Pb  Pb202  1  0.62361111  0.65069444  0.16875000  1.0
  Pb  Pb203  1  0.62361111  0.98402778  0.16875000  1.0
  Pb  Pb204  1  0.95694444  0.31736111  0.16875000  1.0
  Pb  Pb205  1  0.95694444  0.65069444  0.16875000  1.0
  Pb  Pb206  1  0.95694444  0.98402778  0.16875000  1.0
  Pb  Pb207  1  0.15694444  0.20069444  0.11875000  1.0
  Pb  Pb208  1  0.15694444  0.53402778  0.11875000  1.0
  Pb  Pb209  1  0.15694444  0.86736111  0.11875000  1.0
  Pb  Pb210  1  0.49027778  0.20069444  0.11875000  1.0
  Pb  Pb211  1  0.49027778  0.53402778  0.11875000  1.0
  Pb  Pb212  1  0.49027778  0.86736111  0.11875000  1.0
  Pb  Pb213  1  0.82361111  0.20069444  0.11875000  1.0
  Pb  Pb214  1  0.82361111  0.53402778  0.11875000  1.0
  Pb  Pb215  1  0.82361111  0.86736111  0.11875000  1.0
  Pb  Pb216  1  0.12361111  0.30347222  0.21041667  1.0
  Pb  Pb217  1  0.12361111  0.63680556  0.21041667  1.0
  Pb  Pb218  1  0.12361111  0.97013889  0.21041667  1.0
  Pb  Pb219  1  0.45694444  0.30347222  0.21041667  1.0
  Pb  Pb220  1  0.45694444  0.63680556  0.21041667  1.0
  Pb  Pb221  1  0.45694444  0.97013889  0.21041667  1.0
  Pb  Pb222  1  0.79027778  0.30347222  0.21041667  1.0
  Pb  Pb223  1  0.79027778  0.63680556  0.21041667  1.0
  Pb  Pb224  1  0.79027778  0.97013889  0.21041667  1.0
  Pb  Pb225  1  0.25694444  0.08680556  0.26041667  1.0
  Pb  Pb226  1  0.25694444  0.42013889  0.26041667  1.0
  Pb  Pb227  1  0.25694444  0.75347222  0.26041667  1.0
  Pb  Pb228  1  0.59027778  0.08680556  0.26041667  1.0
  Pb  Pb229  1  0.59027778  0.42013889  0.26041667  1.0
  Pb  Pb230  1  0.59027778  0.75347222  0.26041667  1.0
  Pb  Pb231  1  0.92361111  0.08680556  0.26041667  1.0
  Pb  Pb232  1  0.92361111  0.42013889  0.26041667  1.0
  Pb  Pb233  1  0.92361111  0.75347222  0.26041667  1.0
  Pb  Pb234  1  0.22361111  0.21736111  0.26875000  1.0
  Pb  Pb235  1  0.22361111  0.55069444  0.26875000  1.0
  Pb  Pb236  1  0.22361111  0.88402778  0.26875000  1.0
  Pb  Pb237  1  0.55694444  0.21736111  0.26875000  1.0
  Pb  Pb238  1  0.55694444  0.55069444  0.26875000  1.0
  Pb  Pb239  1  0.55694444  0.88402778  0.26875000  1.0
  Pb  Pb240  1  0.89027778  0.21736111  0.26875000  1.0
  Pb  Pb241  1  0.89027778  0.55069444  0.26875000  1.0
  Pb  Pb242  1  0.89027778  0.88402778  0.26875000  1.0
  Pb  Pb243  1  0.09027778  0.10069444  0.21875000  1.0
  Pb  Pb244  1  0.09027778  0.43402778  0.21875000  1.0
  Pb  Pb245  1  0.09027778  0.76736111  0.21875000  1.0
  Pb  Pb246  1  0.42361111  0.10069444  0.21875000  1.0
  Pb  Pb247  1  0.42361111  0.43402778  0.21875000  1.0
  Pb  Pb248  1  0.42361111  0.76736111  0.21875000  1.0
  Pb  Pb249  1  0.75694444  0.10069444  0.21875000  1.0
  Pb  Pb250  1  0.75694444  0.43402778  0.21875000  1.0
  Pb  Pb251  1  0.75694444  0.76736111  0.21875000  1.0
  Pb  Pb252  1  0.05694444  0.20347222  0.31041667  1.0
  Pb  Pb253  1  0.05694444  0.53680556  0.31041667  1.0
  Pb  Pb254  1  0.05694444  0.87013889  0.31041667  1.0
  Pb  Pb255  1  0.39027778  0.20347222  0.31041667  1.0
  Pb  Pb256  1  0.39027778  0.53680556  0.31041667  1.0
  Pb  Pb257  1  0.39027778  0.87013889  0.31041667  1.0
  Pb  Pb258  1  0.72361111  0.20347222  0.31041667  1.0
  Pb  Pb259  1  0.72361111  0.53680556  0.31041667  1.0
  Pb  Pb260  1  0.72361111  0.87013889  0.31041667  1.0
  Pb  Pb261  1  0.19027778  0.32013889  0.36041667  1.0
  Pb  Pb262  1  0.19027778  0.65347222  0.36041667  1.0
  Pb  Pb263  1  0.19027778  0.98680556  0.36041667  1.0
  Pb  Pb264  1  0.52361111  0.32013889  0.36041667  1.0
  Pb  Pb265  1  0.52361111  0.65347222  0.36041667  1.0
  Pb  Pb266  1  0.52361111  0.98680556  0.36041667  1.0
  Pb  Pb267  1  0.85694444  0.32013889  0.36041667  1.0
  Pb  Pb268  1  0.85694444  0.65347222  0.36041667  1.0
  Pb  Pb269  1  0.85694444  0.98680556  0.36041667  1.0
  Pb  Pb270  1  0.15694444  0.11736111  0.36875000  1.0
  Pb  Pb271  1  0.15694444  0.45069444  0.36875000  1.0
  Pb  Pb272  1  0.15694444  0.78402778  0.36875000  1.0
  Pb  Pb273  1  0.49027778  0.11736111  0.36875000  1.0
  Pb  Pb274  1  0.49027778  0.45069444  0.36875000  1.0
  Pb  Pb275  1  0.49027778  0.78402778  0.36875000  1.0
  Pb  Pb276  1  0.82361111  0.11736111  0.36875000  1.0
  Pb  Pb277  1  0.82361111  0.45069444  0.36875000  1.0
  Pb  Pb278  1  0.82361111  0.78402778  0.36875000  1.0
  Pb  Pb279  1  0.02361111  0.00069444  0.31875000  1.0
  Pb  Pb280  1  0.02361111  0.33402778  0.31875000  1.0
  Pb  Pb281  1  0.02361111  0.66736111  0.31875000  1.0
  Pb  Pb282  1  0.35694444  0.00069444  0.31875000  1.0
  Pb  Pb283  1  0.35694444  0.33402778  0.31875000  1.0
  Pb  Pb284  1  0.35694444  0.66736111  0.31875000  1.0
  Pb  Pb285  1  0.69027778  0.00069444  0.31875000  1.0
  Pb  Pb286  1  0.69027778  0.33402778  0.31875000  1.0
  Pb  Pb287  1  0.69027778  0.66736111  0.31875000  1.0
