# generated using pymatgen
data_NiPb
_symmetry_space_group_name_H-M   'P 1'
_cell_length_a   12.46083663
_cell_length_b   19.94165033
_cell_length_c   41.53612210
_cell_angle_alpha   128.67226956
_cell_angle_beta   120.00000000
_cell_angle_gamma   71.79411854
_symmetry_Int_Tables_number   1
_chemical_formula_structural   NiPb
_chemical_formula_sum   'Ni72 Pb72'
_cell_volume   6978.58500763
_cell_formula_units_Z   72
loop_
 _symmetry_equiv_pos_site_id
 _symmetry_equiv_pos_as_xyz
  1  'x, y, z'
loop_
 _atom_site_type_symbol
 _atom_site_label
 _atom_site_symmetry_multiplicity
 _atom_site_fract_x
 _atom_site_fract_y
 _atom_site_fract_z
 _atom_site_occupancy
  Ni  Ni0  1  0.00000000  0.16666667  0.02916667  1.0
  Ni  Ni1  1  0.00000000  0.50000000  0.02916667  1.0
  Ni  Ni2  1  0.00000000  0.83333333  0.02916667  1.0
  Ni  Ni3  1  0.33333333  0.16666667  0.02916667  1.0
  Ni  Ni4  1  0.33333333  0.50000000  0.02916667  1.0
  Ni  Ni5  1  0.33333333  0.83333333  0.02916667  1.0
  Ni  Ni6  1  0.66666667  0.16666667  0.02916667  1.0
  Ni  Ni7  1  0.66666667  0.50000000  0.02916667  1.0
  Ni  Ni8  1  0.66666667  0.83333333  0.02916667  1.0
  Ni  Ni9  1  0.00000000  0.00000000  0.07916667  1.0
  Ni  Ni10  1  0.00000000  0.33333333  0.07916667  1.0
  Ni  Ni11  1  0.00000000  0.66666667  0.07916667  1.0
  Ni  Ni12  1  0.33333333  0.00000000  0.07916667  1.0
  Ni  Ni13  1  0.33333333  0.33333333  0.07916667  1.0
  Ni  Ni14  1  0.33333333  0.66666667  0.07916667  1.0
  Ni  Ni15  1  0.66666667  0.00000000  0.07916667  1.0
  Ni  Ni16  1  0.66666667  0.33333333  0.07916667  1.0
  Ni  Ni17  1  0.66666667  0.66666667  0.07916667  1.0
  Pb  Pb18  1  0.11111111  0.25000000  0.02083333  1.0
  Pb  Pb19  1  0.11111111  0.58333333  0.02083333  1.0
  Pb  Pb20  1  0.11111111  0.91666667  0.02083333  1.0
  Pb  Pb21  1  0.44444444  0.25000000  0.02083333  1.0
  Pb  Pb22  1  0.44444444  0.58333333  0.02083333  1.0
  Pb  Pb23  1  0.44444444  0.91666667  0.02083333  1.0
  Pb  Pb24  1  0.77777778  0.25000000  0.02083333  1.0
  Pb  Pb25  1  0.77777778  0.58333333  0.02083333  1.0
  Pb  Pb26  1  0.77777778  0.91666667  0.02083333  1.0
  Pb  Pb27  1  0.22222222  0.08333333  0.03750000  1.0
  Pb  Pb28  1  0.22222222  0.41666667  0.03750000  1.0
  Pb  Pb29  1  0.22222222  0.75000000  0.03750000  1.0
  Pb  Pb30  1  0.55555556  0.08333333  0.03750000  1.0
  Pb  Pb31  1  0.55555556  0.41666667  0.03750000  1.0
  Pb  Pb32  1  0.55555556  0.75000000  0.03750000  1.0
  Pb  Pb33  1  0.88888889  0.08333333  0.03750000  1.0
  Pb  Pb34  1  0.88888889  0.41666667  0.03750000  1.0
  Pb  Pb35  1  0.88888889  0.75000000  0.03750000  1.0
  Ni  Ni36  1  0.00000000  0.16666667  0.12916667  1.0
  Ni  Ni37  1  0.00000000  0.50000000  0.12916667  1.0
  Ni  Ni38  1  0.00000000  0.83333333  0.12916667  1.0
  Ni  Ni39  1  0.33333333  0.16666667  0.12916667  1.0
  Ni  Ni40  1  0.33333333  0.50000000  0.12916667  1.0
  Ni  Ni41  1  0.33333333  0.83333333  0.12916667  1.0
  Ni  Ni42  1  0.66666667  0.16666667  0.12916667  1.0
  Ni  Ni43  1  0.66666667  0.50000000  0.12916667  1.0
  Ni  Ni44  1  0.66666667  0.83333333  0.12916667  1.0
  Ni  Ni45  1  0.00000000  0.00000000  0.17916667  1.0
  Ni  Ni46  1  0.00000000  0.33333333  0.17916667  1.0
  Ni  Ni47  1  0.00000000  0.66666667  0.17916667  1.0
  Ni  Ni48  1  0.33333333  0.00000000  0.17916667  1.0
  Ni  Ni49  1  0.33333333  0.33333333  0.17916667  1.0
  Ni  Ni50  1  0.33333333  0.66666667  0.17916667  1.0
  Ni  Ni51  1  0.66666667  0.00000000  0.17916667  1.0
  Ni  Ni52  1  0.66666667  0.33333333  0.17916667  1.0
  Ni  Ni53  1  0.66666667  0.66666667  0.17916667  1.0
  Pb  Pb54  1  0.11111111  0.25000000  0.12083333  1.0
  Pb  Pb55  1  0.11111111  0.58333333  0.12083333  1.0
  Pb  Pb56  1  0.11111111  0.91666667  0.12083333  1.0
  Pb  Pb57  1  0.44444444  0.25000000  0.12083333  1.0
  Pb  Pb58  1  0.44444444  0.58333333  0.12083333  1.0
  Pb  Pb59  1  0.44444444  0.91666667  0.12083333  1.0
  Pb  Pb60  1  0.77777778  0.25000000  0.12083333  1.0
  Pb  Pb61  1  0.77777778  0.58333333  0.12083333  1.0
  Pb  Pb62  1  0.77777778  0.91666667  0.12083333  1.0
  Pb  Pb63  1  0.22222222  0.08333333  0.13750000  1.0
  Pb  Pb64  1  0.22222222  0.41666667  0.13750000  1.0
  Pb  Pb65  1  0.22222222  0.75000000  0.13750000  1.0
  Pb  Pb66  1  0.55555556  0.08333333  0.13750000  1.0
  Pb  Pb67  1  0.55555556  0.41666667  0.13750000  1.0
  Pb  Pb68  1  0.55555556  0.75000000  0.13750000  1.0
  Pb  Pb69  1  0.88888889  0.08333333  0.13750000  1.0
  Pb  Pb70  1  0.88888889  0.41666667  0.13750000  1.0
  Pb  Pb71  1  0.88888889  0.75000000  0.13750000  1.0
  Ni  Ni72  1  0.00000000  0.16666667  0.22916667  1.0
  Ni  Ni73  1  0.00000000  0.50000000  0.22916667  1.0
  Ni  Ni74  1  0.00000000  0.83333333  0.22916667  1.0
  Ni  Ni75  1  0.33333333  0.16666667  0.22916667  1.0
  Ni  Ni76  1  0.33333333  0.50000000  0.22916667  1.0
  Ni  Ni77  1  0.33333333  0.83333333  0.22916667  1.0
  Ni  Ni78  1  0.66666667  0.16666667  0.22916667  1.0
  Ni  Ni79  1  0.66666667  0.50000000  0.22916667  1.0
  Ni  Ni80  1  0.66666667  0.83333333  0.22916667  1.0
  Ni  Ni81  1  0.00000000  0.00000000  0.27916667  1.0
  Ni  Ni82  1  0.00000000  0.33333333  0.27916667  1.0
  Ni  Ni83  1  0.00000000  0.66666667  0.27916667  1.0
  Ni  Ni84  1  0.33333333  0.00000000  0.27916667  1.0
  Ni  Ni85  1  0.33333333  0.33333333  0.27916667  1.0
  Ni  Ni86  1  0.33333333  0.66666667  0.27916667  1.0
  Ni  Ni87  1  0.66666667  0.00000000  0.27916667  1.0
  Ni  Ni88  1  0.66666667  0.33333333  0.27916667  1.0
  Ni  Ni89  1  0.66666667  0.66666667  0.27916667  1.0
  Pb  Pb90  1  0.11111111  0.25000000  0.22083333  1.0
  Pb  Pb91  1  0.11111111  0.58333333  0.22083333  1.0
  Pb  Pb92  1  0.11111111  0.91666667  0.22083333  1.0
  Pb  Pb93  1  0.44444444  0.25000000  0.22083333  1.0
  Pb  Pb94  1  0.44444444  0.58333333  0.22083333  1.0
  Pb  Pb95  1  0.44444444  0.91666667  0.22083333  1.0
  Pb  Pb96  1  0.77777778  0.25000000  0.22083333  1.0
  Pb  Pb97  1  0.77777778  0.58333333  0.22083333  1.0
  Pb  Pb98  1  0.77777778  0.91666667  0.22083333  1.0
  Pb  Pb99  1  0.22222222  0.08333333  0.23750000  1.0
  Pb  Pb100  1  0.22222222  0.41666667  0.23750000  1.0
  Pb  Pb101  1  0.22222222  0.75000000  0.23750000  1.0
  Pb  Pb102  1  0.55555556  0.08333333  0.23750000  1.0
  Pb  Pb103  1  0.55555556  0.41666667  0.23750000  1.0
  Pb  Pb104  1  0.55555556  0.75000000  0.23750000  1.0
  Pb  Pb105  1  0.88888889  0.08333333  0.23750000  1.0
  Pb  Pb106  1  0.88888889  0.41666667  0.23750000  1.0
  Pb  Pb107  1  0.88888889  0.75000000  0.23750000  1.0
  Ni  Ni108  1  0.00000000  0.16666667  0.32916667  1.0
  Ni  Ni109  1  0.00000000  0.50000000  0.32916667  1.0
  Ni  Ni110  1  0.00000000  0.83333333  0.32916667  1.0
  Ni  Ni111  1  0.33333333  0.16666667  0.32916667  1.0
  Ni  Ni112  1  0.33333333  0.50000000  0.32916667  1.0
  Ni  Ni113  1  0.33333333  0.83333333  0.32916667  1.0
  Ni  Ni114  1  0.66666667  0.16666667  0.32916667  1.0
  Ni  Ni115  1  0.66666667  0.50000000  0.32916667  1.0
  Ni  Ni116  1  0.66666667  0.83333333  0.32916667  1.0
  Ni  Ni117  1  0.00000000  0.00000000  0.37916667  1.0
  Ni  Ni118  1  0.00000000  0.33333333  0.37916667  1.0
  Ni  Ni119  1  0.00000000  0.66666667  0.37916667  1.0
  Ni  Ni120  1  0.33333333  0.00000000  0.37916667  1.0
  Ni  Ni121  1  0.33333333  0.33333333  0.37916667  1.0
  Ni  Ni122  1  0.33333333  0.66666667  0.37916667  1.0
  Ni  Ni123  1  0.66666667  0.00000000  0.37916667  1.0
  Ni  Ni124  1  0.66666667  0.33333333  0.37916667  1.0
  Ni  Ni125  1  0.66666667  0.66666667  0.37916667  1.0
  Pb  Pb126  1  0.11111111  0.25000000  0.32083333  1.0
  Pb  Pb127  1  0.11111111  0.58333333  0.32083333  1.0
  Pb  Pb128  1  0.11111111  0.91666667  0.32083333  1.0
  Pb  Pb129  1  0.44444444  0.25000000  0.32083333  1.0
  Pb  Pb130  1  0.44444444  0.58333333  0.32083333  1.0
  Pb  Pb131  1  0.44444444  0.91666667  0.32083333  1.0
  Pb  Pb132  1  0.77777778  0.25000000  0.32083333  1.0
  Pb  Pb133  1  0.77777778  0.58333333  0.32083333  1.0
  Pb  Pb134  1  0.77777778  0.91666667  0.32083333  1.0
  Pb  Pb135  1  0.22222222  0.08333333  0.33750000  1.0
  Pb  Pb136  1  0.22222222  0.41666667  0.33750000  1.0
  Pb  Pb137  1  0.22222222  0.75000000  0.33750000  1.0
  Pb  Pb138  1  0.55555556  0.08333333  0.33750000  1.0
  Pb  Pb139  1  0.55555556  0.41666667  0.33750000  1.0
  Pb  Pb140  1  0.55555556  0.75000000  0.33750000  1.0
  Pb  Pb141  1  0.88888889  0.08333333  0.33750000  1.0
  Pb  Pb142  1  0.88888889  0.41666667  0.33750000  1.0
  Pb  Pb143  1  0.88888889  0.75000000  0.33750000  1.0
