# generated using pymatgen
data_NiPb
_symmetry_space_group_name_H-M   'P 1'
_cell_length_a   12.46083663
_cell_length_b   12.46083663
_cell_length_c   25.94850500
_cell_angle_alpha   90.00000000
_cell_angle_beta   90.00000000
_cell_angle_gamma   120.00000000
_symmetry_Int_Tables_number   1
_chemical_formula_structural   NiPb
_chemical_formula_sum   'Ni36 Pb36'
_cell_volume   3489.29250382
_cell_formula_units_Z   36
loop_
 _symmetry_equiv_pos_site_id
 _symmetry_equiv_pos_as_xyz
  1  'x, y, z'
loop_
 _atom_site_type_symbol
 _atom_site_label
 _atom_site_symmetry_multiplicity
 _atom_site_fract_x
 _atom_site_fract_y
 _atom_site_fract_z
 _atom_site_occupancy
  Ni  Ni0  1  0.00000000  0.00000000  0.07500000  1.0
  Ni  Ni1  1  0.00000000  0.33333333  0.07500000  1.0
  Ni  Ni2  1  0.00000000  0.66666667  0.07500000  1.0
  Ni  Ni3  1  0.33333333  0.00000000  0.07500000  1.0
  Ni  Ni4  1  0.33333333  0.33333333  0.07500000  1.0
  Ni  Ni5  1  0.33333333  0.66666667  0.07500000  1.0
  Ni  Ni6  1  0.66666667  0.00000000  0.07500000  1.0
  Ni  Ni7  1  0.66666667  0.33333333  0.07500000  1.0
  Ni  Ni8  1  0.66666667  0.66666667  0.07500000  1.0
  Ni  Ni9  1  0.00000000  0.00000000  0.17500000  1.0
  Ni  Ni10  1  0.00000000  0.33333333  0.17500000  1.0
  Ni  Ni11  1  0.00000000  0.66666667  0.17500000  1.0
  Ni  Ni12  1  0.33333333  0.00000000  0.17500000  1.0
  Ni  Ni13  1  0.33333333  0.33333333  0.17500000  1.0
  Ni  Ni14  1  0.33333333  0.66666667  0.17500000  1.0
  Ni  Ni15  1  0.66666667  0.00000000  0.17500000  1.0
  Ni  Ni16  1  0.66666667  0.33333333  0.17500000  1.0
  Ni  Ni17  1  0.66666667  0.66666667  0.17500000  1.0
  Pb  Pb18  1  0.22222222  0.11111111  0.12500000  1.0
  Pb  Pb19  1  0.22222222  0.44444444  0.12500000  1.0
  Pb  Pb20  1  0.22222222  0.77777778  0.12500000  1.0
  Pb  Pb21  1  0.55555556  0.11111111  0.12500000  1.0
  Pb  Pb22  1  0.55555556  0.44444444  0.12500000  1.0
  Pb  Pb23  1  0.55555556  0.77777778  0.12500000  1.0
  Pb  Pb24  1  0.88888889  0.11111111  0.12500000  1.0
  Pb  Pb25  1  0.88888889  0.44444444  0.12500000  1.0
  Pb  Pb26  1  0.88888889  0.77777778  0.12500000  1.0
  Pb  Pb27  1  0.11111111  0.22222222  0.02500000  1.0
  Pb  Pb28  1  0.11111111  0.55555556  0.02500000  1.0
  Pb  Pb29  1  0.11111111  0.88888889  0.02500000  1.0
  Pb  Pb30  1  0.44444444  0.22222222  0.02500000  1.0
  Pb  Pb31  1  0.44444444  0.55555556  0.02500000  1.0
  Pb  Pb32  1  0.44444444  0.88888889  0.02500000  1.0
  Pb  Pb33  1  0.77777778  0.22222222  0.02500000  1.0
  Pb  Pb34  1  0.77777778  0.55555556  0.02500000  1.0
  Pb  Pb35  1  0.77777778  0.88888889  0.02500000  1.0
  Ni  Ni36  1  0.00000000  0.00000000  0.27500000  1.0
  Ni  Ni37  1  0.00000000  0.33333333  0.27500000  1.0
  Ni  Ni38  1  0.00000000  0.66666667  0.27500000  1.0
  Ni  Ni39  1  0.33333333  0.00000000  0.27500000  1.0
  Ni  Ni40  1  0.33333333  0.33333333  0.27500000  1.0
  Ni  Ni41  1  0.33333333  0.66666667  0.27500000  1.0
  Ni  Ni42  1  0.66666667  0.00000000  0.27500000  1.0
  Ni  Ni43  1  0.66666667  0.33333333  0.27500000  1.0
  Ni  Ni44  1  0.66666667  0.66666667  0.27500000  1.0
  Ni  Ni45  1  0.00000000  0.00000000  0.37500000  1.0
  Ni  Ni46  1  0.00000000  0.33333333  0.37500000  1.0
  Ni  Ni47  1  0.00000000  0.66666667  0.37500000  1.0
  Ni  Ni48  1  0.33333333  0.00000000  0.37500000  1.0
  Ni  Ni49  1  0.33333333  0.33333333  0.37500000  1.0
  Ni  Ni50  1  0.33333333  0.66666667  0.37500000  1.0
  Ni  Ni51  1  0.66666667  0.00000000  0.37500000  1.0
  Ni  Ni52  1  0.66666667  0.33333333  0.37500000  1.0
  Ni  Ni53  1  0.66666667  0.66666667  0.37500000  1.0
  Pb  Pb54  1  0.22222222  0.11111111  0.32500000  1.0
  Pb  Pb55  1  0.22222222  0.44444444  0.32500000  1.0
  Pb  Pb56  1  0.22222222  0.77777778  0.32500000  1.0
  Pb  Pb57  1  0.55555556  0.11111111  0.32500000  1.0
  Pb  Pb58  1  0.55555556  0.44444444  0.32500000  1.0
  Pb  Pb59  1  0.55555556  0.77777778  0.32500000  1.0
  Pb  Pb60  1  0.88888889  0.11111111  0.32500000  1.0
  Pb  Pb61  1  0.88888889  0.44444444  0.32500000  1.0
  Pb  Pb62  1  0.88888889  0.77777778  0.32500000  1.0
  Pb  Pb63  1  0.11111111  0.22222222  0.22500000  1.0
  Pb  Pb64  1  0.11111111  0.55555556  0.22500000  1.0
  Pb  Pb65  1  0.11111111  0.88888889  0.22500000  1.0
  Pb  Pb66  1  0.44444444  0.22222222  0.22500000  1.0
  Pb  Pb67  1  0.44444444  0.55555556  0.22500000  1.0
  Pb  Pb68  1  0.44444444  0.88888889  0.22500000  1.0
  Pb  Pb69  1  0.77777778  0.22222222  0.22500000  1.0
  Pb  Pb70  1  0.77777778  0.55555556  0.22500000  1.0
  Pb  Pb71  1  0.77777778  0.88888889  0.22500000  1.0
