# generated using pymatgen
data_NiPb
_symmetry_space_group_name_H-M   'P 1'
_cell_length_a   12.46083663
_cell_length_b   33.53893741
_cell_length_c   33.22889768
_cell_angle_alpha   111.81021933
_cell_angle_beta   120.00000000
_cell_angle_gamma   79.29416302
_symmetry_Int_Tables_number   1
_chemical_formula_structural   NiPb
_chemical_formula_sum   'Ni108 Pb108'
_cell_volume   11165.73601221
_cell_formula_units_Z   108
loop_
 _symmetry_equiv_pos_site_id
 _symmetry_equiv_pos_as_xyz
  1  'x, y, z'
loop_
 _atom_site_type_symbol
 _atom_site_label
 _atom_site_symmetry_multiplicity
 _atom_site_fract_x
 _atom_site_fract_y
 _atom_site_fract_z
 _atom_site_occupancy
  Ni  Ni0  1  0.00000000  0.08333333  0.02864583  1.0
  Ni  Ni1  1  0.00000000  0.41666667  0.02864583  1.0
  Ni  Ni2  1  0.00000000  0.75000000  0.02864583  1.0
  Ni  Ni3  1  0.33333333  0.08333333  0.02864583  1.0
  Ni  Ni4  1  0.33333333  0.41666667  0.02864583  1.0
  Ni  Ni5  1  0.33333333  0.75000000  0.02864583  1.0
  Ni  Ni6  1  0.66666667  0.08333333  0.02864583  1.0
  Ni  Ni7  1  0.66666667  0.41666667  0.02864583  1.0
  Ni  Ni8  1  0.66666667  0.75000000  0.02864583  1.0
  Ni  Ni9  1  0.00000000  0.25000000  0.09114583  1.0
  Ni  Ni10  1  0.00000000  0.58333333  0.09114583  1.0
  Ni  Ni11  1  0.00000000  0.91666667  0.09114583  1.0
  Ni  Ni12  1  0.33333333  0.25000000  0.09114583  1.0
  Ni  Ni13  1  0.33333333  0.58333333  0.09114583  1.0
  Ni  Ni14  1  0.33333333  0.91666667  0.09114583  1.0
  Ni  Ni15  1  0.66666667  0.25000000  0.09114583  1.0
  Ni  Ni16  1  0.66666667  0.58333333  0.09114583  1.0
  Ni  Ni17  1  0.66666667  0.91666667  0.09114583  1.0
  Ni  Ni18  1  0.00000000  0.00000000  0.12239583  1.0
  Ni  Ni19  1  0.00000000  0.33333333  0.12239583  1.0
  Ni  Ni20  1  0.00000000  0.66666667  0.12239583  1.0
  Ni  Ni21  1  0.33333333  0.00000000  0.12239583  1.0
  Ni  Ni22  1  0.33333333  0.33333333  0.12239583  1.0
  Ni  Ni23  1  0.33333333  0.66666667  0.12239583  1.0
  Ni  Ni24  1  0.66666667  0.00000000  0.12239583  1.0
  Ni  Ni25  1  0.66666667  0.33333333  0.12239583  1.0
  Ni  Ni26  1  0.66666667  0.66666667  0.12239583  1.0
  Ni  Ni27  1  0.00000000  0.16666667  0.05989583  1.0
  Ni  Ni28  1  0.00000000  0.50000000  0.05989583  1.0
  Ni  Ni29  1  0.00000000  0.83333333  0.05989583  1.0
  Ni  Ni30  1  0.33333333  0.16666667  0.05989583  1.0
  Ni  Ni31  1  0.33333333  0.50000000  0.05989583  1.0
  Ni  Ni32  1  0.33333333  0.83333333  0.05989583  1.0
  Ni  Ni33  1  0.66666667  0.16666667  0.05989583  1.0
  Ni  Ni34  1  0.66666667  0.50000000  0.05989583  1.0
  Ni  Ni35  1  0.66666667  0.83333333  0.05989583  1.0
  Pb  Pb36  1  0.11111111  0.12500000  0.00260417  1.0
  Pb  Pb37  1  0.11111111  0.45833333  0.00260417  1.0
  Pb  Pb38  1  0.11111111  0.79166667  0.00260417  1.0
  Pb  Pb39  1  0.44444444  0.12500000  0.00260417  1.0
  Pb  Pb40  1  0.44444444  0.45833333  0.00260417  1.0
  Pb  Pb41  1  0.44444444  0.79166667  0.00260417  1.0
  Pb  Pb42  1  0.77777778  0.12500000  0.00260417  1.0
  Pb  Pb43  1  0.77777778  0.45833333  0.00260417  1.0
  Pb  Pb44  1  0.77777778  0.79166667  0.00260417  1.0
  Pb  Pb45  1  0.11111111  0.29166667  0.06510417  1.0
  Pb  Pb46  1  0.11111111  0.62500000  0.06510417  1.0
  Pb  Pb47  1  0.11111111  0.95833333  0.06510417  1.0
  Pb  Pb48  1  0.44444444  0.29166667  0.06510417  1.0
  Pb  Pb49  1  0.44444444  0.62500000  0.06510417  1.0
  Pb  Pb50  1  0.44444444  0.95833333  0.06510417  1.0
  Pb  Pb51  1  0.77777778  0.29166667  0.06510417  1.0
  Pb  Pb52  1  0.77777778  0.62500000  0.06510417  1.0
  Pb  Pb53  1  0.77777778  0.95833333  0.06510417  1.0
  Pb  Pb54  1  0.22222222  0.04166667  0.05468750  1.0
  Pb  Pb55  1  0.22222222  0.37500000  0.05468750  1.0
  Pb  Pb56  1  0.22222222  0.70833333  0.05468750  1.0
  Pb  Pb57  1  0.55555556  0.04166667  0.05468750  1.0
  Pb  Pb58  1  0.55555556  0.37500000  0.05468750  1.0
  Pb  Pb59  1  0.55555556  0.70833333  0.05468750  1.0
  Pb  Pb60  1  0.88888889  0.04166667  0.05468750  1.0
  Pb  Pb61  1  0.88888889  0.37500000  0.05468750  1.0
  Pb  Pb62  1  0.88888889  0.70833333  0.05468750  1.0
  Pb  Pb63  1  0.22222222  0.20833333  0.11718750  1.0
  Pb  Pb64  1  0.22222222  0.54166667  0.11718750  1.0
  Pb  Pb65  1  0.22222222  0.87500000  0.11718750  1.0
  Pb  Pb66  1  0.55555556  0.20833333  0.11718750  1.0
  Pb  Pb67  1  0.55555556  0.54166667  0.11718750  1.0
  Pb  Pb68  1  0.55555556  0.87500000  0.11718750  1.0
  Pb  Pb69  1  0.88888889  0.20833333  0.11718750  1.0
  Pb  Pb70  1  0.88888889  0.54166667  0.11718750  1.0
  Pb  Pb71  1  0.88888889  0.87500000  0.11718750  1.0
  Ni  Ni72  1  0.00000000  0.08333333  0.15364583  1.0
  Ni  Ni73  1  0.00000000  0.41666667  0.15364583  1.0
  Ni  Ni74  1  0.00000000  0.75000000  0.15364583  1.0
  Ni  Ni75  1  0.33333333  0.08333333  0.15364583  1.0
  Ni  Ni76  1  0.33333333  0.41666667  0.15364583  1.0
  Ni  Ni77  1  0.33333333  0.75000000  0.15364583  1.0
  Ni  Ni78  1  0.66666667  0.08333333  0.15364583  1.0
  Ni  Ni79  1  0.66666667  0.41666667  0.15364583  1.0
  Ni  Ni80  1  0.66666667  0.75000000  0.15364583  1.0
  Ni  Ni81  1  0.00000000  0.25000000  0.21614583  1.0
  Ni  Ni82  1  0.00000000  0.58333333  0.21614583  1.0
  Ni  Ni83  1  0.00000000  0.91666667  0.21614583  1.0
  Ni  Ni84  1  0.33333333  0.25000000  0.21614583  1.0
  Ni  Ni85  1  0.33333333  0.58333333  0.21614583  1.0
  Ni  Ni86  1  0.33333333  0.91666667  0.21614583  1.0
  Ni  Ni87  1  0.66666667  0.25000000  0.21614583  1.0
  Ni  Ni88  1  0.66666667  0.58333333  0.21614583  1.0
  Ni  Ni89  1  0.66666667  0.91666667  0.21614583  1.0
  Ni  Ni90  1  0.00000000  0.00000000  0.24739583  1.0
  Ni  Ni91  1  0.00000000  0.33333333  0.24739583  1.0
  Ni  Ni92  1  0.00000000  0.66666667  0.24739583  1.0
  Ni  Ni93  1  0.33333333  0.00000000  0.24739583  1.0
  Ni  Ni94  1  0.33333333  0.33333333  0.24739583  1.0
  Ni  Ni95  1  0.33333333  0.66666667  0.24739583  1.0
  Ni  Ni96  1  0.66666667  0.00000000  0.24739583  1.0
  Ni  Ni97  1  0.66666667  0.33333333  0.24739583  1.0
  Ni  Ni98  1  0.66666667  0.66666667  0.24739583  1.0
  Ni  Ni99  1  0.00000000  0.16666667  0.18489583  1.0
  Ni  Ni100  1  0.00000000  0.50000000  0.18489583  1.0
  Ni  Ni101  1  0.00000000  0.83333333  0.18489583  1.0
  Ni  Ni102  1  0.33333333  0.16666667  0.18489583  1.0
  Ni  Ni103  1  0.33333333  0.50000000  0.18489583  1.0
  Ni  Ni104  1  0.33333333  0.83333333  0.18489583  1.0
  Ni  Ni105  1  0.66666667  0.16666667  0.18489583  1.0
  Ni  Ni106  1  0.66666667  0.50000000  0.18489583  1.0
  Ni  Ni107  1  0.66666667  0.83333333  0.18489583  1.0
  Pb  Pb108  1  0.11111111  0.12500000  0.12760417  1.0
  Pb  Pb109  1  0.11111111  0.45833333  0.12760417  1.0
  Pb  Pb110  1  0.11111111  0.79166667  0.12760417  1.0
  Pb  Pb111  1  0.44444444  0.12500000  0.12760417  1.0
  Pb  Pb112  1  0.44444444  0.45833333  0.12760417  1.0
  Pb  Pb113  1  0.44444444  0.79166667  0.12760417  1.0
  Pb  Pb114  1  0.77777778  0.12500000  0.12760417  1.0
  Pb  Pb115  1  0.77777778  0.45833333  0.12760417  1.0
  Pb  Pb116  1  0.77777778  0.79166667  0.12760417  1.0
  Pb  Pb117  1  0.11111111  0.29166667  0.19010417  1.0
  Pb  Pb118  1  0.11111111  0.62500000  0.19010417  1.0
  Pb  Pb119  1  0.11111111  0.95833333  0.19010417  1.0
  Pb  Pb120  1  0.44444444  0.29166667  0.19010417  1.0
  Pb  Pb121  1  0.44444444  0.62500000  0.19010417  1.0
  Pb  Pb122  1  0.44444444  0.95833333  0.19010417  1.0
  Pb  Pb123  1  0.77777778  0.29166667  0.19010417  1.0
  Pb  Pb124  1  0.77777778  0.62500000  0.19010417  1.0
  Pb  Pb125  1  0.77777778  0.95833333  0.19010417  1.0
  Pb  Pb126  1  0.22222222  0.04166667  0.17968750  1.0
  Pb  Pb127  1  0.22222222  0.37500000  0.17968750  1.0
  Pb  Pb128  1  0.22222222  0.70833333  0.17968750  1.0
  Pb  Pb129  1  0.55555556  0.04166667  0.17968750  1.0
  Pb  Pb130  1  0.55555556  0.37500000  0.17968750  1.0
  Pb  Pb131  1  0.55555556  0.70833333  0.17968750  1.0
  Pb  Pb132  1  0.88888889  0.04166667  0.17968750  1.0
  Pb  Pb133  1  0.88888889  0.37500000  0.17968750  1.0
  Pb  Pb134  1  0.88888889  0.70833333  0.17968750  1.0
  Pb  Pb135  1  0.22222222  0.20833333  0.24218750  1.0
  Pb  Pb136  1  0.22222222  0.54166667  0.24218750  1.0
  Pb  Pb137  1  0.22222222  0.87500000  0.24218750  1.0
  Pb  Pb138  1  0.55555556  0.20833333  0.24218750  1.0
  Pb  Pb139  1  0.55555556  0.54166667  0.24218750  1.0
  Pb  Pb140  1  0.55555556  0.87500000  0.24218750  1.0
  Pb  Pb141  1  0.88888889  0.20833333  0.24218750  1.0
  Pb  Pb142  1  0.88888889  0.54166667  0.24218750  1.0
  Pb  Pb143  1  0.88888889  0.87500000  0.24218750  1.0
  Ni  Ni144  1  0.00000000  0.08333333  0.27864583  1.0
  Ni  Ni145  1  0.00000000  0.41666667  0.27864583  1.0
  Ni  Ni146  1  0.00000000  0.75000000  0.27864583  1.0
  Ni  Ni147  1  0.33333333  0.08333333  0.27864583  1.0
  Ni  Ni148  1  0.33333333  0.41666667  0.27864583  1.0
  Ni  Ni149  1  0.33333333  0.75000000  0.27864583  1.0
  Ni  Ni150  1  0.66666667  0.08333333  0.27864583  1.0
  Ni  Ni151  1  0.66666667  0.41666667  0.27864583  1.0
  Ni  Ni152  1  0.66666667  0.75000000  0.27864583  1.0
  Ni  Ni153  1  0.00000000  0.25000000  0.34114583  1.0
  Ni  Ni154  1  0.00000000  0.58333333  0.34114583  1.0
  Ni  Ni155  1  0.00000000  0.91666667  0.34114583  1.0
  Ni  Ni156  1  0.33333333  0.25000000  0.34114583  1.0
  Ni  Ni157  1  0.33333333  0.58333333  0.34114583  1.0
  Ni  Ni158  1  0.33333333  0.91666667  0.34114583  1.0
  Ni  Ni159  1  0.66666667  0.25000000  0.34114583  1.0
  Ni  Ni160  1  0.66666667  0.58333333  0.34114583  1.0
  Ni  Ni161  1  0.66666667  0.91666667  0.34114583  1.0
  Ni  Ni162  1  0.00000000  0.00000000  0.37239583  1.0
  Ni  Ni163  1  0.00000000  0.33333333  0.37239583  1.0
  Ni  Ni164  1  0.00000000  0.66666667  0.37239583  1.0
  Ni  Ni165  1  0.33333333  0.00000000  0.37239583  1.0
  Ni  Ni166  1  0.33333333  0.33333333  0.37239583  1.0
  Ni  Ni167  1  0.33333333  0.66666667  0.37239583  1.0
  Ni  Ni168  1  0.66666667  0.00000000  0.37239583  1.0
  Ni  Ni169  1  0.66666667  0.33333333  0.37239583  1.0
  Ni  Ni170  1  0.66666667  0.66666667  0.37239583  1.0
  Ni  Ni171  1  0.00000000  0.16666667  0.30989583  1.0
  Ni  Ni172  1  0.00000000  0.50000000  0.30989583  1.0
  Ni  Ni173  1  0.00000000  0.83333333  0.30989583  1.0
  Ni  Ni174  1  0.33333333  0.16666667  0.30989583  1.0
  Ni  Ni175  1  0.33333333  0.50000000  0.30989583  1.0
  Ni  Ni176  1  0.33333333  0.83333333  0.30989583  1.0
  Ni  Ni177  1  0.66666667  0.16666667  0.30989583  1.0
  Ni  Ni178  1  0.66666667  0.50000000  0.30989583  1.0
  Ni  Ni179  1  0.66666667  0.83333333  0.30989583  1.0
  Pb  Pb180  1  0.11111111  0.12500000  0.25260417  1.0
  Pb  Pb181  1  0.11111111  0.45833333  0.25260417  1.0
  Pb  Pb182  1  0.11111111  0.79166667  0.25260417  1.0
  Pb  Pb183  1  0.44444444  0.12500000  0.25260417  1.0
  Pb  Pb184  1  0.44444444  0.45833333  0.25260417  1.0
  Pb  Pb185  1  0.44444444  0.79166667  0.25260417  1.0
  Pb  Pb186  1  0.77777778  0.12500000  0.25260417  1.0
  Pb  Pb187  1  0.77777778  0.45833333  0.25260417  1.0
  Pb  Pb188  1  0.77777778  0.79166667  0.25260417  1.0
  Pb  Pb189  1  0.11111111  0.29166667  0.31510417  1.0
  Pb  Pb190  1  0.11111111  0.62500000  0.31510417  1.0
  Pb  Pb191  1  0.11111111  0.95833333  0.31510417  1.0
  Pb  Pb192  1  0.44444444  0.29166667  0.31510417  1.0
  Pb  Pb193  1  0.44444444  0.62500000  0.31510417  1.0
  Pb  Pb194  1  0.44444444  0.95833333  0.31510417  1.0
  Pb  Pb195  1  0.77777778  0.29166667  0.31510417  1.0
  Pb  Pb196  1  0.77777778  0.62500000  0.31510417  1.0
  Pb  Pb197  1  0.77777778  0.95833333  0.31510417  1.0
  Pb  Pb198  1  0.22222222  0.04166667  0.30468750  1.0
  Pb  Pb199  1  0.22222222  0.37500000  0.30468750  1.0
  Pb  Pb200  1  0.22222222  0.70833333  0.30468750  1.0
  Pb  Pb201  1  0.55555556  0.04166667  0.30468750  1.0
  Pb  Pb202  1  0.55555556  0.37500000  0.30468750  1.0
  Pb  Pb203  1  0.55555556  0.70833333  0.30468750  1.0
  Pb  Pb204  1  0.88888889  0.04166667  0.30468750  1.0
  Pb  Pb205  1  0.88888889  0.37500000  0.30468750  1.0
  Pb  Pb206  1  0.88888889  0.70833333  0.30468750  1.0
  Pb  Pb207  1  0.22222222  0.20833333  0.36718750  1.0
  Pb  Pb208  1  0.22222222  0.54166667  0.36718750  1.0
  Pb  Pb209  1  0.22222222  0.87500000  0.36718750  1.0
  Pb  Pb210  1  0.55555556  0.20833333  0.36718750  1.0
  Pb  Pb211  1  0.55555556  0.54166667  0.36718750  1.0
  Pb  Pb212  1  0.55555556  0.87500000  0.36718750  1.0
  Pb  Pb213  1  0.88888889  0.20833333  0.36718750  1.0
  Pb  Pb214  1  0.88888889  0.54166667  0.36718750  1.0
  Pb  Pb215  1  0.88888889  0.87500000  0.36718750  1.0
