# generated using pymatgen
data_NiSb3
_symmetry_space_group_name_H-M   'P 1'
_cell_length_a   39.25486326
_cell_length_b   27.75738001
_cell_length_c   56.09005787
_cell_angle_alpha   54.73561032
_cell_angle_beta   35.26438968
_cell_angle_gamma   45.00000000
_symmetry_Int_Tables_number   1
_chemical_formula_structural   NiSb3
_chemical_formula_sum   'Ni108 Sb324'
_cell_volume   24950.66946971
_cell_formula_units_Z   108
loop_
 _symmetry_equiv_pos_site_id
 _symmetry_equiv_pos_as_xyz
  1  'x, y, z'
loop_
 _atom_site_type_symbol
 _atom_site_label
 _atom_site_symmetry_multiplicity
 _atom_site_fract_x
 _atom_site_fract_y
 _atom_site_fract_z
 _atom_site_occupancy
  Ni  Ni0  1  0.00000000  0.16666667  0.04829614  1.0
  Ni  Ni1  1  0.00000000  0.50000000  0.04829614  1.0
  Ni  Ni2  1  0.00000000  0.83333333  0.04829614  1.0
  Ni  Ni3  1  0.33333333  0.16666667  0.04829614  1.0
  Ni  Ni4  1  0.33333333  0.50000000  0.04829614  1.0
  Ni  Ni5  1  0.33333333  0.83333333  0.04829614  1.0
  Ni  Ni6  1  0.66666667  0.16666667  0.04829614  1.0
  Ni  Ni7  1  0.66666667  0.50000000  0.04829614  1.0
  Ni  Ni8  1  0.66666667  0.83333333  0.04829614  1.0
  Ni  Ni9  1  0.00000000  0.00000000  0.04829614  1.0
  Ni  Ni10  1  0.00000000  0.33333333  0.04829614  1.0
  Ni  Ni11  1  0.00000000  0.66666667  0.04829614  1.0
  Ni  Ni12  1  0.33333333  0.00000000  0.04829614  1.0
  Ni  Ni13  1  0.33333333  0.33333333  0.04829614  1.0
  Ni  Ni14  1  0.33333333  0.66666667  0.04829614  1.0
  Ni  Ni15  1  0.66666667  0.00000000  0.04829614  1.0
  Ni  Ni16  1  0.66666667  0.33333333  0.04829614  1.0
  Ni  Ni17  1  0.66666667  0.66666667  0.04829614  1.0
  Ni  Ni18  1  0.16666667  0.00000000  0.04829614  1.0
  Ni  Ni19  1  0.16666667  0.33333333  0.04829614  1.0
  Ni  Ni20  1  0.16666667  0.66666667  0.04829614  1.0
  Ni  Ni21  1  0.50000000  0.00000000  0.04829614  1.0
  Ni  Ni22  1  0.50000000  0.33333333  0.04829614  1.0
  Ni  Ni23  1  0.50000000  0.66666667  0.04829614  1.0
  Ni  Ni24  1  0.83333333  0.00000000  0.04829614  1.0
  Ni  Ni25  1  0.83333333  0.33333333  0.04829614  1.0
  Ni  Ni26  1  0.83333333  0.66666667  0.04829614  1.0
  Ni  Ni27  1  0.16666667  0.16666667  0.04829614  1.0
  Ni  Ni28  1  0.16666667  0.50000000  0.04829614  1.0
  Ni  Ni29  1  0.16666667  0.83333333  0.04829614  1.0
  Ni  Ni30  1  0.50000000  0.16666667  0.04829614  1.0
  Ni  Ni31  1  0.50000000  0.50000000  0.04829614  1.0
  Ni  Ni32  1  0.50000000  0.83333333  0.04829614  1.0
  Ni  Ni33  1  0.83333333  0.16666667  0.04829614  1.0
  Ni  Ni34  1  0.83333333  0.50000000  0.04829614  1.0
  Ni  Ni35  1  0.83333333  0.83333333  0.04829614  1.0
  Sb  Sb36  1  0.27385333  0.11269100  0.07411529  1.0
  Sb  Sb37  1  0.27385333  0.44602433  0.07411529  1.0
  Sb  Sb38  1  0.27385333  0.77935767  0.07411529  1.0
  Sb  Sb39  1  0.60718667  0.11269100  0.07411529  1.0
  Sb  Sb40  1  0.60718667  0.44602433  0.07411529  1.0
  Sb  Sb41  1  0.60718667  0.77935767  0.07411529  1.0
  Sb  Sb42  1  0.94052000  0.11269100  0.07411529  1.0
  Sb  Sb43  1  0.94052000  0.44602433  0.07411529  1.0
  Sb  Sb44  1  0.94052000  0.77935767  0.07411529  1.0
  Sb  Sb45  1  0.05948000  0.22064233  0.02247700  1.0
  Sb  Sb46  1  0.05948000  0.55397567  0.02247700  1.0
  Sb  Sb47  1  0.05948000  0.88730900  0.02247700  1.0
  Sb  Sb48  1  0.39281333  0.22064233  0.02247700  1.0
  Sb  Sb49  1  0.39281333  0.55397567  0.02247700  1.0
  Sb  Sb50  1  0.39281333  0.88730900  0.02247700  1.0
  Sb  Sb51  1  0.72614667  0.22064233  0.02247700  1.0
  Sb  Sb52  1  0.72614667  0.55397567  0.02247700  1.0
  Sb  Sb53  1  0.72614667  0.88730900  0.02247700  1.0
  Sb  Sb54  1  0.16743133  0.11269100  0.02247700  1.0
  Sb  Sb55  1  0.16743133  0.44602433  0.02247700  1.0
  Sb  Sb56  1  0.16743133  0.77935767  0.02247700  1.0
  Sb  Sb57  1  0.50076467  0.11269100  0.02247700  1.0
  Sb  Sb58  1  0.50076467  0.44602433  0.02247700  1.0
  Sb  Sb59  1  0.50076467  0.77935767  0.02247700  1.0
  Sb  Sb60  1  0.83409800  0.11269100  0.02247700  1.0
  Sb  Sb61  1  0.83409800  0.44602433  0.02247700  1.0
  Sb  Sb62  1  0.83409800  0.77935767  0.02247700  1.0
  Sb  Sb63  1  0.16590200  0.22064233  0.07411529  1.0
  Sb  Sb64  1  0.16590200  0.55397567  0.07411529  1.0
  Sb  Sb65  1  0.16590200  0.88730900  0.07411529  1.0
  Sb  Sb66  1  0.49923533  0.22064233  0.07411529  1.0
  Sb  Sb67  1  0.49923533  0.55397567  0.07411529  1.0
  Sb  Sb68  1  0.49923533  0.88730900  0.07411529  1.0
  Sb  Sb69  1  0.83256867  0.22064233  0.07411529  1.0
  Sb  Sb70  1  0.83256867  0.55397567  0.07411529  1.0
  Sb  Sb71  1  0.83256867  0.88730900  0.07411529  1.0
  Sb  Sb72  1  0.22064233  0.28012233  0.07345986  1.0
  Sb  Sb73  1  0.22064233  0.61345567  0.07345986  1.0
  Sb  Sb74  1  0.22064233  0.94678900  0.07345986  1.0
  Sb  Sb75  1  0.55397567  0.28012233  0.07345986  1.0
  Sb  Sb76  1  0.55397567  0.61345567  0.07345986  1.0
  Sb  Sb77  1  0.55397567  0.94678900  0.07345986  1.0
  Sb  Sb78  1  0.88730900  0.28012233  0.07345986  1.0
  Sb  Sb79  1  0.88730900  0.61345567  0.07345986  1.0
  Sb  Sb80  1  0.88730900  0.94678900  0.07345986  1.0
  Sb  Sb81  1  0.11269100  0.05321100  0.02313243  1.0
  Sb  Sb82  1  0.11269100  0.38654433  0.02313243  1.0
  Sb  Sb83  1  0.11269100  0.71987767  0.02313243  1.0
  Sb  Sb84  1  0.44602433  0.05321100  0.02313243  1.0
  Sb  Sb85  1  0.44602433  0.38654433  0.02313243  1.0
  Sb  Sb86  1  0.44602433  0.71987767  0.02313243  1.0
  Sb  Sb87  1  0.77935767  0.05321100  0.02313243  1.0
  Sb  Sb88  1  0.77935767  0.38654433  0.02313243  1.0
  Sb  Sb89  1  0.77935767  0.71987767  0.02313243  1.0
  Sb  Sb90  1  0.22064233  0.05321100  0.07345986  1.0
  Sb  Sb91  1  0.22064233  0.38654433  0.07345986  1.0
  Sb  Sb92  1  0.22064233  0.71987767  0.07345986  1.0
  Sb  Sb93  1  0.55397567  0.05321100  0.07345986  1.0
  Sb  Sb94  1  0.55397567  0.38654433  0.07345986  1.0
  Sb  Sb95  1  0.55397567  0.71987767  0.07345986  1.0
  Sb  Sb96  1  0.88730900  0.05321100  0.07345986  1.0
  Sb  Sb97  1  0.88730900  0.38654433  0.07345986  1.0
  Sb  Sb98  1  0.88730900  0.71987767  0.07345986  1.0
  Sb  Sb99  1  0.11269100  0.28012233  0.02313243  1.0
  Sb  Sb100  1  0.11269100  0.61345567  0.02313243  1.0
  Sb  Sb101  1  0.11269100  0.94678900  0.02313243  1.0
  Sb  Sb102  1  0.44602433  0.28012233  0.02313243  1.0
  Sb  Sb103  1  0.44602433  0.61345567  0.02313243  1.0
  Sb  Sb104  1  0.44602433  0.94678900  0.02313243  1.0
  Sb  Sb105  1  0.77935767  0.28012233  0.02313243  1.0
  Sb  Sb106  1  0.77935767  0.61345567  0.02313243  1.0
  Sb  Sb107  1  0.77935767  0.94678900  0.02313243  1.0
  Sb  Sb108  1  0.05321100  0.05948000  0.11972471  1.0
  Sb  Sb109  1  0.05321100  0.39281333  0.11972471  1.0
  Sb  Sb110  1  0.05321100  0.72614667  0.11972471  1.0
  Sb  Sb111  1  0.38654433  0.05948000  0.11972471  1.0
  Sb  Sb112  1  0.38654433  0.39281333  0.11972471  1.0
  Sb  Sb113  1  0.38654433  0.72614667  0.11972471  1.0
  Sb  Sb114  1  0.71987767  0.05948000  0.11972471  1.0
  Sb  Sb115  1  0.71987767  0.39281333  0.11972471  1.0
  Sb  Sb116  1  0.71987767  0.72614667  0.11972471  1.0
  Sb  Sb117  1  0.28012233  0.27385333  0.11972471  1.0
  Sb  Sb118  1  0.28012233  0.60718667  0.11972471  1.0
  Sb  Sb119  1  0.28012233  0.94052000  0.11972471  1.0
  Sb  Sb120  1  0.61345567  0.27385333  0.11972471  1.0
  Sb  Sb121  1  0.61345567  0.60718667  0.11972471  1.0
  Sb  Sb122  1  0.61345567  0.94052000  0.11972471  1.0
  Sb  Sb123  1  0.94678900  0.27385333  0.11972471  1.0
  Sb  Sb124  1  0.94678900  0.60718667  0.11972471  1.0
  Sb  Sb125  1  0.94678900  0.94052000  0.11972471  1.0
  Sb  Sb126  1  0.28012233  0.16590200  0.11972471  1.0
  Sb  Sb127  1  0.28012233  0.49923533  0.11972471  1.0
  Sb  Sb128  1  0.28012233  0.83256867  0.11972471  1.0
  Sb  Sb129  1  0.61345567  0.16590200  0.11972471  1.0
  Sb  Sb130  1  0.61345567  0.49923533  0.11972471  1.0
  Sb  Sb131  1  0.61345567  0.83256867  0.11972471  1.0
  Sb  Sb132  1  0.94678900  0.16590200  0.11972471  1.0
  Sb  Sb133  1  0.94678900  0.49923533  0.11972471  1.0
  Sb  Sb134  1  0.94678900  0.83256867  0.11972471  1.0
  Sb  Sb135  1  0.05321100  0.16743133  0.11972471  1.0
  Sb  Sb136  1  0.05321100  0.50076467  0.11972471  1.0
  Sb  Sb137  1  0.05321100  0.83409800  0.11972471  1.0
  Sb  Sb138  1  0.38654433  0.16743133  0.11972471  1.0
  Sb  Sb139  1  0.38654433  0.50076467  0.11972471  1.0
  Sb  Sb140  1  0.38654433  0.83409800  0.11972471  1.0
  Sb  Sb141  1  0.71987767  0.16743133  0.11972471  1.0
  Sb  Sb142  1  0.71987767  0.50076467  0.11972471  1.0
  Sb  Sb143  1  0.71987767  0.83409800  0.11972471  1.0
  Ni  Ni144  1  0.00000000  0.16666667  0.19115329  1.0
  Ni  Ni145  1  0.00000000  0.50000000  0.19115329  1.0
  Ni  Ni146  1  0.00000000  0.83333333  0.19115329  1.0
  Ni  Ni147  1  0.33333333  0.16666667  0.19115329  1.0
  Ni  Ni148  1  0.33333333  0.50000000  0.19115329  1.0
  Ni  Ni149  1  0.33333333  0.83333333  0.19115329  1.0
  Ni  Ni150  1  0.66666667  0.16666667  0.19115329  1.0
  Ni  Ni151  1  0.66666667  0.50000000  0.19115329  1.0
  Ni  Ni152  1  0.66666667  0.83333333  0.19115329  1.0
  Ni  Ni153  1  0.00000000  0.00000000  0.19115329  1.0
  Ni  Ni154  1  0.00000000  0.33333333  0.19115329  1.0
  Ni  Ni155  1  0.00000000  0.66666667  0.19115329  1.0
  Ni  Ni156  1  0.33333333  0.00000000  0.19115329  1.0
  Ni  Ni157  1  0.33333333  0.33333333  0.19115329  1.0
  Ni  Ni158  1  0.33333333  0.66666667  0.19115329  1.0
  Ni  Ni159  1  0.66666667  0.00000000  0.19115329  1.0
  Ni  Ni160  1  0.66666667  0.33333333  0.19115329  1.0
  Ni  Ni161  1  0.66666667  0.66666667  0.19115329  1.0
  Ni  Ni162  1  0.16666667  0.00000000  0.19115329  1.0
  Ni  Ni163  1  0.16666667  0.33333333  0.19115329  1.0
  Ni  Ni164  1  0.16666667  0.66666667  0.19115329  1.0
  Ni  Ni165  1  0.50000000  0.00000000  0.19115329  1.0
  Ni  Ni166  1  0.50000000  0.33333333  0.19115329  1.0
  Ni  Ni167  1  0.50000000  0.66666667  0.19115329  1.0
  Ni  Ni168  1  0.83333333  0.00000000  0.19115329  1.0
  Ni  Ni169  1  0.83333333  0.33333333  0.19115329  1.0
  Ni  Ni170  1  0.83333333  0.66666667  0.19115329  1.0
  Ni  Ni171  1  0.16666667  0.16666667  0.19115329  1.0
  Ni  Ni172  1  0.16666667  0.50000000  0.19115329  1.0
  Ni  Ni173  1  0.16666667  0.83333333  0.19115329  1.0
  Ni  Ni174  1  0.50000000  0.16666667  0.19115329  1.0
  Ni  Ni175  1  0.50000000  0.50000000  0.19115329  1.0
  Ni  Ni176  1  0.50000000  0.83333333  0.19115329  1.0
  Ni  Ni177  1  0.83333333  0.16666667  0.19115329  1.0
  Ni  Ni178  1  0.83333333  0.50000000  0.19115329  1.0
  Ni  Ni179  1  0.83333333  0.83333333  0.19115329  1.0
  Sb  Sb180  1  0.27385333  0.11269100  0.21697243  1.0
  Sb  Sb181  1  0.27385333  0.44602433  0.21697243  1.0
  Sb  Sb182  1  0.27385333  0.77935767  0.21697243  1.0
  Sb  Sb183  1  0.60718667  0.11269100  0.21697243  1.0
  Sb  Sb184  1  0.60718667  0.44602433  0.21697243  1.0
  Sb  Sb185  1  0.60718667  0.77935767  0.21697243  1.0
  Sb  Sb186  1  0.94052000  0.11269100  0.21697243  1.0
  Sb  Sb187  1  0.94052000  0.44602433  0.21697243  1.0
  Sb  Sb188  1  0.94052000  0.77935767  0.21697243  1.0
  Sb  Sb189  1  0.05948000  0.22064233  0.16533414  1.0
  Sb  Sb190  1  0.05948000  0.55397567  0.16533414  1.0
  Sb  Sb191  1  0.05948000  0.88730900  0.16533414  1.0
  Sb  Sb192  1  0.39281333  0.22064233  0.16533414  1.0
  Sb  Sb193  1  0.39281333  0.55397567  0.16533414  1.0
  Sb  Sb194  1  0.39281333  0.88730900  0.16533414  1.0
  Sb  Sb195  1  0.72614667  0.22064233  0.16533414  1.0
  Sb  Sb196  1  0.72614667  0.55397567  0.16533414  1.0
  Sb  Sb197  1  0.72614667  0.88730900  0.16533414  1.0
  Sb  Sb198  1  0.16743133  0.11269100  0.16533414  1.0
  Sb  Sb199  1  0.16743133  0.44602433  0.16533414  1.0
  Sb  Sb200  1  0.16743133  0.77935767  0.16533414  1.0
  Sb  Sb201  1  0.50076467  0.11269100  0.16533414  1.0
  Sb  Sb202  1  0.50076467  0.44602433  0.16533414  1.0
  Sb  Sb203  1  0.50076467  0.77935767  0.16533414  1.0
  Sb  Sb204  1  0.83409800  0.11269100  0.16533414  1.0
  Sb  Sb205  1  0.83409800  0.44602433  0.16533414  1.0
  Sb  Sb206  1  0.83409800  0.77935767  0.16533414  1.0
  Sb  Sb207  1  0.16590200  0.22064233  0.21697243  1.0
  Sb  Sb208  1  0.16590200  0.55397567  0.21697243  1.0
  Sb  Sb209  1  0.16590200  0.88730900  0.21697243  1.0
  Sb  Sb210  1  0.49923533  0.22064233  0.21697243  1.0
  Sb  Sb211  1  0.49923533  0.55397567  0.21697243  1.0
  Sb  Sb212  1  0.49923533  0.88730900  0.21697243  1.0
  Sb  Sb213  1  0.83256867  0.22064233  0.21697243  1.0
  Sb  Sb214  1  0.83256867  0.55397567  0.21697243  1.0
  Sb  Sb215  1  0.83256867  0.88730900  0.21697243  1.0
  Sb  Sb216  1  0.22064233  0.28012233  0.21631700  1.0
  Sb  Sb217  1  0.22064233  0.61345567  0.21631700  1.0
  Sb  Sb218  1  0.22064233  0.94678900  0.21631700  1.0
  Sb  Sb219  1  0.55397567  0.28012233  0.21631700  1.0
  Sb  Sb220  1  0.55397567  0.61345567  0.21631700  1.0
  Sb  Sb221  1  0.55397567  0.94678900  0.21631700  1.0
  Sb  Sb222  1  0.88730900  0.28012233  0.21631700  1.0
  Sb  Sb223  1  0.88730900  0.61345567  0.21631700  1.0
  Sb  Sb224  1  0.88730900  0.94678900  0.21631700  1.0
  Sb  Sb225  1  0.11269100  0.05321100  0.16598957  1.0
  Sb  Sb226  1  0.11269100  0.38654433  0.16598957  1.0
  Sb  Sb227  1  0.11269100  0.71987767  0.16598957  1.0
  Sb  Sb228  1  0.44602433  0.05321100  0.16598957  1.0
  Sb  Sb229  1  0.44602433  0.38654433  0.16598957  1.0
  Sb  Sb230  1  0.44602433  0.71987767  0.16598957  1.0
  Sb  Sb231  1  0.77935767  0.05321100  0.16598957  1.0
  Sb  Sb232  1  0.77935767  0.38654433  0.16598957  1.0
  Sb  Sb233  1  0.77935767  0.71987767  0.16598957  1.0
  Sb  Sb234  1  0.22064233  0.05321100  0.21631700  1.0
  Sb  Sb235  1  0.22064233  0.38654433  0.21631700  1.0
  Sb  Sb236  1  0.22064233  0.71987767  0.21631700  1.0
  Sb  Sb237  1  0.55397567  0.05321100  0.21631700  1.0
  Sb  Sb238  1  0.55397567  0.38654433  0.21631700  1.0
  Sb  Sb239  1  0.55397567  0.71987767  0.21631700  1.0
  Sb  Sb240  1  0.88730900  0.05321100  0.21631700  1.0
  Sb  Sb241  1  0.88730900  0.38654433  0.21631700  1.0
  Sb  Sb242  1  0.88730900  0.71987767  0.21631700  1.0
  Sb  Sb243  1  0.11269100  0.28012233  0.16598957  1.0
  Sb  Sb244  1  0.11269100  0.61345567  0.16598957  1.0
  Sb  Sb245  1  0.11269100  0.94678900  0.16598957  1.0
  Sb  Sb246  1  0.44602433  0.28012233  0.16598957  1.0
  Sb  Sb247  1  0.44602433  0.61345567  0.16598957  1.0
  Sb  Sb248  1  0.44602433  0.94678900  0.16598957  1.0
  Sb  Sb249  1  0.77935767  0.28012233  0.16598957  1.0
  Sb  Sb250  1  0.77935767  0.61345567  0.16598957  1.0
  Sb  Sb251  1  0.77935767  0.94678900  0.16598957  1.0
  Sb  Sb252  1  0.05321100  0.05948000  0.26258186  1.0
  Sb  Sb253  1  0.05321100  0.39281333  0.26258186  1.0
  Sb  Sb254  1  0.05321100  0.72614667  0.26258186  1.0
  Sb  Sb255  1  0.38654433  0.05948000  0.26258186  1.0
  Sb  Sb256  1  0.38654433  0.39281333  0.26258186  1.0
  Sb  Sb257  1  0.38654433  0.72614667  0.26258186  1.0
  Sb  Sb258  1  0.71987767  0.05948000  0.26258186  1.0
  Sb  Sb259  1  0.71987767  0.39281333  0.26258186  1.0
  Sb  Sb260  1  0.71987767  0.72614667  0.26258186  1.0
  Sb  Sb261  1  0.28012233  0.27385333  0.26258186  1.0
  Sb  Sb262  1  0.28012233  0.60718667  0.26258186  1.0
  Sb  Sb263  1  0.28012233  0.94052000  0.26258186  1.0
  Sb  Sb264  1  0.61345567  0.27385333  0.26258186  1.0
  Sb  Sb265  1  0.61345567  0.60718667  0.26258186  1.0
  Sb  Sb266  1  0.61345567  0.94052000  0.26258186  1.0
  Sb  Sb267  1  0.94678900  0.27385333  0.26258186  1.0
  Sb  Sb268  1  0.94678900  0.60718667  0.26258186  1.0
  Sb  Sb269  1  0.94678900  0.94052000  0.26258186  1.0
  Sb  Sb270  1  0.28012233  0.16590200  0.26258186  1.0
  Sb  Sb271  1  0.28012233  0.49923533  0.26258186  1.0
  Sb  Sb272  1  0.28012233  0.83256867  0.26258186  1.0
  Sb  Sb273  1  0.61345567  0.16590200  0.26258186  1.0
  Sb  Sb274  1  0.61345567  0.49923533  0.26258186  1.0
  Sb  Sb275  1  0.61345567  0.83256867  0.26258186  1.0
  Sb  Sb276  1  0.94678900  0.16590200  0.26258186  1.0
  Sb  Sb277  1  0.94678900  0.49923533  0.26258186  1.0
  Sb  Sb278  1  0.94678900  0.83256867  0.26258186  1.0
  Sb  Sb279  1  0.05321100  0.16743133  0.26258186  1.0
  Sb  Sb280  1  0.05321100  0.50076467  0.26258186  1.0
  Sb  Sb281  1  0.05321100  0.83409800  0.26258186  1.0
  Sb  Sb282  1  0.38654433  0.16743133  0.26258186  1.0
  Sb  Sb283  1  0.38654433  0.50076467  0.26258186  1.0
  Sb  Sb284  1  0.38654433  0.83409800  0.26258186  1.0
  Sb  Sb285  1  0.71987767  0.16743133  0.26258186  1.0
  Sb  Sb286  1  0.71987767  0.50076467  0.26258186  1.0
  Sb  Sb287  1  0.71987767  0.83409800  0.26258186  1.0
  Ni  Ni288  1  0.00000000  0.16666667  0.33401043  1.0
  Ni  Ni289  1  0.00000000  0.50000000  0.33401043  1.0
  Ni  Ni290  1  0.00000000  0.83333333  0.33401043  1.0
  Ni  Ni291  1  0.33333333  0.16666667  0.33401043  1.0
  Ni  Ni292  1  0.33333333  0.50000000  0.33401043  1.0
  Ni  Ni293  1  0.33333333  0.83333333  0.33401043  1.0
  Ni  Ni294  1  0.66666667  0.16666667  0.33401043  1.0
  Ni  Ni295  1  0.66666667  0.50000000  0.33401043  1.0
  Ni  Ni296  1  0.66666667  0.83333333  0.33401043  1.0
  Ni  Ni297  1  0.00000000  0.00000000  0.33401043  1.0
  Ni  Ni298  1  0.00000000  0.33333333  0.33401043  1.0
  Ni  Ni299  1  0.00000000  0.66666667  0.33401043  1.0
  Ni  Ni300  1  0.33333333  0.00000000  0.33401043  1.0
  Ni  Ni301  1  0.33333333  0.33333333  0.33401043  1.0
  Ni  Ni302  1  0.33333333  0.66666667  0.33401043  1.0
  Ni  Ni303  1  0.66666667  0.00000000  0.33401043  1.0
  Ni  Ni304  1  0.66666667  0.33333333  0.33401043  1.0
  Ni  Ni305  1  0.66666667  0.66666667  0.33401043  1.0
  Ni  Ni306  1  0.16666667  0.00000000  0.33401043  1.0
  Ni  Ni307  1  0.16666667  0.33333333  0.33401043  1.0
  Ni  Ni308  1  0.16666667  0.66666667  0.33401043  1.0
  Ni  Ni309  1  0.50000000  0.00000000  0.33401043  1.0
  Ni  Ni310  1  0.50000000  0.33333333  0.33401043  1.0
  Ni  Ni311  1  0.50000000  0.66666667  0.33401043  1.0
  Ni  Ni312  1  0.83333333  0.00000000  0.33401043  1.0
  Ni  Ni313  1  0.83333333  0.33333333  0.33401043  1.0
  Ni  Ni314  1  0.83333333  0.66666667  0.33401043  1.0
  Ni  Ni315  1  0.16666667  0.16666667  0.33401043  1.0
  Ni  Ni316  1  0.16666667  0.50000000  0.33401043  1.0
  Ni  Ni317  1  0.16666667  0.83333333  0.33401043  1.0
  Ni  Ni318  1  0.50000000  0.16666667  0.33401043  1.0
  Ni  Ni319  1  0.50000000  0.50000000  0.33401043  1.0
  Ni  Ni320  1  0.50000000  0.83333333  0.33401043  1.0
  Ni  Ni321  1  0.83333333  0.16666667  0.33401043  1.0
  Ni  Ni322  1  0.83333333  0.50000000  0.33401043  1.0
  Ni  Ni323  1  0.83333333  0.83333333  0.33401043  1.0
  Sb  Sb324  1  0.27385333  0.11269100  0.35982957  1.0
  Sb  Sb325  1  0.27385333  0.44602433  0.35982957  1.0
  Sb  Sb326  1  0.27385333  0.77935767  0.35982957  1.0
  Sb  Sb327  1  0.60718667  0.11269100  0.35982957  1.0
  Sb  Sb328  1  0.60718667  0.44602433  0.35982957  1.0
  Sb  Sb329  1  0.60718667  0.77935767  0.35982957  1.0
  Sb  Sb330  1  0.94052000  0.11269100  0.35982957  1.0
  Sb  Sb331  1  0.94052000  0.44602433  0.35982957  1.0
  Sb  Sb332  1  0.94052000  0.77935767  0.35982957  1.0
  Sb  Sb333  1  0.05948000  0.22064233  0.30819129  1.0
  Sb  Sb334  1  0.05948000  0.55397567  0.30819129  1.0
  Sb  Sb335  1  0.05948000  0.88730900  0.30819129  1.0
  Sb  Sb336  1  0.39281333  0.22064233  0.30819129  1.0
  Sb  Sb337  1  0.39281333  0.55397567  0.30819129  1.0
  Sb  Sb338  1  0.39281333  0.88730900  0.30819129  1.0
  Sb  Sb339  1  0.72614667  0.22064233  0.30819129  1.0
  Sb  Sb340  1  0.72614667  0.55397567  0.30819129  1.0
  Sb  Sb341  1  0.72614667  0.88730900  0.30819129  1.0
  Sb  Sb342  1  0.16743133  0.11269100  0.30819129  1.0
  Sb  Sb343  1  0.16743133  0.44602433  0.30819129  1.0
  Sb  Sb344  1  0.16743133  0.77935767  0.30819129  1.0
  Sb  Sb345  1  0.50076467  0.11269100  0.30819129  1.0
  Sb  Sb346  1  0.50076467  0.44602433  0.30819129  1.0
  Sb  Sb347  1  0.50076467  0.77935767  0.30819129  1.0
  Sb  Sb348  1  0.83409800  0.11269100  0.30819129  1.0
  Sb  Sb349  1  0.83409800  0.44602433  0.30819129  1.0
  Sb  Sb350  1  0.83409800  0.77935767  0.30819129  1.0
  Sb  Sb351  1  0.16590200  0.22064233  0.35982957  1.0
  Sb  Sb352  1  0.16590200  0.55397567  0.35982957  1.0
  Sb  Sb353  1  0.16590200  0.88730900  0.35982957  1.0
  Sb  Sb354  1  0.49923533  0.22064233  0.35982957  1.0
  Sb  Sb355  1  0.49923533  0.55397567  0.35982957  1.0
  Sb  Sb356  1  0.49923533  0.88730900  0.35982957  1.0
  Sb  Sb357  1  0.83256867  0.22064233  0.35982957  1.0
  Sb  Sb358  1  0.83256867  0.55397567  0.35982957  1.0
  Sb  Sb359  1  0.83256867  0.88730900  0.35982957  1.0
  Sb  Sb360  1  0.22064233  0.28012233  0.35917414  1.0
  Sb  Sb361  1  0.22064233  0.61345567  0.35917414  1.0
  Sb  Sb362  1  0.22064233  0.94678900  0.35917414  1.0
  Sb  Sb363  1  0.55397567  0.28012233  0.35917414  1.0
  Sb  Sb364  1  0.55397567  0.61345567  0.35917414  1.0
  Sb  Sb365  1  0.55397567  0.94678900  0.35917414  1.0
  Sb  Sb366  1  0.88730900  0.28012233  0.35917414  1.0
  Sb  Sb367  1  0.88730900  0.61345567  0.35917414  1.0
  Sb  Sb368  1  0.88730900  0.94678900  0.35917414  1.0
  Sb  Sb369  1  0.11269100  0.05321100  0.30884671  1.0
  Sb  Sb370  1  0.11269100  0.38654433  0.30884671  1.0
  Sb  Sb371  1  0.11269100  0.71987767  0.30884671  1.0
  Sb  Sb372  1  0.44602433  0.05321100  0.30884671  1.0
  Sb  Sb373  1  0.44602433  0.38654433  0.30884671  1.0
  Sb  Sb374  1  0.44602433  0.71987767  0.30884671  1.0
  Sb  Sb375  1  0.77935767  0.05321100  0.30884671  1.0
  Sb  Sb376  1  0.77935767  0.38654433  0.30884671  1.0
  Sb  Sb377  1  0.77935767  0.71987767  0.30884671  1.0
  Sb  Sb378  1  0.22064233  0.05321100  0.35917414  1.0
  Sb  Sb379  1  0.22064233  0.38654433  0.35917414  1.0
  Sb  Sb380  1  0.22064233  0.71987767  0.35917414  1.0
  Sb  Sb381  1  0.55397567  0.05321100  0.35917414  1.0
  Sb  Sb382  1  0.55397567  0.38654433  0.35917414  1.0
  Sb  Sb383  1  0.55397567  0.71987767  0.35917414  1.0
  Sb  Sb384  1  0.88730900  0.05321100  0.35917414  1.0
  Sb  Sb385  1  0.88730900  0.38654433  0.35917414  1.0
  Sb  Sb386  1  0.88730900  0.71987767  0.35917414  1.0
  Sb  Sb387  1  0.11269100  0.28012233  0.30884671  1.0
  Sb  Sb388  1  0.11269100  0.61345567  0.30884671  1.0
  Sb  Sb389  1  0.11269100  0.94678900  0.30884671  1.0
  Sb  Sb390  1  0.44602433  0.28012233  0.30884671  1.0
  Sb  Sb391  1  0.44602433  0.61345567  0.30884671  1.0
  Sb  Sb392  1  0.44602433  0.94678900  0.30884671  1.0
  Sb  Sb393  1  0.77935767  0.28012233  0.30884671  1.0
  Sb  Sb394  1  0.77935767  0.61345567  0.30884671  1.0
  Sb  Sb395  1  0.77935767  0.94678900  0.30884671  1.0
  Sb  Sb396  1  0.05321100  0.05948000  0.40543900  1.0
  Sb  Sb397  1  0.05321100  0.39281333  0.40543900  1.0
  Sb  Sb398  1  0.05321100  0.72614667  0.40543900  1.0
  Sb  Sb399  1  0.38654433  0.05948000  0.40543900  1.0
  Sb  Sb400  1  0.38654433  0.39281333  0.40543900  1.0
  Sb  Sb401  1  0.38654433  0.72614667  0.40543900  1.0
  Sb  Sb402  1  0.71987767  0.05948000  0.40543900  1.0
  Sb  Sb403  1  0.71987767  0.39281333  0.40543900  1.0
  Sb  Sb404  1  0.71987767  0.72614667  0.40543900  1.0
  Sb  Sb405  1  0.28012233  0.27385333  0.40543900  1.0
  Sb  Sb406  1  0.28012233  0.60718667  0.40543900  1.0
  Sb  Sb407  1  0.28012233  0.94052000  0.40543900  1.0
  Sb  Sb408  1  0.61345567  0.27385333  0.40543900  1.0
  Sb  Sb409  1  0.61345567  0.60718667  0.40543900  1.0
  Sb  Sb410  1  0.61345567  0.94052000  0.40543900  1.0
  Sb  Sb411  1  0.94678900  0.27385333  0.40543900  1.0
  Sb  Sb412  1  0.94678900  0.60718667  0.40543900  1.0
  Sb  Sb413  1  0.94678900  0.94052000  0.40543900  1.0
  Sb  Sb414  1  0.28012233  0.16590200  0.40543900  1.0
  Sb  Sb415  1  0.28012233  0.49923533  0.40543900  1.0
  Sb  Sb416  1  0.28012233  0.83256867  0.40543900  1.0
  Sb  Sb417  1  0.61345567  0.16590200  0.40543900  1.0
  Sb  Sb418  1  0.61345567  0.49923533  0.40543900  1.0
  Sb  Sb419  1  0.61345567  0.83256867  0.40543900  1.0
  Sb  Sb420  1  0.94678900  0.16590200  0.40543900  1.0
  Sb  Sb421  1  0.94678900  0.49923533  0.40543900  1.0
  Sb  Sb422  1  0.94678900  0.83256867  0.40543900  1.0
  Sb  Sb423  1  0.05321100  0.16743133  0.40543900  1.0
  Sb  Sb424  1  0.05321100  0.50076467  0.40543900  1.0
  Sb  Sb425  1  0.05321100  0.83409800  0.40543900  1.0
  Sb  Sb426  1  0.38654433  0.16743133  0.40543900  1.0
  Sb  Sb427  1  0.38654433  0.50076467  0.40543900  1.0
  Sb  Sb428  1  0.38654433  0.83409800  0.40543900  1.0
  Sb  Sb429  1  0.71987767  0.16743133  0.40543900  1.0
  Sb  Sb430  1  0.71987767  0.50076467  0.40543900  1.0
  Sb  Sb431  1  0.71987767  0.83409800  0.40543900  1.0
