# generated using pymatgen
data_NiSb2
_symmetry_space_group_name_H-M   'P 1'
_cell_length_a   11.41044300
_cell_length_b   18.94153500
_cell_length_c   26.75275000
_cell_angle_alpha   90.00000000
_cell_angle_beta   90.00000000
_cell_angle_gamma   90.00000000
_symmetry_Int_Tables_number   1
_chemical_formula_structural   NiSb2
_chemical_formula_sum   'Ni36 Sb72'
_cell_volume   5782.10678188
_cell_formula_units_Z   36
loop_
 _symmetry_equiv_pos_site_id
 _symmetry_equiv_pos_as_xyz
  1  'x, y, z'
loop_
 _atom_site_type_symbol
 _atom_site_label
 _atom_site_symmetry_multiplicity
 _atom_site_fract_x
 _atom_site_fract_y
 _atom_site_fract_z
 _atom_site_occupancy
  Ni  Ni0  1  0.16666667  0.16666667  0.07841940  1.0
  Ni  Ni1  1  0.16666667  0.50000000  0.07841940  1.0
  Ni  Ni2  1  0.16666667  0.83333333  0.07841940  1.0
  Ni  Ni3  1  0.50000000  0.16666667  0.07841940  1.0
  Ni  Ni4  1  0.50000000  0.50000000  0.07841940  1.0
  Ni  Ni5  1  0.50000000  0.83333333  0.07841940  1.0
  Ni  Ni6  1  0.83333333  0.16666667  0.07841940  1.0
  Ni  Ni7  1  0.83333333  0.50000000  0.07841940  1.0
  Ni  Ni8  1  0.83333333  0.83333333  0.07841940  1.0
  Ni  Ni9  1  0.00000000  0.00000000  0.17841940  1.0
  Ni  Ni10  1  0.00000000  0.33333333  0.17841940  1.0
  Ni  Ni11  1  0.00000000  0.66666667  0.17841940  1.0
  Ni  Ni12  1  0.33333333  0.00000000  0.17841940  1.0
  Ni  Ni13  1  0.33333333  0.33333333  0.17841940  1.0
  Ni  Ni14  1  0.33333333  0.66666667  0.17841940  1.0
  Ni  Ni15  1  0.66666667  0.00000000  0.17841940  1.0
  Ni  Ni16  1  0.66666667  0.33333333  0.17841940  1.0
  Ni  Ni17  1  0.66666667  0.66666667  0.17841940  1.0
  Sb  Sb18  1  0.16666667  0.28680333  0.03525820  1.0
  Sb  Sb19  1  0.16666667  0.62013667  0.03525820  1.0
  Sb  Sb20  1  0.16666667  0.95347000  0.03525820  1.0
  Sb  Sb21  1  0.50000000  0.28680333  0.03525820  1.0
  Sb  Sb22  1  0.50000000  0.62013667  0.03525820  1.0
  Sb  Sb23  1  0.50000000  0.95347000  0.03525820  1.0
  Sb  Sb24  1  0.83333333  0.28680333  0.03525820  1.0
  Sb  Sb25  1  0.83333333  0.62013667  0.03525820  1.0
  Sb  Sb26  1  0.83333333  0.95347000  0.03525820  1.0
  Sb  Sb27  1  0.16666667  0.04653000  0.12158060  1.0
  Sb  Sb28  1  0.16666667  0.37986333  0.12158060  1.0
  Sb  Sb29  1  0.16666667  0.71319667  0.12158060  1.0
  Sb  Sb30  1  0.50000000  0.04653000  0.12158060  1.0
  Sb  Sb31  1  0.50000000  0.37986333  0.12158060  1.0
  Sb  Sb32  1  0.50000000  0.71319667  0.12158060  1.0
  Sb  Sb33  1  0.83333333  0.04653000  0.12158060  1.0
  Sb  Sb34  1  0.83333333  0.37986333  0.12158060  1.0
  Sb  Sb35  1  0.83333333  0.71319667  0.12158060  1.0
  Sb  Sb36  1  0.00000000  0.12013667  0.02158060  1.0
  Sb  Sb37  1  0.00000000  0.45347000  0.02158060  1.0
  Sb  Sb38  1  0.00000000  0.78680333  0.02158060  1.0
  Sb  Sb39  1  0.33333333  0.12013667  0.02158060  1.0
  Sb  Sb40  1  0.33333333  0.45347000  0.02158060  1.0
  Sb  Sb41  1  0.33333333  0.78680333  0.02158060  1.0
  Sb  Sb42  1  0.66666667  0.12013667  0.02158060  1.0
  Sb  Sb43  1  0.66666667  0.45347000  0.02158060  1.0
  Sb  Sb44  1  0.66666667  0.78680333  0.02158060  1.0
  Sb  Sb45  1  0.00000000  0.21319667  0.13525820  1.0
  Sb  Sb46  1  0.00000000  0.54653000  0.13525820  1.0
  Sb  Sb47  1  0.00000000  0.87986333  0.13525820  1.0
  Sb  Sb48  1  0.33333333  0.21319667  0.13525820  1.0
  Sb  Sb49  1  0.33333333  0.54653000  0.13525820  1.0
  Sb  Sb50  1  0.33333333  0.87986333  0.13525820  1.0
  Sb  Sb51  1  0.66666667  0.21319667  0.13525820  1.0
  Sb  Sb52  1  0.66666667  0.54653000  0.13525820  1.0
  Sb  Sb53  1  0.66666667  0.87986333  0.13525820  1.0
  Ni  Ni54  1  0.16666667  0.16666667  0.27841940  1.0
  Ni  Ni55  1  0.16666667  0.50000000  0.27841940  1.0
  Ni  Ni56  1  0.16666667  0.83333333  0.27841940  1.0
  Ni  Ni57  1  0.50000000  0.16666667  0.27841940  1.0
  Ni  Ni58  1  0.50000000  0.50000000  0.27841940  1.0
  Ni  Ni59  1  0.50000000  0.83333333  0.27841940  1.0
  Ni  Ni60  1  0.83333333  0.16666667  0.27841940  1.0
  Ni  Ni61  1  0.83333333  0.50000000  0.27841940  1.0
  Ni  Ni62  1  0.83333333  0.83333333  0.27841940  1.0
  Ni  Ni63  1  0.00000000  0.00000000  0.37841940  1.0
  Ni  Ni64  1  0.00000000  0.33333333  0.37841940  1.0
  Ni  Ni65  1  0.00000000  0.66666667  0.37841940  1.0
  Ni  Ni66  1  0.33333333  0.00000000  0.37841940  1.0
  Ni  Ni67  1  0.33333333  0.33333333  0.37841940  1.0
  Ni  Ni68  1  0.33333333  0.66666667  0.37841940  1.0
  Ni  Ni69  1  0.66666667  0.00000000  0.37841940  1.0
  Ni  Ni70  1  0.66666667  0.33333333  0.37841940  1.0
  Ni  Ni71  1  0.66666667  0.66666667  0.37841940  1.0
  Sb  Sb72  1  0.16666667  0.28680333  0.23525820  1.0
  Sb  Sb73  1  0.16666667  0.62013667  0.23525820  1.0
  Sb  Sb74  1  0.16666667  0.95347000  0.23525820  1.0
  Sb  Sb75  1  0.50000000  0.28680333  0.23525820  1.0
  Sb  Sb76  1  0.50000000  0.62013667  0.23525820  1.0
  Sb  Sb77  1  0.50000000  0.95347000  0.23525820  1.0
  Sb  Sb78  1  0.83333333  0.28680333  0.23525820  1.0
  Sb  Sb79  1  0.83333333  0.62013667  0.23525820  1.0
  Sb  Sb80  1  0.83333333  0.95347000  0.23525820  1.0
  Sb  Sb81  1  0.16666667  0.04653000  0.32158060  1.0
  Sb  Sb82  1  0.16666667  0.37986333  0.32158060  1.0
  Sb  Sb83  1  0.16666667  0.71319667  0.32158060  1.0
  Sb  Sb84  1  0.50000000  0.04653000  0.32158060  1.0
  Sb  Sb85  1  0.50000000  0.37986333  0.32158060  1.0
  Sb  Sb86  1  0.50000000  0.71319667  0.32158060  1.0
  Sb  Sb87  1  0.83333333  0.04653000  0.32158060  1.0
  Sb  Sb88  1  0.83333333  0.37986333  0.32158060  1.0
  Sb  Sb89  1  0.83333333  0.71319667  0.32158060  1.0
  Sb  Sb90  1  0.00000000  0.12013667  0.22158060  1.0
  Sb  Sb91  1  0.00000000  0.45347000  0.22158060  1.0
  Sb  Sb92  1  0.00000000  0.78680333  0.22158060  1.0
  Sb  Sb93  1  0.33333333  0.12013667  0.22158060  1.0
  Sb  Sb94  1  0.33333333  0.45347000  0.22158060  1.0
  Sb  Sb95  1  0.33333333  0.78680333  0.22158060  1.0
  Sb  Sb96  1  0.66666667  0.12013667  0.22158060  1.0
  Sb  Sb97  1  0.66666667  0.45347000  0.22158060  1.0
  Sb  Sb98  1  0.66666667  0.78680333  0.22158060  1.0
  Sb  Sb99  1  0.00000000  0.21319667  0.33525820  1.0
  Sb  Sb100  1  0.00000000  0.54653000  0.33525820  1.0
  Sb  Sb101  1  0.00000000  0.87986333  0.33525820  1.0
  Sb  Sb102  1  0.33333333  0.21319667  0.33525820  1.0
  Sb  Sb103  1  0.33333333  0.54653000  0.33525820  1.0
  Sb  Sb104  1  0.33333333  0.87986333  0.33525820  1.0
  Sb  Sb105  1  0.66666667  0.21319667  0.33525820  1.0
  Sb  Sb106  1  0.66666667  0.54653000  0.33525820  1.0
  Sb  Sb107  1  0.66666667  0.87986333  0.33525820  1.0
