# generated using pymatgen
data_NiSb2
_symmetry_space_group_name_H-M   'P 1'
_cell_length_a   19.69400105
_cell_length_b   39.56419091
_cell_length_c   34.23132900
_cell_angle_alpha   106.76238771
_cell_angle_beta   125.40742052
_cell_angle_gamma   80.38092228
_symmetry_Int_Tables_number   1
_chemical_formula_structural   NiSb2
_chemical_formula_sum   'Ni144 Sb288'
_cell_volume   20815.58441476
_cell_formula_units_Z   144
loop_
 _symmetry_equiv_pos_site_id
 _symmetry_equiv_pos_as_xyz
  1  'x, y, z'
loop_
 _atom_site_type_symbol
 _atom_site_label
 _atom_site_symmetry_multiplicity
 _atom_site_fract_x
 _atom_site_fract_y
 _atom_site_fract_z
 _atom_site_occupancy
  Ni  Ni0  1  0.16666667  0.08333333  0.02200061  1.0
  Ni  Ni1  1  0.16666667  0.41666667  0.02200061  1.0
  Ni  Ni2  1  0.16666667  0.75000000  0.02200061  1.0
  Ni  Ni3  1  0.50000000  0.08333333  0.02200061  1.0
  Ni  Ni4  1  0.50000000  0.41666667  0.02200061  1.0
  Ni  Ni5  1  0.50000000  0.75000000  0.02200061  1.0
  Ni  Ni6  1  0.83333333  0.08333333  0.02200061  1.0
  Ni  Ni7  1  0.83333333  0.41666667  0.02200061  1.0
  Ni  Ni8  1  0.83333333  0.75000000  0.02200061  1.0
  Ni  Ni9  1  0.16666667  0.25000000  0.07755617  1.0
  Ni  Ni10  1  0.16666667  0.58333333  0.07755617  1.0
  Ni  Ni11  1  0.16666667  0.91666667  0.07755617  1.0
  Ni  Ni12  1  0.50000000  0.25000000  0.07755617  1.0
  Ni  Ni13  1  0.50000000  0.58333333  0.07755617  1.0
  Ni  Ni14  1  0.50000000  0.91666667  0.07755617  1.0
  Ni  Ni15  1  0.83333333  0.25000000  0.07755617  1.0
  Ni  Ni16  1  0.83333333  0.58333333  0.07755617  1.0
  Ni  Ni17  1  0.83333333  0.91666667  0.07755617  1.0
  Ni  Ni18  1  0.00000000  0.00000000  0.10533394  1.0
  Ni  Ni19  1  0.00000000  0.33333333  0.10533394  1.0
  Ni  Ni20  1  0.00000000  0.66666667  0.10533394  1.0
  Ni  Ni21  1  0.33333333  0.00000000  0.10533394  1.0
  Ni  Ni22  1  0.33333333  0.33333333  0.10533394  1.0
  Ni  Ni23  1  0.33333333  0.66666667  0.10533394  1.0
  Ni  Ni24  1  0.66666667  0.00000000  0.10533394  1.0
  Ni  Ni25  1  0.66666667  0.33333333  0.10533394  1.0
  Ni  Ni26  1  0.66666667  0.66666667  0.10533394  1.0
  Ni  Ni27  1  0.00000000  0.16666667  0.04977839  1.0
  Ni  Ni28  1  0.00000000  0.50000000  0.04977839  1.0
  Ni  Ni29  1  0.00000000  0.83333333  0.04977839  1.0
  Ni  Ni30  1  0.33333333  0.16666667  0.04977839  1.0
  Ni  Ni31  1  0.33333333  0.50000000  0.04977839  1.0
  Ni  Ni32  1  0.33333333  0.83333333  0.04977839  1.0
  Ni  Ni33  1  0.66666667  0.16666667  0.04977839  1.0
  Ni  Ni34  1  0.66666667  0.50000000  0.04977839  1.0
  Ni  Ni35  1  0.66666667  0.83333333  0.04977839  1.0
  Sb  Sb36  1  0.23860200  0.02326500  0.02595628  1.0
  Sb  Sb37  1  0.23860200  0.35659833  0.02595628  1.0
  Sb  Sb38  1  0.23860200  0.68993167  0.02595628  1.0
  Sb  Sb39  1  0.57193533  0.02326500  0.02595628  1.0
  Sb  Sb40  1  0.57193533  0.35659833  0.02595628  1.0
  Sb  Sb41  1  0.57193533  0.68993167  0.02595628  1.0
  Sb  Sb42  1  0.90526867  0.02326500  0.02595628  1.0
  Sb  Sb43  1  0.90526867  0.35659833  0.02595628  1.0
  Sb  Sb44  1  0.90526867  0.68993167  0.02595628  1.0
  Sb  Sb45  1  0.23860200  0.18993167  0.08151183  1.0
  Sb  Sb46  1  0.23860200  0.52326500  0.08151183  1.0
  Sb  Sb47  1  0.23860200  0.85659833  0.08151183  1.0
  Sb  Sb48  1  0.57193533  0.18993167  0.08151183  1.0
  Sb  Sb49  1  0.57193533  0.52326500  0.08151183  1.0
  Sb  Sb50  1  0.57193533  0.85659833  0.08151183  1.0
  Sb  Sb51  1  0.90526867  0.18993167  0.08151183  1.0
  Sb  Sb52  1  0.90526867  0.52326500  0.08151183  1.0
  Sb  Sb53  1  0.90526867  0.85659833  0.08151183  1.0
  Sb  Sb54  1  0.09473133  0.14340167  0.01804494  1.0
  Sb  Sb55  1  0.09473133  0.47673500  0.01804494  1.0
  Sb  Sb56  1  0.09473133  0.81006833  0.01804494  1.0
  Sb  Sb57  1  0.42806467  0.14340167  0.01804494  1.0
  Sb  Sb58  1  0.42806467  0.47673500  0.01804494  1.0
  Sb  Sb59  1  0.42806467  0.81006833  0.01804494  1.0
  Sb  Sb60  1  0.76139800  0.14340167  0.01804494  1.0
  Sb  Sb61  1  0.76139800  0.47673500  0.01804494  1.0
  Sb  Sb62  1  0.76139800  0.81006833  0.01804494  1.0
  Sb  Sb63  1  0.09473133  0.31006833  0.07360050  1.0
  Sb  Sb64  1  0.09473133  0.64340167  0.07360050  1.0
  Sb  Sb65  1  0.09473133  0.97673500  0.07360050  1.0
  Sb  Sb66  1  0.42806467  0.31006833  0.07360050  1.0
  Sb  Sb67  1  0.42806467  0.64340167  0.07360050  1.0
  Sb  Sb68  1  0.42806467  0.97673500  0.07360050  1.0
  Sb  Sb69  1  0.76139800  0.31006833  0.07360050  1.0
  Sb  Sb70  1  0.76139800  0.64340167  0.07360050  1.0
  Sb  Sb71  1  0.76139800  0.97673500  0.07360050  1.0
  Sb  Sb72  1  0.26139800  0.10659833  0.00577717  1.0
  Sb  Sb73  1  0.26139800  0.43993167  0.00577717  1.0
  Sb  Sb74  1  0.26139800  0.77326500  0.00577717  1.0
  Sb  Sb75  1  0.59473133  0.10659833  0.00577717  1.0
  Sb  Sb76  1  0.59473133  0.43993167  0.00577717  1.0
  Sb  Sb77  1  0.59473133  0.77326500  0.00577717  1.0
  Sb  Sb78  1  0.92806467  0.10659833  0.00577717  1.0
  Sb  Sb79  1  0.92806467  0.43993167  0.00577717  1.0
  Sb  Sb80  1  0.92806467  0.77326500  0.00577717  1.0
  Sb  Sb81  1  0.26139800  0.27326500  0.06133272  1.0
  Sb  Sb82  1  0.26139800  0.60659833  0.06133272  1.0
  Sb  Sb83  1  0.26139800  0.93993167  0.06133272  1.0
  Sb  Sb84  1  0.59473133  0.27326500  0.06133272  1.0
  Sb  Sb85  1  0.59473133  0.60659833  0.06133272  1.0
  Sb  Sb86  1  0.59473133  0.93993167  0.06133272  1.0
  Sb  Sb87  1  0.92806467  0.27326500  0.06133272  1.0
  Sb  Sb88  1  0.92806467  0.60659833  0.06133272  1.0
  Sb  Sb89  1  0.92806467  0.93993167  0.06133272  1.0
  Sb  Sb90  1  0.07193533  0.06006833  0.03822406  1.0
  Sb  Sb91  1  0.07193533  0.39340167  0.03822406  1.0
  Sb  Sb92  1  0.07193533  0.72673500  0.03822406  1.0
  Sb  Sb93  1  0.40526867  0.06006833  0.03822406  1.0
  Sb  Sb94  1  0.40526867  0.39340167  0.03822406  1.0
  Sb  Sb95  1  0.40526867  0.72673500  0.03822406  1.0
  Sb  Sb96  1  0.73860200  0.06006833  0.03822406  1.0
  Sb  Sb97  1  0.73860200  0.39340167  0.03822406  1.0
  Sb  Sb98  1  0.73860200  0.72673500  0.03822406  1.0
  Sb  Sb99  1  0.07193533  0.22673500  0.09377961  1.0
  Sb  Sb100  1  0.07193533  0.56006833  0.09377961  1.0
  Sb  Sb101  1  0.07193533  0.89340167  0.09377961  1.0
  Sb  Sb102  1  0.40526867  0.22673500  0.09377961  1.0
  Sb  Sb103  1  0.40526867  0.56006833  0.09377961  1.0
  Sb  Sb104  1  0.40526867  0.89340167  0.09377961  1.0
  Sb  Sb105  1  0.73860200  0.22673500  0.09377961  1.0
  Sb  Sb106  1  0.73860200  0.56006833  0.09377961  1.0
  Sb  Sb107  1  0.73860200  0.89340167  0.09377961  1.0
  Ni  Ni108  1  0.16666667  0.08333333  0.13311172  1.0
  Ni  Ni109  1  0.16666667  0.41666667  0.13311172  1.0
  Ni  Ni110  1  0.16666667  0.75000000  0.13311172  1.0
  Ni  Ni111  1  0.50000000  0.08333333  0.13311172  1.0
  Ni  Ni112  1  0.50000000  0.41666667  0.13311172  1.0
  Ni  Ni113  1  0.50000000  0.75000000  0.13311172  1.0
  Ni  Ni114  1  0.83333333  0.08333333  0.13311172  1.0
  Ni  Ni115  1  0.83333333  0.41666667  0.13311172  1.0
  Ni  Ni116  1  0.83333333  0.75000000  0.13311172  1.0
  Ni  Ni117  1  0.16666667  0.25000000  0.18866728  1.0
  Ni  Ni118  1  0.16666667  0.58333333  0.18866728  1.0
  Ni  Ni119  1  0.16666667  0.91666667  0.18866728  1.0
  Ni  Ni120  1  0.50000000  0.25000000  0.18866728  1.0
  Ni  Ni121  1  0.50000000  0.58333333  0.18866728  1.0
  Ni  Ni122  1  0.50000000  0.91666667  0.18866728  1.0
  Ni  Ni123  1  0.83333333  0.25000000  0.18866728  1.0
  Ni  Ni124  1  0.83333333  0.58333333  0.18866728  1.0
  Ni  Ni125  1  0.83333333  0.91666667  0.18866728  1.0
  Ni  Ni126  1  0.00000000  0.00000000  0.21644506  1.0
  Ni  Ni127  1  0.00000000  0.33333333  0.21644506  1.0
  Ni  Ni128  1  0.00000000  0.66666667  0.21644506  1.0
  Ni  Ni129  1  0.33333333  0.00000000  0.21644506  1.0
  Ni  Ni130  1  0.33333333  0.33333333  0.21644506  1.0
  Ni  Ni131  1  0.33333333  0.66666667  0.21644506  1.0
  Ni  Ni132  1  0.66666667  0.00000000  0.21644506  1.0
  Ni  Ni133  1  0.66666667  0.33333333  0.21644506  1.0
  Ni  Ni134  1  0.66666667  0.66666667  0.21644506  1.0
  Ni  Ni135  1  0.00000000  0.16666667  0.16088950  1.0
  Ni  Ni136  1  0.00000000  0.50000000  0.16088950  1.0
  Ni  Ni137  1  0.00000000  0.83333333  0.16088950  1.0
  Ni  Ni138  1  0.33333333  0.16666667  0.16088950  1.0
  Ni  Ni139  1  0.33333333  0.50000000  0.16088950  1.0
  Ni  Ni140  1  0.33333333  0.83333333  0.16088950  1.0
  Ni  Ni141  1  0.66666667  0.16666667  0.16088950  1.0
  Ni  Ni142  1  0.66666667  0.50000000  0.16088950  1.0
  Ni  Ni143  1  0.66666667  0.83333333  0.16088950  1.0
  Sb  Sb144  1  0.23860200  0.02326500  0.13706739  1.0
  Sb  Sb145  1  0.23860200  0.35659833  0.13706739  1.0
  Sb  Sb146  1  0.23860200  0.68993167  0.13706739  1.0
  Sb  Sb147  1  0.57193533  0.02326500  0.13706739  1.0
  Sb  Sb148  1  0.57193533  0.35659833  0.13706739  1.0
  Sb  Sb149  1  0.57193533  0.68993167  0.13706739  1.0
  Sb  Sb150  1  0.90526867  0.02326500  0.13706739  1.0
  Sb  Sb151  1  0.90526867  0.35659833  0.13706739  1.0
  Sb  Sb152  1  0.90526867  0.68993167  0.13706739  1.0
  Sb  Sb153  1  0.23860200  0.18993167  0.19262294  1.0
  Sb  Sb154  1  0.23860200  0.52326500  0.19262294  1.0
  Sb  Sb155  1  0.23860200  0.85659833  0.19262294  1.0
  Sb  Sb156  1  0.57193533  0.18993167  0.19262294  1.0
  Sb  Sb157  1  0.57193533  0.52326500  0.19262294  1.0
  Sb  Sb158  1  0.57193533  0.85659833  0.19262294  1.0
  Sb  Sb159  1  0.90526867  0.18993167  0.19262294  1.0
  Sb  Sb160  1  0.90526867  0.52326500  0.19262294  1.0
  Sb  Sb161  1  0.90526867  0.85659833  0.19262294  1.0
  Sb  Sb162  1  0.09473133  0.14340167  0.12915606  1.0
  Sb  Sb163  1  0.09473133  0.47673500  0.12915606  1.0
  Sb  Sb164  1  0.09473133  0.81006833  0.12915606  1.0
  Sb  Sb165  1  0.42806467  0.14340167  0.12915606  1.0
  Sb  Sb166  1  0.42806467  0.47673500  0.12915606  1.0
  Sb  Sb167  1  0.42806467  0.81006833  0.12915606  1.0
  Sb  Sb168  1  0.76139800  0.14340167  0.12915606  1.0
  Sb  Sb169  1  0.76139800  0.47673500  0.12915606  1.0
  Sb  Sb170  1  0.76139800  0.81006833  0.12915606  1.0
  Sb  Sb171  1  0.09473133  0.31006833  0.18471161  1.0
  Sb  Sb172  1  0.09473133  0.64340167  0.18471161  1.0
  Sb  Sb173  1  0.09473133  0.97673500  0.18471161  1.0
  Sb  Sb174  1  0.42806467  0.31006833  0.18471161  1.0
  Sb  Sb175  1  0.42806467  0.64340167  0.18471161  1.0
  Sb  Sb176  1  0.42806467  0.97673500  0.18471161  1.0
  Sb  Sb177  1  0.76139800  0.31006833  0.18471161  1.0
  Sb  Sb178  1  0.76139800  0.64340167  0.18471161  1.0
  Sb  Sb179  1  0.76139800  0.97673500  0.18471161  1.0
  Sb  Sb180  1  0.26139800  0.10659833  0.11688828  1.0
  Sb  Sb181  1  0.26139800  0.43993167  0.11688828  1.0
  Sb  Sb182  1  0.26139800  0.77326500  0.11688828  1.0
  Sb  Sb183  1  0.59473133  0.10659833  0.11688828  1.0
  Sb  Sb184  1  0.59473133  0.43993167  0.11688828  1.0
  Sb  Sb185  1  0.59473133  0.77326500  0.11688828  1.0
  Sb  Sb186  1  0.92806467  0.10659833  0.11688828  1.0
  Sb  Sb187  1  0.92806467  0.43993167  0.11688828  1.0
  Sb  Sb188  1  0.92806467  0.77326500  0.11688828  1.0
  Sb  Sb189  1  0.26139800  0.27326500  0.17244383  1.0
  Sb  Sb190  1  0.26139800  0.60659833  0.17244383  1.0
  Sb  Sb191  1  0.26139800  0.93993167  0.17244383  1.0
  Sb  Sb192  1  0.59473133  0.27326500  0.17244383  1.0
  Sb  Sb193  1  0.59473133  0.60659833  0.17244383  1.0
  Sb  Sb194  1  0.59473133  0.93993167  0.17244383  1.0
  Sb  Sb195  1  0.92806467  0.27326500  0.17244383  1.0
  Sb  Sb196  1  0.92806467  0.60659833  0.17244383  1.0
  Sb  Sb197  1  0.92806467  0.93993167  0.17244383  1.0
  Sb  Sb198  1  0.07193533  0.06006833  0.14933517  1.0
  Sb  Sb199  1  0.07193533  0.39340167  0.14933517  1.0
  Sb  Sb200  1  0.07193533  0.72673500  0.14933517  1.0
  Sb  Sb201  1  0.40526867  0.06006833  0.14933517  1.0
  Sb  Sb202  1  0.40526867  0.39340167  0.14933517  1.0
  Sb  Sb203  1  0.40526867  0.72673500  0.14933517  1.0
  Sb  Sb204  1  0.73860200  0.06006833  0.14933517  1.0
  Sb  Sb205  1  0.73860200  0.39340167  0.14933517  1.0
  Sb  Sb206  1  0.73860200  0.72673500  0.14933517  1.0
  Sb  Sb207  1  0.07193533  0.22673500  0.20489072  1.0
  Sb  Sb208  1  0.07193533  0.56006833  0.20489072  1.0
  Sb  Sb209  1  0.07193533  0.89340167  0.20489072  1.0
  Sb  Sb210  1  0.40526867  0.22673500  0.20489072  1.0
  Sb  Sb211  1  0.40526867  0.56006833  0.20489072  1.0
  Sb  Sb212  1  0.40526867  0.89340167  0.20489072  1.0
  Sb  Sb213  1  0.73860200  0.22673500  0.20489072  1.0
  Sb  Sb214  1  0.73860200  0.56006833  0.20489072  1.0
  Sb  Sb215  1  0.73860200  0.89340167  0.20489072  1.0
  Ni  Ni216  1  0.16666667  0.08333333  0.24422283  1.0
  Ni  Ni217  1  0.16666667  0.41666667  0.24422283  1.0
  Ni  Ni218  1  0.16666667  0.75000000  0.24422283  1.0
  Ni  Ni219  1  0.50000000  0.08333333  0.24422283  1.0
  Ni  Ni220  1  0.50000000  0.41666667  0.24422283  1.0
  Ni  Ni221  1  0.50000000  0.75000000  0.24422283  1.0
  Ni  Ni222  1  0.83333333  0.08333333  0.24422283  1.0
  Ni  Ni223  1  0.83333333  0.41666667  0.24422283  1.0
  Ni  Ni224  1  0.83333333  0.75000000  0.24422283  1.0
  Ni  Ni225  1  0.16666667  0.25000000  0.29977839  1.0
  Ni  Ni226  1  0.16666667  0.58333333  0.29977839  1.0
  Ni  Ni227  1  0.16666667  0.91666667  0.29977839  1.0
  Ni  Ni228  1  0.50000000  0.25000000  0.29977839  1.0
  Ni  Ni229  1  0.50000000  0.58333333  0.29977839  1.0
  Ni  Ni230  1  0.50000000  0.91666667  0.29977839  1.0
  Ni  Ni231  1  0.83333333  0.25000000  0.29977839  1.0
  Ni  Ni232  1  0.83333333  0.58333333  0.29977839  1.0
  Ni  Ni233  1  0.83333333  0.91666667  0.29977839  1.0
  Ni  Ni234  1  0.00000000  0.00000000  0.32755617  1.0
  Ni  Ni235  1  0.00000000  0.33333333  0.32755617  1.0
  Ni  Ni236  1  0.00000000  0.66666667  0.32755617  1.0
  Ni  Ni237  1  0.33333333  0.00000000  0.32755617  1.0
  Ni  Ni238  1  0.33333333  0.33333333  0.32755617  1.0
  Ni  Ni239  1  0.33333333  0.66666667  0.32755617  1.0
  Ni  Ni240  1  0.66666667  0.00000000  0.32755617  1.0
  Ni  Ni241  1  0.66666667  0.33333333  0.32755617  1.0
  Ni  Ni242  1  0.66666667  0.66666667  0.32755617  1.0
  Ni  Ni243  1  0.00000000  0.16666667  0.27200061  1.0
  Ni  Ni244  1  0.00000000  0.50000000  0.27200061  1.0
  Ni  Ni245  1  0.00000000  0.83333333  0.27200061  1.0
  Ni  Ni246  1  0.33333333  0.16666667  0.27200061  1.0
  Ni  Ni247  1  0.33333333  0.50000000  0.27200061  1.0
  Ni  Ni248  1  0.33333333  0.83333333  0.27200061  1.0
  Ni  Ni249  1  0.66666667  0.16666667  0.27200061  1.0
  Ni  Ni250  1  0.66666667  0.50000000  0.27200061  1.0
  Ni  Ni251  1  0.66666667  0.83333333  0.27200061  1.0
  Sb  Sb252  1  0.23860200  0.02326500  0.24817850  1.0
  Sb  Sb253  1  0.23860200  0.35659833  0.24817850  1.0
  Sb  Sb254  1  0.23860200  0.68993167  0.24817850  1.0
  Sb  Sb255  1  0.57193533  0.02326500  0.24817850  1.0
  Sb  Sb256  1  0.57193533  0.35659833  0.24817850  1.0
  Sb  Sb257  1  0.57193533  0.68993167  0.24817850  1.0
  Sb  Sb258  1  0.90526867  0.02326500  0.24817850  1.0
  Sb  Sb259  1  0.90526867  0.35659833  0.24817850  1.0
  Sb  Sb260  1  0.90526867  0.68993167  0.24817850  1.0
  Sb  Sb261  1  0.23860200  0.18993167  0.30373406  1.0
  Sb  Sb262  1  0.23860200  0.52326500  0.30373406  1.0
  Sb  Sb263  1  0.23860200  0.85659833  0.30373406  1.0
  Sb  Sb264  1  0.57193533  0.18993167  0.30373406  1.0
  Sb  Sb265  1  0.57193533  0.52326500  0.30373406  1.0
  Sb  Sb266  1  0.57193533  0.85659833  0.30373406  1.0
  Sb  Sb267  1  0.90526867  0.18993167  0.30373406  1.0
  Sb  Sb268  1  0.90526867  0.52326500  0.30373406  1.0
  Sb  Sb269  1  0.90526867  0.85659833  0.30373406  1.0
  Sb  Sb270  1  0.09473133  0.14340167  0.24026717  1.0
  Sb  Sb271  1  0.09473133  0.47673500  0.24026717  1.0
  Sb  Sb272  1  0.09473133  0.81006833  0.24026717  1.0
  Sb  Sb273  1  0.42806467  0.14340167  0.24026717  1.0
  Sb  Sb274  1  0.42806467  0.47673500  0.24026717  1.0
  Sb  Sb275  1  0.42806467  0.81006833  0.24026717  1.0
  Sb  Sb276  1  0.76139800  0.14340167  0.24026717  1.0
  Sb  Sb277  1  0.76139800  0.47673500  0.24026717  1.0
  Sb  Sb278  1  0.76139800  0.81006833  0.24026717  1.0
  Sb  Sb279  1  0.09473133  0.31006833  0.29582272  1.0
  Sb  Sb280  1  0.09473133  0.64340167  0.29582272  1.0
  Sb  Sb281  1  0.09473133  0.97673500  0.29582272  1.0
  Sb  Sb282  1  0.42806467  0.31006833  0.29582272  1.0
  Sb  Sb283  1  0.42806467  0.64340167  0.29582272  1.0
  Sb  Sb284  1  0.42806467  0.97673500  0.29582272  1.0
  Sb  Sb285  1  0.76139800  0.31006833  0.29582272  1.0
  Sb  Sb286  1  0.76139800  0.64340167  0.29582272  1.0
  Sb  Sb287  1  0.76139800  0.97673500  0.29582272  1.0
  Sb  Sb288  1  0.26139800  0.10659833  0.22799939  1.0
  Sb  Sb289  1  0.26139800  0.43993167  0.22799939  1.0
  Sb  Sb290  1  0.26139800  0.77326500  0.22799939  1.0
  Sb  Sb291  1  0.59473133  0.10659833  0.22799939  1.0
  Sb  Sb292  1  0.59473133  0.43993167  0.22799939  1.0
  Sb  Sb293  1  0.59473133  0.77326500  0.22799939  1.0
  Sb  Sb294  1  0.92806467  0.10659833  0.22799939  1.0
  Sb  Sb295  1  0.92806467  0.43993167  0.22799939  1.0
  Sb  Sb296  1  0.92806467  0.77326500  0.22799939  1.0
  Sb  Sb297  1  0.26139800  0.27326500  0.28355494  1.0
  Sb  Sb298  1  0.26139800  0.60659833  0.28355494  1.0
  Sb  Sb299  1  0.26139800  0.93993167  0.28355494  1.0
  Sb  Sb300  1  0.59473133  0.27326500  0.28355494  1.0
  Sb  Sb301  1  0.59473133  0.60659833  0.28355494  1.0
  Sb  Sb302  1  0.59473133  0.93993167  0.28355494  1.0
  Sb  Sb303  1  0.92806467  0.27326500  0.28355494  1.0
  Sb  Sb304  1  0.92806467  0.60659833  0.28355494  1.0
  Sb  Sb305  1  0.92806467  0.93993167  0.28355494  1.0
  Sb  Sb306  1  0.07193533  0.06006833  0.26044628  1.0
  Sb  Sb307  1  0.07193533  0.39340167  0.26044628  1.0
  Sb  Sb308  1  0.07193533  0.72673500  0.26044628  1.0
  Sb  Sb309  1  0.40526867  0.06006833  0.26044628  1.0
  Sb  Sb310  1  0.40526867  0.39340167  0.26044628  1.0
  Sb  Sb311  1  0.40526867  0.72673500  0.26044628  1.0
  Sb  Sb312  1  0.73860200  0.06006833  0.26044628  1.0
  Sb  Sb313  1  0.73860200  0.39340167  0.26044628  1.0
  Sb  Sb314  1  0.73860200  0.72673500  0.26044628  1.0
  Sb  Sb315  1  0.07193533  0.22673500  0.31600183  1.0
  Sb  Sb316  1  0.07193533  0.56006833  0.31600183  1.0
  Sb  Sb317  1  0.07193533  0.89340167  0.31600183  1.0
  Sb  Sb318  1  0.40526867  0.22673500  0.31600183  1.0
  Sb  Sb319  1  0.40526867  0.56006833  0.31600183  1.0
  Sb  Sb320  1  0.40526867  0.89340167  0.31600183  1.0
  Sb  Sb321  1  0.73860200  0.22673500  0.31600183  1.0
  Sb  Sb322  1  0.73860200  0.56006833  0.31600183  1.0
  Sb  Sb323  1  0.73860200  0.89340167  0.31600183  1.0
  Ni  Ni324  1  0.16666667  0.08333333  0.35533394  1.0
  Ni  Ni325  1  0.16666667  0.41666667  0.35533394  1.0
  Ni  Ni326  1  0.16666667  0.75000000  0.35533394  1.0
  Ni  Ni327  1  0.50000000  0.08333333  0.35533394  1.0
  Ni  Ni328  1  0.50000000  0.41666667  0.35533394  1.0
  Ni  Ni329  1  0.50000000  0.75000000  0.35533394  1.0
  Ni  Ni330  1  0.83333333  0.08333333  0.35533394  1.0
  Ni  Ni331  1  0.83333333  0.41666667  0.35533394  1.0
  Ni  Ni332  1  0.83333333  0.75000000  0.35533394  1.0
  Ni  Ni333  1  0.16666667  0.25000000  0.41088950  1.0
  Ni  Ni334  1  0.16666667  0.58333333  0.41088950  1.0
  Ni  Ni335  1  0.16666667  0.91666667  0.41088950  1.0
  Ni  Ni336  1  0.50000000  0.25000000  0.41088950  1.0
  Ni  Ni337  1  0.50000000  0.58333333  0.41088950  1.0
  Ni  Ni338  1  0.50000000  0.91666667  0.41088950  1.0
  Ni  Ni339  1  0.83333333  0.25000000  0.41088950  1.0
  Ni  Ni340  1  0.83333333  0.58333333  0.41088950  1.0
  Ni  Ni341  1  0.83333333  0.91666667  0.41088950  1.0
  Ni  Ni342  1  0.00000000  0.00000000  0.43866728  1.0
  Ni  Ni343  1  0.00000000  0.33333333  0.43866728  1.0
  Ni  Ni344  1  0.00000000  0.66666667  0.43866728  1.0
  Ni  Ni345  1  0.33333333  0.00000000  0.43866728  1.0
  Ni  Ni346  1  0.33333333  0.33333333  0.43866728  1.0
  Ni  Ni347  1  0.33333333  0.66666667  0.43866728  1.0
  Ni  Ni348  1  0.66666667  0.00000000  0.43866728  1.0
  Ni  Ni349  1  0.66666667  0.33333333  0.43866728  1.0
  Ni  Ni350  1  0.66666667  0.66666667  0.43866728  1.0
  Ni  Ni351  1  0.00000000  0.16666667  0.38311172  1.0
  Ni  Ni352  1  0.00000000  0.50000000  0.38311172  1.0
  Ni  Ni353  1  0.00000000  0.83333333  0.38311172  1.0
  Ni  Ni354  1  0.33333333  0.16666667  0.38311172  1.0
  Ni  Ni355  1  0.33333333  0.50000000  0.38311172  1.0
  Ni  Ni356  1  0.33333333  0.83333333  0.38311172  1.0
  Ni  Ni357  1  0.66666667  0.16666667  0.38311172  1.0
  Ni  Ni358  1  0.66666667  0.50000000  0.38311172  1.0
  Ni  Ni359  1  0.66666667  0.83333333  0.38311172  1.0
  Sb  Sb360  1  0.23860200  0.02326500  0.35928961  1.0
  Sb  Sb361  1  0.23860200  0.35659833  0.35928961  1.0
  Sb  Sb362  1  0.23860200  0.68993167  0.35928961  1.0
  Sb  Sb363  1  0.57193533  0.02326500  0.35928961  1.0
  Sb  Sb364  1  0.57193533  0.35659833  0.35928961  1.0
  Sb  Sb365  1  0.57193533  0.68993167  0.35928961  1.0
  Sb  Sb366  1  0.90526867  0.02326500  0.35928961  1.0
  Sb  Sb367  1  0.90526867  0.35659833  0.35928961  1.0
  Sb  Sb368  1  0.90526867  0.68993167  0.35928961  1.0
  Sb  Sb369  1  0.23860200  0.18993167  0.41484517  1.0
  Sb  Sb370  1  0.23860200  0.52326500  0.41484517  1.0
  Sb  Sb371  1  0.23860200  0.85659833  0.41484517  1.0
  Sb  Sb372  1  0.57193533  0.18993167  0.41484517  1.0
  Sb  Sb373  1  0.57193533  0.52326500  0.41484517  1.0
  Sb  Sb374  1  0.57193533  0.85659833  0.41484517  1.0
  Sb  Sb375  1  0.90526867  0.18993167  0.41484517  1.0
  Sb  Sb376  1  0.90526867  0.52326500  0.41484517  1.0
  Sb  Sb377  1  0.90526867  0.85659833  0.41484517  1.0
  Sb  Sb378  1  0.09473133  0.14340167  0.35137828  1.0
  Sb  Sb379  1  0.09473133  0.47673500  0.35137828  1.0
  Sb  Sb380  1  0.09473133  0.81006833  0.35137828  1.0
  Sb  Sb381  1  0.42806467  0.14340167  0.35137828  1.0
  Sb  Sb382  1  0.42806467  0.47673500  0.35137828  1.0
  Sb  Sb383  1  0.42806467  0.81006833  0.35137828  1.0
  Sb  Sb384  1  0.76139800  0.14340167  0.35137828  1.0
  Sb  Sb385  1  0.76139800  0.47673500  0.35137828  1.0
  Sb  Sb386  1  0.76139800  0.81006833  0.35137828  1.0
  Sb  Sb387  1  0.09473133  0.31006833  0.40693383  1.0
  Sb  Sb388  1  0.09473133  0.64340167  0.40693383  1.0
  Sb  Sb389  1  0.09473133  0.97673500  0.40693383  1.0
  Sb  Sb390  1  0.42806467  0.31006833  0.40693383  1.0
  Sb  Sb391  1  0.42806467  0.64340167  0.40693383  1.0
  Sb  Sb392  1  0.42806467  0.97673500  0.40693383  1.0
  Sb  Sb393  1  0.76139800  0.31006833  0.40693383  1.0
  Sb  Sb394  1  0.76139800  0.64340167  0.40693383  1.0
  Sb  Sb395  1  0.76139800  0.97673500  0.40693383  1.0
  Sb  Sb396  1  0.26139800  0.10659833  0.33911050  1.0
  Sb  Sb397  1  0.26139800  0.43993167  0.33911050  1.0
  Sb  Sb398  1  0.26139800  0.77326500  0.33911050  1.0
  Sb  Sb399  1  0.59473133  0.10659833  0.33911050  1.0
  Sb  Sb400  1  0.59473133  0.43993167  0.33911050  1.0
  Sb  Sb401  1  0.59473133  0.77326500  0.33911050  1.0
  Sb  Sb402  1  0.92806467  0.10659833  0.33911050  1.0
  Sb  Sb403  1  0.92806467  0.43993167  0.33911050  1.0
  Sb  Sb404  1  0.92806467  0.77326500  0.33911050  1.0
  Sb  Sb405  1  0.26139800  0.27326500  0.39466606  1.0
  Sb  Sb406  1  0.26139800  0.60659833  0.39466606  1.0
  Sb  Sb407  1  0.26139800  0.93993167  0.39466606  1.0
  Sb  Sb408  1  0.59473133  0.27326500  0.39466606  1.0
  Sb  Sb409  1  0.59473133  0.60659833  0.39466606  1.0
  Sb  Sb410  1  0.59473133  0.93993167  0.39466606  1.0
  Sb  Sb411  1  0.92806467  0.27326500  0.39466606  1.0
  Sb  Sb412  1  0.92806467  0.60659833  0.39466606  1.0
  Sb  Sb413  1  0.92806467  0.93993167  0.39466606  1.0
  Sb  Sb414  1  0.07193533  0.06006833  0.37155739  1.0
  Sb  Sb415  1  0.07193533  0.39340167  0.37155739  1.0
  Sb  Sb416  1  0.07193533  0.72673500  0.37155739  1.0
  Sb  Sb417  1  0.40526867  0.06006833  0.37155739  1.0
  Sb  Sb418  1  0.40526867  0.39340167  0.37155739  1.0
  Sb  Sb419  1  0.40526867  0.72673500  0.37155739  1.0
  Sb  Sb420  1  0.73860200  0.06006833  0.37155739  1.0
  Sb  Sb421  1  0.73860200  0.39340167  0.37155739  1.0
  Sb  Sb422  1  0.73860200  0.72673500  0.37155739  1.0
  Sb  Sb423  1  0.07193533  0.22673500  0.42711294  1.0
  Sb  Sb424  1  0.07193533  0.56006833  0.42711294  1.0
  Sb  Sb425  1  0.07193533  0.89340167  0.42711294  1.0
  Sb  Sb426  1  0.40526867  0.22673500  0.42711294  1.0
  Sb  Sb427  1  0.40526867  0.56006833  0.42711294  1.0
  Sb  Sb428  1  0.40526867  0.89340167  0.42711294  1.0
  Sb  Sb429  1  0.73860200  0.22673500  0.42711294  1.0
  Sb  Sb430  1  0.73860200  0.56006833  0.42711294  1.0
  Sb  Sb431  1  0.73860200  0.89340167  0.42711294  1.0
