# generated using pymatgen
data_NiSb3
_symmetry_space_group_name_H-M   'P 1'
_cell_length_a   27.75738001
_cell_length_b   46.03040733
_cell_length_c   29.25884757
_cell_angle_alpha   89.99999999
_cell_angle_beta   90.00000001
_cell_angle_gamma   107.54840062
_symmetry_Int_Tables_number   1
_chemical_formula_structural   NiSb3
_chemical_formula_sum   'Ni144 Sb432'
_cell_volume   35643.81352815
_cell_formula_units_Z   144
loop_
 _symmetry_equiv_pos_site_id
 _symmetry_equiv_pos_as_xyz
  1  'x, y, z'
loop_
 _atom_site_type_symbol
 _atom_site_label
 _atom_site_symmetry_multiplicity
 _atom_site_fract_x
 _atom_site_fract_y
 _atom_site_fract_z
 _atom_site_occupancy
  Ni  Ni0  1  0.14130740  0.13043580  0.14130740  1.0
  Ni  Ni1  1  0.14130740  0.46376913  0.14130740  1.0
  Ni  Ni2  1  0.14130740  0.79710247  0.14130740  1.0
  Ni  Ni3  1  0.47464073  0.13043580  0.14130740  1.0
  Ni  Ni4  1  0.47464073  0.46376913  0.14130740  1.0
  Ni  Ni5  1  0.47464073  0.79710247  0.14130740  1.0
  Ni  Ni6  1  0.80797407  0.13043580  0.14130740  1.0
  Ni  Ni7  1  0.80797407  0.46376913  0.14130740  1.0
  Ni  Ni8  1  0.80797407  0.79710247  0.14130740  1.0
  Ni  Ni9  1  0.04130740  0.26376913  0.04130740  1.0
  Ni  Ni10  1  0.04130740  0.59710247  0.04130740  1.0
  Ni  Ni11  1  0.04130740  0.93043580  0.04130740  1.0
  Ni  Ni12  1  0.37464073  0.26376913  0.04130740  1.0
  Ni  Ni13  1  0.37464073  0.59710247  0.04130740  1.0
  Ni  Ni14  1  0.37464073  0.93043580  0.04130740  1.0
  Ni  Ni15  1  0.70797407  0.26376913  0.04130740  1.0
  Ni  Ni16  1  0.70797407  0.59710247  0.04130740  1.0
  Ni  Ni17  1  0.70797407  0.93043580  0.04130740  1.0
  Ni  Ni18  1  0.19130740  0.23043580  0.19130740  1.0
  Ni  Ni19  1  0.19130740  0.56376913  0.19130740  1.0
  Ni  Ni20  1  0.19130740  0.89710247  0.19130740  1.0
  Ni  Ni21  1  0.52464073  0.23043580  0.19130740  1.0
  Ni  Ni22  1  0.52464073  0.56376913  0.19130740  1.0
  Ni  Ni23  1  0.52464073  0.89710247  0.19130740  1.0
  Ni  Ni24  1  0.85797407  0.23043580  0.19130740  1.0
  Ni  Ni25  1  0.85797407  0.56376913  0.19130740  1.0
  Ni  Ni26  1  0.85797407  0.89710247  0.19130740  1.0
  Ni  Ni27  1  0.09130740  0.03043580  0.09130740  1.0
  Ni  Ni28  1  0.09130740  0.36376913  0.09130740  1.0
  Ni  Ni29  1  0.09130740  0.69710247  0.09130740  1.0
  Ni  Ni30  1  0.42464073  0.03043580  0.09130740  1.0
  Ni  Ni31  1  0.42464073  0.36376913  0.09130740  1.0
  Ni  Ni32  1  0.42464073  0.69710247  0.09130740  1.0
  Ni  Ni33  1  0.75797407  0.03043580  0.09130740  1.0
  Ni  Ni34  1  0.75797407  0.36376913  0.09130740  1.0
  Ni  Ni35  1  0.75797407  0.69710247  0.09130740  1.0
  Ni  Ni36  1  0.20797407  0.26376913  0.04130740  1.0
  Ni  Ni37  1  0.20797407  0.59710247  0.04130740  1.0
  Ni  Ni38  1  0.20797407  0.93043580  0.04130740  1.0
  Ni  Ni39  1  0.54130740  0.26376913  0.04130740  1.0
  Ni  Ni40  1  0.54130740  0.59710247  0.04130740  1.0
  Ni  Ni41  1  0.54130740  0.93043580  0.04130740  1.0
  Ni  Ni42  1  0.87464073  0.26376913  0.04130740  1.0
  Ni  Ni43  1  0.87464073  0.59710247  0.04130740  1.0
  Ni  Ni44  1  0.87464073  0.93043580  0.04130740  1.0
  Ni  Ni45  1  0.30797407  0.13043580  0.14130740  1.0
  Ni  Ni46  1  0.30797407  0.46376913  0.14130740  1.0
  Ni  Ni47  1  0.30797407  0.79710247  0.14130740  1.0
  Ni  Ni48  1  0.64130740  0.13043580  0.14130740  1.0
  Ni  Ni49  1  0.64130740  0.46376913  0.14130740  1.0
  Ni  Ni50  1  0.64130740  0.79710247  0.14130740  1.0
  Ni  Ni51  1  0.97464073  0.13043580  0.14130740  1.0
  Ni  Ni52  1  0.97464073  0.46376913  0.14130740  1.0
  Ni  Ni53  1  0.97464073  0.79710247  0.14130740  1.0
  Ni  Ni54  1  0.02464073  0.23043580  0.19130740  1.0
  Ni  Ni55  1  0.02464073  0.56376913  0.19130740  1.0
  Ni  Ni56  1  0.02464073  0.89710247  0.19130740  1.0
  Ni  Ni57  1  0.35797407  0.23043580  0.19130740  1.0
  Ni  Ni58  1  0.35797407  0.56376913  0.19130740  1.0
  Ni  Ni59  1  0.35797407  0.89710247  0.19130740  1.0
  Ni  Ni60  1  0.69130740  0.23043580  0.19130740  1.0
  Ni  Ni61  1  0.69130740  0.56376913  0.19130740  1.0
  Ni  Ni62  1  0.69130740  0.89710247  0.19130740  1.0
  Ni  Ni63  1  0.25797407  0.03043580  0.09130740  1.0
  Ni  Ni64  1  0.25797407  0.36376913  0.09130740  1.0
  Ni  Ni65  1  0.25797407  0.69710247  0.09130740  1.0
  Ni  Ni66  1  0.59130740  0.03043580  0.09130740  1.0
  Ni  Ni67  1  0.59130740  0.36376913  0.09130740  1.0
  Ni  Ni68  1  0.59130740  0.69710247  0.09130740  1.0
  Ni  Ni69  1  0.92464073  0.03043580  0.09130740  1.0
  Ni  Ni70  1  0.92464073  0.36376913  0.09130740  1.0
  Ni  Ni71  1  0.92464073  0.69710247  0.09130740  1.0
  Ni  Ni72  1  0.00797407  0.19710247  0.34130740  1.0
  Ni  Ni73  1  0.00797407  0.53043580  0.34130740  1.0
  Ni  Ni74  1  0.00797407  0.86376913  0.34130740  1.0
  Ni  Ni75  1  0.34130740  0.19710247  0.34130740  1.0
  Ni  Ni76  1  0.34130740  0.53043580  0.34130740  1.0
  Ni  Ni77  1  0.34130740  0.86376913  0.34130740  1.0
  Ni  Ni78  1  0.67464073  0.19710247  0.34130740  1.0
  Ni  Ni79  1  0.67464073  0.53043580  0.34130740  1.0
  Ni  Ni80  1  0.67464073  0.86376913  0.34130740  1.0
  Ni  Ni81  1  0.24130740  0.33043580  0.24130740  1.0
  Ni  Ni82  1  0.24130740  0.66376913  0.24130740  1.0
  Ni  Ni83  1  0.24130740  0.99710247  0.24130740  1.0
  Ni  Ni84  1  0.57464073  0.33043580  0.24130740  1.0
  Ni  Ni85  1  0.57464073  0.66376913  0.24130740  1.0
  Ni  Ni86  1  0.57464073  0.99710247  0.24130740  1.0
  Ni  Ni87  1  0.90797407  0.33043580  0.24130740  1.0
  Ni  Ni88  1  0.90797407  0.66376913  0.24130740  1.0
  Ni  Ni89  1  0.90797407  0.99710247  0.24130740  1.0
  Ni  Ni90  1  0.05797407  0.29710247  0.39130740  1.0
  Ni  Ni91  1  0.05797407  0.63043580  0.39130740  1.0
  Ni  Ni92  1  0.05797407  0.96376913  0.39130740  1.0
  Ni  Ni93  1  0.39130740  0.29710247  0.39130740  1.0
  Ni  Ni94  1  0.39130740  0.63043580  0.39130740  1.0
  Ni  Ni95  1  0.39130740  0.96376913  0.39130740  1.0
  Ni  Ni96  1  0.72464073  0.29710247  0.39130740  1.0
  Ni  Ni97  1  0.72464073  0.63043580  0.39130740  1.0
  Ni  Ni98  1  0.72464073  0.96376913  0.39130740  1.0
  Ni  Ni99  1  0.29130740  0.09710247  0.29130740  1.0
  Ni  Ni100  1  0.29130740  0.43043580  0.29130740  1.0
  Ni  Ni101  1  0.29130740  0.76376913  0.29130740  1.0
  Ni  Ni102  1  0.62464073  0.09710247  0.29130740  1.0
  Ni  Ni103  1  0.62464073  0.43043580  0.29130740  1.0
  Ni  Ni104  1  0.62464073  0.76376913  0.29130740  1.0
  Ni  Ni105  1  0.95797407  0.09710247  0.29130740  1.0
  Ni  Ni106  1  0.95797407  0.43043580  0.29130740  1.0
  Ni  Ni107  1  0.95797407  0.76376913  0.29130740  1.0
  Ni  Ni108  1  0.07464073  0.33043580  0.24130740  1.0
  Ni  Ni109  1  0.07464073  0.66376913  0.24130740  1.0
  Ni  Ni110  1  0.07464073  0.99710247  0.24130740  1.0
  Ni  Ni111  1  0.40797407  0.33043580  0.24130740  1.0
  Ni  Ni112  1  0.40797407  0.66376913  0.24130740  1.0
  Ni  Ni113  1  0.40797407  0.99710247  0.24130740  1.0
  Ni  Ni114  1  0.74130740  0.33043580  0.24130740  1.0
  Ni  Ni115  1  0.74130740  0.66376913  0.24130740  1.0
  Ni  Ni116  1  0.74130740  0.99710247  0.24130740  1.0
  Ni  Ni117  1  0.17464073  0.19710247  0.34130740  1.0
  Ni  Ni118  1  0.17464073  0.53043580  0.34130740  1.0
  Ni  Ni119  1  0.17464073  0.86376913  0.34130740  1.0
  Ni  Ni120  1  0.50797407  0.19710247  0.34130740  1.0
  Ni  Ni121  1  0.50797407  0.53043580  0.34130740  1.0
  Ni  Ni122  1  0.50797407  0.86376913  0.34130740  1.0
  Ni  Ni123  1  0.84130740  0.19710247  0.34130740  1.0
  Ni  Ni124  1  0.84130740  0.53043580  0.34130740  1.0
  Ni  Ni125  1  0.84130740  0.86376913  0.34130740  1.0
  Ni  Ni126  1  0.22464073  0.29710247  0.39130740  1.0
  Ni  Ni127  1  0.22464073  0.63043580  0.39130740  1.0
  Ni  Ni128  1  0.22464073  0.96376913  0.39130740  1.0
  Ni  Ni129  1  0.55797407  0.29710247  0.39130740  1.0
  Ni  Ni130  1  0.55797407  0.63043580  0.39130740  1.0
  Ni  Ni131  1  0.55797407  0.96376913  0.39130740  1.0
  Ni  Ni132  1  0.89130740  0.29710247  0.39130740  1.0
  Ni  Ni133  1  0.89130740  0.63043580  0.39130740  1.0
  Ni  Ni134  1  0.89130740  0.96376913  0.39130740  1.0
  Ni  Ni135  1  0.12464073  0.09710247  0.29130740  1.0
  Ni  Ni136  1  0.12464073  0.43043580  0.29130740  1.0
  Ni  Ni137  1  0.12464073  0.76376913  0.29130740  1.0
  Ni  Ni138  1  0.45797407  0.09710247  0.29130740  1.0
  Ni  Ni139  1  0.45797407  0.43043580  0.29130740  1.0
  Ni  Ni140  1  0.45797407  0.76376913  0.29130740  1.0
  Ni  Ni141  1  0.79130740  0.09710247  0.29130740  1.0
  Ni  Ni142  1  0.79130740  0.43043580  0.29130740  1.0
  Ni  Ni143  1  0.79130740  0.76376913  0.29130740  1.0
  Sb  Sb144  1  0.31727083  0.20774467  0.04341750  1.0
  Sb  Sb145  1  0.31727083  0.54107800  0.04341750  1.0
  Sb  Sb146  1  0.31727083  0.87441133  0.04341750  1.0
  Sb  Sb147  1  0.65060417  0.20774467  0.04341750  1.0
  Sb  Sb148  1  0.65060417  0.54107800  0.04341750  1.0
  Sb  Sb149  1  0.65060417  0.87441133  0.04341750  1.0
  Sb  Sb150  1  0.98393750  0.20774467  0.04341750  1.0
  Sb  Sb151  1  0.98393750  0.54107800  0.04341750  1.0
  Sb  Sb152  1  0.98393750  0.87441133  0.04341750  1.0
  Sb  Sb153  1  0.08393750  0.07441133  0.14341750  1.0
  Sb  Sb154  1  0.08393750  0.40774467  0.14341750  1.0
  Sb  Sb155  1  0.08393750  0.74107800  0.14341750  1.0
  Sb  Sb156  1  0.41727083  0.07441133  0.14341750  1.0
  Sb  Sb157  1  0.41727083  0.40774467  0.14341750  1.0
  Sb  Sb158  1  0.41727083  0.74107800  0.14341750  1.0
  Sb  Sb159  1  0.75060417  0.07441133  0.14341750  1.0
  Sb  Sb160  1  0.75060417  0.40774467  0.14341750  1.0
  Sb  Sb161  1  0.75060417  0.74107800  0.14341750  1.0
  Sb  Sb162  1  0.19867730  0.18646027  0.13919730  1.0
  Sb  Sb163  1  0.19867730  0.51979360  0.13919730  1.0
  Sb  Sb164  1  0.19867730  0.85312693  0.13919730  1.0
  Sb  Sb165  1  0.53201063  0.18646027  0.13919730  1.0
  Sb  Sb166  1  0.53201063  0.51979360  0.13919730  1.0
  Sb  Sb167  1  0.53201063  0.85312693  0.13919730  1.0
  Sb  Sb168  1  0.86534397  0.18646027  0.13919730  1.0
  Sb  Sb169  1  0.86534397  0.51979360  0.13919730  1.0
  Sb  Sb170  1  0.86534397  0.85312693  0.13919730  1.0
  Sb  Sb171  1  0.09867730  0.31979360  0.03919730  1.0
  Sb  Sb172  1  0.09867730  0.65312693  0.03919730  1.0
  Sb  Sb173  1  0.09867730  0.98646027  0.03919730  1.0
  Sb  Sb174  1  0.43201063  0.31979360  0.03919730  1.0
  Sb  Sb175  1  0.43201063  0.65312693  0.03919730  1.0
  Sb  Sb176  1  0.43201063  0.98646027  0.03919730  1.0
  Sb  Sb177  1  0.76534397  0.31979360  0.03919730  1.0
  Sb  Sb178  1  0.76534397  0.65312693  0.03919730  1.0
  Sb  Sb179  1  0.76534397  0.98646027  0.03919730  1.0
  Sb  Sb180  1  0.30662863  0.18646027  0.13919730  1.0
  Sb  Sb181  1  0.30662863  0.51979360  0.13919730  1.0
  Sb  Sb182  1  0.30662863  0.85312693  0.13919730  1.0
  Sb  Sb183  1  0.63996197  0.18646027  0.13919730  1.0
  Sb  Sb184  1  0.63996197  0.51979360  0.13919730  1.0
  Sb  Sb185  1  0.63996197  0.85312693  0.13919730  1.0
  Sb  Sb186  1  0.97329530  0.18646027  0.13919730  1.0
  Sb  Sb187  1  0.97329530  0.51979360  0.13919730  1.0
  Sb  Sb188  1  0.97329530  0.85312693  0.13919730  1.0
  Sb  Sb189  1  0.20662863  0.31979360  0.03919730  1.0
  Sb  Sb190  1  0.20662863  0.65312693  0.03919730  1.0
  Sb  Sb191  1  0.20662863  0.98646027  0.03919730  1.0
  Sb  Sb192  1  0.53996197  0.31979360  0.03919730  1.0
  Sb  Sb193  1  0.53996197  0.65312693  0.03919730  1.0
  Sb  Sb194  1  0.53996197  0.98646027  0.03919730  1.0
  Sb  Sb195  1  0.87329530  0.31979360  0.03919730  1.0
  Sb  Sb196  1  0.87329530  0.65312693  0.03919730  1.0
  Sb  Sb197  1  0.87329530  0.98646027  0.03919730  1.0
  Sb  Sb198  1  0.20931950  0.20774467  0.04341750  1.0
  Sb  Sb199  1  0.20931950  0.54107800  0.04341750  1.0
  Sb  Sb200  1  0.20931950  0.87441133  0.04341750  1.0
  Sb  Sb201  1  0.54265283  0.20774467  0.04341750  1.0
  Sb  Sb202  1  0.54265283  0.54107800  0.04341750  1.0
  Sb  Sb203  1  0.54265283  0.87441133  0.04341750  1.0
  Sb  Sb204  1  0.87598617  0.20774467  0.04341750  1.0
  Sb  Sb205  1  0.87598617  0.54107800  0.04341750  1.0
  Sb  Sb206  1  0.87598617  0.87441133  0.04341750  1.0
  Sb  Sb207  1  0.30931950  0.07441133  0.14341750  1.0
  Sb  Sb208  1  0.30931950  0.40774467  0.14341750  1.0
  Sb  Sb209  1  0.30931950  0.74107800  0.14341750  1.0
  Sb  Sb210  1  0.64265283  0.07441133  0.14341750  1.0
  Sb  Sb211  1  0.64265283  0.40774467  0.14341750  1.0
  Sb  Sb212  1  0.64265283  0.74107800  0.14341750  1.0
  Sb  Sb213  1  0.97598617  0.07441133  0.14341750  1.0
  Sb  Sb214  1  0.97598617  0.40774467  0.14341750  1.0
  Sb  Sb215  1  0.97598617  0.74107800  0.14341750  1.0
  Sb  Sb216  1  0.29740833  0.27597100  0.07676600  1.0
  Sb  Sb217  1  0.29740833  0.60930433  0.07676600  1.0
  Sb  Sb218  1  0.29740833  0.94263767  0.07676600  1.0
  Sb  Sb219  1  0.63074167  0.27597100  0.07676600  1.0
  Sb  Sb220  1  0.63074167  0.60930433  0.07676600  1.0
  Sb  Sb221  1  0.63074167  0.94263767  0.07676600  1.0
  Sb  Sb222  1  0.96407500  0.27597100  0.07676600  1.0
  Sb  Sb223  1  0.96407500  0.60930433  0.07676600  1.0
  Sb  Sb224  1  0.96407500  0.94263767  0.07676600  1.0
  Sb  Sb225  1  0.06407500  0.14263767  0.17676600  1.0
  Sb  Sb226  1  0.06407500  0.47597100  0.17676600  1.0
  Sb  Sb227  1  0.06407500  0.80930433  0.17676600  1.0
  Sb  Sb228  1  0.39740833  0.14263767  0.17676600  1.0
  Sb  Sb229  1  0.39740833  0.47597100  0.17676600  1.0
  Sb  Sb230  1  0.39740833  0.80930433  0.17676600  1.0
  Sb  Sb231  1  0.73074167  0.14263767  0.17676600  1.0
  Sb  Sb232  1  0.73074167  0.47597100  0.17676600  1.0
  Sb  Sb233  1  0.73074167  0.80930433  0.17676600  1.0
  Sb  Sb234  1  0.21853980  0.11823393  0.10584880  1.0
  Sb  Sb235  1  0.21853980  0.45156727  0.10584880  1.0
  Sb  Sb236  1  0.21853980  0.78490060  0.10584880  1.0
  Sb  Sb237  1  0.55187313  0.11823393  0.10584880  1.0
  Sb  Sb238  1  0.55187313  0.45156727  0.10584880  1.0
  Sb  Sb239  1  0.55187313  0.78490060  0.10584880  1.0
  Sb  Sb240  1  0.88520647  0.11823393  0.10584880  1.0
  Sb  Sb241  1  0.88520647  0.45156727  0.10584880  1.0
  Sb  Sb242  1  0.88520647  0.78490060  0.10584880  1.0
  Sb  Sb243  1  0.11853980  0.25156727  0.00584880  1.0
  Sb  Sb244  1  0.11853980  0.58490060  0.00584880  1.0
  Sb  Sb245  1  0.11853980  0.91823393  0.00584880  1.0
  Sb  Sb246  1  0.45187313  0.25156727  0.00584880  1.0
  Sb  Sb247  1  0.45187313  0.58490060  0.00584880  1.0
  Sb  Sb248  1  0.45187313  0.91823393  0.00584880  1.0
  Sb  Sb249  1  0.78520647  0.25156727  0.00584880  1.0
  Sb  Sb250  1  0.78520647  0.58490060  0.00584880  1.0
  Sb  Sb251  1  0.78520647  0.91823393  0.00584880  1.0
  Sb  Sb252  1  0.22933493  0.13982420  0.00869260  1.0
  Sb  Sb253  1  0.22933493  0.47315753  0.00869260  1.0
  Sb  Sb254  1  0.22933493  0.80649087  0.00869260  1.0
  Sb  Sb255  1  0.56266827  0.13982420  0.00869260  1.0
  Sb  Sb256  1  0.56266827  0.47315753  0.00869260  1.0
  Sb  Sb257  1  0.56266827  0.80649087  0.00869260  1.0
  Sb  Sb258  1  0.89600160  0.13982420  0.00869260  1.0
  Sb  Sb259  1  0.89600160  0.47315753  0.00869260  1.0
  Sb  Sb260  1  0.89600160  0.80649087  0.00869260  1.0
  Sb  Sb261  1  0.32933493  0.00649087  0.10869260  1.0
  Sb  Sb262  1  0.32933493  0.33982420  0.10869260  1.0
  Sb  Sb263  1  0.32933493  0.67315753  0.10869260  1.0
  Sb  Sb264  1  0.66266827  0.00649087  0.10869260  1.0
  Sb  Sb265  1  0.66266827  0.33982420  0.10869260  1.0
  Sb  Sb266  1  0.66266827  0.67315753  0.10869260  1.0
  Sb  Sb267  1  0.99600160  0.00649087  0.10869260  1.0
  Sb  Sb268  1  0.99600160  0.33982420  0.10869260  1.0
  Sb  Sb269  1  0.99600160  0.67315753  0.10869260  1.0
  Sb  Sb270  1  0.28661320  0.25438073  0.17392220  1.0
  Sb  Sb271  1  0.28661320  0.58771407  0.17392220  1.0
  Sb  Sb272  1  0.28661320  0.92104740  0.17392220  1.0
  Sb  Sb273  1  0.61994653  0.25438073  0.17392220  1.0
  Sb  Sb274  1  0.61994653  0.58771407  0.17392220  1.0
  Sb  Sb275  1  0.61994653  0.92104740  0.17392220  1.0
  Sb  Sb276  1  0.95327987  0.25438073  0.17392220  1.0
  Sb  Sb277  1  0.95327987  0.58771407  0.17392220  1.0
  Sb  Sb278  1  0.95327987  0.92104740  0.17392220  1.0
  Sb  Sb279  1  0.18661320  0.05438073  0.07392220  1.0
  Sb  Sb280  1  0.18661320  0.38771407  0.07392220  1.0
  Sb  Sb281  1  0.18661320  0.72104740  0.07392220  1.0
  Sb  Sb282  1  0.51994653  0.05438073  0.07392220  1.0
  Sb  Sb283  1  0.51994653  0.38771407  0.07392220  1.0
  Sb  Sb284  1  0.51994653  0.72104740  0.07392220  1.0
  Sb  Sb285  1  0.85327987  0.05438073  0.07392220  1.0
  Sb  Sb286  1  0.85327987  0.38771407  0.07392220  1.0
  Sb  Sb287  1  0.85327987  0.72104740  0.07392220  1.0
  Sb  Sb288  1  0.07832570  0.06471707  0.02511470  1.0
  Sb  Sb289  1  0.07832570  0.39805040  0.02511470  1.0
  Sb  Sb290  1  0.07832570  0.73138373  0.02511470  1.0
  Sb  Sb291  1  0.41165903  0.06471707  0.02511470  1.0
  Sb  Sb292  1  0.41165903  0.39805040  0.02511470  1.0
  Sb  Sb293  1  0.41165903  0.73138373  0.02511470  1.0
  Sb  Sb294  1  0.74499237  0.06471707  0.02511470  1.0
  Sb  Sb295  1  0.74499237  0.39805040  0.02511470  1.0
  Sb  Sb296  1  0.74499237  0.73138373  0.02511470  1.0
  Sb  Sb297  1  0.17832570  0.26471707  0.12511470  1.0
  Sb  Sb298  1  0.17832570  0.59805040  0.12511470  1.0
  Sb  Sb299  1  0.17832570  0.93138373  0.12511470  1.0
  Sb  Sb300  1  0.51165903  0.26471707  0.12511470  1.0
  Sb  Sb301  1  0.51165903  0.59805040  0.12511470  1.0
  Sb  Sb302  1  0.51165903  0.93138373  0.12511470  1.0
  Sb  Sb303  1  0.84499237  0.26471707  0.12511470  1.0
  Sb  Sb304  1  0.84499237  0.59805040  0.12511470  1.0
  Sb  Sb305  1  0.84499237  0.93138373  0.12511470  1.0
  Sb  Sb306  1  0.10428910  0.32948787  0.15750010  1.0
  Sb  Sb307  1  0.10428910  0.66282120  0.15750010  1.0
  Sb  Sb308  1  0.10428910  0.99615453  0.15750010  1.0
  Sb  Sb309  1  0.43762243  0.32948787  0.15750010  1.0
  Sb  Sb310  1  0.43762243  0.66282120  0.15750010  1.0
  Sb  Sb311  1  0.43762243  0.99615453  0.15750010  1.0
  Sb  Sb312  1  0.77095577  0.32948787  0.15750010  1.0
  Sb  Sb313  1  0.77095577  0.66282120  0.15750010  1.0
  Sb  Sb314  1  0.77095577  0.99615453  0.15750010  1.0
  Sb  Sb315  1  0.00428910  0.12948787  0.05750010  1.0
  Sb  Sb316  1  0.00428910  0.46282120  0.05750010  1.0
  Sb  Sb317  1  0.00428910  0.79615453  0.05750010  1.0
  Sb  Sb318  1  0.33762243  0.12948787  0.05750010  1.0
  Sb  Sb319  1  0.33762243  0.46282120  0.05750010  1.0
  Sb  Sb320  1  0.33762243  0.79615453  0.05750010  1.0
  Sb  Sb321  1  0.67095577  0.12948787  0.05750010  1.0
  Sb  Sb322  1  0.67095577  0.46282120  0.05750010  1.0
  Sb  Sb323  1  0.67095577  0.79615453  0.05750010  1.0
  Sb  Sb324  1  0.07190370  0.26471707  0.12511470  1.0
  Sb  Sb325  1  0.07190370  0.59805040  0.12511470  1.0
  Sb  Sb326  1  0.07190370  0.93138373  0.12511470  1.0
  Sb  Sb327  1  0.40523703  0.26471707  0.12511470  1.0
  Sb  Sb328  1  0.40523703  0.59805040  0.12511470  1.0
  Sb  Sb329  1  0.40523703  0.93138373  0.12511470  1.0
  Sb  Sb330  1  0.73857037  0.26471707  0.12511470  1.0
  Sb  Sb331  1  0.73857037  0.59805040  0.12511470  1.0
  Sb  Sb332  1  0.73857037  0.93138373  0.12511470  1.0
  Sb  Sb333  1  0.30523703  0.06471707  0.02511470  1.0
  Sb  Sb334  1  0.30523703  0.39805040  0.02511470  1.0
  Sb  Sb335  1  0.30523703  0.73138373  0.02511470  1.0
  Sb  Sb336  1  0.63857037  0.06471707  0.02511470  1.0
  Sb  Sb337  1  0.63857037  0.39805040  0.02511470  1.0
  Sb  Sb338  1  0.63857037  0.73138373  0.02511470  1.0
  Sb  Sb339  1  0.97190370  0.06471707  0.02511470  1.0
  Sb  Sb340  1  0.97190370  0.39805040  0.02511470  1.0
  Sb  Sb341  1  0.97190370  0.73138373  0.02511470  1.0
  Sb  Sb342  1  0.11071110  0.12948787  0.05750010  1.0
  Sb  Sb343  1  0.11071110  0.46282120  0.05750010  1.0
  Sb  Sb344  1  0.11071110  0.79615453  0.05750010  1.0
  Sb  Sb345  1  0.44404443  0.12948787  0.05750010  1.0
  Sb  Sb346  1  0.44404443  0.46282120  0.05750010  1.0
  Sb  Sb347  1  0.44404443  0.79615453  0.05750010  1.0
  Sb  Sb348  1  0.77737777  0.12948787  0.05750010  1.0
  Sb  Sb349  1  0.77737777  0.46282120  0.05750010  1.0
  Sb  Sb350  1  0.77737777  0.79615453  0.05750010  1.0
  Sb  Sb351  1  0.21071110  0.32948787  0.15750010  1.0
  Sb  Sb352  1  0.21071110  0.66282120  0.15750010  1.0
  Sb  Sb353  1  0.21071110  0.99615453  0.15750010  1.0
  Sb  Sb354  1  0.54404443  0.32948787  0.15750010  1.0
  Sb  Sb355  1  0.54404443  0.66282120  0.15750010  1.0
  Sb  Sb356  1  0.54404443  0.99615453  0.15750010  1.0
  Sb  Sb357  1  0.87737777  0.32948787  0.15750010  1.0
  Sb  Sb358  1  0.87737777  0.66282120  0.15750010  1.0
  Sb  Sb359  1  0.87737777  0.99615453  0.15750010  1.0
  Sb  Sb360  1  0.18393750  0.27441133  0.24341750  1.0
  Sb  Sb361  1  0.18393750  0.60774467  0.24341750  1.0
  Sb  Sb362  1  0.18393750  0.94107800  0.24341750  1.0
  Sb  Sb363  1  0.51727083  0.27441133  0.24341750  1.0
  Sb  Sb364  1  0.51727083  0.60774467  0.24341750  1.0
  Sb  Sb365  1  0.51727083  0.94107800  0.24341750  1.0
  Sb  Sb366  1  0.85060417  0.27441133  0.24341750  1.0
  Sb  Sb367  1  0.85060417  0.60774467  0.24341750  1.0
  Sb  Sb368  1  0.85060417  0.94107800  0.24341750  1.0
  Sb  Sb369  1  0.28393750  0.14107800  0.34341750  1.0
  Sb  Sb370  1  0.28393750  0.47441133  0.34341750  1.0
  Sb  Sb371  1  0.28393750  0.80774467  0.34341750  1.0
  Sb  Sb372  1  0.61727083  0.14107800  0.34341750  1.0
  Sb  Sb373  1  0.61727083  0.47441133  0.34341750  1.0
  Sb  Sb374  1  0.61727083  0.80774467  0.34341750  1.0
  Sb  Sb375  1  0.95060417  0.14107800  0.34341750  1.0
  Sb  Sb376  1  0.95060417  0.47441133  0.34341750  1.0
  Sb  Sb377  1  0.95060417  0.80774467  0.34341750  1.0
  Sb  Sb378  1  0.06534397  0.25312693  0.33919730  1.0
  Sb  Sb379  1  0.06534397  0.58646027  0.33919730  1.0
  Sb  Sb380  1  0.06534397  0.91979360  0.33919730  1.0
  Sb  Sb381  1  0.39867730  0.25312693  0.33919730  1.0
  Sb  Sb382  1  0.39867730  0.58646027  0.33919730  1.0
  Sb  Sb383  1  0.39867730  0.91979360  0.33919730  1.0
  Sb  Sb384  1  0.73201063  0.25312693  0.33919730  1.0
  Sb  Sb385  1  0.73201063  0.58646027  0.33919730  1.0
  Sb  Sb386  1  0.73201063  0.91979360  0.33919730  1.0
  Sb  Sb387  1  0.29867730  0.05312693  0.23919730  1.0
  Sb  Sb388  1  0.29867730  0.38646027  0.23919730  1.0
  Sb  Sb389  1  0.29867730  0.71979360  0.23919730  1.0
  Sb  Sb390  1  0.63201063  0.05312693  0.23919730  1.0
  Sb  Sb391  1  0.63201063  0.38646027  0.23919730  1.0
  Sb  Sb392  1  0.63201063  0.71979360  0.23919730  1.0
  Sb  Sb393  1  0.96534397  0.05312693  0.23919730  1.0
  Sb  Sb394  1  0.96534397  0.38646027  0.23919730  1.0
  Sb  Sb395  1  0.96534397  0.71979360  0.23919730  1.0
  Sb  Sb396  1  0.17329530  0.25312693  0.33919730  1.0
  Sb  Sb397  1  0.17329530  0.58646027  0.33919730  1.0
  Sb  Sb398  1  0.17329530  0.91979360  0.33919730  1.0
  Sb  Sb399  1  0.50662863  0.25312693  0.33919730  1.0
  Sb  Sb400  1  0.50662863  0.58646027  0.33919730  1.0
  Sb  Sb401  1  0.50662863  0.91979360  0.33919730  1.0
  Sb  Sb402  1  0.83996197  0.25312693  0.33919730  1.0
  Sb  Sb403  1  0.83996197  0.58646027  0.33919730  1.0
  Sb  Sb404  1  0.83996197  0.91979360  0.33919730  1.0
  Sb  Sb405  1  0.07329530  0.05312693  0.23919730  1.0
  Sb  Sb406  1  0.07329530  0.38646027  0.23919730  1.0
  Sb  Sb407  1  0.07329530  0.71979360  0.23919730  1.0
  Sb  Sb408  1  0.40662863  0.05312693  0.23919730  1.0
  Sb  Sb409  1  0.40662863  0.38646027  0.23919730  1.0
  Sb  Sb410  1  0.40662863  0.71979360  0.23919730  1.0
  Sb  Sb411  1  0.73996197  0.05312693  0.23919730  1.0
  Sb  Sb412  1  0.73996197  0.38646027  0.23919730  1.0
  Sb  Sb413  1  0.73996197  0.71979360  0.23919730  1.0
  Sb  Sb414  1  0.07598617  0.27441133  0.24341750  1.0
  Sb  Sb415  1  0.07598617  0.60774467  0.24341750  1.0
  Sb  Sb416  1  0.07598617  0.94107800  0.24341750  1.0
  Sb  Sb417  1  0.40931950  0.27441133  0.24341750  1.0
  Sb  Sb418  1  0.40931950  0.60774467  0.24341750  1.0
  Sb  Sb419  1  0.40931950  0.94107800  0.24341750  1.0
  Sb  Sb420  1  0.74265283  0.27441133  0.24341750  1.0
  Sb  Sb421  1  0.74265283  0.60774467  0.24341750  1.0
  Sb  Sb422  1  0.74265283  0.94107800  0.24341750  1.0
  Sb  Sb423  1  0.17598617  0.14107800  0.34341750  1.0
  Sb  Sb424  1  0.17598617  0.47441133  0.34341750  1.0
  Sb  Sb425  1  0.17598617  0.80774467  0.34341750  1.0
  Sb  Sb426  1  0.50931950  0.14107800  0.34341750  1.0
  Sb  Sb427  1  0.50931950  0.47441133  0.34341750  1.0
  Sb  Sb428  1  0.50931950  0.80774467  0.34341750  1.0
  Sb  Sb429  1  0.84265283  0.14107800  0.34341750  1.0
  Sb  Sb430  1  0.84265283  0.47441133  0.34341750  1.0
  Sb  Sb431  1  0.84265283  0.80774467  0.34341750  1.0
  Sb  Sb432  1  0.16407500  0.00930433  0.27676600  1.0
  Sb  Sb433  1  0.16407500  0.34263767  0.27676600  1.0
  Sb  Sb434  1  0.16407500  0.67597100  0.27676600  1.0
  Sb  Sb435  1  0.49740833  0.00930433  0.27676600  1.0
  Sb  Sb436  1  0.49740833  0.34263767  0.27676600  1.0
  Sb  Sb437  1  0.49740833  0.67597100  0.27676600  1.0
  Sb  Sb438  1  0.83074167  0.00930433  0.27676600  1.0
  Sb  Sb439  1  0.83074167  0.34263767  0.27676600  1.0
  Sb  Sb440  1  0.83074167  0.67597100  0.27676600  1.0
  Sb  Sb441  1  0.26407500  0.20930433  0.37676600  1.0
  Sb  Sb442  1  0.26407500  0.54263767  0.37676600  1.0
  Sb  Sb443  1  0.26407500  0.87597100  0.37676600  1.0
  Sb  Sb444  1  0.59740833  0.20930433  0.37676600  1.0
  Sb  Sb445  1  0.59740833  0.54263767  0.37676600  1.0
  Sb  Sb446  1  0.59740833  0.87597100  0.37676600  1.0
  Sb  Sb447  1  0.93074167  0.20930433  0.37676600  1.0
  Sb  Sb448  1  0.93074167  0.54263767  0.37676600  1.0
  Sb  Sb449  1  0.93074167  0.87597100  0.37676600  1.0
  Sb  Sb450  1  0.08520647  0.18490060  0.30584880  1.0
  Sb  Sb451  1  0.08520647  0.51823393  0.30584880  1.0
  Sb  Sb452  1  0.08520647  0.85156727  0.30584880  1.0
  Sb  Sb453  1  0.41853980  0.18490060  0.30584880  1.0
  Sb  Sb454  1  0.41853980  0.51823393  0.30584880  1.0
  Sb  Sb455  1  0.41853980  0.85156727  0.30584880  1.0
  Sb  Sb456  1  0.75187313  0.18490060  0.30584880  1.0
  Sb  Sb457  1  0.75187313  0.51823393  0.30584880  1.0
  Sb  Sb458  1  0.75187313  0.85156727  0.30584880  1.0
  Sb  Sb459  1  0.31853980  0.31823393  0.20584880  1.0
  Sb  Sb460  1  0.31853980  0.65156727  0.20584880  1.0
  Sb  Sb461  1  0.31853980  0.98490060  0.20584880  1.0
  Sb  Sb462  1  0.65187313  0.31823393  0.20584880  1.0
  Sb  Sb463  1  0.65187313  0.65156727  0.20584880  1.0
  Sb  Sb464  1  0.65187313  0.98490060  0.20584880  1.0
  Sb  Sb465  1  0.98520647  0.31823393  0.20584880  1.0
  Sb  Sb466  1  0.98520647  0.65156727  0.20584880  1.0
  Sb  Sb467  1  0.98520647  0.98490060  0.20584880  1.0
  Sb  Sb468  1  0.09600160  0.20649087  0.20869260  1.0
  Sb  Sb469  1  0.09600160  0.53982420  0.20869260  1.0
  Sb  Sb470  1  0.09600160  0.87315753  0.20869260  1.0
  Sb  Sb471  1  0.42933493  0.20649087  0.20869260  1.0
  Sb  Sb472  1  0.42933493  0.53982420  0.20869260  1.0
  Sb  Sb473  1  0.42933493  0.87315753  0.20869260  1.0
  Sb  Sb474  1  0.76266827  0.20649087  0.20869260  1.0
  Sb  Sb475  1  0.76266827  0.53982420  0.20869260  1.0
  Sb  Sb476  1  0.76266827  0.87315753  0.20869260  1.0
  Sb  Sb477  1  0.19600160  0.07315753  0.30869260  1.0
  Sb  Sb478  1  0.19600160  0.40649087  0.30869260  1.0
  Sb  Sb479  1  0.19600160  0.73982420  0.30869260  1.0
  Sb  Sb480  1  0.52933493  0.07315753  0.30869260  1.0
  Sb  Sb481  1  0.52933493  0.40649087  0.30869260  1.0
  Sb  Sb482  1  0.52933493  0.73982420  0.30869260  1.0
  Sb  Sb483  1  0.86266827  0.07315753  0.30869260  1.0
  Sb  Sb484  1  0.86266827  0.40649087  0.30869260  1.0
  Sb  Sb485  1  0.86266827  0.73982420  0.30869260  1.0
  Sb  Sb486  1  0.15327987  0.32104740  0.37392220  1.0
  Sb  Sb487  1  0.15327987  0.65438073  0.37392220  1.0
  Sb  Sb488  1  0.15327987  0.98771407  0.37392220  1.0
  Sb  Sb489  1  0.48661320  0.32104740  0.37392220  1.0
  Sb  Sb490  1  0.48661320  0.65438073  0.37392220  1.0
  Sb  Sb491  1  0.48661320  0.98771407  0.37392220  1.0
  Sb  Sb492  1  0.81994653  0.32104740  0.37392220  1.0
  Sb  Sb493  1  0.81994653  0.65438073  0.37392220  1.0
  Sb  Sb494  1  0.81994653  0.98771407  0.37392220  1.0
  Sb  Sb495  1  0.05327987  0.12104740  0.27392220  1.0
  Sb  Sb496  1  0.05327987  0.45438073  0.27392220  1.0
  Sb  Sb497  1  0.05327987  0.78771407  0.27392220  1.0
  Sb  Sb498  1  0.38661320  0.12104740  0.27392220  1.0
  Sb  Sb499  1  0.38661320  0.45438073  0.27392220  1.0
  Sb  Sb500  1  0.38661320  0.78771407  0.27392220  1.0
  Sb  Sb501  1  0.71994653  0.12104740  0.27392220  1.0
  Sb  Sb502  1  0.71994653  0.45438073  0.27392220  1.0
  Sb  Sb503  1  0.71994653  0.78771407  0.27392220  1.0
  Sb  Sb504  1  0.27832570  0.13138373  0.22511470  1.0
  Sb  Sb505  1  0.27832570  0.46471707  0.22511470  1.0
  Sb  Sb506  1  0.27832570  0.79805040  0.22511470  1.0
  Sb  Sb507  1  0.61165903  0.13138373  0.22511470  1.0
  Sb  Sb508  1  0.61165903  0.46471707  0.22511470  1.0
  Sb  Sb509  1  0.61165903  0.79805040  0.22511470  1.0
  Sb  Sb510  1  0.94499237  0.13138373  0.22511470  1.0
  Sb  Sb511  1  0.94499237  0.46471707  0.22511470  1.0
  Sb  Sb512  1  0.94499237  0.79805040  0.22511470  1.0
  Sb  Sb513  1  0.04499237  0.33138373  0.32511470  1.0
  Sb  Sb514  1  0.04499237  0.66471707  0.32511470  1.0
  Sb  Sb515  1  0.04499237  0.99805040  0.32511470  1.0
  Sb  Sb516  1  0.37832570  0.33138373  0.32511470  1.0
  Sb  Sb517  1  0.37832570  0.66471707  0.32511470  1.0
  Sb  Sb518  1  0.37832570  0.99805040  0.32511470  1.0
  Sb  Sb519  1  0.71165903  0.33138373  0.32511470  1.0
  Sb  Sb520  1  0.71165903  0.66471707  0.32511470  1.0
  Sb  Sb521  1  0.71165903  0.99805040  0.32511470  1.0
  Sb  Sb522  1  0.30428910  0.06282120  0.35750010  1.0
  Sb  Sb523  1  0.30428910  0.39615453  0.35750010  1.0
  Sb  Sb524  1  0.30428910  0.72948787  0.35750010  1.0
  Sb  Sb525  1  0.63762243  0.06282120  0.35750010  1.0
  Sb  Sb526  1  0.63762243  0.39615453  0.35750010  1.0
  Sb  Sb527  1  0.63762243  0.72948787  0.35750010  1.0
  Sb  Sb528  1  0.97095577  0.06282120  0.35750010  1.0
  Sb  Sb529  1  0.97095577  0.39615453  0.35750010  1.0
  Sb  Sb530  1  0.97095577  0.72948787  0.35750010  1.0
  Sb  Sb531  1  0.20428910  0.19615453  0.25750010  1.0
  Sb  Sb532  1  0.20428910  0.52948787  0.25750010  1.0
  Sb  Sb533  1  0.20428910  0.86282120  0.25750010  1.0
  Sb  Sb534  1  0.53762243  0.19615453  0.25750010  1.0
  Sb  Sb535  1  0.53762243  0.52948787  0.25750010  1.0
  Sb  Sb536  1  0.53762243  0.86282120  0.25750010  1.0
  Sb  Sb537  1  0.87095577  0.19615453  0.25750010  1.0
  Sb  Sb538  1  0.87095577  0.52948787  0.25750010  1.0
  Sb  Sb539  1  0.87095577  0.86282120  0.25750010  1.0
  Sb  Sb540  1  0.27190370  0.33138373  0.32511470  1.0
  Sb  Sb541  1  0.27190370  0.66471707  0.32511470  1.0
  Sb  Sb542  1  0.27190370  0.99805040  0.32511470  1.0
  Sb  Sb543  1  0.60523703  0.33138373  0.32511470  1.0
  Sb  Sb544  1  0.60523703  0.66471707  0.32511470  1.0
  Sb  Sb545  1  0.60523703  0.99805040  0.32511470  1.0
  Sb  Sb546  1  0.93857037  0.33138373  0.32511470  1.0
  Sb  Sb547  1  0.93857037  0.66471707  0.32511470  1.0
  Sb  Sb548  1  0.93857037  0.99805040  0.32511470  1.0
  Sb  Sb549  1  0.17190370  0.13138373  0.22511470  1.0
  Sb  Sb550  1  0.17190370  0.46471707  0.22511470  1.0
  Sb  Sb551  1  0.17190370  0.79805040  0.22511470  1.0
  Sb  Sb552  1  0.50523703  0.13138373  0.22511470  1.0
  Sb  Sb553  1  0.50523703  0.46471707  0.22511470  1.0
  Sb  Sb554  1  0.50523703  0.79805040  0.22511470  1.0
  Sb  Sb555  1  0.83857037  0.13138373  0.22511470  1.0
  Sb  Sb556  1  0.83857037  0.46471707  0.22511470  1.0
  Sb  Sb557  1  0.83857037  0.79805040  0.22511470  1.0
  Sb  Sb558  1  0.31071110  0.19615453  0.25750010  1.0
  Sb  Sb559  1  0.31071110  0.52948787  0.25750010  1.0
  Sb  Sb560  1  0.31071110  0.86282120  0.25750010  1.0
  Sb  Sb561  1  0.64404443  0.19615453  0.25750010  1.0
  Sb  Sb562  1  0.64404443  0.52948787  0.25750010  1.0
  Sb  Sb563  1  0.64404443  0.86282120  0.25750010  1.0
  Sb  Sb564  1  0.97737777  0.19615453  0.25750010  1.0
  Sb  Sb565  1  0.97737777  0.52948787  0.25750010  1.0
  Sb  Sb566  1  0.97737777  0.86282120  0.25750010  1.0
  Sb  Sb567  1  0.07737777  0.06282120  0.35750010  1.0
  Sb  Sb568  1  0.07737777  0.39615453  0.35750010  1.0
  Sb  Sb569  1  0.07737777  0.72948787  0.35750010  1.0
  Sb  Sb570  1  0.41071110  0.06282120  0.35750010  1.0
  Sb  Sb571  1  0.41071110  0.39615453  0.35750010  1.0
  Sb  Sb572  1  0.41071110  0.72948787  0.35750010  1.0
  Sb  Sb573  1  0.74404443  0.06282120  0.35750010  1.0
  Sb  Sb574  1  0.74404443  0.39615453  0.35750010  1.0
  Sb  Sb575  1  0.74404443  0.72948787  0.35750010  1.0
