# generated using pymatgen
data_NiSb3
_symmetry_space_group_name_H-M   'P 1'
_cell_length_a   39.25486326
_cell_length_b   39.25486326
_cell_length_c   80.12865410
_cell_angle_alpha   144.73561032
_cell_angle_beta   144.73561032
_cell_angle_gamma   60.00000000
_symmetry_Int_Tables_number   1
_chemical_formula_structural   NiSb3
_chemical_formula_sum   'Ni144 Sb432'
_cell_volume   35643.81352815
_cell_formula_units_Z   144
loop_
 _symmetry_equiv_pos_site_id
 _symmetry_equiv_pos_as_xyz
  1  'x, y, z'
loop_
 _atom_site_type_symbol
 _atom_site_label
 _atom_site_symmetry_multiplicity
 _atom_site_fract_x
 _atom_site_fract_y
 _atom_site_fract_z
 _atom_site_occupancy
  Ni  Ni0  1  0.00000000  0.16666667  0.03238540  1.0
  Ni  Ni1  1  0.00000000  0.50000000  0.03238540  1.0
  Ni  Ni2  1  0.00000000  0.83333333  0.03238540  1.0
  Ni  Ni3  1  0.33333333  0.16666667  0.03238540  1.0
  Ni  Ni4  1  0.33333333  0.50000000  0.03238540  1.0
  Ni  Ni5  1  0.33333333  0.83333333  0.03238540  1.0
  Ni  Ni6  1  0.66666667  0.16666667  0.03238540  1.0
  Ni  Ni7  1  0.66666667  0.50000000  0.03238540  1.0
  Ni  Ni8  1  0.66666667  0.83333333  0.03238540  1.0
  Ni  Ni9  1  0.00000000  0.33333333  0.03238540  1.0
  Ni  Ni10  1  0.00000000  0.66666667  0.03238540  1.0
  Ni  Ni11  1  0.00000000  1.00000000  0.03238540  1.0
  Ni  Ni12  1  0.33333333  0.33333333  0.03238540  1.0
  Ni  Ni13  1  0.33333333  0.66666667  0.03238540  1.0
  Ni  Ni14  1  0.33333333  1.00000000  0.03238540  1.0
  Ni  Ni15  1  0.66666667  0.33333333  0.03238540  1.0
  Ni  Ni16  1  0.66666667  0.66666667  0.03238540  1.0
  Ni  Ni17  1  0.66666667  1.00000000  0.03238540  1.0
  Ni  Ni18  1  0.16666667  0.33333333  0.03238540  1.0
  Ni  Ni19  1  0.16666667  0.66666667  0.03238540  1.0
  Ni  Ni20  1  0.16666667  1.00000000  0.03238540  1.0
  Ni  Ni21  1  0.50000000  0.33333333  0.03238540  1.0
  Ni  Ni22  1  0.50000000  0.66666667  0.03238540  1.0
  Ni  Ni23  1  0.50000000  1.00000000  0.03238540  1.0
  Ni  Ni24  1  0.83333333  0.33333333  0.03238540  1.0
  Ni  Ni25  1  0.83333333  0.66666667  0.03238540  1.0
  Ni  Ni26  1  0.83333333  1.00000000  0.03238540  1.0
  Ni  Ni27  1  0.16666667  0.16666667  0.03238540  1.0
  Ni  Ni28  1  0.16666667  0.50000000  0.03238540  1.0
  Ni  Ni29  1  0.16666667  0.83333333  0.03238540  1.0
  Ni  Ni30  1  0.50000000  0.16666667  0.03238540  1.0
  Ni  Ni31  1  0.50000000  0.50000000  0.03238540  1.0
  Ni  Ni32  1  0.50000000  0.83333333  0.03238540  1.0
  Ni  Ni33  1  0.83333333  0.16666667  0.03238540  1.0
  Ni  Ni34  1  0.83333333  0.50000000  0.03238540  1.0
  Ni  Ni35  1  0.83333333  0.83333333  0.03238540  1.0
  Sb  Sb36  1  0.27385333  0.22064233  0.04669740  1.0
  Sb  Sb37  1  0.27385333  0.55397567  0.04669740  1.0
  Sb  Sb38  1  0.27385333  0.88730900  0.04669740  1.0
  Sb  Sb39  1  0.60718667  0.22064233  0.04669740  1.0
  Sb  Sb40  1  0.60718667  0.55397567  0.04669740  1.0
  Sb  Sb41  1  0.60718667  0.88730900  0.04669740  1.0
  Sb  Sb42  1  0.94052000  0.22064233  0.04669740  1.0
  Sb  Sb43  1  0.94052000  0.55397567  0.04669740  1.0
  Sb  Sb44  1  0.94052000  0.88730900  0.04669740  1.0
  Sb  Sb45  1  0.05948000  0.11269100  0.01807340  1.0
  Sb  Sb46  1  0.05948000  0.44602433  0.01807340  1.0
  Sb  Sb47  1  0.05948000  0.77935767  0.01807340  1.0
  Sb  Sb48  1  0.39281333  0.11269100  0.01807340  1.0
  Sb  Sb49  1  0.39281333  0.44602433  0.01807340  1.0
  Sb  Sb50  1  0.39281333  0.77935767  0.01807340  1.0
  Sb  Sb51  1  0.72614667  0.11269100  0.01807340  1.0
  Sb  Sb52  1  0.72614667  0.44602433  0.01807340  1.0
  Sb  Sb53  1  0.72614667  0.77935767  0.01807340  1.0
  Sb  Sb54  1  0.16743133  0.22064233  0.08284420  1.0
  Sb  Sb55  1  0.16743133  0.55397567  0.08284420  1.0
  Sb  Sb56  1  0.16743133  0.88730900  0.08284420  1.0
  Sb  Sb57  1  0.50076467  0.22064233  0.08284420  1.0
  Sb  Sb58  1  0.50076467  0.55397567  0.08284420  1.0
  Sb  Sb59  1  0.50076467  0.88730900  0.08284420  1.0
  Sb  Sb60  1  0.83409800  0.22064233  0.08284420  1.0
  Sb  Sb61  1  0.83409800  0.55397567  0.08284420  1.0
  Sb  Sb62  1  0.83409800  0.88730900  0.08284420  1.0
  Sb  Sb63  1  0.16590200  0.11269100  0.08192660  1.0
  Sb  Sb64  1  0.16590200  0.44602433  0.08192660  1.0
  Sb  Sb65  1  0.16590200  0.77935767  0.08192660  1.0
  Sb  Sb66  1  0.49923533  0.11269100  0.08192660  1.0
  Sb  Sb67  1  0.49923533  0.44602433  0.08192660  1.0
  Sb  Sb68  1  0.49923533  0.77935767  0.08192660  1.0
  Sb  Sb69  1  0.83256867  0.11269100  0.08192660  1.0
  Sb  Sb70  1  0.83256867  0.44602433  0.08192660  1.0
  Sb  Sb71  1  0.83256867  0.77935767  0.08192660  1.0
  Sb  Sb72  1  0.22064233  0.05321100  0.04669740  1.0
  Sb  Sb73  1  0.22064233  0.38654433  0.04669740  1.0
  Sb  Sb74  1  0.22064233  0.71987767  0.04669740  1.0
  Sb  Sb75  1  0.55397567  0.05321100  0.04669740  1.0
  Sb  Sb76  1  0.55397567  0.38654433  0.04669740  1.0
  Sb  Sb77  1  0.55397567  0.71987767  0.04669740  1.0
  Sb  Sb78  1  0.88730900  0.05321100  0.04669740  1.0
  Sb  Sb79  1  0.88730900  0.38654433  0.04669740  1.0
  Sb  Sb80  1  0.88730900  0.71987767  0.04669740  1.0
  Sb  Sb81  1  0.11269100  0.28012233  0.01807340  1.0
  Sb  Sb82  1  0.11269100  0.61345567  0.01807340  1.0
  Sb  Sb83  1  0.11269100  0.94678900  0.01807340  1.0
  Sb  Sb84  1  0.44602433  0.28012233  0.01807340  1.0
  Sb  Sb85  1  0.44602433  0.61345567  0.01807340  1.0
  Sb  Sb86  1  0.44602433  0.94678900  0.01807340  1.0
  Sb  Sb87  1  0.77935767  0.28012233  0.01807340  1.0
  Sb  Sb88  1  0.77935767  0.61345567  0.01807340  1.0
  Sb  Sb89  1  0.77935767  0.94678900  0.01807340  1.0
  Sb  Sb90  1  0.22064233  0.28012233  0.08284420  1.0
  Sb  Sb91  1  0.22064233  0.61345567  0.08284420  1.0
  Sb  Sb92  1  0.22064233  0.94678900  0.08284420  1.0
  Sb  Sb93  1  0.55397567  0.28012233  0.08284420  1.0
  Sb  Sb94  1  0.55397567  0.61345567  0.08284420  1.0
  Sb  Sb95  1  0.55397567  0.94678900  0.08284420  1.0
  Sb  Sb96  1  0.88730900  0.28012233  0.08284420  1.0
  Sb  Sb97  1  0.88730900  0.61345567  0.08284420  1.0
  Sb  Sb98  1  0.88730900  0.94678900  0.08284420  1.0
  Sb  Sb99  1  0.11269100  0.05321100  0.08192660  1.0
  Sb  Sb100  1  0.11269100  0.38654433  0.08192660  1.0
  Sb  Sb101  1  0.11269100  0.71987767  0.08192660  1.0
  Sb  Sb102  1  0.44602433  0.05321100  0.08192660  1.0
  Sb  Sb103  1  0.44602433  0.38654433  0.08192660  1.0
  Sb  Sb104  1  0.44602433  0.71987767  0.08192660  1.0
  Sb  Sb105  1  0.77935767  0.05321100  0.08192660  1.0
  Sb  Sb106  1  0.77935767  0.38654433  0.08192660  1.0
  Sb  Sb107  1  0.77935767  0.71987767  0.08192660  1.0
  Sb  Sb108  1  0.05321100  0.27385333  0.04669740  1.0
  Sb  Sb109  1  0.05321100  0.60718667  0.04669740  1.0
  Sb  Sb110  1  0.05321100  0.94052000  0.04669740  1.0
  Sb  Sb111  1  0.38654433  0.27385333  0.04669740  1.0
  Sb  Sb112  1  0.38654433  0.60718667  0.04669740  1.0
  Sb  Sb113  1  0.38654433  0.94052000  0.04669740  1.0
  Sb  Sb114  1  0.71987767  0.27385333  0.04669740  1.0
  Sb  Sb115  1  0.71987767  0.60718667  0.04669740  1.0
  Sb  Sb116  1  0.71987767  0.94052000  0.04669740  1.0
  Sb  Sb117  1  0.28012233  0.05948000  0.01807340  1.0
  Sb  Sb118  1  0.28012233  0.39281333  0.01807340  1.0
  Sb  Sb119  1  0.28012233  0.72614667  0.01807340  1.0
  Sb  Sb120  1  0.61345567  0.05948000  0.01807340  1.0
  Sb  Sb121  1  0.61345567  0.39281333  0.01807340  1.0
  Sb  Sb122  1  0.61345567  0.72614667  0.01807340  1.0
  Sb  Sb123  1  0.94678900  0.05948000  0.01807340  1.0
  Sb  Sb124  1  0.94678900  0.39281333  0.01807340  1.0
  Sb  Sb125  1  0.94678900  0.72614667  0.01807340  1.0
  Sb  Sb126  1  0.28012233  0.16743133  0.08284420  1.0
  Sb  Sb127  1  0.28012233  0.50076467  0.08284420  1.0
  Sb  Sb128  1  0.28012233  0.83409800  0.08284420  1.0
  Sb  Sb129  1  0.61345567  0.16743133  0.08284420  1.0
  Sb  Sb130  1  0.61345567  0.50076467  0.08284420  1.0
  Sb  Sb131  1  0.61345567  0.83409800  0.08284420  1.0
  Sb  Sb132  1  0.94678900  0.16743133  0.08284420  1.0
  Sb  Sb133  1  0.94678900  0.50076467  0.08284420  1.0
  Sb  Sb134  1  0.94678900  0.83409800  0.08284420  1.0
  Sb  Sb135  1  0.05321100  0.16590200  0.08192660  1.0
  Sb  Sb136  1  0.05321100  0.49923533  0.08192660  1.0
  Sb  Sb137  1  0.05321100  0.83256867  0.08192660  1.0
  Sb  Sb138  1  0.38654433  0.16590200  0.08192660  1.0
  Sb  Sb139  1  0.38654433  0.49923533  0.08192660  1.0
  Sb  Sb140  1  0.38654433  0.83256867  0.08192660  1.0
  Sb  Sb141  1  0.71987767  0.16590200  0.08192660  1.0
  Sb  Sb142  1  0.71987767  0.49923533  0.08192660  1.0
  Sb  Sb143  1  0.71987767  0.83256867  0.08192660  1.0
  Ni  Ni144  1  0.00000000  0.16666667  0.13238540  1.0
  Ni  Ni145  1  0.00000000  0.50000000  0.13238540  1.0
  Ni  Ni146  1  0.00000000  0.83333333  0.13238540  1.0
  Ni  Ni147  1  0.33333333  0.16666667  0.13238540  1.0
  Ni  Ni148  1  0.33333333  0.50000000  0.13238540  1.0
  Ni  Ni149  1  0.33333333  0.83333333  0.13238540  1.0
  Ni  Ni150  1  0.66666667  0.16666667  0.13238540  1.0
  Ni  Ni151  1  0.66666667  0.50000000  0.13238540  1.0
  Ni  Ni152  1  0.66666667  0.83333333  0.13238540  1.0
  Ni  Ni153  1  0.00000000  0.33333333  0.13238540  1.0
  Ni  Ni154  1  0.00000000  0.66666667  0.13238540  1.0
  Ni  Ni155  1  0.00000000  1.00000000  0.13238540  1.0
  Ni  Ni156  1  0.33333333  0.33333333  0.13238540  1.0
  Ni  Ni157  1  0.33333333  0.66666667  0.13238540  1.0
  Ni  Ni158  1  0.33333333  1.00000000  0.13238540  1.0
  Ni  Ni159  1  0.66666667  0.33333333  0.13238540  1.0
  Ni  Ni160  1  0.66666667  0.66666667  0.13238540  1.0
  Ni  Ni161  1  0.66666667  1.00000000  0.13238540  1.0
  Ni  Ni162  1  0.16666667  0.33333333  0.13238540  1.0
  Ni  Ni163  1  0.16666667  0.66666667  0.13238540  1.0
  Ni  Ni164  1  0.16666667  1.00000000  0.13238540  1.0
  Ni  Ni165  1  0.50000000  0.33333333  0.13238540  1.0
  Ni  Ni166  1  0.50000000  0.66666667  0.13238540  1.0
  Ni  Ni167  1  0.50000000  1.00000000  0.13238540  1.0
  Ni  Ni168  1  0.83333333  0.33333333  0.13238540  1.0
  Ni  Ni169  1  0.83333333  0.66666667  0.13238540  1.0
  Ni  Ni170  1  0.83333333  1.00000000  0.13238540  1.0
  Ni  Ni171  1  0.16666667  0.16666667  0.13238540  1.0
  Ni  Ni172  1  0.16666667  0.50000000  0.13238540  1.0
  Ni  Ni173  1  0.16666667  0.83333333  0.13238540  1.0
  Ni  Ni174  1  0.50000000  0.16666667  0.13238540  1.0
  Ni  Ni175  1  0.50000000  0.50000000  0.13238540  1.0
  Ni  Ni176  1  0.50000000  0.83333333  0.13238540  1.0
  Ni  Ni177  1  0.83333333  0.16666667  0.13238540  1.0
  Ni  Ni178  1  0.83333333  0.50000000  0.13238540  1.0
  Ni  Ni179  1  0.83333333  0.83333333  0.13238540  1.0
  Sb  Sb180  1  0.27385333  0.22064233  0.14669740  1.0
  Sb  Sb181  1  0.27385333  0.55397567  0.14669740  1.0
  Sb  Sb182  1  0.27385333  0.88730900  0.14669740  1.0
  Sb  Sb183  1  0.60718667  0.22064233  0.14669740  1.0
  Sb  Sb184  1  0.60718667  0.55397567  0.14669740  1.0
  Sb  Sb185  1  0.60718667  0.88730900  0.14669740  1.0
  Sb  Sb186  1  0.94052000  0.22064233  0.14669740  1.0
  Sb  Sb187  1  0.94052000  0.55397567  0.14669740  1.0
  Sb  Sb188  1  0.94052000  0.88730900  0.14669740  1.0
  Sb  Sb189  1  0.05948000  0.11269100  0.11807340  1.0
  Sb  Sb190  1  0.05948000  0.44602433  0.11807340  1.0
  Sb  Sb191  1  0.05948000  0.77935767  0.11807340  1.0
  Sb  Sb192  1  0.39281333  0.11269100  0.11807340  1.0
  Sb  Sb193  1  0.39281333  0.44602433  0.11807340  1.0
  Sb  Sb194  1  0.39281333  0.77935767  0.11807340  1.0
  Sb  Sb195  1  0.72614667  0.11269100  0.11807340  1.0
  Sb  Sb196  1  0.72614667  0.44602433  0.11807340  1.0
  Sb  Sb197  1  0.72614667  0.77935767  0.11807340  1.0
  Sb  Sb198  1  0.16743133  0.22064233  0.18284420  1.0
  Sb  Sb199  1  0.16743133  0.55397567  0.18284420  1.0
  Sb  Sb200  1  0.16743133  0.88730900  0.18284420  1.0
  Sb  Sb201  1  0.50076467  0.22064233  0.18284420  1.0
  Sb  Sb202  1  0.50076467  0.55397567  0.18284420  1.0
  Sb  Sb203  1  0.50076467  0.88730900  0.18284420  1.0
  Sb  Sb204  1  0.83409800  0.22064233  0.18284420  1.0
  Sb  Sb205  1  0.83409800  0.55397567  0.18284420  1.0
  Sb  Sb206  1  0.83409800  0.88730900  0.18284420  1.0
  Sb  Sb207  1  0.16590200  0.11269100  0.18192660  1.0
  Sb  Sb208  1  0.16590200  0.44602433  0.18192660  1.0
  Sb  Sb209  1  0.16590200  0.77935767  0.18192660  1.0
  Sb  Sb210  1  0.49923533  0.11269100  0.18192660  1.0
  Sb  Sb211  1  0.49923533  0.44602433  0.18192660  1.0
  Sb  Sb212  1  0.49923533  0.77935767  0.18192660  1.0
  Sb  Sb213  1  0.83256867  0.11269100  0.18192660  1.0
  Sb  Sb214  1  0.83256867  0.44602433  0.18192660  1.0
  Sb  Sb215  1  0.83256867  0.77935767  0.18192660  1.0
  Sb  Sb216  1  0.22064233  0.05321100  0.14669740  1.0
  Sb  Sb217  1  0.22064233  0.38654433  0.14669740  1.0
  Sb  Sb218  1  0.22064233  0.71987767  0.14669740  1.0
  Sb  Sb219  1  0.55397567  0.05321100  0.14669740  1.0
  Sb  Sb220  1  0.55397567  0.38654433  0.14669740  1.0
  Sb  Sb221  1  0.55397567  0.71987767  0.14669740  1.0
  Sb  Sb222  1  0.88730900  0.05321100  0.14669740  1.0
  Sb  Sb223  1  0.88730900  0.38654433  0.14669740  1.0
  Sb  Sb224  1  0.88730900  0.71987767  0.14669740  1.0
  Sb  Sb225  1  0.11269100  0.28012233  0.11807340  1.0
  Sb  Sb226  1  0.11269100  0.61345567  0.11807340  1.0
  Sb  Sb227  1  0.11269100  0.94678900  0.11807340  1.0
  Sb  Sb228  1  0.44602433  0.28012233  0.11807340  1.0
  Sb  Sb229  1  0.44602433  0.61345567  0.11807340  1.0
  Sb  Sb230  1  0.44602433  0.94678900  0.11807340  1.0
  Sb  Sb231  1  0.77935767  0.28012233  0.11807340  1.0
  Sb  Sb232  1  0.77935767  0.61345567  0.11807340  1.0
  Sb  Sb233  1  0.77935767  0.94678900  0.11807340  1.0
  Sb  Sb234  1  0.22064233  0.28012233  0.18284420  1.0
  Sb  Sb235  1  0.22064233  0.61345567  0.18284420  1.0
  Sb  Sb236  1  0.22064233  0.94678900  0.18284420  1.0
  Sb  Sb237  1  0.55397567  0.28012233  0.18284420  1.0
  Sb  Sb238  1  0.55397567  0.61345567  0.18284420  1.0
  Sb  Sb239  1  0.55397567  0.94678900  0.18284420  1.0
  Sb  Sb240  1  0.88730900  0.28012233  0.18284420  1.0
  Sb  Sb241  1  0.88730900  0.61345567  0.18284420  1.0
  Sb  Sb242  1  0.88730900  0.94678900  0.18284420  1.0
  Sb  Sb243  1  0.11269100  0.05321100  0.18192660  1.0
  Sb  Sb244  1  0.11269100  0.38654433  0.18192660  1.0
  Sb  Sb245  1  0.11269100  0.71987767  0.18192660  1.0
  Sb  Sb246  1  0.44602433  0.05321100  0.18192660  1.0
  Sb  Sb247  1  0.44602433  0.38654433  0.18192660  1.0
  Sb  Sb248  1  0.44602433  0.71987767  0.18192660  1.0
  Sb  Sb249  1  0.77935767  0.05321100  0.18192660  1.0
  Sb  Sb250  1  0.77935767  0.38654433  0.18192660  1.0
  Sb  Sb251  1  0.77935767  0.71987767  0.18192660  1.0
  Sb  Sb252  1  0.05321100  0.27385333  0.14669740  1.0
  Sb  Sb253  1  0.05321100  0.60718667  0.14669740  1.0
  Sb  Sb254  1  0.05321100  0.94052000  0.14669740  1.0
  Sb  Sb255  1  0.38654433  0.27385333  0.14669740  1.0
  Sb  Sb256  1  0.38654433  0.60718667  0.14669740  1.0
  Sb  Sb257  1  0.38654433  0.94052000  0.14669740  1.0
  Sb  Sb258  1  0.71987767  0.27385333  0.14669740  1.0
  Sb  Sb259  1  0.71987767  0.60718667  0.14669740  1.0
  Sb  Sb260  1  0.71987767  0.94052000  0.14669740  1.0
  Sb  Sb261  1  0.28012233  0.05948000  0.11807340  1.0
  Sb  Sb262  1  0.28012233  0.39281333  0.11807340  1.0
  Sb  Sb263  1  0.28012233  0.72614667  0.11807340  1.0
  Sb  Sb264  1  0.61345567  0.05948000  0.11807340  1.0
  Sb  Sb265  1  0.61345567  0.39281333  0.11807340  1.0
  Sb  Sb266  1  0.61345567  0.72614667  0.11807340  1.0
  Sb  Sb267  1  0.94678900  0.05948000  0.11807340  1.0
  Sb  Sb268  1  0.94678900  0.39281333  0.11807340  1.0
  Sb  Sb269  1  0.94678900  0.72614667  0.11807340  1.0
  Sb  Sb270  1  0.28012233  0.16743133  0.18284420  1.0
  Sb  Sb271  1  0.28012233  0.50076467  0.18284420  1.0
  Sb  Sb272  1  0.28012233  0.83409800  0.18284420  1.0
  Sb  Sb273  1  0.61345567  0.16743133  0.18284420  1.0
  Sb  Sb274  1  0.61345567  0.50076467  0.18284420  1.0
  Sb  Sb275  1  0.61345567  0.83409800  0.18284420  1.0
  Sb  Sb276  1  0.94678900  0.16743133  0.18284420  1.0
  Sb  Sb277  1  0.94678900  0.50076467  0.18284420  1.0
  Sb  Sb278  1  0.94678900  0.83409800  0.18284420  1.0
  Sb  Sb279  1  0.05321100  0.16590200  0.18192660  1.0
  Sb  Sb280  1  0.05321100  0.49923533  0.18192660  1.0
  Sb  Sb281  1  0.05321100  0.83256867  0.18192660  1.0
  Sb  Sb282  1  0.38654433  0.16590200  0.18192660  1.0
  Sb  Sb283  1  0.38654433  0.49923533  0.18192660  1.0
  Sb  Sb284  1  0.38654433  0.83256867  0.18192660  1.0
  Sb  Sb285  1  0.71987767  0.16590200  0.18192660  1.0
  Sb  Sb286  1  0.71987767  0.49923533  0.18192660  1.0
  Sb  Sb287  1  0.71987767  0.83256867  0.18192660  1.0
  Ni  Ni288  1  0.00000000  0.16666667  0.23238540  1.0
  Ni  Ni289  1  0.00000000  0.50000000  0.23238540  1.0
  Ni  Ni290  1  0.00000000  0.83333333  0.23238540  1.0
  Ni  Ni291  1  0.33333333  0.16666667  0.23238540  1.0
  Ni  Ni292  1  0.33333333  0.50000000  0.23238540  1.0
  Ni  Ni293  1  0.33333333  0.83333333  0.23238540  1.0
  Ni  Ni294  1  0.66666667  0.16666667  0.23238540  1.0
  Ni  Ni295  1  0.66666667  0.50000000  0.23238540  1.0
  Ni  Ni296  1  0.66666667  0.83333333  0.23238540  1.0
  Ni  Ni297  1  0.00000000  0.33333333  0.23238540  1.0
  Ni  Ni298  1  0.00000000  0.66666667  0.23238540  1.0
  Ni  Ni299  1  0.00000000  1.00000000  0.23238540  1.0
  Ni  Ni300  1  0.33333333  0.33333333  0.23238540  1.0
  Ni  Ni301  1  0.33333333  0.66666667  0.23238540  1.0
  Ni  Ni302  1  0.33333333  1.00000000  0.23238540  1.0
  Ni  Ni303  1  0.66666667  0.33333333  0.23238540  1.0
  Ni  Ni304  1  0.66666667  0.66666667  0.23238540  1.0
  Ni  Ni305  1  0.66666667  1.00000000  0.23238540  1.0
  Ni  Ni306  1  0.16666667  0.33333333  0.23238540  1.0
  Ni  Ni307  1  0.16666667  0.66666667  0.23238540  1.0
  Ni  Ni308  1  0.16666667  1.00000000  0.23238540  1.0
  Ni  Ni309  1  0.50000000  0.33333333  0.23238540  1.0
  Ni  Ni310  1  0.50000000  0.66666667  0.23238540  1.0
  Ni  Ni311  1  0.50000000  1.00000000  0.23238540  1.0
  Ni  Ni312  1  0.83333333  0.33333333  0.23238540  1.0
  Ni  Ni313  1  0.83333333  0.66666667  0.23238540  1.0
  Ni  Ni314  1  0.83333333  1.00000000  0.23238540  1.0
  Ni  Ni315  1  0.16666667  0.16666667  0.23238540  1.0
  Ni  Ni316  1  0.16666667  0.50000000  0.23238540  1.0
  Ni  Ni317  1  0.16666667  0.83333333  0.23238540  1.0
  Ni  Ni318  1  0.50000000  0.16666667  0.23238540  1.0
  Ni  Ni319  1  0.50000000  0.50000000  0.23238540  1.0
  Ni  Ni320  1  0.50000000  0.83333333  0.23238540  1.0
  Ni  Ni321  1  0.83333333  0.16666667  0.23238540  1.0
  Ni  Ni322  1  0.83333333  0.50000000  0.23238540  1.0
  Ni  Ni323  1  0.83333333  0.83333333  0.23238540  1.0
  Sb  Sb324  1  0.27385333  0.22064233  0.24669740  1.0
  Sb  Sb325  1  0.27385333  0.55397567  0.24669740  1.0
  Sb  Sb326  1  0.27385333  0.88730900  0.24669740  1.0
  Sb  Sb327  1  0.60718667  0.22064233  0.24669740  1.0
  Sb  Sb328  1  0.60718667  0.55397567  0.24669740  1.0
  Sb  Sb329  1  0.60718667  0.88730900  0.24669740  1.0
  Sb  Sb330  1  0.94052000  0.22064233  0.24669740  1.0
  Sb  Sb331  1  0.94052000  0.55397567  0.24669740  1.0
  Sb  Sb332  1  0.94052000  0.88730900  0.24669740  1.0
  Sb  Sb333  1  0.05948000  0.11269100  0.21807340  1.0
  Sb  Sb334  1  0.05948000  0.44602433  0.21807340  1.0
  Sb  Sb335  1  0.05948000  0.77935767  0.21807340  1.0
  Sb  Sb336  1  0.39281333  0.11269100  0.21807340  1.0
  Sb  Sb337  1  0.39281333  0.44602433  0.21807340  1.0
  Sb  Sb338  1  0.39281333  0.77935767  0.21807340  1.0
  Sb  Sb339  1  0.72614667  0.11269100  0.21807340  1.0
  Sb  Sb340  1  0.72614667  0.44602433  0.21807340  1.0
  Sb  Sb341  1  0.72614667  0.77935767  0.21807340  1.0
  Sb  Sb342  1  0.16743133  0.22064233  0.28284420  1.0
  Sb  Sb343  1  0.16743133  0.55397567  0.28284420  1.0
  Sb  Sb344  1  0.16743133  0.88730900  0.28284420  1.0
  Sb  Sb345  1  0.50076467  0.22064233  0.28284420  1.0
  Sb  Sb346  1  0.50076467  0.55397567  0.28284420  1.0
  Sb  Sb347  1  0.50076467  0.88730900  0.28284420  1.0
  Sb  Sb348  1  0.83409800  0.22064233  0.28284420  1.0
  Sb  Sb349  1  0.83409800  0.55397567  0.28284420  1.0
  Sb  Sb350  1  0.83409800  0.88730900  0.28284420  1.0
  Sb  Sb351  1  0.16590200  0.11269100  0.28192660  1.0
  Sb  Sb352  1  0.16590200  0.44602433  0.28192660  1.0
  Sb  Sb353  1  0.16590200  0.77935767  0.28192660  1.0
  Sb  Sb354  1  0.49923533  0.11269100  0.28192660  1.0
  Sb  Sb355  1  0.49923533  0.44602433  0.28192660  1.0
  Sb  Sb356  1  0.49923533  0.77935767  0.28192660  1.0
  Sb  Sb357  1  0.83256867  0.11269100  0.28192660  1.0
  Sb  Sb358  1  0.83256867  0.44602433  0.28192660  1.0
  Sb  Sb359  1  0.83256867  0.77935767  0.28192660  1.0
  Sb  Sb360  1  0.22064233  0.05321100  0.24669740  1.0
  Sb  Sb361  1  0.22064233  0.38654433  0.24669740  1.0
  Sb  Sb362  1  0.22064233  0.71987767  0.24669740  1.0
  Sb  Sb363  1  0.55397567  0.05321100  0.24669740  1.0
  Sb  Sb364  1  0.55397567  0.38654433  0.24669740  1.0
  Sb  Sb365  1  0.55397567  0.71987767  0.24669740  1.0
  Sb  Sb366  1  0.88730900  0.05321100  0.24669740  1.0
  Sb  Sb367  1  0.88730900  0.38654433  0.24669740  1.0
  Sb  Sb368  1  0.88730900  0.71987767  0.24669740  1.0
  Sb  Sb369  1  0.11269100  0.28012233  0.21807340  1.0
  Sb  Sb370  1  0.11269100  0.61345567  0.21807340  1.0
  Sb  Sb371  1  0.11269100  0.94678900  0.21807340  1.0
  Sb  Sb372  1  0.44602433  0.28012233  0.21807340  1.0
  Sb  Sb373  1  0.44602433  0.61345567  0.21807340  1.0
  Sb  Sb374  1  0.44602433  0.94678900  0.21807340  1.0
  Sb  Sb375  1  0.77935767  0.28012233  0.21807340  1.0
  Sb  Sb376  1  0.77935767  0.61345567  0.21807340  1.0
  Sb  Sb377  1  0.77935767  0.94678900  0.21807340  1.0
  Sb  Sb378  1  0.22064233  0.28012233  0.28284420  1.0
  Sb  Sb379  1  0.22064233  0.61345567  0.28284420  1.0
  Sb  Sb380  1  0.22064233  0.94678900  0.28284420  1.0
  Sb  Sb381  1  0.55397567  0.28012233  0.28284420  1.0
  Sb  Sb382  1  0.55397567  0.61345567  0.28284420  1.0
  Sb  Sb383  1  0.55397567  0.94678900  0.28284420  1.0
  Sb  Sb384  1  0.88730900  0.28012233  0.28284420  1.0
  Sb  Sb385  1  0.88730900  0.61345567  0.28284420  1.0
  Sb  Sb386  1  0.88730900  0.94678900  0.28284420  1.0
  Sb  Sb387  1  0.11269100  0.05321100  0.28192660  1.0
  Sb  Sb388  1  0.11269100  0.38654433  0.28192660  1.0
  Sb  Sb389  1  0.11269100  0.71987767  0.28192660  1.0
  Sb  Sb390  1  0.44602433  0.05321100  0.28192660  1.0
  Sb  Sb391  1  0.44602433  0.38654433  0.28192660  1.0
  Sb  Sb392  1  0.44602433  0.71987767  0.28192660  1.0
  Sb  Sb393  1  0.77935767  0.05321100  0.28192660  1.0
  Sb  Sb394  1  0.77935767  0.38654433  0.28192660  1.0
  Sb  Sb395  1  0.77935767  0.71987767  0.28192660  1.0
  Sb  Sb396  1  0.05321100  0.27385333  0.24669740  1.0
  Sb  Sb397  1  0.05321100  0.60718667  0.24669740  1.0
  Sb  Sb398  1  0.05321100  0.94052000  0.24669740  1.0
  Sb  Sb399  1  0.38654433  0.27385333  0.24669740  1.0
  Sb  Sb400  1  0.38654433  0.60718667  0.24669740  1.0
  Sb  Sb401  1  0.38654433  0.94052000  0.24669740  1.0
  Sb  Sb402  1  0.71987767  0.27385333  0.24669740  1.0
  Sb  Sb403  1  0.71987767  0.60718667  0.24669740  1.0
  Sb  Sb404  1  0.71987767  0.94052000  0.24669740  1.0
  Sb  Sb405  1  0.28012233  0.05948000  0.21807340  1.0
  Sb  Sb406  1  0.28012233  0.39281333  0.21807340  1.0
  Sb  Sb407  1  0.28012233  0.72614667  0.21807340  1.0
  Sb  Sb408  1  0.61345567  0.05948000  0.21807340  1.0
  Sb  Sb409  1  0.61345567  0.39281333  0.21807340  1.0
  Sb  Sb410  1  0.61345567  0.72614667  0.21807340  1.0
  Sb  Sb411  1  0.94678900  0.05948000  0.21807340  1.0
  Sb  Sb412  1  0.94678900  0.39281333  0.21807340  1.0
  Sb  Sb413  1  0.94678900  0.72614667  0.21807340  1.0
  Sb  Sb414  1  0.28012233  0.16743133  0.28284420  1.0
  Sb  Sb415  1  0.28012233  0.50076467  0.28284420  1.0
  Sb  Sb416  1  0.28012233  0.83409800  0.28284420  1.0
  Sb  Sb417  1  0.61345567  0.16743133  0.28284420  1.0
  Sb  Sb418  1  0.61345567  0.50076467  0.28284420  1.0
  Sb  Sb419  1  0.61345567  0.83409800  0.28284420  1.0
  Sb  Sb420  1  0.94678900  0.16743133  0.28284420  1.0
  Sb  Sb421  1  0.94678900  0.50076467  0.28284420  1.0
  Sb  Sb422  1  0.94678900  0.83409800  0.28284420  1.0
  Sb  Sb423  1  0.05321100  0.16590200  0.28192660  1.0
  Sb  Sb424  1  0.05321100  0.49923533  0.28192660  1.0
  Sb  Sb425  1  0.05321100  0.83256867  0.28192660  1.0
  Sb  Sb426  1  0.38654433  0.16590200  0.28192660  1.0
  Sb  Sb427  1  0.38654433  0.49923533  0.28192660  1.0
  Sb  Sb428  1  0.38654433  0.83256867  0.28192660  1.0
  Sb  Sb429  1  0.71987767  0.16590200  0.28192660  1.0
  Sb  Sb430  1  0.71987767  0.49923533  0.28192660  1.0
  Sb  Sb431  1  0.71987767  0.83256867  0.28192660  1.0
  Ni  Ni432  1  0.00000000  0.16666667  0.33238540  1.0
  Ni  Ni433  1  0.00000000  0.50000000  0.33238540  1.0
  Ni  Ni434  1  0.00000000  0.83333333  0.33238540  1.0
  Ni  Ni435  1  0.33333333  0.16666667  0.33238540  1.0
  Ni  Ni436  1  0.33333333  0.50000000  0.33238540  1.0
  Ni  Ni437  1  0.33333333  0.83333333  0.33238540  1.0
  Ni  Ni438  1  0.66666667  0.16666667  0.33238540  1.0
  Ni  Ni439  1  0.66666667  0.50000000  0.33238540  1.0
  Ni  Ni440  1  0.66666667  0.83333333  0.33238540  1.0
  Ni  Ni441  1  0.00000000  0.33333333  0.33238540  1.0
  Ni  Ni442  1  0.00000000  0.66666667  0.33238540  1.0
  Ni  Ni443  1  0.00000000  1.00000000  0.33238540  1.0
  Ni  Ni444  1  0.33333333  0.33333333  0.33238540  1.0
  Ni  Ni445  1  0.33333333  0.66666667  0.33238540  1.0
  Ni  Ni446  1  0.33333333  1.00000000  0.33238540  1.0
  Ni  Ni447  1  0.66666667  0.33333333  0.33238540  1.0
  Ni  Ni448  1  0.66666667  0.66666667  0.33238540  1.0
  Ni  Ni449  1  0.66666667  1.00000000  0.33238540  1.0
  Ni  Ni450  1  0.16666667  0.33333333  0.33238540  1.0
  Ni  Ni451  1  0.16666667  0.66666667  0.33238540  1.0
  Ni  Ni452  1  0.16666667  1.00000000  0.33238540  1.0
  Ni  Ni453  1  0.50000000  0.33333333  0.33238540  1.0
  Ni  Ni454  1  0.50000000  0.66666667  0.33238540  1.0
  Ni  Ni455  1  0.50000000  1.00000000  0.33238540  1.0
  Ni  Ni456  1  0.83333333  0.33333333  0.33238540  1.0
  Ni  Ni457  1  0.83333333  0.66666667  0.33238540  1.0
  Ni  Ni458  1  0.83333333  1.00000000  0.33238540  1.0
  Ni  Ni459  1  0.16666667  0.16666667  0.33238540  1.0
  Ni  Ni460  1  0.16666667  0.50000000  0.33238540  1.0
  Ni  Ni461  1  0.16666667  0.83333333  0.33238540  1.0
  Ni  Ni462  1  0.50000000  0.16666667  0.33238540  1.0
  Ni  Ni463  1  0.50000000  0.50000000  0.33238540  1.0
  Ni  Ni464  1  0.50000000  0.83333333  0.33238540  1.0
  Ni  Ni465  1  0.83333333  0.16666667  0.33238540  1.0
  Ni  Ni466  1  0.83333333  0.50000000  0.33238540  1.0
  Ni  Ni467  1  0.83333333  0.83333333  0.33238540  1.0
  Sb  Sb468  1  0.27385333  0.22064233  0.34669740  1.0
  Sb  Sb469  1  0.27385333  0.55397567  0.34669740  1.0
  Sb  Sb470  1  0.27385333  0.88730900  0.34669740  1.0
  Sb  Sb471  1  0.60718667  0.22064233  0.34669740  1.0
  Sb  Sb472  1  0.60718667  0.55397567  0.34669740  1.0
  Sb  Sb473  1  0.60718667  0.88730900  0.34669740  1.0
  Sb  Sb474  1  0.94052000  0.22064233  0.34669740  1.0
  Sb  Sb475  1  0.94052000  0.55397567  0.34669740  1.0
  Sb  Sb476  1  0.94052000  0.88730900  0.34669740  1.0
  Sb  Sb477  1  0.05948000  0.11269100  0.31807340  1.0
  Sb  Sb478  1  0.05948000  0.44602433  0.31807340  1.0
  Sb  Sb479  1  0.05948000  0.77935767  0.31807340  1.0
  Sb  Sb480  1  0.39281333  0.11269100  0.31807340  1.0
  Sb  Sb481  1  0.39281333  0.44602433  0.31807340  1.0
  Sb  Sb482  1  0.39281333  0.77935767  0.31807340  1.0
  Sb  Sb483  1  0.72614667  0.11269100  0.31807340  1.0
  Sb  Sb484  1  0.72614667  0.44602433  0.31807340  1.0
  Sb  Sb485  1  0.72614667  0.77935767  0.31807340  1.0
  Sb  Sb486  1  0.16743133  0.22064233  0.38284420  1.0
  Sb  Sb487  1  0.16743133  0.55397567  0.38284420  1.0
  Sb  Sb488  1  0.16743133  0.88730900  0.38284420  1.0
  Sb  Sb489  1  0.50076467  0.22064233  0.38284420  1.0
  Sb  Sb490  1  0.50076467  0.55397567  0.38284420  1.0
  Sb  Sb491  1  0.50076467  0.88730900  0.38284420  1.0
  Sb  Sb492  1  0.83409800  0.22064233  0.38284420  1.0
  Sb  Sb493  1  0.83409800  0.55397567  0.38284420  1.0
  Sb  Sb494  1  0.83409800  0.88730900  0.38284420  1.0
  Sb  Sb495  1  0.16590200  0.11269100  0.38192660  1.0
  Sb  Sb496  1  0.16590200  0.44602433  0.38192660  1.0
  Sb  Sb497  1  0.16590200  0.77935767  0.38192660  1.0
  Sb  Sb498  1  0.49923533  0.11269100  0.38192660  1.0
  Sb  Sb499  1  0.49923533  0.44602433  0.38192660  1.0
  Sb  Sb500  1  0.49923533  0.77935767  0.38192660  1.0
  Sb  Sb501  1  0.83256867  0.11269100  0.38192660  1.0
  Sb  Sb502  1  0.83256867  0.44602433  0.38192660  1.0
  Sb  Sb503  1  0.83256867  0.77935767  0.38192660  1.0
  Sb  Sb504  1  0.22064233  0.05321100  0.34669740  1.0
  Sb  Sb505  1  0.22064233  0.38654433  0.34669740  1.0
  Sb  Sb506  1  0.22064233  0.71987767  0.34669740  1.0
  Sb  Sb507  1  0.55397567  0.05321100  0.34669740  1.0
  Sb  Sb508  1  0.55397567  0.38654433  0.34669740  1.0
  Sb  Sb509  1  0.55397567  0.71987767  0.34669740  1.0
  Sb  Sb510  1  0.88730900  0.05321100  0.34669740  1.0
  Sb  Sb511  1  0.88730900  0.38654433  0.34669740  1.0
  Sb  Sb512  1  0.88730900  0.71987767  0.34669740  1.0
  Sb  Sb513  1  0.11269100  0.28012233  0.31807340  1.0
  Sb  Sb514  1  0.11269100  0.61345567  0.31807340  1.0
  Sb  Sb515  1  0.11269100  0.94678900  0.31807340  1.0
  Sb  Sb516  1  0.44602433  0.28012233  0.31807340  1.0
  Sb  Sb517  1  0.44602433  0.61345567  0.31807340  1.0
  Sb  Sb518  1  0.44602433  0.94678900  0.31807340  1.0
  Sb  Sb519  1  0.77935767  0.28012233  0.31807340  1.0
  Sb  Sb520  1  0.77935767  0.61345567  0.31807340  1.0
  Sb  Sb521  1  0.77935767  0.94678900  0.31807340  1.0
  Sb  Sb522  1  0.22064233  0.28012233  0.38284420  1.0
  Sb  Sb523  1  0.22064233  0.61345567  0.38284420  1.0
  Sb  Sb524  1  0.22064233  0.94678900  0.38284420  1.0
  Sb  Sb525  1  0.55397567  0.28012233  0.38284420  1.0
  Sb  Sb526  1  0.55397567  0.61345567  0.38284420  1.0
  Sb  Sb527  1  0.55397567  0.94678900  0.38284420  1.0
  Sb  Sb528  1  0.88730900  0.28012233  0.38284420  1.0
  Sb  Sb529  1  0.88730900  0.61345567  0.38284420  1.0
  Sb  Sb530  1  0.88730900  0.94678900  0.38284420  1.0
  Sb  Sb531  1  0.11269100  0.05321100  0.38192660  1.0
  Sb  Sb532  1  0.11269100  0.38654433  0.38192660  1.0
  Sb  Sb533  1  0.11269100  0.71987767  0.38192660  1.0
  Sb  Sb534  1  0.44602433  0.05321100  0.38192660  1.0
  Sb  Sb535  1  0.44602433  0.38654433  0.38192660  1.0
  Sb  Sb536  1  0.44602433  0.71987767  0.38192660  1.0
  Sb  Sb537  1  0.77935767  0.05321100  0.38192660  1.0
  Sb  Sb538  1  0.77935767  0.38654433  0.38192660  1.0
  Sb  Sb539  1  0.77935767  0.71987767  0.38192660  1.0
  Sb  Sb540  1  0.05321100  0.27385333  0.34669740  1.0
  Sb  Sb541  1  0.05321100  0.60718667  0.34669740  1.0
  Sb  Sb542  1  0.05321100  0.94052000  0.34669740  1.0
  Sb  Sb543  1  0.38654433  0.27385333  0.34669740  1.0
  Sb  Sb544  1  0.38654433  0.60718667  0.34669740  1.0
  Sb  Sb545  1  0.38654433  0.94052000  0.34669740  1.0
  Sb  Sb546  1  0.71987767  0.27385333  0.34669740  1.0
  Sb  Sb547  1  0.71987767  0.60718667  0.34669740  1.0
  Sb  Sb548  1  0.71987767  0.94052000  0.34669740  1.0
  Sb  Sb549  1  0.28012233  0.05948000  0.31807340  1.0
  Sb  Sb550  1  0.28012233  0.39281333  0.31807340  1.0
  Sb  Sb551  1  0.28012233  0.72614667  0.31807340  1.0
  Sb  Sb552  1  0.61345567  0.05948000  0.31807340  1.0
  Sb  Sb553  1  0.61345567  0.39281333  0.31807340  1.0
  Sb  Sb554  1  0.61345567  0.72614667  0.31807340  1.0
  Sb  Sb555  1  0.94678900  0.05948000  0.31807340  1.0
  Sb  Sb556  1  0.94678900  0.39281333  0.31807340  1.0
  Sb  Sb557  1  0.94678900  0.72614667  0.31807340  1.0
  Sb  Sb558  1  0.28012233  0.16743133  0.38284420  1.0
  Sb  Sb559  1  0.28012233  0.50076467  0.38284420  1.0
  Sb  Sb560  1  0.28012233  0.83409800  0.38284420  1.0
  Sb  Sb561  1  0.61345567  0.16743133  0.38284420  1.0
  Sb  Sb562  1  0.61345567  0.50076467  0.38284420  1.0
  Sb  Sb563  1  0.61345567  0.83409800  0.38284420  1.0
  Sb  Sb564  1  0.94678900  0.16743133  0.38284420  1.0
  Sb  Sb565  1  0.94678900  0.50076467  0.38284420  1.0
  Sb  Sb566  1  0.94678900  0.83409800  0.38284420  1.0
  Sb  Sb567  1  0.05321100  0.16590200  0.38192660  1.0
  Sb  Sb568  1  0.05321100  0.49923533  0.38192660  1.0
  Sb  Sb569  1  0.05321100  0.83256867  0.38192660  1.0
  Sb  Sb570  1  0.38654433  0.16590200  0.38192660  1.0
  Sb  Sb571  1  0.38654433  0.49923533  0.38192660  1.0
  Sb  Sb572  1  0.38654433  0.83256867  0.38192660  1.0
  Sb  Sb573  1  0.71987767  0.16590200  0.38192660  1.0
  Sb  Sb574  1  0.71987767  0.49923533  0.38192660  1.0
  Sb  Sb575  1  0.71987767  0.83256867  0.38192660  1.0
