# generated using pymatgen
data_NiSb
_symmetry_space_group_name_H-M   'P 1'
_cell_length_a   11.89020120
_cell_length_b   11.89020120
_cell_length_c   25.71910000
_cell_angle_alpha   90.00000000
_cell_angle_beta   90.00000000
_cell_angle_gamma   120.00000000
_symmetry_Int_Tables_number   1
_chemical_formula_structural   NiSb
_chemical_formula_sum   'Ni36 Sb36'
_cell_volume   3148.94304736
_cell_formula_units_Z   36
loop_
 _symmetry_equiv_pos_site_id
 _symmetry_equiv_pos_as_xyz
  1  'x, y, z'
loop_
 _atom_site_type_symbol
 _atom_site_label
 _atom_site_symmetry_multiplicity
 _atom_site_fract_x
 _atom_site_fract_y
 _atom_site_fract_z
 _atom_site_occupancy
  Ni  Ni0  1  0.00000000  0.00000000  0.07500000  1.0
  Ni  Ni1  1  0.00000000  0.33333333  0.07500000  1.0
  Ni  Ni2  1  0.00000000  0.66666667  0.07500000  1.0
  Ni  Ni3  1  0.33333333  0.00000000  0.07500000  1.0
  Ni  Ni4  1  0.33333333  0.33333333  0.07500000  1.0
  Ni  Ni5  1  0.33333333  0.66666667  0.07500000  1.0
  Ni  Ni6  1  0.66666667  0.00000000  0.07500000  1.0
  Ni  Ni7  1  0.66666667  0.33333333  0.07500000  1.0
  Ni  Ni8  1  0.66666667  0.66666667  0.07500000  1.0
  Ni  Ni9  1  0.00000000  0.00000000  0.17500000  1.0
  Ni  Ni10  1  0.00000000  0.33333333  0.17500000  1.0
  Ni  Ni11  1  0.00000000  0.66666667  0.17500000  1.0
  Ni  Ni12  1  0.33333333  0.00000000  0.17500000  1.0
  Ni  Ni13  1  0.33333333  0.33333333  0.17500000  1.0
  Ni  Ni14  1  0.33333333  0.66666667  0.17500000  1.0
  Ni  Ni15  1  0.66666667  0.00000000  0.17500000  1.0
  Ni  Ni16  1  0.66666667  0.33333333  0.17500000  1.0
  Ni  Ni17  1  0.66666667  0.66666667  0.17500000  1.0
  Sb  Sb18  1  0.22222222  0.11111111  0.12500000  1.0
  Sb  Sb19  1  0.22222222  0.44444444  0.12500000  1.0
  Sb  Sb20  1  0.22222222  0.77777778  0.12500000  1.0
  Sb  Sb21  1  0.55555556  0.11111111  0.12500000  1.0
  Sb  Sb22  1  0.55555556  0.44444444  0.12500000  1.0
  Sb  Sb23  1  0.55555556  0.77777778  0.12500000  1.0
  Sb  Sb24  1  0.88888889  0.11111111  0.12500000  1.0
  Sb  Sb25  1  0.88888889  0.44444444  0.12500000  1.0
  Sb  Sb26  1  0.88888889  0.77777778  0.12500000  1.0
  Sb  Sb27  1  0.11111111  0.22222222  0.02500000  1.0
  Sb  Sb28  1  0.11111111  0.55555556  0.02500000  1.0
  Sb  Sb29  1  0.11111111  0.88888889  0.02500000  1.0
  Sb  Sb30  1  0.44444444  0.22222222  0.02500000  1.0
  Sb  Sb31  1  0.44444444  0.55555556  0.02500000  1.0
  Sb  Sb32  1  0.44444444  0.88888889  0.02500000  1.0
  Sb  Sb33  1  0.77777778  0.22222222  0.02500000  1.0
  Sb  Sb34  1  0.77777778  0.55555556  0.02500000  1.0
  Sb  Sb35  1  0.77777778  0.88888889  0.02500000  1.0
  Ni  Ni36  1  0.00000000  0.00000000  0.27500000  1.0
  Ni  Ni37  1  0.00000000  0.33333333  0.27500000  1.0
  Ni  Ni38  1  0.00000000  0.66666667  0.27500000  1.0
  Ni  Ni39  1  0.33333333  0.00000000  0.27500000  1.0
  Ni  Ni40  1  0.33333333  0.33333333  0.27500000  1.0
  Ni  Ni41  1  0.33333333  0.66666667  0.27500000  1.0
  Ni  Ni42  1  0.66666667  0.00000000  0.27500000  1.0
  Ni  Ni43  1  0.66666667  0.33333333  0.27500000  1.0
  Ni  Ni44  1  0.66666667  0.66666667  0.27500000  1.0
  Ni  Ni45  1  0.00000000  0.00000000  0.37500000  1.0
  Ni  Ni46  1  0.00000000  0.33333333  0.37500000  1.0
  Ni  Ni47  1  0.00000000  0.66666667  0.37500000  1.0
  Ni  Ni48  1  0.33333333  0.00000000  0.37500000  1.0
  Ni  Ni49  1  0.33333333  0.33333333  0.37500000  1.0
  Ni  Ni50  1  0.33333333  0.66666667  0.37500000  1.0
  Ni  Ni51  1  0.66666667  0.00000000  0.37500000  1.0
  Ni  Ni52  1  0.66666667  0.33333333  0.37500000  1.0
  Ni  Ni53  1  0.66666667  0.66666667  0.37500000  1.0
  Sb  Sb54  1  0.22222222  0.11111111  0.32500000  1.0
  Sb  Sb55  1  0.22222222  0.44444444  0.32500000  1.0
  Sb  Sb56  1  0.22222222  0.77777778  0.32500000  1.0
  Sb  Sb57  1  0.55555556  0.11111111  0.32500000  1.0
  Sb  Sb58  1  0.55555556  0.44444444  0.32500000  1.0
  Sb  Sb59  1  0.55555556  0.77777778  0.32500000  1.0
  Sb  Sb60  1  0.88888889  0.11111111  0.32500000  1.0
  Sb  Sb61  1  0.88888889  0.44444444  0.32500000  1.0
  Sb  Sb62  1  0.88888889  0.77777778  0.32500000  1.0
  Sb  Sb63  1  0.11111111  0.22222222  0.22500000  1.0
  Sb  Sb64  1  0.11111111  0.55555556  0.22500000  1.0
  Sb  Sb65  1  0.11111111  0.88888889  0.22500000  1.0
  Sb  Sb66  1  0.44444444  0.22222222  0.22500000  1.0
  Sb  Sb67  1  0.44444444  0.55555556  0.22500000  1.0
  Sb  Sb68  1  0.44444444  0.88888889  0.22500000  1.0
  Sb  Sb69  1  0.77777778  0.22222222  0.22500000  1.0
  Sb  Sb70  1  0.77777778  0.55555556  0.22500000  1.0
  Sb  Sb71  1  0.77777778  0.88888889  0.22500000  1.0
