# generated using pymatgen
data_NiSb2
_symmetry_space_group_name_H-M   'P 1'
_cell_length_a   27.90068647
_cell_length_b   22.11289121
_cell_length_c   37.45385000
_cell_angle_alpha   90.00000000
_cell_angle_beta   54.87838913
_cell_angle_gamma   65.03526339
_symmetry_Int_Tables_number   1
_chemical_formula_structural   NiSb2
_chemical_formula_sum   'Ni108 Sb216'
_cell_volume   16189.89898926
_cell_formula_units_Z   108
loop_
 _symmetry_equiv_pos_site_id
 _symmetry_equiv_pos_as_xyz
  1  'x, y, z'
loop_
 _atom_site_type_symbol
 _atom_site_label
 _atom_site_symmetry_multiplicity
 _atom_site_fract_x
 _atom_site_fract_y
 _atom_site_fract_z
 _atom_site_occupancy
  Ni  Ni0  1  0.00000000  0.16666667  0.06888564  1.0
  Ni  Ni1  1  0.00000000  0.50000000  0.06888564  1.0
  Ni  Ni2  1  0.00000000  0.83333333  0.06888564  1.0
  Ni  Ni3  1  0.33333333  0.16666667  0.06888564  1.0
  Ni  Ni4  1  0.33333333  0.50000000  0.06888564  1.0
  Ni  Ni5  1  0.33333333  0.83333333  0.06888564  1.0
  Ni  Ni6  1  0.66666667  0.16666667  0.06888564  1.0
  Ni  Ni7  1  0.66666667  0.50000000  0.06888564  1.0
  Ni  Ni8  1  0.66666667  0.83333333  0.06888564  1.0
  Ni  Ni9  1  0.16666667  0.16666667  0.14031421  1.0
  Ni  Ni10  1  0.16666667  0.50000000  0.14031421  1.0
  Ni  Ni11  1  0.16666667  0.83333333  0.14031421  1.0
  Ni  Ni12  1  0.50000000  0.16666667  0.14031421  1.0
  Ni  Ni13  1  0.50000000  0.50000000  0.14031421  1.0
  Ni  Ni14  1  0.50000000  0.83333333  0.14031421  1.0
  Ni  Ni15  1  0.83333333  0.16666667  0.14031421  1.0
  Ni  Ni16  1  0.83333333  0.50000000  0.14031421  1.0
  Ni  Ni17  1  0.83333333  0.83333333  0.14031421  1.0
  Ni  Ni18  1  0.16666667  0.00000000  0.06888564  1.0
  Ni  Ni19  1  0.16666667  0.33333333  0.06888564  1.0
  Ni  Ni20  1  0.16666667  0.66666667  0.06888564  1.0
  Ni  Ni21  1  0.50000000  0.00000000  0.06888564  1.0
  Ni  Ni22  1  0.50000000  0.33333333  0.06888564  1.0
  Ni  Ni23  1  0.50000000  0.66666667  0.06888564  1.0
  Ni  Ni24  1  0.83333333  0.00000000  0.06888564  1.0
  Ni  Ni25  1  0.83333333  0.33333333  0.06888564  1.0
  Ni  Ni26  1  0.83333333  0.66666667  0.06888564  1.0
  Ni  Ni27  1  0.00000000  0.00000000  0.14031421  1.0
  Ni  Ni28  1  0.00000000  0.33333333  0.14031421  1.0
  Ni  Ni29  1  0.00000000  0.66666667  0.14031421  1.0
  Ni  Ni30  1  0.33333333  0.00000000  0.14031421  1.0
  Ni  Ni31  1  0.33333333  0.33333333  0.14031421  1.0
  Ni  Ni32  1  0.33333333  0.66666667  0.14031421  1.0
  Ni  Ni33  1  0.66666667  0.00000000  0.14031421  1.0
  Ni  Ni34  1  0.66666667  0.33333333  0.14031421  1.0
  Ni  Ni35  1  0.66666667  0.66666667  0.14031421  1.0
  Sb  Sb36  1  0.06006833  0.04653000  0.07397150  1.0
  Sb  Sb37  1  0.06006833  0.37986333  0.07397150  1.0
  Sb  Sb38  1  0.06006833  0.71319667  0.07397150  1.0
  Sb  Sb39  1  0.39340167  0.04653000  0.07397150  1.0
  Sb  Sb40  1  0.39340167  0.37986333  0.07397150  1.0
  Sb  Sb41  1  0.39340167  0.71319667  0.07397150  1.0
  Sb  Sb42  1  0.72673500  0.04653000  0.07397150  1.0
  Sb  Sb43  1  0.72673500  0.37986333  0.07397150  1.0
  Sb  Sb44  1  0.72673500  0.71319667  0.07397150  1.0
  Sb  Sb45  1  0.22673500  0.04653000  0.00254293  1.0
  Sb  Sb46  1  0.22673500  0.37986333  0.00254293  1.0
  Sb  Sb47  1  0.22673500  0.71319667  0.00254293  1.0
  Sb  Sb48  1  0.56006833  0.04653000  0.00254293  1.0
  Sb  Sb49  1  0.56006833  0.37986333  0.00254293  1.0
  Sb  Sb50  1  0.56006833  0.71319667  0.00254293  1.0
  Sb  Sb51  1  0.89340167  0.04653000  0.00254293  1.0
  Sb  Sb52  1  0.89340167  0.37986333  0.00254293  1.0
  Sb  Sb53  1  0.89340167  0.71319667  0.00254293  1.0
  Sb  Sb54  1  0.27326500  0.28680333  0.06379979  1.0
  Sb  Sb55  1  0.27326500  0.62013667  0.06379979  1.0
  Sb  Sb56  1  0.27326500  0.95347000  0.06379979  1.0
  Sb  Sb57  1  0.60659833  0.28680333  0.06379979  1.0
  Sb  Sb58  1  0.60659833  0.62013667  0.06379979  1.0
  Sb  Sb59  1  0.60659833  0.95347000  0.06379979  1.0
  Sb  Sb60  1  0.93993167  0.28680333  0.06379979  1.0
  Sb  Sb61  1  0.93993167  0.62013667  0.06379979  1.0
  Sb  Sb62  1  0.93993167  0.95347000  0.06379979  1.0
  Sb  Sb63  1  0.10659833  0.28680333  0.13522836  1.0
  Sb  Sb64  1  0.10659833  0.62013667  0.13522836  1.0
  Sb  Sb65  1  0.10659833  0.95347000  0.13522836  1.0
  Sb  Sb66  1  0.43993167  0.28680333  0.13522836  1.0
  Sb  Sb67  1  0.43993167  0.62013667  0.13522836  1.0
  Sb  Sb68  1  0.43993167  0.95347000  0.13522836  1.0
  Sb  Sb69  1  0.77326500  0.28680333  0.13522836  1.0
  Sb  Sb70  1  0.77326500  0.62013667  0.13522836  1.0
  Sb  Sb71  1  0.77326500  0.95347000  0.13522836  1.0
  Sb  Sb72  1  0.06006833  0.21319667  0.08374121  1.0
  Sb  Sb73  1  0.06006833  0.54653000  0.08374121  1.0
  Sb  Sb74  1  0.06006833  0.87986333  0.08374121  1.0
  Sb  Sb75  1  0.39340167  0.21319667  0.08374121  1.0
  Sb  Sb76  1  0.39340167  0.54653000  0.08374121  1.0
  Sb  Sb77  1  0.39340167  0.87986333  0.08374121  1.0
  Sb  Sb78  1  0.72673500  0.21319667  0.08374121  1.0
  Sb  Sb79  1  0.72673500  0.54653000  0.08374121  1.0
  Sb  Sb80  1  0.72673500  0.87986333  0.08374121  1.0
  Sb  Sb81  1  0.22673500  0.21319667  0.01231264  1.0
  Sb  Sb82  1  0.22673500  0.54653000  0.01231264  1.0
  Sb  Sb83  1  0.22673500  0.87986333  0.01231264  1.0
  Sb  Sb84  1  0.56006833  0.21319667  0.01231264  1.0
  Sb  Sb85  1  0.56006833  0.54653000  0.01231264  1.0
  Sb  Sb86  1  0.56006833  0.87986333  0.01231264  1.0
  Sb  Sb87  1  0.89340167  0.21319667  0.01231264  1.0
  Sb  Sb88  1  0.89340167  0.54653000  0.01231264  1.0
  Sb  Sb89  1  0.89340167  0.87986333  0.01231264  1.0
  Sb  Sb90  1  0.10659833  0.12013667  0.12545864  1.0
  Sb  Sb91  1  0.10659833  0.45347000  0.12545864  1.0
  Sb  Sb92  1  0.10659833  0.78680333  0.12545864  1.0
  Sb  Sb93  1  0.43993167  0.12013667  0.12545864  1.0
  Sb  Sb94  1  0.43993167  0.45347000  0.12545864  1.0
  Sb  Sb95  1  0.43993167  0.78680333  0.12545864  1.0
  Sb  Sb96  1  0.77326500  0.12013667  0.12545864  1.0
  Sb  Sb97  1  0.77326500  0.45347000  0.12545864  1.0
  Sb  Sb98  1  0.77326500  0.78680333  0.12545864  1.0
  Sb  Sb99  1  0.27326500  0.12013667  0.05403007  1.0
  Sb  Sb100  1  0.27326500  0.45347000  0.05403007  1.0
  Sb  Sb101  1  0.27326500  0.78680333  0.05403007  1.0
  Sb  Sb102  1  0.60659833  0.12013667  0.05403007  1.0
  Sb  Sb103  1  0.60659833  0.45347000  0.05403007  1.0
  Sb  Sb104  1  0.60659833  0.78680333  0.05403007  1.0
  Sb  Sb105  1  0.93993167  0.12013667  0.05403007  1.0
  Sb  Sb106  1  0.93993167  0.45347000  0.05403007  1.0
  Sb  Sb107  1  0.93993167  0.78680333  0.05403007  1.0
  Ni  Ni108  1  0.00000000  0.16666667  0.21174279  1.0
  Ni  Ni109  1  0.00000000  0.50000000  0.21174279  1.0
  Ni  Ni110  1  0.00000000  0.83333333  0.21174279  1.0
  Ni  Ni111  1  0.33333333  0.16666667  0.21174279  1.0
  Ni  Ni112  1  0.33333333  0.50000000  0.21174279  1.0
  Ni  Ni113  1  0.33333333  0.83333333  0.21174279  1.0
  Ni  Ni114  1  0.66666667  0.16666667  0.21174279  1.0
  Ni  Ni115  1  0.66666667  0.50000000  0.21174279  1.0
  Ni  Ni116  1  0.66666667  0.83333333  0.21174279  1.0
  Ni  Ni117  1  0.16666667  0.16666667  0.28317136  1.0
  Ni  Ni118  1  0.16666667  0.50000000  0.28317136  1.0
  Ni  Ni119  1  0.16666667  0.83333333  0.28317136  1.0
  Ni  Ni120  1  0.50000000  0.16666667  0.28317136  1.0
  Ni  Ni121  1  0.50000000  0.50000000  0.28317136  1.0
  Ni  Ni122  1  0.50000000  0.83333333  0.28317136  1.0
  Ni  Ni123  1  0.83333333  0.16666667  0.28317136  1.0
  Ni  Ni124  1  0.83333333  0.50000000  0.28317136  1.0
  Ni  Ni125  1  0.83333333  0.83333333  0.28317136  1.0
  Ni  Ni126  1  0.16666667  0.00000000  0.21174279  1.0
  Ni  Ni127  1  0.16666667  0.33333333  0.21174279  1.0
  Ni  Ni128  1  0.16666667  0.66666667  0.21174279  1.0
  Ni  Ni129  1  0.50000000  0.00000000  0.21174279  1.0
  Ni  Ni130  1  0.50000000  0.33333333  0.21174279  1.0
  Ni  Ni131  1  0.50000000  0.66666667  0.21174279  1.0
  Ni  Ni132  1  0.83333333  0.00000000  0.21174279  1.0
  Ni  Ni133  1  0.83333333  0.33333333  0.21174279  1.0
  Ni  Ni134  1  0.83333333  0.66666667  0.21174279  1.0
  Ni  Ni135  1  0.00000000  0.00000000  0.28317136  1.0
  Ni  Ni136  1  0.00000000  0.33333333  0.28317136  1.0
  Ni  Ni137  1  0.00000000  0.66666667  0.28317136  1.0
  Ni  Ni138  1  0.33333333  0.00000000  0.28317136  1.0
  Ni  Ni139  1  0.33333333  0.33333333  0.28317136  1.0
  Ni  Ni140  1  0.33333333  0.66666667  0.28317136  1.0
  Ni  Ni141  1  0.66666667  0.00000000  0.28317136  1.0
  Ni  Ni142  1  0.66666667  0.33333333  0.28317136  1.0
  Ni  Ni143  1  0.66666667  0.66666667  0.28317136  1.0
  Sb  Sb144  1  0.06006833  0.04653000  0.21682864  1.0
  Sb  Sb145  1  0.06006833  0.37986333  0.21682864  1.0
  Sb  Sb146  1  0.06006833  0.71319667  0.21682864  1.0
  Sb  Sb147  1  0.39340167  0.04653000  0.21682864  1.0
  Sb  Sb148  1  0.39340167  0.37986333  0.21682864  1.0
  Sb  Sb149  1  0.39340167  0.71319667  0.21682864  1.0
  Sb  Sb150  1  0.72673500  0.04653000  0.21682864  1.0
  Sb  Sb151  1  0.72673500  0.37986333  0.21682864  1.0
  Sb  Sb152  1  0.72673500  0.71319667  0.21682864  1.0
  Sb  Sb153  1  0.22673500  0.04653000  0.14540007  1.0
  Sb  Sb154  1  0.22673500  0.37986333  0.14540007  1.0
  Sb  Sb155  1  0.22673500  0.71319667  0.14540007  1.0
  Sb  Sb156  1  0.56006833  0.04653000  0.14540007  1.0
  Sb  Sb157  1  0.56006833  0.37986333  0.14540007  1.0
  Sb  Sb158  1  0.56006833  0.71319667  0.14540007  1.0
  Sb  Sb159  1  0.89340167  0.04653000  0.14540007  1.0
  Sb  Sb160  1  0.89340167  0.37986333  0.14540007  1.0
  Sb  Sb161  1  0.89340167  0.71319667  0.14540007  1.0
  Sb  Sb162  1  0.27326500  0.28680333  0.20665693  1.0
  Sb  Sb163  1  0.27326500  0.62013667  0.20665693  1.0
  Sb  Sb164  1  0.27326500  0.95347000  0.20665693  1.0
  Sb  Sb165  1  0.60659833  0.28680333  0.20665693  1.0
  Sb  Sb166  1  0.60659833  0.62013667  0.20665693  1.0
  Sb  Sb167  1  0.60659833  0.95347000  0.20665693  1.0
  Sb  Sb168  1  0.93993167  0.28680333  0.20665693  1.0
  Sb  Sb169  1  0.93993167  0.62013667  0.20665693  1.0
  Sb  Sb170  1  0.93993167  0.95347000  0.20665693  1.0
  Sb  Sb171  1  0.10659833  0.28680333  0.27808550  1.0
  Sb  Sb172  1  0.10659833  0.62013667  0.27808550  1.0
  Sb  Sb173  1  0.10659833  0.95347000  0.27808550  1.0
  Sb  Sb174  1  0.43993167  0.28680333  0.27808550  1.0
  Sb  Sb175  1  0.43993167  0.62013667  0.27808550  1.0
  Sb  Sb176  1  0.43993167  0.95347000  0.27808550  1.0
  Sb  Sb177  1  0.77326500  0.28680333  0.27808550  1.0
  Sb  Sb178  1  0.77326500  0.62013667  0.27808550  1.0
  Sb  Sb179  1  0.77326500  0.95347000  0.27808550  1.0
  Sb  Sb180  1  0.06006833  0.21319667  0.22659836  1.0
  Sb  Sb181  1  0.06006833  0.54653000  0.22659836  1.0
  Sb  Sb182  1  0.06006833  0.87986333  0.22659836  1.0
  Sb  Sb183  1  0.39340167  0.21319667  0.22659836  1.0
  Sb  Sb184  1  0.39340167  0.54653000  0.22659836  1.0
  Sb  Sb185  1  0.39340167  0.87986333  0.22659836  1.0
  Sb  Sb186  1  0.72673500  0.21319667  0.22659836  1.0
  Sb  Sb187  1  0.72673500  0.54653000  0.22659836  1.0
  Sb  Sb188  1  0.72673500  0.87986333  0.22659836  1.0
  Sb  Sb189  1  0.22673500  0.21319667  0.15516979  1.0
  Sb  Sb190  1  0.22673500  0.54653000  0.15516979  1.0
  Sb  Sb191  1  0.22673500  0.87986333  0.15516979  1.0
  Sb  Sb192  1  0.56006833  0.21319667  0.15516979  1.0
  Sb  Sb193  1  0.56006833  0.54653000  0.15516979  1.0
  Sb  Sb194  1  0.56006833  0.87986333  0.15516979  1.0
  Sb  Sb195  1  0.89340167  0.21319667  0.15516979  1.0
  Sb  Sb196  1  0.89340167  0.54653000  0.15516979  1.0
  Sb  Sb197  1  0.89340167  0.87986333  0.15516979  1.0
  Sb  Sb198  1  0.10659833  0.12013667  0.26831579  1.0
  Sb  Sb199  1  0.10659833  0.45347000  0.26831579  1.0
  Sb  Sb200  1  0.10659833  0.78680333  0.26831579  1.0
  Sb  Sb201  1  0.43993167  0.12013667  0.26831579  1.0
  Sb  Sb202  1  0.43993167  0.45347000  0.26831579  1.0
  Sb  Sb203  1  0.43993167  0.78680333  0.26831579  1.0
  Sb  Sb204  1  0.77326500  0.12013667  0.26831579  1.0
  Sb  Sb205  1  0.77326500  0.45347000  0.26831579  1.0
  Sb  Sb206  1  0.77326500  0.78680333  0.26831579  1.0
  Sb  Sb207  1  0.27326500  0.12013667  0.19688721  1.0
  Sb  Sb208  1  0.27326500  0.45347000  0.19688721  1.0
  Sb  Sb209  1  0.27326500  0.78680333  0.19688721  1.0
  Sb  Sb210  1  0.60659833  0.12013667  0.19688721  1.0
  Sb  Sb211  1  0.60659833  0.45347000  0.19688721  1.0
  Sb  Sb212  1  0.60659833  0.78680333  0.19688721  1.0
  Sb  Sb213  1  0.93993167  0.12013667  0.19688721  1.0
  Sb  Sb214  1  0.93993167  0.45347000  0.19688721  1.0
  Sb  Sb215  1  0.93993167  0.78680333  0.19688721  1.0
  Ni  Ni216  1  0.00000000  0.16666667  0.35459993  1.0
  Ni  Ni217  1  0.00000000  0.50000000  0.35459993  1.0
  Ni  Ni218  1  0.00000000  0.83333333  0.35459993  1.0
  Ni  Ni219  1  0.33333333  0.16666667  0.35459993  1.0
  Ni  Ni220  1  0.33333333  0.50000000  0.35459993  1.0
  Ni  Ni221  1  0.33333333  0.83333333  0.35459993  1.0
  Ni  Ni222  1  0.66666667  0.16666667  0.35459993  1.0
  Ni  Ni223  1  0.66666667  0.50000000  0.35459993  1.0
  Ni  Ni224  1  0.66666667  0.83333333  0.35459993  1.0
  Ni  Ni225  1  0.16666667  0.16666667  0.42602850  1.0
  Ni  Ni226  1  0.16666667  0.50000000  0.42602850  1.0
  Ni  Ni227  1  0.16666667  0.83333333  0.42602850  1.0
  Ni  Ni228  1  0.50000000  0.16666667  0.42602850  1.0
  Ni  Ni229  1  0.50000000  0.50000000  0.42602850  1.0
  Ni  Ni230  1  0.50000000  0.83333333  0.42602850  1.0
  Ni  Ni231  1  0.83333333  0.16666667  0.42602850  1.0
  Ni  Ni232  1  0.83333333  0.50000000  0.42602850  1.0
  Ni  Ni233  1  0.83333333  0.83333333  0.42602850  1.0
  Ni  Ni234  1  0.16666667  0.00000000  0.35459993  1.0
  Ni  Ni235  1  0.16666667  0.33333333  0.35459993  1.0
  Ni  Ni236  1  0.16666667  0.66666667  0.35459993  1.0
  Ni  Ni237  1  0.50000000  0.00000000  0.35459993  1.0
  Ni  Ni238  1  0.50000000  0.33333333  0.35459993  1.0
  Ni  Ni239  1  0.50000000  0.66666667  0.35459993  1.0
  Ni  Ni240  1  0.83333333  0.00000000  0.35459993  1.0
  Ni  Ni241  1  0.83333333  0.33333333  0.35459993  1.0
  Ni  Ni242  1  0.83333333  0.66666667  0.35459993  1.0
  Ni  Ni243  1  0.00000000  0.00000000  0.42602850  1.0
  Ni  Ni244  1  0.00000000  0.33333333  0.42602850  1.0
  Ni  Ni245  1  0.00000000  0.66666667  0.42602850  1.0
  Ni  Ni246  1  0.33333333  0.00000000  0.42602850  1.0
  Ni  Ni247  1  0.33333333  0.33333333  0.42602850  1.0
  Ni  Ni248  1  0.33333333  0.66666667  0.42602850  1.0
  Ni  Ni249  1  0.66666667  0.00000000  0.42602850  1.0
  Ni  Ni250  1  0.66666667  0.33333333  0.42602850  1.0
  Ni  Ni251  1  0.66666667  0.66666667  0.42602850  1.0
  Sb  Sb252  1  0.06006833  0.04653000  0.35968579  1.0
  Sb  Sb253  1  0.06006833  0.37986333  0.35968579  1.0
  Sb  Sb254  1  0.06006833  0.71319667  0.35968579  1.0
  Sb  Sb255  1  0.39340167  0.04653000  0.35968579  1.0
  Sb  Sb256  1  0.39340167  0.37986333  0.35968579  1.0
  Sb  Sb257  1  0.39340167  0.71319667  0.35968579  1.0
  Sb  Sb258  1  0.72673500  0.04653000  0.35968579  1.0
  Sb  Sb259  1  0.72673500  0.37986333  0.35968579  1.0
  Sb  Sb260  1  0.72673500  0.71319667  0.35968579  1.0
  Sb  Sb261  1  0.22673500  0.04653000  0.28825721  1.0
  Sb  Sb262  1  0.22673500  0.37986333  0.28825721  1.0
  Sb  Sb263  1  0.22673500  0.71319667  0.28825721  1.0
  Sb  Sb264  1  0.56006833  0.04653000  0.28825721  1.0
  Sb  Sb265  1  0.56006833  0.37986333  0.28825721  1.0
  Sb  Sb266  1  0.56006833  0.71319667  0.28825721  1.0
  Sb  Sb267  1  0.89340167  0.04653000  0.28825721  1.0
  Sb  Sb268  1  0.89340167  0.37986333  0.28825721  1.0
  Sb  Sb269  1  0.89340167  0.71319667  0.28825721  1.0
  Sb  Sb270  1  0.27326500  0.28680333  0.34951407  1.0
  Sb  Sb271  1  0.27326500  0.62013667  0.34951407  1.0
  Sb  Sb272  1  0.27326500  0.95347000  0.34951407  1.0
  Sb  Sb273  1  0.60659833  0.28680333  0.34951407  1.0
  Sb  Sb274  1  0.60659833  0.62013667  0.34951407  1.0
  Sb  Sb275  1  0.60659833  0.95347000  0.34951407  1.0
  Sb  Sb276  1  0.93993167  0.28680333  0.34951407  1.0
  Sb  Sb277  1  0.93993167  0.62013667  0.34951407  1.0
  Sb  Sb278  1  0.93993167  0.95347000  0.34951407  1.0
  Sb  Sb279  1  0.10659833  0.28680333  0.42094264  1.0
  Sb  Sb280  1  0.10659833  0.62013667  0.42094264  1.0
  Sb  Sb281  1  0.10659833  0.95347000  0.42094264  1.0
  Sb  Sb282  1  0.43993167  0.28680333  0.42094264  1.0
  Sb  Sb283  1  0.43993167  0.62013667  0.42094264  1.0
  Sb  Sb284  1  0.43993167  0.95347000  0.42094264  1.0
  Sb  Sb285  1  0.77326500  0.28680333  0.42094264  1.0
  Sb  Sb286  1  0.77326500  0.62013667  0.42094264  1.0
  Sb  Sb287  1  0.77326500  0.95347000  0.42094264  1.0
  Sb  Sb288  1  0.06006833  0.21319667  0.36945550  1.0
  Sb  Sb289  1  0.06006833  0.54653000  0.36945550  1.0
  Sb  Sb290  1  0.06006833  0.87986333  0.36945550  1.0
  Sb  Sb291  1  0.39340167  0.21319667  0.36945550  1.0
  Sb  Sb292  1  0.39340167  0.54653000  0.36945550  1.0
  Sb  Sb293  1  0.39340167  0.87986333  0.36945550  1.0
  Sb  Sb294  1  0.72673500  0.21319667  0.36945550  1.0
  Sb  Sb295  1  0.72673500  0.54653000  0.36945550  1.0
  Sb  Sb296  1  0.72673500  0.87986333  0.36945550  1.0
  Sb  Sb297  1  0.22673500  0.21319667  0.29802693  1.0
  Sb  Sb298  1  0.22673500  0.54653000  0.29802693  1.0
  Sb  Sb299  1  0.22673500  0.87986333  0.29802693  1.0
  Sb  Sb300  1  0.56006833  0.21319667  0.29802693  1.0
  Sb  Sb301  1  0.56006833  0.54653000  0.29802693  1.0
  Sb  Sb302  1  0.56006833  0.87986333  0.29802693  1.0
  Sb  Sb303  1  0.89340167  0.21319667  0.29802693  1.0
  Sb  Sb304  1  0.89340167  0.54653000  0.29802693  1.0
  Sb  Sb305  1  0.89340167  0.87986333  0.29802693  1.0
  Sb  Sb306  1  0.10659833  0.12013667  0.41117293  1.0
  Sb  Sb307  1  0.10659833  0.45347000  0.41117293  1.0
  Sb  Sb308  1  0.10659833  0.78680333  0.41117293  1.0
  Sb  Sb309  1  0.43993167  0.12013667  0.41117293  1.0
  Sb  Sb310  1  0.43993167  0.45347000  0.41117293  1.0
  Sb  Sb311  1  0.43993167  0.78680333  0.41117293  1.0
  Sb  Sb312  1  0.77326500  0.12013667  0.41117293  1.0
  Sb  Sb313  1  0.77326500  0.45347000  0.41117293  1.0
  Sb  Sb314  1  0.77326500  0.78680333  0.41117293  1.0
  Sb  Sb315  1  0.27326500  0.12013667  0.33974436  1.0
  Sb  Sb316  1  0.27326500  0.45347000  0.33974436  1.0
  Sb  Sb317  1  0.27326500  0.78680333  0.33974436  1.0
  Sb  Sb318  1  0.60659833  0.12013667  0.33974436  1.0
  Sb  Sb319  1  0.60659833  0.45347000  0.33974436  1.0
  Sb  Sb320  1  0.60659833  0.78680333  0.33974436  1.0
  Sb  Sb321  1  0.93993167  0.12013667  0.33974436  1.0
  Sb  Sb322  1  0.93993167  0.45347000  0.33974436  1.0
  Sb  Sb323  1  0.93993167  0.78680333  0.33974436  1.0
