# generated using pymatgen
data_NiSb3
_symmetry_space_group_name_H-M   'P 1'
_cell_length_a   24.03859623
_cell_length_b   24.03859623
_cell_length_c   40.06432705
_cell_angle_alpha   109.47122063
_cell_angle_beta   109.47122063
_cell_angle_gamma   109.47122063
_symmetry_Int_Tables_number   1
_chemical_formula_structural   NiSb3
_chemical_formula_sum   'Ni72 Sb216'
_cell_volume   17821.90676408
_cell_formula_units_Z   72
loop_
 _symmetry_equiv_pos_site_id
 _symmetry_equiv_pos_as_xyz
  1  'x, y, z'
loop_
 _atom_site_type_symbol
 _atom_site_label
 _atom_site_symmetry_multiplicity
 _atom_site_fract_x
 _atom_site_fract_y
 _atom_site_fract_z
 _atom_site_occupancy
  Ni  Ni0  1  0.00000000  0.16666667  0.18403670  1.0
  Ni  Ni1  1  0.00000000  0.50000000  0.18403670  1.0
  Ni  Ni2  1  0.00000000  0.83333333  0.18403670  1.0
  Ni  Ni3  1  0.33333333  0.16666667  0.18403670  1.0
  Ni  Ni4  1  0.33333333  0.50000000  0.18403670  1.0
  Ni  Ni5  1  0.33333333  0.83333333  0.18403670  1.0
  Ni  Ni6  1  0.66666667  0.16666667  0.18403670  1.0
  Ni  Ni7  1  0.66666667  0.50000000  0.18403670  1.0
  Ni  Ni8  1  0.66666667  0.83333333  0.18403670  1.0
  Ni  Ni9  1  0.00000000  0.00000000  0.08403670  1.0
  Ni  Ni10  1  0.00000000  0.33333333  0.08403670  1.0
  Ni  Ni11  1  0.00000000  0.66666667  0.08403670  1.0
  Ni  Ni12  1  0.33333333  0.00000000  0.08403670  1.0
  Ni  Ni13  1  0.33333333  0.33333333  0.08403670  1.0
  Ni  Ni14  1  0.33333333  0.66666667  0.08403670  1.0
  Ni  Ni15  1  0.66666667  0.00000000  0.08403670  1.0
  Ni  Ni16  1  0.66666667  0.33333333  0.08403670  1.0
  Ni  Ni17  1  0.66666667  0.66666667  0.08403670  1.0
  Ni  Ni18  1  0.16666667  0.00000000  0.18403670  1.0
  Ni  Ni19  1  0.16666667  0.33333333  0.18403670  1.0
  Ni  Ni20  1  0.16666667  0.66666667  0.18403670  1.0
  Ni  Ni21  1  0.50000000  0.00000000  0.18403670  1.0
  Ni  Ni22  1  0.50000000  0.33333333  0.18403670  1.0
  Ni  Ni23  1  0.50000000  0.66666667  0.18403670  1.0
  Ni  Ni24  1  0.83333333  0.00000000  0.18403670  1.0
  Ni  Ni25  1  0.83333333  0.33333333  0.18403670  1.0
  Ni  Ni26  1  0.83333333  0.66666667  0.18403670  1.0
  Ni  Ni27  1  0.16666667  0.16666667  0.08403670  1.0
  Ni  Ni28  1  0.16666667  0.50000000  0.08403670  1.0
  Ni  Ni29  1  0.16666667  0.83333333  0.08403670  1.0
  Ni  Ni30  1  0.50000000  0.16666667  0.08403670  1.0
  Ni  Ni31  1  0.50000000  0.50000000  0.08403670  1.0
  Ni  Ni32  1  0.50000000  0.83333333  0.08403670  1.0
  Ni  Ni33  1  0.83333333  0.16666667  0.08403670  1.0
  Ni  Ni34  1  0.83333333  0.50000000  0.08403670  1.0
  Ni  Ni35  1  0.83333333  0.83333333  0.08403670  1.0
  Sb  Sb36  1  0.27385333  0.22064233  0.01596330  1.0
  Sb  Sb37  1  0.27385333  0.55397567  0.01596330  1.0
  Sb  Sb38  1  0.27385333  0.88730900  0.01596330  1.0
  Sb  Sb39  1  0.60718667  0.22064233  0.01596330  1.0
  Sb  Sb40  1  0.60718667  0.55397567  0.01596330  1.0
  Sb  Sb41  1  0.60718667  0.88730900  0.01596330  1.0
  Sb  Sb42  1  0.94052000  0.22064233  0.01596330  1.0
  Sb  Sb43  1  0.94052000  0.55397567  0.01596330  1.0
  Sb  Sb44  1  0.94052000  0.88730900  0.01596330  1.0
  Sb  Sb45  1  0.05948000  0.11269100  0.15211010  1.0
  Sb  Sb46  1  0.05948000  0.44602433  0.15211010  1.0
  Sb  Sb47  1  0.05948000  0.77935767  0.15211010  1.0
  Sb  Sb48  1  0.39281333  0.11269100  0.15211010  1.0
  Sb  Sb49  1  0.39281333  0.44602433  0.15211010  1.0
  Sb  Sb50  1  0.39281333  0.77935767  0.15211010  1.0
  Sb  Sb51  1  0.72614667  0.11269100  0.15211010  1.0
  Sb  Sb52  1  0.72614667  0.44602433  0.15211010  1.0
  Sb  Sb53  1  0.72614667  0.77935767  0.15211010  1.0
  Sb  Sb54  1  0.16743133  0.22064233  0.15211010  1.0
  Sb  Sb55  1  0.16743133  0.55397567  0.15211010  1.0
  Sb  Sb56  1  0.16743133  0.88730900  0.15211010  1.0
  Sb  Sb57  1  0.50076467  0.22064233  0.15211010  1.0
  Sb  Sb58  1  0.50076467  0.55397567  0.15211010  1.0
  Sb  Sb59  1  0.50076467  0.88730900  0.15211010  1.0
  Sb  Sb60  1  0.83409800  0.22064233  0.15211010  1.0
  Sb  Sb61  1  0.83409800  0.55397567  0.15211010  1.0
  Sb  Sb62  1  0.83409800  0.88730900  0.15211010  1.0
  Sb  Sb63  1  0.16590200  0.11269100  0.01596330  1.0
  Sb  Sb64  1  0.16590200  0.44602433  0.01596330  1.0
  Sb  Sb65  1  0.16590200  0.77935767  0.01596330  1.0
  Sb  Sb66  1  0.49923533  0.11269100  0.01596330  1.0
  Sb  Sb67  1  0.49923533  0.44602433  0.01596330  1.0
  Sb  Sb68  1  0.49923533  0.77935767  0.01596330  1.0
  Sb  Sb69  1  0.83256867  0.11269100  0.01596330  1.0
  Sb  Sb70  1  0.83256867  0.44602433  0.01596330  1.0
  Sb  Sb71  1  0.83256867  0.77935767  0.01596330  1.0
  Sb  Sb72  1  0.22064233  0.05321100  0.14834870  1.0
  Sb  Sb73  1  0.22064233  0.38654433  0.14834870  1.0
  Sb  Sb74  1  0.22064233  0.71987767  0.14834870  1.0
  Sb  Sb75  1  0.55397567  0.05321100  0.14834870  1.0
  Sb  Sb76  1  0.55397567  0.38654433  0.14834870  1.0
  Sb  Sb77  1  0.55397567  0.71987767  0.14834870  1.0
  Sb  Sb78  1  0.88730900  0.05321100  0.14834870  1.0
  Sb  Sb79  1  0.88730900  0.38654433  0.14834870  1.0
  Sb  Sb80  1  0.88730900  0.71987767  0.14834870  1.0
  Sb  Sb81  1  0.11269100  0.28012233  0.01972470  1.0
  Sb  Sb82  1  0.11269100  0.61345567  0.01972470  1.0
  Sb  Sb83  1  0.11269100  0.94678900  0.01972470  1.0
  Sb  Sb84  1  0.44602433  0.28012233  0.01972470  1.0
  Sb  Sb85  1  0.44602433  0.61345567  0.01972470  1.0
  Sb  Sb86  1  0.44602433  0.94678900  0.01972470  1.0
  Sb  Sb87  1  0.77935767  0.28012233  0.01972470  1.0
  Sb  Sb88  1  0.77935767  0.61345567  0.01972470  1.0
  Sb  Sb89  1  0.77935767  0.94678900  0.01972470  1.0
  Sb  Sb90  1  0.22064233  0.28012233  0.08449550  1.0
  Sb  Sb91  1  0.22064233  0.61345567  0.08449550  1.0
  Sb  Sb92  1  0.22064233  0.94678900  0.08449550  1.0
  Sb  Sb93  1  0.55397567  0.28012233  0.08449550  1.0
  Sb  Sb94  1  0.55397567  0.61345567  0.08449550  1.0
  Sb  Sb95  1  0.55397567  0.94678900  0.08449550  1.0
  Sb  Sb96  1  0.88730900  0.28012233  0.08449550  1.0
  Sb  Sb97  1  0.88730900  0.61345567  0.08449550  1.0
  Sb  Sb98  1  0.88730900  0.94678900  0.08449550  1.0
  Sb  Sb99  1  0.11269100  0.05321100  0.08357790  1.0
  Sb  Sb100  1  0.11269100  0.38654433  0.08357790  1.0
  Sb  Sb101  1  0.11269100  0.71987767  0.08357790  1.0
  Sb  Sb102  1  0.44602433  0.05321100  0.08357790  1.0
  Sb  Sb103  1  0.44602433  0.38654433  0.08357790  1.0
  Sb  Sb104  1  0.44602433  0.71987767  0.08357790  1.0
  Sb  Sb105  1  0.77935767  0.05321100  0.08357790  1.0
  Sb  Sb106  1  0.77935767  0.38654433  0.08357790  1.0
  Sb  Sb107  1  0.77935767  0.71987767  0.08357790  1.0
  Sb  Sb108  1  0.05321100  0.27385333  0.11642210  1.0
  Sb  Sb109  1  0.05321100  0.60718667  0.11642210  1.0
  Sb  Sb110  1  0.05321100  0.94052000  0.11642210  1.0
  Sb  Sb111  1  0.38654433  0.27385333  0.11642210  1.0
  Sb  Sb112  1  0.38654433  0.60718667  0.11642210  1.0
  Sb  Sb113  1  0.38654433  0.94052000  0.11642210  1.0
  Sb  Sb114  1  0.71987767  0.27385333  0.11642210  1.0
  Sb  Sb115  1  0.71987767  0.60718667  0.11642210  1.0
  Sb  Sb116  1  0.71987767  0.94052000  0.11642210  1.0
  Sb  Sb117  1  0.28012233  0.05948000  0.05165130  1.0
  Sb  Sb118  1  0.28012233  0.39281333  0.05165130  1.0
  Sb  Sb119  1  0.28012233  0.72614667  0.05165130  1.0
  Sb  Sb120  1  0.61345567  0.05948000  0.05165130  1.0
  Sb  Sb121  1  0.61345567  0.39281333  0.05165130  1.0
  Sb  Sb122  1  0.61345567  0.72614667  0.05165130  1.0
  Sb  Sb123  1  0.94678900  0.05948000  0.05165130  1.0
  Sb  Sb124  1  0.94678900  0.39281333  0.05165130  1.0
  Sb  Sb125  1  0.94678900  0.72614667  0.05165130  1.0
  Sb  Sb126  1  0.28012233  0.16743133  0.11642210  1.0
  Sb  Sb127  1  0.28012233  0.50076467  0.11642210  1.0
  Sb  Sb128  1  0.28012233  0.83409800  0.11642210  1.0
  Sb  Sb129  1  0.61345567  0.16743133  0.11642210  1.0
  Sb  Sb130  1  0.61345567  0.50076467  0.11642210  1.0
  Sb  Sb131  1  0.61345567  0.83409800  0.11642210  1.0
  Sb  Sb132  1  0.94678900  0.16743133  0.11642210  1.0
  Sb  Sb133  1  0.94678900  0.50076467  0.11642210  1.0
  Sb  Sb134  1  0.94678900  0.83409800  0.11642210  1.0
  Sb  Sb135  1  0.05321100  0.16590200  0.05165130  1.0
  Sb  Sb136  1  0.05321100  0.49923533  0.05165130  1.0
  Sb  Sb137  1  0.05321100  0.83256867  0.05165130  1.0
  Sb  Sb138  1  0.38654433  0.16590200  0.05165130  1.0
  Sb  Sb139  1  0.38654433  0.49923533  0.05165130  1.0
  Sb  Sb140  1  0.38654433  0.83256867  0.05165130  1.0
  Sb  Sb141  1  0.71987767  0.16590200  0.05165130  1.0
  Sb  Sb142  1  0.71987767  0.49923533  0.05165130  1.0
  Sb  Sb143  1  0.71987767  0.83256867  0.05165130  1.0
  Ni  Ni144  1  0.00000000  0.16666667  0.38403670  1.0
  Ni  Ni145  1  0.00000000  0.50000000  0.38403670  1.0
  Ni  Ni146  1  0.00000000  0.83333333  0.38403670  1.0
  Ni  Ni147  1  0.33333333  0.16666667  0.38403670  1.0
  Ni  Ni148  1  0.33333333  0.50000000  0.38403670  1.0
  Ni  Ni149  1  0.33333333  0.83333333  0.38403670  1.0
  Ni  Ni150  1  0.66666667  0.16666667  0.38403670  1.0
  Ni  Ni151  1  0.66666667  0.50000000  0.38403670  1.0
  Ni  Ni152  1  0.66666667  0.83333333  0.38403670  1.0
  Ni  Ni153  1  0.00000000  0.00000000  0.28403670  1.0
  Ni  Ni154  1  0.00000000  0.33333333  0.28403670  1.0
  Ni  Ni155  1  0.00000000  0.66666667  0.28403670  1.0
  Ni  Ni156  1  0.33333333  0.00000000  0.28403670  1.0
  Ni  Ni157  1  0.33333333  0.33333333  0.28403670  1.0
  Ni  Ni158  1  0.33333333  0.66666667  0.28403670  1.0
  Ni  Ni159  1  0.66666667  0.00000000  0.28403670  1.0
  Ni  Ni160  1  0.66666667  0.33333333  0.28403670  1.0
  Ni  Ni161  1  0.66666667  0.66666667  0.28403670  1.0
  Ni  Ni162  1  0.16666667  0.00000000  0.38403670  1.0
  Ni  Ni163  1  0.16666667  0.33333333  0.38403670  1.0
  Ni  Ni164  1  0.16666667  0.66666667  0.38403670  1.0
  Ni  Ni165  1  0.50000000  0.00000000  0.38403670  1.0
  Ni  Ni166  1  0.50000000  0.33333333  0.38403670  1.0
  Ni  Ni167  1  0.50000000  0.66666667  0.38403670  1.0
  Ni  Ni168  1  0.83333333  0.00000000  0.38403670  1.0
  Ni  Ni169  1  0.83333333  0.33333333  0.38403670  1.0
  Ni  Ni170  1  0.83333333  0.66666667  0.38403670  1.0
  Ni  Ni171  1  0.16666667  0.16666667  0.28403670  1.0
  Ni  Ni172  1  0.16666667  0.50000000  0.28403670  1.0
  Ni  Ni173  1  0.16666667  0.83333333  0.28403670  1.0
  Ni  Ni174  1  0.50000000  0.16666667  0.28403670  1.0
  Ni  Ni175  1  0.50000000  0.50000000  0.28403670  1.0
  Ni  Ni176  1  0.50000000  0.83333333  0.28403670  1.0
  Ni  Ni177  1  0.83333333  0.16666667  0.28403670  1.0
  Ni  Ni178  1  0.83333333  0.50000000  0.28403670  1.0
  Ni  Ni179  1  0.83333333  0.83333333  0.28403670  1.0
  Sb  Sb180  1  0.27385333  0.22064233  0.21596330  1.0
  Sb  Sb181  1  0.27385333  0.55397567  0.21596330  1.0
  Sb  Sb182  1  0.27385333  0.88730900  0.21596330  1.0
  Sb  Sb183  1  0.60718667  0.22064233  0.21596330  1.0
  Sb  Sb184  1  0.60718667  0.55397567  0.21596330  1.0
  Sb  Sb185  1  0.60718667  0.88730900  0.21596330  1.0
  Sb  Sb186  1  0.94052000  0.22064233  0.21596330  1.0
  Sb  Sb187  1  0.94052000  0.55397567  0.21596330  1.0
  Sb  Sb188  1  0.94052000  0.88730900  0.21596330  1.0
  Sb  Sb189  1  0.05948000  0.11269100  0.35211010  1.0
  Sb  Sb190  1  0.05948000  0.44602433  0.35211010  1.0
  Sb  Sb191  1  0.05948000  0.77935767  0.35211010  1.0
  Sb  Sb192  1  0.39281333  0.11269100  0.35211010  1.0
  Sb  Sb193  1  0.39281333  0.44602433  0.35211010  1.0
  Sb  Sb194  1  0.39281333  0.77935767  0.35211010  1.0
  Sb  Sb195  1  0.72614667  0.11269100  0.35211010  1.0
  Sb  Sb196  1  0.72614667  0.44602433  0.35211010  1.0
  Sb  Sb197  1  0.72614667  0.77935767  0.35211010  1.0
  Sb  Sb198  1  0.16743133  0.22064233  0.35211010  1.0
  Sb  Sb199  1  0.16743133  0.55397567  0.35211010  1.0
  Sb  Sb200  1  0.16743133  0.88730900  0.35211010  1.0
  Sb  Sb201  1  0.50076467  0.22064233  0.35211010  1.0
  Sb  Sb202  1  0.50076467  0.55397567  0.35211010  1.0
  Sb  Sb203  1  0.50076467  0.88730900  0.35211010  1.0
  Sb  Sb204  1  0.83409800  0.22064233  0.35211010  1.0
  Sb  Sb205  1  0.83409800  0.55397567  0.35211010  1.0
  Sb  Sb206  1  0.83409800  0.88730900  0.35211010  1.0
  Sb  Sb207  1  0.16590200  0.11269100  0.21596330  1.0
  Sb  Sb208  1  0.16590200  0.44602433  0.21596330  1.0
  Sb  Sb209  1  0.16590200  0.77935767  0.21596330  1.0
  Sb  Sb210  1  0.49923533  0.11269100  0.21596330  1.0
  Sb  Sb211  1  0.49923533  0.44602433  0.21596330  1.0
  Sb  Sb212  1  0.49923533  0.77935767  0.21596330  1.0
  Sb  Sb213  1  0.83256867  0.11269100  0.21596330  1.0
  Sb  Sb214  1  0.83256867  0.44602433  0.21596330  1.0
  Sb  Sb215  1  0.83256867  0.77935767  0.21596330  1.0
  Sb  Sb216  1  0.22064233  0.05321100  0.34834870  1.0
  Sb  Sb217  1  0.22064233  0.38654433  0.34834870  1.0
  Sb  Sb218  1  0.22064233  0.71987767  0.34834870  1.0
  Sb  Sb219  1  0.55397567  0.05321100  0.34834870  1.0
  Sb  Sb220  1  0.55397567  0.38654433  0.34834870  1.0
  Sb  Sb221  1  0.55397567  0.71987767  0.34834870  1.0
  Sb  Sb222  1  0.88730900  0.05321100  0.34834870  1.0
  Sb  Sb223  1  0.88730900  0.38654433  0.34834870  1.0
  Sb  Sb224  1  0.88730900  0.71987767  0.34834870  1.0
  Sb  Sb225  1  0.11269100  0.28012233  0.21972470  1.0
  Sb  Sb226  1  0.11269100  0.61345567  0.21972470  1.0
  Sb  Sb227  1  0.11269100  0.94678900  0.21972470  1.0
  Sb  Sb228  1  0.44602433  0.28012233  0.21972470  1.0
  Sb  Sb229  1  0.44602433  0.61345567  0.21972470  1.0
  Sb  Sb230  1  0.44602433  0.94678900  0.21972470  1.0
  Sb  Sb231  1  0.77935767  0.28012233  0.21972470  1.0
  Sb  Sb232  1  0.77935767  0.61345567  0.21972470  1.0
  Sb  Sb233  1  0.77935767  0.94678900  0.21972470  1.0
  Sb  Sb234  1  0.22064233  0.28012233  0.28449550  1.0
  Sb  Sb235  1  0.22064233  0.61345567  0.28449550  1.0
  Sb  Sb236  1  0.22064233  0.94678900  0.28449550  1.0
  Sb  Sb237  1  0.55397567  0.28012233  0.28449550  1.0
  Sb  Sb238  1  0.55397567  0.61345567  0.28449550  1.0
  Sb  Sb239  1  0.55397567  0.94678900  0.28449550  1.0
  Sb  Sb240  1  0.88730900  0.28012233  0.28449550  1.0
  Sb  Sb241  1  0.88730900  0.61345567  0.28449550  1.0
  Sb  Sb242  1  0.88730900  0.94678900  0.28449550  1.0
  Sb  Sb243  1  0.11269100  0.05321100  0.28357790  1.0
  Sb  Sb244  1  0.11269100  0.38654433  0.28357790  1.0
  Sb  Sb245  1  0.11269100  0.71987767  0.28357790  1.0
  Sb  Sb246  1  0.44602433  0.05321100  0.28357790  1.0
  Sb  Sb247  1  0.44602433  0.38654433  0.28357790  1.0
  Sb  Sb248  1  0.44602433  0.71987767  0.28357790  1.0
  Sb  Sb249  1  0.77935767  0.05321100  0.28357790  1.0
  Sb  Sb250  1  0.77935767  0.38654433  0.28357790  1.0
  Sb  Sb251  1  0.77935767  0.71987767  0.28357790  1.0
  Sb  Sb252  1  0.05321100  0.27385333  0.31642210  1.0
  Sb  Sb253  1  0.05321100  0.60718667  0.31642210  1.0
  Sb  Sb254  1  0.05321100  0.94052000  0.31642210  1.0
  Sb  Sb255  1  0.38654433  0.27385333  0.31642210  1.0
  Sb  Sb256  1  0.38654433  0.60718667  0.31642210  1.0
  Sb  Sb257  1  0.38654433  0.94052000  0.31642210  1.0
  Sb  Sb258  1  0.71987767  0.27385333  0.31642210  1.0
  Sb  Sb259  1  0.71987767  0.60718667  0.31642210  1.0
  Sb  Sb260  1  0.71987767  0.94052000  0.31642210  1.0
  Sb  Sb261  1  0.28012233  0.05948000  0.25165130  1.0
  Sb  Sb262  1  0.28012233  0.39281333  0.25165130  1.0
  Sb  Sb263  1  0.28012233  0.72614667  0.25165130  1.0
  Sb  Sb264  1  0.61345567  0.05948000  0.25165130  1.0
  Sb  Sb265  1  0.61345567  0.39281333  0.25165130  1.0
  Sb  Sb266  1  0.61345567  0.72614667  0.25165130  1.0
  Sb  Sb267  1  0.94678900  0.05948000  0.25165130  1.0
  Sb  Sb268  1  0.94678900  0.39281333  0.25165130  1.0
  Sb  Sb269  1  0.94678900  0.72614667  0.25165130  1.0
  Sb  Sb270  1  0.28012233  0.16743133  0.31642210  1.0
  Sb  Sb271  1  0.28012233  0.50076467  0.31642210  1.0
  Sb  Sb272  1  0.28012233  0.83409800  0.31642210  1.0
  Sb  Sb273  1  0.61345567  0.16743133  0.31642210  1.0
  Sb  Sb274  1  0.61345567  0.50076467  0.31642210  1.0
  Sb  Sb275  1  0.61345567  0.83409800  0.31642210  1.0
  Sb  Sb276  1  0.94678900  0.16743133  0.31642210  1.0
  Sb  Sb277  1  0.94678900  0.50076467  0.31642210  1.0
  Sb  Sb278  1  0.94678900  0.83409800  0.31642210  1.0
  Sb  Sb279  1  0.05321100  0.16590200  0.25165130  1.0
  Sb  Sb280  1  0.05321100  0.49923533  0.25165130  1.0
  Sb  Sb281  1  0.05321100  0.83256867  0.25165130  1.0
  Sb  Sb282  1  0.38654433  0.16590200  0.25165130  1.0
  Sb  Sb283  1  0.38654433  0.49923533  0.25165130  1.0
  Sb  Sb284  1  0.38654433  0.83256867  0.25165130  1.0
  Sb  Sb285  1  0.71987767  0.16590200  0.25165130  1.0
  Sb  Sb286  1  0.71987767  0.49923533  0.25165130  1.0
  Sb  Sb287  1  0.71987767  0.83256867  0.25165130  1.0
