# generated using pymatgen
data_NiSb2
_symmetry_space_group_name_H-M   'P 1'
_cell_length_a   24.82815369
_cell_length_b   27.32463038
_cell_length_c   27.88099608
_cell_angle_alpha   97.41481779
_cell_angle_beta   92.79115843
_cell_angle_gamma   98.57253956
_symmetry_Int_Tables_number   1
_chemical_formula_structural   NiSb2
_chemical_formula_sum   'Ni108 Sb216'
_cell_volume   18502.74170201
_cell_formula_units_Z   108
loop_
 _symmetry_equiv_pos_site_id
 _symmetry_equiv_pos_as_xyz
  1  'x, y, z'
loop_
 _atom_site_type_symbol
 _atom_site_label
 _atom_site_symmetry_multiplicity
 _atom_site_fract_x
 _atom_site_fract_y
 _atom_site_fract_z
 _atom_site_occupancy
  Ni  Ni0  1  0.33333333  0.12650629  0.12048112  1.0
  Ni  Ni1  1  0.33333333  0.45983963  0.12048112  1.0
  Ni  Ni2  1  0.33333333  0.79317296  0.12048113  1.0
  Ni  Ni3  1  0.66666667  0.12650629  0.12048112  1.0
  Ni  Ni4  1  0.66666667  0.45983963  0.12048112  1.0
  Ni  Ni5  1  0.66666667  0.79317296  0.12048113  1.0
  Ni  Ni6  1  0.00000000  0.12650629  0.12048112  1.0
  Ni  Ni7  1  0.00000000  0.45983963  0.12048112  1.0
  Ni  Ni8  1  0.00000000  0.79317296  0.12048113  1.0
  Ni  Ni9  1  0.16666667  0.31400629  0.05798113  1.0
  Ni  Ni10  1  0.16666667  0.64733963  0.05798113  1.0
  Ni  Ni11  1  0.16666667  0.98067296  0.05798113  1.0
  Ni  Ni12  1  0.50000000  0.31400629  0.05798113  1.0
  Ni  Ni13  1  0.50000000  0.64733963  0.05798113  1.0
  Ni  Ni14  1  0.50000000  0.98067296  0.05798112  1.0
  Ni  Ni15  1  0.83333333  0.31400629  0.05798113  1.0
  Ni  Ni16  1  0.83333333  0.64733963  0.05798113  1.0
  Ni  Ni17  1  0.83333333  0.98067296  0.05798113  1.0
  Ni  Ni18  1  0.33333333  0.29317296  0.12048113  1.0
  Ni  Ni19  1  0.33333333  0.62650629  0.12048113  1.0
  Ni  Ni20  1  0.33333333  0.95983963  0.12048113  1.0
  Ni  Ni21  1  0.66666667  0.29317296  0.12048113  1.0
  Ni  Ni22  1  0.66666667  0.62650629  0.12048113  1.0
  Ni  Ni23  1  0.66666667  0.95983963  0.12048113  1.0
  Ni  Ni24  1  0.00000000  0.29317296  0.12048113  1.0
  Ni  Ni25  1  0.00000000  0.62650629  0.12048113  1.0
  Ni  Ni26  1  0.00000000  0.95983963  0.12048113  1.0
  Ni  Ni27  1  0.16666667  0.14733963  0.05798112  1.0
  Ni  Ni28  1  0.16666667  0.48067296  0.05798113  1.0
  Ni  Ni29  1  0.16666667  0.81400629  0.05798113  1.0
  Ni  Ni30  1  0.50000000  0.14733963  0.05798112  1.0
  Ni  Ni31  1  0.50000000  0.48067296  0.05798113  1.0
  Ni  Ni32  1  0.50000000  0.81400629  0.05798112  1.0
  Ni  Ni33  1  0.83333333  0.14733963  0.05798112  1.0
  Ni  Ni34  1  0.83333333  0.48067296  0.05798113  1.0
  Ni  Ni35  1  0.83333333  0.81400629  0.05798113  1.0
  Ni  Ni36  1  0.33333333  0.08483963  0.24548113  1.0
  Ni  Ni37  1  0.33333333  0.41817296  0.24548113  1.0
  Ni  Ni38  1  0.33333333  0.75150629  0.24548113  1.0
  Ni  Ni39  1  0.66666667  0.08483963  0.24548113  1.0
  Ni  Ni40  1  0.66666667  0.41817296  0.24548113  1.0
  Ni  Ni41  1  0.66666667  0.75150629  0.24548113  1.0
  Ni  Ni42  1  0.00000000  0.08483963  0.24548113  1.0
  Ni  Ni43  1  0.00000000  0.41817296  0.24548113  1.0
  Ni  Ni44  1  0.00000000  0.75150629  0.24548113  1.0
  Ni  Ni45  1  0.16666667  0.27233963  0.18298113  1.0
  Ni  Ni46  1  0.16666667  0.60567296  0.18298113  1.0
  Ni  Ni47  1  0.16666667  0.93900629  0.18298113  1.0
  Ni  Ni48  1  0.50000000  0.27233963  0.18298113  1.0
  Ni  Ni49  1  0.50000000  0.60567296  0.18298113  1.0
  Ni  Ni50  1  0.50000000  0.93900629  0.18298113  1.0
  Ni  Ni51  1  0.83333333  0.27233963  0.18298113  1.0
  Ni  Ni52  1  0.83333333  0.60567296  0.18298113  1.0
  Ni  Ni53  1  0.83333333  0.93900629  0.18298113  1.0
  Ni  Ni54  1  0.33333333  0.25150629  0.24548113  1.0
  Ni  Ni55  1  0.33333333  0.58483963  0.24548112  1.0
  Ni  Ni56  1  0.33333333  0.91817296  0.24548113  1.0
  Ni  Ni57  1  0.66666667  0.25150629  0.24548113  1.0
  Ni  Ni58  1  0.66666667  0.58483963  0.24548113  1.0
  Ni  Ni59  1  0.66666667  0.91817296  0.24548113  1.0
  Ni  Ni60  1  0.00000000  0.25150629  0.24548113  1.0
  Ni  Ni61  1  0.00000000  0.58483963  0.24548113  1.0
  Ni  Ni62  1  0.00000000  0.91817296  0.24548113  1.0
  Ni  Ni63  1  0.16666667  0.10567296  0.18298112  1.0
  Ni  Ni64  1  0.16666667  0.43900629  0.18298113  1.0
  Ni  Ni65  1  0.16666667  0.77233963  0.18298113  1.0
  Ni  Ni66  1  0.50000000  0.10567296  0.18298113  1.0
  Ni  Ni67  1  0.50000000  0.43900629  0.18298113  1.0
  Ni  Ni68  1  0.50000000  0.77233963  0.18298113  1.0
  Ni  Ni69  1  0.83333333  0.10567296  0.18298113  1.0
  Ni  Ni70  1  0.83333333  0.43900629  0.18298113  1.0
  Ni  Ni71  1  0.83333333  0.77233963  0.18298113  1.0
  Ni  Ni72  1  0.00000000  0.04317296  0.37048113  1.0
  Ni  Ni73  1  0.00000000  0.37650629  0.37048113  1.0
  Ni  Ni74  1  0.00000000  0.70983963  0.37048112  1.0
  Ni  Ni75  1  0.33333333  0.04317296  0.37048113  1.0
  Ni  Ni76  1  0.33333333  0.37650629  0.37048113  1.0
  Ni  Ni77  1  0.33333333  0.70983963  0.37048112  1.0
  Ni  Ni78  1  0.66666667  0.04317296  0.37048112  1.0
  Ni  Ni79  1  0.66666667  0.37650629  0.37048113  1.0
  Ni  Ni80  1  0.66666667  0.70983963  0.37048113  1.0
  Ni  Ni81  1  0.16666667  0.23067296  0.30798113  1.0
  Ni  Ni82  1  0.16666667  0.56400629  0.30798113  1.0
  Ni  Ni83  1  0.16666667  0.89733962  0.30798113  1.0
  Ni  Ni84  1  0.50000000  0.23067296  0.30798113  1.0
  Ni  Ni85  1  0.50000000  0.56400629  0.30798113  1.0
  Ni  Ni86  1  0.50000000  0.89733962  0.30798113  1.0
  Ni  Ni87  1  0.83333333  0.23067296  0.30798113  1.0
  Ni  Ni88  1  0.83333333  0.56400629  0.30798113  1.0
  Ni  Ni89  1  0.83333333  0.89733962  0.30798112  1.0
  Ni  Ni90  1  0.33333333  0.20983963  0.37048113  1.0
  Ni  Ni91  1  0.33333333  0.54317296  0.37048113  1.0
  Ni  Ni92  1  0.33333333  0.87650629  0.37048113  1.0
  Ni  Ni93  1  0.66666667  0.20983963  0.37048113  1.0
  Ni  Ni94  1  0.66666667  0.54317296  0.37048113  1.0
  Ni  Ni95  1  0.66666667  0.87650629  0.37048113  1.0
  Ni  Ni96  1  0.00000000  0.20983963  0.37048113  1.0
  Ni  Ni97  1  0.00000000  0.54317296  0.37048113  1.0
  Ni  Ni98  1  0.00000000  0.87650629  0.37048113  1.0
  Ni  Ni99  1  0.16666667  0.06400629  0.30798113  1.0
  Ni  Ni100  1  0.16666667  0.39733963  0.30798113  1.0
  Ni  Ni101  1  0.16666667  0.73067296  0.30798113  1.0
  Ni  Ni102  1  0.50000000  0.06400629  0.30798113  1.0
  Ni  Ni103  1  0.50000000  0.39733963  0.30798113  1.0
  Ni  Ni104  1  0.50000000  0.73067296  0.30798113  1.0
  Ni  Ni105  1  0.83333333  0.06400629  0.30798113  1.0
  Ni  Ni106  1  0.83333333  0.39733963  0.30798113  1.0
  Ni  Ni107  1  0.83333333  0.73067296  0.30798113  1.0
  Sb  Sb108  1  0.09603600  0.10541821  0.11144338  1.0
  Sb  Sb109  1  0.09603600  0.43875154  0.11144338  1.0
  Sb  Sb110  1  0.09603600  0.77208488  0.11144338  1.0
  Sb  Sb111  1  0.42936933  0.10541821  0.11144338  1.0
  Sb  Sb112  1  0.42936933  0.43875154  0.11144338  1.0
  Sb  Sb113  1  0.42936933  0.77208488  0.11144338  1.0
  Sb  Sb114  1  0.76270267  0.10541821  0.11144338  1.0
  Sb  Sb115  1  0.76270267  0.43875154  0.11144338  1.0
  Sb  Sb116  1  0.76270267  0.77208488  0.11144338  1.0
  Sb  Sb117  1  0.26270267  0.29291821  0.04894337  1.0
  Sb  Sb118  1  0.26270267  0.62625154  0.04894337  1.0
  Sb  Sb119  1  0.26270267  0.95958488  0.04894337  1.0
  Sb  Sb120  1  0.59603600  0.29291821  0.04894337  1.0
  Sb  Sb121  1  0.59603600  0.62625154  0.04894337  1.0
  Sb  Sb122  1  0.59603600  0.95958488  0.04894337  1.0
  Sb  Sb123  1  0.92936933  0.29291821  0.04894337  1.0
  Sb  Sb124  1  0.92936933  0.62625154  0.04894337  1.0
  Sb  Sb125  1  0.92936933  0.95958488  0.04894337  1.0
  Sb  Sb126  1  0.23729733  0.18926104  0.00451887  1.0
  Sb  Sb127  1  0.23729733  0.52259438  0.00451887  1.0
  Sb  Sb128  1  0.23729733  0.85592771  0.00451887  1.0
  Sb  Sb129  1  0.57063067  0.18926104  0.00451887  1.0
  Sb  Sb130  1  0.57063067  0.52259438  0.00451888  1.0
  Sb  Sb131  1  0.57063067  0.85592771  0.00451888  1.0
  Sb  Sb132  1  0.90396400  0.18926104  0.00451887  1.0
  Sb  Sb133  1  0.90396400  0.52259438  0.00451888  1.0
  Sb  Sb134  1  0.90396400  0.85592771  0.00451888  1.0
  Sb  Sb135  1  0.07063067  0.00176104  0.06701888  1.0
  Sb  Sb136  1  0.07063067  0.33509437  0.06701888  1.0
  Sb  Sb137  1  0.07063067  0.66842771  0.06701888  1.0
  Sb  Sb138  1  0.40396400  0.00176104  0.06701888  1.0
  Sb  Sb139  1  0.40396400  0.33509437  0.06701887  1.0
  Sb  Sb140  1  0.40396400  0.66842771  0.06701888  1.0
  Sb  Sb141  1  0.73729733  0.00176104  0.06701888  1.0
  Sb  Sb142  1  0.73729733  0.33509437  0.06701887  1.0
  Sb  Sb143  1  0.73729733  0.66842771  0.06701888  1.0
  Sb  Sb144  1  0.02410067  0.20914146  0.08446763  1.0
  Sb  Sb145  1  0.02410067  0.54247479  0.08446763  1.0
  Sb  Sb146  1  0.02410067  0.87580812  0.08446763  1.0
  Sb  Sb147  1  0.35743400  0.20914146  0.08446763  1.0
  Sb  Sb148  1  0.35743400  0.54247479  0.08446763  1.0
  Sb  Sb149  1  0.35743400  0.87580812  0.08446763  1.0
  Sb  Sb150  1  0.69076733  0.20914146  0.08446763  1.0
  Sb  Sb151  1  0.69076733  0.54247479  0.08446763  1.0
  Sb  Sb152  1  0.69076733  0.87580812  0.08446763  1.0
  Sb  Sb153  1  0.19076733  0.06330812  0.02196762  1.0
  Sb  Sb154  1  0.19076733  0.39664146  0.02196762  1.0
  Sb  Sb155  1  0.19076733  0.72997479  0.02196762  1.0
  Sb  Sb156  1  0.52410067  0.06330812  0.02196762  1.0
  Sb  Sb157  1  0.52410067  0.39664146  0.02196762  1.0
  Sb  Sb158  1  0.52410067  0.72997479  0.02196762  1.0
  Sb  Sb159  1  0.85743400  0.06330812  0.02196762  1.0
  Sb  Sb160  1  0.85743400  0.39664146  0.02196762  1.0
  Sb  Sb161  1  0.85743400  0.72997479  0.02196763  1.0
  Sb  Sb162  1  0.30923267  0.08553779  0.03149463  1.0
  Sb  Sb163  1  0.30923267  0.41887113  0.03149462  1.0
  Sb  Sb164  1  0.30923267  0.75220446  0.03149462  1.0
  Sb  Sb165  1  0.64256600  0.08553779  0.03149463  1.0
  Sb  Sb166  1  0.64256600  0.41887113  0.03149463  1.0
  Sb  Sb167  1  0.64256600  0.75220446  0.03149462  1.0
  Sb  Sb168  1  0.97589933  0.08553779  0.03149463  1.0
  Sb  Sb169  1  0.97589933  0.41887113  0.03149462  1.0
  Sb  Sb170  1  0.97589933  0.75220446  0.03149463  1.0
  Sb  Sb171  1  0.14256600  0.23137113  0.09399462  1.0
  Sb  Sb172  1  0.14256600  0.56470446  0.09399462  1.0
  Sb  Sb173  1  0.14256600  0.89803779  0.09399462  1.0
  Sb  Sb174  1  0.47589933  0.23137113  0.09399462  1.0
  Sb  Sb175  1  0.47589933  0.56470446  0.09399462  1.0
  Sb  Sb176  1  0.47589933  0.89803779  0.09399462  1.0
  Sb  Sb177  1  0.80923267  0.23137113  0.09399462  1.0
  Sb  Sb178  1  0.80923267  0.56470446  0.09399462  1.0
  Sb  Sb179  1  0.80923267  0.89803779  0.09399462  1.0
  Sb  Sb180  1  0.09603600  0.06375154  0.23644338  1.0
  Sb  Sb181  1  0.09603600  0.39708488  0.23644338  1.0
  Sb  Sb182  1  0.09603600  0.73041821  0.23644338  1.0
  Sb  Sb183  1  0.42936933  0.06375154  0.23644338  1.0
  Sb  Sb184  1  0.42936933  0.39708488  0.23644338  1.0
  Sb  Sb185  1  0.42936933  0.73041821  0.23644338  1.0
  Sb  Sb186  1  0.76270267  0.06375154  0.23644338  1.0
  Sb  Sb187  1  0.76270267  0.39708488  0.23644338  1.0
  Sb  Sb188  1  0.76270267  0.73041821  0.23644338  1.0
  Sb  Sb189  1  0.26270267  0.25125154  0.17394338  1.0
  Sb  Sb190  1  0.26270267  0.58458488  0.17394338  1.0
  Sb  Sb191  1  0.26270267  0.91791821  0.17394338  1.0
  Sb  Sb192  1  0.59603600  0.25125154  0.17394338  1.0
  Sb  Sb193  1  0.59603600  0.58458488  0.17394338  1.0
  Sb  Sb194  1  0.59603600  0.91791821  0.17394337  1.0
  Sb  Sb195  1  0.92936933  0.25125154  0.17394338  1.0
  Sb  Sb196  1  0.92936933  0.58458488  0.17394338  1.0
  Sb  Sb197  1  0.92936933  0.91791821  0.17394338  1.0
  Sb  Sb198  1  0.23729733  0.14759437  0.12951888  1.0
  Sb  Sb199  1  0.23729733  0.48092771  0.12951888  1.0
  Sb  Sb200  1  0.23729733  0.81426104  0.12951888  1.0
  Sb  Sb201  1  0.57063067  0.14759437  0.12951887  1.0
  Sb  Sb202  1  0.57063067  0.48092771  0.12951888  1.0
  Sb  Sb203  1  0.57063067  0.81426104  0.12951888  1.0
  Sb  Sb204  1  0.90396400  0.14759437  0.12951888  1.0
  Sb  Sb205  1  0.90396400  0.48092771  0.12951888  1.0
  Sb  Sb206  1  0.90396400  0.81426104  0.12951888  1.0
  Sb  Sb207  1  0.07063067  0.29342771  0.19201888  1.0
  Sb  Sb208  1  0.07063067  0.62676104  0.19201888  1.0
  Sb  Sb209  1  0.07063067  0.96009438  0.19201888  1.0
  Sb  Sb210  1  0.40396400  0.29342771  0.19201888  1.0
  Sb  Sb211  1  0.40396400  0.62676104  0.19201888  1.0
  Sb  Sb212  1  0.40396400  0.96009438  0.19201888  1.0
  Sb  Sb213  1  0.73729733  0.29342771  0.19201888  1.0
  Sb  Sb214  1  0.73729733  0.62676104  0.19201888  1.0
  Sb  Sb215  1  0.73729733  0.96009438  0.19201888  1.0
  Sb  Sb216  1  0.02410067  0.16747479  0.20946762  1.0
  Sb  Sb217  1  0.02410067  0.50080812  0.20946762  1.0
  Sb  Sb218  1  0.02410067  0.83414146  0.20946762  1.0
  Sb  Sb219  1  0.35743400  0.16747479  0.20946762  1.0
  Sb  Sb220  1  0.35743400  0.50080812  0.20946762  1.0
  Sb  Sb221  1  0.35743400  0.83414146  0.20946762  1.0
  Sb  Sb222  1  0.69076733  0.16747479  0.20946762  1.0
  Sb  Sb223  1  0.69076733  0.50080812  0.20946762  1.0
  Sb  Sb224  1  0.69076733  0.83414146  0.20946762  1.0
  Sb  Sb225  1  0.19076733  0.02164146  0.14696762  1.0
  Sb  Sb226  1  0.19076733  0.35497479  0.14696762  1.0
  Sb  Sb227  1  0.19076733  0.68830812  0.14696762  1.0
  Sb  Sb228  1  0.52410067  0.02164146  0.14696762  1.0
  Sb  Sb229  1  0.52410067  0.35497479  0.14696762  1.0
  Sb  Sb230  1  0.52410067  0.68830812  0.14696762  1.0
  Sb  Sb231  1  0.85743400  0.02164146  0.14696762  1.0
  Sb  Sb232  1  0.85743400  0.35497479  0.14696762  1.0
  Sb  Sb233  1  0.85743400  0.68830812  0.14696762  1.0
  Sb  Sb234  1  0.30923267  0.04387113  0.15649462  1.0
  Sb  Sb235  1  0.30923267  0.37720446  0.15649462  1.0
  Sb  Sb236  1  0.30923267  0.71053779  0.15649462  1.0
  Sb  Sb237  1  0.64256600  0.04387113  0.15649462  1.0
  Sb  Sb238  1  0.64256600  0.37720446  0.15649462  1.0
  Sb  Sb239  1  0.64256600  0.71053779  0.15649462  1.0
  Sb  Sb240  1  0.97589933  0.04387113  0.15649462  1.0
  Sb  Sb241  1  0.97589933  0.37720446  0.15649462  1.0
  Sb  Sb242  1  0.97589933  0.71053779  0.15649463  1.0
  Sb  Sb243  1  0.14256600  0.18970446  0.21899462  1.0
  Sb  Sb244  1  0.14256600  0.52303779  0.21899462  1.0
  Sb  Sb245  1  0.14256600  0.85637113  0.21899462  1.0
  Sb  Sb246  1  0.47589933  0.18970446  0.21899462  1.0
  Sb  Sb247  1  0.47589933  0.52303779  0.21899462  1.0
  Sb  Sb248  1  0.47589933  0.85637113  0.21899462  1.0
  Sb  Sb249  1  0.80923267  0.18970446  0.21899462  1.0
  Sb  Sb250  1  0.80923267  0.52303779  0.21899462  1.0
  Sb  Sb251  1  0.80923267  0.85637113  0.21899462  1.0
  Sb  Sb252  1  0.09603600  0.02208488  0.36144338  1.0
  Sb  Sb253  1  0.09603600  0.35541821  0.36144338  1.0
  Sb  Sb254  1  0.09603600  0.68875154  0.36144338  1.0
  Sb  Sb255  1  0.42936933  0.02208488  0.36144338  1.0
  Sb  Sb256  1  0.42936933  0.35541821  0.36144338  1.0
  Sb  Sb257  1  0.42936933  0.68875154  0.36144338  1.0
  Sb  Sb258  1  0.76270267  0.02208488  0.36144338  1.0
  Sb  Sb259  1  0.76270267  0.35541821  0.36144338  1.0
  Sb  Sb260  1  0.76270267  0.68875154  0.36144338  1.0
  Sb  Sb261  1  0.26270267  0.20958487  0.29894338  1.0
  Sb  Sb262  1  0.26270267  0.54291821  0.29894338  1.0
  Sb  Sb263  1  0.26270267  0.87625154  0.29894338  1.0
  Sb  Sb264  1  0.59603600  0.20958487  0.29894338  1.0
  Sb  Sb265  1  0.59603600  0.54291821  0.29894338  1.0
  Sb  Sb266  1  0.59603600  0.87625154  0.29894338  1.0
  Sb  Sb267  1  0.92936933  0.20958487  0.29894338  1.0
  Sb  Sb268  1  0.92936933  0.54291821  0.29894338  1.0
  Sb  Sb269  1  0.92936933  0.87625154  0.29894338  1.0
  Sb  Sb270  1  0.23729733  0.10592771  0.25451888  1.0
  Sb  Sb271  1  0.23729733  0.43926104  0.25451888  1.0
  Sb  Sb272  1  0.23729733  0.77259438  0.25451888  1.0
  Sb  Sb273  1  0.57063067  0.10592771  0.25451888  1.0
  Sb  Sb274  1  0.57063067  0.43926104  0.25451888  1.0
  Sb  Sb275  1  0.57063067  0.77259438  0.25451888  1.0
  Sb  Sb276  1  0.90396400  0.10592771  0.25451888  1.0
  Sb  Sb277  1  0.90396400  0.43926104  0.25451888  1.0
  Sb  Sb278  1  0.90396400  0.77259438  0.25451888  1.0
  Sb  Sb279  1  0.07063067  0.25176104  0.31701888  1.0
  Sb  Sb280  1  0.07063067  0.58509438  0.31701888  1.0
  Sb  Sb281  1  0.07063067  0.91842771  0.31701888  1.0
  Sb  Sb282  1  0.40396400  0.25176104  0.31701888  1.0
  Sb  Sb283  1  0.40396400  0.58509438  0.31701888  1.0
  Sb  Sb284  1  0.40396400  0.91842771  0.31701888  1.0
  Sb  Sb285  1  0.73729733  0.25176104  0.31701888  1.0
  Sb  Sb286  1  0.73729733  0.58509438  0.31701888  1.0
  Sb  Sb287  1  0.73729733  0.91842771  0.31701888  1.0
  Sb  Sb288  1  0.02410067  0.12580812  0.33446762  1.0
  Sb  Sb289  1  0.02410067  0.45914146  0.33446763  1.0
  Sb  Sb290  1  0.02410067  0.79247479  0.33446762  1.0
  Sb  Sb291  1  0.35743400  0.12580812  0.33446762  1.0
  Sb  Sb292  1  0.35743400  0.45914146  0.33446763  1.0
  Sb  Sb293  1  0.35743400  0.79247479  0.33446763  1.0
  Sb  Sb294  1  0.69076733  0.12580812  0.33446763  1.0
  Sb  Sb295  1  0.69076733  0.45914146  0.33446763  1.0
  Sb  Sb296  1  0.69076733  0.79247479  0.33446763  1.0
  Sb  Sb297  1  0.19076733  0.31330812  0.27196762  1.0
  Sb  Sb298  1  0.19076733  0.64664146  0.27196762  1.0
  Sb  Sb299  1  0.19076733  0.97997479  0.27196762  1.0
  Sb  Sb300  1  0.52410067  0.31330812  0.27196762  1.0
  Sb  Sb301  1  0.52410067  0.64664146  0.27196762  1.0
  Sb  Sb302  1  0.52410067  0.97997479  0.27196762  1.0
  Sb  Sb303  1  0.85743400  0.31330812  0.27196762  1.0
  Sb  Sb304  1  0.85743400  0.64664146  0.27196762  1.0
  Sb  Sb305  1  0.85743400  0.97997479  0.27196762  1.0
  Sb  Sb306  1  0.30923267  0.00220446  0.28149462  1.0
  Sb  Sb307  1  0.30923267  0.33553779  0.28149462  1.0
  Sb  Sb308  1  0.30923267  0.66887113  0.28149462  1.0
  Sb  Sb309  1  0.64256600  0.00220446  0.28149462  1.0
  Sb  Sb310  1  0.64256600  0.33553779  0.28149462  1.0
  Sb  Sb311  1  0.64256600  0.66887113  0.28149462  1.0
  Sb  Sb312  1  0.97589933  0.00220446  0.28149462  1.0
  Sb  Sb313  1  0.97589933  0.33553779  0.28149462  1.0
  Sb  Sb314  1  0.97589933  0.66887113  0.28149462  1.0
  Sb  Sb315  1  0.14256600  0.14803779  0.34399463  1.0
  Sb  Sb316  1  0.14256600  0.48137112  0.34399463  1.0
  Sb  Sb317  1  0.14256600  0.81470446  0.34399463  1.0
  Sb  Sb318  1  0.47589933  0.14803779  0.34399462  1.0
  Sb  Sb319  1  0.47589933  0.48137112  0.34399463  1.0
  Sb  Sb320  1  0.47589933  0.81470446  0.34399462  1.0
  Sb  Sb321  1  0.80923267  0.14803779  0.34399462  1.0
  Sb  Sb322  1  0.80923267  0.48137112  0.34399463  1.0
  Sb  Sb323  1  0.80923267  0.81470446  0.34399463  1.0
