# generated using pymatgen
data_NiSb
_symmetry_space_group_name_H-M   'P 1'
_cell_length_a   15.43146000
_cell_length_b   31.45851541
_cell_length_c   39.63400400
_cell_angle_alpha   139.10660535
_cell_angle_beta   90.00000000
_cell_angle_gamma   90.00000000
_symmetry_Int_Tables_number   1
_chemical_formula_structural   NiSb
_chemical_formula_sum   'Ni144 Sb144'
_cell_volume   12595.77218944
_cell_formula_units_Z   144
loop_
 _symmetry_equiv_pos_site_id
 _symmetry_equiv_pos_as_xyz
  1  'x, y, z'
loop_
 _atom_site_type_symbol
 _atom_site_label
 _atom_site_symmetry_multiplicity
 _atom_site_fract_x
 _atom_site_fract_y
 _atom_site_fract_z
 _atom_site_occupancy
  Ni  Ni0  1  0.16666667  0.16666667  0.04166667  1.0
  Ni  Ni1  1  0.16666667  0.50000000  0.04166667  1.0
  Ni  Ni2  1  0.16666667  0.83333333  0.04166667  1.0
  Ni  Ni3  1  0.50000000  0.16666667  0.04166667  1.0
  Ni  Ni4  1  0.50000000  0.50000000  0.04166667  1.0
  Ni  Ni5  1  0.50000000  0.83333333  0.04166667  1.0
  Ni  Ni6  1  0.83333333  0.16666667  0.04166667  1.0
  Ni  Ni7  1  0.83333333  0.50000000  0.04166667  1.0
  Ni  Ni8  1  0.83333333  0.83333333  0.04166667  1.0
  Ni  Ni9  1  0.16666667  0.00000000  0.09166667  1.0
  Ni  Ni10  1  0.16666667  0.33333333  0.09166667  1.0
  Ni  Ni11  1  0.16666667  0.66666667  0.09166667  1.0
  Ni  Ni12  1  0.50000000  0.00000000  0.09166667  1.0
  Ni  Ni13  1  0.50000000  0.33333333  0.09166667  1.0
  Ni  Ni14  1  0.50000000  0.66666667  0.09166667  1.0
  Ni  Ni15  1  0.83333333  0.00000000  0.09166667  1.0
  Ni  Ni16  1  0.83333333  0.33333333  0.09166667  1.0
  Ni  Ni17  1  0.83333333  0.66666667  0.09166667  1.0
  Ni  Ni18  1  0.00000000  0.16666667  0.04166667  1.0
  Ni  Ni19  1  0.00000000  0.50000000  0.04166667  1.0
  Ni  Ni20  1  0.00000000  0.83333333  0.04166667  1.0
  Ni  Ni21  1  0.33333333  0.16666667  0.04166667  1.0
  Ni  Ni22  1  0.33333333  0.50000000  0.04166667  1.0
  Ni  Ni23  1  0.33333333  0.83333333  0.04166667  1.0
  Ni  Ni24  1  0.66666667  0.16666667  0.04166667  1.0
  Ni  Ni25  1  0.66666667  0.50000000  0.04166667  1.0
  Ni  Ni26  1  0.66666667  0.83333333  0.04166667  1.0
  Ni  Ni27  1  0.00000000  0.00000000  0.09166667  1.0
  Ni  Ni28  1  0.00000000  0.33333333  0.09166667  1.0
  Ni  Ni29  1  0.00000000  0.66666667  0.09166667  1.0
  Ni  Ni30  1  0.33333333  0.00000000  0.09166667  1.0
  Ni  Ni31  1  0.33333333  0.33333333  0.09166667  1.0
  Ni  Ni32  1  0.33333333  0.66666667  0.09166667  1.0
  Ni  Ni33  1  0.66666667  0.00000000  0.09166667  1.0
  Ni  Ni34  1  0.66666667  0.33333333  0.09166667  1.0
  Ni  Ni35  1  0.66666667  0.66666667  0.09166667  1.0
  Sb  Sb36  1  0.08333333  0.11111111  0.05833333  1.0
  Sb  Sb37  1  0.08333333  0.44444444  0.05833333  1.0
  Sb  Sb38  1  0.08333333  0.77777778  0.05833333  1.0
  Sb  Sb39  1  0.41666667  0.11111111  0.05833333  1.0
  Sb  Sb40  1  0.41666667  0.44444444  0.05833333  1.0
  Sb  Sb41  1  0.41666667  0.77777778  0.05833333  1.0
  Sb  Sb42  1  0.75000000  0.11111111  0.05833333  1.0
  Sb  Sb43  1  0.75000000  0.44444444  0.05833333  1.0
  Sb  Sb44  1  0.75000000  0.77777778  0.05833333  1.0
  Sb  Sb45  1  0.08333333  0.27777778  0.00833333  1.0
  Sb  Sb46  1  0.08333333  0.61111111  0.00833333  1.0
  Sb  Sb47  1  0.08333333  0.94444444  0.00833333  1.0
  Sb  Sb48  1  0.41666667  0.27777778  0.00833333  1.0
  Sb  Sb49  1  0.41666667  0.61111111  0.00833333  1.0
  Sb  Sb50  1  0.41666667  0.94444444  0.00833333  1.0
  Sb  Sb51  1  0.75000000  0.27777778  0.00833333  1.0
  Sb  Sb52  1  0.75000000  0.61111111  0.00833333  1.0
  Sb  Sb53  1  0.75000000  0.94444444  0.00833333  1.0
  Sb  Sb54  1  0.25000000  0.05555556  0.07500000  1.0
  Sb  Sb55  1  0.25000000  0.38888889  0.07500000  1.0
  Sb  Sb56  1  0.25000000  0.72222222  0.07500000  1.0
  Sb  Sb57  1  0.58333333  0.05555556  0.07500000  1.0
  Sb  Sb58  1  0.58333333  0.38888889  0.07500000  1.0
  Sb  Sb59  1  0.58333333  0.72222222  0.07500000  1.0
  Sb  Sb60  1  0.91666667  0.05555556  0.07500000  1.0
  Sb  Sb61  1  0.91666667  0.38888889  0.07500000  1.0
  Sb  Sb62  1  0.91666667  0.72222222  0.07500000  1.0
  Sb  Sb63  1  0.25000000  0.22222222  0.02500000  1.0
  Sb  Sb64  1  0.25000000  0.55555556  0.02500000  1.0
  Sb  Sb65  1  0.25000000  0.88888889  0.02500000  1.0
  Sb  Sb66  1  0.58333333  0.22222222  0.02500000  1.0
  Sb  Sb67  1  0.58333333  0.55555556  0.02500000  1.0
  Sb  Sb68  1  0.58333333  0.88888889  0.02500000  1.0
  Sb  Sb69  1  0.91666667  0.22222222  0.02500000  1.0
  Sb  Sb70  1  0.91666667  0.55555556  0.02500000  1.0
  Sb  Sb71  1  0.91666667  0.88888889  0.02500000  1.0
  Ni  Ni72  1  0.16666667  0.16666667  0.14166667  1.0
  Ni  Ni73  1  0.16666667  0.50000000  0.14166667  1.0
  Ni  Ni74  1  0.16666667  0.83333333  0.14166667  1.0
  Ni  Ni75  1  0.50000000  0.16666667  0.14166667  1.0
  Ni  Ni76  1  0.50000000  0.50000000  0.14166667  1.0
  Ni  Ni77  1  0.50000000  0.83333333  0.14166667  1.0
  Ni  Ni78  1  0.83333333  0.16666667  0.14166667  1.0
  Ni  Ni79  1  0.83333333  0.50000000  0.14166667  1.0
  Ni  Ni80  1  0.83333333  0.83333333  0.14166667  1.0
  Ni  Ni81  1  0.16666667  0.00000000  0.19166667  1.0
  Ni  Ni82  1  0.16666667  0.33333333  0.19166667  1.0
  Ni  Ni83  1  0.16666667  0.66666667  0.19166667  1.0
  Ni  Ni84  1  0.50000000  0.00000000  0.19166667  1.0
  Ni  Ni85  1  0.50000000  0.33333333  0.19166667  1.0
  Ni  Ni86  1  0.50000000  0.66666667  0.19166667  1.0
  Ni  Ni87  1  0.83333333  0.00000000  0.19166667  1.0
  Ni  Ni88  1  0.83333333  0.33333333  0.19166667  1.0
  Ni  Ni89  1  0.83333333  0.66666667  0.19166667  1.0
  Ni  Ni90  1  0.00000000  0.16666667  0.14166667  1.0
  Ni  Ni91  1  0.00000000  0.50000000  0.14166667  1.0
  Ni  Ni92  1  0.00000000  0.83333333  0.14166667  1.0
  Ni  Ni93  1  0.33333333  0.16666667  0.14166667  1.0
  Ni  Ni94  1  0.33333333  0.50000000  0.14166667  1.0
  Ni  Ni95  1  0.33333333  0.83333333  0.14166667  1.0
  Ni  Ni96  1  0.66666667  0.16666667  0.14166667  1.0
  Ni  Ni97  1  0.66666667  0.50000000  0.14166667  1.0
  Ni  Ni98  1  0.66666667  0.83333333  0.14166667  1.0
  Ni  Ni99  1  0.00000000  0.00000000  0.19166667  1.0
  Ni  Ni100  1  0.00000000  0.33333333  0.19166667  1.0
  Ni  Ni101  1  0.00000000  0.66666667  0.19166667  1.0
  Ni  Ni102  1  0.33333333  0.00000000  0.19166667  1.0
  Ni  Ni103  1  0.33333333  0.33333333  0.19166667  1.0
  Ni  Ni104  1  0.33333333  0.66666667  0.19166667  1.0
  Ni  Ni105  1  0.66666667  0.00000000  0.19166667  1.0
  Ni  Ni106  1  0.66666667  0.33333333  0.19166667  1.0
  Ni  Ni107  1  0.66666667  0.66666667  0.19166667  1.0
  Sb  Sb108  1  0.08333333  0.11111111  0.15833333  1.0
  Sb  Sb109  1  0.08333333  0.44444444  0.15833333  1.0
  Sb  Sb110  1  0.08333333  0.77777778  0.15833333  1.0
  Sb  Sb111  1  0.41666667  0.11111111  0.15833333  1.0
  Sb  Sb112  1  0.41666667  0.44444444  0.15833333  1.0
  Sb  Sb113  1  0.41666667  0.77777778  0.15833333  1.0
  Sb  Sb114  1  0.75000000  0.11111111  0.15833333  1.0
  Sb  Sb115  1  0.75000000  0.44444444  0.15833333  1.0
  Sb  Sb116  1  0.75000000  0.77777778  0.15833333  1.0
  Sb  Sb117  1  0.08333333  0.27777778  0.10833333  1.0
  Sb  Sb118  1  0.08333333  0.61111111  0.10833333  1.0
  Sb  Sb119  1  0.08333333  0.94444444  0.10833333  1.0
  Sb  Sb120  1  0.41666667  0.27777778  0.10833333  1.0
  Sb  Sb121  1  0.41666667  0.61111111  0.10833333  1.0
  Sb  Sb122  1  0.41666667  0.94444444  0.10833333  1.0
  Sb  Sb123  1  0.75000000  0.27777778  0.10833333  1.0
  Sb  Sb124  1  0.75000000  0.61111111  0.10833333  1.0
  Sb  Sb125  1  0.75000000  0.94444444  0.10833333  1.0
  Sb  Sb126  1  0.25000000  0.05555556  0.17500000  1.0
  Sb  Sb127  1  0.25000000  0.38888889  0.17500000  1.0
  Sb  Sb128  1  0.25000000  0.72222222  0.17500000  1.0
  Sb  Sb129  1  0.58333333  0.05555556  0.17500000  1.0
  Sb  Sb130  1  0.58333333  0.38888889  0.17500000  1.0
  Sb  Sb131  1  0.58333333  0.72222222  0.17500000  1.0
  Sb  Sb132  1  0.91666667  0.05555556  0.17500000  1.0
  Sb  Sb133  1  0.91666667  0.38888889  0.17500000  1.0
  Sb  Sb134  1  0.91666667  0.72222222  0.17500000  1.0
  Sb  Sb135  1  0.25000000  0.22222222  0.12500000  1.0
  Sb  Sb136  1  0.25000000  0.55555556  0.12500000  1.0
  Sb  Sb137  1  0.25000000  0.88888889  0.12500000  1.0
  Sb  Sb138  1  0.58333333  0.22222222  0.12500000  1.0
  Sb  Sb139  1  0.58333333  0.55555556  0.12500000  1.0
  Sb  Sb140  1  0.58333333  0.88888889  0.12500000  1.0
  Sb  Sb141  1  0.91666667  0.22222222  0.12500000  1.0
  Sb  Sb142  1  0.91666667  0.55555556  0.12500000  1.0
  Sb  Sb143  1  0.91666667  0.88888889  0.12500000  1.0
  Ni  Ni144  1  0.16666667  0.16666667  0.24166667  1.0
  Ni  Ni145  1  0.16666667  0.50000000  0.24166667  1.0
  Ni  Ni146  1  0.16666667  0.83333333  0.24166667  1.0
  Ni  Ni147  1  0.50000000  0.16666667  0.24166667  1.0
  Ni  Ni148  1  0.50000000  0.50000000  0.24166667  1.0
  Ni  Ni149  1  0.50000000  0.83333333  0.24166667  1.0
  Ni  Ni150  1  0.83333333  0.16666667  0.24166667  1.0
  Ni  Ni151  1  0.83333333  0.50000000  0.24166667  1.0
  Ni  Ni152  1  0.83333333  0.83333333  0.24166667  1.0
  Ni  Ni153  1  0.16666667  0.00000000  0.29166667  1.0
  Ni  Ni154  1  0.16666667  0.33333333  0.29166667  1.0
  Ni  Ni155  1  0.16666667  0.66666667  0.29166667  1.0
  Ni  Ni156  1  0.50000000  0.00000000  0.29166667  1.0
  Ni  Ni157  1  0.50000000  0.33333333  0.29166667  1.0
  Ni  Ni158  1  0.50000000  0.66666667  0.29166667  1.0
  Ni  Ni159  1  0.83333333  0.00000000  0.29166667  1.0
  Ni  Ni160  1  0.83333333  0.33333333  0.29166667  1.0
  Ni  Ni161  1  0.83333333  0.66666667  0.29166667  1.0
  Ni  Ni162  1  0.00000000  0.16666667  0.24166667  1.0
  Ni  Ni163  1  0.00000000  0.50000000  0.24166667  1.0
  Ni  Ni164  1  0.00000000  0.83333333  0.24166667  1.0
  Ni  Ni165  1  0.33333333  0.16666667  0.24166667  1.0
  Ni  Ni166  1  0.33333333  0.50000000  0.24166667  1.0
  Ni  Ni167  1  0.33333333  0.83333333  0.24166667  1.0
  Ni  Ni168  1  0.66666667  0.16666667  0.24166667  1.0
  Ni  Ni169  1  0.66666667  0.50000000  0.24166667  1.0
  Ni  Ni170  1  0.66666667  0.83333333  0.24166667  1.0
  Ni  Ni171  1  0.00000000  0.00000000  0.29166667  1.0
  Ni  Ni172  1  0.00000000  0.33333333  0.29166667  1.0
  Ni  Ni173  1  0.00000000  0.66666667  0.29166667  1.0
  Ni  Ni174  1  0.33333333  0.00000000  0.29166667  1.0
  Ni  Ni175  1  0.33333333  0.33333333  0.29166667  1.0
  Ni  Ni176  1  0.33333333  0.66666667  0.29166667  1.0
  Ni  Ni177  1  0.66666667  0.00000000  0.29166667  1.0
  Ni  Ni178  1  0.66666667  0.33333333  0.29166667  1.0
  Ni  Ni179  1  0.66666667  0.66666667  0.29166667  1.0
  Sb  Sb180  1  0.08333333  0.11111111  0.25833333  1.0
  Sb  Sb181  1  0.08333333  0.44444444  0.25833333  1.0
  Sb  Sb182  1  0.08333333  0.77777778  0.25833333  1.0
  Sb  Sb183  1  0.41666667  0.11111111  0.25833333  1.0
  Sb  Sb184  1  0.41666667  0.44444444  0.25833333  1.0
  Sb  Sb185  1  0.41666667  0.77777778  0.25833333  1.0
  Sb  Sb186  1  0.75000000  0.11111111  0.25833333  1.0
  Sb  Sb187  1  0.75000000  0.44444444  0.25833333  1.0
  Sb  Sb188  1  0.75000000  0.77777778  0.25833333  1.0
  Sb  Sb189  1  0.08333333  0.27777778  0.20833333  1.0
  Sb  Sb190  1  0.08333333  0.61111111  0.20833333  1.0
  Sb  Sb191  1  0.08333333  0.94444444  0.20833333  1.0
  Sb  Sb192  1  0.41666667  0.27777778  0.20833333  1.0
  Sb  Sb193  1  0.41666667  0.61111111  0.20833333  1.0
  Sb  Sb194  1  0.41666667  0.94444444  0.20833333  1.0
  Sb  Sb195  1  0.75000000  0.27777778  0.20833333  1.0
  Sb  Sb196  1  0.75000000  0.61111111  0.20833333  1.0
  Sb  Sb197  1  0.75000000  0.94444444  0.20833333  1.0
  Sb  Sb198  1  0.25000000  0.05555556  0.27500000  1.0
  Sb  Sb199  1  0.25000000  0.38888889  0.27500000  1.0
  Sb  Sb200  1  0.25000000  0.72222222  0.27500000  1.0
  Sb  Sb201  1  0.58333333  0.05555556  0.27500000  1.0
  Sb  Sb202  1  0.58333333  0.38888889  0.27500000  1.0
  Sb  Sb203  1  0.58333333  0.72222222  0.27500000  1.0
  Sb  Sb204  1  0.91666667  0.05555556  0.27500000  1.0
  Sb  Sb205  1  0.91666667  0.38888889  0.27500000  1.0
  Sb  Sb206  1  0.91666667  0.72222222  0.27500000  1.0
  Sb  Sb207  1  0.25000000  0.22222222  0.22500000  1.0
  Sb  Sb208  1  0.25000000  0.55555556  0.22500000  1.0
  Sb  Sb209  1  0.25000000  0.88888889  0.22500000  1.0
  Sb  Sb210  1  0.58333333  0.22222222  0.22500000  1.0
  Sb  Sb211  1  0.58333333  0.55555556  0.22500000  1.0
  Sb  Sb212  1  0.58333333  0.88888889  0.22500000  1.0
  Sb  Sb213  1  0.91666667  0.22222222  0.22500000  1.0
  Sb  Sb214  1  0.91666667  0.55555556  0.22500000  1.0
  Sb  Sb215  1  0.91666667  0.88888889  0.22500000  1.0
  Ni  Ni216  1  0.16666667  0.16666667  0.34166667  1.0
  Ni  Ni217  1  0.16666667  0.50000000  0.34166667  1.0
  Ni  Ni218  1  0.16666667  0.83333333  0.34166667  1.0
  Ni  Ni219  1  0.50000000  0.16666667  0.34166667  1.0
  Ni  Ni220  1  0.50000000  0.50000000  0.34166667  1.0
  Ni  Ni221  1  0.50000000  0.83333333  0.34166667  1.0
  Ni  Ni222  1  0.83333333  0.16666667  0.34166667  1.0
  Ni  Ni223  1  0.83333333  0.50000000  0.34166667  1.0
  Ni  Ni224  1  0.83333333  0.83333333  0.34166667  1.0
  Ni  Ni225  1  0.16666667  0.00000000  0.39166667  1.0
  Ni  Ni226  1  0.16666667  0.33333333  0.39166667  1.0
  Ni  Ni227  1  0.16666667  0.66666667  0.39166667  1.0
  Ni  Ni228  1  0.50000000  0.00000000  0.39166667  1.0
  Ni  Ni229  1  0.50000000  0.33333333  0.39166667  1.0
  Ni  Ni230  1  0.50000000  0.66666667  0.39166667  1.0
  Ni  Ni231  1  0.83333333  0.00000000  0.39166667  1.0
  Ni  Ni232  1  0.83333333  0.33333333  0.39166667  1.0
  Ni  Ni233  1  0.83333333  0.66666667  0.39166667  1.0
  Ni  Ni234  1  0.00000000  0.16666667  0.34166667  1.0
  Ni  Ni235  1  0.00000000  0.50000000  0.34166667  1.0
  Ni  Ni236  1  0.00000000  0.83333333  0.34166667  1.0
  Ni  Ni237  1  0.33333333  0.16666667  0.34166667  1.0
  Ni  Ni238  1  0.33333333  0.50000000  0.34166667  1.0
  Ni  Ni239  1  0.33333333  0.83333333  0.34166667  1.0
  Ni  Ni240  1  0.66666667  0.16666667  0.34166667  1.0
  Ni  Ni241  1  0.66666667  0.50000000  0.34166667  1.0
  Ni  Ni242  1  0.66666667  0.83333333  0.34166667  1.0
  Ni  Ni243  1  0.00000000  0.00000000  0.39166667  1.0
  Ni  Ni244  1  0.00000000  0.33333333  0.39166667  1.0
  Ni  Ni245  1  0.00000000  0.66666667  0.39166667  1.0
  Ni  Ni246  1  0.33333333  0.00000000  0.39166667  1.0
  Ni  Ni247  1  0.33333333  0.33333333  0.39166667  1.0
  Ni  Ni248  1  0.33333333  0.66666667  0.39166667  1.0
  Ni  Ni249  1  0.66666667  0.00000000  0.39166667  1.0
  Ni  Ni250  1  0.66666667  0.33333333  0.39166667  1.0
  Ni  Ni251  1  0.66666667  0.66666667  0.39166667  1.0
  Sb  Sb252  1  0.08333333  0.11111111  0.35833333  1.0
  Sb  Sb253  1  0.08333333  0.44444444  0.35833333  1.0
  Sb  Sb254  1  0.08333333  0.77777778  0.35833333  1.0
  Sb  Sb255  1  0.41666667  0.11111111  0.35833333  1.0
  Sb  Sb256  1  0.41666667  0.44444444  0.35833333  1.0
  Sb  Sb257  1  0.41666667  0.77777778  0.35833333  1.0
  Sb  Sb258  1  0.75000000  0.11111111  0.35833333  1.0
  Sb  Sb259  1  0.75000000  0.44444444  0.35833333  1.0
  Sb  Sb260  1  0.75000000  0.77777778  0.35833333  1.0
  Sb  Sb261  1  0.08333333  0.27777778  0.30833333  1.0
  Sb  Sb262  1  0.08333333  0.61111111  0.30833333  1.0
  Sb  Sb263  1  0.08333333  0.94444444  0.30833333  1.0
  Sb  Sb264  1  0.41666667  0.27777778  0.30833333  1.0
  Sb  Sb265  1  0.41666667  0.61111111  0.30833333  1.0
  Sb  Sb266  1  0.41666667  0.94444444  0.30833333  1.0
  Sb  Sb267  1  0.75000000  0.27777778  0.30833333  1.0
  Sb  Sb268  1  0.75000000  0.61111111  0.30833333  1.0
  Sb  Sb269  1  0.75000000  0.94444444  0.30833333  1.0
  Sb  Sb270  1  0.25000000  0.05555556  0.37500000  1.0
  Sb  Sb271  1  0.25000000  0.38888889  0.37500000  1.0
  Sb  Sb272  1  0.25000000  0.72222222  0.37500000  1.0
  Sb  Sb273  1  0.58333333  0.05555556  0.37500000  1.0
  Sb  Sb274  1  0.58333333  0.38888889  0.37500000  1.0
  Sb  Sb275  1  0.58333333  0.72222222  0.37500000  1.0
  Sb  Sb276  1  0.91666667  0.05555556  0.37500000  1.0
  Sb  Sb277  1  0.91666667  0.38888889  0.37500000  1.0
  Sb  Sb278  1  0.91666667  0.72222222  0.37500000  1.0
  Sb  Sb279  1  0.25000000  0.22222222  0.32500000  1.0
  Sb  Sb280  1  0.25000000  0.55555556  0.32500000  1.0
  Sb  Sb281  1  0.25000000  0.88888889  0.32500000  1.0
  Sb  Sb282  1  0.58333333  0.22222222  0.32500000  1.0
  Sb  Sb283  1  0.58333333  0.55555556  0.32500000  1.0
  Sb  Sb284  1  0.58333333  0.88888889  0.32500000  1.0
  Sb  Sb285  1  0.91666667  0.22222222  0.32500000  1.0
  Sb  Sb286  1  0.91666667  0.55555556  0.32500000  1.0
  Sb  Sb287  1  0.91666667  0.88888889  0.32500000  1.0
