# generated using pymatgen
data_NiSb2
_symmetry_space_group_name_H-M   'P 1'
_cell_length_a   11.41044300
_cell_length_b   24.82815369
_cell_length_c   37.45385000
_cell_angle_alpha   130.27898579
_cell_angle_beta   90.00000000
_cell_angle_gamma   90.00000000
_symmetry_Int_Tables_number   1
_chemical_formula_structural   NiSb2
_chemical_formula_sum   'Ni54 Sb108'
_cell_volume   8094.94949463
_cell_formula_units_Z   54
loop_
 _symmetry_equiv_pos_site_id
 _symmetry_equiv_pos_as_xyz
  1  'x, y, z'
loop_
 _atom_site_type_symbol
 _atom_site_label
 _atom_site_symmetry_multiplicity
 _atom_site_fract_x
 _atom_site_fract_y
 _atom_site_fract_z
 _atom_site_occupancy
  Ni  Ni0  1  0.16666667  0.16666667  0.13252829  1.0
  Ni  Ni1  1  0.16666667  0.50000000  0.13252829  1.0
  Ni  Ni2  1  0.16666667  0.83333333  0.13252829  1.0
  Ni  Ni3  1  0.50000000  0.16666667  0.13252829  1.0
  Ni  Ni4  1  0.50000000  0.50000000  0.13252829  1.0
  Ni  Ni5  1  0.50000000  0.83333333  0.13252829  1.0
  Ni  Ni6  1  0.83333333  0.16666667  0.13252829  1.0
  Ni  Ni7  1  0.83333333  0.50000000  0.13252829  1.0
  Ni  Ni8  1  0.83333333  0.83333333  0.13252829  1.0
  Ni  Ni9  1  0.00000000  0.00000000  0.13252829  1.0
  Ni  Ni10  1  0.00000000  0.33333333  0.13252829  1.0
  Ni  Ni11  1  0.00000000  0.66666667  0.13252829  1.0
  Ni  Ni12  1  0.33333333  0.00000000  0.13252829  1.0
  Ni  Ni13  1  0.33333333  0.33333333  0.13252829  1.0
  Ni  Ni14  1  0.33333333  0.66666667  0.13252829  1.0
  Ni  Ni15  1  0.66666667  0.00000000  0.13252829  1.0
  Ni  Ni16  1  0.66666667  0.33333333  0.13252829  1.0
  Ni  Ni17  1  0.66666667  0.66666667  0.13252829  1.0
  Sb  Sb18  1  0.16666667  0.28680333  0.01032886  1.0
  Sb  Sb19  1  0.16666667  0.62013667  0.01032886  1.0
  Sb  Sb20  1  0.16666667  0.95347000  0.01032886  1.0
  Sb  Sb21  1  0.50000000  0.28680333  0.01032886  1.0
  Sb  Sb22  1  0.50000000  0.62013667  0.01032886  1.0
  Sb  Sb23  1  0.50000000  0.95347000  0.01032886  1.0
  Sb  Sb24  1  0.83333333  0.28680333  0.01032886  1.0
  Sb  Sb25  1  0.83333333  0.62013667  0.01032886  1.0
  Sb  Sb26  1  0.83333333  0.95347000  0.01032886  1.0
  Sb  Sb27  1  0.16666667  0.04653000  0.11187057  1.0
  Sb  Sb28  1  0.16666667  0.37986333  0.11187057  1.0
  Sb  Sb29  1  0.16666667  0.71319667  0.11187057  1.0
  Sb  Sb30  1  0.50000000  0.04653000  0.11187057  1.0
  Sb  Sb31  1  0.50000000  0.37986333  0.11187057  1.0
  Sb  Sb32  1  0.50000000  0.71319667  0.11187057  1.0
  Sb  Sb33  1  0.83333333  0.04653000  0.11187057  1.0
  Sb  Sb34  1  0.83333333  0.37986333  0.11187057  1.0
  Sb  Sb35  1  0.83333333  0.71319667  0.11187057  1.0
  Sb  Sb36  1  0.00000000  0.12013667  0.07198771  1.0
  Sb  Sb37  1  0.00000000  0.45347000  0.07198771  1.0
  Sb  Sb38  1  0.00000000  0.78680333  0.07198771  1.0
  Sb  Sb39  1  0.33333333  0.12013667  0.07198771  1.0
  Sb  Sb40  1  0.33333333  0.45347000  0.07198771  1.0
  Sb  Sb41  1  0.33333333  0.78680333  0.07198771  1.0
  Sb  Sb42  1  0.66666667  0.12013667  0.07198771  1.0
  Sb  Sb43  1  0.66666667  0.45347000  0.07198771  1.0
  Sb  Sb44  1  0.66666667  0.78680333  0.07198771  1.0
  Sb  Sb45  1  0.00000000  0.21319667  0.05021171  1.0
  Sb  Sb46  1  0.00000000  0.54653000  0.05021171  1.0
  Sb  Sb47  1  0.00000000  0.87986333  0.05021171  1.0
  Sb  Sb48  1  0.33333333  0.21319667  0.05021171  1.0
  Sb  Sb49  1  0.33333333  0.54653000  0.05021171  1.0
  Sb  Sb50  1  0.33333333  0.87986333  0.05021171  1.0
  Sb  Sb51  1  0.66666667  0.21319667  0.05021171  1.0
  Sb  Sb52  1  0.66666667  0.54653000  0.05021171  1.0
  Sb  Sb53  1  0.66666667  0.87986333  0.05021171  1.0
  Ni  Ni54  1  0.16666667  0.16666667  0.27538543  1.0
  Ni  Ni55  1  0.16666667  0.50000000  0.27538543  1.0
  Ni  Ni56  1  0.16666667  0.83333333  0.27538543  1.0
  Ni  Ni57  1  0.50000000  0.16666667  0.27538543  1.0
  Ni  Ni58  1  0.50000000  0.50000000  0.27538543  1.0
  Ni  Ni59  1  0.50000000  0.83333333  0.27538543  1.0
  Ni  Ni60  1  0.83333333  0.16666667  0.27538543  1.0
  Ni  Ni61  1  0.83333333  0.50000000  0.27538543  1.0
  Ni  Ni62  1  0.83333333  0.83333333  0.27538543  1.0
  Ni  Ni63  1  0.00000000  0.00000000  0.27538543  1.0
  Ni  Ni64  1  0.00000000  0.33333333  0.27538543  1.0
  Ni  Ni65  1  0.00000000  0.66666667  0.27538543  1.0
  Ni  Ni66  1  0.33333333  0.00000000  0.27538543  1.0
  Ni  Ni67  1  0.33333333  0.33333333  0.27538543  1.0
  Ni  Ni68  1  0.33333333  0.66666667  0.27538543  1.0
  Ni  Ni69  1  0.66666667  0.00000000  0.27538543  1.0
  Ni  Ni70  1  0.66666667  0.33333333  0.27538543  1.0
  Ni  Ni71  1  0.66666667  0.66666667  0.27538543  1.0
  Sb  Sb72  1  0.16666667  0.28680333  0.15318600  1.0
  Sb  Sb73  1  0.16666667  0.62013667  0.15318600  1.0
  Sb  Sb74  1  0.16666667  0.95347000  0.15318600  1.0
  Sb  Sb75  1  0.50000000  0.28680333  0.15318600  1.0
  Sb  Sb76  1  0.50000000  0.62013667  0.15318600  1.0
  Sb  Sb77  1  0.50000000  0.95347000  0.15318600  1.0
  Sb  Sb78  1  0.83333333  0.28680333  0.15318600  1.0
  Sb  Sb79  1  0.83333333  0.62013667  0.15318600  1.0
  Sb  Sb80  1  0.83333333  0.95347000  0.15318600  1.0
  Sb  Sb81  1  0.16666667  0.04653000  0.25472771  1.0
  Sb  Sb82  1  0.16666667  0.37986333  0.25472771  1.0
  Sb  Sb83  1  0.16666667  0.71319667  0.25472771  1.0
  Sb  Sb84  1  0.50000000  0.04653000  0.25472771  1.0
  Sb  Sb85  1  0.50000000  0.37986333  0.25472771  1.0
  Sb  Sb86  1  0.50000000  0.71319667  0.25472771  1.0
  Sb  Sb87  1  0.83333333  0.04653000  0.25472771  1.0
  Sb  Sb88  1  0.83333333  0.37986333  0.25472771  1.0
  Sb  Sb89  1  0.83333333  0.71319667  0.25472771  1.0
  Sb  Sb90  1  0.00000000  0.12013667  0.21484486  1.0
  Sb  Sb91  1  0.00000000  0.45347000  0.21484486  1.0
  Sb  Sb92  1  0.00000000  0.78680333  0.21484486  1.0
  Sb  Sb93  1  0.33333333  0.12013667  0.21484486  1.0
  Sb  Sb94  1  0.33333333  0.45347000  0.21484486  1.0
  Sb  Sb95  1  0.33333333  0.78680333  0.21484486  1.0
  Sb  Sb96  1  0.66666667  0.12013667  0.21484486  1.0
  Sb  Sb97  1  0.66666667  0.45347000  0.21484486  1.0
  Sb  Sb98  1  0.66666667  0.78680333  0.21484486  1.0
  Sb  Sb99  1  0.00000000  0.21319667  0.19306886  1.0
  Sb  Sb100  1  0.00000000  0.54653000  0.19306886  1.0
  Sb  Sb101  1  0.00000000  0.87986333  0.19306886  1.0
  Sb  Sb102  1  0.33333333  0.21319667  0.19306886  1.0
  Sb  Sb103  1  0.33333333  0.54653000  0.19306886  1.0
  Sb  Sb104  1  0.33333333  0.87986333  0.19306886  1.0
  Sb  Sb105  1  0.66666667  0.21319667  0.19306886  1.0
  Sb  Sb106  1  0.66666667  0.54653000  0.19306886  1.0
  Sb  Sb107  1  0.66666667  0.87986333  0.19306886  1.0
  Ni  Ni108  1  0.16666667  0.16666667  0.41824257  1.0
  Ni  Ni109  1  0.16666667  0.50000000  0.41824257  1.0
  Ni  Ni110  1  0.16666667  0.83333333  0.41824257  1.0
  Ni  Ni111  1  0.50000000  0.16666667  0.41824257  1.0
  Ni  Ni112  1  0.50000000  0.50000000  0.41824257  1.0
  Ni  Ni113  1  0.50000000  0.83333333  0.41824257  1.0
  Ni  Ni114  1  0.83333333  0.16666667  0.41824257  1.0
  Ni  Ni115  1  0.83333333  0.50000000  0.41824257  1.0
  Ni  Ni116  1  0.83333333  0.83333333  0.41824257  1.0
  Ni  Ni117  1  0.00000000  0.00000000  0.41824257  1.0
  Ni  Ni118  1  0.00000000  0.33333333  0.41824257  1.0
  Ni  Ni119  1  0.00000000  0.66666667  0.41824257  1.0
  Ni  Ni120  1  0.33333333  0.00000000  0.41824257  1.0
  Ni  Ni121  1  0.33333333  0.33333333  0.41824257  1.0
  Ni  Ni122  1  0.33333333  0.66666667  0.41824257  1.0
  Ni  Ni123  1  0.66666667  0.00000000  0.41824257  1.0
  Ni  Ni124  1  0.66666667  0.33333333  0.41824257  1.0
  Ni  Ni125  1  0.66666667  0.66666667  0.41824257  1.0
  Sb  Sb126  1  0.16666667  0.28680333  0.29604314  1.0
  Sb  Sb127  1  0.16666667  0.62013667  0.29604314  1.0
  Sb  Sb128  1  0.16666667  0.95347000  0.29604314  1.0
  Sb  Sb129  1  0.50000000  0.28680333  0.29604314  1.0
  Sb  Sb130  1  0.50000000  0.62013667  0.29604314  1.0
  Sb  Sb131  1  0.50000000  0.95347000  0.29604314  1.0
  Sb  Sb132  1  0.83333333  0.28680333  0.29604314  1.0
  Sb  Sb133  1  0.83333333  0.62013667  0.29604314  1.0
  Sb  Sb134  1  0.83333333  0.95347000  0.29604314  1.0
  Sb  Sb135  1  0.16666667  0.04653000  0.39758486  1.0
  Sb  Sb136  1  0.16666667  0.37986333  0.39758486  1.0
  Sb  Sb137  1  0.16666667  0.71319667  0.39758486  1.0
  Sb  Sb138  1  0.50000000  0.04653000  0.39758486  1.0
  Sb  Sb139  1  0.50000000  0.37986333  0.39758486  1.0
  Sb  Sb140  1  0.50000000  0.71319667  0.39758486  1.0
  Sb  Sb141  1  0.83333333  0.04653000  0.39758486  1.0
  Sb  Sb142  1  0.83333333  0.37986333  0.39758486  1.0
  Sb  Sb143  1  0.83333333  0.71319667  0.39758486  1.0
  Sb  Sb144  1  0.00000000  0.12013667  0.35770200  1.0
  Sb  Sb145  1  0.00000000  0.45347000  0.35770200  1.0
  Sb  Sb146  1  0.00000000  0.78680333  0.35770200  1.0
  Sb  Sb147  1  0.33333333  0.12013667  0.35770200  1.0
  Sb  Sb148  1  0.33333333  0.45347000  0.35770200  1.0
  Sb  Sb149  1  0.33333333  0.78680333  0.35770200  1.0
  Sb  Sb150  1  0.66666667  0.12013667  0.35770200  1.0
  Sb  Sb151  1  0.66666667  0.45347000  0.35770200  1.0
  Sb  Sb152  1  0.66666667  0.78680333  0.35770200  1.0
  Sb  Sb153  1  0.00000000  0.21319667  0.33592600  1.0
  Sb  Sb154  1  0.00000000  0.54653000  0.33592600  1.0
  Sb  Sb155  1  0.00000000  0.87986333  0.33592600  1.0
  Sb  Sb156  1  0.33333333  0.21319667  0.33592600  1.0
  Sb  Sb157  1  0.33333333  0.54653000  0.33592600  1.0
  Sb  Sb158  1  0.33333333  0.87986333  0.33592600  1.0
  Sb  Sb159  1  0.66666667  0.21319667  0.33592600  1.0
  Sb  Sb160  1  0.66666667  0.54653000  0.33592600  1.0
  Sb  Sb161  1  0.66666667  0.87986333  0.33592600  1.0
