# generated using pymatgen
data_NiSn
_symmetry_space_group_name_H-M   'P 1'
_cell_length_a   12.40338300
_cell_length_b   76.50776942
_cell_length_c   26.14643500
_cell_angle_alpha   101.83238231
_cell_angle_beta   90.00000000
_cell_angle_gamma   90.00000000
_symmetry_Int_Tables_number   1
_chemical_formula_structural   NiSn
_chemical_formula_sum   'Ni288 Sn288'
_cell_volume   24284.58502928
_cell_formula_units_Z   288
loop_
 _symmetry_equiv_pos_site_id
 _symmetry_equiv_pos_as_xyz
  1  'x, y, z'
loop_
 _atom_site_type_symbol
 _atom_site_label
 _atom_site_symmetry_multiplicity
 _atom_site_fract_x
 _atom_site_fract_y
 _atom_site_fract_z
 _atom_site_occupancy
  Ni  Ni0  1  0.00000000  0.20201167  0.17358480  1.0
  Ni  Ni1  1  0.00000000  0.53534500  0.17358480  1.0
  Ni  Ni2  1  0.00000000  0.86867833  0.17358480  1.0
  Ni  Ni3  1  0.33333333  0.20201167  0.17358480  1.0
  Ni  Ni4  1  0.33333333  0.53534500  0.17358480  1.0
  Ni  Ni5  1  0.33333333  0.86867833  0.17358480  1.0
  Ni  Ni6  1  0.66666667  0.20201167  0.17358480  1.0
  Ni  Ni7  1  0.66666667  0.53534500  0.17358480  1.0
  Ni  Ni8  1  0.66666667  0.86867833  0.17358480  1.0
  Ni  Ni9  1  0.00000000  0.29798833  0.13117080  1.0
  Ni  Ni10  1  0.00000000  0.63132167  0.13117080  1.0
  Ni  Ni11  1  0.00000000  0.96465500  0.13117080  1.0
  Ni  Ni12  1  0.33333333  0.29798833  0.13117080  1.0
  Ni  Ni13  1  0.33333333  0.63132167  0.13117080  1.0
  Ni  Ni14  1  0.33333333  0.96465500  0.13117080  1.0
  Ni  Ni15  1  0.66666667  0.29798833  0.13117080  1.0
  Ni  Ni16  1  0.66666667  0.63132167  0.13117080  1.0
  Ni  Ni17  1  0.66666667  0.96465500  0.13117080  1.0
  Ni  Ni18  1  0.16666667  0.24817967  0.10205800  1.0
  Ni  Ni19  1  0.16666667  0.58151300  0.10205800  1.0
  Ni  Ni20  1  0.16666667  0.91484633  0.10205800  1.0
  Ni  Ni21  1  0.50000000  0.24817967  0.10205800  1.0
  Ni  Ni22  1  0.50000000  0.58151300  0.10205800  1.0
  Ni  Ni23  1  0.50000000  0.91484633  0.10205800  1.0
  Ni  Ni24  1  0.83333333  0.24817967  0.10205800  1.0
  Ni  Ni25  1  0.83333333  0.58151300  0.10205800  1.0
  Ni  Ni26  1  0.83333333  0.91484633  0.10205800  1.0
  Ni  Ni27  1  0.16666667  0.11973500  0.06705220  1.0
  Ni  Ni28  1  0.16666667  0.45306833  0.06705220  1.0
  Ni  Ni29  1  0.16666667  0.78640167  0.06705220  1.0
  Ni  Ni30  1  0.50000000  0.11973500  0.06705220  1.0
  Ni  Ni31  1  0.50000000  0.45306833  0.06705220  1.0
  Ni  Ni32  1  0.50000000  0.78640167  0.06705220  1.0
  Ni  Ni33  1  0.83333333  0.11973500  0.06705220  1.0
  Ni  Ni34  1  0.83333333  0.45306833  0.06705220  1.0
  Ni  Ni35  1  0.83333333  0.78640167  0.06705220  1.0
  Ni  Ni36  1  0.16666667  0.04693167  0.12337020  1.0
  Ni  Ni37  1  0.16666667  0.38026500  0.12337020  1.0
  Ni  Ni38  1  0.16666667  0.71359833  0.12337020  1.0
  Ni  Ni39  1  0.50000000  0.04693167  0.12337020  1.0
  Ni  Ni40  1  0.50000000  0.38026500  0.12337020  1.0
  Ni  Ni41  1  0.50000000  0.71359833  0.12337020  1.0
  Ni  Ni42  1  0.83333333  0.04693167  0.12337020  1.0
  Ni  Ni43  1  0.83333333  0.38026500  0.12337020  1.0
  Ni  Ni44  1  0.83333333  0.71359833  0.12337020  1.0
  Ni  Ni45  1  0.16666667  0.08151300  0.18727280  1.0
  Ni  Ni46  1  0.16666667  0.41484633  0.18727280  1.0
  Ni  Ni47  1  0.16666667  0.74817967  0.18727280  1.0
  Ni  Ni48  1  0.50000000  0.08151300  0.18727280  1.0
  Ni  Ni49  1  0.50000000  0.41484633  0.18727280  1.0
  Ni  Ni50  1  0.50000000  0.74817967  0.18727280  1.0
  Ni  Ni51  1  0.83333333  0.08151300  0.18727280  1.0
  Ni  Ni52  1  0.83333333  0.41484633  0.18727280  1.0
  Ni  Ni53  1  0.83333333  0.74817967  0.18727280  1.0
  Ni  Ni54  1  0.00000000  0.16666667  0.09575760  1.0
  Ni  Ni55  1  0.00000000  0.50000000  0.09575760  1.0
  Ni  Ni56  1  0.00000000  0.83333333  0.09575760  1.0
  Ni  Ni57  1  0.33333333  0.16666667  0.09575760  1.0
  Ni  Ni58  1  0.33333333  0.50000000  0.09575760  1.0
  Ni  Ni59  1  0.33333333  0.83333333  0.09575760  1.0
  Ni  Ni60  1  0.66666667  0.16666667  0.09575760  1.0
  Ni  Ni61  1  0.66666667  0.50000000  0.09575760  1.0
  Ni  Ni62  1  0.66666667  0.83333333  0.09575760  1.0
  Ni  Ni63  1  0.16666667  0.21359833  0.12446300  1.0
  Ni  Ni64  1  0.16666667  0.54693167  0.12446300  1.0
  Ni  Ni65  1  0.16666667  0.88026500  0.12446300  1.0
  Ni  Ni66  1  0.50000000  0.21359833  0.12446300  1.0
  Ni  Ni67  1  0.50000000  0.54693167  0.12446300  1.0
  Ni  Ni68  1  0.50000000  0.88026500  0.12446300  1.0
  Ni  Ni69  1  0.83333333  0.21359833  0.12446300  1.0
  Ni  Ni70  1  0.83333333  0.54693167  0.12446300  1.0
  Ni  Ni71  1  0.83333333  0.88026500  0.12446300  1.0
  Ni  Ni72  1  0.16666667  0.08515367  0.08945720  1.0
  Ni  Ni73  1  0.16666667  0.41848700  0.08945720  1.0
  Ni  Ni74  1  0.16666667  0.75182033  0.08945720  1.0
  Ni  Ni75  1  0.50000000  0.08515367  0.08945720  1.0
  Ni  Ni76  1  0.50000000  0.41848700  0.08945720  1.0
  Ni  Ni77  1  0.50000000  0.75182033  0.08945720  1.0
  Ni  Ni78  1  0.83333333  0.08515367  0.08945720  1.0
  Ni  Ni79  1  0.83333333  0.41848700  0.08945720  1.0
  Ni  Ni80  1  0.83333333  0.75182033  0.08945720  1.0
  Ni  Ni81  1  0.00000000  0.03534500  0.06034440  1.0
  Ni  Ni82  1  0.00000000  0.36867833  0.06034440  1.0
  Ni  Ni83  1  0.00000000  0.70201167  0.06034440  1.0
  Ni  Ni84  1  0.33333333  0.03534500  0.06034440  1.0
  Ni  Ni85  1  0.33333333  0.36867833  0.06034440  1.0
  Ni  Ni86  1  0.33333333  0.70201167  0.06034440  1.0
  Ni  Ni87  1  0.66666667  0.03534500  0.06034440  1.0
  Ni  Ni88  1  0.66666667  0.36867833  0.06034440  1.0
  Ni  Ni89  1  0.66666667  0.70201167  0.06034440  1.0
  Ni  Ni90  1  0.16666667  0.25182033  0.00424240  1.0
  Ni  Ni91  1  0.16666667  0.58515367  0.00424240  1.0
  Ni  Ni92  1  0.16666667  0.91848700  0.00424240  1.0
  Ni  Ni93  1  0.50000000  0.25182033  0.00424240  1.0
  Ni  Ni94  1  0.50000000  0.58515367  0.00424240  1.0
  Ni  Ni95  1  0.50000000  0.91848700  0.00424240  1.0
  Ni  Ni96  1  0.83333333  0.25182033  0.00424240  1.0
  Ni  Ni97  1  0.83333333  0.58515367  0.00424240  1.0
  Ni  Ni98  1  0.83333333  0.91848700  0.00424240  1.0
  Ni  Ni99  1  0.00000000  0.13132167  0.01793040  1.0
  Ni  Ni100  1  0.00000000  0.46465500  0.01793040  1.0
  Ni  Ni101  1  0.00000000  0.79798833  0.01793040  1.0
  Ni  Ni102  1  0.33333333  0.13132167  0.01793040  1.0
  Ni  Ni103  1  0.33333333  0.46465500  0.01793040  1.0
  Ni  Ni104  1  0.33333333  0.79798833  0.01793040  1.0
  Ni  Ni105  1  0.66666667  0.13132167  0.01793040  1.0
  Ni  Ni106  1  0.66666667  0.46465500  0.01793040  1.0
  Ni  Ni107  1  0.66666667  0.79798833  0.01793040  1.0
  Ni  Ni108  1  0.16666667  0.28640167  0.06814500  1.0
  Ni  Ni109  1  0.16666667  0.61973500  0.06814500  1.0
  Ni  Ni110  1  0.16666667  0.95306833  0.06814500  1.0
  Ni  Ni111  1  0.50000000  0.28640167  0.06814500  1.0
  Ni  Ni112  1  0.50000000  0.61973500  0.06814500  1.0
  Ni  Ni113  1  0.50000000  0.95306833  0.06814500  1.0
  Ni  Ni114  1  0.83333333  0.28640167  0.06814500  1.0
  Ni  Ni115  1  0.83333333  0.61973500  0.06814500  1.0
  Ni  Ni116  1  0.83333333  0.95306833  0.06814500  1.0
  Ni  Ni117  1  0.00000000  0.00000000  0.19575760  1.0
  Ni  Ni118  1  0.00000000  0.33333333  0.19575760  1.0
  Ni  Ni119  1  0.00000000  0.66666667  0.19575760  1.0
  Ni  Ni120  1  0.33333333  0.00000000  0.19575760  1.0
  Ni  Ni121  1  0.33333333  0.33333333  0.19575760  1.0
  Ni  Ni122  1  0.33333333  0.66666667  0.19575760  1.0
  Ni  Ni123  1  0.66666667  0.00000000  0.19575760  1.0
  Ni  Ni124  1  0.66666667  0.33333333  0.19575760  1.0
  Ni  Ni125  1  0.66666667  0.66666667  0.19575760  1.0
  Ni  Ni126  1  0.00000000  0.16666667  0.19575760  1.0
  Ni  Ni127  1  0.00000000  0.50000000  0.19575760  1.0
  Ni  Ni128  1  0.00000000  0.83333333  0.19575760  1.0
  Ni  Ni129  1  0.33333333  0.16666667  0.19575760  1.0
  Ni  Ni130  1  0.33333333  0.50000000  0.19575760  1.0
  Ni  Ni131  1  0.33333333  0.83333333  0.19575760  1.0
  Ni  Ni132  1  0.66666667  0.16666667  0.19575760  1.0
  Ni  Ni133  1  0.66666667  0.50000000  0.19575760  1.0
  Ni  Ni134  1  0.66666667  0.83333333  0.19575760  1.0
  Ni  Ni135  1  0.00000000  0.00000000  0.09575760  1.0
  Ni  Ni136  1  0.00000000  0.33333333  0.09575760  1.0
  Ni  Ni137  1  0.00000000  0.66666667  0.09575760  1.0
  Ni  Ni138  1  0.33333333  0.00000000  0.09575760  1.0
  Ni  Ni139  1  0.33333333  0.33333333  0.09575760  1.0
  Ni  Ni140  1  0.33333333  0.66666667  0.09575760  1.0
  Ni  Ni141  1  0.66666667  0.00000000  0.09575760  1.0
  Ni  Ni142  1  0.66666667  0.33333333  0.09575760  1.0
  Ni  Ni143  1  0.66666667  0.66666667  0.09575760  1.0
  Sn  Sn144  1  0.16666667  0.32026433  0.13695540  1.0
  Sn  Sn145  1  0.16666667  0.65359767  0.13695540  1.0
  Sn  Sn146  1  0.16666667  0.98693100  0.13695540  1.0
  Sn  Sn147  1  0.50000000  0.32026433  0.13695540  1.0
  Sn  Sn148  1  0.50000000  0.65359767  0.13695540  1.0
  Sn  Sn149  1  0.50000000  0.98693100  0.13695540  1.0
  Sn  Sn150  1  0.83333333  0.32026433  0.13695540  1.0
  Sn  Sn151  1  0.83333333  0.65359767  0.13695540  1.0
  Sn  Sn152  1  0.83333333  0.98693100  0.13695540  1.0
  Sn  Sn153  1  0.00000000  0.03009900  0.15830880  1.0
  Sn  Sn154  1  0.00000000  0.36343233  0.15830880  1.0
  Sn  Sn155  1  0.00000000  0.69676567  0.15830880  1.0
  Sn  Sn156  1  0.33333333  0.03009900  0.15830880  1.0
  Sn  Sn157  1  0.33333333  0.36343233  0.15830880  1.0
  Sn  Sn158  1  0.33333333  0.69676567  0.15830880  1.0
  Sn  Sn159  1  0.66666667  0.03009900  0.15830880  1.0
  Sn  Sn160  1  0.66666667  0.36343233  0.15830880  1.0
  Sn  Sn161  1  0.66666667  0.69676567  0.15830880  1.0
  Sn  Sn162  1  0.00000000  0.30323433  0.03320640  1.0
  Sn  Sn163  1  0.00000000  0.63656767  0.03320640  1.0
  Sn  Sn164  1  0.00000000  0.96990100  0.03320640  1.0
  Sn  Sn165  1  0.33333333  0.30323433  0.03320640  1.0
  Sn  Sn166  1  0.33333333  0.63656767  0.03320640  1.0
  Sn  Sn167  1  0.33333333  0.96990100  0.03320640  1.0
  Sn  Sn168  1  0.66666667  0.30323433  0.03320640  1.0
  Sn  Sn169  1  0.66666667  0.63656767  0.03320640  1.0
  Sn  Sn170  1  0.66666667  0.96990100  0.03320640  1.0
  Sn  Sn171  1  0.16666667  0.05361767  0.02775720  1.0
  Sn  Sn172  1  0.16666667  0.38695100  0.02775720  1.0
  Sn  Sn173  1  0.16666667  0.72028433  0.02775720  1.0
  Sn  Sn174  1  0.50000000  0.05361767  0.02775720  1.0
  Sn  Sn175  1  0.50000000  0.38695100  0.02775720  1.0
  Sn  Sn176  1  0.50000000  0.72028433  0.02775720  1.0
  Sn  Sn177  1  0.83333333  0.05361767  0.02775720  1.0
  Sn  Sn178  1  0.83333333  0.38695100  0.02775720  1.0
  Sn  Sn179  1  0.83333333  0.72028433  0.02775720  1.0
  Sn  Sn180  1  0.16666667  0.01306900  0.05455980  1.0
  Sn  Sn181  1  0.16666667  0.34640233  0.05455980  1.0
  Sn  Sn182  1  0.16666667  0.67973567  0.05455980  1.0
  Sn  Sn183  1  0.50000000  0.01306900  0.05455980  1.0
  Sn  Sn184  1  0.50000000  0.34640233  0.05455980  1.0
  Sn  Sn185  1  0.50000000  0.67973567  0.05455980  1.0
  Sn  Sn186  1  0.83333333  0.01306900  0.05455980  1.0
  Sn  Sn187  1  0.83333333  0.34640233  0.05455980  1.0
  Sn  Sn188  1  0.83333333  0.67973567  0.05455980  1.0
  Sn  Sn189  1  0.00000000  0.13656767  0.12219000  1.0
  Sn  Sn190  1  0.00000000  0.46990100  0.12219000  1.0
  Sn  Sn191  1  0.00000000  0.80323433  0.12219000  1.0
  Sn  Sn192  1  0.33333333  0.13656767  0.12219000  1.0
  Sn  Sn193  1  0.33333333  0.46990100  0.12219000  1.0
  Sn  Sn194  1  0.33333333  0.80323433  0.12219000  1.0
  Sn  Sn195  1  0.66666667  0.13656767  0.12219000  1.0
  Sn  Sn196  1  0.66666667  0.46990100  0.12219000  1.0
  Sn  Sn197  1  0.66666667  0.80323433  0.12219000  1.0
  Sn  Sn198  1  0.00000000  0.23666667  0.14834480  1.0
  Sn  Sn199  1  0.00000000  0.57000000  0.14834480  1.0
  Sn  Sn200  1  0.00000000  0.90333333  0.14834480  1.0
  Sn  Sn201  1  0.33333333  0.23666667  0.14834480  1.0
  Sn  Sn202  1  0.33333333  0.57000000  0.14834480  1.0
  Sn  Sn203  1  0.33333333  0.90333333  0.14834480  1.0
  Sn  Sn204  1  0.66666667  0.23666667  0.14834480  1.0
  Sn  Sn205  1  0.66666667  0.57000000  0.14834480  1.0
  Sn  Sn206  1  0.66666667  0.90333333  0.14834480  1.0
  Sn  Sn207  1  0.00000000  0.26333333  0.06434480  1.0
  Sn  Sn208  1  0.00000000  0.59666667  0.06434480  1.0
  Sn  Sn209  1  0.00000000  0.93000000  0.06434480  1.0
  Sn  Sn210  1  0.33333333  0.26333333  0.06434480  1.0
  Sn  Sn211  1  0.33333333  0.59666667  0.06434480  1.0
  Sn  Sn212  1  0.33333333  0.93000000  0.06434480  1.0
  Sn  Sn213  1  0.66666667  0.26333333  0.06434480  1.0
  Sn  Sn214  1  0.66666667  0.59666667  0.06434480  1.0
  Sn  Sn215  1  0.66666667  0.93000000  0.06434480  1.0
  Sn  Sn216  1  0.00000000  0.07000000  0.12717040  1.0
  Sn  Sn217  1  0.00000000  0.40333333  0.12717040  1.0
  Sn  Sn218  1  0.00000000  0.73666667  0.12717040  1.0
  Sn  Sn219  1  0.33333333  0.07000000  0.12717040  1.0
  Sn  Sn220  1  0.33333333  0.40333333  0.12717040  1.0
  Sn  Sn221  1  0.33333333  0.73666667  0.12717040  1.0
  Sn  Sn222  1  0.66666667  0.07000000  0.12717040  1.0
  Sn  Sn223  1  0.66666667  0.40333333  0.12717040  1.0
  Sn  Sn224  1  0.66666667  0.73666667  0.12717040  1.0
  Sn  Sn225  1  0.16666667  0.15359767  0.03887700  1.0
  Sn  Sn226  1  0.16666667  0.48693100  0.03887700  1.0
  Sn  Sn227  1  0.16666667  0.82026433  0.03887700  1.0
  Sn  Sn228  1  0.50000000  0.15359767  0.03887700  1.0
  Sn  Sn229  1  0.50000000  0.48693100  0.03887700  1.0
  Sn  Sn230  1  0.50000000  0.82026433  0.03887700  1.0
  Sn  Sn231  1  0.83333333  0.15359767  0.03887700  1.0
  Sn  Sn232  1  0.83333333  0.48693100  0.03887700  1.0
  Sn  Sn233  1  0.83333333  0.82026433  0.03887700  1.0
  Sn  Sn234  1  0.00000000  0.19676567  0.06932520  1.0
  Sn  Sn235  1  0.00000000  0.53009900  0.06932520  1.0
  Sn  Sn236  1  0.00000000  0.86343233  0.06932520  1.0
  Sn  Sn237  1  0.33333333  0.19676567  0.06932520  1.0
  Sn  Sn238  1  0.33333333  0.53009900  0.06932520  1.0
  Sn  Sn239  1  0.33333333  0.86343233  0.06932520  1.0
  Sn  Sn240  1  0.66666667  0.19676567  0.06932520  1.0
  Sn  Sn241  1  0.66666667  0.53009900  0.06932520  1.0
  Sn  Sn242  1  0.66666667  0.86343233  0.06932520  1.0
  Sn  Sn243  1  0.16666667  0.17973567  0.15263820  1.0
  Sn  Sn244  1  0.16666667  0.51306900  0.15263820  1.0
  Sn  Sn245  1  0.16666667  0.84640233  0.15263820  1.0
  Sn  Sn246  1  0.50000000  0.17973567  0.15263820  1.0
  Sn  Sn247  1  0.50000000  0.51306900  0.15263820  1.0
  Sn  Sn248  1  0.50000000  0.84640233  0.15263820  1.0
  Sn  Sn249  1  0.83333333  0.17973567  0.15263820  1.0
  Sn  Sn250  1  0.83333333  0.51306900  0.15263820  1.0
  Sn  Sn251  1  0.83333333  0.84640233  0.15263820  1.0
  Sn  Sn252  1  0.00000000  0.09666667  0.04317040  1.0
  Sn  Sn253  1  0.00000000  0.43000000  0.04317040  1.0
  Sn  Sn254  1  0.00000000  0.76333333  0.04317040  1.0
  Sn  Sn255  1  0.33333333  0.09666667  0.04317040  1.0
  Sn  Sn256  1  0.33333333  0.43000000  0.04317040  1.0
  Sn  Sn257  1  0.33333333  0.76333333  0.04317040  1.0
  Sn  Sn258  1  0.66666667  0.09666667  0.04317040  1.0
  Sn  Sn259  1  0.66666667  0.43000000  0.04317040  1.0
  Sn  Sn260  1  0.66666667  0.76333333  0.04317040  1.0
  Sn  Sn261  1  0.16666667  0.11304900  0.16341600  1.0
  Sn  Sn262  1  0.16666667  0.44638233  0.16341600  1.0
  Sn  Sn263  1  0.16666667  0.77971567  0.16341600  1.0
  Sn  Sn264  1  0.50000000  0.11304900  0.16341600  1.0
  Sn  Sn265  1  0.50000000  0.44638233  0.16341600  1.0
  Sn  Sn266  1  0.50000000  0.77971567  0.16341600  1.0
  Sn  Sn267  1  0.83333333  0.11304900  0.16341600  1.0
  Sn  Sn268  1  0.83333333  0.44638233  0.16341600  1.0
  Sn  Sn269  1  0.83333333  0.77971567  0.16341600  1.0
  Sn  Sn270  1  0.16666667  0.27971567  0.16375800  1.0
  Sn  Sn271  1  0.16666667  0.61304900  0.16375800  1.0
  Sn  Sn272  1  0.16666667  0.94638233  0.16375800  1.0
  Sn  Sn273  1  0.50000000  0.27971567  0.16375800  1.0
  Sn  Sn274  1  0.50000000  0.61304900  0.16375800  1.0
  Sn  Sn275  1  0.50000000  0.94638233  0.16375800  1.0
  Sn  Sn276  1  0.83333333  0.27971567  0.16375800  1.0
  Sn  Sn277  1  0.83333333  0.61304900  0.16375800  1.0
  Sn  Sn278  1  0.83333333  0.94638233  0.16375800  1.0
  Sn  Sn279  1  0.16666667  0.22028433  0.02809920  1.0
  Sn  Sn280  1  0.16666667  0.55361767  0.02809920  1.0
  Sn  Sn281  1  0.16666667  0.88695100  0.02809920  1.0
  Sn  Sn282  1  0.50000000  0.22028433  0.02809920  1.0
  Sn  Sn283  1  0.50000000  0.55361767  0.02809920  1.0
  Sn  Sn284  1  0.50000000  0.88695100  0.02809920  1.0
  Sn  Sn285  1  0.83333333  0.22028433  0.02809920  1.0
  Sn  Sn286  1  0.83333333  0.55361767  0.02809920  1.0
  Sn  Sn287  1  0.83333333  0.88695100  0.02809920  1.0
  Ni  Ni288  1  0.00000000  0.20201167  0.37358480  1.0
  Ni  Ni289  1  0.00000000  0.53534500  0.37358480  1.0
  Ni  Ni290  1  0.00000000  0.86867833  0.37358480  1.0
  Ni  Ni291  1  0.33333333  0.20201167  0.37358480  1.0
  Ni  Ni292  1  0.33333333  0.53534500  0.37358480  1.0
  Ni  Ni293  1  0.33333333  0.86867833  0.37358480  1.0
  Ni  Ni294  1  0.66666667  0.20201167  0.37358480  1.0
  Ni  Ni295  1  0.66666667  0.53534500  0.37358480  1.0
  Ni  Ni296  1  0.66666667  0.86867833  0.37358480  1.0
  Ni  Ni297  1  0.00000000  0.29798833  0.33117080  1.0
  Ni  Ni298  1  0.00000000  0.63132167  0.33117080  1.0
  Ni  Ni299  1  0.00000000  0.96465500  0.33117080  1.0
  Ni  Ni300  1  0.33333333  0.29798833  0.33117080  1.0
  Ni  Ni301  1  0.33333333  0.63132167  0.33117080  1.0
  Ni  Ni302  1  0.33333333  0.96465500  0.33117080  1.0
  Ni  Ni303  1  0.66666667  0.29798833  0.33117080  1.0
  Ni  Ni304  1  0.66666667  0.63132167  0.33117080  1.0
  Ni  Ni305  1  0.66666667  0.96465500  0.33117080  1.0
  Ni  Ni306  1  0.16666667  0.24817967  0.30205800  1.0
  Ni  Ni307  1  0.16666667  0.58151300  0.30205800  1.0
  Ni  Ni308  1  0.16666667  0.91484633  0.30205800  1.0
  Ni  Ni309  1  0.50000000  0.24817967  0.30205800  1.0
  Ni  Ni310  1  0.50000000  0.58151300  0.30205800  1.0
  Ni  Ni311  1  0.50000000  0.91484633  0.30205800  1.0
  Ni  Ni312  1  0.83333333  0.24817967  0.30205800  1.0
  Ni  Ni313  1  0.83333333  0.58151300  0.30205800  1.0
  Ni  Ni314  1  0.83333333  0.91484633  0.30205800  1.0
  Ni  Ni315  1  0.16666667  0.11973500  0.26705220  1.0
  Ni  Ni316  1  0.16666667  0.45306833  0.26705220  1.0
  Ni  Ni317  1  0.16666667  0.78640167  0.26705220  1.0
  Ni  Ni318  1  0.50000000  0.11973500  0.26705220  1.0
  Ni  Ni319  1  0.50000000  0.45306833  0.26705220  1.0
  Ni  Ni320  1  0.50000000  0.78640167  0.26705220  1.0
  Ni  Ni321  1  0.83333333  0.11973500  0.26705220  1.0
  Ni  Ni322  1  0.83333333  0.45306833  0.26705220  1.0
  Ni  Ni323  1  0.83333333  0.78640167  0.26705220  1.0
  Ni  Ni324  1  0.16666667  0.04693167  0.32337020  1.0
  Ni  Ni325  1  0.16666667  0.38026500  0.32337020  1.0
  Ni  Ni326  1  0.16666667  0.71359833  0.32337020  1.0
  Ni  Ni327  1  0.50000000  0.04693167  0.32337020  1.0
  Ni  Ni328  1  0.50000000  0.38026500  0.32337020  1.0
  Ni  Ni329  1  0.50000000  0.71359833  0.32337020  1.0
  Ni  Ni330  1  0.83333333  0.04693167  0.32337020  1.0
  Ni  Ni331  1  0.83333333  0.38026500  0.32337020  1.0
  Ni  Ni332  1  0.83333333  0.71359833  0.32337020  1.0
  Ni  Ni333  1  0.16666667  0.08151300  0.38727280  1.0
  Ni  Ni334  1  0.16666667  0.41484633  0.38727280  1.0
  Ni  Ni335  1  0.16666667  0.74817967  0.38727280  1.0
  Ni  Ni336  1  0.50000000  0.08151300  0.38727280  1.0
  Ni  Ni337  1  0.50000000  0.41484633  0.38727280  1.0
  Ni  Ni338  1  0.50000000  0.74817967  0.38727280  1.0
  Ni  Ni339  1  0.83333333  0.08151300  0.38727280  1.0
  Ni  Ni340  1  0.83333333  0.41484633  0.38727280  1.0
  Ni  Ni341  1  0.83333333  0.74817967  0.38727280  1.0
  Ni  Ni342  1  0.00000000  0.16666667  0.29575760  1.0
  Ni  Ni343  1  0.00000000  0.50000000  0.29575760  1.0
  Ni  Ni344  1  0.00000000  0.83333333  0.29575760  1.0
  Ni  Ni345  1  0.33333333  0.16666667  0.29575760  1.0
  Ni  Ni346  1  0.33333333  0.50000000  0.29575760  1.0
  Ni  Ni347  1  0.33333333  0.83333333  0.29575760  1.0
  Ni  Ni348  1  0.66666667  0.16666667  0.29575760  1.0
  Ni  Ni349  1  0.66666667  0.50000000  0.29575760  1.0
  Ni  Ni350  1  0.66666667  0.83333333  0.29575760  1.0
  Ni  Ni351  1  0.16666667  0.21359833  0.32446300  1.0
  Ni  Ni352  1  0.16666667  0.54693167  0.32446300  1.0
  Ni  Ni353  1  0.16666667  0.88026500  0.32446300  1.0
  Ni  Ni354  1  0.50000000  0.21359833  0.32446300  1.0
  Ni  Ni355  1  0.50000000  0.54693167  0.32446300  1.0
  Ni  Ni356  1  0.50000000  0.88026500  0.32446300  1.0
  Ni  Ni357  1  0.83333333  0.21359833  0.32446300  1.0
  Ni  Ni358  1  0.83333333  0.54693167  0.32446300  1.0
  Ni  Ni359  1  0.83333333  0.88026500  0.32446300  1.0
  Ni  Ni360  1  0.16666667  0.08515367  0.28945720  1.0
  Ni  Ni361  1  0.16666667  0.41848700  0.28945720  1.0
  Ni  Ni362  1  0.16666667  0.75182033  0.28945720  1.0
  Ni  Ni363  1  0.50000000  0.08515367  0.28945720  1.0
  Ni  Ni364  1  0.50000000  0.41848700  0.28945720  1.0
  Ni  Ni365  1  0.50000000  0.75182033  0.28945720  1.0
  Ni  Ni366  1  0.83333333  0.08515367  0.28945720  1.0
  Ni  Ni367  1  0.83333333  0.41848700  0.28945720  1.0
  Ni  Ni368  1  0.83333333  0.75182033  0.28945720  1.0
  Ni  Ni369  1  0.00000000  0.03534500  0.26034440  1.0
  Ni  Ni370  1  0.00000000  0.36867833  0.26034440  1.0
  Ni  Ni371  1  0.00000000  0.70201167  0.26034440  1.0
  Ni  Ni372  1  0.33333333  0.03534500  0.26034440  1.0
  Ni  Ni373  1  0.33333333  0.36867833  0.26034440  1.0
  Ni  Ni374  1  0.33333333  0.70201167  0.26034440  1.0
  Ni  Ni375  1  0.66666667  0.03534500  0.26034440  1.0
  Ni  Ni376  1  0.66666667  0.36867833  0.26034440  1.0
  Ni  Ni377  1  0.66666667  0.70201167  0.26034440  1.0
  Ni  Ni378  1  0.16666667  0.25182033  0.20424240  1.0
  Ni  Ni379  1  0.16666667  0.58515367  0.20424240  1.0
  Ni  Ni380  1  0.16666667  0.91848700  0.20424240  1.0
  Ni  Ni381  1  0.50000000  0.25182033  0.20424240  1.0
  Ni  Ni382  1  0.50000000  0.58515367  0.20424240  1.0
  Ni  Ni383  1  0.50000000  0.91848700  0.20424240  1.0
  Ni  Ni384  1  0.83333333  0.25182033  0.20424240  1.0
  Ni  Ni385  1  0.83333333  0.58515367  0.20424240  1.0
  Ni  Ni386  1  0.83333333  0.91848700  0.20424240  1.0
  Ni  Ni387  1  0.00000000  0.13132167  0.21793040  1.0
  Ni  Ni388  1  0.00000000  0.46465500  0.21793040  1.0
  Ni  Ni389  1  0.00000000  0.79798833  0.21793040  1.0
  Ni  Ni390  1  0.33333333  0.13132167  0.21793040  1.0
  Ni  Ni391  1  0.33333333  0.46465500  0.21793040  1.0
  Ni  Ni392  1  0.33333333  0.79798833  0.21793040  1.0
  Ni  Ni393  1  0.66666667  0.13132167  0.21793040  1.0
  Ni  Ni394  1  0.66666667  0.46465500  0.21793040  1.0
  Ni  Ni395  1  0.66666667  0.79798833  0.21793040  1.0
  Ni  Ni396  1  0.16666667  0.28640167  0.26814500  1.0
  Ni  Ni397  1  0.16666667  0.61973500  0.26814500  1.0
  Ni  Ni398  1  0.16666667  0.95306833  0.26814500  1.0
  Ni  Ni399  1  0.50000000  0.28640167  0.26814500  1.0
  Ni  Ni400  1  0.50000000  0.61973500  0.26814500  1.0
  Ni  Ni401  1  0.50000000  0.95306833  0.26814500  1.0
  Ni  Ni402  1  0.83333333  0.28640167  0.26814500  1.0
  Ni  Ni403  1  0.83333333  0.61973500  0.26814500  1.0
  Ni  Ni404  1  0.83333333  0.95306833  0.26814500  1.0
  Ni  Ni405  1  0.00000000  0.00000000  0.39575760  1.0
  Ni  Ni406  1  0.00000000  0.33333333  0.39575760  1.0
  Ni  Ni407  1  0.00000000  0.66666667  0.39575760  1.0
  Ni  Ni408  1  0.33333333  0.00000000  0.39575760  1.0
  Ni  Ni409  1  0.33333333  0.33333333  0.39575760  1.0
  Ni  Ni410  1  0.33333333  0.66666667  0.39575760  1.0
  Ni  Ni411  1  0.66666667  0.00000000  0.39575760  1.0
  Ni  Ni412  1  0.66666667  0.33333333  0.39575760  1.0
  Ni  Ni413  1  0.66666667  0.66666667  0.39575760  1.0
  Ni  Ni414  1  0.00000000  0.16666667  0.39575760  1.0
  Ni  Ni415  1  0.00000000  0.50000000  0.39575760  1.0
  Ni  Ni416  1  0.00000000  0.83333333  0.39575760  1.0
  Ni  Ni417  1  0.33333333  0.16666667  0.39575760  1.0
  Ni  Ni418  1  0.33333333  0.50000000  0.39575760  1.0
  Ni  Ni419  1  0.33333333  0.83333333  0.39575760  1.0
  Ni  Ni420  1  0.66666667  0.16666667  0.39575760  1.0
  Ni  Ni421  1  0.66666667  0.50000000  0.39575760  1.0
  Ni  Ni422  1  0.66666667  0.83333333  0.39575760  1.0
  Ni  Ni423  1  0.00000000  0.00000000  0.29575760  1.0
  Ni  Ni424  1  0.00000000  0.33333333  0.29575760  1.0
  Ni  Ni425  1  0.00000000  0.66666667  0.29575760  1.0
  Ni  Ni426  1  0.33333333  0.00000000  0.29575760  1.0
  Ni  Ni427  1  0.33333333  0.33333333  0.29575760  1.0
  Ni  Ni428  1  0.33333333  0.66666667  0.29575760  1.0
  Ni  Ni429  1  0.66666667  0.00000000  0.29575760  1.0
  Ni  Ni430  1  0.66666667  0.33333333  0.29575760  1.0
  Ni  Ni431  1  0.66666667  0.66666667  0.29575760  1.0
  Sn  Sn432  1  0.16666667  0.32026433  0.33695540  1.0
  Sn  Sn433  1  0.16666667  0.65359767  0.33695540  1.0
  Sn  Sn434  1  0.16666667  0.98693100  0.33695540  1.0
  Sn  Sn435  1  0.50000000  0.32026433  0.33695540  1.0
  Sn  Sn436  1  0.50000000  0.65359767  0.33695540  1.0
  Sn  Sn437  1  0.50000000  0.98693100  0.33695540  1.0
  Sn  Sn438  1  0.83333333  0.32026433  0.33695540  1.0
  Sn  Sn439  1  0.83333333  0.65359767  0.33695540  1.0
  Sn  Sn440  1  0.83333333  0.98693100  0.33695540  1.0
  Sn  Sn441  1  0.00000000  0.03009900  0.35830880  1.0
  Sn  Sn442  1  0.00000000  0.36343233  0.35830880  1.0
  Sn  Sn443  1  0.00000000  0.69676567  0.35830880  1.0
  Sn  Sn444  1  0.33333333  0.03009900  0.35830880  1.0
  Sn  Sn445  1  0.33333333  0.36343233  0.35830880  1.0
  Sn  Sn446  1  0.33333333  0.69676567  0.35830880  1.0
  Sn  Sn447  1  0.66666667  0.03009900  0.35830880  1.0
  Sn  Sn448  1  0.66666667  0.36343233  0.35830880  1.0
  Sn  Sn449  1  0.66666667  0.69676567  0.35830880  1.0
  Sn  Sn450  1  0.00000000  0.30323433  0.23320640  1.0
  Sn  Sn451  1  0.00000000  0.63656767  0.23320640  1.0
  Sn  Sn452  1  0.00000000  0.96990100  0.23320640  1.0
  Sn  Sn453  1  0.33333333  0.30323433  0.23320640  1.0
  Sn  Sn454  1  0.33333333  0.63656767  0.23320640  1.0
  Sn  Sn455  1  0.33333333  0.96990100  0.23320640  1.0
  Sn  Sn456  1  0.66666667  0.30323433  0.23320640  1.0
  Sn  Sn457  1  0.66666667  0.63656767  0.23320640  1.0
  Sn  Sn458  1  0.66666667  0.96990100  0.23320640  1.0
  Sn  Sn459  1  0.16666667  0.05361767  0.22775720  1.0
  Sn  Sn460  1  0.16666667  0.38695100  0.22775720  1.0
  Sn  Sn461  1  0.16666667  0.72028433  0.22775720  1.0
  Sn  Sn462  1  0.50000000  0.05361767  0.22775720  1.0
  Sn  Sn463  1  0.50000000  0.38695100  0.22775720  1.0
  Sn  Sn464  1  0.50000000  0.72028433  0.22775720  1.0
  Sn  Sn465  1  0.83333333  0.05361767  0.22775720  1.0
  Sn  Sn466  1  0.83333333  0.38695100  0.22775720  1.0
  Sn  Sn467  1  0.83333333  0.72028433  0.22775720  1.0
  Sn  Sn468  1  0.16666667  0.01306900  0.25455980  1.0
  Sn  Sn469  1  0.16666667  0.34640233  0.25455980  1.0
  Sn  Sn470  1  0.16666667  0.67973567  0.25455980  1.0
  Sn  Sn471  1  0.50000000  0.01306900  0.25455980  1.0
  Sn  Sn472  1  0.50000000  0.34640233  0.25455980  1.0
  Sn  Sn473  1  0.50000000  0.67973567  0.25455980  1.0
  Sn  Sn474  1  0.83333333  0.01306900  0.25455980  1.0
  Sn  Sn475  1  0.83333333  0.34640233  0.25455980  1.0
  Sn  Sn476  1  0.83333333  0.67973567  0.25455980  1.0
  Sn  Sn477  1  0.00000000  0.13656767  0.32219000  1.0
  Sn  Sn478  1  0.00000000  0.46990100  0.32219000  1.0
  Sn  Sn479  1  0.00000000  0.80323433  0.32219000  1.0
  Sn  Sn480  1  0.33333333  0.13656767  0.32219000  1.0
  Sn  Sn481  1  0.33333333  0.46990100  0.32219000  1.0
  Sn  Sn482  1  0.33333333  0.80323433  0.32219000  1.0
  Sn  Sn483  1  0.66666667  0.13656767  0.32219000  1.0
  Sn  Sn484  1  0.66666667  0.46990100  0.32219000  1.0
  Sn  Sn485  1  0.66666667  0.80323433  0.32219000  1.0
  Sn  Sn486  1  0.00000000  0.23666667  0.34834480  1.0
  Sn  Sn487  1  0.00000000  0.57000000  0.34834480  1.0
  Sn  Sn488  1  0.00000000  0.90333333  0.34834480  1.0
  Sn  Sn489  1  0.33333333  0.23666667  0.34834480  1.0
  Sn  Sn490  1  0.33333333  0.57000000  0.34834480  1.0
  Sn  Sn491  1  0.33333333  0.90333333  0.34834480  1.0
  Sn  Sn492  1  0.66666667  0.23666667  0.34834480  1.0
  Sn  Sn493  1  0.66666667  0.57000000  0.34834480  1.0
  Sn  Sn494  1  0.66666667  0.90333333  0.34834480  1.0
  Sn  Sn495  1  0.00000000  0.26333333  0.26434480  1.0
  Sn  Sn496  1  0.00000000  0.59666667  0.26434480  1.0
  Sn  Sn497  1  0.00000000  0.93000000  0.26434480  1.0
  Sn  Sn498  1  0.33333333  0.26333333  0.26434480  1.0
  Sn  Sn499  1  0.33333333  0.59666667  0.26434480  1.0
  Sn  Sn500  1  0.33333333  0.93000000  0.26434480  1.0
  Sn  Sn501  1  0.66666667  0.26333333  0.26434480  1.0
  Sn  Sn502  1  0.66666667  0.59666667  0.26434480  1.0
  Sn  Sn503  1  0.66666667  0.93000000  0.26434480  1.0
  Sn  Sn504  1  0.00000000  0.07000000  0.32717040  1.0
  Sn  Sn505  1  0.00000000  0.40333333  0.32717040  1.0
  Sn  Sn506  1  0.00000000  0.73666667  0.32717040  1.0
  Sn  Sn507  1  0.33333333  0.07000000  0.32717040  1.0
  Sn  Sn508  1  0.33333333  0.40333333  0.32717040  1.0
  Sn  Sn509  1  0.33333333  0.73666667  0.32717040  1.0
  Sn  Sn510  1  0.66666667  0.07000000  0.32717040  1.0
  Sn  Sn511  1  0.66666667  0.40333333  0.32717040  1.0
  Sn  Sn512  1  0.66666667  0.73666667  0.32717040  1.0
  Sn  Sn513  1  0.16666667  0.15359767  0.23887700  1.0
  Sn  Sn514  1  0.16666667  0.48693100  0.23887700  1.0
  Sn  Sn515  1  0.16666667  0.82026433  0.23887700  1.0
  Sn  Sn516  1  0.50000000  0.15359767  0.23887700  1.0
  Sn  Sn517  1  0.50000000  0.48693100  0.23887700  1.0
  Sn  Sn518  1  0.50000000  0.82026433  0.23887700  1.0
  Sn  Sn519  1  0.83333333  0.15359767  0.23887700  1.0
  Sn  Sn520  1  0.83333333  0.48693100  0.23887700  1.0
  Sn  Sn521  1  0.83333333  0.82026433  0.23887700  1.0
  Sn  Sn522  1  0.00000000  0.19676567  0.26932520  1.0
  Sn  Sn523  1  0.00000000  0.53009900  0.26932520  1.0
  Sn  Sn524  1  0.00000000  0.86343233  0.26932520  1.0
  Sn  Sn525  1  0.33333333  0.19676567  0.26932520  1.0
  Sn  Sn526  1  0.33333333  0.53009900  0.26932520  1.0
  Sn  Sn527  1  0.33333333  0.86343233  0.26932520  1.0
  Sn  Sn528  1  0.66666667  0.19676567  0.26932520  1.0
  Sn  Sn529  1  0.66666667  0.53009900  0.26932520  1.0
  Sn  Sn530  1  0.66666667  0.86343233  0.26932520  1.0
  Sn  Sn531  1  0.16666667  0.17973567  0.35263820  1.0
  Sn  Sn532  1  0.16666667  0.51306900  0.35263820  1.0
  Sn  Sn533  1  0.16666667  0.84640233  0.35263820  1.0
  Sn  Sn534  1  0.50000000  0.17973567  0.35263820  1.0
  Sn  Sn535  1  0.50000000  0.51306900  0.35263820  1.0
  Sn  Sn536  1  0.50000000  0.84640233  0.35263820  1.0
  Sn  Sn537  1  0.83333333  0.17973567  0.35263820  1.0
  Sn  Sn538  1  0.83333333  0.51306900  0.35263820  1.0
  Sn  Sn539  1  0.83333333  0.84640233  0.35263820  1.0
  Sn  Sn540  1  0.00000000  0.09666667  0.24317040  1.0
  Sn  Sn541  1  0.00000000  0.43000000  0.24317040  1.0
  Sn  Sn542  1  0.00000000  0.76333333  0.24317040  1.0
  Sn  Sn543  1  0.33333333  0.09666667  0.24317040  1.0
  Sn  Sn544  1  0.33333333  0.43000000  0.24317040  1.0
  Sn  Sn545  1  0.33333333  0.76333333  0.24317040  1.0
  Sn  Sn546  1  0.66666667  0.09666667  0.24317040  1.0
  Sn  Sn547  1  0.66666667  0.43000000  0.24317040  1.0
  Sn  Sn548  1  0.66666667  0.76333333  0.24317040  1.0
  Sn  Sn549  1  0.16666667  0.11304900  0.36341600  1.0
  Sn  Sn550  1  0.16666667  0.44638233  0.36341600  1.0
  Sn  Sn551  1  0.16666667  0.77971567  0.36341600  1.0
  Sn  Sn552  1  0.50000000  0.11304900  0.36341600  1.0
  Sn  Sn553  1  0.50000000  0.44638233  0.36341600  1.0
  Sn  Sn554  1  0.50000000  0.77971567  0.36341600  1.0
  Sn  Sn555  1  0.83333333  0.11304900  0.36341600  1.0
  Sn  Sn556  1  0.83333333  0.44638233  0.36341600  1.0
  Sn  Sn557  1  0.83333333  0.77971567  0.36341600  1.0
  Sn  Sn558  1  0.16666667  0.27971567  0.36375800  1.0
  Sn  Sn559  1  0.16666667  0.61304900  0.36375800  1.0
  Sn  Sn560  1  0.16666667  0.94638233  0.36375800  1.0
  Sn  Sn561  1  0.50000000  0.27971567  0.36375800  1.0
  Sn  Sn562  1  0.50000000  0.61304900  0.36375800  1.0
  Sn  Sn563  1  0.50000000  0.94638233  0.36375800  1.0
  Sn  Sn564  1  0.83333333  0.27971567  0.36375800  1.0
  Sn  Sn565  1  0.83333333  0.61304900  0.36375800  1.0
  Sn  Sn566  1  0.83333333  0.94638233  0.36375800  1.0
  Sn  Sn567  1  0.16666667  0.22028433  0.22809920  1.0
  Sn  Sn568  1  0.16666667  0.55361767  0.22809920  1.0
  Sn  Sn569  1  0.16666667  0.88695100  0.22809920  1.0
  Sn  Sn570  1  0.50000000  0.22028433  0.22809920  1.0
  Sn  Sn571  1  0.50000000  0.55361767  0.22809920  1.0
  Sn  Sn572  1  0.50000000  0.88695100  0.22809920  1.0
  Sn  Sn573  1  0.83333333  0.22028433  0.22809920  1.0
  Sn  Sn574  1  0.83333333  0.55361767  0.22809920  1.0
  Sn  Sn575  1  0.83333333  0.88695100  0.22809920  1.0
