# generated using pymatgen
data_NiSn
_symmetry_space_group_name_H-M   'P 1'
_cell_length_a   12.40338300
_cell_length_b   15.68786100
_cell_length_c   49.92140400
_cell_angle_alpha   90.00000000
_cell_angle_beta   90.00000000
_cell_angle_gamma   90.00000000
_symmetry_Int_Tables_number   1
_chemical_formula_structural   NiSn
_chemical_formula_sum   'Ni144 Sn144'
_cell_volume   9713.83401171
_cell_formula_units_Z   144
loop_
 _symmetry_equiv_pos_site_id
 _symmetry_equiv_pos_as_xyz
  1  'x, y, z'
loop_
 _atom_site_type_symbol
 _atom_site_label
 _atom_site_symmetry_multiplicity
 _atom_site_fract_x
 _atom_site_fract_y
 _atom_site_fract_z
 _atom_site_occupancy
  Ni  Ni0  1  0.00000000  0.23896633  0.18718075  1.0
  Ni  Ni1  1  0.00000000  0.57229967  0.18718075  1.0
  Ni  Ni2  1  0.00000000  0.90563300  0.18718075  1.0
  Ni  Ni3  1  0.33333333  0.23896633  0.18718075  1.0
  Ni  Ni4  1  0.33333333  0.57229967  0.18718075  1.0
  Ni  Ni5  1  0.33333333  0.90563300  0.18718075  1.0
  Ni  Ni6  1  0.66666667  0.23896633  0.18718075  1.0
  Ni  Ni7  1  0.66666667  0.57229967  0.18718075  1.0
  Ni  Ni8  1  0.66666667  0.90563300  0.18718075  1.0
  Ni  Ni9  1  0.00000000  0.07229967  0.04321575  1.0
  Ni  Ni10  1  0.00000000  0.40563300  0.04321575  1.0
  Ni  Ni11  1  0.00000000  0.73896633  0.04321575  1.0
  Ni  Ni12  1  0.33333333  0.07229967  0.04321575  1.0
  Ni  Ni13  1  0.33333333  0.40563300  0.04321575  1.0
  Ni  Ni14  1  0.33333333  0.73896633  0.04321575  1.0
  Ni  Ni15  1  0.66666667  0.07229967  0.04321575  1.0
  Ni  Ni16  1  0.66666667  0.40563300  0.04321575  1.0
  Ni  Ni17  1  0.66666667  0.73896633  0.04321575  1.0
  Ni  Ni18  1  0.16666667  0.07101233  0.11792875  1.0
  Ni  Ni19  1  0.16666667  0.40434567  0.11792875  1.0
  Ni  Ni20  1  0.16666667  0.73767900  0.11792875  1.0
  Ni  Ni21  1  0.50000000  0.07101233  0.11792875  1.0
  Ni  Ni22  1  0.50000000  0.40434567  0.11792875  1.0
  Ni  Ni23  1  0.50000000  0.73767900  0.11792875  1.0
  Ni  Ni24  1  0.83333333  0.07101233  0.11792875  1.0
  Ni  Ni25  1  0.83333333  0.40434567  0.11792875  1.0
  Ni  Ni26  1  0.83333333  0.73767900  0.11792875  1.0
  Ni  Ni27  1  0.16666667  0.00091067  0.31059575  1.0
  Ni  Ni28  1  0.16666667  0.33424400  0.31059575  1.0
  Ni  Ni29  1  0.16666667  0.66757733  0.31059575  1.0
  Ni  Ni30  1  0.50000000  0.00091067  0.31059575  1.0
  Ni  Ni31  1  0.50000000  0.33424400  0.31059575  1.0
  Ni  Ni32  1  0.50000000  0.66757733  0.31059575  1.0
  Ni  Ni33  1  0.83333333  0.00091067  0.31059575  1.0
  Ni  Ni34  1  0.83333333  0.33424400  0.31059575  1.0
  Ni  Ni35  1  0.83333333  0.66757733  0.31059575  1.0
  Ni  Ni36  1  0.16666667  0.16757733  0.41980075  1.0
  Ni  Ni37  1  0.16666667  0.50091067  0.41980075  1.0
  Ni  Ni38  1  0.16666667  0.83424400  0.41980075  1.0
  Ni  Ni39  1  0.50000000  0.16757733  0.41980075  1.0
  Ni  Ni40  1  0.50000000  0.50091067  0.41980075  1.0
  Ni  Ni41  1  0.50000000  0.83424400  0.41980075  1.0
  Ni  Ni42  1  0.83333333  0.16757733  0.41980075  1.0
  Ni  Ni43  1  0.83333333  0.50091067  0.41980075  1.0
  Ni  Ni44  1  0.83333333  0.83424400  0.41980075  1.0
  Ni  Ni45  1  0.16666667  0.09565433  0.36792875  1.0
  Ni  Ni46  1  0.16666667  0.42898767  0.36792875  1.0
  Ni  Ni47  1  0.16666667  0.76232100  0.36792875  1.0
  Ni  Ni48  1  0.50000000  0.09565433  0.36792875  1.0
  Ni  Ni49  1  0.50000000  0.42898767  0.36792875  1.0
  Ni  Ni50  1  0.50000000  0.76232100  0.36792875  1.0
  Ni  Ni51  1  0.83333333  0.09565433  0.36792875  1.0
  Ni  Ni52  1  0.83333333  0.42898767  0.36792875  1.0
  Ni  Ni53  1  0.83333333  0.76232100  0.36792875  1.0
  Ni  Ni54  1  0.00000000  0.00000000  0.24019825  1.0
  Ni  Ni55  1  0.00000000  0.33333333  0.24019825  1.0
  Ni  Ni56  1  0.00000000  0.66666667  0.24019825  1.0
  Ni  Ni57  1  0.33333333  0.00000000  0.24019825  1.0
  Ni  Ni58  1  0.33333333  0.33333333  0.24019825  1.0
  Ni  Ni59  1  0.33333333  0.66666667  0.24019825  1.0
  Ni  Ni60  1  0.66666667  0.00000000  0.24019825  1.0
  Ni  Ni61  1  0.66666667  0.33333333  0.24019825  1.0
  Ni  Ni62  1  0.66666667  0.66666667  0.24019825  1.0
  Ni  Ni63  1  0.16666667  0.33242267  0.16980075  1.0
  Ni  Ni64  1  0.16666667  0.66575600  0.16980075  1.0
  Ni  Ni65  1  0.16666667  0.99908933  0.16980075  1.0
  Ni  Ni66  1  0.50000000  0.33242267  0.16980075  1.0
  Ni  Ni67  1  0.50000000  0.66575600  0.16980075  1.0
  Ni  Ni68  1  0.50000000  0.99908933  0.16980075  1.0
  Ni  Ni69  1  0.83333333  0.33242267  0.16980075  1.0
  Ni  Ni70  1  0.83333333  0.66575600  0.16980075  1.0
  Ni  Ni71  1  0.83333333  0.99908933  0.16980075  1.0
  Ni  Ni72  1  0.16666667  0.26232100  0.36246775  1.0
  Ni  Ni73  1  0.16666667  0.59565433  0.36246775  1.0
  Ni  Ni74  1  0.16666667  0.92898767  0.36246775  1.0
  Ni  Ni75  1  0.50000000  0.26232100  0.36246775  1.0
  Ni  Ni76  1  0.50000000  0.59565433  0.36246775  1.0
  Ni  Ni77  1  0.50000000  0.92898767  0.36246775  1.0
  Ni  Ni78  1  0.83333333  0.26232100  0.36246775  1.0
  Ni  Ni79  1  0.83333333  0.59565433  0.36246775  1.0
  Ni  Ni80  1  0.83333333  0.92898767  0.36246775  1.0
  Ni  Ni81  1  0.00000000  0.26103367  0.43718075  1.0
  Ni  Ni82  1  0.00000000  0.59436700  0.43718075  1.0
  Ni  Ni83  1  0.00000000  0.92770033  0.43718075  1.0
  Ni  Ni84  1  0.33333333  0.26103367  0.43718075  1.0
  Ni  Ni85  1  0.33333333  0.59436700  0.43718075  1.0
  Ni  Ni86  1  0.33333333  0.92770033  0.43718075  1.0
  Ni  Ni87  1  0.66666667  0.26103367  0.43718075  1.0
  Ni  Ni88  1  0.66666667  0.59436700  0.43718075  1.0
  Ni  Ni89  1  0.66666667  0.92770033  0.43718075  1.0
  Ni  Ni90  1  0.16666667  0.23767900  0.11246775  1.0
  Ni  Ni91  1  0.16666667  0.57101233  0.11246775  1.0
  Ni  Ni92  1  0.16666667  0.90434567  0.11246775  1.0
  Ni  Ni93  1  0.50000000  0.23767900  0.11246775  1.0
  Ni  Ni94  1  0.50000000  0.57101233  0.11246775  1.0
  Ni  Ni95  1  0.50000000  0.90434567  0.11246775  1.0
  Ni  Ni96  1  0.83333333  0.23767900  0.11246775  1.0
  Ni  Ni97  1  0.83333333  0.57101233  0.11246775  1.0
  Ni  Ni98  1  0.83333333  0.90434567  0.11246775  1.0
  Ni  Ni99  1  0.00000000  0.09436700  0.29321575  1.0
  Ni  Ni100  1  0.00000000  0.42770033  0.29321575  1.0
  Ni  Ni101  1  0.00000000  0.76103367  0.29321575  1.0
  Ni  Ni102  1  0.33333333  0.09436700  0.29321575  1.0
  Ni  Ni103  1  0.33333333  0.42770033  0.29321575  1.0
  Ni  Ni104  1  0.33333333  0.76103367  0.29321575  1.0
  Ni  Ni105  1  0.66666667  0.09436700  0.29321575  1.0
  Ni  Ni106  1  0.66666667  0.42770033  0.29321575  1.0
  Ni  Ni107  1  0.66666667  0.76103367  0.29321575  1.0
  Ni  Ni108  1  0.16666667  0.16575600  0.06059575  1.0
  Ni  Ni109  1  0.16666667  0.49908933  0.06059575  1.0
  Ni  Ni110  1  0.16666667  0.83242267  0.06059575  1.0
  Ni  Ni111  1  0.50000000  0.16575600  0.06059575  1.0
  Ni  Ni112  1  0.50000000  0.49908933  0.06059575  1.0
  Ni  Ni113  1  0.50000000  0.83242267  0.06059575  1.0
  Ni  Ni114  1  0.83333333  0.16575600  0.06059575  1.0
  Ni  Ni115  1  0.83333333  0.49908933  0.06059575  1.0
  Ni  Ni116  1  0.83333333  0.83242267  0.06059575  1.0
  Ni  Ni117  1  0.00000000  0.00000000  0.49019825  1.0
  Ni  Ni118  1  0.00000000  0.33333333  0.49019825  1.0
  Ni  Ni119  1  0.00000000  0.66666667  0.49019825  1.0
  Ni  Ni120  1  0.33333333  0.00000000  0.49019825  1.0
  Ni  Ni121  1  0.33333333  0.33333333  0.49019825  1.0
  Ni  Ni122  1  0.33333333  0.66666667  0.49019825  1.0
  Ni  Ni123  1  0.66666667  0.00000000  0.49019825  1.0
  Ni  Ni124  1  0.66666667  0.33333333  0.49019825  1.0
  Ni  Ni125  1  0.66666667  0.66666667  0.49019825  1.0
  Ni  Ni126  1  0.00000000  0.16666667  0.24019825  1.0
  Ni  Ni127  1  0.00000000  0.50000000  0.24019825  1.0
  Ni  Ni128  1  0.00000000  0.83333333  0.24019825  1.0
  Ni  Ni129  1  0.33333333  0.16666667  0.24019825  1.0
  Ni  Ni130  1  0.33333333  0.50000000  0.24019825  1.0
  Ni  Ni131  1  0.33333333  0.83333333  0.24019825  1.0
  Ni  Ni132  1  0.66666667  0.16666667  0.24019825  1.0
  Ni  Ni133  1  0.66666667  0.50000000  0.24019825  1.0
  Ni  Ni134  1  0.66666667  0.83333333  0.24019825  1.0
  Ni  Ni135  1  0.00000000  0.16666667  0.49019825  1.0
  Ni  Ni136  1  0.00000000  0.50000000  0.49019825  1.0
  Ni  Ni137  1  0.00000000  0.83333333  0.49019825  1.0
  Ni  Ni138  1  0.33333333  0.16666667  0.49019825  1.0
  Ni  Ni139  1  0.33333333  0.50000000  0.49019825  1.0
  Ni  Ni140  1  0.33333333  0.83333333  0.49019825  1.0
  Ni  Ni141  1  0.66666667  0.16666667  0.49019825  1.0
  Ni  Ni142  1  0.66666667  0.50000000  0.49019825  1.0
  Ni  Ni143  1  0.66666667  0.83333333  0.49019825  1.0
  Sn  Sn144  1  0.16666667  0.08493467  0.00980175  1.0
  Sn  Sn145  1  0.16666667  0.41826800  0.00980175  1.0
  Sn  Sn146  1  0.16666667  0.75160133  0.00980175  1.0
  Sn  Sn147  1  0.50000000  0.08493467  0.00980175  1.0
  Sn  Sn148  1  0.50000000  0.41826800  0.00980175  1.0
  Sn  Sn149  1  0.50000000  0.75160133  0.00980175  1.0
  Sn  Sn150  1  0.83333333  0.08493467  0.00980175  1.0
  Sn  Sn151  1  0.83333333  0.41826800  0.00980175  1.0
  Sn  Sn152  1  0.83333333  0.75160133  0.00980175  1.0
  Sn  Sn153  1  0.00000000  0.09251367  0.44504975  1.0
  Sn  Sn154  1  0.00000000  0.42584700  0.44504975  1.0
  Sn  Sn155  1  0.00000000  0.75918033  0.44504975  1.0
  Sn  Sn156  1  0.33333333  0.09251367  0.44504975  1.0
  Sn  Sn157  1  0.33333333  0.42584700  0.44504975  1.0
  Sn  Sn158  1  0.33333333  0.75918033  0.44504975  1.0
  Sn  Sn159  1  0.66666667  0.09251367  0.44504975  1.0
  Sn  Sn160  1  0.66666667  0.42584700  0.44504975  1.0
  Sn  Sn161  1  0.66666667  0.75918033  0.44504975  1.0
  Sn  Sn162  1  0.00000000  0.24081967  0.03534675  1.0
  Sn  Sn163  1  0.00000000  0.57415300  0.03534675  1.0
  Sn  Sn164  1  0.00000000  0.90748633  0.03534675  1.0
  Sn  Sn165  1  0.33333333  0.24081967  0.03534675  1.0
  Sn  Sn166  1  0.33333333  0.57415300  0.03534675  1.0
  Sn  Sn167  1  0.33333333  0.90748633  0.03534675  1.0
  Sn  Sn168  1  0.66666667  0.24081967  0.03534675  1.0
  Sn  Sn169  1  0.66666667  0.57415300  0.03534675  1.0
  Sn  Sn170  1  0.66666667  0.90748633  0.03534675  1.0
  Sn  Sn171  1  0.16666667  0.00028500  0.40977175  1.0
  Sn  Sn172  1  0.16666667  0.33361833  0.40977175  1.0
  Sn  Sn173  1  0.16666667  0.66695167  0.40977175  1.0
  Sn  Sn174  1  0.50000000  0.00028500  0.40977175  1.0
  Sn  Sn175  1  0.50000000  0.33361833  0.40977175  1.0
  Sn  Sn176  1  0.50000000  0.66695167  0.40977175  1.0
  Sn  Sn177  1  0.83333333  0.00028500  0.40977175  1.0
  Sn  Sn178  1  0.83333333  0.33361833  0.40977175  1.0
  Sn  Sn179  1  0.83333333  0.66695167  0.40977175  1.0
  Sn  Sn180  1  0.16666667  0.24839867  0.47059475  1.0
  Sn  Sn181  1  0.16666667  0.58173200  0.47059475  1.0
  Sn  Sn182  1  0.16666667  0.91506533  0.47059475  1.0
  Sn  Sn183  1  0.50000000  0.24839867  0.47059475  1.0
  Sn  Sn184  1  0.50000000  0.58173200  0.47059475  1.0
  Sn  Sn185  1  0.50000000  0.91506533  0.47059475  1.0
  Sn  Sn186  1  0.83333333  0.24839867  0.47059475  1.0
  Sn  Sn187  1  0.83333333  0.58173200  0.47059475  1.0
  Sn  Sn188  1  0.83333333  0.91506533  0.47059475  1.0
  Sn  Sn189  1  0.00000000  0.25918033  0.28534675  1.0
  Sn  Sn190  1  0.00000000  0.59251367  0.28534675  1.0
  Sn  Sn191  1  0.00000000  0.92584700  0.28534675  1.0
  Sn  Sn192  1  0.33333333  0.25918033  0.28534675  1.0
  Sn  Sn193  1  0.33333333  0.59251367  0.28534675  1.0
  Sn  Sn194  1  0.33333333  0.92584700  0.28534675  1.0
  Sn  Sn195  1  0.66666667  0.25918033  0.28534675  1.0
  Sn  Sn196  1  0.66666667  0.59251367  0.28534675  1.0
  Sn  Sn197  1  0.66666667  0.92584700  0.28534675  1.0
  Sn  Sn198  1  0.00000000  0.31568800  0.13519825  1.0
  Sn  Sn199  1  0.00000000  0.64902133  0.13519825  1.0
  Sn  Sn200  1  0.00000000  0.98235467  0.13519825  1.0
  Sn  Sn201  1  0.33333333  0.31568800  0.13519825  1.0
  Sn  Sn202  1  0.33333333  0.64902133  0.13519825  1.0
  Sn  Sn203  1  0.33333333  0.98235467  0.13519825  1.0
  Sn  Sn204  1  0.66666667  0.31568800  0.13519825  1.0
  Sn  Sn205  1  0.66666667  0.64902133  0.13519825  1.0
  Sn  Sn206  1  0.66666667  0.98235467  0.13519825  1.0
  Sn  Sn207  1  0.00000000  0.14902133  0.09519825  1.0
  Sn  Sn208  1  0.00000000  0.48235467  0.09519825  1.0
  Sn  Sn209  1  0.00000000  0.81568800  0.09519825  1.0
  Sn  Sn210  1  0.33333333  0.14902133  0.09519825  1.0
  Sn  Sn211  1  0.33333333  0.48235467  0.09519825  1.0
  Sn  Sn212  1  0.33333333  0.81568800  0.09519825  1.0
  Sn  Sn213  1  0.66666667  0.14902133  0.09519825  1.0
  Sn  Sn214  1  0.66666667  0.48235467  0.09519825  1.0
  Sn  Sn215  1  0.66666667  0.81568800  0.09519825  1.0
  Sn  Sn216  1  0.00000000  0.18431200  0.38519825  1.0
  Sn  Sn217  1  0.00000000  0.51764533  0.38519825  1.0
  Sn  Sn218  1  0.00000000  0.85097867  0.38519825  1.0
  Sn  Sn219  1  0.33333333  0.18431200  0.38519825  1.0
  Sn  Sn220  1  0.33333333  0.51764533  0.38519825  1.0
  Sn  Sn221  1  0.33333333  0.85097867  0.38519825  1.0
  Sn  Sn222  1  0.66666667  0.18431200  0.38519825  1.0
  Sn  Sn223  1  0.66666667  0.51764533  0.38519825  1.0
  Sn  Sn224  1  0.66666667  0.85097867  0.38519825  1.0
  Sn  Sn225  1  0.16666667  0.08173200  0.25980175  1.0
  Sn  Sn226  1  0.16666667  0.41506533  0.25980175  1.0
  Sn  Sn227  1  0.16666667  0.74839867  0.25980175  1.0
  Sn  Sn228  1  0.50000000  0.08173200  0.25980175  1.0
  Sn  Sn229  1  0.50000000  0.41506533  0.25980175  1.0
  Sn  Sn230  1  0.50000000  0.74839867  0.25980175  1.0
  Sn  Sn231  1  0.83333333  0.08173200  0.25980175  1.0
  Sn  Sn232  1  0.83333333  0.41506533  0.25980175  1.0
  Sn  Sn233  1  0.83333333  0.74839867  0.25980175  1.0
  Sn  Sn234  1  0.00000000  0.07415300  0.19504975  1.0
  Sn  Sn235  1  0.00000000  0.40748633  0.19504975  1.0
  Sn  Sn236  1  0.00000000  0.74081967  0.19504975  1.0
  Sn  Sn237  1  0.33333333  0.07415300  0.19504975  1.0
  Sn  Sn238  1  0.33333333  0.40748633  0.19504975  1.0
  Sn  Sn239  1  0.33333333  0.74081967  0.19504975  1.0
  Sn  Sn240  1  0.66666667  0.07415300  0.19504975  1.0
  Sn  Sn241  1  0.66666667  0.40748633  0.19504975  1.0
  Sn  Sn242  1  0.66666667  0.74081967  0.19504975  1.0
  Sn  Sn243  1  0.16666667  0.25160133  0.22059475  1.0
  Sn  Sn244  1  0.16666667  0.58493467  0.22059475  1.0
  Sn  Sn245  1  0.16666667  0.91826800  0.22059475  1.0
  Sn  Sn246  1  0.50000000  0.25160133  0.22059475  1.0
  Sn  Sn247  1  0.50000000  0.58493467  0.22059475  1.0
  Sn  Sn248  1  0.50000000  0.91826800  0.22059475  1.0
  Sn  Sn249  1  0.83333333  0.25160133  0.22059475  1.0
  Sn  Sn250  1  0.83333333  0.58493467  0.22059475  1.0
  Sn  Sn251  1  0.83333333  0.91826800  0.22059475  1.0
  Sn  Sn252  1  0.00000000  0.01764533  0.34519825  1.0
  Sn  Sn253  1  0.00000000  0.35097867  0.34519825  1.0
  Sn  Sn254  1  0.00000000  0.68431200  0.34519825  1.0
  Sn  Sn255  1  0.33333333  0.01764533  0.34519825  1.0
  Sn  Sn256  1  0.33333333  0.35097867  0.34519825  1.0
  Sn  Sn257  1  0.33333333  0.68431200  0.34519825  1.0
  Sn  Sn258  1  0.66666667  0.01764533  0.34519825  1.0
  Sn  Sn259  1  0.66666667  0.35097867  0.34519825  1.0
  Sn  Sn260  1  0.66666667  0.68431200  0.34519825  1.0
  Sn  Sn261  1  0.16666667  0.16695167  0.32062475  1.0
  Sn  Sn262  1  0.16666667  0.50028500  0.32062475  1.0
  Sn  Sn263  1  0.16666667  0.83361833  0.32062475  1.0
  Sn  Sn264  1  0.50000000  0.16695167  0.32062475  1.0
  Sn  Sn265  1  0.50000000  0.50028500  0.32062475  1.0
  Sn  Sn266  1  0.50000000  0.83361833  0.32062475  1.0
  Sn  Sn267  1  0.83333333  0.16695167  0.32062475  1.0
  Sn  Sn268  1  0.83333333  0.50028500  0.32062475  1.0
  Sn  Sn269  1  0.83333333  0.83361833  0.32062475  1.0
  Sn  Sn270  1  0.16666667  0.33304833  0.07062475  1.0
  Sn  Sn271  1  0.16666667  0.66638167  0.07062475  1.0
  Sn  Sn272  1  0.16666667  0.99971500  0.07062475  1.0
  Sn  Sn273  1  0.50000000  0.33304833  0.07062475  1.0
  Sn  Sn274  1  0.50000000  0.66638167  0.07062475  1.0
  Sn  Sn275  1  0.50000000  0.99971500  0.07062475  1.0
  Sn  Sn276  1  0.83333333  0.33304833  0.07062475  1.0
  Sn  Sn277  1  0.83333333  0.66638167  0.07062475  1.0
  Sn  Sn278  1  0.83333333  0.99971500  0.07062475  1.0
  Sn  Sn279  1  0.16666667  0.16638167  0.15977175  1.0
  Sn  Sn280  1  0.16666667  0.49971500  0.15977175  1.0
  Sn  Sn281  1  0.16666667  0.83304833  0.15977175  1.0
  Sn  Sn282  1  0.50000000  0.16638167  0.15977175  1.0
  Sn  Sn283  1  0.50000000  0.49971500  0.15977175  1.0
  Sn  Sn284  1  0.50000000  0.83304833  0.15977175  1.0
  Sn  Sn285  1  0.83333333  0.16638167  0.15977175  1.0
  Sn  Sn286  1  0.83333333  0.49971500  0.15977175  1.0
  Sn  Sn287  1  0.83333333  0.83304833  0.15977175  1.0
