# generated using pymatgen
data_Re3Ni
_symmetry_space_group_name_H-M   'P 1'
_cell_length_a   28.20122598
_cell_length_b   20.92361667
_cell_length_c   52.56534000
_cell_angle_alpha   51.09269254
_cell_angle_beta   90.00000000
_cell_angle_gamma   47.63051722
_symmetry_Int_Tables_number   1
_chemical_formula_structural   Re3Ni
_chemical_formula_sum   'Re270 Ni90'
_cell_volume   12068.26483304
_cell_formula_units_Z   90
loop_
 _symmetry_equiv_pos_site_id
 _symmetry_equiv_pos_as_xyz
  1  'x, y, z'
loop_
 _atom_site_type_symbol
 _atom_site_label
 _atom_site_symmetry_multiplicity
 _atom_site_fract_x
 _atom_site_fract_y
 _atom_site_fract_z
 _atom_site_occupancy
  Re  Re0  1  0.11100267  0.16682933  0.02079267  1.0
  Re  Re1  1  0.11100267  0.50016267  0.02079267  1.0
  Re  Re2  1  0.11100267  0.83349600  0.02079267  1.0
  Re  Re3  1  0.44433600  0.16682933  0.02079267  1.0
  Re  Re4  1  0.44433600  0.50016267  0.02079267  1.0
  Re  Re5  1  0.44433600  0.83349600  0.02079267  1.0
  Re  Re6  1  0.77766933  0.16682933  0.02079267  1.0
  Re  Re7  1  0.77766933  0.50016267  0.02079267  1.0
  Re  Re8  1  0.77766933  0.83349600  0.02079267  1.0
  Re  Re9  1  0.27783200  0.00000000  0.06250000  1.0
  Re  Re10  1  0.27783200  0.33333333  0.06250000  1.0
  Re  Re11  1  0.27783200  0.66666667  0.06250000  1.0
  Re  Re12  1  0.61116533  0.00000000  0.06250000  1.0
  Re  Re13  1  0.61116533  0.33333333  0.06250000  1.0
  Re  Re14  1  0.61116533  0.66666667  0.06250000  1.0
  Re  Re15  1  0.94449867  0.00000000  0.06250000  1.0
  Re  Re16  1  0.94449867  0.33333333  0.06250000  1.0
  Re  Re17  1  0.94449867  0.66666667  0.06250000  1.0
  Re  Re18  1  0.27783200  0.16650400  0.02087400  1.0
  Re  Re19  1  0.27783200  0.49983733  0.02087400  1.0
  Re  Re20  1  0.27783200  0.83317067  0.02087400  1.0
  Re  Re21  1  0.61116533  0.16650400  0.02087400  1.0
  Re  Re22  1  0.61116533  0.49983733  0.02087400  1.0
  Re  Re23  1  0.61116533  0.83317067  0.02087400  1.0
  Re  Re24  1  0.94449867  0.16650400  0.02087400  1.0
  Re  Re25  1  0.94449867  0.49983733  0.02087400  1.0
  Re  Re26  1  0.94449867  0.83317067  0.02087400  1.0
  Re  Re27  1  0.22233067  0.16650400  0.06254067  1.0
  Re  Re28  1  0.22233067  0.49983733  0.06254067  1.0
  Re  Re29  1  0.22233067  0.83317067  0.06254067  1.0
  Re  Re30  1  0.55566400  0.16650400  0.06254067  1.0
  Re  Re31  1  0.55566400  0.49983733  0.06254067  1.0
  Re  Re32  1  0.55566400  0.83317067  0.06254067  1.0
  Re  Re33  1  0.88899733  0.16650400  0.06254067  1.0
  Re  Re34  1  0.88899733  0.49983733  0.06254067  1.0
  Re  Re35  1  0.88899733  0.83317067  0.06254067  1.0
  Re  Re36  1  0.05550133  0.00000000  0.02083333  1.0
  Re  Re37  1  0.05550133  0.33333333  0.02083333  1.0
  Re  Re38  1  0.05550133  0.66666667  0.02083333  1.0
  Re  Re39  1  0.38883467  0.00000000  0.02083333  1.0
  Re  Re40  1  0.38883467  0.33333333  0.02083333  1.0
  Re  Re41  1  0.38883467  0.66666667  0.02083333  1.0
  Re  Re42  1  0.72216800  0.00000000  0.02083333  1.0
  Re  Re43  1  0.72216800  0.33333333  0.02083333  1.0
  Re  Re44  1  0.72216800  0.66666667  0.02083333  1.0
  Re  Re45  1  0.05550133  0.16682933  0.06245933  1.0
  Re  Re46  1  0.05550133  0.50016267  0.06245933  1.0
  Re  Re47  1  0.05550133  0.83349600  0.06245933  1.0
  Re  Re48  1  0.38883467  0.16682933  0.06245933  1.0
  Re  Re49  1  0.38883467  0.50016267  0.06245933  1.0
  Re  Re50  1  0.38883467  0.83349600  0.06245933  1.0
  Re  Re51  1  0.72216800  0.16682933  0.06245933  1.0
  Re  Re52  1  0.72216800  0.50016267  0.06245933  1.0
  Re  Re53  1  0.72216800  0.83349600  0.06245933  1.0
  Ni  Ni54  1  0.22222222  0.00000000  0.02083333  1.0
  Ni  Ni55  1  0.22222222  0.33333333  0.02083333  1.0
  Ni  Ni56  1  0.22222222  0.66666667  0.02083333  1.0
  Ni  Ni57  1  0.55555556  0.00000000  0.02083333  1.0
  Ni  Ni58  1  0.55555556  0.33333333  0.02083333  1.0
  Ni  Ni59  1  0.55555556  0.66666667  0.02083333  1.0
  Ni  Ni60  1  0.88888889  0.00000000  0.02083333  1.0
  Ni  Ni61  1  0.88888889  0.33333333  0.02083333  1.0
  Ni  Ni62  1  0.88888889  0.66666667  0.02083333  1.0
  Ni  Ni63  1  0.11111111  0.00000000  0.06250000  1.0
  Ni  Ni64  1  0.11111111  0.33333333  0.06250000  1.0
  Ni  Ni65  1  0.11111111  0.66666667  0.06250000  1.0
  Ni  Ni66  1  0.44444444  0.00000000  0.06250000  1.0
  Ni  Ni67  1  0.44444444  0.33333333  0.06250000  1.0
  Ni  Ni68  1  0.44444444  0.66666667  0.06250000  1.0
  Ni  Ni69  1  0.77777778  0.00000000  0.06250000  1.0
  Ni  Ni70  1  0.77777778  0.33333333  0.06250000  1.0
  Ni  Ni71  1  0.77777778  0.66666667  0.06250000  1.0
  Re  Re72  1  0.11100267  0.16682933  0.10412600  1.0
  Re  Re73  1  0.11100267  0.50016267  0.10412600  1.0
  Re  Re74  1  0.11100267  0.83349600  0.10412600  1.0
  Re  Re75  1  0.44433600  0.16682933  0.10412600  1.0
  Re  Re76  1  0.44433600  0.50016267  0.10412600  1.0
  Re  Re77  1  0.44433600  0.83349600  0.10412600  1.0
  Re  Re78  1  0.77766933  0.16682933  0.10412600  1.0
  Re  Re79  1  0.77766933  0.50016267  0.10412600  1.0
  Re  Re80  1  0.77766933  0.83349600  0.10412600  1.0
  Re  Re81  1  0.27783200  0.00000000  0.14583333  1.0
  Re  Re82  1  0.27783200  0.33333333  0.14583333  1.0
  Re  Re83  1  0.27783200  0.66666667  0.14583333  1.0
  Re  Re84  1  0.61116533  0.00000000  0.14583333  1.0
  Re  Re85  1  0.61116533  0.33333333  0.14583333  1.0
  Re  Re86  1  0.61116533  0.66666667  0.14583333  1.0
  Re  Re87  1  0.94449867  0.00000000  0.14583333  1.0
  Re  Re88  1  0.94449867  0.33333333  0.14583333  1.0
  Re  Re89  1  0.94449867  0.66666667  0.14583333  1.0
  Re  Re90  1  0.27783200  0.16650400  0.10420733  1.0
  Re  Re91  1  0.27783200  0.49983733  0.10420733  1.0
  Re  Re92  1  0.27783200  0.83317067  0.10420733  1.0
  Re  Re93  1  0.61116533  0.16650400  0.10420733  1.0
  Re  Re94  1  0.61116533  0.49983733  0.10420733  1.0
  Re  Re95  1  0.61116533  0.83317067  0.10420733  1.0
  Re  Re96  1  0.94449867  0.16650400  0.10420733  1.0
  Re  Re97  1  0.94449867  0.49983733  0.10420733  1.0
  Re  Re98  1  0.94449867  0.83317067  0.10420733  1.0
  Re  Re99  1  0.22233067  0.16650400  0.14587400  1.0
  Re  Re100  1  0.22233067  0.49983733  0.14587400  1.0
  Re  Re101  1  0.22233067  0.83317067  0.14587400  1.0
  Re  Re102  1  0.55566400  0.16650400  0.14587400  1.0
  Re  Re103  1  0.55566400  0.49983733  0.14587400  1.0
  Re  Re104  1  0.55566400  0.83317067  0.14587400  1.0
  Re  Re105  1  0.88899733  0.16650400  0.14587400  1.0
  Re  Re106  1  0.88899733  0.49983733  0.14587400  1.0
  Re  Re107  1  0.88899733  0.83317067  0.14587400  1.0
  Re  Re108  1  0.05550133  0.00000000  0.10416667  1.0
  Re  Re109  1  0.05550133  0.33333333  0.10416667  1.0
  Re  Re110  1  0.05550133  0.66666667  0.10416667  1.0
  Re  Re111  1  0.38883467  0.00000000  0.10416667  1.0
  Re  Re112  1  0.38883467  0.33333333  0.10416667  1.0
  Re  Re113  1  0.38883467  0.66666667  0.10416667  1.0
  Re  Re114  1  0.72216800  0.00000000  0.10416667  1.0
  Re  Re115  1  0.72216800  0.33333333  0.10416667  1.0
  Re  Re116  1  0.72216800  0.66666667  0.10416667  1.0
  Re  Re117  1  0.05550133  0.16682933  0.14579267  1.0
  Re  Re118  1  0.05550133  0.50016267  0.14579267  1.0
  Re  Re119  1  0.05550133  0.83349600  0.14579267  1.0
  Re  Re120  1  0.38883467  0.16682933  0.14579267  1.0
  Re  Re121  1  0.38883467  0.50016267  0.14579267  1.0
  Re  Re122  1  0.38883467  0.83349600  0.14579267  1.0
  Re  Re123  1  0.72216800  0.16682933  0.14579267  1.0
  Re  Re124  1  0.72216800  0.50016267  0.14579267  1.0
  Re  Re125  1  0.72216800  0.83349600  0.14579267  1.0
  Ni  Ni126  1  0.22222222  0.00000000  0.10416667  1.0
  Ni  Ni127  1  0.22222222  0.33333333  0.10416667  1.0
  Ni  Ni128  1  0.22222222  0.66666667  0.10416667  1.0
  Ni  Ni129  1  0.55555556  0.00000000  0.10416667  1.0
  Ni  Ni130  1  0.55555556  0.33333333  0.10416667  1.0
  Ni  Ni131  1  0.55555556  0.66666667  0.10416667  1.0
  Ni  Ni132  1  0.88888889  0.00000000  0.10416667  1.0
  Ni  Ni133  1  0.88888889  0.33333333  0.10416667  1.0
  Ni  Ni134  1  0.88888889  0.66666667  0.10416667  1.0
  Ni  Ni135  1  0.11111111  0.00000000  0.14583333  1.0
  Ni  Ni136  1  0.11111111  0.33333333  0.14583333  1.0
  Ni  Ni137  1  0.11111111  0.66666667  0.14583333  1.0
  Ni  Ni138  1  0.44444444  0.00000000  0.14583333  1.0
  Ni  Ni139  1  0.44444444  0.33333333  0.14583333  1.0
  Ni  Ni140  1  0.44444444  0.66666667  0.14583333  1.0
  Ni  Ni141  1  0.77777778  0.00000000  0.14583333  1.0
  Ni  Ni142  1  0.77777778  0.33333333  0.14583333  1.0
  Ni  Ni143  1  0.77777778  0.66666667  0.14583333  1.0
  Re  Re144  1  0.11100267  0.16682933  0.18745933  1.0
  Re  Re145  1  0.11100267  0.50016267  0.18745933  1.0
  Re  Re146  1  0.11100267  0.83349600  0.18745933  1.0
  Re  Re147  1  0.44433600  0.16682933  0.18745933  1.0
  Re  Re148  1  0.44433600  0.50016267  0.18745933  1.0
  Re  Re149  1  0.44433600  0.83349600  0.18745933  1.0
  Re  Re150  1  0.77766933  0.16682933  0.18745933  1.0
  Re  Re151  1  0.77766933  0.50016267  0.18745933  1.0
  Re  Re152  1  0.77766933  0.83349600  0.18745933  1.0
  Re  Re153  1  0.27783200  0.00000000  0.22916667  1.0
  Re  Re154  1  0.27783200  0.33333333  0.22916667  1.0
  Re  Re155  1  0.27783200  0.66666667  0.22916667  1.0
  Re  Re156  1  0.61116533  0.00000000  0.22916667  1.0
  Re  Re157  1  0.61116533  0.33333333  0.22916667  1.0
  Re  Re158  1  0.61116533  0.66666667  0.22916667  1.0
  Re  Re159  1  0.94449867  0.00000000  0.22916667  1.0
  Re  Re160  1  0.94449867  0.33333333  0.22916667  1.0
  Re  Re161  1  0.94449867  0.66666667  0.22916667  1.0
  Re  Re162  1  0.27783200  0.16650400  0.18754067  1.0
  Re  Re163  1  0.27783200  0.49983733  0.18754067  1.0
  Re  Re164  1  0.27783200  0.83317067  0.18754067  1.0
  Re  Re165  1  0.61116533  0.16650400  0.18754067  1.0
  Re  Re166  1  0.61116533  0.49983733  0.18754067  1.0
  Re  Re167  1  0.61116533  0.83317067  0.18754067  1.0
  Re  Re168  1  0.94449867  0.16650400  0.18754067  1.0
  Re  Re169  1  0.94449867  0.49983733  0.18754067  1.0
  Re  Re170  1  0.94449867  0.83317067  0.18754067  1.0
  Re  Re171  1  0.22233067  0.16650400  0.22920733  1.0
  Re  Re172  1  0.22233067  0.49983733  0.22920733  1.0
  Re  Re173  1  0.22233067  0.83317067  0.22920733  1.0
  Re  Re174  1  0.55566400  0.16650400  0.22920733  1.0
  Re  Re175  1  0.55566400  0.49983733  0.22920733  1.0
  Re  Re176  1  0.55566400  0.83317067  0.22920733  1.0
  Re  Re177  1  0.88899733  0.16650400  0.22920733  1.0
  Re  Re178  1  0.88899733  0.49983733  0.22920733  1.0
  Re  Re179  1  0.88899733  0.83317067  0.22920733  1.0
  Re  Re180  1  0.05550133  0.00000000  0.18750000  1.0
  Re  Re181  1  0.05550133  0.33333333  0.18750000  1.0
  Re  Re182  1  0.05550133  0.66666667  0.18750000  1.0
  Re  Re183  1  0.38883467  0.00000000  0.18750000  1.0
  Re  Re184  1  0.38883467  0.33333333  0.18750000  1.0
  Re  Re185  1  0.38883467  0.66666667  0.18750000  1.0
  Re  Re186  1  0.72216800  0.00000000  0.18750000  1.0
  Re  Re187  1  0.72216800  0.33333333  0.18750000  1.0
  Re  Re188  1  0.72216800  0.66666667  0.18750000  1.0
  Re  Re189  1  0.05550133  0.16682933  0.22912600  1.0
  Re  Re190  1  0.05550133  0.50016267  0.22912600  1.0
  Re  Re191  1  0.05550133  0.83349600  0.22912600  1.0
  Re  Re192  1  0.38883467  0.16682933  0.22912600  1.0
  Re  Re193  1  0.38883467  0.50016267  0.22912600  1.0
  Re  Re194  1  0.38883467  0.83349600  0.22912600  1.0
  Re  Re195  1  0.72216800  0.16682933  0.22912600  1.0
  Re  Re196  1  0.72216800  0.50016267  0.22912600  1.0
  Re  Re197  1  0.72216800  0.83349600  0.22912600  1.0
  Ni  Ni198  1  0.22222222  0.00000000  0.18750000  1.0
  Ni  Ni199  1  0.22222222  0.33333333  0.18750000  1.0
  Ni  Ni200  1  0.22222222  0.66666667  0.18750000  1.0
  Ni  Ni201  1  0.55555556  0.00000000  0.18750000  1.0
  Ni  Ni202  1  0.55555556  0.33333333  0.18750000  1.0
  Ni  Ni203  1  0.55555556  0.66666667  0.18750000  1.0
  Ni  Ni204  1  0.88888889  0.00000000  0.18750000  1.0
  Ni  Ni205  1  0.88888889  0.33333333  0.18750000  1.0
  Ni  Ni206  1  0.88888889  0.66666667  0.18750000  1.0
  Ni  Ni207  1  0.11111111  0.00000000  0.22916667  1.0
  Ni  Ni208  1  0.11111111  0.33333333  0.22916667  1.0
  Ni  Ni209  1  0.11111111  0.66666667  0.22916667  1.0
  Ni  Ni210  1  0.44444444  0.00000000  0.22916667  1.0
  Ni  Ni211  1  0.44444444  0.33333333  0.22916667  1.0
  Ni  Ni212  1  0.44444444  0.66666667  0.22916667  1.0
  Ni  Ni213  1  0.77777778  0.00000000  0.22916667  1.0
  Ni  Ni214  1  0.77777778  0.33333333  0.22916667  1.0
  Ni  Ni215  1  0.77777778  0.66666667  0.22916667  1.0
  Re  Re216  1  0.11100267  0.16682933  0.27079267  1.0
  Re  Re217  1  0.11100267  0.50016267  0.27079267  1.0
  Re  Re218  1  0.11100267  0.83349600  0.27079267  1.0
  Re  Re219  1  0.44433600  0.16682933  0.27079267  1.0
  Re  Re220  1  0.44433600  0.50016267  0.27079267  1.0
  Re  Re221  1  0.44433600  0.83349600  0.27079267  1.0
  Re  Re222  1  0.77766933  0.16682933  0.27079267  1.0
  Re  Re223  1  0.77766933  0.50016267  0.27079267  1.0
  Re  Re224  1  0.77766933  0.83349600  0.27079267  1.0
  Re  Re225  1  0.27783200  0.00000000  0.31250000  1.0
  Re  Re226  1  0.27783200  0.33333333  0.31250000  1.0
  Re  Re227  1  0.27783200  0.66666667  0.31250000  1.0
  Re  Re228  1  0.61116533  0.00000000  0.31250000  1.0
  Re  Re229  1  0.61116533  0.33333333  0.31250000  1.0
  Re  Re230  1  0.61116533  0.66666667  0.31250000  1.0
  Re  Re231  1  0.94449867  0.00000000  0.31250000  1.0
  Re  Re232  1  0.94449867  0.33333333  0.31250000  1.0
  Re  Re233  1  0.94449867  0.66666667  0.31250000  1.0
  Re  Re234  1  0.27783200  0.16650400  0.27087400  1.0
  Re  Re235  1  0.27783200  0.49983733  0.27087400  1.0
  Re  Re236  1  0.27783200  0.83317067  0.27087400  1.0
  Re  Re237  1  0.61116533  0.16650400  0.27087400  1.0
  Re  Re238  1  0.61116533  0.49983733  0.27087400  1.0
  Re  Re239  1  0.61116533  0.83317067  0.27087400  1.0
  Re  Re240  1  0.94449867  0.16650400  0.27087400  1.0
  Re  Re241  1  0.94449867  0.49983733  0.27087400  1.0
  Re  Re242  1  0.94449867  0.83317067  0.27087400  1.0
  Re  Re243  1  0.22233067  0.16650400  0.31254067  1.0
  Re  Re244  1  0.22233067  0.49983733  0.31254067  1.0
  Re  Re245  1  0.22233067  0.83317067  0.31254067  1.0
  Re  Re246  1  0.55566400  0.16650400  0.31254067  1.0
  Re  Re247  1  0.55566400  0.49983733  0.31254067  1.0
  Re  Re248  1  0.55566400  0.83317067  0.31254067  1.0
  Re  Re249  1  0.88899733  0.16650400  0.31254067  1.0
  Re  Re250  1  0.88899733  0.49983733  0.31254067  1.0
  Re  Re251  1  0.88899733  0.83317067  0.31254067  1.0
  Re  Re252  1  0.05550133  0.00000000  0.27083333  1.0
  Re  Re253  1  0.05550133  0.33333333  0.27083333  1.0
  Re  Re254  1  0.05550133  0.66666667  0.27083333  1.0
  Re  Re255  1  0.38883467  0.00000000  0.27083333  1.0
  Re  Re256  1  0.38883467  0.33333333  0.27083333  1.0
  Re  Re257  1  0.38883467  0.66666667  0.27083333  1.0
  Re  Re258  1  0.72216800  0.00000000  0.27083333  1.0
  Re  Re259  1  0.72216800  0.33333333  0.27083333  1.0
  Re  Re260  1  0.72216800  0.66666667  0.27083333  1.0
  Re  Re261  1  0.05550133  0.16682933  0.31245933  1.0
  Re  Re262  1  0.05550133  0.50016267  0.31245933  1.0
  Re  Re263  1  0.05550133  0.83349600  0.31245933  1.0
  Re  Re264  1  0.38883467  0.16682933  0.31245933  1.0
  Re  Re265  1  0.38883467  0.50016267  0.31245933  1.0
  Re  Re266  1  0.38883467  0.83349600  0.31245933  1.0
  Re  Re267  1  0.72216800  0.16682933  0.31245933  1.0
  Re  Re268  1  0.72216800  0.50016267  0.31245933  1.0
  Re  Re269  1  0.72216800  0.83349600  0.31245933  1.0
  Ni  Ni270  1  0.22222222  0.00000000  0.27083333  1.0
  Ni  Ni271  1  0.22222222  0.33333333  0.27083333  1.0
  Ni  Ni272  1  0.22222222  0.66666667  0.27083333  1.0
  Ni  Ni273  1  0.55555556  0.00000000  0.27083333  1.0
  Ni  Ni274  1  0.55555556  0.33333333  0.27083333  1.0
  Ni  Ni275  1  0.55555556  0.66666667  0.27083333  1.0
  Ni  Ni276  1  0.88888889  0.00000000  0.27083333  1.0
  Ni  Ni277  1  0.88888889  0.33333333  0.27083333  1.0
  Ni  Ni278  1  0.88888889  0.66666667  0.27083333  1.0
  Ni  Ni279  1  0.11111111  0.00000000  0.31250000  1.0
  Ni  Ni280  1  0.11111111  0.33333333  0.31250000  1.0
  Ni  Ni281  1  0.11111111  0.66666667  0.31250000  1.0
  Ni  Ni282  1  0.44444444  0.00000000  0.31250000  1.0
  Ni  Ni283  1  0.44444444  0.33333333  0.31250000  1.0
  Ni  Ni284  1  0.44444444  0.66666667  0.31250000  1.0
  Ni  Ni285  1  0.77777778  0.00000000  0.31250000  1.0
  Ni  Ni286  1  0.77777778  0.33333333  0.31250000  1.0
  Ni  Ni287  1  0.77777778  0.66666667  0.31250000  1.0
  Re  Re288  1  0.11100267  0.16682933  0.35412600  1.0
  Re  Re289  1  0.11100267  0.50016267  0.35412600  1.0
  Re  Re290  1  0.11100267  0.83349600  0.35412600  1.0
  Re  Re291  1  0.44433600  0.16682933  0.35412600  1.0
  Re  Re292  1  0.44433600  0.50016267  0.35412600  1.0
  Re  Re293  1  0.44433600  0.83349600  0.35412600  1.0
  Re  Re294  1  0.77766933  0.16682933  0.35412600  1.0
  Re  Re295  1  0.77766933  0.50016267  0.35412600  1.0
  Re  Re296  1  0.77766933  0.83349600  0.35412600  1.0
  Re  Re297  1  0.27783200  0.00000000  0.39583333  1.0
  Re  Re298  1  0.27783200  0.33333333  0.39583333  1.0
  Re  Re299  1  0.27783200  0.66666667  0.39583333  1.0
  Re  Re300  1  0.61116533  0.00000000  0.39583333  1.0
  Re  Re301  1  0.61116533  0.33333333  0.39583333  1.0
  Re  Re302  1  0.61116533  0.66666667  0.39583333  1.0
  Re  Re303  1  0.94449867  0.00000000  0.39583333  1.0
  Re  Re304  1  0.94449867  0.33333333  0.39583333  1.0
  Re  Re305  1  0.94449867  0.66666667  0.39583333  1.0
  Re  Re306  1  0.27783200  0.16650400  0.35420733  1.0
  Re  Re307  1  0.27783200  0.49983733  0.35420733  1.0
  Re  Re308  1  0.27783200  0.83317067  0.35420733  1.0
  Re  Re309  1  0.61116533  0.16650400  0.35420733  1.0
  Re  Re310  1  0.61116533  0.49983733  0.35420733  1.0
  Re  Re311  1  0.61116533  0.83317067  0.35420733  1.0
  Re  Re312  1  0.94449867  0.16650400  0.35420733  1.0
  Re  Re313  1  0.94449867  0.49983733  0.35420733  1.0
  Re  Re314  1  0.94449867  0.83317067  0.35420733  1.0
  Re  Re315  1  0.22233067  0.16650400  0.39587400  1.0
  Re  Re316  1  0.22233067  0.49983733  0.39587400  1.0
  Re  Re317  1  0.22233067  0.83317067  0.39587400  1.0
  Re  Re318  1  0.55566400  0.16650400  0.39587400  1.0
  Re  Re319  1  0.55566400  0.49983733  0.39587400  1.0
  Re  Re320  1  0.55566400  0.83317067  0.39587400  1.0
  Re  Re321  1  0.88899733  0.16650400  0.39587400  1.0
  Re  Re322  1  0.88899733  0.49983733  0.39587400  1.0
  Re  Re323  1  0.88899733  0.83317067  0.39587400  1.0
  Re  Re324  1  0.05550133  0.00000000  0.35416667  1.0
  Re  Re325  1  0.05550133  0.33333333  0.35416667  1.0
  Re  Re326  1  0.05550133  0.66666667  0.35416667  1.0
  Re  Re327  1  0.38883467  0.00000000  0.35416667  1.0
  Re  Re328  1  0.38883467  0.33333333  0.35416667  1.0
  Re  Re329  1  0.38883467  0.66666667  0.35416667  1.0
  Re  Re330  1  0.72216800  0.00000000  0.35416667  1.0
  Re  Re331  1  0.72216800  0.33333333  0.35416667  1.0
  Re  Re332  1  0.72216800  0.66666667  0.35416667  1.0
  Re  Re333  1  0.05550133  0.16682933  0.39579267  1.0
  Re  Re334  1  0.05550133  0.50016267  0.39579267  1.0
  Re  Re335  1  0.05550133  0.83349600  0.39579267  1.0
  Re  Re336  1  0.38883467  0.16682933  0.39579267  1.0
  Re  Re337  1  0.38883467  0.50016267  0.39579267  1.0
  Re  Re338  1  0.38883467  0.83349600  0.39579267  1.0
  Re  Re339  1  0.72216800  0.16682933  0.39579267  1.0
  Re  Re340  1  0.72216800  0.50016267  0.39579267  1.0
  Re  Re341  1  0.72216800  0.83349600  0.39579267  1.0
  Ni  Ni342  1  0.22222222  0.00000000  0.35416667  1.0
  Ni  Ni343  1  0.22222222  0.33333333  0.35416667  1.0
  Ni  Ni344  1  0.22222222  0.66666667  0.35416667  1.0
  Ni  Ni345  1  0.55555556  0.00000000  0.35416667  1.0
  Ni  Ni346  1  0.55555556  0.33333333  0.35416667  1.0
  Ni  Ni347  1  0.55555556  0.66666667  0.35416667  1.0
  Ni  Ni348  1  0.88888889  0.00000000  0.35416667  1.0
  Ni  Ni349  1  0.88888889  0.33333333  0.35416667  1.0
  Ni  Ni350  1  0.88888889  0.66666667  0.35416667  1.0
  Ni  Ni351  1  0.11111111  0.00000000  0.39583333  1.0
  Ni  Ni352  1  0.11111111  0.33333333  0.39583333  1.0
  Ni  Ni353  1  0.11111111  0.66666667  0.39583333  1.0
  Ni  Ni354  1  0.44444444  0.00000000  0.39583333  1.0
  Ni  Ni355  1  0.44444444  0.33333333  0.39583333  1.0
  Ni  Ni356  1  0.44444444  0.66666667  0.39583333  1.0
  Ni  Ni357  1  0.77777778  0.00000000  0.39583333  1.0
  Ni  Ni358  1  0.77777778  0.33333333  0.39583333  1.0
  Ni  Ni359  1  0.77777778  0.66666667  0.39583333  1.0
