# generated using pymatgen
data_Re3Ni
_symmetry_space_group_name_H-M   'P 1'
_cell_length_a   28.20122598
_cell_length_b   20.92361667
_cell_length_c   35.04356000
_cell_angle_alpha   128.90730746
_cell_angle_beta   90.00000000
_cell_angle_gamma   90.00000000
_symmetry_Int_Tables_number   1
_chemical_formula_structural   Re3Ni
_chemical_formula_sum   'Re324 Ni108'
_cell_volume   16091.01977739
_cell_formula_units_Z   108
loop_
 _symmetry_equiv_pos_site_id
 _symmetry_equiv_pos_as_xyz
  1  'x, y, z'
loop_
 _atom_site_type_symbol
 _atom_site_label
 _atom_site_symmetry_multiplicity
 _atom_site_fract_x
 _atom_site_fract_y
 _atom_site_fract_z
 _atom_site_occupancy
  Re  Re0  1  0.11116533  0.16666667  0.01560975  1.0
  Re  Re1  1  0.11116533  0.50000000  0.01560975  1.0
  Re  Re2  1  0.11116533  0.83333333  0.01560975  1.0
  Re  Re3  1  0.44449867  0.16666667  0.01560975  1.0
  Re  Re4  1  0.44449867  0.50000000  0.01560975  1.0
  Re  Re5  1  0.44449867  0.83333333  0.01560975  1.0
  Re  Re6  1  0.77783200  0.16666667  0.01560975  1.0
  Re  Re7  1  0.77783200  0.50000000  0.01560975  1.0
  Re  Re8  1  0.77783200  0.83333333  0.01560975  1.0
  Re  Re9  1  0.27783200  0.00000000  0.07810975  1.0
  Re  Re10  1  0.27783200  0.33333333  0.07810975  1.0
  Re  Re11  1  0.27783200  0.66666667  0.07810975  1.0
  Re  Re12  1  0.61116533  0.00000000  0.07810975  1.0
  Re  Re13  1  0.61116533  0.33333333  0.07810975  1.0
  Re  Re14  1  0.61116533  0.66666667  0.07810975  1.0
  Re  Re15  1  0.94449867  0.00000000  0.07810975  1.0
  Re  Re16  1  0.94449867  0.33333333  0.07810975  1.0
  Re  Re17  1  0.94449867  0.66666667  0.07810975  1.0
  Re  Re18  1  0.02775067  0.25008133  0.04689025  1.0
  Re  Re19  1  0.02775067  0.58341467  0.04689025  1.0
  Re  Re20  1  0.02775067  0.91674800  0.04689025  1.0
  Re  Re21  1  0.36108400  0.25008133  0.04689025  1.0
  Re  Re22  1  0.36108400  0.58341467  0.04689025  1.0
  Re  Re23  1  0.36108400  0.91674800  0.04689025  1.0
  Re  Re24  1  0.69441733  0.25008133  0.04689025  1.0
  Re  Re25  1  0.69441733  0.58341467  0.04689025  1.0
  Re  Re26  1  0.69441733  0.91674800  0.04689025  1.0
  Re  Re27  1  0.19441733  0.08341467  0.10939025  1.0
  Re  Re28  1  0.19441733  0.41674800  0.10939025  1.0
  Re  Re29  1  0.19441733  0.75008133  0.10939025  1.0
  Re  Re30  1  0.52775067  0.08341467  0.10939025  1.0
  Re  Re31  1  0.52775067  0.41674800  0.10939025  1.0
  Re  Re32  1  0.52775067  0.75008133  0.10939025  1.0
  Re  Re33  1  0.86108400  0.08341467  0.10939025  1.0
  Re  Re34  1  0.86108400  0.41674800  0.10939025  1.0
  Re  Re35  1  0.86108400  0.75008133  0.10939025  1.0
  Re  Re36  1  0.02775067  0.08325200  0.10932925  1.0
  Re  Re37  1  0.02775067  0.41658533  0.10932925  1.0
  Re  Re38  1  0.02775067  0.74991867  0.10932925  1.0
  Re  Re39  1  0.36108400  0.08325200  0.10932925  1.0
  Re  Re40  1  0.36108400  0.41658533  0.10932925  1.0
  Re  Re41  1  0.36108400  0.74991867  0.10932925  1.0
  Re  Re42  1  0.69441733  0.08325200  0.10932925  1.0
  Re  Re43  1  0.69441733  0.41658533  0.10932925  1.0
  Re  Re44  1  0.69441733  0.74991867  0.10932925  1.0
  Re  Re45  1  0.19441733  0.24991867  0.04682925  1.0
  Re  Re46  1  0.19441733  0.58325200  0.04682925  1.0
  Re  Re47  1  0.19441733  0.91658533  0.04682925  1.0
  Re  Re48  1  0.52775067  0.24991867  0.04682925  1.0
  Re  Re49  1  0.52775067  0.58325200  0.04682925  1.0
  Re  Re50  1  0.52775067  0.91658533  0.04682925  1.0
  Re  Re51  1  0.86108400  0.24991867  0.04682925  1.0
  Re  Re52  1  0.86108400  0.58325200  0.04682925  1.0
  Re  Re53  1  0.86108400  0.91658533  0.04682925  1.0
  Re  Re54  1  0.05550133  0.00000000  0.01560975  1.0
  Re  Re55  1  0.05550133  0.33333333  0.01560975  1.0
  Re  Re56  1  0.05550133  0.66666667  0.01560975  1.0
  Re  Re57  1  0.38883467  0.00000000  0.01560975  1.0
  Re  Re58  1  0.38883467  0.33333333  0.01560975  1.0
  Re  Re59  1  0.38883467  0.66666667  0.01560975  1.0
  Re  Re60  1  0.72216800  0.00000000  0.01560975  1.0
  Re  Re61  1  0.72216800  0.33333333  0.01560975  1.0
  Re  Re62  1  0.72216800  0.66666667  0.01560975  1.0
  Re  Re63  1  0.22216800  0.16666667  0.07810975  1.0
  Re  Re64  1  0.22216800  0.50000000  0.07810975  1.0
  Re  Re65  1  0.22216800  0.83333333  0.07810975  1.0
  Re  Re66  1  0.55550133  0.16666667  0.07810975  1.0
  Re  Re67  1  0.55550133  0.50000000  0.07810975  1.0
  Re  Re68  1  0.55550133  0.83333333  0.07810975  1.0
  Re  Re69  1  0.88883467  0.16666667  0.07810975  1.0
  Re  Re70  1  0.88883467  0.50000000  0.07810975  1.0
  Re  Re71  1  0.88883467  0.83333333  0.07810975  1.0
  Re  Re72  1  0.13891600  0.24991867  0.10932925  1.0
  Re  Re73  1  0.13891600  0.58325200  0.10932925  1.0
  Re  Re74  1  0.13891600  0.91658533  0.10932925  1.0
  Re  Re75  1  0.47224933  0.24991867  0.10932925  1.0
  Re  Re76  1  0.47224933  0.58325200  0.10932925  1.0
  Re  Re77  1  0.47224933  0.91658533  0.10932925  1.0
  Re  Re78  1  0.80558267  0.24991867  0.10932925  1.0
  Re  Re79  1  0.80558267  0.58325200  0.10932925  1.0
  Re  Re80  1  0.80558267  0.91658533  0.10932925  1.0
  Re  Re81  1  0.30558267  0.08325200  0.04682925  1.0
  Re  Re82  1  0.30558267  0.41658533  0.04682925  1.0
  Re  Re83  1  0.30558267  0.74991867  0.04682925  1.0
  Re  Re84  1  0.63891600  0.08325200  0.04682925  1.0
  Re  Re85  1  0.63891600  0.41658533  0.04682925  1.0
  Re  Re86  1  0.63891600  0.74991867  0.04682925  1.0
  Re  Re87  1  0.97224933  0.08325200  0.04682925  1.0
  Re  Re88  1  0.97224933  0.41658533  0.04682925  1.0
  Re  Re89  1  0.97224933  0.74991867  0.04682925  1.0
  Re  Re90  1  0.13891600  0.08341467  0.04689025  1.0
  Re  Re91  1  0.13891600  0.41674800  0.04689025  1.0
  Re  Re92  1  0.13891600  0.75008133  0.04689025  1.0
  Re  Re93  1  0.47224933  0.08341467  0.04689025  1.0
  Re  Re94  1  0.47224933  0.41674800  0.04689025  1.0
  Re  Re95  1  0.47224933  0.75008133  0.04689025  1.0
  Re  Re96  1  0.80558267  0.08341467  0.04689025  1.0
  Re  Re97  1  0.80558267  0.41674800  0.04689025  1.0
  Re  Re98  1  0.80558267  0.75008133  0.04689025  1.0
  Re  Re99  1  0.30558267  0.25008133  0.10939025  1.0
  Re  Re100  1  0.30558267  0.58341467  0.10939025  1.0
  Re  Re101  1  0.30558267  0.91674800  0.10939025  1.0
  Re  Re102  1  0.63891600  0.25008133  0.10939025  1.0
  Re  Re103  1  0.63891600  0.58341467  0.10939025  1.0
  Re  Re104  1  0.63891600  0.91674800  0.10939025  1.0
  Re  Re105  1  0.97224933  0.25008133  0.10939025  1.0
  Re  Re106  1  0.97224933  0.58341467  0.10939025  1.0
  Re  Re107  1  0.97224933  0.91674800  0.10939025  1.0
  Ni  Ni108  1  0.05555556  0.16666667  0.07810975  1.0
  Ni  Ni109  1  0.05555556  0.50000000  0.07810975  1.0
  Ni  Ni110  1  0.05555556  0.83333333  0.07810975  1.0
  Ni  Ni111  1  0.38888889  0.16666667  0.07810975  1.0
  Ni  Ni112  1  0.38888889  0.50000000  0.07810975  1.0
  Ni  Ni113  1  0.38888889  0.83333333  0.07810975  1.0
  Ni  Ni114  1  0.72222222  0.16666667  0.07810975  1.0
  Ni  Ni115  1  0.72222222  0.50000000  0.07810975  1.0
  Ni  Ni116  1  0.72222222  0.83333333  0.07810975  1.0
  Ni  Ni117  1  0.22222222  0.00000000  0.01560975  1.0
  Ni  Ni118  1  0.22222222  0.33333333  0.01560975  1.0
  Ni  Ni119  1  0.22222222  0.66666667  0.01560975  1.0
  Ni  Ni120  1  0.55555556  0.00000000  0.01560975  1.0
  Ni  Ni121  1  0.55555556  0.33333333  0.01560975  1.0
  Ni  Ni122  1  0.55555556  0.66666667  0.01560975  1.0
  Ni  Ni123  1  0.88888889  0.00000000  0.01560975  1.0
  Ni  Ni124  1  0.88888889  0.33333333  0.01560975  1.0
  Ni  Ni125  1  0.88888889  0.66666667  0.01560975  1.0
  Ni  Ni126  1  0.11111111  0.00000000  0.07810975  1.0
  Ni  Ni127  1  0.11111111  0.33333333  0.07810975  1.0
  Ni  Ni128  1  0.11111111  0.66666667  0.07810975  1.0
  Ni  Ni129  1  0.44444444  0.00000000  0.07810975  1.0
  Ni  Ni130  1  0.44444444  0.33333333  0.07810975  1.0
  Ni  Ni131  1  0.44444444  0.66666667  0.07810975  1.0
  Ni  Ni132  1  0.77777778  0.00000000  0.07810975  1.0
  Ni  Ni133  1  0.77777778  0.33333333  0.07810975  1.0
  Ni  Ni134  1  0.77777778  0.66666667  0.07810975  1.0
  Ni  Ni135  1  0.27777778  0.16666667  0.01560975  1.0
  Ni  Ni136  1  0.27777778  0.50000000  0.01560975  1.0
  Ni  Ni137  1  0.27777778  0.83333333  0.01560975  1.0
  Ni  Ni138  1  0.61111111  0.16666667  0.01560975  1.0
  Ni  Ni139  1  0.61111111  0.50000000  0.01560975  1.0
  Ni  Ni140  1  0.61111111  0.83333333  0.01560975  1.0
  Ni  Ni141  1  0.94444444  0.16666667  0.01560975  1.0
  Ni  Ni142  1  0.94444444  0.50000000  0.01560975  1.0
  Ni  Ni143  1  0.94444444  0.83333333  0.01560975  1.0
  Re  Re144  1  0.11116533  0.16666667  0.14060975  1.0
  Re  Re145  1  0.11116533  0.50000000  0.14060975  1.0
  Re  Re146  1  0.11116533  0.83333333  0.14060975  1.0
  Re  Re147  1  0.44449867  0.16666667  0.14060975  1.0
  Re  Re148  1  0.44449867  0.50000000  0.14060975  1.0
  Re  Re149  1  0.44449867  0.83333333  0.14060975  1.0
  Re  Re150  1  0.77783200  0.16666667  0.14060975  1.0
  Re  Re151  1  0.77783200  0.50000000  0.14060975  1.0
  Re  Re152  1  0.77783200  0.83333333  0.14060975  1.0
  Re  Re153  1  0.27783200  0.00000000  0.20310975  1.0
  Re  Re154  1  0.27783200  0.33333333  0.20310975  1.0
  Re  Re155  1  0.27783200  0.66666667  0.20310975  1.0
  Re  Re156  1  0.61116533  0.00000000  0.20310975  1.0
  Re  Re157  1  0.61116533  0.33333333  0.20310975  1.0
  Re  Re158  1  0.61116533  0.66666667  0.20310975  1.0
  Re  Re159  1  0.94449867  0.00000000  0.20310975  1.0
  Re  Re160  1  0.94449867  0.33333333  0.20310975  1.0
  Re  Re161  1  0.94449867  0.66666667  0.20310975  1.0
  Re  Re162  1  0.02775067  0.25008133  0.17189025  1.0
  Re  Re163  1  0.02775067  0.58341467  0.17189025  1.0
  Re  Re164  1  0.02775067  0.91674800  0.17189025  1.0
  Re  Re165  1  0.36108400  0.25008133  0.17189025  1.0
  Re  Re166  1  0.36108400  0.58341467  0.17189025  1.0
  Re  Re167  1  0.36108400  0.91674800  0.17189025  1.0
  Re  Re168  1  0.69441733  0.25008133  0.17189025  1.0
  Re  Re169  1  0.69441733  0.58341467  0.17189025  1.0
  Re  Re170  1  0.69441733  0.91674800  0.17189025  1.0
  Re  Re171  1  0.19441733  0.08341467  0.23439025  1.0
  Re  Re172  1  0.19441733  0.41674800  0.23439025  1.0
  Re  Re173  1  0.19441733  0.75008133  0.23439025  1.0
  Re  Re174  1  0.52775067  0.08341467  0.23439025  1.0
  Re  Re175  1  0.52775067  0.41674800  0.23439025  1.0
  Re  Re176  1  0.52775067  0.75008133  0.23439025  1.0
  Re  Re177  1  0.86108400  0.08341467  0.23439025  1.0
  Re  Re178  1  0.86108400  0.41674800  0.23439025  1.0
  Re  Re179  1  0.86108400  0.75008133  0.23439025  1.0
  Re  Re180  1  0.02775067  0.08325200  0.23432925  1.0
  Re  Re181  1  0.02775067  0.41658533  0.23432925  1.0
  Re  Re182  1  0.02775067  0.74991867  0.23432925  1.0
  Re  Re183  1  0.36108400  0.08325200  0.23432925  1.0
  Re  Re184  1  0.36108400  0.41658533  0.23432925  1.0
  Re  Re185  1  0.36108400  0.74991867  0.23432925  1.0
  Re  Re186  1  0.69441733  0.08325200  0.23432925  1.0
  Re  Re187  1  0.69441733  0.41658533  0.23432925  1.0
  Re  Re188  1  0.69441733  0.74991867  0.23432925  1.0
  Re  Re189  1  0.19441733  0.24991867  0.17182925  1.0
  Re  Re190  1  0.19441733  0.58325200  0.17182925  1.0
  Re  Re191  1  0.19441733  0.91658533  0.17182925  1.0
  Re  Re192  1  0.52775067  0.24991867  0.17182925  1.0
  Re  Re193  1  0.52775067  0.58325200  0.17182925  1.0
  Re  Re194  1  0.52775067  0.91658533  0.17182925  1.0
  Re  Re195  1  0.86108400  0.24991867  0.17182925  1.0
  Re  Re196  1  0.86108400  0.58325200  0.17182925  1.0
  Re  Re197  1  0.86108400  0.91658533  0.17182925  1.0
  Re  Re198  1  0.05550133  0.00000000  0.14060975  1.0
  Re  Re199  1  0.05550133  0.33333333  0.14060975  1.0
  Re  Re200  1  0.05550133  0.66666667  0.14060975  1.0
  Re  Re201  1  0.38883467  0.00000000  0.14060975  1.0
  Re  Re202  1  0.38883467  0.33333333  0.14060975  1.0
  Re  Re203  1  0.38883467  0.66666667  0.14060975  1.0
  Re  Re204  1  0.72216800  0.00000000  0.14060975  1.0
  Re  Re205  1  0.72216800  0.33333333  0.14060975  1.0
  Re  Re206  1  0.72216800  0.66666667  0.14060975  1.0
  Re  Re207  1  0.22216800  0.16666667  0.20310975  1.0
  Re  Re208  1  0.22216800  0.50000000  0.20310975  1.0
  Re  Re209  1  0.22216800  0.83333333  0.20310975  1.0
  Re  Re210  1  0.55550133  0.16666667  0.20310975  1.0
  Re  Re211  1  0.55550133  0.50000000  0.20310975  1.0
  Re  Re212  1  0.55550133  0.83333333  0.20310975  1.0
  Re  Re213  1  0.88883467  0.16666667  0.20310975  1.0
  Re  Re214  1  0.88883467  0.50000000  0.20310975  1.0
  Re  Re215  1  0.88883467  0.83333333  0.20310975  1.0
  Re  Re216  1  0.13891600  0.24991867  0.23432925  1.0
  Re  Re217  1  0.13891600  0.58325200  0.23432925  1.0
  Re  Re218  1  0.13891600  0.91658533  0.23432925  1.0
  Re  Re219  1  0.47224933  0.24991867  0.23432925  1.0
  Re  Re220  1  0.47224933  0.58325200  0.23432925  1.0
  Re  Re221  1  0.47224933  0.91658533  0.23432925  1.0
  Re  Re222  1  0.80558267  0.24991867  0.23432925  1.0
  Re  Re223  1  0.80558267  0.58325200  0.23432925  1.0
  Re  Re224  1  0.80558267  0.91658533  0.23432925  1.0
  Re  Re225  1  0.30558267  0.08325200  0.17182925  1.0
  Re  Re226  1  0.30558267  0.41658533  0.17182925  1.0
  Re  Re227  1  0.30558267  0.74991867  0.17182925  1.0
  Re  Re228  1  0.63891600  0.08325200  0.17182925  1.0
  Re  Re229  1  0.63891600  0.41658533  0.17182925  1.0
  Re  Re230  1  0.63891600  0.74991867  0.17182925  1.0
  Re  Re231  1  0.97224933  0.08325200  0.17182925  1.0
  Re  Re232  1  0.97224933  0.41658533  0.17182925  1.0
  Re  Re233  1  0.97224933  0.74991867  0.17182925  1.0
  Re  Re234  1  0.13891600  0.08341467  0.17189025  1.0
  Re  Re235  1  0.13891600  0.41674800  0.17189025  1.0
  Re  Re236  1  0.13891600  0.75008133  0.17189025  1.0
  Re  Re237  1  0.47224933  0.08341467  0.17189025  1.0
  Re  Re238  1  0.47224933  0.41674800  0.17189025  1.0
  Re  Re239  1  0.47224933  0.75008133  0.17189025  1.0
  Re  Re240  1  0.80558267  0.08341467  0.17189025  1.0
  Re  Re241  1  0.80558267  0.41674800  0.17189025  1.0
  Re  Re242  1  0.80558267  0.75008133  0.17189025  1.0
  Re  Re243  1  0.30558267  0.25008133  0.23439025  1.0
  Re  Re244  1  0.30558267  0.58341467  0.23439025  1.0
  Re  Re245  1  0.30558267  0.91674800  0.23439025  1.0
  Re  Re246  1  0.63891600  0.25008133  0.23439025  1.0
  Re  Re247  1  0.63891600  0.58341467  0.23439025  1.0
  Re  Re248  1  0.63891600  0.91674800  0.23439025  1.0
  Re  Re249  1  0.97224933  0.25008133  0.23439025  1.0
  Re  Re250  1  0.97224933  0.58341467  0.23439025  1.0
  Re  Re251  1  0.97224933  0.91674800  0.23439025  1.0
  Ni  Ni252  1  0.05555556  0.16666667  0.20310975  1.0
  Ni  Ni253  1  0.05555556  0.50000000  0.20310975  1.0
  Ni  Ni254  1  0.05555556  0.83333333  0.20310975  1.0
  Ni  Ni255  1  0.38888889  0.16666667  0.20310975  1.0
  Ni  Ni256  1  0.38888889  0.50000000  0.20310975  1.0
  Ni  Ni257  1  0.38888889  0.83333333  0.20310975  1.0
  Ni  Ni258  1  0.72222222  0.16666667  0.20310975  1.0
  Ni  Ni259  1  0.72222222  0.50000000  0.20310975  1.0
  Ni  Ni260  1  0.72222222  0.83333333  0.20310975  1.0
  Ni  Ni261  1  0.22222222  0.00000000  0.14060975  1.0
  Ni  Ni262  1  0.22222222  0.33333333  0.14060975  1.0
  Ni  Ni263  1  0.22222222  0.66666667  0.14060975  1.0
  Ni  Ni264  1  0.55555556  0.00000000  0.14060975  1.0
  Ni  Ni265  1  0.55555556  0.33333333  0.14060975  1.0
  Ni  Ni266  1  0.55555556  0.66666667  0.14060975  1.0
  Ni  Ni267  1  0.88888889  0.00000000  0.14060975  1.0
  Ni  Ni268  1  0.88888889  0.33333333  0.14060975  1.0
  Ni  Ni269  1  0.88888889  0.66666667  0.14060975  1.0
  Ni  Ni270  1  0.11111111  0.00000000  0.20310975  1.0
  Ni  Ni271  1  0.11111111  0.33333333  0.20310975  1.0
  Ni  Ni272  1  0.11111111  0.66666667  0.20310975  1.0
  Ni  Ni273  1  0.44444444  0.00000000  0.20310975  1.0
  Ni  Ni274  1  0.44444444  0.33333333  0.20310975  1.0
  Ni  Ni275  1  0.44444444  0.66666667  0.20310975  1.0
  Ni  Ni276  1  0.77777778  0.00000000  0.20310975  1.0
  Ni  Ni277  1  0.77777778  0.33333333  0.20310975  1.0
  Ni  Ni278  1  0.77777778  0.66666667  0.20310975  1.0
  Ni  Ni279  1  0.27777778  0.16666667  0.14060975  1.0
  Ni  Ni280  1  0.27777778  0.50000000  0.14060975  1.0
  Ni  Ni281  1  0.27777778  0.83333333  0.14060975  1.0
  Ni  Ni282  1  0.61111111  0.16666667  0.14060975  1.0
  Ni  Ni283  1  0.61111111  0.50000000  0.14060975  1.0
  Ni  Ni284  1  0.61111111  0.83333333  0.14060975  1.0
  Ni  Ni285  1  0.94444444  0.16666667  0.14060975  1.0
  Ni  Ni286  1  0.94444444  0.50000000  0.14060975  1.0
  Ni  Ni287  1  0.94444444  0.83333333  0.14060975  1.0
  Re  Re288  1  0.11116533  0.16666667  0.26560975  1.0
  Re  Re289  1  0.11116533  0.50000000  0.26560975  1.0
  Re  Re290  1  0.11116533  0.83333333  0.26560975  1.0
  Re  Re291  1  0.44449867  0.16666667  0.26560975  1.0
  Re  Re292  1  0.44449867  0.50000000  0.26560975  1.0
  Re  Re293  1  0.44449867  0.83333333  0.26560975  1.0
  Re  Re294  1  0.77783200  0.16666667  0.26560975  1.0
  Re  Re295  1  0.77783200  0.50000000  0.26560975  1.0
  Re  Re296  1  0.77783200  0.83333333  0.26560975  1.0
  Re  Re297  1  0.27783200  0.00000000  0.32810975  1.0
  Re  Re298  1  0.27783200  0.33333333  0.32810975  1.0
  Re  Re299  1  0.27783200  0.66666667  0.32810975  1.0
  Re  Re300  1  0.61116533  0.00000000  0.32810975  1.0
  Re  Re301  1  0.61116533  0.33333333  0.32810975  1.0
  Re  Re302  1  0.61116533  0.66666667  0.32810975  1.0
  Re  Re303  1  0.94449867  0.00000000  0.32810975  1.0
  Re  Re304  1  0.94449867  0.33333333  0.32810975  1.0
  Re  Re305  1  0.94449867  0.66666667  0.32810975  1.0
  Re  Re306  1  0.02775067  0.25008133  0.29689025  1.0
  Re  Re307  1  0.02775067  0.58341467  0.29689025  1.0
  Re  Re308  1  0.02775067  0.91674800  0.29689025  1.0
  Re  Re309  1  0.36108400  0.25008133  0.29689025  1.0
  Re  Re310  1  0.36108400  0.58341467  0.29689025  1.0
  Re  Re311  1  0.36108400  0.91674800  0.29689025  1.0
  Re  Re312  1  0.69441733  0.25008133  0.29689025  1.0
  Re  Re313  1  0.69441733  0.58341467  0.29689025  1.0
  Re  Re314  1  0.69441733  0.91674800  0.29689025  1.0
  Re  Re315  1  0.19441733  0.08341467  0.35939025  1.0
  Re  Re316  1  0.19441733  0.41674800  0.35939025  1.0
  Re  Re317  1  0.19441733  0.75008133  0.35939025  1.0
  Re  Re318  1  0.52775067  0.08341467  0.35939025  1.0
  Re  Re319  1  0.52775067  0.41674800  0.35939025  1.0
  Re  Re320  1  0.52775067  0.75008133  0.35939025  1.0
  Re  Re321  1  0.86108400  0.08341467  0.35939025  1.0
  Re  Re322  1  0.86108400  0.41674800  0.35939025  1.0
  Re  Re323  1  0.86108400  0.75008133  0.35939025  1.0
  Re  Re324  1  0.02775067  0.08325200  0.35932925  1.0
  Re  Re325  1  0.02775067  0.41658533  0.35932925  1.0
  Re  Re326  1  0.02775067  0.74991867  0.35932925  1.0
  Re  Re327  1  0.36108400  0.08325200  0.35932925  1.0
  Re  Re328  1  0.36108400  0.41658533  0.35932925  1.0
  Re  Re329  1  0.36108400  0.74991867  0.35932925  1.0
  Re  Re330  1  0.69441733  0.08325200  0.35932925  1.0
  Re  Re331  1  0.69441733  0.41658533  0.35932925  1.0
  Re  Re332  1  0.69441733  0.74991867  0.35932925  1.0
  Re  Re333  1  0.19441733  0.24991867  0.29682925  1.0
  Re  Re334  1  0.19441733  0.58325200  0.29682925  1.0
  Re  Re335  1  0.19441733  0.91658533  0.29682925  1.0
  Re  Re336  1  0.52775067  0.24991867  0.29682925  1.0
  Re  Re337  1  0.52775067  0.58325200  0.29682925  1.0
  Re  Re338  1  0.52775067  0.91658533  0.29682925  1.0
  Re  Re339  1  0.86108400  0.24991867  0.29682925  1.0
  Re  Re340  1  0.86108400  0.58325200  0.29682925  1.0
  Re  Re341  1  0.86108400  0.91658533  0.29682925  1.0
  Re  Re342  1  0.05550133  0.00000000  0.26560975  1.0
  Re  Re343  1  0.05550133  0.33333333  0.26560975  1.0
  Re  Re344  1  0.05550133  0.66666667  0.26560975  1.0
  Re  Re345  1  0.38883467  0.00000000  0.26560975  1.0
  Re  Re346  1  0.38883467  0.33333333  0.26560975  1.0
  Re  Re347  1  0.38883467  0.66666667  0.26560975  1.0
  Re  Re348  1  0.72216800  0.00000000  0.26560975  1.0
  Re  Re349  1  0.72216800  0.33333333  0.26560975  1.0
  Re  Re350  1  0.72216800  0.66666667  0.26560975  1.0
  Re  Re351  1  0.22216800  0.16666667  0.32810975  1.0
  Re  Re352  1  0.22216800  0.50000000  0.32810975  1.0
  Re  Re353  1  0.22216800  0.83333333  0.32810975  1.0
  Re  Re354  1  0.55550133  0.16666667  0.32810975  1.0
  Re  Re355  1  0.55550133  0.50000000  0.32810975  1.0
  Re  Re356  1  0.55550133  0.83333333  0.32810975  1.0
  Re  Re357  1  0.88883467  0.16666667  0.32810975  1.0
  Re  Re358  1  0.88883467  0.50000000  0.32810975  1.0
  Re  Re359  1  0.88883467  0.83333333  0.32810975  1.0
  Re  Re360  1  0.13891600  0.24991867  0.35932925  1.0
  Re  Re361  1  0.13891600  0.58325200  0.35932925  1.0
  Re  Re362  1  0.13891600  0.91658533  0.35932925  1.0
  Re  Re363  1  0.47224933  0.24991867  0.35932925  1.0
  Re  Re364  1  0.47224933  0.58325200  0.35932925  1.0
  Re  Re365  1  0.47224933  0.91658533  0.35932925  1.0
  Re  Re366  1  0.80558267  0.24991867  0.35932925  1.0
  Re  Re367  1  0.80558267  0.58325200  0.35932925  1.0
  Re  Re368  1  0.80558267  0.91658533  0.35932925  1.0
  Re  Re369  1  0.30558267  0.08325200  0.29682925  1.0
  Re  Re370  1  0.30558267  0.41658533  0.29682925  1.0
  Re  Re371  1  0.30558267  0.74991867  0.29682925  1.0
  Re  Re372  1  0.63891600  0.08325200  0.29682925  1.0
  Re  Re373  1  0.63891600  0.41658533  0.29682925  1.0
  Re  Re374  1  0.63891600  0.74991867  0.29682925  1.0
  Re  Re375  1  0.97224933  0.08325200  0.29682925  1.0
  Re  Re376  1  0.97224933  0.41658533  0.29682925  1.0
  Re  Re377  1  0.97224933  0.74991867  0.29682925  1.0
  Re  Re378  1  0.13891600  0.08341467  0.29689025  1.0
  Re  Re379  1  0.13891600  0.41674800  0.29689025  1.0
  Re  Re380  1  0.13891600  0.75008133  0.29689025  1.0
  Re  Re381  1  0.47224933  0.08341467  0.29689025  1.0
  Re  Re382  1  0.47224933  0.41674800  0.29689025  1.0
  Re  Re383  1  0.47224933  0.75008133  0.29689025  1.0
  Re  Re384  1  0.80558267  0.08341467  0.29689025  1.0
  Re  Re385  1  0.80558267  0.41674800  0.29689025  1.0
  Re  Re386  1  0.80558267  0.75008133  0.29689025  1.0
  Re  Re387  1  0.30558267  0.25008133  0.35939025  1.0
  Re  Re388  1  0.30558267  0.58341467  0.35939025  1.0
  Re  Re389  1  0.30558267  0.91674800  0.35939025  1.0
  Re  Re390  1  0.63891600  0.25008133  0.35939025  1.0
  Re  Re391  1  0.63891600  0.58341467  0.35939025  1.0
  Re  Re392  1  0.63891600  0.91674800  0.35939025  1.0
  Re  Re393  1  0.97224933  0.25008133  0.35939025  1.0
  Re  Re394  1  0.97224933  0.58341467  0.35939025  1.0
  Re  Re395  1  0.97224933  0.91674800  0.35939025  1.0
  Ni  Ni396  1  0.05555556  0.16666667  0.32810975  1.0
  Ni  Ni397  1  0.05555556  0.50000000  0.32810975  1.0
  Ni  Ni398  1  0.05555556  0.83333333  0.32810975  1.0
  Ni  Ni399  1  0.38888889  0.16666667  0.32810975  1.0
  Ni  Ni400  1  0.38888889  0.50000000  0.32810975  1.0
  Ni  Ni401  1  0.38888889  0.83333333  0.32810975  1.0
  Ni  Ni402  1  0.72222222  0.16666667  0.32810975  1.0
  Ni  Ni403  1  0.72222222  0.50000000  0.32810975  1.0
  Ni  Ni404  1  0.72222222  0.83333333  0.32810975  1.0
  Ni  Ni405  1  0.22222222  0.00000000  0.26560975  1.0
  Ni  Ni406  1  0.22222222  0.33333333  0.26560975  1.0
  Ni  Ni407  1  0.22222222  0.66666667  0.26560975  1.0
  Ni  Ni408  1  0.55555556  0.00000000  0.26560975  1.0
  Ni  Ni409  1  0.55555556  0.33333333  0.26560975  1.0
  Ni  Ni410  1  0.55555556  0.66666667  0.26560975  1.0
  Ni  Ni411  1  0.88888889  0.00000000  0.26560975  1.0
  Ni  Ni412  1  0.88888889  0.33333333  0.26560975  1.0
  Ni  Ni413  1  0.88888889  0.66666667  0.26560975  1.0
  Ni  Ni414  1  0.11111111  0.00000000  0.32810975  1.0
  Ni  Ni415  1  0.11111111  0.33333333  0.32810975  1.0
  Ni  Ni416  1  0.11111111  0.66666667  0.32810975  1.0
  Ni  Ni417  1  0.44444444  0.00000000  0.32810975  1.0
  Ni  Ni418  1  0.44444444  0.33333333  0.32810975  1.0
  Ni  Ni419  1  0.44444444  0.66666667  0.32810975  1.0
  Ni  Ni420  1  0.77777778  0.00000000  0.32810975  1.0
  Ni  Ni421  1  0.77777778  0.33333333  0.32810975  1.0
  Ni  Ni422  1  0.77777778  0.66666667  0.32810975  1.0
  Ni  Ni423  1  0.27777778  0.16666667  0.26560975  1.0
  Ni  Ni424  1  0.27777778  0.50000000  0.26560975  1.0
  Ni  Ni425  1  0.27777778  0.83333333  0.26560975  1.0
  Ni  Ni426  1  0.61111111  0.16666667  0.26560975  1.0
  Ni  Ni427  1  0.61111111  0.50000000  0.26560975  1.0
  Ni  Ni428  1  0.61111111  0.83333333  0.26560975  1.0
  Ni  Ni429  1  0.94444444  0.16666667  0.26560975  1.0
  Ni  Ni430  1  0.94444444  0.50000000  0.26560975  1.0
  Ni  Ni431  1  0.94444444  0.83333333  0.26560975  1.0
