# generated using pymatgen
data_Re3Ni
_symmetry_space_group_name_H-M   'P 1'
_cell_length_a   16.28198541
_cell_length_b   16.28198541
_cell_length_c   30.66311500
_cell_angle_alpha   90.00000000
_cell_angle_beta   90.00000000
_cell_angle_gamma   120.00000000
_symmetry_Int_Tables_number   1
_chemical_formula_structural   Re3Ni
_chemical_formula_sum   'Re162 Ni54'
_cell_volume   7039.82115261
_cell_formula_units_Z   54
loop_
 _symmetry_equiv_pos_site_id
 _symmetry_equiv_pos_as_xyz
  1  'x, y, z'
loop_
 _atom_site_type_symbol
 _atom_site_label
 _atom_site_symmetry_multiplicity
 _atom_site_fract_x
 _atom_site_fract_y
 _atom_site_fract_z
 _atom_site_occupancy
  Re  Re0  1  0.05550133  0.11100267  0.03571429  1.0
  Re  Re1  1  0.05550133  0.44433600  0.03571429  1.0
  Re  Re2  1  0.05550133  0.77766933  0.03571429  1.0
  Re  Re3  1  0.38883467  0.11100267  0.03571429  1.0
  Re  Re4  1  0.38883467  0.44433600  0.03571429  1.0
  Re  Re5  1  0.38883467  0.77766933  0.03571429  1.0
  Re  Re6  1  0.72216800  0.11100267  0.03571429  1.0
  Re  Re7  1  0.72216800  0.44433600  0.03571429  1.0
  Re  Re8  1  0.72216800  0.77766933  0.03571429  1.0
  Re  Re9  1  0.05550133  0.27783200  0.03571429  1.0
  Re  Re10  1  0.05550133  0.61116533  0.03571429  1.0
  Re  Re11  1  0.05550133  0.94449867  0.03571429  1.0
  Re  Re12  1  0.38883467  0.27783200  0.03571429  1.0
  Re  Re13  1  0.38883467  0.61116533  0.03571429  1.0
  Re  Re14  1  0.38883467  0.94449867  0.03571429  1.0
  Re  Re15  1  0.72216800  0.27783200  0.03571429  1.0
  Re  Re16  1  0.72216800  0.61116533  0.03571429  1.0
  Re  Re17  1  0.72216800  0.94449867  0.03571429  1.0
  Re  Re18  1  0.22233067  0.27783200  0.03571429  1.0
  Re  Re19  1  0.22233067  0.61116533  0.03571429  1.0
  Re  Re20  1  0.22233067  0.94449867  0.03571429  1.0
  Re  Re21  1  0.55566400  0.27783200  0.03571429  1.0
  Re  Re22  1  0.55566400  0.61116533  0.03571429  1.0
  Re  Re23  1  0.55566400  0.94449867  0.03571429  1.0
  Re  Re24  1  0.88899733  0.27783200  0.03571429  1.0
  Re  Re25  1  0.88899733  0.61116533  0.03571429  1.0
  Re  Re26  1  0.88899733  0.94449867  0.03571429  1.0
  Re  Re27  1  0.27783200  0.22233067  0.10714286  1.0
  Re  Re28  1  0.27783200  0.55566400  0.10714286  1.0
  Re  Re29  1  0.27783200  0.88899733  0.10714286  1.0
  Re  Re30  1  0.61116533  0.22233067  0.10714286  1.0
  Re  Re31  1  0.61116533  0.55566400  0.10714286  1.0
  Re  Re32  1  0.61116533  0.88899733  0.10714286  1.0
  Re  Re33  1  0.94449867  0.22233067  0.10714286  1.0
  Re  Re34  1  0.94449867  0.55566400  0.10714286  1.0
  Re  Re35  1  0.94449867  0.88899733  0.10714286  1.0
  Re  Re36  1  0.27783200  0.05550133  0.10714286  1.0
  Re  Re37  1  0.27783200  0.38883467  0.10714286  1.0
  Re  Re38  1  0.27783200  0.72216800  0.10714286  1.0
  Re  Re39  1  0.61116533  0.05550133  0.10714286  1.0
  Re  Re40  1  0.61116533  0.38883467  0.10714286  1.0
  Re  Re41  1  0.61116533  0.72216800  0.10714286  1.0
  Re  Re42  1  0.94449867  0.05550133  0.10714286  1.0
  Re  Re43  1  0.94449867  0.38883467  0.10714286  1.0
  Re  Re44  1  0.94449867  0.72216800  0.10714286  1.0
  Re  Re45  1  0.11100267  0.05550133  0.10714286  1.0
  Re  Re46  1  0.11100267  0.38883467  0.10714286  1.0
  Re  Re47  1  0.11100267  0.72216800  0.10714286  1.0
  Re  Re48  1  0.44433600  0.05550133  0.10714286  1.0
  Re  Re49  1  0.44433600  0.38883467  0.10714286  1.0
  Re  Re50  1  0.44433600  0.72216800  0.10714286  1.0
  Re  Re51  1  0.77766933  0.05550133  0.10714286  1.0
  Re  Re52  1  0.77766933  0.38883467  0.10714286  1.0
  Re  Re53  1  0.77766933  0.72216800  0.10714286  1.0
  Ni  Ni54  1  0.11111111  0.22222222  0.10714286  1.0
  Ni  Ni55  1  0.11111111  0.55555556  0.10714286  1.0
  Ni  Ni56  1  0.11111111  0.88888889  0.10714286  1.0
  Ni  Ni57  1  0.44444444  0.22222222  0.10714286  1.0
  Ni  Ni58  1  0.44444444  0.55555556  0.10714286  1.0
  Ni  Ni59  1  0.44444444  0.88888889  0.10714286  1.0
  Ni  Ni60  1  0.77777778  0.22222222  0.10714286  1.0
  Ni  Ni61  1  0.77777778  0.55555556  0.10714286  1.0
  Ni  Ni62  1  0.77777778  0.88888889  0.10714286  1.0
  Ni  Ni63  1  0.22222222  0.11111111  0.03571429  1.0
  Ni  Ni64  1  0.22222222  0.44444444  0.03571429  1.0
  Ni  Ni65  1  0.22222222  0.77777778  0.03571429  1.0
  Ni  Ni66  1  0.55555556  0.11111111  0.03571429  1.0
  Ni  Ni67  1  0.55555556  0.44444444  0.03571429  1.0
  Ni  Ni68  1  0.55555556  0.77777778  0.03571429  1.0
  Ni  Ni69  1  0.88888889  0.11111111  0.03571429  1.0
  Ni  Ni70  1  0.88888889  0.44444444  0.03571429  1.0
  Ni  Ni71  1  0.88888889  0.77777778  0.03571429  1.0
  Re  Re72  1  0.05550133  0.11100267  0.17857143  1.0
  Re  Re73  1  0.05550133  0.44433600  0.17857143  1.0
  Re  Re74  1  0.05550133  0.77766933  0.17857143  1.0
  Re  Re75  1  0.38883467  0.11100267  0.17857143  1.0
  Re  Re76  1  0.38883467  0.44433600  0.17857143  1.0
  Re  Re77  1  0.38883467  0.77766933  0.17857143  1.0
  Re  Re78  1  0.72216800  0.11100267  0.17857143  1.0
  Re  Re79  1  0.72216800  0.44433600  0.17857143  1.0
  Re  Re80  1  0.72216800  0.77766933  0.17857143  1.0
  Re  Re81  1  0.05550133  0.27783200  0.17857143  1.0
  Re  Re82  1  0.05550133  0.61116533  0.17857143  1.0
  Re  Re83  1  0.05550133  0.94449867  0.17857143  1.0
  Re  Re84  1  0.38883467  0.27783200  0.17857143  1.0
  Re  Re85  1  0.38883467  0.61116533  0.17857143  1.0
  Re  Re86  1  0.38883467  0.94449867  0.17857143  1.0
  Re  Re87  1  0.72216800  0.27783200  0.17857143  1.0
  Re  Re88  1  0.72216800  0.61116533  0.17857143  1.0
  Re  Re89  1  0.72216800  0.94449867  0.17857143  1.0
  Re  Re90  1  0.22233067  0.27783200  0.17857143  1.0
  Re  Re91  1  0.22233067  0.61116533  0.17857143  1.0
  Re  Re92  1  0.22233067  0.94449867  0.17857143  1.0
  Re  Re93  1  0.55566400  0.27783200  0.17857143  1.0
  Re  Re94  1  0.55566400  0.61116533  0.17857143  1.0
  Re  Re95  1  0.55566400  0.94449867  0.17857143  1.0
  Re  Re96  1  0.88899733  0.27783200  0.17857143  1.0
  Re  Re97  1  0.88899733  0.61116533  0.17857143  1.0
  Re  Re98  1  0.88899733  0.94449867  0.17857143  1.0
  Re  Re99  1  0.27783200  0.22233067  0.25000000  1.0
  Re  Re100  1  0.27783200  0.55566400  0.25000000  1.0
  Re  Re101  1  0.27783200  0.88899733  0.25000000  1.0
  Re  Re102  1  0.61116533  0.22233067  0.25000000  1.0
  Re  Re103  1  0.61116533  0.55566400  0.25000000  1.0
  Re  Re104  1  0.61116533  0.88899733  0.25000000  1.0
  Re  Re105  1  0.94449867  0.22233067  0.25000000  1.0
  Re  Re106  1  0.94449867  0.55566400  0.25000000  1.0
  Re  Re107  1  0.94449867  0.88899733  0.25000000  1.0
  Re  Re108  1  0.27783200  0.05550133  0.25000000  1.0
  Re  Re109  1  0.27783200  0.38883467  0.25000000  1.0
  Re  Re110  1  0.27783200  0.72216800  0.25000000  1.0
  Re  Re111  1  0.61116533  0.05550133  0.25000000  1.0
  Re  Re112  1  0.61116533  0.38883467  0.25000000  1.0
  Re  Re113  1  0.61116533  0.72216800  0.25000000  1.0
  Re  Re114  1  0.94449867  0.05550133  0.25000000  1.0
  Re  Re115  1  0.94449867  0.38883467  0.25000000  1.0
  Re  Re116  1  0.94449867  0.72216800  0.25000000  1.0
  Re  Re117  1  0.11100267  0.05550133  0.25000000  1.0
  Re  Re118  1  0.11100267  0.38883467  0.25000000  1.0
  Re  Re119  1  0.11100267  0.72216800  0.25000000  1.0
  Re  Re120  1  0.44433600  0.05550133  0.25000000  1.0
  Re  Re121  1  0.44433600  0.38883467  0.25000000  1.0
  Re  Re122  1  0.44433600  0.72216800  0.25000000  1.0
  Re  Re123  1  0.77766933  0.05550133  0.25000000  1.0
  Re  Re124  1  0.77766933  0.38883467  0.25000000  1.0
  Re  Re125  1  0.77766933  0.72216800  0.25000000  1.0
  Ni  Ni126  1  0.11111111  0.22222222  0.25000000  1.0
  Ni  Ni127  1  0.11111111  0.55555556  0.25000000  1.0
  Ni  Ni128  1  0.11111111  0.88888889  0.25000000  1.0
  Ni  Ni129  1  0.44444444  0.22222222  0.25000000  1.0
  Ni  Ni130  1  0.44444444  0.55555556  0.25000000  1.0
  Ni  Ni131  1  0.44444444  0.88888889  0.25000000  1.0
  Ni  Ni132  1  0.77777778  0.22222222  0.25000000  1.0
  Ni  Ni133  1  0.77777778  0.55555556  0.25000000  1.0
  Ni  Ni134  1  0.77777778  0.88888889  0.25000000  1.0
  Ni  Ni135  1  0.22222222  0.11111111  0.17857143  1.0
  Ni  Ni136  1  0.22222222  0.44444444  0.17857143  1.0
  Ni  Ni137  1  0.22222222  0.77777778  0.17857143  1.0
  Ni  Ni138  1  0.55555556  0.11111111  0.17857143  1.0
  Ni  Ni139  1  0.55555556  0.44444444  0.17857143  1.0
  Ni  Ni140  1  0.55555556  0.77777778  0.17857143  1.0
  Ni  Ni141  1  0.88888889  0.11111111  0.17857143  1.0
  Ni  Ni142  1  0.88888889  0.44444444  0.17857143  1.0
  Ni  Ni143  1  0.88888889  0.77777778  0.17857143  1.0
  Re  Re144  1  0.05550133  0.11100267  0.32142857  1.0
  Re  Re145  1  0.05550133  0.44433600  0.32142857  1.0
  Re  Re146  1  0.05550133  0.77766933  0.32142857  1.0
  Re  Re147  1  0.38883467  0.11100267  0.32142857  1.0
  Re  Re148  1  0.38883467  0.44433600  0.32142857  1.0
  Re  Re149  1  0.38883467  0.77766933  0.32142857  1.0
  Re  Re150  1  0.72216800  0.11100267  0.32142857  1.0
  Re  Re151  1  0.72216800  0.44433600  0.32142857  1.0
  Re  Re152  1  0.72216800  0.77766933  0.32142857  1.0
  Re  Re153  1  0.05550133  0.27783200  0.32142857  1.0
  Re  Re154  1  0.05550133  0.61116533  0.32142857  1.0
  Re  Re155  1  0.05550133  0.94449867  0.32142857  1.0
  Re  Re156  1  0.38883467  0.27783200  0.32142857  1.0
  Re  Re157  1  0.38883467  0.61116533  0.32142857  1.0
  Re  Re158  1  0.38883467  0.94449867  0.32142857  1.0
  Re  Re159  1  0.72216800  0.27783200  0.32142857  1.0
  Re  Re160  1  0.72216800  0.61116533  0.32142857  1.0
  Re  Re161  1  0.72216800  0.94449867  0.32142857  1.0
  Re  Re162  1  0.22233067  0.27783200  0.32142857  1.0
  Re  Re163  1  0.22233067  0.61116533  0.32142857  1.0
  Re  Re164  1  0.22233067  0.94449867  0.32142857  1.0
  Re  Re165  1  0.55566400  0.27783200  0.32142857  1.0
  Re  Re166  1  0.55566400  0.61116533  0.32142857  1.0
  Re  Re167  1  0.55566400  0.94449867  0.32142857  1.0
  Re  Re168  1  0.88899733  0.27783200  0.32142857  1.0
  Re  Re169  1  0.88899733  0.61116533  0.32142857  1.0
  Re  Re170  1  0.88899733  0.94449867  0.32142857  1.0
  Re  Re171  1  0.27783200  0.22233067  0.39285714  1.0
  Re  Re172  1  0.27783200  0.55566400  0.39285714  1.0
  Re  Re173  1  0.27783200  0.88899733  0.39285714  1.0
  Re  Re174  1  0.61116533  0.22233067  0.39285714  1.0
  Re  Re175  1  0.61116533  0.55566400  0.39285714  1.0
  Re  Re176  1  0.61116533  0.88899733  0.39285714  1.0
  Re  Re177  1  0.94449867  0.22233067  0.39285714  1.0
  Re  Re178  1  0.94449867  0.55566400  0.39285714  1.0
  Re  Re179  1  0.94449867  0.88899733  0.39285714  1.0
  Re  Re180  1  0.27783200  0.05550133  0.39285714  1.0
  Re  Re181  1  0.27783200  0.38883467  0.39285714  1.0
  Re  Re182  1  0.27783200  0.72216800  0.39285714  1.0
  Re  Re183  1  0.61116533  0.05550133  0.39285714  1.0
  Re  Re184  1  0.61116533  0.38883467  0.39285714  1.0
  Re  Re185  1  0.61116533  0.72216800  0.39285714  1.0
  Re  Re186  1  0.94449867  0.05550133  0.39285714  1.0
  Re  Re187  1  0.94449867  0.38883467  0.39285714  1.0
  Re  Re188  1  0.94449867  0.72216800  0.39285714  1.0
  Re  Re189  1  0.11100267  0.05550133  0.39285714  1.0
  Re  Re190  1  0.11100267  0.38883467  0.39285714  1.0
  Re  Re191  1  0.11100267  0.72216800  0.39285714  1.0
  Re  Re192  1  0.44433600  0.05550133  0.39285714  1.0
  Re  Re193  1  0.44433600  0.38883467  0.39285714  1.0
  Re  Re194  1  0.44433600  0.72216800  0.39285714  1.0
  Re  Re195  1  0.77766933  0.05550133  0.39285714  1.0
  Re  Re196  1  0.77766933  0.38883467  0.39285714  1.0
  Re  Re197  1  0.77766933  0.72216800  0.39285714  1.0
  Ni  Ni198  1  0.11111111  0.22222222  0.39285714  1.0
  Ni  Ni199  1  0.11111111  0.55555556  0.39285714  1.0
  Ni  Ni200  1  0.11111111  0.88888889  0.39285714  1.0
  Ni  Ni201  1  0.44444444  0.22222222  0.39285714  1.0
  Ni  Ni202  1  0.44444444  0.55555556  0.39285714  1.0
  Ni  Ni203  1  0.44444444  0.88888889  0.39285714  1.0
  Ni  Ni204  1  0.77777778  0.22222222  0.39285714  1.0
  Ni  Ni205  1  0.77777778  0.55555556  0.39285714  1.0
  Ni  Ni206  1  0.77777778  0.88888889  0.39285714  1.0
  Ni  Ni207  1  0.22222222  0.11111111  0.32142857  1.0
  Ni  Ni208  1  0.22222222  0.44444444  0.32142857  1.0
  Ni  Ni209  1  0.22222222  0.77777778  0.32142857  1.0
  Ni  Ni210  1  0.55555556  0.11111111  0.32142857  1.0
  Ni  Ni211  1  0.55555556  0.44444444  0.32142857  1.0
  Ni  Ni212  1  0.55555556  0.77777778  0.32142857  1.0
  Ni  Ni213  1  0.88888889  0.11111111  0.32142857  1.0
  Ni  Ni214  1  0.88888889  0.44444444  0.32142857  1.0
  Ni  Ni215  1  0.88888889  0.77777778  0.32142857  1.0
