# generated using pymatgen
data_Re3Ni
_symmetry_space_group_name_H-M   'P 1'
_cell_length_a   20.92361667
_cell_length_b   30.91733804
_cell_length_c   30.02529325
_cell_angle_alpha   97.62722824
_cell_angle_beta   92.44146423
_cell_angle_gamma   109.20873933
_symmetry_Int_Tables_number   1
_chemical_formula_structural   Re3Ni
_chemical_formula_sum   'Re432 Ni144'
_cell_volume   18102.39724956
_cell_formula_units_Z   144
loop_
 _symmetry_equiv_pos_site_id
 _symmetry_equiv_pos_as_xyz
  1  'x, y, z'
loop_
 _atom_site_type_symbol
 _atom_site_label
 _atom_site_symmetry_multiplicity
 _atom_site_fract_x
 _atom_site_fract_y
 _atom_site_fract_z
 _atom_site_occupancy
  Ni  Ni0  1  0.08644988  0.13428185  0.10182926  1.0
  Ni  Ni1  1  0.08644988  0.46761519  0.10182926  1.0
  Ni  Ni2  1  0.08644988  0.80094852  0.10182926  1.0
  Ni  Ni3  1  0.41978321  0.13428185  0.10182926  1.0
  Ni  Ni4  1  0.41978321  0.46761519  0.10182926  1.0
  Ni  Ni5  1  0.41978321  0.80094852  0.10182926  1.0
  Ni  Ni6  1  0.75311654  0.13428185  0.10182926  1.0
  Ni  Ni7  1  0.75311654  0.46761519  0.10182926  1.0
  Ni  Ni8  1  0.75311654  0.80094852  0.10182926  1.0
  Ni  Ni9  1  0.16052395  0.02317074  0.04627370  1.0
  Ni  Ni10  1  0.16052395  0.35650407  0.04627370  1.0
  Ni  Ni11  1  0.16052395  0.68983741  0.04627370  1.0
  Ni  Ni12  1  0.49385728  0.02317074  0.04627370  1.0
  Ni  Ni13  1  0.49385728  0.35650407  0.04627370  1.0
  Ni  Ni14  1  0.49385728  0.68983741  0.04627370  1.0
  Ni  Ni15  1  0.82719062  0.02317074  0.04627370  1.0
  Ni  Ni16  1  0.82719062  0.35650407  0.04627370  1.0
  Ni  Ni17  1  0.82719062  0.68983741  0.04627370  1.0
  Ni  Ni18  1  0.32101778  0.00465222  0.09257000  1.0
  Ni  Ni19  1  0.32101778  0.33798556  0.09257000  1.0
  Ni  Ni20  1  0.32101778  0.67131889  0.09257000  1.0
  Ni  Ni21  1  0.65435111  0.00465222  0.09257000  1.0
  Ni  Ni22  1  0.65435111  0.33798556  0.09257000  1.0
  Ni  Ni23  1  0.65435111  0.67131889  0.09257000  1.0
  Ni  Ni24  1  0.98768444  0.00465222  0.09257000  1.0
  Ni  Ni25  1  0.98768444  0.33798556  0.09257000  1.0
  Ni  Ni26  1  0.98768444  0.67131889  0.09257000  1.0
  Ni  Ni27  1  0.06175852  0.22687444  0.03701444  1.0
  Ni  Ni28  1  0.06175852  0.56020778  0.03701444  1.0
  Ni  Ni29  1  0.06175852  0.89354111  0.03701444  1.0
  Ni  Ni30  1  0.39509185  0.22687444  0.03701444  1.0
  Ni  Ni31  1  0.39509185  0.56020778  0.03701444  1.0
  Ni  Ni32  1  0.39509185  0.89354111  0.03701444  1.0
  Ni  Ni33  1  0.72842519  0.22687444  0.03701444  1.0
  Ni  Ni34  1  0.72842519  0.56020778  0.03701444  1.0
  Ni  Ni35  1  0.72842519  0.89354111  0.03701444  1.0
  Ni  Ni36  1  0.27163506  0.02317074  0.21294037  1.0
  Ni  Ni37  1  0.27163506  0.35650407  0.21294037  1.0
  Ni  Ni38  1  0.27163506  0.68983741  0.21294037  1.0
  Ni  Ni39  1  0.60496840  0.02317074  0.21294037  1.0
  Ni  Ni40  1  0.60496840  0.35650407  0.21294037  1.0
  Ni  Ni41  1  0.60496840  0.68983741  0.21294037  1.0
  Ni  Ni42  1  0.93830173  0.02317074  0.21294037  1.0
  Ni  Ni43  1  0.93830173  0.35650407  0.21294037  1.0
  Ni  Ni44  1  0.93830173  0.68983741  0.21294037  1.0
  Ni  Ni45  1  0.01237580  0.24539296  0.15738481  1.0
  Ni  Ni46  1  0.01237580  0.57872630  0.15738481  1.0
  Ni  Ni47  1  0.01237580  0.91205963  0.15738481  1.0
  Ni  Ni48  1  0.34570914  0.24539296  0.15738481  1.0
  Ni  Ni49  1  0.34570914  0.57872630  0.15738481  1.0
  Ni  Ni50  1  0.34570914  0.91205963  0.15738481  1.0
  Ni  Ni51  1  0.67904247  0.24539296  0.15738481  1.0
  Ni  Ni52  1  0.67904247  0.57872630  0.15738481  1.0
  Ni  Ni53  1  0.67904247  0.91205963  0.15738481  1.0
  Ni  Ni54  1  0.17286963  0.22687444  0.20368111  1.0
  Ni  Ni55  1  0.17286963  0.56020778  0.20368111  1.0
  Ni  Ni56  1  0.17286963  0.89354111  0.20368111  1.0
  Ni  Ni57  1  0.50620296  0.22687444  0.20368111  1.0
  Ni  Ni58  1  0.50620296  0.56020778  0.20368111  1.0
  Ni  Ni59  1  0.50620296  0.89354111  0.20368111  1.0
  Ni  Ni60  1  0.83953630  0.22687444  0.20368111  1.0
  Ni  Ni61  1  0.83953630  0.56020778  0.20368111  1.0
  Ni  Ni62  1  0.83953630  0.89354111  0.20368111  1.0
  Ni  Ni63  1  0.24694370  0.11576333  0.14812556  1.0
  Ni  Ni64  1  0.24694370  0.44909667  0.14812556  1.0
  Ni  Ni65  1  0.24694370  0.78243000  0.14812556  1.0
  Ni  Ni66  1  0.58027704  0.11576333  0.14812556  1.0
  Ni  Ni67  1  0.58027704  0.44909667  0.14812556  1.0
  Ni  Ni68  1  0.58027704  0.78243000  0.14812556  1.0
  Ni  Ni69  1  0.91361037  0.11576333  0.14812556  1.0
  Ni  Ni70  1  0.91361037  0.44909667  0.14812556  1.0
  Ni  Ni71  1  0.91361037  0.78243000  0.14812556  1.0
  Ni  Ni72  1  0.12348691  0.24539296  0.32405148  1.0
  Ni  Ni73  1  0.12348691  0.57872630  0.32405148  1.0
  Ni  Ni74  1  0.12348691  0.91205963  0.32405148  1.0
  Ni  Ni75  1  0.45682025  0.24539296  0.32405148  1.0
  Ni  Ni76  1  0.45682025  0.57872630  0.32405148  1.0
  Ni  Ni77  1  0.45682025  0.91205963  0.32405148  1.0
  Ni  Ni78  1  0.79015358  0.24539296  0.32405148  1.0
  Ni  Ni79  1  0.79015358  0.57872630  0.32405148  1.0
  Ni  Ni80  1  0.79015358  0.91205963  0.32405148  1.0
  Ni  Ni81  1  0.19756099  0.13428185  0.26849593  1.0
  Ni  Ni82  1  0.19756099  0.46761519  0.26849593  1.0
  Ni  Ni83  1  0.19756099  0.80094852  0.26849593  1.0
  Ni  Ni84  1  0.53089432  0.13428185  0.26849593  1.0
  Ni  Ni85  1  0.53089432  0.46761519  0.26849593  1.0
  Ni  Ni86  1  0.53089432  0.80094852  0.26849593  1.0
  Ni  Ni87  1  0.86422765  0.13428185  0.26849593  1.0
  Ni  Ni88  1  0.86422765  0.46761519  0.26849593  1.0
  Ni  Ni89  1  0.86422765  0.80094852  0.26849593  1.0
  Ni  Ni90  1  0.02472148  0.11576333  0.31479222  1.0
  Ni  Ni91  1  0.02472148  0.44909667  0.31479222  1.0
  Ni  Ni92  1  0.02472148  0.78243000  0.31479222  1.0
  Ni  Ni93  1  0.35805481  0.11576333  0.31479222  1.0
  Ni  Ni94  1  0.35805481  0.44909667  0.31479222  1.0
  Ni  Ni95  1  0.35805481  0.78243000  0.31479222  1.0
  Ni  Ni96  1  0.69138815  0.11576333  0.31479222  1.0
  Ni  Ni97  1  0.69138815  0.44909667  0.31479222  1.0
  Ni  Ni98  1  0.69138815  0.78243000  0.31479222  1.0
  Ni  Ni99  1  0.09879556  0.00465222  0.25923667  1.0
  Ni  Ni100  1  0.09879556  0.33798556  0.25923667  1.0
  Ni  Ni101  1  0.09879556  0.67131889  0.25923667  1.0
  Ni  Ni102  1  0.43212889  0.00465222  0.25923667  1.0
  Ni  Ni103  1  0.43212889  0.33798556  0.25923667  1.0
  Ni  Ni104  1  0.43212889  0.67131889  0.25923667  1.0
  Ni  Ni105  1  0.76546222  0.00465222  0.25923667  1.0
  Ni  Ni106  1  0.76546222  0.33798556  0.25923667  1.0
  Ni  Ni107  1  0.76546222  0.67131889  0.25923667  1.0
  Ni  Ni108  1  0.30867210  0.13428185  0.43516259  1.0
  Ni  Ni109  1  0.30867210  0.46761519  0.43516259  1.0
  Ni  Ni110  1  0.30867210  0.80094852  0.43516259  1.0
  Ni  Ni111  1  0.64200543  0.13428185  0.43516259  1.0
  Ni  Ni112  1  0.64200543  0.46761519  0.43516259  1.0
  Ni  Ni113  1  0.64200543  0.80094852  0.43516259  1.0
  Ni  Ni114  1  0.97533877  0.13428185  0.43516259  1.0
  Ni  Ni115  1  0.97533877  0.46761519  0.43516259  1.0
  Ni  Ni116  1  0.97533877  0.80094852  0.43516259  1.0
  Ni  Ni117  1  0.04941284  0.02317074  0.37960704  1.0
  Ni  Ni118  1  0.04941284  0.35650407  0.37960704  1.0
  Ni  Ni119  1  0.04941284  0.68983741  0.37960704  1.0
  Ni  Ni120  1  0.38274617  0.02317074  0.37960704  1.0
  Ni  Ni121  1  0.38274617  0.35650407  0.37960704  1.0
  Ni  Ni122  1  0.38274617  0.68983741  0.37960704  1.0
  Ni  Ni123  1  0.71607951  0.02317074  0.37960704  1.0
  Ni  Ni124  1  0.71607951  0.35650407  0.37960704  1.0
  Ni  Ni125  1  0.71607951  0.68983741  0.37960704  1.0
  Ni  Ni126  1  0.20990667  0.00465222  0.42590333  1.0
  Ni  Ni127  1  0.20990667  0.33798556  0.42590333  1.0
  Ni  Ni128  1  0.20990667  0.67131889  0.42590333  1.0
  Ni  Ni129  1  0.54324000  0.00465222  0.42590333  1.0
  Ni  Ni130  1  0.54324000  0.33798556  0.42590333  1.0
  Ni  Ni131  1  0.54324000  0.67131889  0.42590333  1.0
  Ni  Ni132  1  0.87657333  0.00465222  0.42590333  1.0
  Ni  Ni133  1  0.87657333  0.33798556  0.42590333  1.0
  Ni  Ni134  1  0.87657333  0.67131889  0.42590333  1.0
  Ni  Ni135  1  0.28398074  0.22687444  0.37034778  1.0
  Ni  Ni136  1  0.28398074  0.56020778  0.37034778  1.0
  Ni  Ni137  1  0.28398074  0.89354111  0.37034778  1.0
  Ni  Ni138  1  0.61731407  0.22687444  0.37034778  1.0
  Ni  Ni139  1  0.61731407  0.56020778  0.37034778  1.0
  Ni  Ni140  1  0.61731407  0.89354111  0.37034778  1.0
  Ni  Ni141  1  0.95064741  0.22687444  0.37034778  1.0
  Ni  Ni142  1  0.95064741  0.56020778  0.37034778  1.0
  Ni  Ni143  1  0.95064741  0.89354111  0.37034778  1.0
  Re  Re144  1  0.06169827  0.06018970  0.03697830  1.0
  Re  Re145  1  0.06169827  0.39352304  0.03697830  1.0
  Re  Re146  1  0.06169827  0.72685637  0.03697830  1.0
  Re  Re147  1  0.39503160  0.06018970  0.03697830  1.0
  Re  Re148  1  0.39503160  0.39352304  0.03697830  1.0
  Re  Re149  1  0.39503160  0.72685637  0.03697830  1.0
  Re  Re150  1  0.72836494  0.06018970  0.03697830  1.0
  Re  Re151  1  0.72836494  0.39352304  0.03697830  1.0
  Re  Re152  1  0.72836494  0.72685637  0.03697830  1.0
  Re  Re153  1  0.32095753  0.17130081  0.09253385  1.0
  Re  Re154  1  0.32095753  0.50463415  0.09253385  1.0
  Re  Re155  1  0.32095753  0.83796748  0.09253385  1.0
  Re  Re156  1  0.65429086  0.17130081  0.09253385  1.0
  Re  Re157  1  0.65429086  0.50463415  0.09253385  1.0
  Re  Re158  1  0.65429086  0.83796748  0.09253385  1.0
  Re  Re159  1  0.98762420  0.17130081  0.09253385  1.0
  Re  Re160  1  0.98762420  0.50463415  0.09253385  1.0
  Re  Re161  1  0.98762420  0.83796748  0.09253385  1.0
  Re  Re162  1  0.19145442  0.11579948  0.06478319  1.0
  Re  Re163  1  0.19145442  0.44913281  0.06478319  1.0
  Re  Re164  1  0.19145442  0.78246615  0.06478319  1.0
  Re  Re165  1  0.52478775  0.11579948  0.06478319  1.0
  Re  Re166  1  0.52478775  0.44913281  0.06478319  1.0
  Re  Re167  1  0.52478775  0.78246615  0.06478319  1.0
  Re  Re168  1  0.85812109  0.11579948  0.06478319  1.0
  Re  Re169  1  0.85812109  0.44913281  0.06478319  1.0
  Re  Re170  1  0.85812109  0.78246615  0.06478319  1.0
  Re  Re171  1  0.26552849  0.00468837  0.00922763  1.0
  Re  Re172  1  0.26552849  0.33802170  0.00922763  1.0
  Re  Re173  1  0.26552849  0.67135504  0.00922763  1.0
  Re  Re174  1  0.59886183  0.00468837  0.00922763  1.0
  Re  Re175  1  0.59886183  0.33802170  0.00922763  1.0
  Re  Re176  1  0.59886183  0.67135504  0.00922763  1.0
  Re  Re177  1  0.93219516  0.00468837  0.00922763  1.0
  Re  Re178  1  0.93219516  0.33802170  0.00922763  1.0
  Re  Re179  1  0.93219516  0.67135504  0.00922763  1.0
  Re  Re180  1  0.26545620  0.17130081  0.00928185  1.0
  Re  Re181  1  0.26545620  0.50463415  0.00928185  1.0
  Re  Re182  1  0.26545620  0.83796748  0.00928185  1.0
  Re  Re183  1  0.59878953  0.17130081  0.00928185  1.0
  Re  Re184  1  0.59878953  0.50463415  0.00928185  1.0
  Re  Re185  1  0.59878953  0.83796748  0.00928185  1.0
  Re  Re186  1  0.93212286  0.17130081  0.00928185  1.0
  Re  Re187  1  0.93212286  0.50463415  0.00928185  1.0
  Re  Re188  1  0.93212286  0.83796748  0.00928185  1.0
  Re  Re189  1  0.19138212  0.28241193  0.06483741  1.0
  Re  Re190  1  0.19138212  0.61574526  0.06483741  1.0
  Re  Re191  1  0.19138212  0.94907859  0.06483741  1.0
  Re  Re192  1  0.52471546  0.28241193  0.06483741  1.0
  Re  Re193  1  0.52471546  0.61574526  0.06483741  1.0
  Re  Re194  1  0.52471546  0.94907859  0.06483741  1.0
  Re  Re195  1  0.85804879  0.28241193  0.06483741  1.0
  Re  Re196  1  0.85804879  0.61574526  0.06483741  1.0
  Re  Re197  1  0.85804879  0.94907859  0.06483741  1.0
  Re  Re198  1  0.16058420  0.18985548  0.04630985  1.0
  Re  Re199  1  0.16058420  0.52318881  0.04630985  1.0
  Re  Re200  1  0.16058420  0.85652215  0.04630985  1.0
  Re  Re201  1  0.49391753  0.18985548  0.04630985  1.0
  Re  Re202  1  0.49391753  0.52318881  0.04630985  1.0
  Re  Re203  1  0.49391753  0.85652215  0.04630985  1.0
  Re  Re204  1  0.82725086  0.18985548  0.04630985  1.0
  Re  Re205  1  0.82725086  0.52318881  0.04630985  1.0
  Re  Re206  1  0.82725086  0.85652215  0.04630985  1.0
  Re  Re207  1  0.08651012  0.30096659  0.10186541  1.0
  Re  Re208  1  0.08651012  0.63429993  0.10186541  1.0
  Re  Re209  1  0.08651012  0.96763326  0.10186541  1.0
  Re  Re210  1  0.41984346  0.30096659  0.10186541  1.0
  Re  Re211  1  0.41984346  0.63429993  0.10186541  1.0
  Re  Re212  1  0.41984346  0.96763326  0.10186541  1.0
  Re  Re213  1  0.75317679  0.30096659  0.10186541  1.0
  Re  Re214  1  0.75317679  0.63429993  0.10186541  1.0
  Re  Re215  1  0.75317679  0.96763326  0.10186541  1.0
  Re  Re216  1  0.03082805  0.13424570  0.01850496  1.0
  Re  Re217  1  0.03082805  0.46757904  0.01850496  1.0
  Re  Re218  1  0.03082805  0.80091237  0.01850496  1.0
  Re  Re219  1  0.36416138  0.13424570  0.01850496  1.0
  Re  Re220  1  0.36416138  0.46757904  0.01850496  1.0
  Re  Re221  1  0.36416138  0.80091237  0.01850496  1.0
  Re  Re222  1  0.69749472  0.13424570  0.01850496  1.0
  Re  Re223  1  0.69749472  0.46757904  0.01850496  1.0
  Re  Re224  1  0.69749472  0.80091237  0.01850496  1.0
  Re  Re225  1  0.29008731  0.24535681  0.07406052  1.0
  Re  Re226  1  0.29008731  0.57869015  0.07406052  1.0
  Re  Re227  1  0.29008731  0.91202348  0.07406052  1.0
  Re  Re228  1  0.62342064  0.24535681  0.07406052  1.0
  Re  Re229  1  0.62342064  0.57869015  0.07406052  1.0
  Re  Re230  1  0.62342064  0.91202348  0.07406052  1.0
  Re  Re231  1  0.95675398  0.24535681  0.07406052  1.0
  Re  Re232  1  0.95675398  0.57869015  0.07406052  1.0
  Re  Re233  1  0.95675398  0.91202348  0.07406052  1.0
  Re  Re234  1  0.29015960  0.07874437  0.07400630  1.0
  Re  Re235  1  0.29015960  0.41207770  0.07400630  1.0
  Re  Re236  1  0.29015960  0.74541104  0.07400630  1.0
  Re  Re237  1  0.62349294  0.07874437  0.07400630  1.0
  Re  Re238  1  0.62349294  0.41207770  0.07400630  1.0
  Re  Re239  1  0.62349294  0.74541104  0.07400630  1.0
  Re  Re240  1  0.95682627  0.07874437  0.07400630  1.0
  Re  Re241  1  0.95682627  0.41207770  0.07400630  1.0
  Re  Re242  1  0.95682627  0.74541104  0.07400630  1.0
  Re  Re243  1  0.03090035  0.30096659  0.01845074  1.0
  Re  Re244  1  0.03090035  0.63429993  0.01845074  1.0
  Re  Re245  1  0.03090035  0.96763326  0.01845074  1.0
  Re  Re246  1  0.36423368  0.30096659  0.01845074  1.0
  Re  Re247  1  0.36423368  0.63429993  0.01845074  1.0
  Re  Re248  1  0.36423368  0.96763326  0.01845074  1.0
  Re  Re249  1  0.69756701  0.30096659  0.01845074  1.0
  Re  Re250  1  0.69756701  0.63429993  0.01845074  1.0
  Re  Re251  1  0.69756701  0.96763326  0.01845074  1.0
  Re  Re252  1  0.24688346  0.28241193  0.14808941  1.0
  Re  Re253  1  0.24688346  0.61574526  0.14808941  1.0
  Re  Re254  1  0.24688346  0.94907859  0.14808941  1.0
  Re  Re255  1  0.58021679  0.28241193  0.14808941  1.0
  Re  Re256  1  0.58021679  0.61574526  0.14808941  1.0
  Re  Re257  1  0.58021679  0.94907859  0.14808941  1.0
  Re  Re258  1  0.91355012  0.28241193  0.14808941  1.0
  Re  Re259  1  0.91355012  0.61574526  0.14808941  1.0
  Re  Re260  1  0.91355012  0.94907859  0.14808941  1.0
  Re  Re261  1  0.17280938  0.06018970  0.20364496  1.0
  Re  Re262  1  0.17280938  0.39352304  0.20364496  1.0
  Re  Re263  1  0.17280938  0.72685637  0.20364496  1.0
  Re  Re264  1  0.50614272  0.06018970  0.20364496  1.0
  Re  Re265  1  0.50614272  0.39352304  0.20364496  1.0
  Re  Re266  1  0.50614272  0.72685637  0.20364496  1.0
  Re  Re267  1  0.83947605  0.06018970  0.20364496  1.0
  Re  Re268  1  0.83947605  0.39352304  0.20364496  1.0
  Re  Re269  1  0.83947605  0.72685637  0.20364496  1.0
  Re  Re270  1  0.04330627  0.00468837  0.17589430  1.0
  Re  Re271  1  0.04330627  0.33802170  0.17589430  1.0
  Re  Re272  1  0.04330627  0.67135504  0.17589430  1.0
  Re  Re273  1  0.37663960  0.00468837  0.17589430  1.0
  Re  Re274  1  0.37663960  0.33802170  0.17589430  1.0
  Re  Re275  1  0.37663960  0.67135504  0.17589430  1.0
  Re  Re276  1  0.70997294  0.00468837  0.17589430  1.0
  Re  Re277  1  0.70997294  0.33802170  0.17589430  1.0
  Re  Re278  1  0.70997294  0.67135504  0.17589430  1.0
  Re  Re279  1  0.11738035  0.22691059  0.12033874  1.0
  Re  Re280  1  0.11738035  0.56024393  0.12033874  1.0
  Re  Re281  1  0.11738035  0.89357726  0.12033874  1.0
  Re  Re282  1  0.45071368  0.22691059  0.12033874  1.0
  Re  Re283  1  0.45071368  0.56024393  0.12033874  1.0
  Re  Re284  1  0.45071368  0.89357726  0.12033874  1.0
  Re  Re285  1  0.78404701  0.22691059  0.12033874  1.0
  Re  Re286  1  0.78404701  0.56024393  0.12033874  1.0
  Re  Re287  1  0.78404701  0.89357726  0.12033874  1.0
  Re  Re288  1  0.11730805  0.06018970  0.12039296  1.0
  Re  Re289  1  0.11730805  0.39352304  0.12039296  1.0
  Re  Re290  1  0.11730805  0.72685637  0.12039296  1.0
  Re  Re291  1  0.45064138  0.06018970  0.12039296  1.0
  Re  Re292  1  0.45064138  0.39352304  0.12039296  1.0
  Re  Re293  1  0.45064138  0.72685637  0.12039296  1.0
  Re  Re294  1  0.78397472  0.06018970  0.12039296  1.0
  Re  Re295  1  0.78397472  0.39352304  0.12039296  1.0
  Re  Re296  1  0.78397472  0.72685637  0.12039296  1.0
  Re  Re297  1  0.04323398  0.17130081  0.17594852  1.0
  Re  Re298  1  0.04323398  0.50463415  0.17594852  1.0
  Re  Re299  1  0.04323398  0.83796748  0.17594852  1.0
  Re  Re300  1  0.37656731  0.17130081  0.17594852  1.0
  Re  Re301  1  0.37656731  0.50463415  0.17594852  1.0
  Re  Re302  1  0.37656731  0.83796748  0.17594852  1.0
  Re  Re303  1  0.70990064  0.17130081  0.17594852  1.0
  Re  Re304  1  0.70990064  0.50463415  0.17594852  1.0
  Re  Re305  1  0.70990064  0.83796748  0.17594852  1.0
  Re  Re306  1  0.01243605  0.07874437  0.15742096  1.0
  Re  Re307  1  0.01243605  0.41207770  0.15742096  1.0
  Re  Re308  1  0.01243605  0.74541104  0.15742096  1.0
  Re  Re309  1  0.34576938  0.07874437  0.15742096  1.0
  Re  Re310  1  0.34576938  0.41207770  0.15742096  1.0
  Re  Re311  1  0.34576938  0.74541104  0.15742096  1.0
  Re  Re312  1  0.67910272  0.07874437  0.15742096  1.0
  Re  Re313  1  0.67910272  0.41207770  0.15742096  1.0
  Re  Re314  1  0.67910272  0.74541104  0.15742096  1.0
  Re  Re315  1  0.27169531  0.18985548  0.21297652  1.0
  Re  Re316  1  0.27169531  0.52318881  0.21297652  1.0
  Re  Re317  1  0.27169531  0.85652215  0.21297652  1.0
  Re  Re318  1  0.60502864  0.18985548  0.21297652  1.0
  Re  Re319  1  0.60502864  0.52318881  0.21297652  1.0
  Re  Re320  1  0.60502864  0.85652215  0.21297652  1.0
  Re  Re321  1  0.93836198  0.18985548  0.21297652  1.0
  Re  Re322  1  0.93836198  0.52318881  0.21297652  1.0
  Re  Re323  1  0.93836198  0.85652215  0.21297652  1.0
  Re  Re324  1  0.21601323  0.02313459  0.12961607  1.0
  Re  Re325  1  0.21601323  0.35646793  0.12961607  1.0
  Re  Re326  1  0.21601323  0.68980126  0.12961607  1.0
  Re  Re327  1  0.54934657  0.02313459  0.12961607  1.0
  Re  Re328  1  0.54934657  0.35646793  0.12961607  1.0
  Re  Re329  1  0.54934657  0.68980126  0.12961607  1.0
  Re  Re330  1  0.88267990  0.02313459  0.12961607  1.0
  Re  Re331  1  0.88267990  0.35646793  0.12961607  1.0
  Re  Re332  1  0.88267990  0.68980126  0.12961607  1.0
  Re  Re333  1  0.14193916  0.13424570  0.18517163  1.0
  Re  Re334  1  0.14193916  0.46757904  0.18517163  1.0
  Re  Re335  1  0.14193916  0.80091237  0.18517163  1.0
  Re  Re336  1  0.47527249  0.13424570  0.18517163  1.0
  Re  Re337  1  0.47527249  0.46757904  0.18517163  1.0
  Re  Re338  1  0.47527249  0.80091237  0.18517163  1.0
  Re  Re339  1  0.80860583  0.13424570  0.18517163  1.0
  Re  Re340  1  0.80860583  0.46757904  0.18517163  1.0
  Re  Re341  1  0.80860583  0.80091237  0.18517163  1.0
  Re  Re342  1  0.14201146  0.30096659  0.18511741  1.0
  Re  Re343  1  0.14201146  0.63429993  0.18511741  1.0
  Re  Re344  1  0.14201146  0.96763326  0.18511741  1.0
  Re  Re345  1  0.47534479  0.30096659  0.18511741  1.0
  Re  Re346  1  0.47534479  0.63429993  0.18511741  1.0
  Re  Re347  1  0.47534479  0.96763326  0.18511741  1.0
  Re  Re348  1  0.80867812  0.30096659  0.18511741  1.0
  Re  Re349  1  0.80867812  0.63429993  0.18511741  1.0
  Re  Re350  1  0.80867812  0.96763326  0.18511741  1.0
  Re  Re351  1  0.21608553  0.18985548  0.12956185  1.0
  Re  Re352  1  0.21608553  0.52318881  0.12956185  1.0
  Re  Re353  1  0.21608553  0.85652215  0.12956185  1.0
  Re  Re354  1  0.54941886  0.18985548  0.12956185  1.0
  Re  Re355  1  0.54941886  0.52318881  0.12956185  1.0
  Re  Re356  1  0.54941886  0.85652215  0.12956185  1.0
  Re  Re357  1  0.88275220  0.18985548  0.12956185  1.0
  Re  Re358  1  0.88275220  0.52318881  0.12956185  1.0
  Re  Re359  1  0.88275220  0.85652215  0.12956185  1.0
  Re  Re360  1  0.09873531  0.17130081  0.25920052  1.0
  Re  Re361  1  0.09873531  0.50463415  0.25920052  1.0
  Re  Re362  1  0.09873531  0.83796748  0.25920052  1.0
  Re  Re363  1  0.43206864  0.17130081  0.25920052  1.0
  Re  Re364  1  0.43206864  0.50463415  0.25920052  1.0
  Re  Re365  1  0.43206864  0.83796748  0.25920052  1.0
  Re  Re366  1  0.76540198  0.17130081  0.25920052  1.0
  Re  Re367  1  0.76540198  0.50463415  0.25920052  1.0
  Re  Re368  1  0.76540198  0.83796748  0.25920052  1.0
  Re  Re369  1  0.02466123  0.28241193  0.31475607  1.0
  Re  Re370  1  0.02466123  0.61574526  0.31475607  1.0
  Re  Re371  1  0.02466123  0.94907859  0.31475607  1.0
  Re  Re372  1  0.35799457  0.28241193  0.31475607  1.0
  Re  Re373  1  0.35799457  0.61574526  0.31475607  1.0
  Re  Re374  1  0.35799457  0.94907859  0.31475607  1.0
  Re  Re375  1  0.69132790  0.28241193  0.31475607  1.0
  Re  Re376  1  0.69132790  0.61574526  0.31475607  1.0
  Re  Re377  1  0.69132790  0.94907859  0.31475607  1.0
  Re  Re378  1  0.22849146  0.22691059  0.28700541  1.0
  Re  Re379  1  0.22849146  0.56024393  0.28700541  1.0
  Re  Re380  1  0.22849146  0.89357726  0.28700541  1.0
  Re  Re381  1  0.56182479  0.22691059  0.28700541  1.0
  Re  Re382  1  0.56182479  0.56024393  0.28700541  1.0
  Re  Re383  1  0.56182479  0.89357726  0.28700541  1.0
  Re  Re384  1  0.89515812  0.22691059  0.28700541  1.0
  Re  Re385  1  0.89515812  0.56024393  0.28700541  1.0
  Re  Re386  1  0.89515812  0.89357726  0.28700541  1.0
  Re  Re387  1  0.30256553  0.11579948  0.23144985  1.0
  Re  Re388  1  0.30256553  0.44913281  0.23144985  1.0
  Re  Re389  1  0.30256553  0.78246615  0.23144985  1.0
  Re  Re390  1  0.63589886  0.11579948  0.23144985  1.0
  Re  Re391  1  0.63589886  0.44913281  0.23144985  1.0
  Re  Re392  1  0.63589886  0.78246615  0.23144985  1.0
  Re  Re393  1  0.96923220  0.11579948  0.23144985  1.0
  Re  Re394  1  0.96923220  0.44913281  0.23144985  1.0
  Re  Re395  1  0.96923220  0.78246615  0.23144985  1.0
  Re  Re396  1  0.30249323  0.28241193  0.23150407  1.0
  Re  Re397  1  0.30249323  0.61574526  0.23150407  1.0
  Re  Re398  1  0.30249323  0.94907859  0.23150407  1.0
  Re  Re399  1  0.63582657  0.28241193  0.23150407  1.0
  Re  Re400  1  0.63582657  0.61574526  0.23150407  1.0
  Re  Re401  1  0.63582657  0.94907859  0.23150407  1.0
  Re  Re402  1  0.96915990  0.28241193  0.23150407  1.0
  Re  Re403  1  0.96915990  0.61574526  0.23150407  1.0
  Re  Re404  1  0.96915990  0.94907859  0.23150407  1.0
  Re  Re405  1  0.22841916  0.06018970  0.28705963  1.0
  Re  Re406  1  0.22841916  0.39352304  0.28705963  1.0
  Re  Re407  1  0.22841916  0.72685637  0.28705963  1.0
  Re  Re408  1  0.56175249  0.06018970  0.28705963  1.0
  Re  Re409  1  0.56175249  0.39352304  0.28705963  1.0
  Re  Re410  1  0.56175249  0.72685637  0.28705963  1.0
  Re  Re411  1  0.89508583  0.06018970  0.28705963  1.0
  Re  Re412  1  0.89508583  0.39352304  0.28705963  1.0
  Re  Re413  1  0.89508583  0.72685637  0.28705963  1.0
  Re  Re414  1  0.19762123  0.30096659  0.26853207  1.0
  Re  Re415  1  0.19762123  0.63429993  0.26853207  1.0
  Re  Re416  1  0.19762123  0.96763326  0.26853207  1.0
  Re  Re417  1  0.53095457  0.30096659  0.26853207  1.0
  Re  Re418  1  0.53095457  0.63429993  0.26853207  1.0
  Re  Re419  1  0.53095457  0.96763326  0.26853207  1.0
  Re  Re420  1  0.86428790  0.30096659  0.26853207  1.0
  Re  Re421  1  0.86428790  0.63429993  0.26853207  1.0
  Re  Re422  1  0.86428790  0.96763326  0.26853207  1.0
  Re  Re423  1  0.12354716  0.07874437  0.32408763  1.0
  Re  Re424  1  0.12354716  0.41207770  0.32408763  1.0
  Re  Re425  1  0.12354716  0.74541104  0.32408763  1.0
  Re  Re426  1  0.45688049  0.07874437  0.32408763  1.0
  Re  Re427  1  0.45688049  0.41207770  0.32408763  1.0
  Re  Re428  1  0.45688049  0.74541104  0.32408763  1.0
  Re  Re429  1  0.79021383  0.07874437  0.32408763  1.0
  Re  Re430  1  0.79021383  0.41207770  0.32408763  1.0
  Re  Re431  1  0.79021383  0.74541104  0.32408763  1.0
  Re  Re432  1  0.06786509  0.24535681  0.24072719  1.0
  Re  Re433  1  0.06786509  0.57869015  0.24072719  1.0
  Re  Re434  1  0.06786509  0.91202348  0.24072719  1.0
  Re  Re435  1  0.40119842  0.24535681  0.24072719  1.0
  Re  Re436  1  0.40119842  0.57869015  0.24072719  1.0
  Re  Re437  1  0.40119842  0.91202348  0.24072719  1.0
  Re  Re438  1  0.73453175  0.24535681  0.24072719  1.0
  Re  Re439  1  0.73453175  0.57869015  0.24072719  1.0
  Re  Re440  1  0.73453175  0.91202348  0.24072719  1.0
  Re  Re441  1  0.32712435  0.02313459  0.29628274  1.0
  Re  Re442  1  0.32712435  0.35646793  0.29628274  1.0
  Re  Re443  1  0.32712435  0.68980126  0.29628274  1.0
  Re  Re444  1  0.66045768  0.02313459  0.29628274  1.0
  Re  Re445  1  0.66045768  0.35646793  0.29628274  1.0
  Re  Re446  1  0.66045768  0.68980126  0.29628274  1.0
  Re  Re447  1  0.99379101  0.02313459  0.29628274  1.0
  Re  Re448  1  0.99379101  0.35646793  0.29628274  1.0
  Re  Re449  1  0.99379101  0.68980126  0.29628274  1.0
  Re  Re450  1  0.32719664  0.18985548  0.29622852  1.0
  Re  Re451  1  0.32719664  0.52318881  0.29622852  1.0
  Re  Re452  1  0.32719664  0.85652215  0.29622852  1.0
  Re  Re453  1  0.66052998  0.18985548  0.29622852  1.0
  Re  Re454  1  0.66052998  0.52318881  0.29622852  1.0
  Re  Re455  1  0.66052998  0.85652215  0.29622852  1.0
  Re  Re456  1  0.99386331  0.18985548  0.29622852  1.0
  Re  Re457  1  0.99386331  0.52318881  0.29622852  1.0
  Re  Re458  1  0.99386331  0.85652215  0.29622852  1.0
  Re  Re459  1  0.06793738  0.07874437  0.24067296  1.0
  Re  Re460  1  0.06793738  0.41207770  0.24067296  1.0
  Re  Re461  1  0.06793738  0.74541104  0.24067296  1.0
  Re  Re462  1  0.40127072  0.07874437  0.24067296  1.0
  Re  Re463  1  0.40127072  0.41207770  0.24067296  1.0
  Re  Re464  1  0.40127072  0.74541104  0.24067296  1.0
  Re  Re465  1  0.73460405  0.07874437  0.24067296  1.0
  Re  Re466  1  0.73460405  0.41207770  0.24067296  1.0
  Re  Re467  1  0.73460405  0.74541104  0.24067296  1.0
  Re  Re468  1  0.28392049  0.06018970  0.37031163  1.0
  Re  Re469  1  0.28392049  0.39352304  0.37031163  1.0
  Re  Re470  1  0.28392049  0.72685637  0.37031163  1.0
  Re  Re471  1  0.61725383  0.06018970  0.37031163  1.0
  Re  Re472  1  0.61725383  0.39352304  0.37031163  1.0
  Re  Re473  1  0.61725383  0.72685637  0.37031163  1.0
  Re  Re474  1  0.95058716  0.06018970  0.37031163  1.0
  Re  Re475  1  0.95058716  0.39352304  0.37031163  1.0
  Re  Re476  1  0.95058716  0.72685637  0.37031163  1.0
  Re  Re477  1  0.20984642  0.17130081  0.42586719  1.0
  Re  Re478  1  0.20984642  0.50463415  0.42586719  1.0
  Re  Re479  1  0.20984642  0.83796748  0.42586719  1.0
  Re  Re480  1  0.54317975  0.17130081  0.42586719  1.0
  Re  Re481  1  0.54317975  0.50463415  0.42586719  1.0
  Re  Re482  1  0.54317975  0.83796748  0.42586719  1.0
  Re  Re483  1  0.87651309  0.17130081  0.42586719  1.0
  Re  Re484  1  0.87651309  0.50463415  0.42586719  1.0
  Re  Re485  1  0.87651309  0.83796748  0.42586719  1.0
  Re  Re486  1  0.08034331  0.11579948  0.39811652  1.0
  Re  Re487  1  0.08034331  0.44913281  0.39811652  1.0
  Re  Re488  1  0.08034331  0.78246615  0.39811652  1.0
  Re  Re489  1  0.41367664  0.11579948  0.39811652  1.0
  Re  Re490  1  0.41367664  0.44913281  0.39811652  1.0
  Re  Re491  1  0.41367664  0.78246615  0.39811652  1.0
  Re  Re492  1  0.74700998  0.11579948  0.39811652  1.0
  Re  Re493  1  0.74700998  0.44913281  0.39811652  1.0
  Re  Re494  1  0.74700998  0.78246615  0.39811652  1.0
  Re  Re495  1  0.15441738  0.00468837  0.34256096  1.0
  Re  Re496  1  0.15441738  0.33802170  0.34256096  1.0
  Re  Re497  1  0.15441738  0.67135504  0.34256096  1.0
  Re  Re498  1  0.48775072  0.00468837  0.34256096  1.0
  Re  Re499  1  0.48775072  0.33802170  0.34256096  1.0
  Re  Re500  1  0.48775072  0.67135504  0.34256096  1.0
  Re  Re501  1  0.82108405  0.00468837  0.34256096  1.0
  Re  Re502  1  0.82108405  0.33802170  0.34256096  1.0
  Re  Re503  1  0.82108405  0.67135504  0.34256096  1.0
  Re  Re504  1  0.15434509  0.17130081  0.34261519  1.0
  Re  Re505  1  0.15434509  0.50463415  0.34261519  1.0
  Re  Re506  1  0.15434509  0.83796748  0.34261519  1.0
  Re  Re507  1  0.48767842  0.17130081  0.34261519  1.0
  Re  Re508  1  0.48767842  0.50463415  0.34261519  1.0
  Re  Re509  1  0.48767842  0.83796748  0.34261519  1.0
  Re  Re510  1  0.82101175  0.17130081  0.34261519  1.0
  Re  Re511  1  0.82101175  0.50463415  0.34261519  1.0
  Re  Re512  1  0.82101175  0.83796748  0.34261519  1.0
  Re  Re513  1  0.08027101  0.28241193  0.39817074  1.0
  Re  Re514  1  0.08027101  0.61574526  0.39817074  1.0
  Re  Re515  1  0.08027101  0.94907859  0.39817074  1.0
  Re  Re516  1  0.41360435  0.28241193  0.39817074  1.0
  Re  Re517  1  0.41360435  0.61574526  0.39817074  1.0
  Re  Re518  1  0.41360435  0.94907859  0.39817074  1.0
  Re  Re519  1  0.74693768  0.28241193  0.39817074  1.0
  Re  Re520  1  0.74693768  0.61574526  0.39817074  1.0
  Re  Re521  1  0.74693768  0.94907859  0.39817074  1.0
  Re  Re522  1  0.04947309  0.18985548  0.37964319  1.0
  Re  Re523  1  0.04947309  0.52318881  0.37964319  1.0
  Re  Re524  1  0.04947309  0.85652215  0.37964319  1.0
  Re  Re525  1  0.38280642  0.18985548  0.37964319  1.0
  Re  Re526  1  0.38280642  0.52318881  0.37964319  1.0
  Re  Re527  1  0.38280642  0.85652215  0.37964319  1.0
  Re  Re528  1  0.71613975  0.18985548  0.37964319  1.0
  Re  Re529  1  0.71613975  0.52318881  0.37964319  1.0
  Re  Re530  1  0.71613975  0.85652215  0.37964319  1.0
  Re  Re531  1  0.30873235  0.30096659  0.43519874  1.0
  Re  Re532  1  0.30873235  0.63429993  0.43519874  1.0
  Re  Re533  1  0.30873235  0.96763326  0.43519874  1.0
  Re  Re534  1  0.64206568  0.30096659  0.43519874  1.0
  Re  Re535  1  0.64206568  0.63429993  0.43519874  1.0
  Re  Re536  1  0.64206568  0.96763326  0.43519874  1.0
  Re  Re537  1  0.97539901  0.30096659  0.43519874  1.0
  Re  Re538  1  0.97539901  0.63429993  0.43519874  1.0
  Re  Re539  1  0.97539901  0.96763326  0.43519874  1.0
  Re  Re540  1  0.25305027  0.13424570  0.35183830  1.0
  Re  Re541  1  0.25305027  0.46757904  0.35183830  1.0
  Re  Re542  1  0.25305027  0.80091237  0.35183830  1.0
  Re  Re543  1  0.58638360  0.13424570  0.35183830  1.0
  Re  Re544  1  0.58638360  0.46757904  0.35183830  1.0
  Re  Re545  1  0.58638360  0.80091237  0.35183830  1.0
  Re  Re546  1  0.91971694  0.13424570  0.35183830  1.0
  Re  Re547  1  0.91971694  0.46757904  0.35183830  1.0
  Re  Re548  1  0.91971694  0.80091237  0.35183830  1.0
  Re  Re549  1  0.17897620  0.24535681  0.40739385  1.0
  Re  Re550  1  0.17897620  0.57869015  0.40739385  1.0
  Re  Re551  1  0.17897620  0.91202348  0.40739385  1.0
  Re  Re552  1  0.51230953  0.24535681  0.40739385  1.0
  Re  Re553  1  0.51230953  0.57869015  0.40739385  1.0
  Re  Re554  1  0.51230953  0.91202348  0.40739385  1.0
  Re  Re555  1  0.84564286  0.24535681  0.40739385  1.0
  Re  Re556  1  0.84564286  0.57869015  0.40739385  1.0
  Re  Re557  1  0.84564286  0.91202348  0.40739385  1.0
  Re  Re558  1  0.17904849  0.07874437  0.40733963  1.0
  Re  Re559  1  0.17904849  0.41207770  0.40733963  1.0
  Re  Re560  1  0.17904849  0.74541104  0.40733963  1.0
  Re  Re561  1  0.51238183  0.07874437  0.40733963  1.0
  Re  Re562  1  0.51238183  0.41207770  0.40733963  1.0
  Re  Re563  1  0.51238183  0.74541104  0.40733963  1.0
  Re  Re564  1  0.84571516  0.07874437  0.40733963  1.0
  Re  Re565  1  0.84571516  0.41207770  0.40733963  1.0
  Re  Re566  1  0.84571516  0.74541104  0.40733963  1.0
  Re  Re567  1  0.25312257  0.30096659  0.35178407  1.0
  Re  Re568  1  0.25312257  0.63429993  0.35178407  1.0
  Re  Re569  1  0.25312257  0.96763326  0.35178407  1.0
  Re  Re570  1  0.58645590  0.30096659  0.35178407  1.0
  Re  Re571  1  0.58645590  0.63429993  0.35178407  1.0
  Re  Re572  1  0.58645590  0.96763326  0.35178407  1.0
  Re  Re573  1  0.91978923  0.30096659  0.35178407  1.0
  Re  Re574  1  0.91978923  0.63429993  0.35178407  1.0
  Re  Re575  1  0.91978923  0.96763326  0.35178407  1.0
