# generated using pymatgen
data_Sc2Ni7
_symmetry_space_group_name_H-M   'P 1'
_cell_length_a   14.31222630
_cell_length_b   14.31222630
_cell_length_c   47.32138600
_cell_angle_alpha   90.00000000
_cell_angle_beta   90.00000000
_cell_angle_gamma   120.00000000
_symmetry_Int_Tables_number   1
_chemical_formula_structural   Sc2Ni7
_chemical_formula_sum   'Sc72 Ni252'
_cell_volume   8394.64774362
_cell_formula_units_Z   36
loop_
 _symmetry_equiv_pos_site_id
 _symmetry_equiv_pos_as_xyz
  1  'x, y, z'
loop_
 _atom_site_type_symbol
 _atom_site_label
 _atom_site_symmetry_multiplicity
 _atom_site_fract_x
 _atom_site_fract_y
 _atom_site_fract_z
 _atom_site_occupancy
  Sc  Sc0  1  0.22222222  0.11111111  0.47824100  1.0
  Sc  Sc1  1  0.22222222  0.44444444  0.47824100  1.0
  Sc  Sc2  1  0.22222222  0.77777778  0.47824100  1.0
  Sc  Sc3  1  0.55555556  0.11111111  0.47824100  1.0
  Sc  Sc4  1  0.55555556  0.44444444  0.47824100  1.0
  Sc  Sc5  1  0.55555556  0.77777778  0.47824100  1.0
  Sc  Sc6  1  0.88888889  0.11111111  0.47824100  1.0
  Sc  Sc7  1  0.88888889  0.44444444  0.47824100  1.0
  Sc  Sc8  1  0.88888889  0.77777778  0.47824100  1.0
  Sc  Sc9  1  0.11111111  0.22222222  0.00725300  1.0
  Sc  Sc10  1  0.11111111  0.55555556  0.00725300  1.0
  Sc  Sc11  1  0.11111111  0.88888889  0.00725300  1.0
  Sc  Sc12  1  0.44444444  0.22222222  0.00725300  1.0
  Sc  Sc13  1  0.44444444  0.55555556  0.00725300  1.0
  Sc  Sc14  1  0.44444444  0.88888889  0.00725300  1.0
  Sc  Sc15  1  0.77777778  0.22222222  0.00725300  1.0
  Sc  Sc16  1  0.77777778  0.55555556  0.00725300  1.0
  Sc  Sc17  1  0.77777778  0.88888889  0.00725300  1.0
  Sc  Sc18  1  0.11111111  0.22222222  0.22824100  1.0
  Sc  Sc19  1  0.11111111  0.55555556  0.22824100  1.0
  Sc  Sc20  1  0.11111111  0.88888889  0.22824100  1.0
  Sc  Sc21  1  0.44444444  0.22222222  0.22824100  1.0
  Sc  Sc22  1  0.44444444  0.55555556  0.22824100  1.0
  Sc  Sc23  1  0.44444444  0.88888889  0.22824100  1.0
  Sc  Sc24  1  0.77777778  0.22222222  0.22824100  1.0
  Sc  Sc25  1  0.77777778  0.55555556  0.22824100  1.0
  Sc  Sc26  1  0.77777778  0.88888889  0.22824100  1.0
  Sc  Sc27  1  0.22222222  0.11111111  0.25725300  1.0
  Sc  Sc28  1  0.22222222  0.44444444  0.25725300  1.0
  Sc  Sc29  1  0.22222222  0.77777778  0.25725300  1.0
  Sc  Sc30  1  0.55555556  0.11111111  0.25725300  1.0
  Sc  Sc31  1  0.55555556  0.44444444  0.25725300  1.0
  Sc  Sc32  1  0.55555556  0.77777778  0.25725300  1.0
  Sc  Sc33  1  0.88888889  0.11111111  0.25725300  1.0
  Sc  Sc34  1  0.88888889  0.44444444  0.25725300  1.0
  Sc  Sc35  1  0.88888889  0.77777778  0.25725300  1.0
  Sc  Sc36  1  0.22222222  0.11111111  0.40564800  1.0
  Sc  Sc37  1  0.22222222  0.44444444  0.40564800  1.0
  Sc  Sc38  1  0.22222222  0.77777778  0.40564800  1.0
  Sc  Sc39  1  0.55555556  0.11111111  0.40564800  1.0
  Sc  Sc40  1  0.55555556  0.44444444  0.40564800  1.0
  Sc  Sc41  1  0.55555556  0.77777778  0.40564800  1.0
  Sc  Sc42  1  0.88888889  0.11111111  0.40564800  1.0
  Sc  Sc43  1  0.88888889  0.44444444  0.40564800  1.0
  Sc  Sc44  1  0.88888889  0.77777778  0.40564800  1.0
  Sc  Sc45  1  0.11111111  0.22222222  0.07984600  1.0
  Sc  Sc46  1  0.11111111  0.55555556  0.07984600  1.0
  Sc  Sc47  1  0.11111111  0.88888889  0.07984600  1.0
  Sc  Sc48  1  0.44444444  0.22222222  0.07984600  1.0
  Sc  Sc49  1  0.44444444  0.55555556  0.07984600  1.0
  Sc  Sc50  1  0.44444444  0.88888889  0.07984600  1.0
  Sc  Sc51  1  0.77777778  0.22222222  0.07984600  1.0
  Sc  Sc52  1  0.77777778  0.55555556  0.07984600  1.0
  Sc  Sc53  1  0.77777778  0.88888889  0.07984600  1.0
  Sc  Sc54  1  0.11111111  0.22222222  0.15564800  1.0
  Sc  Sc55  1  0.11111111  0.55555556  0.15564800  1.0
  Sc  Sc56  1  0.11111111  0.88888889  0.15564800  1.0
  Sc  Sc57  1  0.44444444  0.22222222  0.15564800  1.0
  Sc  Sc58  1  0.44444444  0.55555556  0.15564800  1.0
  Sc  Sc59  1  0.44444444  0.88888889  0.15564800  1.0
  Sc  Sc60  1  0.77777778  0.22222222  0.15564800  1.0
  Sc  Sc61  1  0.77777778  0.55555556  0.15564800  1.0
  Sc  Sc62  1  0.77777778  0.88888889  0.15564800  1.0
  Sc  Sc63  1  0.22222222  0.11111111  0.32984600  1.0
  Sc  Sc64  1  0.22222222  0.44444444  0.32984600  1.0
  Sc  Sc65  1  0.22222222  0.77777778  0.32984600  1.0
  Sc  Sc66  1  0.55555556  0.11111111  0.32984600  1.0
  Sc  Sc67  1  0.55555556  0.44444444  0.32984600  1.0
  Sc  Sc68  1  0.55555556  0.77777778  0.32984600  1.0
  Sc  Sc69  1  0.88888889  0.11111111  0.32984600  1.0
  Sc  Sc70  1  0.88888889  0.44444444  0.32984600  1.0
  Sc  Sc71  1  0.88888889  0.77777778  0.32984600  1.0
  Ni  Ni72  1  0.00000000  0.00000000  0.49274700  1.0
  Ni  Ni73  1  0.00000000  0.33333333  0.49274700  1.0
  Ni  Ni74  1  0.00000000  0.66666667  0.49274700  1.0
  Ni  Ni75  1  0.33333333  0.00000000  0.49274700  1.0
  Ni  Ni76  1  0.33333333  0.33333333  0.49274700  1.0
  Ni  Ni77  1  0.33333333  0.66666667  0.49274700  1.0
  Ni  Ni78  1  0.66666667  0.00000000  0.49274700  1.0
  Ni  Ni79  1  0.66666667  0.33333333  0.49274700  1.0
  Ni  Ni80  1  0.66666667  0.66666667  0.49274700  1.0
  Ni  Ni81  1  0.00000000  0.00000000  0.24274700  1.0
  Ni  Ni82  1  0.00000000  0.33333333  0.24274700  1.0
  Ni  Ni83  1  0.00000000  0.66666667  0.24274700  1.0
  Ni  Ni84  1  0.33333333  0.00000000  0.24274700  1.0
  Ni  Ni85  1  0.33333333  0.33333333  0.24274700  1.0
  Ni  Ni86  1  0.33333333  0.66666667  0.24274700  1.0
  Ni  Ni87  1  0.66666667  0.00000000  0.24274700  1.0
  Ni  Ni88  1  0.66666667  0.33333333  0.24274700  1.0
  Ni  Ni89  1  0.66666667  0.66666667  0.24274700  1.0
  Ni  Ni90  1  0.05553533  0.11107067  0.36774700  1.0
  Ni  Ni91  1  0.05553533  0.44440400  0.36774700  1.0
  Ni  Ni92  1  0.05553533  0.77773733  0.36774700  1.0
  Ni  Ni93  1  0.38886867  0.11107067  0.36774700  1.0
  Ni  Ni94  1  0.38886867  0.44440400  0.36774700  1.0
  Ni  Ni95  1  0.38886867  0.77773733  0.36774700  1.0
  Ni  Ni96  1  0.72220200  0.11107067  0.36774700  1.0
  Ni  Ni97  1  0.72220200  0.44440400  0.36774700  1.0
  Ni  Ni98  1  0.72220200  0.77773733  0.36774700  1.0
  Ni  Ni99  1  0.22226267  0.27779800  0.36774700  1.0
  Ni  Ni100  1  0.22226267  0.61113133  0.36774700  1.0
  Ni  Ni101  1  0.22226267  0.94446467  0.36774700  1.0
  Ni  Ni102  1  0.55559600  0.27779800  0.36774700  1.0
  Ni  Ni103  1  0.55559600  0.61113133  0.36774700  1.0
  Ni  Ni104  1  0.55559600  0.94446467  0.36774700  1.0
  Ni  Ni105  1  0.88892933  0.27779800  0.36774700  1.0
  Ni  Ni106  1  0.88892933  0.61113133  0.36774700  1.0
  Ni  Ni107  1  0.88892933  0.94446467  0.36774700  1.0
  Ni  Ni108  1  0.05553533  0.27779800  0.36774700  1.0
  Ni  Ni109  1  0.05553533  0.61113133  0.36774700  1.0
  Ni  Ni110  1  0.05553533  0.94446467  0.36774700  1.0
  Ni  Ni111  1  0.38886867  0.27779800  0.36774700  1.0
  Ni  Ni112  1  0.38886867  0.61113133  0.36774700  1.0
  Ni  Ni113  1  0.38886867  0.94446467  0.36774700  1.0
  Ni  Ni114  1  0.72220200  0.27779800  0.36774700  1.0
  Ni  Ni115  1  0.72220200  0.61113133  0.36774700  1.0
  Ni  Ni116  1  0.72220200  0.94446467  0.36774700  1.0
  Ni  Ni117  1  0.27779800  0.22226267  0.11774700  1.0
  Ni  Ni118  1  0.27779800  0.55559600  0.11774700  1.0
  Ni  Ni119  1  0.27779800  0.88892933  0.11774700  1.0
  Ni  Ni120  1  0.61113133  0.22226267  0.11774700  1.0
  Ni  Ni121  1  0.61113133  0.55559600  0.11774700  1.0
  Ni  Ni122  1  0.61113133  0.88892933  0.11774700  1.0
  Ni  Ni123  1  0.94446467  0.22226267  0.11774700  1.0
  Ni  Ni124  1  0.94446467  0.55559600  0.11774700  1.0
  Ni  Ni125  1  0.94446467  0.88892933  0.11774700  1.0
  Ni  Ni126  1  0.11107067  0.05553533  0.11774700  1.0
  Ni  Ni127  1  0.11107067  0.38886867  0.11774700  1.0
  Ni  Ni128  1  0.11107067  0.72220200  0.11774700  1.0
  Ni  Ni129  1  0.44440400  0.05553533  0.11774700  1.0
  Ni  Ni130  1  0.44440400  0.38886867  0.11774700  1.0
  Ni  Ni131  1  0.44440400  0.72220200  0.11774700  1.0
  Ni  Ni132  1  0.77773733  0.05553533  0.11774700  1.0
  Ni  Ni133  1  0.77773733  0.38886867  0.11774700  1.0
  Ni  Ni134  1  0.77773733  0.72220200  0.11774700  1.0
  Ni  Ni135  1  0.27779800  0.05553533  0.11774700  1.0
  Ni  Ni136  1  0.27779800  0.38886867  0.11774700  1.0
  Ni  Ni137  1  0.27779800  0.72220200  0.11774700  1.0
  Ni  Ni138  1  0.61113133  0.05553533  0.11774700  1.0
  Ni  Ni139  1  0.61113133  0.38886867  0.11774700  1.0
  Ni  Ni140  1  0.61113133  0.72220200  0.11774700  1.0
  Ni  Ni141  1  0.94446467  0.05553533  0.11774700  1.0
  Ni  Ni142  1  0.94446467  0.38886867  0.11774700  1.0
  Ni  Ni143  1  0.94446467  0.72220200  0.11774700  1.0
  Ni  Ni144  1  0.05595233  0.11190467  0.45110600  1.0
  Ni  Ni145  1  0.05595233  0.44523800  0.45110600  1.0
  Ni  Ni146  1  0.05595233  0.77857133  0.45110600  1.0
  Ni  Ni147  1  0.38928567  0.11190467  0.45110600  1.0
  Ni  Ni148  1  0.38928567  0.44523800  0.45110600  1.0
  Ni  Ni149  1  0.38928567  0.77857133  0.45110600  1.0
  Ni  Ni150  1  0.72261900  0.11190467  0.45110600  1.0
  Ni  Ni151  1  0.72261900  0.44523800  0.45110600  1.0
  Ni  Ni152  1  0.72261900  0.77857133  0.45110600  1.0
  Ni  Ni153  1  0.22142867  0.27738100  0.45110600  1.0
  Ni  Ni154  1  0.22142867  0.61071433  0.45110600  1.0
  Ni  Ni155  1  0.22142867  0.94404767  0.45110600  1.0
  Ni  Ni156  1  0.55476200  0.27738100  0.45110600  1.0
  Ni  Ni157  1  0.55476200  0.61071433  0.45110600  1.0
  Ni  Ni158  1  0.55476200  0.94404767  0.45110600  1.0
  Ni  Ni159  1  0.88809533  0.27738100  0.45110600  1.0
  Ni  Ni160  1  0.88809533  0.61071433  0.45110600  1.0
  Ni  Ni161  1  0.88809533  0.94404767  0.45110600  1.0
  Ni  Ni162  1  0.05595233  0.27738100  0.45110600  1.0
  Ni  Ni163  1  0.05595233  0.61071433  0.45110600  1.0
  Ni  Ni164  1  0.05595233  0.94404767  0.45110600  1.0
  Ni  Ni165  1  0.38928567  0.27738100  0.45110600  1.0
  Ni  Ni166  1  0.38928567  0.61071433  0.45110600  1.0
  Ni  Ni167  1  0.38928567  0.94404767  0.45110600  1.0
  Ni  Ni168  1  0.72261900  0.27738100  0.45110600  1.0
  Ni  Ni169  1  0.72261900  0.61071433  0.45110600  1.0
  Ni  Ni170  1  0.72261900  0.94404767  0.45110600  1.0
  Ni  Ni171  1  0.27738100  0.22142867  0.03438800  1.0
  Ni  Ni172  1  0.27738100  0.55476200  0.03438800  1.0
  Ni  Ni173  1  0.27738100  0.88809533  0.03438800  1.0
  Ni  Ni174  1  0.61071433  0.22142867  0.03438800  1.0
  Ni  Ni175  1  0.61071433  0.55476200  0.03438800  1.0
  Ni  Ni176  1  0.61071433  0.88809533  0.03438800  1.0
  Ni  Ni177  1  0.94404767  0.22142867  0.03438800  1.0
  Ni  Ni178  1  0.94404767  0.55476200  0.03438800  1.0
  Ni  Ni179  1  0.94404767  0.88809533  0.03438800  1.0
  Ni  Ni180  1  0.11190467  0.05595233  0.03438800  1.0
  Ni  Ni181  1  0.11190467  0.38928567  0.03438800  1.0
  Ni  Ni182  1  0.11190467  0.72261900  0.03438800  1.0
  Ni  Ni183  1  0.44523800  0.05595233  0.03438800  1.0
  Ni  Ni184  1  0.44523800  0.38928567  0.03438800  1.0
  Ni  Ni185  1  0.44523800  0.72261900  0.03438800  1.0
  Ni  Ni186  1  0.77857133  0.05595233  0.03438800  1.0
  Ni  Ni187  1  0.77857133  0.38928567  0.03438800  1.0
  Ni  Ni188  1  0.77857133  0.72261900  0.03438800  1.0
  Ni  Ni189  1  0.27738100  0.05595233  0.03438800  1.0
  Ni  Ni190  1  0.27738100  0.38928567  0.03438800  1.0
  Ni  Ni191  1  0.27738100  0.72261900  0.03438800  1.0
  Ni  Ni192  1  0.61071433  0.05595233  0.03438800  1.0
  Ni  Ni193  1  0.61071433  0.38928567  0.03438800  1.0
  Ni  Ni194  1  0.61071433  0.72261900  0.03438800  1.0
  Ni  Ni195  1  0.94404767  0.05595233  0.03438800  1.0
  Ni  Ni196  1  0.94404767  0.38928567  0.03438800  1.0
  Ni  Ni197  1  0.94404767  0.72261900  0.03438800  1.0
  Ni  Ni198  1  0.27738100  0.22142867  0.20110600  1.0
  Ni  Ni199  1  0.27738100  0.55476200  0.20110600  1.0
  Ni  Ni200  1  0.27738100  0.88809533  0.20110600  1.0
  Ni  Ni201  1  0.61071433  0.22142867  0.20110600  1.0
  Ni  Ni202  1  0.61071433  0.55476200  0.20110600  1.0
  Ni  Ni203  1  0.61071433  0.88809533  0.20110600  1.0
  Ni  Ni204  1  0.94404767  0.22142867  0.20110600  1.0
  Ni  Ni205  1  0.94404767  0.55476200  0.20110600  1.0
  Ni  Ni206  1  0.94404767  0.88809533  0.20110600  1.0
  Ni  Ni207  1  0.11190467  0.05595233  0.20110600  1.0
  Ni  Ni208  1  0.11190467  0.38928567  0.20110600  1.0
  Ni  Ni209  1  0.11190467  0.72261900  0.20110600  1.0
  Ni  Ni210  1  0.44523800  0.05595233  0.20110600  1.0
  Ni  Ni211  1  0.44523800  0.38928567  0.20110600  1.0
  Ni  Ni212  1  0.44523800  0.72261900  0.20110600  1.0
  Ni  Ni213  1  0.77857133  0.05595233  0.20110600  1.0
  Ni  Ni214  1  0.77857133  0.38928567  0.20110600  1.0
  Ni  Ni215  1  0.77857133  0.72261900  0.20110600  1.0
  Ni  Ni216  1  0.27738100  0.05595233  0.20110600  1.0
  Ni  Ni217  1  0.27738100  0.38928567  0.20110600  1.0
  Ni  Ni218  1  0.27738100  0.72261900  0.20110600  1.0
  Ni  Ni219  1  0.61071433  0.05595233  0.20110600  1.0
  Ni  Ni220  1  0.61071433  0.38928567  0.20110600  1.0
  Ni  Ni221  1  0.61071433  0.72261900  0.20110600  1.0
  Ni  Ni222  1  0.94404767  0.05595233  0.20110600  1.0
  Ni  Ni223  1  0.94404767  0.38928567  0.20110600  1.0
  Ni  Ni224  1  0.94404767  0.72261900  0.20110600  1.0
  Ni  Ni225  1  0.05595233  0.11190467  0.28438800  1.0
  Ni  Ni226  1  0.05595233  0.44523800  0.28438800  1.0
  Ni  Ni227  1  0.05595233  0.77857133  0.28438800  1.0
  Ni  Ni228  1  0.38928567  0.11190467  0.28438800  1.0
  Ni  Ni229  1  0.38928567  0.44523800  0.28438800  1.0
  Ni  Ni230  1  0.38928567  0.77857133  0.28438800  1.0
  Ni  Ni231  1  0.72261900  0.11190467  0.28438800  1.0
  Ni  Ni232  1  0.72261900  0.44523800  0.28438800  1.0
  Ni  Ni233  1  0.72261900  0.77857133  0.28438800  1.0
  Ni  Ni234  1  0.22142867  0.27738100  0.28438800  1.0
  Ni  Ni235  1  0.22142867  0.61071433  0.28438800  1.0
  Ni  Ni236  1  0.22142867  0.94404767  0.28438800  1.0
  Ni  Ni237  1  0.55476200  0.27738100  0.28438800  1.0
  Ni  Ni238  1  0.55476200  0.61071433  0.28438800  1.0
  Ni  Ni239  1  0.55476200  0.94404767  0.28438800  1.0
  Ni  Ni240  1  0.88809533  0.27738100  0.28438800  1.0
  Ni  Ni241  1  0.88809533  0.61071433  0.28438800  1.0
  Ni  Ni242  1  0.88809533  0.94404767  0.28438800  1.0
  Ni  Ni243  1  0.05595233  0.27738100  0.28438800  1.0
  Ni  Ni244  1  0.05595233  0.61071433  0.28438800  1.0
  Ni  Ni245  1  0.05595233  0.94404767  0.28438800  1.0
  Ni  Ni246  1  0.38928567  0.27738100  0.28438800  1.0
  Ni  Ni247  1  0.38928567  0.61071433  0.28438800  1.0
  Ni  Ni248  1  0.38928567  0.94404767  0.28438800  1.0
  Ni  Ni249  1  0.72261900  0.27738100  0.28438800  1.0
  Ni  Ni250  1  0.72261900  0.61071433  0.28438800  1.0
  Ni  Ni251  1  0.72261900  0.94404767  0.28438800  1.0
  Ni  Ni252  1  0.00000000  0.00000000  0.40953800  1.0
  Ni  Ni253  1  0.00000000  0.33333333  0.40953800  1.0
  Ni  Ni254  1  0.00000000  0.66666667  0.40953800  1.0
  Ni  Ni255  1  0.33333333  0.00000000  0.40953800  1.0
  Ni  Ni256  1  0.33333333  0.33333333  0.40953800  1.0
  Ni  Ni257  1  0.33333333  0.66666667  0.40953800  1.0
  Ni  Ni258  1  0.66666667  0.00000000  0.40953800  1.0
  Ni  Ni259  1  0.66666667  0.33333333  0.40953800  1.0
  Ni  Ni260  1  0.66666667  0.66666667  0.40953800  1.0
  Ni  Ni261  1  0.00000000  0.00000000  0.07595600  1.0
  Ni  Ni262  1  0.00000000  0.33333333  0.07595600  1.0
  Ni  Ni263  1  0.00000000  0.66666667  0.07595600  1.0
  Ni  Ni264  1  0.33333333  0.00000000  0.07595600  1.0
  Ni  Ni265  1  0.33333333  0.33333333  0.07595600  1.0
  Ni  Ni266  1  0.33333333  0.66666667  0.07595600  1.0
  Ni  Ni267  1  0.66666667  0.00000000  0.07595600  1.0
  Ni  Ni268  1  0.66666667  0.33333333  0.07595600  1.0
  Ni  Ni269  1  0.66666667  0.66666667  0.07595600  1.0
  Ni  Ni270  1  0.00000000  0.00000000  0.15953800  1.0
  Ni  Ni271  1  0.00000000  0.33333333  0.15953800  1.0
  Ni  Ni272  1  0.00000000  0.66666667  0.15953800  1.0
  Ni  Ni273  1  0.33333333  0.00000000  0.15953800  1.0
  Ni  Ni274  1  0.33333333  0.33333333  0.15953800  1.0
  Ni  Ni275  1  0.33333333  0.66666667  0.15953800  1.0
  Ni  Ni276  1  0.66666667  0.00000000  0.15953800  1.0
  Ni  Ni277  1  0.66666667  0.33333333  0.15953800  1.0
  Ni  Ni278  1  0.66666667  0.66666667  0.15953800  1.0
  Ni  Ni279  1  0.00000000  0.00000000  0.32595600  1.0
  Ni  Ni280  1  0.00000000  0.33333333  0.32595600  1.0
  Ni  Ni281  1  0.00000000  0.66666667  0.32595600  1.0
  Ni  Ni282  1  0.33333333  0.00000000  0.32595600  1.0
  Ni  Ni283  1  0.33333333  0.33333333  0.32595600  1.0
  Ni  Ni284  1  0.33333333  0.66666667  0.32595600  1.0
  Ni  Ni285  1  0.66666667  0.00000000  0.32595600  1.0
  Ni  Ni286  1  0.66666667  0.33333333  0.32595600  1.0
  Ni  Ni287  1  0.66666667  0.66666667  0.32595600  1.0
  Ni  Ni288  1  0.22222222  0.11111111  0.07605500  1.0
  Ni  Ni289  1  0.22222222  0.44444444  0.07605500  1.0
  Ni  Ni290  1  0.22222222  0.77777778  0.07605500  1.0
  Ni  Ni291  1  0.55555556  0.11111111  0.07605500  1.0
  Ni  Ni292  1  0.55555556  0.44444444  0.07605500  1.0
  Ni  Ni293  1  0.55555556  0.77777778  0.07605500  1.0
  Ni  Ni294  1  0.88888889  0.11111111  0.07605500  1.0
  Ni  Ni295  1  0.88888889  0.44444444  0.07605500  1.0
  Ni  Ni296  1  0.88888889  0.77777778  0.07605500  1.0
  Ni  Ni297  1  0.11111111  0.22222222  0.40943900  1.0
  Ni  Ni298  1  0.11111111  0.55555556  0.40943900  1.0
  Ni  Ni299  1  0.11111111  0.88888889  0.40943900  1.0
  Ni  Ni300  1  0.44444444  0.22222222  0.40943900  1.0
  Ni  Ni301  1  0.44444444  0.55555556  0.40943900  1.0
  Ni  Ni302  1  0.44444444  0.88888889  0.40943900  1.0
  Ni  Ni303  1  0.77777778  0.22222222  0.40943900  1.0
  Ni  Ni304  1  0.77777778  0.55555556  0.40943900  1.0
  Ni  Ni305  1  0.77777778  0.88888889  0.40943900  1.0
  Ni  Ni306  1  0.11111111  0.22222222  0.32608033  1.0
  Ni  Ni307  1  0.11111111  0.55555556  0.32608033  1.0
  Ni  Ni308  1  0.11111111  0.88888889  0.32608033  1.0
  Ni  Ni309  1  0.44444444  0.22222222  0.32608033  1.0
  Ni  Ni310  1  0.44444444  0.55555556  0.32608033  1.0
  Ni  Ni311  1  0.44444444  0.88888889  0.32608033  1.0
  Ni  Ni312  1  0.77777778  0.22222222  0.32608033  1.0
  Ni  Ni313  1  0.77777778  0.55555556  0.32608033  1.0
  Ni  Ni314  1  0.77777778  0.88888889  0.32608033  1.0
  Ni  Ni315  1  0.22222222  0.11111111  0.15943900  1.0
  Ni  Ni316  1  0.22222222  0.44444444  0.15943900  1.0
  Ni  Ni317  1  0.22222222  0.77777778  0.15943900  1.0
  Ni  Ni318  1  0.55555556  0.11111111  0.15943900  1.0
  Ni  Ni319  1  0.55555556  0.44444444  0.15943900  1.0
  Ni  Ni320  1  0.55555556  0.77777778  0.15943900  1.0
  Ni  Ni321  1  0.88888889  0.11111111  0.15943900  1.0
  Ni  Ni322  1  0.88888889  0.44444444  0.15943900  1.0
  Ni  Ni323  1  0.88888889  0.77777778  0.15943900  1.0
