# generated using pymatgen
data_Sc2Ni
_symmetry_space_group_name_H-M   'P 1'
_cell_length_a   25.64981766
_cell_length_b   25.64981766
_cell_length_c   42.74969610
_cell_angle_alpha   120.00000000
_cell_angle_beta   120.00000000
_cell_angle_gamma   60.00000000
_symmetry_Int_Tables_number   1
_chemical_formula_structural   Sc2Ni
_chemical_formula_sum   'Sc288 Ni144'
_cell_volume   19887.79332884
_cell_formula_units_Z   144
loop_
 _symmetry_equiv_pos_site_id
 _symmetry_equiv_pos_as_xyz
  1  'x, y, z'
loop_
 _atom_site_type_symbol
 _atom_site_label
 _atom_site_symmetry_multiplicity
 _atom_site_fract_x
 _atom_site_fract_y
 _atom_site_fract_z
 _atom_site_occupancy
  Sc  Sc0  1  0.20833333  0.20833333  0.16513888  1.0
  Sc  Sc1  1  0.20833333  0.54166667  0.16513888  1.0
  Sc  Sc2  1  0.20833333  0.87500000  0.16513888  1.0
  Sc  Sc3  1  0.54166667  0.20833333  0.16513888  1.0
  Sc  Sc4  1  0.54166667  0.54166667  0.16513888  1.0
  Sc  Sc5  1  0.54166667  0.87500000  0.16513888  1.0
  Sc  Sc6  1  0.87500000  0.20833333  0.16513888  1.0
  Sc  Sc7  1  0.87500000  0.54166667  0.16513888  1.0
  Sc  Sc8  1  0.87500000  0.87500000  0.16513888  1.0
  Sc  Sc9  1  0.20833333  0.04166667  0.06513888  1.0
  Sc  Sc10  1  0.20833333  0.37500000  0.06513888  1.0
  Sc  Sc11  1  0.20833333  0.70833333  0.06513888  1.0
  Sc  Sc12  1  0.54166667  0.04166667  0.06513888  1.0
  Sc  Sc13  1  0.54166667  0.37500000  0.06513888  1.0
  Sc  Sc14  1  0.54166667  0.70833333  0.06513888  1.0
  Sc  Sc15  1  0.87500000  0.04166667  0.06513888  1.0
  Sc  Sc16  1  0.87500000  0.37500000  0.06513888  1.0
  Sc  Sc17  1  0.87500000  0.70833333  0.06513888  1.0
  Sc  Sc18  1  0.20833333  0.20833333  0.06513888  1.0
  Sc  Sc19  1  0.20833333  0.54166667  0.06513888  1.0
  Sc  Sc20  1  0.20833333  0.87500000  0.06513888  1.0
  Sc  Sc21  1  0.54166667  0.20833333  0.06513888  1.0
  Sc  Sc22  1  0.54166667  0.54166667  0.06513888  1.0
  Sc  Sc23  1  0.54166667  0.87500000  0.06513888  1.0
  Sc  Sc24  1  0.87500000  0.20833333  0.06513888  1.0
  Sc  Sc25  1  0.87500000  0.54166667  0.06513888  1.0
  Sc  Sc26  1  0.87500000  0.87500000  0.06513888  1.0
  Sc  Sc27  1  0.04166667  0.20833333  0.06513888  1.0
  Sc  Sc28  1  0.04166667  0.54166667  0.06513888  1.0
  Sc  Sc29  1  0.04166667  0.87500000  0.06513888  1.0
  Sc  Sc30  1  0.37500000  0.20833333  0.06513888  1.0
  Sc  Sc31  1  0.37500000  0.54166667  0.06513888  1.0
  Sc  Sc32  1  0.37500000  0.87500000  0.06513888  1.0
  Sc  Sc33  1  0.70833333  0.20833333  0.06513888  1.0
  Sc  Sc34  1  0.70833333  0.54166667  0.06513888  1.0
  Sc  Sc35  1  0.70833333  0.87500000  0.06513888  1.0
  Sc  Sc36  1  0.02145317  0.02145317  0.10301078  1.0
  Sc  Sc37  1  0.02145317  0.35478650  0.10301078  1.0
  Sc  Sc38  1  0.02145317  0.68811983  0.10301078  1.0
  Sc  Sc39  1  0.35478650  0.02145317  0.10301078  1.0
  Sc  Sc40  1  0.35478650  0.35478650  0.10301078  1.0
  Sc  Sc41  1  0.35478650  0.68811983  0.10301078  1.0
  Sc  Sc42  1  0.68811983  0.02145317  0.10301078  1.0
  Sc  Sc43  1  0.68811983  0.35478650  0.10301078  1.0
  Sc  Sc44  1  0.68811983  0.68811983  0.10301078  1.0
  Sc  Sc45  1  0.14521350  0.14521350  0.17726698  1.0
  Sc  Sc46  1  0.14521350  0.47854683  0.17726698  1.0
  Sc  Sc47  1  0.14521350  0.81188017  0.17726698  1.0
  Sc  Sc48  1  0.47854683  0.14521350  0.17726698  1.0
  Sc  Sc49  1  0.47854683  0.47854683  0.17726698  1.0
  Sc  Sc50  1  0.47854683  0.81188017  0.17726698  1.0
  Sc  Sc51  1  0.81188017  0.14521350  0.17726698  1.0
  Sc  Sc52  1  0.81188017  0.47854683  0.17726698  1.0
  Sc  Sc53  1  0.81188017  0.81188017  0.17726698  1.0
  Sc  Sc54  1  0.14521350  0.02145317  0.10301078  1.0
  Sc  Sc55  1  0.14521350  0.35478650  0.10301078  1.0
  Sc  Sc56  1  0.14521350  0.68811983  0.10301078  1.0
  Sc  Sc57  1  0.47854683  0.02145317  0.10301078  1.0
  Sc  Sc58  1  0.47854683  0.35478650  0.10301078  1.0
  Sc  Sc59  1  0.47854683  0.68811983  0.10301078  1.0
  Sc  Sc60  1  0.81188017  0.02145317  0.10301078  1.0
  Sc  Sc61  1  0.81188017  0.35478650  0.10301078  1.0
  Sc  Sc62  1  0.81188017  0.68811983  0.10301078  1.0
  Sc  Sc63  1  0.02145317  0.14521350  0.10301078  1.0
  Sc  Sc64  1  0.02145317  0.47854683  0.10301078  1.0
  Sc  Sc65  1  0.02145317  0.81188017  0.10301078  1.0
  Sc  Sc66  1  0.35478650  0.14521350  0.10301078  1.0
  Sc  Sc67  1  0.35478650  0.47854683  0.10301078  1.0
  Sc  Sc68  1  0.35478650  0.81188017  0.10301078  1.0
  Sc  Sc69  1  0.68811983  0.14521350  0.10301078  1.0
  Sc  Sc70  1  0.68811983  0.47854683  0.10301078  1.0
  Sc  Sc71  1  0.68811983  0.81188017  0.10301078  1.0
  Sc  Sc72  1  0.02145317  0.14521350  0.17726698  1.0
  Sc  Sc73  1  0.02145317  0.47854683  0.17726698  1.0
  Sc  Sc74  1  0.02145317  0.81188017  0.17726698  1.0
  Sc  Sc75  1  0.35478650  0.14521350  0.17726698  1.0
  Sc  Sc76  1  0.35478650  0.47854683  0.17726698  1.0
  Sc  Sc77  1  0.35478650  0.81188017  0.17726698  1.0
  Sc  Sc78  1  0.68811983  0.14521350  0.17726698  1.0
  Sc  Sc79  1  0.68811983  0.47854683  0.17726698  1.0
  Sc  Sc80  1  0.68811983  0.81188017  0.17726698  1.0
  Sc  Sc81  1  0.14521350  0.02145317  0.17726698  1.0
  Sc  Sc82  1  0.14521350  0.35478650  0.17726698  1.0
  Sc  Sc83  1  0.14521350  0.68811983  0.17726698  1.0
  Sc  Sc84  1  0.47854683  0.02145317  0.17726698  1.0
  Sc  Sc85  1  0.47854683  0.35478650  0.17726698  1.0
  Sc  Sc86  1  0.47854683  0.68811983  0.17726698  1.0
  Sc  Sc87  1  0.81188017  0.02145317  0.17726698  1.0
  Sc  Sc88  1  0.81188017  0.35478650  0.17726698  1.0
  Sc  Sc89  1  0.81188017  0.68811983  0.17726698  1.0
  Sc  Sc90  1  0.27145317  0.06188017  0.02726698  1.0
  Sc  Sc91  1  0.27145317  0.39521350  0.02726698  1.0
  Sc  Sc92  1  0.27145317  0.72854683  0.02726698  1.0
  Sc  Sc93  1  0.60478650  0.06188017  0.02726698  1.0
  Sc  Sc94  1  0.60478650  0.39521350  0.02726698  1.0
  Sc  Sc95  1  0.60478650  0.72854683  0.02726698  1.0
  Sc  Sc96  1  0.93811983  0.06188017  0.02726698  1.0
  Sc  Sc97  1  0.93811983  0.39521350  0.02726698  1.0
  Sc  Sc98  1  0.93811983  0.72854683  0.02726698  1.0
  Sc  Sc99  1  0.06188017  0.27145317  0.15301078  1.0
  Sc  Sc100  1  0.06188017  0.60478650  0.15301078  1.0
  Sc  Sc101  1  0.06188017  0.93811983  0.15301078  1.0
  Sc  Sc102  1  0.39521350  0.27145317  0.15301078  1.0
  Sc  Sc103  1  0.39521350  0.60478650  0.15301078  1.0
  Sc  Sc104  1  0.39521350  0.93811983  0.15301078  1.0
  Sc  Sc105  1  0.72854683  0.27145317  0.15301078  1.0
  Sc  Sc106  1  0.72854683  0.60478650  0.15301078  1.0
  Sc  Sc107  1  0.72854683  0.93811983  0.15301078  1.0
  Sc  Sc108  1  0.06188017  0.06188017  0.02726698  1.0
  Sc  Sc109  1  0.06188017  0.39521350  0.02726698  1.0
  Sc  Sc110  1  0.06188017  0.72854683  0.02726698  1.0
  Sc  Sc111  1  0.39521350  0.06188017  0.02726698  1.0
  Sc  Sc112  1  0.39521350  0.39521350  0.02726698  1.0
  Sc  Sc113  1  0.39521350  0.72854683  0.02726698  1.0
  Sc  Sc114  1  0.72854683  0.06188017  0.02726698  1.0
  Sc  Sc115  1  0.72854683  0.39521350  0.02726698  1.0
  Sc  Sc116  1  0.72854683  0.72854683  0.02726698  1.0
  Sc  Sc117  1  0.06188017  0.27145317  0.02726698  1.0
  Sc  Sc118  1  0.06188017  0.60478650  0.02726698  1.0
  Sc  Sc119  1  0.06188017  0.93811983  0.02726698  1.0
  Sc  Sc120  1  0.39521350  0.27145317  0.02726698  1.0
  Sc  Sc121  1  0.39521350  0.60478650  0.02726698  1.0
  Sc  Sc122  1  0.39521350  0.93811983  0.02726698  1.0
  Sc  Sc123  1  0.72854683  0.27145317  0.02726698  1.0
  Sc  Sc124  1  0.72854683  0.60478650  0.02726698  1.0
  Sc  Sc125  1  0.72854683  0.93811983  0.02726698  1.0
  Sc  Sc126  1  0.27145317  0.27145317  0.15301078  1.0
  Sc  Sc127  1  0.27145317  0.60478650  0.15301078  1.0
  Sc  Sc128  1  0.27145317  0.93811983  0.15301078  1.0
  Sc  Sc129  1  0.60478650  0.27145317  0.15301078  1.0
  Sc  Sc130  1  0.60478650  0.60478650  0.15301078  1.0
  Sc  Sc131  1  0.60478650  0.93811983  0.15301078  1.0
  Sc  Sc132  1  0.93811983  0.27145317  0.15301078  1.0
  Sc  Sc133  1  0.93811983  0.60478650  0.15301078  1.0
  Sc  Sc134  1  0.93811983  0.93811983  0.15301078  1.0
  Sc  Sc135  1  0.27145317  0.06188017  0.15301078  1.0
  Sc  Sc136  1  0.27145317  0.39521350  0.15301078  1.0
  Sc  Sc137  1  0.27145317  0.72854683  0.15301078  1.0
  Sc  Sc138  1  0.60478650  0.06188017  0.15301078  1.0
  Sc  Sc139  1  0.60478650  0.39521350  0.15301078  1.0
  Sc  Sc140  1  0.60478650  0.72854683  0.15301078  1.0
  Sc  Sc141  1  0.93811983  0.06188017  0.15301078  1.0
  Sc  Sc142  1  0.93811983  0.39521350  0.15301078  1.0
  Sc  Sc143  1  0.93811983  0.72854683  0.15301078  1.0
  Ni  Ni144  1  0.27900978  0.27900978  0.09235648  1.0
  Ni  Ni145  1  0.27900978  0.61234311  0.09235648  1.0
  Ni  Ni146  1  0.27900978  0.94567644  0.09235648  1.0
  Ni  Ni147  1  0.61234311  0.27900978  0.09235648  1.0
  Ni  Ni148  1  0.61234311  0.61234311  0.09235648  1.0
  Ni  Ni149  1  0.61234311  0.94567644  0.09235648  1.0
  Ni  Ni150  1  0.94567644  0.27900978  0.09235648  1.0
  Ni  Ni151  1  0.94567644  0.61234311  0.09235648  1.0
  Ni  Ni152  1  0.94567644  0.94567644  0.09235648  1.0
  Ni  Ni153  1  0.27900978  0.16297067  0.02273302  1.0
  Ni  Ni154  1  0.27900978  0.49630400  0.02273302  1.0
  Ni  Ni155  1  0.27900978  0.82963733  0.02273302  1.0
  Ni  Ni156  1  0.61234311  0.16297067  0.02273302  1.0
  Ni  Ni157  1  0.61234311  0.49630400  0.02273302  1.0
  Ni  Ni158  1  0.61234311  0.82963733  0.02273302  1.0
  Ni  Ni159  1  0.94567644  0.16297067  0.02273302  1.0
  Ni  Ni160  1  0.94567644  0.49630400  0.02273302  1.0
  Ni  Ni161  1  0.94567644  0.82963733  0.02273302  1.0
  Ni  Ni162  1  0.27900978  0.27900978  0.02273302  1.0
  Ni  Ni163  1  0.27900978  0.61234311  0.02273302  1.0
  Ni  Ni164  1  0.27900978  0.94567644  0.02273302  1.0
  Ni  Ni165  1  0.61234311  0.27900978  0.02273302  1.0
  Ni  Ni166  1  0.61234311  0.61234311  0.02273302  1.0
  Ni  Ni167  1  0.61234311  0.94567644  0.02273302  1.0
  Ni  Ni168  1  0.94567644  0.27900978  0.02273302  1.0
  Ni  Ni169  1  0.94567644  0.61234311  0.02273302  1.0
  Ni  Ni170  1  0.94567644  0.94567644  0.02273302  1.0
  Ni  Ni171  1  0.16297067  0.27900978  0.02273302  1.0
  Ni  Ni172  1  0.16297067  0.61234311  0.02273302  1.0
  Ni  Ni173  1  0.16297067  0.94567644  0.02273302  1.0
  Ni  Ni174  1  0.49630400  0.27900978  0.02273302  1.0
  Ni  Ni175  1  0.49630400  0.61234311  0.02273302  1.0
  Ni  Ni176  1  0.49630400  0.94567644  0.02273302  1.0
  Ni  Ni177  1  0.82963733  0.27900978  0.02273302  1.0
  Ni  Ni178  1  0.82963733  0.61234311  0.02273302  1.0
  Ni  Ni179  1  0.82963733  0.94567644  0.02273302  1.0
  Ni  Ni180  1  0.13765689  0.13765689  0.03792129  1.0
  Ni  Ni181  1  0.13765689  0.47099022  0.03792129  1.0
  Ni  Ni182  1  0.13765689  0.80432356  0.03792129  1.0
  Ni  Ni183  1  0.47099022  0.13765689  0.03792129  1.0
  Ni  Ni184  1  0.47099022  0.47099022  0.03792129  1.0
  Ni  Ni185  1  0.47099022  0.80432356  0.03792129  1.0
  Ni  Ni186  1  0.80432356  0.13765689  0.03792129  1.0
  Ni  Ni187  1  0.80432356  0.47099022  0.03792129  1.0
  Ni  Ni188  1  0.80432356  0.80432356  0.03792129  1.0
  Ni  Ni189  1  0.13765689  0.25369600  0.10754475  1.0
  Ni  Ni190  1  0.13765689  0.58702933  0.10754475  1.0
  Ni  Ni191  1  0.13765689  0.92036267  0.10754475  1.0
  Ni  Ni192  1  0.47099022  0.25369600  0.10754475  1.0
  Ni  Ni193  1  0.47099022  0.58702933  0.10754475  1.0
  Ni  Ni194  1  0.47099022  0.92036267  0.10754475  1.0
  Ni  Ni195  1  0.80432356  0.25369600  0.10754475  1.0
  Ni  Ni196  1  0.80432356  0.58702933  0.10754475  1.0
  Ni  Ni197  1  0.80432356  0.92036267  0.10754475  1.0
  Ni  Ni198  1  0.25369600  0.13765689  0.10754475  1.0
  Ni  Ni199  1  0.25369600  0.47099022  0.10754475  1.0
  Ni  Ni200  1  0.25369600  0.80432356  0.10754475  1.0
  Ni  Ni201  1  0.58702933  0.13765689  0.10754475  1.0
  Ni  Ni202  1  0.58702933  0.47099022  0.10754475  1.0
  Ni  Ni203  1  0.58702933  0.80432356  0.10754475  1.0
  Ni  Ni204  1  0.92036267  0.13765689  0.10754475  1.0
  Ni  Ni205  1  0.92036267  0.47099022  0.10754475  1.0
  Ni  Ni206  1  0.92036267  0.80432356  0.10754475  1.0
  Ni  Ni207  1  0.13765689  0.13765689  0.10754475  1.0
  Ni  Ni208  1  0.13765689  0.47099022  0.10754475  1.0
  Ni  Ni209  1  0.13765689  0.80432356  0.10754475  1.0
  Ni  Ni210  1  0.47099022  0.13765689  0.10754475  1.0
  Ni  Ni211  1  0.47099022  0.47099022  0.10754475  1.0
  Ni  Ni212  1  0.47099022  0.80432356  0.10754475  1.0
  Ni  Ni213  1  0.80432356  0.13765689  0.10754475  1.0
  Ni  Ni214  1  0.80432356  0.47099022  0.10754475  1.0
  Ni  Ni215  1  0.80432356  0.80432356  0.10754475  1.0
  Sc  Sc216  1  0.20833333  0.20833333  0.36513888  1.0
  Sc  Sc217  1  0.20833333  0.54166667  0.36513888  1.0
  Sc  Sc218  1  0.20833333  0.87500000  0.36513888  1.0
  Sc  Sc219  1  0.54166667  0.20833333  0.36513888  1.0
  Sc  Sc220  1  0.54166667  0.54166667  0.36513888  1.0
  Sc  Sc221  1  0.54166667  0.87500000  0.36513888  1.0
  Sc  Sc222  1  0.87500000  0.20833333  0.36513888  1.0
  Sc  Sc223  1  0.87500000  0.54166667  0.36513888  1.0
  Sc  Sc224  1  0.87500000  0.87500000  0.36513888  1.0
  Sc  Sc225  1  0.20833333  0.04166667  0.26513888  1.0
  Sc  Sc226  1  0.20833333  0.37500000  0.26513888  1.0
  Sc  Sc227  1  0.20833333  0.70833333  0.26513888  1.0
  Sc  Sc228  1  0.54166667  0.04166667  0.26513888  1.0
  Sc  Sc229  1  0.54166667  0.37500000  0.26513888  1.0
  Sc  Sc230  1  0.54166667  0.70833333  0.26513888  1.0
  Sc  Sc231  1  0.87500000  0.04166667  0.26513888  1.0
  Sc  Sc232  1  0.87500000  0.37500000  0.26513888  1.0
  Sc  Sc233  1  0.87500000  0.70833333  0.26513888  1.0
  Sc  Sc234  1  0.20833333  0.20833333  0.26513888  1.0
  Sc  Sc235  1  0.20833333  0.54166667  0.26513888  1.0
  Sc  Sc236  1  0.20833333  0.87500000  0.26513888  1.0
  Sc  Sc237  1  0.54166667  0.20833333  0.26513888  1.0
  Sc  Sc238  1  0.54166667  0.54166667  0.26513888  1.0
  Sc  Sc239  1  0.54166667  0.87500000  0.26513888  1.0
  Sc  Sc240  1  0.87500000  0.20833333  0.26513888  1.0
  Sc  Sc241  1  0.87500000  0.54166667  0.26513888  1.0
  Sc  Sc242  1  0.87500000  0.87500000  0.26513888  1.0
  Sc  Sc243  1  0.04166667  0.20833333  0.26513888  1.0
  Sc  Sc244  1  0.04166667  0.54166667  0.26513888  1.0
  Sc  Sc245  1  0.04166667  0.87500000  0.26513888  1.0
  Sc  Sc246  1  0.37500000  0.20833333  0.26513888  1.0
  Sc  Sc247  1  0.37500000  0.54166667  0.26513888  1.0
  Sc  Sc248  1  0.37500000  0.87500000  0.26513888  1.0
  Sc  Sc249  1  0.70833333  0.20833333  0.26513888  1.0
  Sc  Sc250  1  0.70833333  0.54166667  0.26513888  1.0
  Sc  Sc251  1  0.70833333  0.87500000  0.26513888  1.0
  Sc  Sc252  1  0.02145317  0.02145317  0.30301078  1.0
  Sc  Sc253  1  0.02145317  0.35478650  0.30301078  1.0
  Sc  Sc254  1  0.02145317  0.68811983  0.30301078  1.0
  Sc  Sc255  1  0.35478650  0.02145317  0.30301078  1.0
  Sc  Sc256  1  0.35478650  0.35478650  0.30301078  1.0
  Sc  Sc257  1  0.35478650  0.68811983  0.30301078  1.0
  Sc  Sc258  1  0.68811983  0.02145317  0.30301078  1.0
  Sc  Sc259  1  0.68811983  0.35478650  0.30301078  1.0
  Sc  Sc260  1  0.68811983  0.68811983  0.30301078  1.0
  Sc  Sc261  1  0.14521350  0.14521350  0.37726698  1.0
  Sc  Sc262  1  0.14521350  0.47854683  0.37726698  1.0
  Sc  Sc263  1  0.14521350  0.81188017  0.37726698  1.0
  Sc  Sc264  1  0.47854683  0.14521350  0.37726698  1.0
  Sc  Sc265  1  0.47854683  0.47854683  0.37726698  1.0
  Sc  Sc266  1  0.47854683  0.81188017  0.37726698  1.0
  Sc  Sc267  1  0.81188017  0.14521350  0.37726698  1.0
  Sc  Sc268  1  0.81188017  0.47854683  0.37726698  1.0
  Sc  Sc269  1  0.81188017  0.81188017  0.37726698  1.0
  Sc  Sc270  1  0.14521350  0.02145317  0.30301078  1.0
  Sc  Sc271  1  0.14521350  0.35478650  0.30301078  1.0
  Sc  Sc272  1  0.14521350  0.68811983  0.30301078  1.0
  Sc  Sc273  1  0.47854683  0.02145317  0.30301078  1.0
  Sc  Sc274  1  0.47854683  0.35478650  0.30301078  1.0
  Sc  Sc275  1  0.47854683  0.68811983  0.30301078  1.0
  Sc  Sc276  1  0.81188017  0.02145317  0.30301078  1.0
  Sc  Sc277  1  0.81188017  0.35478650  0.30301078  1.0
  Sc  Sc278  1  0.81188017  0.68811983  0.30301078  1.0
  Sc  Sc279  1  0.02145317  0.14521350  0.30301078  1.0
  Sc  Sc280  1  0.02145317  0.47854683  0.30301078  1.0
  Sc  Sc281  1  0.02145317  0.81188017  0.30301078  1.0
  Sc  Sc282  1  0.35478650  0.14521350  0.30301078  1.0
  Sc  Sc283  1  0.35478650  0.47854683  0.30301078  1.0
  Sc  Sc284  1  0.35478650  0.81188017  0.30301078  1.0
  Sc  Sc285  1  0.68811983  0.14521350  0.30301078  1.0
  Sc  Sc286  1  0.68811983  0.47854683  0.30301078  1.0
  Sc  Sc287  1  0.68811983  0.81188017  0.30301078  1.0
  Sc  Sc288  1  0.02145317  0.14521350  0.37726698  1.0
  Sc  Sc289  1  0.02145317  0.47854683  0.37726698  1.0
  Sc  Sc290  1  0.02145317  0.81188017  0.37726698  1.0
  Sc  Sc291  1  0.35478650  0.14521350  0.37726698  1.0
  Sc  Sc292  1  0.35478650  0.47854683  0.37726698  1.0
  Sc  Sc293  1  0.35478650  0.81188017  0.37726698  1.0
  Sc  Sc294  1  0.68811983  0.14521350  0.37726698  1.0
  Sc  Sc295  1  0.68811983  0.47854683  0.37726698  1.0
  Sc  Sc296  1  0.68811983  0.81188017  0.37726698  1.0
  Sc  Sc297  1  0.14521350  0.02145317  0.37726698  1.0
  Sc  Sc298  1  0.14521350  0.35478650  0.37726698  1.0
  Sc  Sc299  1  0.14521350  0.68811983  0.37726698  1.0
  Sc  Sc300  1  0.47854683  0.02145317  0.37726698  1.0
  Sc  Sc301  1  0.47854683  0.35478650  0.37726698  1.0
  Sc  Sc302  1  0.47854683  0.68811983  0.37726698  1.0
  Sc  Sc303  1  0.81188017  0.02145317  0.37726698  1.0
  Sc  Sc304  1  0.81188017  0.35478650  0.37726698  1.0
  Sc  Sc305  1  0.81188017  0.68811983  0.37726698  1.0
  Sc  Sc306  1  0.27145317  0.06188017  0.22726698  1.0
  Sc  Sc307  1  0.27145317  0.39521350  0.22726698  1.0
  Sc  Sc308  1  0.27145317  0.72854683  0.22726698  1.0
  Sc  Sc309  1  0.60478650  0.06188017  0.22726698  1.0
  Sc  Sc310  1  0.60478650  0.39521350  0.22726698  1.0
  Sc  Sc311  1  0.60478650  0.72854683  0.22726698  1.0
  Sc  Sc312  1  0.93811983  0.06188017  0.22726698  1.0
  Sc  Sc313  1  0.93811983  0.39521350  0.22726698  1.0
  Sc  Sc314  1  0.93811983  0.72854683  0.22726698  1.0
  Sc  Sc315  1  0.06188017  0.27145317  0.35301078  1.0
  Sc  Sc316  1  0.06188017  0.60478650  0.35301078  1.0
  Sc  Sc317  1  0.06188017  0.93811983  0.35301078  1.0
  Sc  Sc318  1  0.39521350  0.27145317  0.35301078  1.0
  Sc  Sc319  1  0.39521350  0.60478650  0.35301078  1.0
  Sc  Sc320  1  0.39521350  0.93811983  0.35301078  1.0
  Sc  Sc321  1  0.72854683  0.27145317  0.35301078  1.0
  Sc  Sc322  1  0.72854683  0.60478650  0.35301078  1.0
  Sc  Sc323  1  0.72854683  0.93811983  0.35301078  1.0
  Sc  Sc324  1  0.06188017  0.06188017  0.22726698  1.0
  Sc  Sc325  1  0.06188017  0.39521350  0.22726698  1.0
  Sc  Sc326  1  0.06188017  0.72854683  0.22726698  1.0
  Sc  Sc327  1  0.39521350  0.06188017  0.22726698  1.0
  Sc  Sc328  1  0.39521350  0.39521350  0.22726698  1.0
  Sc  Sc329  1  0.39521350  0.72854683  0.22726698  1.0
  Sc  Sc330  1  0.72854683  0.06188017  0.22726698  1.0
  Sc  Sc331  1  0.72854683  0.39521350  0.22726698  1.0
  Sc  Sc332  1  0.72854683  0.72854683  0.22726698  1.0
  Sc  Sc333  1  0.06188017  0.27145317  0.22726698  1.0
  Sc  Sc334  1  0.06188017  0.60478650  0.22726698  1.0
  Sc  Sc335  1  0.06188017  0.93811983  0.22726698  1.0
  Sc  Sc336  1  0.39521350  0.27145317  0.22726698  1.0
  Sc  Sc337  1  0.39521350  0.60478650  0.22726698  1.0
  Sc  Sc338  1  0.39521350  0.93811983  0.22726698  1.0
  Sc  Sc339  1  0.72854683  0.27145317  0.22726698  1.0
  Sc  Sc340  1  0.72854683  0.60478650  0.22726698  1.0
  Sc  Sc341  1  0.72854683  0.93811983  0.22726698  1.0
  Sc  Sc342  1  0.27145317  0.27145317  0.35301078  1.0
  Sc  Sc343  1  0.27145317  0.60478650  0.35301078  1.0
  Sc  Sc344  1  0.27145317  0.93811983  0.35301078  1.0
  Sc  Sc345  1  0.60478650  0.27145317  0.35301078  1.0
  Sc  Sc346  1  0.60478650  0.60478650  0.35301078  1.0
  Sc  Sc347  1  0.60478650  0.93811983  0.35301078  1.0
  Sc  Sc348  1  0.93811983  0.27145317  0.35301078  1.0
  Sc  Sc349  1  0.93811983  0.60478650  0.35301078  1.0
  Sc  Sc350  1  0.93811983  0.93811983  0.35301078  1.0
  Sc  Sc351  1  0.27145317  0.06188017  0.35301078  1.0
  Sc  Sc352  1  0.27145317  0.39521350  0.35301078  1.0
  Sc  Sc353  1  0.27145317  0.72854683  0.35301078  1.0
  Sc  Sc354  1  0.60478650  0.06188017  0.35301078  1.0
  Sc  Sc355  1  0.60478650  0.39521350  0.35301078  1.0
  Sc  Sc356  1  0.60478650  0.72854683  0.35301078  1.0
  Sc  Sc357  1  0.93811983  0.06188017  0.35301078  1.0
  Sc  Sc358  1  0.93811983  0.39521350  0.35301078  1.0
  Sc  Sc359  1  0.93811983  0.72854683  0.35301078  1.0
  Ni  Ni360  1  0.27900978  0.27900978  0.29235648  1.0
  Ni  Ni361  1  0.27900978  0.61234311  0.29235648  1.0
  Ni  Ni362  1  0.27900978  0.94567644  0.29235648  1.0
  Ni  Ni363  1  0.61234311  0.27900978  0.29235648  1.0
  Ni  Ni364  1  0.61234311  0.61234311  0.29235648  1.0
  Ni  Ni365  1  0.61234311  0.94567644  0.29235648  1.0
  Ni  Ni366  1  0.94567644  0.27900978  0.29235648  1.0
  Ni  Ni367  1  0.94567644  0.61234311  0.29235648  1.0
  Ni  Ni368  1  0.94567644  0.94567644  0.29235648  1.0
  Ni  Ni369  1  0.27900978  0.16297067  0.22273302  1.0
  Ni  Ni370  1  0.27900978  0.49630400  0.22273302  1.0
  Ni  Ni371  1  0.27900978  0.82963733  0.22273302  1.0
  Ni  Ni372  1  0.61234311  0.16297067  0.22273302  1.0
  Ni  Ni373  1  0.61234311  0.49630400  0.22273302  1.0
  Ni  Ni374  1  0.61234311  0.82963733  0.22273302  1.0
  Ni  Ni375  1  0.94567644  0.16297067  0.22273302  1.0
  Ni  Ni376  1  0.94567644  0.49630400  0.22273302  1.0
  Ni  Ni377  1  0.94567644  0.82963733  0.22273302  1.0
  Ni  Ni378  1  0.27900978  0.27900978  0.22273302  1.0
  Ni  Ni379  1  0.27900978  0.61234311  0.22273302  1.0
  Ni  Ni380  1  0.27900978  0.94567644  0.22273302  1.0
  Ni  Ni381  1  0.61234311  0.27900978  0.22273302  1.0
  Ni  Ni382  1  0.61234311  0.61234311  0.22273302  1.0
  Ni  Ni383  1  0.61234311  0.94567644  0.22273302  1.0
  Ni  Ni384  1  0.94567644  0.27900978  0.22273302  1.0
  Ni  Ni385  1  0.94567644  0.61234311  0.22273302  1.0
  Ni  Ni386  1  0.94567644  0.94567644  0.22273302  1.0
  Ni  Ni387  1  0.16297067  0.27900978  0.22273302  1.0
  Ni  Ni388  1  0.16297067  0.61234311  0.22273302  1.0
  Ni  Ni389  1  0.16297067  0.94567644  0.22273302  1.0
  Ni  Ni390  1  0.49630400  0.27900978  0.22273302  1.0
  Ni  Ni391  1  0.49630400  0.61234311  0.22273302  1.0
  Ni  Ni392  1  0.49630400  0.94567644  0.22273302  1.0
  Ni  Ni393  1  0.82963733  0.27900978  0.22273302  1.0
  Ni  Ni394  1  0.82963733  0.61234311  0.22273302  1.0
  Ni  Ni395  1  0.82963733  0.94567644  0.22273302  1.0
  Ni  Ni396  1  0.13765689  0.13765689  0.23792129  1.0
  Ni  Ni397  1  0.13765689  0.47099022  0.23792129  1.0
  Ni  Ni398  1  0.13765689  0.80432356  0.23792129  1.0
  Ni  Ni399  1  0.47099022  0.13765689  0.23792129  1.0
  Ni  Ni400  1  0.47099022  0.47099022  0.23792129  1.0
  Ni  Ni401  1  0.47099022  0.80432356  0.23792129  1.0
  Ni  Ni402  1  0.80432356  0.13765689  0.23792129  1.0
  Ni  Ni403  1  0.80432356  0.47099022  0.23792129  1.0
  Ni  Ni404  1  0.80432356  0.80432356  0.23792129  1.0
  Ni  Ni405  1  0.13765689  0.25369600  0.30754475  1.0
  Ni  Ni406  1  0.13765689  0.58702933  0.30754475  1.0
  Ni  Ni407  1  0.13765689  0.92036267  0.30754475  1.0
  Ni  Ni408  1  0.47099022  0.25369600  0.30754475  1.0
  Ni  Ni409  1  0.47099022  0.58702933  0.30754475  1.0
  Ni  Ni410  1  0.47099022  0.92036267  0.30754475  1.0
  Ni  Ni411  1  0.80432356  0.25369600  0.30754475  1.0
  Ni  Ni412  1  0.80432356  0.58702933  0.30754475  1.0
  Ni  Ni413  1  0.80432356  0.92036267  0.30754475  1.0
  Ni  Ni414  1  0.25369600  0.13765689  0.30754475  1.0
  Ni  Ni415  1  0.25369600  0.47099022  0.30754475  1.0
  Ni  Ni416  1  0.25369600  0.80432356  0.30754475  1.0
  Ni  Ni417  1  0.58702933  0.13765689  0.30754475  1.0
  Ni  Ni418  1  0.58702933  0.47099022  0.30754475  1.0
  Ni  Ni419  1  0.58702933  0.80432356  0.30754475  1.0
  Ni  Ni420  1  0.92036267  0.13765689  0.30754475  1.0
  Ni  Ni421  1  0.92036267  0.47099022  0.30754475  1.0
  Ni  Ni422  1  0.92036267  0.80432356  0.30754475  1.0
  Ni  Ni423  1  0.13765689  0.13765689  0.30754475  1.0
  Ni  Ni424  1  0.13765689  0.47099022  0.30754475  1.0
  Ni  Ni425  1  0.13765689  0.80432356  0.30754475  1.0
  Ni  Ni426  1  0.47099022  0.13765689  0.30754475  1.0
  Ni  Ni427  1  0.47099022  0.47099022  0.30754475  1.0
  Ni  Ni428  1  0.47099022  0.80432356  0.30754475  1.0
  Ni  Ni429  1  0.80432356  0.13765689  0.30754475  1.0
  Ni  Ni430  1  0.80432356  0.47099022  0.30754475  1.0
  Ni  Ni431  1  0.80432356  0.80432356  0.30754475  1.0
