# generated using pymatgen
data_ScNi
_symmetry_space_group_name_H-M   'P 1'
_cell_length_a   13.43522966
_cell_length_b   21.24296331
_cell_length_c   41.16728200
_cell_angle_alpha   116.56505118
_cell_angle_beta   135.00000000
_cell_angle_gamma   71.56505118
_symmetry_Int_Tables_number   1
_chemical_formula_structural   ScNi
_chemical_formula_sum   'Sc90 Ni90'
_cell_volume   7430.91654131
_cell_formula_units_Z   90
loop_
 _symmetry_equiv_pos_site_id
 _symmetry_equiv_pos_as_xyz
  1  'x, y, z'
loop_
 _atom_site_type_symbol
 _atom_site_label
 _atom_site_symmetry_multiplicity
 _atom_site_fract_x
 _atom_site_fract_y
 _atom_site_fract_z
 _atom_site_occupancy
  Sc  Sc0  1  0.16666667  0.08333333  0.00961538  1.0
  Sc  Sc1  1  0.16666667  0.41666667  0.00961538  1.0
  Sc  Sc2  1  0.16666667  0.75000000  0.00961538  1.0
  Sc  Sc3  1  0.50000000  0.08333333  0.00961538  1.0
  Sc  Sc4  1  0.50000000  0.41666667  0.00961538  1.0
  Sc  Sc5  1  0.50000000  0.75000000  0.00961538  1.0
  Sc  Sc6  1  0.83333333  0.08333333  0.00961538  1.0
  Sc  Sc7  1  0.83333333  0.41666667  0.00961538  1.0
  Sc  Sc8  1  0.83333333  0.75000000  0.00961538  1.0
  Sc  Sc9  1  0.16666667  0.25000000  0.04807692  1.0
  Sc  Sc10  1  0.16666667  0.58333333  0.04807692  1.0
  Sc  Sc11  1  0.16666667  0.91666667  0.04807692  1.0
  Sc  Sc12  1  0.50000000  0.25000000  0.04807692  1.0
  Sc  Sc13  1  0.50000000  0.58333333  0.04807692  1.0
  Sc  Sc14  1  0.50000000  0.91666667  0.04807692  1.0
  Sc  Sc15  1  0.83333333  0.25000000  0.04807692  1.0
  Sc  Sc16  1  0.83333333  0.58333333  0.04807692  1.0
  Sc  Sc17  1  0.83333333  0.91666667  0.04807692  1.0
  Ni  Ni18  1  0.00000000  0.00000000  0.06730769  1.0
  Ni  Ni19  1  0.00000000  0.33333333  0.06730769  1.0
  Ni  Ni20  1  0.00000000  0.66666667  0.06730769  1.0
  Ni  Ni21  1  0.33333333  0.00000000  0.06730769  1.0
  Ni  Ni22  1  0.33333333  0.33333333  0.06730769  1.0
  Ni  Ni23  1  0.33333333  0.66666667  0.06730769  1.0
  Ni  Ni24  1  0.66666667  0.00000000  0.06730769  1.0
  Ni  Ni25  1  0.66666667  0.33333333  0.06730769  1.0
  Ni  Ni26  1  0.66666667  0.66666667  0.06730769  1.0
  Ni  Ni27  1  0.00000000  0.16666667  0.02884615  1.0
  Ni  Ni28  1  0.00000000  0.50000000  0.02884615  1.0
  Ni  Ni29  1  0.00000000  0.83333333  0.02884615  1.0
  Ni  Ni30  1  0.33333333  0.16666667  0.02884615  1.0
  Ni  Ni31  1  0.33333333  0.50000000  0.02884615  1.0
  Ni  Ni32  1  0.33333333  0.83333333  0.02884615  1.0
  Ni  Ni33  1  0.66666667  0.16666667  0.02884615  1.0
  Ni  Ni34  1  0.66666667  0.50000000  0.02884615  1.0
  Ni  Ni35  1  0.66666667  0.83333333  0.02884615  1.0
  Sc  Sc36  1  0.16666667  0.08333333  0.08653846  1.0
  Sc  Sc37  1  0.16666667  0.41666667  0.08653846  1.0
  Sc  Sc38  1  0.16666667  0.75000000  0.08653846  1.0
  Sc  Sc39  1  0.50000000  0.08333333  0.08653846  1.0
  Sc  Sc40  1  0.50000000  0.41666667  0.08653846  1.0
  Sc  Sc41  1  0.50000000  0.75000000  0.08653846  1.0
  Sc  Sc42  1  0.83333333  0.08333333  0.08653846  1.0
  Sc  Sc43  1  0.83333333  0.41666667  0.08653846  1.0
  Sc  Sc44  1  0.83333333  0.75000000  0.08653846  1.0
  Sc  Sc45  1  0.16666667  0.25000000  0.12500000  1.0
  Sc  Sc46  1  0.16666667  0.58333333  0.12500000  1.0
  Sc  Sc47  1  0.16666667  0.91666667  0.12500000  1.0
  Sc  Sc48  1  0.50000000  0.25000000  0.12500000  1.0
  Sc  Sc49  1  0.50000000  0.58333333  0.12500000  1.0
  Sc  Sc50  1  0.50000000  0.91666667  0.12500000  1.0
  Sc  Sc51  1  0.83333333  0.25000000  0.12500000  1.0
  Sc  Sc52  1  0.83333333  0.58333333  0.12500000  1.0
  Sc  Sc53  1  0.83333333  0.91666667  0.12500000  1.0
  Ni  Ni54  1  0.00000000  0.00000000  0.14423077  1.0
  Ni  Ni55  1  0.00000000  0.33333333  0.14423077  1.0
  Ni  Ni56  1  0.00000000  0.66666667  0.14423077  1.0
  Ni  Ni57  1  0.33333333  0.00000000  0.14423077  1.0
  Ni  Ni58  1  0.33333333  0.33333333  0.14423077  1.0
  Ni  Ni59  1  0.33333333  0.66666667  0.14423077  1.0
  Ni  Ni60  1  0.66666667  0.00000000  0.14423077  1.0
  Ni  Ni61  1  0.66666667  0.33333333  0.14423077  1.0
  Ni  Ni62  1  0.66666667  0.66666667  0.14423077  1.0
  Ni  Ni63  1  0.00000000  0.16666667  0.10576923  1.0
  Ni  Ni64  1  0.00000000  0.50000000  0.10576923  1.0
  Ni  Ni65  1  0.00000000  0.83333333  0.10576923  1.0
  Ni  Ni66  1  0.33333333  0.16666667  0.10576923  1.0
  Ni  Ni67  1  0.33333333  0.50000000  0.10576923  1.0
  Ni  Ni68  1  0.33333333  0.83333333  0.10576923  1.0
  Ni  Ni69  1  0.66666667  0.16666667  0.10576923  1.0
  Ni  Ni70  1  0.66666667  0.50000000  0.10576923  1.0
  Ni  Ni71  1  0.66666667  0.83333333  0.10576923  1.0
  Sc  Sc72  1  0.16666667  0.08333333  0.16346154  1.0
  Sc  Sc73  1  0.16666667  0.41666667  0.16346154  1.0
  Sc  Sc74  1  0.16666667  0.75000000  0.16346154  1.0
  Sc  Sc75  1  0.50000000  0.08333333  0.16346154  1.0
  Sc  Sc76  1  0.50000000  0.41666667  0.16346154  1.0
  Sc  Sc77  1  0.50000000  0.75000000  0.16346154  1.0
  Sc  Sc78  1  0.83333333  0.08333333  0.16346154  1.0
  Sc  Sc79  1  0.83333333  0.41666667  0.16346154  1.0
  Sc  Sc80  1  0.83333333  0.75000000  0.16346154  1.0
  Sc  Sc81  1  0.16666667  0.25000000  0.20192308  1.0
  Sc  Sc82  1  0.16666667  0.58333333  0.20192308  1.0
  Sc  Sc83  1  0.16666667  0.91666667  0.20192308  1.0
  Sc  Sc84  1  0.50000000  0.25000000  0.20192308  1.0
  Sc  Sc85  1  0.50000000  0.58333333  0.20192308  1.0
  Sc  Sc86  1  0.50000000  0.91666667  0.20192308  1.0
  Sc  Sc87  1  0.83333333  0.25000000  0.20192308  1.0
  Sc  Sc88  1  0.83333333  0.58333333  0.20192308  1.0
  Sc  Sc89  1  0.83333333  0.91666667  0.20192308  1.0
  Ni  Ni90  1  0.00000000  0.00000000  0.22115385  1.0
  Ni  Ni91  1  0.00000000  0.33333333  0.22115385  1.0
  Ni  Ni92  1  0.00000000  0.66666667  0.22115385  1.0
  Ni  Ni93  1  0.33333333  0.00000000  0.22115385  1.0
  Ni  Ni94  1  0.33333333  0.33333333  0.22115385  1.0
  Ni  Ni95  1  0.33333333  0.66666667  0.22115385  1.0
  Ni  Ni96  1  0.66666667  0.00000000  0.22115385  1.0
  Ni  Ni97  1  0.66666667  0.33333333  0.22115385  1.0
  Ni  Ni98  1  0.66666667  0.66666667  0.22115385  1.0
  Ni  Ni99  1  0.00000000  0.16666667  0.18269231  1.0
  Ni  Ni100  1  0.00000000  0.50000000  0.18269231  1.0
  Ni  Ni101  1  0.00000000  0.83333333  0.18269231  1.0
  Ni  Ni102  1  0.33333333  0.16666667  0.18269231  1.0
  Ni  Ni103  1  0.33333333  0.50000000  0.18269231  1.0
  Ni  Ni104  1  0.33333333  0.83333333  0.18269231  1.0
  Ni  Ni105  1  0.66666667  0.16666667  0.18269231  1.0
  Ni  Ni106  1  0.66666667  0.50000000  0.18269231  1.0
  Ni  Ni107  1  0.66666667  0.83333333  0.18269231  1.0
  Sc  Sc108  1  0.16666667  0.08333333  0.24038462  1.0
  Sc  Sc109  1  0.16666667  0.41666667  0.24038462  1.0
  Sc  Sc110  1  0.16666667  0.75000000  0.24038462  1.0
  Sc  Sc111  1  0.50000000  0.08333333  0.24038462  1.0
  Sc  Sc112  1  0.50000000  0.41666667  0.24038462  1.0
  Sc  Sc113  1  0.50000000  0.75000000  0.24038462  1.0
  Sc  Sc114  1  0.83333333  0.08333333  0.24038462  1.0
  Sc  Sc115  1  0.83333333  0.41666667  0.24038462  1.0
  Sc  Sc116  1  0.83333333  0.75000000  0.24038462  1.0
  Sc  Sc117  1  0.16666667  0.25000000  0.27884615  1.0
  Sc  Sc118  1  0.16666667  0.58333333  0.27884615  1.0
  Sc  Sc119  1  0.16666667  0.91666667  0.27884615  1.0
  Sc  Sc120  1  0.50000000  0.25000000  0.27884615  1.0
  Sc  Sc121  1  0.50000000  0.58333333  0.27884615  1.0
  Sc  Sc122  1  0.50000000  0.91666667  0.27884615  1.0
  Sc  Sc123  1  0.83333333  0.25000000  0.27884615  1.0
  Sc  Sc124  1  0.83333333  0.58333333  0.27884615  1.0
  Sc  Sc125  1  0.83333333  0.91666667  0.27884615  1.0
  Ni  Ni126  1  0.00000000  0.00000000  0.29807692  1.0
  Ni  Ni127  1  0.00000000  0.33333333  0.29807692  1.0
  Ni  Ni128  1  0.00000000  0.66666667  0.29807692  1.0
  Ni  Ni129  1  0.33333333  0.00000000  0.29807692  1.0
  Ni  Ni130  1  0.33333333  0.33333333  0.29807692  1.0
  Ni  Ni131  1  0.33333333  0.66666667  0.29807692  1.0
  Ni  Ni132  1  0.66666667  0.00000000  0.29807692  1.0
  Ni  Ni133  1  0.66666667  0.33333333  0.29807692  1.0
  Ni  Ni134  1  0.66666667  0.66666667  0.29807692  1.0
  Ni  Ni135  1  0.00000000  0.16666667  0.25961538  1.0
  Ni  Ni136  1  0.00000000  0.50000000  0.25961538  1.0
  Ni  Ni137  1  0.00000000  0.83333333  0.25961538  1.0
  Ni  Ni138  1  0.33333333  0.16666667  0.25961538  1.0
  Ni  Ni139  1  0.33333333  0.50000000  0.25961538  1.0
  Ni  Ni140  1  0.33333333  0.83333333  0.25961538  1.0
  Ni  Ni141  1  0.66666667  0.16666667  0.25961538  1.0
  Ni  Ni142  1  0.66666667  0.50000000  0.25961538  1.0
  Ni  Ni143  1  0.66666667  0.83333333  0.25961538  1.0
  Sc  Sc144  1  0.16666667  0.08333333  0.31730769  1.0
  Sc  Sc145  1  0.16666667  0.41666667  0.31730769  1.0
  Sc  Sc146  1  0.16666667  0.75000000  0.31730769  1.0
  Sc  Sc147  1  0.50000000  0.08333333  0.31730769  1.0
  Sc  Sc148  1  0.50000000  0.41666667  0.31730769  1.0
  Sc  Sc149  1  0.50000000  0.75000000  0.31730769  1.0
  Sc  Sc150  1  0.83333333  0.08333333  0.31730769  1.0
  Sc  Sc151  1  0.83333333  0.41666667  0.31730769  1.0
  Sc  Sc152  1  0.83333333  0.75000000  0.31730769  1.0
  Sc  Sc153  1  0.16666667  0.25000000  0.35576923  1.0
  Sc  Sc154  1  0.16666667  0.58333333  0.35576923  1.0
  Sc  Sc155  1  0.16666667  0.91666667  0.35576923  1.0
  Sc  Sc156  1  0.50000000  0.25000000  0.35576923  1.0
  Sc  Sc157  1  0.50000000  0.58333333  0.35576923  1.0
  Sc  Sc158  1  0.50000000  0.91666667  0.35576923  1.0
  Sc  Sc159  1  0.83333333  0.25000000  0.35576923  1.0
  Sc  Sc160  1  0.83333333  0.58333333  0.35576923  1.0
  Sc  Sc161  1  0.83333333  0.91666667  0.35576923  1.0
  Ni  Ni162  1  0.00000000  0.00000000  0.37500000  1.0
  Ni  Ni163  1  0.00000000  0.33333333  0.37500000  1.0
  Ni  Ni164  1  0.00000000  0.66666667  0.37500000  1.0
  Ni  Ni165  1  0.33333333  0.00000000  0.37500000  1.0
  Ni  Ni166  1  0.33333333  0.33333333  0.37500000  1.0
  Ni  Ni167  1  0.33333333  0.66666667  0.37500000  1.0
  Ni  Ni168  1  0.66666667  0.00000000  0.37500000  1.0
  Ni  Ni169  1  0.66666667  0.33333333  0.37500000  1.0
  Ni  Ni170  1  0.66666667  0.66666667  0.37500000  1.0
  Ni  Ni171  1  0.00000000  0.16666667  0.33653846  1.0
  Ni  Ni172  1  0.00000000  0.50000000  0.33653846  1.0
  Ni  Ni173  1  0.00000000  0.83333333  0.33653846  1.0
  Ni  Ni174  1  0.33333333  0.16666667  0.33653846  1.0
  Ni  Ni175  1  0.33333333  0.50000000  0.33653846  1.0
  Ni  Ni176  1  0.33333333  0.83333333  0.33653846  1.0
  Ni  Ni177  1  0.66666667  0.16666667  0.33653846  1.0
  Ni  Ni178  1  0.66666667  0.50000000  0.33653846  1.0
  Ni  Ni179  1  0.66666667  0.83333333  0.33653846  1.0
