# generated using pymatgen
data_ScNi3
_symmetry_space_group_name_H-M   'P 1'
_cell_length_a   20.33154002
_cell_length_b   29.90943275
_cell_length_c   29.29691180
_cell_angle_alpha   98.09742880
_cell_angle_beta   92.17541765
_cell_angle_gamma   108.63536978
_symmetry_Int_Tables_number   1
_chemical_formula_structural   ScNi3
_chemical_formula_sum   'Sc144 Ni432'
_cell_volume   16647.74340374
_cell_formula_units_Z   144
loop_
 _symmetry_equiv_pos_site_id
 _symmetry_equiv_pos_as_xyz
  1  'x, y, z'
loop_
 _atom_site_type_symbol
 _atom_site_label
 _atom_site_symmetry_multiplicity
 _atom_site_fract_x
 _atom_site_fract_y
 _atom_site_fract_z
 _atom_site_occupancy
  Ni  Ni0  1  0.29146081  0.08045899  0.07081426  1.0
  Ni  Ni1  1  0.29146081  0.41379232  0.07081426  1.0
  Ni  Ni2  1  0.29146081  0.74712565  0.07081426  1.0
  Ni  Ni3  1  0.62479415  0.08045899  0.07081426  1.0
  Ni  Ni4  1  0.62479415  0.41379232  0.07081426  1.0
  Ni  Ni5  1  0.62479415  0.74712565  0.07081426  1.0
  Ni  Ni6  1  0.95812748  0.08045899  0.07081426  1.0
  Ni  Ni7  1  0.95812748  0.41379232  0.07081426  1.0
  Ni  Ni8  1  0.95812748  0.74712565  0.07081426  1.0
  Ni  Ni9  1  0.03220156  0.30268121  0.01525871  1.0
  Ni  Ni10  1  0.03220156  0.63601454  0.01525871  1.0
  Ni  Ni11  1  0.03220156  0.96934787  0.01525871  1.0
  Ni  Ni12  1  0.36553489  0.30268121  0.01525871  1.0
  Ni  Ni13  1  0.36553489  0.63601454  0.01525871  1.0
  Ni  Ni14  1  0.36553489  0.96934787  0.01525871  1.0
  Ni  Ni15  1  0.69886822  0.30268121  0.01525871  1.0
  Ni  Ni16  1  0.69886822  0.63601454  0.01525871  1.0
  Ni  Ni17  1  0.69886822  0.96934787  0.01525871  1.0
  Ni  Ni18  1  0.02818948  0.13300549  0.01826776  1.0
  Ni  Ni19  1  0.02818948  0.46633882  0.01826776  1.0
  Ni  Ni20  1  0.02818948  0.79967215  0.01826776  1.0
  Ni  Ni21  1  0.36152281  0.13300549  0.01826776  1.0
  Ni  Ni22  1  0.36152281  0.46633882  0.01826776  1.0
  Ni  Ni23  1  0.36152281  0.79967215  0.01826776  1.0
  Ni  Ni24  1  0.69485615  0.13300549  0.01826776  1.0
  Ni  Ni25  1  0.69485615  0.46633882  0.01826776  1.0
  Ni  Ni26  1  0.69485615  0.79967215  0.01826776  1.0
  Ni  Ni27  1  0.28744874  0.24411660  0.07382332  1.0
  Ni  Ni28  1  0.28744874  0.57744993  0.07382332  1.0
  Ni  Ni29  1  0.28744874  0.91078326  0.07382332  1.0
  Ni  Ni30  1  0.62078207  0.24411660  0.07382332  1.0
  Ni  Ni31  1  0.62078207  0.57744993  0.07382332  1.0
  Ni  Ni32  1  0.62078207  0.91078326  0.07382332  1.0
  Ni  Ni33  1  0.95411541  0.24411660  0.07382332  1.0
  Ni  Ni34  1  0.95411541  0.57744993  0.07382332  1.0
  Ni  Ni35  1  0.95411541  0.91078326  0.07382332  1.0
  Ni  Ni36  1  0.16484024  0.19157010  0.04755007  1.0
  Ni  Ni37  1  0.16484024  0.52490343  0.04755007  1.0
  Ni  Ni38  1  0.16484024  0.85823676  0.04755007  1.0
  Ni  Ni39  1  0.49817357  0.19157010  0.04755007  1.0
  Ni  Ni40  1  0.49817357  0.52490343  0.04755007  1.0
  Ni  Ni41  1  0.49817357  0.85823676  0.04755007  1.0
  Ni  Ni42  1  0.83150691  0.19157010  0.04755007  1.0
  Ni  Ni43  1  0.83150691  0.52490343  0.04755007  1.0
  Ni  Ni44  1  0.83150691  0.85823676  0.04755007  1.0
  Ni  Ni45  1  0.09076617  0.30268121  0.10310562  1.0
  Ni  Ni46  1  0.09076617  0.63601454  0.10310562  1.0
  Ni  Ni47  1  0.09076617  0.96934787  0.10310562  1.0
  Ni  Ni48  1  0.42409950  0.30268121  0.10310562  1.0
  Ni  Ni49  1  0.42409950  0.63601454  0.10310562  1.0
  Ni  Ni50  1  0.42409950  0.96934787  0.10310562  1.0
  Ni  Ni51  1  0.75743283  0.30268121  0.10310562  1.0
  Ni  Ni52  1  0.75743283  0.63601454  0.10310562  1.0
  Ni  Ni53  1  0.75743283  0.96934787  0.10310562  1.0
  Ni  Ni54  1  0.26610078  0.17104554  0.01101454  1.0
  Ni  Ni55  1  0.26610078  0.50437887  0.01101454  1.0
  Ni  Ni56  1  0.26610078  0.83771221  0.01101454  1.0
  Ni  Ni57  1  0.59943411  0.17104554  0.01101454  1.0
  Ni  Ni58  1  0.59943411  0.50437887  0.01101454  1.0
  Ni  Ni59  1  0.59943411  0.83771221  0.01101454  1.0
  Ni  Ni60  1  0.93276744  0.17104554  0.01101454  1.0
  Ni  Ni61  1  0.93276744  0.50437887  0.01101454  1.0
  Ni  Ni62  1  0.93276744  0.83771221  0.01101454  1.0
  Ni  Ni63  1  0.19202670  0.28215665  0.06657010  1.0
  Ni  Ni64  1  0.19202670  0.61548999  0.06657010  1.0
  Ni  Ni65  1  0.19202670  0.94882332  0.06657010  1.0
  Ni  Ni66  1  0.52536004  0.28215665  0.06657010  1.0
  Ni  Ni67  1  0.52536004  0.61548999  0.06657010  1.0
  Ni  Ni68  1  0.52536004  0.94882332  0.06657010  1.0
  Ni  Ni69  1  0.85869337  0.28215665  0.06657010  1.0
  Ni  Ni70  1  0.85869337  0.61548999  0.06657010  1.0
  Ni  Ni71  1  0.85869337  0.94882332  0.06657010  1.0
  Ni  Ni72  1  0.19603878  0.11849904  0.06356104  1.0
  Ni  Ni73  1  0.19603878  0.45183237  0.06356104  1.0
  Ni  Ni74  1  0.19603878  0.78516571  0.06356104  1.0
  Ni  Ni75  1  0.52937211  0.11849904  0.06356104  1.0
  Ni  Ni76  1  0.52937211  0.45183237  0.06356104  1.0
  Ni  Ni77  1  0.52937211  0.78516571  0.06356104  1.0
  Ni  Ni78  1  0.86270544  0.11849904  0.06356104  1.0
  Ni  Ni79  1  0.86270544  0.45183237  0.06356104  1.0
  Ni  Ni80  1  0.86270544  0.78516571  0.06356104  1.0
  Ni  Ni81  1  0.27011285  0.00738793  0.00800549  1.0
  Ni  Ni82  1  0.27011285  0.34072126  0.00800549  1.0
  Ni  Ni83  1  0.27011285  0.67405460  0.00800549  1.0
  Ni  Ni84  1  0.60344619  0.00738793  0.00800549  1.0
  Ni  Ni85  1  0.60344619  0.34072126  0.00800549  1.0
  Ni  Ni86  1  0.60344619  0.67405460  0.00800549  1.0
  Ni  Ni87  1  0.93677952  0.00738793  0.00800549  1.0
  Ni  Ni88  1  0.93677952  0.34072126  0.00800549  1.0
  Ni  Ni89  1  0.93677952  0.67405460  0.00800549  1.0
  Ni  Ni90  1  0.05938802  0.05993443  0.03427874  1.0
  Ni  Ni91  1  0.05938802  0.39326776  0.03427874  1.0
  Ni  Ni92  1  0.05938802  0.72660110  0.03427874  1.0
  Ni  Ni93  1  0.39272135  0.05993443  0.03427874  1.0
  Ni  Ni94  1  0.39272135  0.39326776  0.03427874  1.0
  Ni  Ni95  1  0.39272135  0.72660110  0.03427874  1.0
  Ni  Ni96  1  0.72605469  0.05993443  0.03427874  1.0
  Ni  Ni97  1  0.72605469  0.39326776  0.03427874  1.0
  Ni  Ni98  1  0.72605469  0.72660110  0.03427874  1.0
  Ni  Ni99  1  0.31864728  0.17104554  0.08983429  1.0
  Ni  Ni100  1  0.31864728  0.50437887  0.08983429  1.0
  Ni  Ni101  1  0.31864728  0.83771221  0.08983429  1.0
  Ni  Ni102  1  0.65198061  0.17104554  0.08983429  1.0
  Ni  Ni103  1  0.65198061  0.50437887  0.08983429  1.0
  Ni  Ni104  1  0.65198061  0.83771221  0.08983429  1.0
  Ni  Ni105  1  0.98531394  0.17104554  0.08983429  1.0
  Ni  Ni106  1  0.98531394  0.50437887  0.08983429  1.0
  Ni  Ni107  1  0.98531394  0.83771221  0.08983429  1.0
  Ni  Ni108  1  0.14331267  0.30268121  0.18192538  1.0
  Ni  Ni109  1  0.14331267  0.63601454  0.18192538  1.0
  Ni  Ni110  1  0.14331267  0.96934787  0.18192538  1.0
  Ni  Ni111  1  0.47664600  0.30268121  0.18192538  1.0
  Ni  Ni112  1  0.47664600  0.63601454  0.18192538  1.0
  Ni  Ni113  1  0.47664600  0.96934787  0.18192538  1.0
  Ni  Ni114  1  0.80997933  0.30268121  0.18192538  1.0
  Ni  Ni115  1  0.80997933  0.63601454  0.18192538  1.0
  Ni  Ni116  1  0.80997933  0.96934787  0.18192538  1.0
  Ni  Ni117  1  0.21738674  0.19157010  0.12636982  1.0
  Ni  Ni118  1  0.21738674  0.52490343  0.12636982  1.0
  Ni  Ni119  1  0.21738674  0.85823676  0.12636982  1.0
  Ni  Ni120  1  0.55072007  0.19157010  0.12636982  1.0
  Ni  Ni121  1  0.55072007  0.52490343  0.12636982  1.0
  Ni  Ni122  1  0.55072007  0.85823676  0.12636982  1.0
  Ni  Ni123  1  0.88405341  0.19157010  0.12636982  1.0
  Ni  Ni124  1  0.88405341  0.52490343  0.12636982  1.0
  Ni  Ni125  1  0.88405341  0.85823676  0.12636982  1.0
  Ni  Ni126  1  0.21337467  0.02189438  0.12937887  1.0
  Ni  Ni127  1  0.21337467  0.35522771  0.12937888  1.0
  Ni  Ni128  1  0.21337467  0.68856104  0.12937888  1.0
  Ni  Ni129  1  0.54670800  0.02189438  0.12937888  1.0
  Ni  Ni130  1  0.54670800  0.35522771  0.12937888  1.0
  Ni  Ni131  1  0.54670800  0.68856104  0.12937888  1.0
  Ni  Ni132  1  0.88004133  0.02189438  0.12937888  1.0
  Ni  Ni133  1  0.88004133  0.35522771  0.12937887  1.0
  Ni  Ni134  1  0.88004133  0.68856104  0.12937888  1.0
  Ni  Ni135  1  0.13930059  0.13300549  0.18493443  1.0
  Ni  Ni136  1  0.13930059  0.46633882  0.18493443  1.0
  Ni  Ni137  1  0.13930059  0.79967215  0.18493443  1.0
  Ni  Ni138  1  0.47263393  0.13300549  0.18493443  1.0
  Ni  Ni139  1  0.47263393  0.46633882  0.18493443  1.0
  Ni  Ni140  1  0.47263393  0.79967215  0.18493443  1.0
  Ni  Ni141  1  0.80596726  0.13300549  0.18493443  1.0
  Ni  Ni142  1  0.80596726  0.46633882  0.18493443  1.0
  Ni  Ni143  1  0.80596726  0.79967215  0.18493443  1.0
  Ni  Ni144  1  0.01669209  0.08045899  0.15866118  1.0
  Ni  Ni145  1  0.01669209  0.41379232  0.15866118  1.0
  Ni  Ni146  1  0.01669209  0.74712565  0.15866118  1.0
  Ni  Ni147  1  0.35002543  0.08045899  0.15866118  1.0
  Ni  Ni148  1  0.35002543  0.41379232  0.15866118  1.0
  Ni  Ni149  1  0.35002543  0.74712565  0.15866118  1.0
  Ni  Ni150  1  0.68335876  0.08045899  0.15866118  1.0
  Ni  Ni151  1  0.68335876  0.41379232  0.15866118  1.0
  Ni  Ni152  1  0.68335876  0.74712565  0.15866118  1.0
  Ni  Ni153  1  0.27595135  0.19157010  0.21421674  1.0
  Ni  Ni154  1  0.27595135  0.52490343  0.21421674  1.0
  Ni  Ni155  1  0.27595135  0.85823676  0.21421674  1.0
  Ni  Ni156  1  0.60928469  0.19157010  0.21421674  1.0
  Ni  Ni157  1  0.60928469  0.52490343  0.21421674  1.0
  Ni  Ni158  1  0.60928469  0.85823676  0.21421674  1.0
  Ni  Ni159  1  0.94261802  0.19157010  0.21421674  1.0
  Ni  Ni160  1  0.94261802  0.52490343  0.21421674  1.0
  Ni  Ni161  1  0.94261802  0.85823676  0.21421674  1.0
  Ni  Ni162  1  0.11795263  0.05993443  0.12212565  1.0
  Ni  Ni163  1  0.11795263  0.39326776  0.12212565  1.0
  Ni  Ni164  1  0.11795263  0.72660110  0.12212565  1.0
  Ni  Ni165  1  0.45128596  0.05993443  0.12212565  1.0
  Ni  Ni166  1  0.45128596  0.39326776  0.12212565  1.0
  Ni  Ni167  1  0.45128596  0.72660110  0.12212565  1.0
  Ni  Ni168  1  0.78461930  0.05993443  0.12212565  1.0
  Ni  Ni169  1  0.78461930  0.39326776  0.12212565  1.0
  Ni  Ni170  1  0.78461930  0.72660110  0.12212565  1.0
  Ni  Ni171  1  0.04387856  0.17104554  0.17768121  1.0
  Ni  Ni172  1  0.04387856  0.50437887  0.17768121  1.0
  Ni  Ni173  1  0.04387856  0.83771221  0.17768121  1.0
  Ni  Ni174  1  0.37721189  0.17104554  0.17768121  1.0
  Ni  Ni175  1  0.37721189  0.50437887  0.17768121  1.0
  Ni  Ni176  1  0.37721189  0.83771221  0.17768121  1.0
  Ni  Ni177  1  0.71054522  0.17104554  0.17768121  1.0
  Ni  Ni178  1  0.71054522  0.50437887  0.17768121  1.0
  Ni  Ni179  1  0.71054522  0.83771221  0.17768121  1.0
  Ni  Ni180  1  0.04789063  0.00738793  0.17467215  1.0
  Ni  Ni181  1  0.04789063  0.34072126  0.17467215  1.0
  Ni  Ni182  1  0.04789063  0.67405460  0.17467215  1.0
  Ni  Ni183  1  0.38122396  0.00738793  0.17467215  1.0
  Ni  Ni184  1  0.38122396  0.34072126  0.17467215  1.0
  Ni  Ni185  1  0.38122396  0.67405460  0.17467215  1.0
  Ni  Ni186  1  0.71455730  0.00738793  0.17467215  1.0
  Ni  Ni187  1  0.71455730  0.34072126  0.17467215  1.0
  Ni  Ni188  1  0.71455730  0.67405460  0.17467215  1.0
  Ni  Ni189  1  0.12196470  0.22961015  0.11911660  1.0
  Ni  Ni190  1  0.12196470  0.56294349  0.11911660  1.0
  Ni  Ni191  1  0.12196470  0.89627682  0.11911660  1.0
  Ni  Ni192  1  0.45529804  0.22961015  0.11911660  1.0
  Ni  Ni193  1  0.45529804  0.56294349  0.11911660  1.0
  Ni  Ni194  1  0.45529804  0.89627682  0.11911660  1.0
  Ni  Ni195  1  0.78863137  0.22961015  0.11911660  1.0
  Ni  Ni196  1  0.78863137  0.56294349  0.11911660  1.0
  Ni  Ni197  1  0.78863137  0.89627682  0.11911660  1.0
  Ni  Ni198  1  0.24457320  0.28215665  0.14538985  1.0
  Ni  Ni199  1  0.24457320  0.61548999  0.14538985  1.0
  Ni  Ni200  1  0.24457320  0.94882332  0.14538985  1.0
  Ni  Ni201  1  0.57790654  0.28215665  0.14538985  1.0
  Ni  Ni202  1  0.57790654  0.61548999  0.14538985  1.0
  Ni  Ni203  1  0.57790654  0.94882332  0.14538985  1.0
  Ni  Ni204  1  0.91123987  0.28215665  0.14538985  1.0
  Ni  Ni205  1  0.91123987  0.61548999  0.14538985  1.0
  Ni  Ni206  1  0.91123987  0.94882332  0.14538985  1.0
  Ni  Ni207  1  0.17049913  0.05993443  0.20094540  1.0
  Ni  Ni208  1  0.17049913  0.39326776  0.20094540  1.0
  Ni  Ni209  1  0.17049913  0.72660110  0.20094540  1.0
  Ni  Ni210  1  0.50383246  0.05993443  0.20094540  1.0
  Ni  Ni211  1  0.50383246  0.39326776  0.20094540  1.0
  Ni  Ni212  1  0.50383246  0.72660110  0.20094540  1.0
  Ni  Ni213  1  0.83716580  0.05993443  0.20094540  1.0
  Ni  Ni214  1  0.83716580  0.39326776  0.20094540  1.0
  Ni  Ni215  1  0.83716580  0.72660110  0.20094540  1.0
  Ni  Ni216  1  0.32849785  0.19157010  0.29303649  1.0
  Ni  Ni217  1  0.32849785  0.52490343  0.29303649  1.0
  Ni  Ni218  1  0.32849785  0.85823676  0.29303649  1.0
  Ni  Ni219  1  0.66183119  0.19157010  0.29303649  1.0
  Ni  Ni220  1  0.66183119  0.52490343  0.29303649  1.0
  Ni  Ni221  1  0.66183119  0.85823676  0.29303649  1.0
  Ni  Ni222  1  0.99516452  0.19157010  0.29303649  1.0
  Ni  Ni223  1  0.99516452  0.52490343  0.29303649  1.0
  Ni  Ni224  1  0.99516452  0.85823676  0.29303649  1.0
  Ni  Ni225  1  0.06923859  0.08045899  0.23748093  1.0
  Ni  Ni226  1  0.06923859  0.41379232  0.23748093  1.0
  Ni  Ni227  1  0.06923859  0.74712565  0.23748093  1.0
  Ni  Ni228  1  0.40257193  0.08045899  0.23748093  1.0
  Ni  Ni229  1  0.40257193  0.41379232  0.23748093  1.0
  Ni  Ni230  1  0.40257193  0.74712565  0.23748093  1.0
  Ni  Ni231  1  0.73590526  0.08045899  0.23748093  1.0
  Ni  Ni232  1  0.73590526  0.41379232  0.23748093  1.0
  Ni  Ni233  1  0.73590526  0.74712565  0.23748093  1.0
  Ni  Ni234  1  0.06522652  0.24411660  0.24048999  1.0
  Ni  Ni235  1  0.06522652  0.57744993  0.24048999  1.0
  Ni  Ni236  1  0.06522652  0.91078326  0.24048999  1.0
  Ni  Ni237  1  0.39855985  0.24411660  0.24048999  1.0
  Ni  Ni238  1  0.39855985  0.57744993  0.24048999  1.0
  Ni  Ni239  1  0.39855985  0.91078326  0.24048999  1.0
  Ni  Ni240  1  0.73189319  0.24411660  0.24048999  1.0
  Ni  Ni241  1  0.73189319  0.57744993  0.24048999  1.0
  Ni  Ni242  1  0.73189319  0.91078326  0.24048999  1.0
  Ni  Ni243  1  0.32448578  0.02189438  0.29604554  1.0
  Ni  Ni244  1  0.32448578  0.35522771  0.29604554  1.0
  Ni  Ni245  1  0.32448578  0.68856104  0.29604554  1.0
  Ni  Ni246  1  0.65781911  0.02189438  0.29604554  1.0
  Ni  Ni247  1  0.65781911  0.35522771  0.29604554  1.0
  Ni  Ni248  1  0.65781911  0.68856104  0.29604554  1.0
  Ni  Ni249  1  0.99115244  0.02189438  0.29604554  1.0
  Ni  Ni250  1  0.99115244  0.35522771  0.29604554  1.0
  Ni  Ni251  1  0.99115244  0.68856104  0.29604554  1.0
  Ni  Ni252  1  0.20187728  0.30268121  0.26977229  1.0
  Ni  Ni253  1  0.20187728  0.63601454  0.26977229  1.0
  Ni  Ni254  1  0.20187728  0.96934787  0.26977229  1.0
  Ni  Ni255  1  0.53521061  0.30268121  0.26977229  1.0
  Ni  Ni256  1  0.53521061  0.63601454  0.26977229  1.0
  Ni  Ni257  1  0.53521061  0.96934787  0.26977229  1.0
  Ni  Ni258  1  0.86854394  0.30268121  0.26977229  1.0
  Ni  Ni259  1  0.86854394  0.63601454  0.26977229  1.0
  Ni  Ni260  1  0.86854394  0.96934787  0.26977229  1.0
  Ni  Ni261  1  0.12780320  0.08045899  0.32532785  1.0
  Ni  Ni262  1  0.12780320  0.41379232  0.32532785  1.0
  Ni  Ni263  1  0.12780320  0.74712565  0.32532785  1.0
  Ni  Ni264  1  0.46113654  0.08045899  0.32532785  1.0
  Ni  Ni265  1  0.46113654  0.41379232  0.32532785  1.0
  Ni  Ni266  1  0.46113654  0.74712565  0.32532785  1.0
  Ni  Ni267  1  0.79446987  0.08045899  0.32532785  1.0
  Ni  Ni268  1  0.79446987  0.41379232  0.32532785  1.0
  Ni  Ni269  1  0.79446987  0.74712565  0.32532785  1.0
  Ni  Ni270  1  0.30313781  0.28215665  0.23323676  1.0
  Ni  Ni271  1  0.30313781  0.61548999  0.23323676  1.0
  Ni  Ni272  1  0.30313781  0.94882332  0.23323676  1.0
  Ni  Ni273  1  0.63647115  0.28215665  0.23323676  1.0
  Ni  Ni274  1  0.63647115  0.61548999  0.23323676  1.0
  Ni  Ni275  1  0.63647115  0.94882332  0.23323676  1.0
  Ni  Ni276  1  0.96980448  0.28215665  0.23323676  1.0
  Ni  Ni277  1  0.96980448  0.61548999  0.23323676  1.0
  Ni  Ni278  1  0.96980448  0.94882332  0.23323676  1.0
  Ni  Ni279  1  0.22906374  0.05993443  0.28879232  1.0
  Ni  Ni280  1  0.22906374  0.39326776  0.28879232  1.0
  Ni  Ni281  1  0.22906374  0.72660110  0.28879232  1.0
  Ni  Ni282  1  0.56239707  0.05993443  0.28879232  1.0
  Ni  Ni283  1  0.56239707  0.39326776  0.28879232  1.0
  Ni  Ni284  1  0.56239707  0.72660110  0.28879232  1.0
  Ni  Ni285  1  0.89573041  0.05993443  0.28879232  1.0
  Ni  Ni286  1  0.89573041  0.39326776  0.28879232  1.0
  Ni  Ni287  1  0.89573041  0.72660110  0.28879232  1.0
  Ni  Ni288  1  0.23307581  0.22961015  0.28578326  1.0
  Ni  Ni289  1  0.23307581  0.56294349  0.28578326  1.0
  Ni  Ni290  1  0.23307581  0.89627682  0.28578326  1.0
  Ni  Ni291  1  0.56640915  0.22961015  0.28578326  1.0
  Ni  Ni292  1  0.56640915  0.56294349  0.28578326  1.0
  Ni  Ni293  1  0.56640915  0.89627682  0.28578326  1.0
  Ni  Ni294  1  0.89974248  0.22961015  0.28578326  1.0
  Ni  Ni295  1  0.89974248  0.56294349  0.28578326  1.0
  Ni  Ni296  1  0.89974248  0.89627682  0.28578326  1.0
  Ni  Ni297  1  0.30714989  0.11849904  0.23022771  1.0
  Ni  Ni298  1  0.30714989  0.45183237  0.23022771  1.0
  Ni  Ni299  1  0.30714989  0.78516571  0.23022771  1.0
  Ni  Ni300  1  0.64048322  0.11849904  0.23022771  1.0
  Ni  Ni301  1  0.64048322  0.45183237  0.23022771  1.0
  Ni  Ni302  1  0.64048322  0.78516571  0.23022771  1.0
  Ni  Ni303  1  0.97381656  0.11849904  0.23022771  1.0
  Ni  Ni304  1  0.97381656  0.45183237  0.23022771  1.0
  Ni  Ni305  1  0.97381656  0.78516571  0.23022771  1.0
  Ni  Ni306  1  0.09642506  0.17104554  0.25650096  1.0
  Ni  Ni307  1  0.09642506  0.50437887  0.25650096  1.0
  Ni  Ni308  1  0.09642506  0.83771221  0.25650096  1.0
  Ni  Ni309  1  0.42975839  0.17104554  0.25650096  1.0
  Ni  Ni310  1  0.42975839  0.50437887  0.25650096  1.0
  Ni  Ni311  1  0.42975839  0.83771221  0.25650096  1.0
  Ni  Ni312  1  0.76309172  0.17104554  0.25650096  1.0
  Ni  Ni313  1  0.76309172  0.50437887  0.25650096  1.0
  Ni  Ni314  1  0.76309172  0.83771221  0.25650096  1.0
  Ni  Ni315  1  0.02235098  0.28215665  0.31205651  1.0
  Ni  Ni316  1  0.02235098  0.61548999  0.31205651  1.0
  Ni  Ni317  1  0.02235098  0.94882332  0.31205651  1.0
  Ni  Ni318  1  0.35568431  0.28215665  0.31205651  1.0
  Ni  Ni319  1  0.35568431  0.61548999  0.31205651  1.0
  Ni  Ni320  1  0.35568431  0.94882332  0.31205651  1.0
  Ni  Ni321  1  0.68901765  0.28215665  0.31205651  1.0
  Ni  Ni322  1  0.68901765  0.61548999  0.31205651  1.0
  Ni  Ni323  1  0.68901765  0.94882332  0.31205651  1.0
  Ni  Ni324  1  0.18034970  0.08045899  0.40414760  1.0
  Ni  Ni325  1  0.18034970  0.41379232  0.40414760  1.0
  Ni  Ni326  1  0.18034970  0.74712565  0.40414760  1.0
  Ni  Ni327  1  0.51368304  0.08045899  0.40414760  1.0
  Ni  Ni328  1  0.51368304  0.41379232  0.40414760  1.0
  Ni  Ni329  1  0.51368304  0.74712565  0.40414760  1.0
  Ni  Ni330  1  0.84701637  0.08045899  0.40414760  1.0
  Ni  Ni331  1  0.84701637  0.41379232  0.40414760  1.0
  Ni  Ni332  1  0.84701637  0.74712565  0.40414760  1.0
  Ni  Ni333  1  0.25442378  0.30268121  0.34859204  1.0
  Ni  Ni334  1  0.25442378  0.63601454  0.34859204  1.0
  Ni  Ni335  1  0.25442378  0.96934787  0.34859204  1.0
  Ni  Ni336  1  0.58775711  0.30268121  0.34859204  1.0
  Ni  Ni337  1  0.58775711  0.63601454  0.34859204  1.0
  Ni  Ni338  1  0.58775711  0.96934787  0.34859204  1.0
  Ni  Ni339  1  0.92109044  0.30268121  0.34859204  1.0
  Ni  Ni340  1  0.92109044  0.63601454  0.34859204  1.0
  Ni  Ni341  1  0.92109044  0.96934787  0.34859204  1.0
  Ni  Ni342  1  0.25041170  0.13300549  0.35160110  1.0
  Ni  Ni343  1  0.25041170  0.46633882  0.35160110  1.0
  Ni  Ni344  1  0.25041170  0.79967215  0.35160110  1.0
  Ni  Ni345  1  0.58374504  0.13300549  0.35160110  1.0
  Ni  Ni346  1  0.58374504  0.46633882  0.35160110  1.0
  Ni  Ni347  1  0.58374504  0.79967215  0.35160110  1.0
  Ni  Ni348  1  0.91707837  0.13300549  0.35160110  1.0
  Ni  Ni349  1  0.91707837  0.46633882  0.35160110  1.0
  Ni  Ni350  1  0.91707837  0.79967215  0.35160110  1.0
  Ni  Ni351  1  0.17633763  0.24411660  0.40715665  1.0
  Ni  Ni352  1  0.17633763  0.57744993  0.40715665  1.0
  Ni  Ni353  1  0.17633763  0.91078326  0.40715665  1.0
  Ni  Ni354  1  0.50967096  0.24411660  0.40715665  1.0
  Ni  Ni355  1  0.50967096  0.57744993  0.40715665  1.0
  Ni  Ni356  1  0.50967096  0.91078326  0.40715665  1.0
  Ni  Ni357  1  0.84300430  0.24411660  0.40715665  1.0
  Ni  Ni358  1  0.84300430  0.57744993  0.40715665  1.0
  Ni  Ni359  1  0.84300430  0.91078326  0.40715665  1.0
  Ni  Ni360  1  0.05372913  0.19157010  0.38088340  1.0
  Ni  Ni361  1  0.05372913  0.52490343  0.38088340  1.0
  Ni  Ni362  1  0.05372913  0.85823676  0.38088340  1.0
  Ni  Ni363  1  0.38706246  0.19157010  0.38088340  1.0
  Ni  Ni364  1  0.38706246  0.52490343  0.38088340  1.0
  Ni  Ni365  1  0.38706246  0.85823676  0.38088340  1.0
  Ni  Ni366  1  0.72039580  0.19157010  0.38088340  1.0
  Ni  Ni367  1  0.72039580  0.52490343  0.38088340  1.0
  Ni  Ni368  1  0.72039580  0.85823676  0.38088340  1.0
  Ni  Ni369  1  0.31298839  0.30268121  0.43643896  1.0
  Ni  Ni370  1  0.31298839  0.63601454  0.43643896  1.0
  Ni  Ni371  1  0.31298839  0.96934787  0.43643896  1.0
  Ni  Ni372  1  0.64632172  0.30268121  0.43643896  1.0
  Ni  Ni373  1  0.64632172  0.63601454  0.43643896  1.0
  Ni  Ni374  1  0.64632172  0.96934787  0.43643896  1.0
  Ni  Ni375  1  0.97965506  0.30268121  0.43643896  1.0
  Ni  Ni376  1  0.97965506  0.63601454  0.43643896  1.0
  Ni  Ni377  1  0.97965506  0.96934787  0.43643896  1.0
  Ni  Ni378  1  0.15498967  0.17104554  0.34434787  1.0
  Ni  Ni379  1  0.15498967  0.50437887  0.34434787  1.0
  Ni  Ni380  1  0.15498967  0.83771221  0.34434788  1.0
  Ni  Ni381  1  0.48832300  0.17104554  0.34434788  1.0
  Ni  Ni382  1  0.48832300  0.50437887  0.34434788  1.0
  Ni  Ni383  1  0.48832300  0.83771221  0.34434788  1.0
  Ni  Ni384  1  0.82165633  0.17104554  0.34434787  1.0
  Ni  Ni385  1  0.82165633  0.50437887  0.34434787  1.0
  Ni  Ni386  1  0.82165633  0.83771221  0.34434788  1.0
  Ni  Ni387  1  0.08091559  0.28215665  0.39990343  1.0
  Ni  Ni388  1  0.08091559  0.61548999  0.39990343  1.0
  Ni  Ni389  1  0.08091559  0.94882332  0.39990343  1.0
  Ni  Ni390  1  0.41424893  0.28215665  0.39990343  1.0
  Ni  Ni391  1  0.41424893  0.61548999  0.39990343  1.0
  Ni  Ni392  1  0.41424893  0.94882332  0.39990343  1.0
  Ni  Ni393  1  0.74758226  0.28215665  0.39990343  1.0
  Ni  Ni394  1  0.74758226  0.61548999  0.39990343  1.0
  Ni  Ni395  1  0.74758226  0.94882332  0.39990343  1.0
  Ni  Ni396  1  0.08492767  0.11849904  0.39689438  1.0
  Ni  Ni397  1  0.08492767  0.45183237  0.39689438  1.0
  Ni  Ni398  1  0.08492767  0.78516571  0.39689438  1.0
  Ni  Ni399  1  0.41826100  0.11849904  0.39689438  1.0
  Ni  Ni400  1  0.41826100  0.45183237  0.39689438  1.0
  Ni  Ni401  1  0.41826100  0.78516571  0.39689438  1.0
  Ni  Ni402  1  0.75159433  0.11849904  0.39689438  1.0
  Ni  Ni403  1  0.75159433  0.45183237  0.39689438  1.0
  Ni  Ni404  1  0.75159433  0.78516571  0.39689438  1.0
  Ni  Ni405  1  0.15900174  0.00738793  0.34133882  1.0
  Ni  Ni406  1  0.15900174  0.34072126  0.34133882  1.0
  Ni  Ni407  1  0.15900174  0.67405460  0.34133882  1.0
  Ni  Ni408  1  0.49233507  0.00738793  0.34133882  1.0
  Ni  Ni409  1  0.49233507  0.34072126  0.34133882  1.0
  Ni  Ni410  1  0.49233507  0.67405460  0.34133882  1.0
  Ni  Ni411  1  0.82566841  0.00738793  0.34133882  1.0
  Ni  Ni412  1  0.82566841  0.34072126  0.34133882  1.0
  Ni  Ni413  1  0.82566841  0.67405460  0.34133882  1.0
  Ni  Ni414  1  0.28161024  0.05993443  0.36761207  1.0
  Ni  Ni415  1  0.28161024  0.39326776  0.36761207  1.0
  Ni  Ni416  1  0.28161024  0.72660110  0.36761207  1.0
  Ni  Ni417  1  0.61494357  0.05993443  0.36761207  1.0
  Ni  Ni418  1  0.61494357  0.39326776  0.36761207  1.0
  Ni  Ni419  1  0.61494357  0.72660110  0.36761207  1.0
  Ni  Ni420  1  0.94827691  0.05993443  0.36761207  1.0
  Ni  Ni421  1  0.94827691  0.39326776  0.36761207  1.0
  Ni  Ni422  1  0.94827691  0.72660110  0.36761207  1.0
  Ni  Ni423  1  0.20753617  0.17104554  0.42316763  1.0
  Ni  Ni424  1  0.20753617  0.50437887  0.42316763  1.0
  Ni  Ni425  1  0.20753617  0.83771221  0.42316763  1.0
  Ni  Ni426  1  0.54086950  0.17104554  0.42316763  1.0
  Ni  Ni427  1  0.54086950  0.50437887  0.42316763  1.0
  Ni  Ni428  1  0.54086950  0.83771221  0.42316763  1.0
  Ni  Ni429  1  0.87420283  0.17104554  0.42316763  1.0
  Ni  Ni430  1  0.87420283  0.50437887  0.42316763  1.0
  Ni  Ni431  1  0.87420283  0.83771221  0.42316763  1.0
  Sc  Sc432  1  0.32199067  0.00538189  0.09184033  1.0
  Sc  Sc433  1  0.32199067  0.33871523  0.09184033  1.0
  Sc  Sc434  1  0.32199067  0.67204856  0.09184033  1.0
  Sc  Sc435  1  0.65532401  0.00538189  0.09184033  1.0
  Sc  Sc436  1  0.65532401  0.33871523  0.09184033  1.0
  Sc  Sc437  1  0.65532401  0.67204856  0.09184033  1.0
  Sc  Sc438  1  0.98865734  0.00538189  0.09184033  1.0
  Sc  Sc439  1  0.98865734  0.33871523  0.09184033  1.0
  Sc  Sc440  1  0.98865734  0.67204856  0.09184033  1.0
  Sc  Sc441  1  0.06273141  0.22760412  0.03628477  1.0
  Sc  Sc442  1  0.06273141  0.56093745  0.03628477  1.0
  Sc  Sc443  1  0.06273141  0.89427078  0.03628477  1.0
  Sc  Sc444  1  0.39606475  0.22760412  0.03628477  1.0
  Sc  Sc445  1  0.39606475  0.56093745  0.03628477  1.0
  Sc  Sc446  1  0.39606475  0.89427078  0.03628477  1.0
  Sc  Sc447  1  0.72939808  0.22760412  0.03628477  1.0
  Sc  Sc448  1  0.72939808  0.56093745  0.03628477  1.0
  Sc  Sc449  1  0.72939808  0.89427078  0.03628477  1.0
  Sc  Sc450  1  0.08742277  0.13501152  0.10109959  1.0
  Sc  Sc451  1  0.08742277  0.46834486  0.10109959  1.0
  Sc  Sc452  1  0.08742277  0.80167819  0.10109959  1.0
  Sc  Sc453  1  0.42075610  0.13501152  0.10109959  1.0
  Sc  Sc454  1  0.42075610  0.46834486  0.10109959  1.0
  Sc  Sc455  1  0.42075610  0.80167819  0.10109959  1.0
  Sc  Sc456  1  0.75408944  0.13501152  0.10109959  1.0
  Sc  Sc457  1  0.75408944  0.46834486  0.10109959  1.0
  Sc  Sc458  1  0.75408944  0.80167819  0.10109959  1.0
  Sc  Sc459  1  0.16149685  0.02390041  0.04554403  1.0
  Sc  Sc460  1  0.16149685  0.35723375  0.04554403  1.0
  Sc  Sc461  1  0.16149685  0.69056708  0.04554403  1.0
  Sc  Sc462  1  0.49483018  0.02390041  0.04554403  1.0
  Sc  Sc463  1  0.49483018  0.35723375  0.04554403  1.0
  Sc  Sc464  1  0.49483018  0.69056708  0.04554403  1.0
  Sc  Sc465  1  0.82816351  0.02390041  0.04554403  1.0
  Sc  Sc466  1  0.82816351  0.35723375  0.04554403  1.0
  Sc  Sc467  1  0.82816351  0.69056708  0.04554403  1.0
  Sc  Sc468  1  0.17384252  0.22760412  0.20295144  1.0
  Sc  Sc469  1  0.17384252  0.56093745  0.20295144  1.0
  Sc  Sc470  1  0.17384252  0.89427078  0.20295144  1.0
  Sc  Sc471  1  0.50717586  0.22760412  0.20295144  1.0
  Sc  Sc472  1  0.50717586  0.56093745  0.20295144  1.0
  Sc  Sc473  1  0.50717586  0.89427078  0.20295144  1.0
  Sc  Sc474  1  0.84050919  0.22760412  0.20295144  1.0
  Sc  Sc475  1  0.84050919  0.56093745  0.20295144  1.0
  Sc  Sc476  1  0.84050919  0.89427078  0.20295144  1.0
  Sc  Sc477  1  0.24791660  0.11649300  0.14739588  1.0
  Sc  Sc478  1  0.24791660  0.44982634  0.14739588  1.0
  Sc  Sc479  1  0.24791660  0.78315967  0.14739588  1.0
  Sc  Sc480  1  0.58124993  0.11649300  0.14739588  1.0
  Sc  Sc481  1  0.58124993  0.44982634  0.14739588  1.0
  Sc  Sc482  1  0.58124993  0.78315967  0.14739588  1.0
  Sc  Sc483  1  0.91458327  0.11649300  0.14739588  1.0
  Sc  Sc484  1  0.91458327  0.44982634  0.14739588  1.0
  Sc  Sc485  1  0.91458327  0.78315967  0.14739588  1.0
  Sc  Sc486  1  0.27260796  0.02390041  0.21221070  1.0
  Sc  Sc487  1  0.27260796  0.35723375  0.21221070  1.0
  Sc  Sc488  1  0.27260796  0.69056708  0.21221070  1.0
  Sc  Sc489  1  0.60594129  0.02390041  0.21221070  1.0
  Sc  Sc490  1  0.60594129  0.35723375  0.21221070  1.0
  Sc  Sc491  1  0.60594129  0.69056708  0.21221070  1.0
  Sc  Sc492  1  0.93927462  0.02390041  0.21221070  1.0
  Sc  Sc493  1  0.93927462  0.35723375  0.21221070  1.0
  Sc  Sc494  1  0.93927462  0.69056708  0.21221070  1.0
  Sc  Sc495  1  0.01334870  0.24612263  0.15665514  1.0
  Sc  Sc496  1  0.01334870  0.57945597  0.15665514  1.0
  Sc  Sc497  1  0.01334870  0.91278930  0.15665514  1.0
  Sc  Sc498  1  0.34668203  0.24612263  0.15665514  1.0
  Sc  Sc499  1  0.34668203  0.57945597  0.15665514  1.0
  Sc  Sc500  1  0.34668203  0.91278930  0.15665514  1.0
  Sc  Sc501  1  0.68001536  0.24612263  0.15665514  1.0
  Sc  Sc502  1  0.68001536  0.57945597  0.15665514  1.0
  Sc  Sc503  1  0.68001536  0.91278930  0.15665514  1.0
  Sc  Sc504  1  0.02569438  0.11649300  0.31406255  1.0
  Sc  Sc505  1  0.02569438  0.44982634  0.31406255  1.0
  Sc  Sc506  1  0.02569438  0.78315967  0.31406255  1.0
  Sc  Sc507  1  0.35902771  0.11649300  0.31406255  1.0
  Sc  Sc508  1  0.35902771  0.44982634  0.31406255  1.0
  Sc  Sc509  1  0.35902771  0.78315967  0.31406255  1.0
  Sc  Sc510  1  0.69236104  0.11649300  0.31406255  1.0
  Sc  Sc511  1  0.69236104  0.44982634  0.31406255  1.0
  Sc  Sc512  1  0.69236104  0.78315967  0.31406255  1.0
  Sc  Sc513  1  0.09976845  0.00538189  0.25850700  1.0
  Sc  Sc514  1  0.09976845  0.33871523  0.25850700  1.0
  Sc  Sc515  1  0.09976845  0.67204856  0.25850700  1.0
  Sc  Sc516  1  0.43310178  0.00538189  0.25850700  1.0
  Sc  Sc517  1  0.43310178  0.33871523  0.25850700  1.0
  Sc  Sc518  1  0.43310178  0.67204856  0.25850700  1.0
  Sc  Sc519  1  0.76643512  0.00538189  0.25850700  1.0
  Sc  Sc520  1  0.76643512  0.33871523  0.25850700  1.0
  Sc  Sc521  1  0.76643512  0.67204856  0.25850700  1.0
  Sc  Sc522  1  0.12445981  0.24612263  0.32332181  1.0
  Sc  Sc523  1  0.12445981  0.57945597  0.32332181  1.0
  Sc  Sc524  1  0.12445981  0.91278930  0.32332181  1.0
  Sc  Sc525  1  0.45779314  0.24612263  0.32332181  1.0
  Sc  Sc526  1  0.45779314  0.57945597  0.32332181  1.0
  Sc  Sc527  1  0.45779314  0.91278930  0.32332181  1.0
  Sc  Sc528  1  0.79112648  0.24612263  0.32332181  1.0
  Sc  Sc529  1  0.79112648  0.57945597  0.32332181  1.0
  Sc  Sc530  1  0.79112648  0.91278930  0.32332181  1.0
  Sc  Sc531  1  0.19853388  0.13501152  0.26776625  1.0
  Sc  Sc532  1  0.19853388  0.46834486  0.26776625  1.0
  Sc  Sc533  1  0.19853388  0.80167819  0.26776625  1.0
  Sc  Sc534  1  0.53186722  0.13501152  0.26776625  1.0
  Sc  Sc535  1  0.53186722  0.46834486  0.26776625  1.0
  Sc  Sc536  1  0.53186722  0.80167819  0.26776625  1.0
  Sc  Sc537  1  0.86520055  0.13501152  0.26776625  1.0
  Sc  Sc538  1  0.86520055  0.46834486  0.26776625  1.0
  Sc  Sc539  1  0.86520055  0.80167819  0.26776625  1.0
  Sc  Sc540  1  0.21087956  0.00538189  0.42517366  1.0
  Sc  Sc541  1  0.21087956  0.33871523  0.42517366  1.0
  Sc  Sc542  1  0.21087956  0.67204856  0.42517366  1.0
  Sc  Sc543  1  0.54421290  0.00538189  0.42517366  1.0
  Sc  Sc544  1  0.54421290  0.33871523  0.42517366  1.0
  Sc  Sc545  1  0.54421290  0.67204856  0.42517366  1.0
  Sc  Sc546  1  0.87754623  0.00538189  0.42517366  1.0
  Sc  Sc547  1  0.87754623  0.33871523  0.42517366  1.0
  Sc  Sc548  1  0.87754623  0.67204856  0.42517366  1.0
  Sc  Sc549  1  0.28495364  0.22760412  0.36961811  1.0
  Sc  Sc550  1  0.28495364  0.56093745  0.36961811  1.0
  Sc  Sc551  1  0.28495364  0.89427078  0.36961811  1.0
  Sc  Sc552  1  0.61828697  0.22760412  0.36961811  1.0
  Sc  Sc553  1  0.61828697  0.56093745  0.36961811  1.0
  Sc  Sc554  1  0.61828697  0.89427078  0.36961811  1.0
  Sc  Sc555  1  0.95162030  0.22760412  0.36961811  1.0
  Sc  Sc556  1  0.95162030  0.56093745  0.36961811  1.0
  Sc  Sc557  1  0.95162030  0.89427078  0.36961811  1.0
  Sc  Sc558  1  0.30964499  0.13501152  0.43443292  1.0
  Sc  Sc559  1  0.30964499  0.46834486  0.43443292  1.0
  Sc  Sc560  1  0.30964499  0.80167819  0.43443292  1.0
  Sc  Sc561  1  0.64297833  0.13501152  0.43443292  1.0
  Sc  Sc562  1  0.64297833  0.46834486  0.43443292  1.0
  Sc  Sc563  1  0.64297833  0.80167819  0.43443292  1.0
  Sc  Sc564  1  0.97631166  0.13501152  0.43443292  1.0
  Sc  Sc565  1  0.97631166  0.46834486  0.43443292  1.0
  Sc  Sc566  1  0.97631166  0.80167819  0.43443292  1.0
  Sc  Sc567  1  0.05038573  0.02390041  0.37887737  1.0
  Sc  Sc568  1  0.05038573  0.35723375  0.37887737  1.0
  Sc  Sc569  1  0.05038573  0.69056708  0.37887737  1.0
  Sc  Sc570  1  0.38371907  0.02390041  0.37887737  1.0
  Sc  Sc571  1  0.38371907  0.35723375  0.37887737  1.0
  Sc  Sc572  1  0.38371907  0.69056708  0.37887737  1.0
  Sc  Sc573  1  0.71705240  0.02390041  0.37887737  1.0
  Sc  Sc574  1  0.71705240  0.35723375  0.37887737  1.0
  Sc  Sc575  1  0.71705240  0.69056708  0.37887737  1.0
