# generated using pymatgen
data_ScNi2
_symmetry_space_group_name_H-M   'P 1'
_cell_length_a   14.59334328
_cell_length_b   14.59334328
_cell_length_c   38.91558208
_cell_angle_alpha   120.00000000
_cell_angle_beta   60.00000000
_cell_angle_gamma   90.00000000
_symmetry_Int_Tables_number   1
_chemical_formula_structural   ScNi2
_chemical_formula_sum   'Sc54 Ni108'
_cell_volume   5860.27680486
_cell_formula_units_Z   54
loop_
 _symmetry_equiv_pos_site_id
 _symmetry_equiv_pos_as_xyz
  1  'x, y, z'
loop_
 _atom_site_type_symbol
 _atom_site_label
 _atom_site_symmetry_multiplicity
 _atom_site_fract_x
 _atom_site_fract_y
 _atom_site_fract_z
 _atom_site_occupancy
  Sc  Sc0  1  0.08333333  0.08333333  0.04687500  1.0
  Sc  Sc1  1  0.08333333  0.41666667  0.04687500  1.0
  Sc  Sc2  1  0.08333333  0.75000000  0.04687500  1.0
  Sc  Sc3  1  0.41666667  0.08333333  0.04687500  1.0
  Sc  Sc4  1  0.41666667  0.41666667  0.04687500  1.0
  Sc  Sc5  1  0.41666667  0.75000000  0.04687500  1.0
  Sc  Sc6  1  0.75000000  0.08333333  0.04687500  1.0
  Sc  Sc7  1  0.75000000  0.41666667  0.04687500  1.0
  Sc  Sc8  1  0.75000000  0.75000000  0.04687500  1.0
  Sc  Sc9  1  0.16666667  0.16666667  0.10937500  1.0
  Sc  Sc10  1  0.16666667  0.50000000  0.10937500  1.0
  Sc  Sc11  1  0.16666667  0.83333333  0.10937500  1.0
  Sc  Sc12  1  0.50000000  0.16666667  0.10937500  1.0
  Sc  Sc13  1  0.50000000  0.50000000  0.10937500  1.0
  Sc  Sc14  1  0.50000000  0.83333333  0.10937500  1.0
  Sc  Sc15  1  0.83333333  0.16666667  0.10937500  1.0
  Sc  Sc16  1  0.83333333  0.50000000  0.10937500  1.0
  Sc  Sc17  1  0.83333333  0.83333333  0.10937500  1.0
  Ni  Ni18  1  0.12500000  0.29166667  0.07812500  1.0
  Ni  Ni19  1  0.12500000  0.62500000  0.07812500  1.0
  Ni  Ni20  1  0.12500000  0.95833333  0.07812500  1.0
  Ni  Ni21  1  0.45833333  0.29166667  0.07812500  1.0
  Ni  Ni22  1  0.45833333  0.62500000  0.07812500  1.0
  Ni  Ni23  1  0.45833333  0.95833333  0.07812500  1.0
  Ni  Ni24  1  0.79166667  0.29166667  0.07812500  1.0
  Ni  Ni25  1  0.79166667  0.62500000  0.07812500  1.0
  Ni  Ni26  1  0.79166667  0.95833333  0.07812500  1.0
  Ni  Ni27  1  0.29166667  0.12500000  0.01562500  1.0
  Ni  Ni28  1  0.29166667  0.45833333  0.01562500  1.0
  Ni  Ni29  1  0.29166667  0.79166667  0.01562500  1.0
  Ni  Ni30  1  0.62500000  0.12500000  0.01562500  1.0
  Ni  Ni31  1  0.62500000  0.45833333  0.01562500  1.0
  Ni  Ni32  1  0.62500000  0.79166667  0.01562500  1.0
  Ni  Ni33  1  0.95833333  0.12500000  0.01562500  1.0
  Ni  Ni34  1  0.95833333  0.45833333  0.01562500  1.0
  Ni  Ni35  1  0.95833333  0.79166667  0.01562500  1.0
  Ni  Ni36  1  0.29166667  0.29166667  0.01562500  1.0
  Ni  Ni37  1  0.29166667  0.62500000  0.01562500  1.0
  Ni  Ni38  1  0.29166667  0.95833333  0.01562500  1.0
  Ni  Ni39  1  0.62500000  0.29166667  0.01562500  1.0
  Ni  Ni40  1  0.62500000  0.62500000  0.01562500  1.0
  Ni  Ni41  1  0.62500000  0.95833333  0.01562500  1.0
  Ni  Ni42  1  0.95833333  0.29166667  0.01562500  1.0
  Ni  Ni43  1  0.95833333  0.62500000  0.01562500  1.0
  Ni  Ni44  1  0.95833333  0.95833333  0.01562500  1.0
  Ni  Ni45  1  0.29166667  0.29166667  0.07812500  1.0
  Ni  Ni46  1  0.29166667  0.62500000  0.07812500  1.0
  Ni  Ni47  1  0.29166667  0.95833333  0.07812500  1.0
  Ni  Ni48  1  0.62500000  0.29166667  0.07812500  1.0
  Ni  Ni49  1  0.62500000  0.62500000  0.07812500  1.0
  Ni  Ni50  1  0.62500000  0.95833333  0.07812500  1.0
  Ni  Ni51  1  0.95833333  0.29166667  0.07812500  1.0
  Ni  Ni52  1  0.95833333  0.62500000  0.07812500  1.0
  Ni  Ni53  1  0.95833333  0.95833333  0.07812500  1.0
  Sc  Sc54  1  0.08333333  0.08333333  0.17187500  1.0
  Sc  Sc55  1  0.08333333  0.41666667  0.17187500  1.0
  Sc  Sc56  1  0.08333333  0.75000000  0.17187500  1.0
  Sc  Sc57  1  0.41666667  0.08333333  0.17187500  1.0
  Sc  Sc58  1  0.41666667  0.41666667  0.17187500  1.0
  Sc  Sc59  1  0.41666667  0.75000000  0.17187500  1.0
  Sc  Sc60  1  0.75000000  0.08333333  0.17187500  1.0
  Sc  Sc61  1  0.75000000  0.41666667  0.17187500  1.0
  Sc  Sc62  1  0.75000000  0.75000000  0.17187500  1.0
  Sc  Sc63  1  0.16666667  0.16666667  0.23437500  1.0
  Sc  Sc64  1  0.16666667  0.50000000  0.23437500  1.0
  Sc  Sc65  1  0.16666667  0.83333333  0.23437500  1.0
  Sc  Sc66  1  0.50000000  0.16666667  0.23437500  1.0
  Sc  Sc67  1  0.50000000  0.50000000  0.23437500  1.0
  Sc  Sc68  1  0.50000000  0.83333333  0.23437500  1.0
  Sc  Sc69  1  0.83333333  0.16666667  0.23437500  1.0
  Sc  Sc70  1  0.83333333  0.50000000  0.23437500  1.0
  Sc  Sc71  1  0.83333333  0.83333333  0.23437500  1.0
  Ni  Ni72  1  0.12500000  0.29166667  0.20312500  1.0
  Ni  Ni73  1  0.12500000  0.62500000  0.20312500  1.0
  Ni  Ni74  1  0.12500000  0.95833333  0.20312500  1.0
  Ni  Ni75  1  0.45833333  0.29166667  0.20312500  1.0
  Ni  Ni76  1  0.45833333  0.62500000  0.20312500  1.0
  Ni  Ni77  1  0.45833333  0.95833333  0.20312500  1.0
  Ni  Ni78  1  0.79166667  0.29166667  0.20312500  1.0
  Ni  Ni79  1  0.79166667  0.62500000  0.20312500  1.0
  Ni  Ni80  1  0.79166667  0.95833333  0.20312500  1.0
  Ni  Ni81  1  0.29166667  0.12500000  0.14062500  1.0
  Ni  Ni82  1  0.29166667  0.45833333  0.14062500  1.0
  Ni  Ni83  1  0.29166667  0.79166667  0.14062500  1.0
  Ni  Ni84  1  0.62500000  0.12500000  0.14062500  1.0
  Ni  Ni85  1  0.62500000  0.45833333  0.14062500  1.0
  Ni  Ni86  1  0.62500000  0.79166667  0.14062500  1.0
  Ni  Ni87  1  0.95833333  0.12500000  0.14062500  1.0
  Ni  Ni88  1  0.95833333  0.45833333  0.14062500  1.0
  Ni  Ni89  1  0.95833333  0.79166667  0.14062500  1.0
  Ni  Ni90  1  0.29166667  0.29166667  0.14062500  1.0
  Ni  Ni91  1  0.29166667  0.62500000  0.14062500  1.0
  Ni  Ni92  1  0.29166667  0.95833333  0.14062500  1.0
  Ni  Ni93  1  0.62500000  0.29166667  0.14062500  1.0
  Ni  Ni94  1  0.62500000  0.62500000  0.14062500  1.0
  Ni  Ni95  1  0.62500000  0.95833333  0.14062500  1.0
  Ni  Ni96  1  0.95833333  0.29166667  0.14062500  1.0
  Ni  Ni97  1  0.95833333  0.62500000  0.14062500  1.0
  Ni  Ni98  1  0.95833333  0.95833333  0.14062500  1.0
  Ni  Ni99  1  0.29166667  0.29166667  0.20312500  1.0
  Ni  Ni100  1  0.29166667  0.62500000  0.20312500  1.0
  Ni  Ni101  1  0.29166667  0.95833333  0.20312500  1.0
  Ni  Ni102  1  0.62500000  0.29166667  0.20312500  1.0
  Ni  Ni103  1  0.62500000  0.62500000  0.20312500  1.0
  Ni  Ni104  1  0.62500000  0.95833333  0.20312500  1.0
  Ni  Ni105  1  0.95833333  0.29166667  0.20312500  1.0
  Ni  Ni106  1  0.95833333  0.62500000  0.20312500  1.0
  Ni  Ni107  1  0.95833333  0.95833333  0.20312500  1.0
  Sc  Sc108  1  0.08333333  0.08333333  0.29687500  1.0
  Sc  Sc109  1  0.08333333  0.41666667  0.29687500  1.0
  Sc  Sc110  1  0.08333333  0.75000000  0.29687500  1.0
  Sc  Sc111  1  0.41666667  0.08333333  0.29687500  1.0
  Sc  Sc112  1  0.41666667  0.41666667  0.29687500  1.0
  Sc  Sc113  1  0.41666667  0.75000000  0.29687500  1.0
  Sc  Sc114  1  0.75000000  0.08333333  0.29687500  1.0
  Sc  Sc115  1  0.75000000  0.41666667  0.29687500  1.0
  Sc  Sc116  1  0.75000000  0.75000000  0.29687500  1.0
  Sc  Sc117  1  0.16666667  0.16666667  0.35937500  1.0
  Sc  Sc118  1  0.16666667  0.50000000  0.35937500  1.0
  Sc  Sc119  1  0.16666667  0.83333333  0.35937500  1.0
  Sc  Sc120  1  0.50000000  0.16666667  0.35937500  1.0
  Sc  Sc121  1  0.50000000  0.50000000  0.35937500  1.0
  Sc  Sc122  1  0.50000000  0.83333333  0.35937500  1.0
  Sc  Sc123  1  0.83333333  0.16666667  0.35937500  1.0
  Sc  Sc124  1  0.83333333  0.50000000  0.35937500  1.0
  Sc  Sc125  1  0.83333333  0.83333333  0.35937500  1.0
  Ni  Ni126  1  0.12500000  0.29166667  0.32812500  1.0
  Ni  Ni127  1  0.12500000  0.62500000  0.32812500  1.0
  Ni  Ni128  1  0.12500000  0.95833333  0.32812500  1.0
  Ni  Ni129  1  0.45833333  0.29166667  0.32812500  1.0
  Ni  Ni130  1  0.45833333  0.62500000  0.32812500  1.0
  Ni  Ni131  1  0.45833333  0.95833333  0.32812500  1.0
  Ni  Ni132  1  0.79166667  0.29166667  0.32812500  1.0
  Ni  Ni133  1  0.79166667  0.62500000  0.32812500  1.0
  Ni  Ni134  1  0.79166667  0.95833333  0.32812500  1.0
  Ni  Ni135  1  0.29166667  0.12500000  0.26562500  1.0
  Ni  Ni136  1  0.29166667  0.45833333  0.26562500  1.0
  Ni  Ni137  1  0.29166667  0.79166667  0.26562500  1.0
  Ni  Ni138  1  0.62500000  0.12500000  0.26562500  1.0
  Ni  Ni139  1  0.62500000  0.45833333  0.26562500  1.0
  Ni  Ni140  1  0.62500000  0.79166667  0.26562500  1.0
  Ni  Ni141  1  0.95833333  0.12500000  0.26562500  1.0
  Ni  Ni142  1  0.95833333  0.45833333  0.26562500  1.0
  Ni  Ni143  1  0.95833333  0.79166667  0.26562500  1.0
  Ni  Ni144  1  0.29166667  0.29166667  0.26562500  1.0
  Ni  Ni145  1  0.29166667  0.62500000  0.26562500  1.0
  Ni  Ni146  1  0.29166667  0.95833333  0.26562500  1.0
  Ni  Ni147  1  0.62500000  0.29166667  0.26562500  1.0
  Ni  Ni148  1  0.62500000  0.62500000  0.26562500  1.0
  Ni  Ni149  1  0.62500000  0.95833333  0.26562500  1.0
  Ni  Ni150  1  0.95833333  0.29166667  0.26562500  1.0
  Ni  Ni151  1  0.95833333  0.62500000  0.26562500  1.0
  Ni  Ni152  1  0.95833333  0.95833333  0.26562500  1.0
  Ni  Ni153  1  0.29166667  0.29166667  0.32812500  1.0
  Ni  Ni154  1  0.29166667  0.62500000  0.32812500  1.0
  Ni  Ni155  1  0.29166667  0.95833333  0.32812500  1.0
  Ni  Ni156  1  0.62500000  0.29166667  0.32812500  1.0
  Ni  Ni157  1  0.62500000  0.62500000  0.32812500  1.0
  Ni  Ni158  1  0.62500000  0.95833333  0.32812500  1.0
  Ni  Ni159  1  0.95833333  0.29166667  0.32812500  1.0
  Ni  Ni160  1  0.95833333  0.62500000  0.32812500  1.0
  Ni  Ni161  1  0.95833333  0.95833333  0.32812500  1.0
