# generated using pymatgen
data_ScNi2
_symmetry_space_group_name_H-M   'P 1'
_cell_length_a   14.59334328
_cell_length_b   35.74624468
_cell_length_c   28.36436088
_cell_angle_alpha   98.04946698
_cell_angle_beta   90.00000000
_cell_angle_gamma   90.00000000
_symmetry_Int_Tables_number   1
_chemical_formula_structural   ScNi2
_chemical_formula_sum   'Sc144 Ni288'
_cell_volume   14650.69201216
_cell_formula_units_Z   144
loop_
 _symmetry_equiv_pos_site_id
 _symmetry_equiv_pos_as_xyz
  1  'x, y, z'
loop_
 _atom_site_type_symbol
 _atom_site_label
 _atom_site_symmetry_multiplicity
 _atom_site_fract_x
 _atom_site_fract_y
 _atom_site_fract_z
 _atom_site_occupancy
  Ni  Ni0  1  0.08333333  0.14583333  0.06250000  1.0
  Ni  Ni1  1  0.08333333  0.47916667  0.06250000  1.0
  Ni  Ni2  1  0.08333333  0.81250000  0.06250000  1.0
  Ni  Ni3  1  0.41666667  0.14583333  0.06250000  1.0
  Ni  Ni4  1  0.41666667  0.47916667  0.06250000  1.0
  Ni  Ni5  1  0.41666667  0.81250000  0.06250000  1.0
  Ni  Ni6  1  0.75000000  0.14583333  0.06250000  1.0
  Ni  Ni7  1  0.75000000  0.47916667  0.06250000  1.0
  Ni  Ni8  1  0.75000000  0.81250000  0.06250000  1.0
  Ni  Ni9  1  0.25000000  0.02916667  0.01250000  1.0
  Ni  Ni10  1  0.25000000  0.36250000  0.01250000  1.0
  Ni  Ni11  1  0.25000000  0.69583333  0.01250000  1.0
  Ni  Ni12  1  0.58333333  0.02916667  0.01250000  1.0
  Ni  Ni13  1  0.58333333  0.36250000  0.01250000  1.0
  Ni  Ni14  1  0.58333333  0.69583333  0.01250000  1.0
  Ni  Ni15  1  0.91666667  0.02916667  0.01250000  1.0
  Ni  Ni16  1  0.91666667  0.36250000  0.01250000  1.0
  Ni  Ni17  1  0.91666667  0.69583333  0.01250000  1.0
  Ni  Ni18  1  0.25000000  0.14583333  0.06250000  1.0
  Ni  Ni19  1  0.25000000  0.47916667  0.06250000  1.0
  Ni  Ni20  1  0.25000000  0.81250000  0.06250000  1.0
  Ni  Ni21  1  0.58333333  0.14583333  0.06250000  1.0
  Ni  Ni22  1  0.58333333  0.47916667  0.06250000  1.0
  Ni  Ni23  1  0.58333333  0.81250000  0.06250000  1.0
  Ni  Ni24  1  0.91666667  0.14583333  0.06250000  1.0
  Ni  Ni25  1  0.91666667  0.47916667  0.06250000  1.0
  Ni  Ni26  1  0.91666667  0.81250000  0.06250000  1.0
  Ni  Ni27  1  0.08333333  0.02916667  0.01250000  1.0
  Ni  Ni28  1  0.08333333  0.36250000  0.01250000  1.0
  Ni  Ni29  1  0.08333333  0.69583333  0.01250000  1.0
  Ni  Ni30  1  0.41666667  0.02916667  0.01250000  1.0
  Ni  Ni31  1  0.41666667  0.36250000  0.01250000  1.0
  Ni  Ni32  1  0.41666667  0.69583333  0.01250000  1.0
  Ni  Ni33  1  0.75000000  0.02916667  0.01250000  1.0
  Ni  Ni34  1  0.75000000  0.36250000  0.01250000  1.0
  Ni  Ni35  1  0.75000000  0.69583333  0.01250000  1.0
  Ni  Ni36  1  0.00000000  0.25416667  0.03750000  1.0
  Ni  Ni37  1  0.00000000  0.58750000  0.03750000  1.0
  Ni  Ni38  1  0.00000000  0.92083333  0.03750000  1.0
  Ni  Ni39  1  0.33333333  0.25416667  0.03750000  1.0
  Ni  Ni40  1  0.33333333  0.58750000  0.03750000  1.0
  Ni  Ni41  1  0.33333333  0.92083333  0.03750000  1.0
  Ni  Ni42  1  0.66666667  0.25416667  0.03750000  1.0
  Ni  Ni43  1  0.66666667  0.58750000  0.03750000  1.0
  Ni  Ni44  1  0.66666667  0.92083333  0.03750000  1.0
  Ni  Ni45  1  0.16666667  0.03750000  0.08750000  1.0
  Ni  Ni46  1  0.16666667  0.37083333  0.08750000  1.0
  Ni  Ni47  1  0.16666667  0.70416667  0.08750000  1.0
  Ni  Ni48  1  0.50000000  0.03750000  0.08750000  1.0
  Ni  Ni49  1  0.50000000  0.37083333  0.08750000  1.0
  Ni  Ni50  1  0.50000000  0.70416667  0.08750000  1.0
  Ni  Ni51  1  0.83333333  0.03750000  0.08750000  1.0
  Ni  Ni52  1  0.83333333  0.37083333  0.08750000  1.0
  Ni  Ni53  1  0.83333333  0.70416667  0.08750000  1.0
  Ni  Ni54  1  0.33333333  0.20416667  0.08750000  1.0
  Ni  Ni55  1  0.33333333  0.53750000  0.08750000  1.0
  Ni  Ni56  1  0.33333333  0.87083333  0.08750000  1.0
  Ni  Ni57  1  0.66666667  0.20416667  0.08750000  1.0
  Ni  Ni58  1  0.66666667  0.53750000  0.08750000  1.0
  Ni  Ni59  1  0.66666667  0.87083333  0.08750000  1.0
  Ni  Ni60  1  1.00000000  0.20416667  0.08750000  1.0
  Ni  Ni61  1  1.00000000  0.53750000  0.08750000  1.0
  Ni  Ni62  1  1.00000000  0.87083333  0.08750000  1.0
  Ni  Ni63  1  0.16666667  0.08750000  0.03750000  1.0
  Ni  Ni64  1  0.16666667  0.42083333  0.03750000  1.0
  Ni  Ni65  1  0.16666667  0.75416667  0.03750000  1.0
  Ni  Ni66  1  0.50000000  0.08750000  0.03750000  1.0
  Ni  Ni67  1  0.50000000  0.42083333  0.03750000  1.0
  Ni  Ni68  1  0.50000000  0.75416667  0.03750000  1.0
  Ni  Ni69  1  0.83333333  0.08750000  0.03750000  1.0
  Ni  Ni70  1  0.83333333  0.42083333  0.03750000  1.0
  Ni  Ni71  1  0.83333333  0.75416667  0.03750000  1.0
  Ni  Ni72  1  0.08333333  0.04583333  0.16250000  1.0
  Ni  Ni73  1  0.08333333  0.37916667  0.16250000  1.0
  Ni  Ni74  1  0.08333333  0.71250000  0.16250000  1.0
  Ni  Ni75  1  0.41666667  0.04583333  0.16250000  1.0
  Ni  Ni76  1  0.41666667  0.37916667  0.16250000  1.0
  Ni  Ni77  1  0.41666667  0.71250000  0.16250000  1.0
  Ni  Ni78  1  0.75000000  0.04583333  0.16250000  1.0
  Ni  Ni79  1  0.75000000  0.37916667  0.16250000  1.0
  Ni  Ni80  1  0.75000000  0.71250000  0.16250000  1.0
  Ni  Ni81  1  0.25000000  0.26250000  0.11250000  1.0
  Ni  Ni82  1  0.25000000  0.59583333  0.11250000  1.0
  Ni  Ni83  1  0.25000000  0.92916667  0.11250000  1.0
  Ni  Ni84  1  0.58333333  0.26250000  0.11250000  1.0
  Ni  Ni85  1  0.58333333  0.59583333  0.11250000  1.0
  Ni  Ni86  1  0.58333333  0.92916667  0.11250000  1.0
  Ni  Ni87  1  0.91666667  0.26250000  0.11250000  1.0
  Ni  Ni88  1  0.91666667  0.59583333  0.11250000  1.0
  Ni  Ni89  1  0.91666667  0.92916667  0.11250000  1.0
  Ni  Ni90  1  0.25000000  0.04583333  0.16250000  1.0
  Ni  Ni91  1  0.25000000  0.37916667  0.16250000  1.0
  Ni  Ni92  1  0.25000000  0.71250000  0.16250000  1.0
  Ni  Ni93  1  0.58333333  0.04583333  0.16250000  1.0
  Ni  Ni94  1  0.58333333  0.37916667  0.16250000  1.0
  Ni  Ni95  1  0.58333333  0.71250000  0.16250000  1.0
  Ni  Ni96  1  0.91666667  0.04583333  0.16250000  1.0
  Ni  Ni97  1  0.91666667  0.37916667  0.16250000  1.0
  Ni  Ni98  1  0.91666667  0.71250000  0.16250000  1.0
  Ni  Ni99  1  0.08333333  0.26250000  0.11250000  1.0
  Ni  Ni100  1  0.08333333  0.59583333  0.11250000  1.0
  Ni  Ni101  1  0.08333333  0.92916667  0.11250000  1.0
  Ni  Ni102  1  0.41666667  0.26250000  0.11250000  1.0
  Ni  Ni103  1  0.41666667  0.59583333  0.11250000  1.0
  Ni  Ni104  1  0.41666667  0.92916667  0.11250000  1.0
  Ni  Ni105  1  0.75000000  0.26250000  0.11250000  1.0
  Ni  Ni106  1  0.75000000  0.59583333  0.11250000  1.0
  Ni  Ni107  1  0.75000000  0.92916667  0.11250000  1.0
  Ni  Ni108  1  0.33333333  0.15416667  0.13750000  1.0
  Ni  Ni109  1  0.33333333  0.48750000  0.13750000  1.0
  Ni  Ni110  1  0.33333333  0.82083333  0.13750000  1.0
  Ni  Ni111  1  0.66666667  0.15416667  0.13750000  1.0
  Ni  Ni112  1  0.66666667  0.48750000  0.13750000  1.0
  Ni  Ni113  1  0.66666667  0.82083333  0.13750000  1.0
  Ni  Ni114  1  1.00000000  0.15416667  0.13750000  1.0
  Ni  Ni115  1  1.00000000  0.48750000  0.13750000  1.0
  Ni  Ni116  1  1.00000000  0.82083333  0.13750000  1.0
  Ni  Ni117  1  0.16666667  0.27083333  0.18750000  1.0
  Ni  Ni118  1  0.16666667  0.60416667  0.18750000  1.0
  Ni  Ni119  1  0.16666667  0.93750000  0.18750000  1.0
  Ni  Ni120  1  0.50000000  0.27083333  0.18750000  1.0
  Ni  Ni121  1  0.50000000  0.60416667  0.18750000  1.0
  Ni  Ni122  1  0.50000000  0.93750000  0.18750000  1.0
  Ni  Ni123  1  0.83333333  0.27083333  0.18750000  1.0
  Ni  Ni124  1  0.83333333  0.60416667  0.18750000  1.0
  Ni  Ni125  1  0.83333333  0.93750000  0.18750000  1.0
  Ni  Ni126  1  0.33333333  0.10416667  0.18750000  1.0
  Ni  Ni127  1  0.33333333  0.43750000  0.18750000  1.0
  Ni  Ni128  1  0.33333333  0.77083333  0.18750000  1.0
  Ni  Ni129  1  0.66666667  0.10416667  0.18750000  1.0
  Ni  Ni130  1  0.66666667  0.43750000  0.18750000  1.0
  Ni  Ni131  1  0.66666667  0.77083333  0.18750000  1.0
  Ni  Ni132  1  0.00000000  0.10416667  0.18750000  1.0
  Ni  Ni133  1  1.00000000  0.43750000  0.18750000  1.0
  Ni  Ni134  1  1.00000000  0.77083333  0.18750000  1.0
  Ni  Ni135  1  0.16666667  0.32083333  0.13750000  1.0
  Ni  Ni136  1  0.16666667  0.65416667  0.13750000  1.0
  Ni  Ni137  1  0.16666667  0.98750000  0.13750000  1.0
  Ni  Ni138  1  0.50000000  0.32083333  0.13750000  1.0
  Ni  Ni139  1  0.50000000  0.65416667  0.13750000  1.0
  Ni  Ni140  1  0.50000000  0.98750000  0.13750000  1.0
  Ni  Ni141  1  0.83333333  0.32083333  0.13750000  1.0
  Ni  Ni142  1  0.83333333  0.65416667  0.13750000  1.0
  Ni  Ni143  1  0.83333333  0.98750000  0.13750000  1.0
  Ni  Ni144  1  0.08333333  0.27916667  0.26250000  1.0
  Ni  Ni145  1  0.08333333  0.61250000  0.26250000  1.0
  Ni  Ni146  1  0.08333333  0.94583333  0.26250000  1.0
  Ni  Ni147  1  0.41666667  0.27916667  0.26250000  1.0
  Ni  Ni148  1  0.41666667  0.61250000  0.26250000  1.0
  Ni  Ni149  1  0.41666667  0.94583333  0.26250000  1.0
  Ni  Ni150  1  0.75000000  0.27916667  0.26250000  1.0
  Ni  Ni151  1  0.75000000  0.61250000  0.26250000  1.0
  Ni  Ni152  1  0.75000000  0.94583333  0.26250000  1.0
  Ni  Ni153  1  0.25000000  0.16250000  0.21250000  1.0
  Ni  Ni154  1  0.25000000  0.49583333  0.21250000  1.0
  Ni  Ni155  1  0.25000000  0.82916667  0.21250000  1.0
  Ni  Ni156  1  0.58333333  0.16250000  0.21250000  1.0
  Ni  Ni157  1  0.58333333  0.49583333  0.21250000  1.0
  Ni  Ni158  1  0.58333333  0.82916667  0.21250000  1.0
  Ni  Ni159  1  0.91666667  0.16250000  0.21250000  1.0
  Ni  Ni160  1  0.91666667  0.49583333  0.21250000  1.0
  Ni  Ni161  1  0.91666667  0.82916667  0.21250000  1.0
  Ni  Ni162  1  0.25000000  0.27916667  0.26250000  1.0
  Ni  Ni163  1  0.25000000  0.61250000  0.26250000  1.0
  Ni  Ni164  1  0.25000000  0.94583333  0.26250000  1.0
  Ni  Ni165  1  0.58333333  0.27916667  0.26250000  1.0
  Ni  Ni166  1  0.58333333  0.61250000  0.26250000  1.0
  Ni  Ni167  1  0.58333333  0.94583333  0.26250000  1.0
  Ni  Ni168  1  0.91666667  0.27916667  0.26250000  1.0
  Ni  Ni169  1  0.91666667  0.61250000  0.26250000  1.0
  Ni  Ni170  1  0.91666667  0.94583333  0.26250000  1.0
  Ni  Ni171  1  0.08333333  0.16250000  0.21250000  1.0
  Ni  Ni172  1  0.08333333  0.49583333  0.21250000  1.0
  Ni  Ni173  1  0.08333333  0.82916667  0.21250000  1.0
  Ni  Ni174  1  0.41666667  0.16250000  0.21250000  1.0
  Ni  Ni175  1  0.41666667  0.49583333  0.21250000  1.0
  Ni  Ni176  1  0.41666667  0.82916667  0.21250000  1.0
  Ni  Ni177  1  0.75000000  0.16250000  0.21250000  1.0
  Ni  Ni178  1  0.75000000  0.49583333  0.21250000  1.0
  Ni  Ni179  1  0.75000000  0.82916667  0.21250000  1.0
  Ni  Ni180  1  0.33333333  0.05416667  0.23750000  1.0
  Ni  Ni181  1  0.33333333  0.38750000  0.23750000  1.0
  Ni  Ni182  1  0.33333333  0.72083333  0.23750000  1.0
  Ni  Ni183  1  0.66666667  0.05416667  0.23750000  1.0
  Ni  Ni184  1  0.66666667  0.38750000  0.23750000  1.0
  Ni  Ni185  1  0.66666667  0.72083333  0.23750000  1.0
  Ni  Ni186  1  1.00000000  0.05416667  0.23750000  1.0
  Ni  Ni187  1  1.00000000  0.38750000  0.23750000  1.0
  Ni  Ni188  1  1.00000000  0.72083333  0.23750000  1.0
  Ni  Ni189  1  0.16666667  0.17083333  0.28750000  1.0
  Ni  Ni190  1  0.16666667  0.50416667  0.28750000  1.0
  Ni  Ni191  1  0.16666667  0.83750000  0.28750000  1.0
  Ni  Ni192  1  0.50000000  0.17083333  0.28750000  1.0
  Ni  Ni193  1  0.50000000  0.50416667  0.28750000  1.0
  Ni  Ni194  1  0.50000000  0.83750000  0.28750000  1.0
  Ni  Ni195  1  0.83333333  0.17083333  0.28750000  1.0
  Ni  Ni196  1  0.83333333  0.50416667  0.28750000  1.0
  Ni  Ni197  1  0.83333333  0.83750000  0.28750000  1.0
  Ni  Ni198  1  0.33333333  0.00416667  0.28750000  1.0
  Ni  Ni199  1  0.33333333  0.33750000  0.28750000  1.0
  Ni  Ni200  1  0.33333333  0.67083333  0.28750000  1.0
  Ni  Ni201  1  0.66666667  0.00416667  0.28750000  1.0
  Ni  Ni202  1  0.66666667  0.33750000  0.28750000  1.0
  Ni  Ni203  1  0.66666667  0.67083333  0.28750000  1.0
  Ni  Ni204  1  1.00000000  0.00416667  0.28750000  1.0
  Ni  Ni205  1  1.00000000  0.33750000  0.28750000  1.0
  Ni  Ni206  1  0.00000000  0.67083333  0.28750000  1.0
  Ni  Ni207  1  0.16666667  0.22083333  0.23750000  1.0
  Ni  Ni208  1  0.16666667  0.55416667  0.23750000  1.0
  Ni  Ni209  1  0.16666667  0.88750000  0.23750000  1.0
  Ni  Ni210  1  0.50000000  0.22083333  0.23750000  1.0
  Ni  Ni211  1  0.50000000  0.55416667  0.23750000  1.0
  Ni  Ni212  1  0.50000000  0.88750000  0.23750000  1.0
  Ni  Ni213  1  0.83333333  0.22083333  0.23750000  1.0
  Ni  Ni214  1  0.83333333  0.55416667  0.23750000  1.0
  Ni  Ni215  1  0.83333333  0.88750000  0.23750000  1.0
  Ni  Ni216  1  0.08333333  0.17916667  0.36250000  1.0
  Ni  Ni217  1  0.08333333  0.51250000  0.36250000  1.0
  Ni  Ni218  1  0.08333333  0.84583333  0.36250000  1.0
  Ni  Ni219  1  0.41666667  0.17916667  0.36250000  1.0
  Ni  Ni220  1  0.41666667  0.51250000  0.36250000  1.0
  Ni  Ni221  1  0.41666667  0.84583333  0.36250000  1.0
  Ni  Ni222  1  0.75000000  0.17916667  0.36250000  1.0
  Ni  Ni223  1  0.75000000  0.51250000  0.36250000  1.0
  Ni  Ni224  1  0.75000000  0.84583333  0.36250000  1.0
  Ni  Ni225  1  0.25000000  0.06250000  0.31250000  1.0
  Ni  Ni226  1  0.25000000  0.39583333  0.31250000  1.0
  Ni  Ni227  1  0.25000000  0.72916667  0.31250000  1.0
  Ni  Ni228  1  0.58333333  0.06250000  0.31250000  1.0
  Ni  Ni229  1  0.58333333  0.39583333  0.31250000  1.0
  Ni  Ni230  1  0.58333333  0.72916667  0.31250000  1.0
  Ni  Ni231  1  0.91666667  0.06250000  0.31250000  1.0
  Ni  Ni232  1  0.91666667  0.39583333  0.31250000  1.0
  Ni  Ni233  1  0.91666667  0.72916667  0.31250000  1.0
  Ni  Ni234  1  0.25000000  0.17916667  0.36250000  1.0
  Ni  Ni235  1  0.25000000  0.51250000  0.36250000  1.0
  Ni  Ni236  1  0.25000000  0.84583333  0.36250000  1.0
  Ni  Ni237  1  0.58333333  0.17916667  0.36250000  1.0
  Ni  Ni238  1  0.58333333  0.51250000  0.36250000  1.0
  Ni  Ni239  1  0.58333333  0.84583333  0.36250000  1.0
  Ni  Ni240  1  0.91666667  0.17916667  0.36250000  1.0
  Ni  Ni241  1  0.91666667  0.51250000  0.36250000  1.0
  Ni  Ni242  1  0.91666667  0.84583333  0.36250000  1.0
  Ni  Ni243  1  0.08333333  0.06250000  0.31250000  1.0
  Ni  Ni244  1  0.08333333  0.39583333  0.31250000  1.0
  Ni  Ni245  1  0.08333333  0.72916667  0.31250000  1.0
  Ni  Ni246  1  0.41666667  0.06250000  0.31250000  1.0
  Ni  Ni247  1  0.41666667  0.39583333  0.31250000  1.0
  Ni  Ni248  1  0.41666667  0.72916667  0.31250000  1.0
  Ni  Ni249  1  0.75000000  0.06250000  0.31250000  1.0
  Ni  Ni250  1  0.75000000  0.39583333  0.31250000  1.0
  Ni  Ni251  1  0.75000000  0.72916667  0.31250000  1.0
  Ni  Ni252  1  0.33333333  0.28750000  0.33750000  1.0
  Ni  Ni253  1  0.33333333  0.62083333  0.33750000  1.0
  Ni  Ni254  1  0.33333333  0.95416667  0.33750000  1.0
  Ni  Ni255  1  0.66666667  0.28750000  0.33750000  1.0
  Ni  Ni256  1  0.66666667  0.62083333  0.33750000  1.0
  Ni  Ni257  1  0.66666667  0.95416667  0.33750000  1.0
  Ni  Ni258  1  1.00000000  0.28750000  0.33750000  1.0
  Ni  Ni259  1  0.00000000  0.62083333  0.33750000  1.0
  Ni  Ni260  1  1.00000000  0.95416667  0.33750000  1.0
  Ni  Ni261  1  0.16666667  0.07083333  0.38750000  1.0
  Ni  Ni262  1  0.16666667  0.40416667  0.38750000  1.0
  Ni  Ni263  1  0.16666667  0.73750000  0.38750000  1.0
  Ni  Ni264  1  0.50000000  0.07083333  0.38750000  1.0
  Ni  Ni265  1  0.50000000  0.40416667  0.38750000  1.0
  Ni  Ni266  1  0.50000000  0.73750000  0.38750000  1.0
  Ni  Ni267  1  0.83333333  0.07083333  0.38750000  1.0
  Ni  Ni268  1  0.83333333  0.40416667  0.38750000  1.0
  Ni  Ni269  1  0.83333333  0.73750000  0.38750000  1.0
  Ni  Ni270  1  0.33333333  0.23750000  0.38750000  1.0
  Ni  Ni271  1  0.33333333  0.57083333  0.38750000  1.0
  Ni  Ni272  1  0.33333333  0.90416667  0.38750000  1.0
  Ni  Ni273  1  0.66666667  0.23750000  0.38750000  1.0
  Ni  Ni274  1  0.66666667  0.57083333  0.38750000  1.0
  Ni  Ni275  1  0.66666667  0.90416667  0.38750000  1.0
  Ni  Ni276  1  1.00000000  0.23750000  0.38750000  1.0
  Ni  Ni277  1  1.00000000  0.57083333  0.38750000  1.0
  Ni  Ni278  1  1.00000000  0.90416667  0.38750000  1.0
  Ni  Ni279  1  0.16666667  0.12083333  0.33750000  1.0
  Ni  Ni280  1  0.16666667  0.45416667  0.33750000  1.0
  Ni  Ni281  1  0.16666667  0.78750000  0.33750000  1.0
  Ni  Ni282  1  0.50000000  0.12083333  0.33750000  1.0
  Ni  Ni283  1  0.50000000  0.45416667  0.33750000  1.0
  Ni  Ni284  1  0.50000000  0.78750000  0.33750000  1.0
  Ni  Ni285  1  0.83333333  0.12083333  0.33750000  1.0
  Ni  Ni286  1  0.83333333  0.45416667  0.33750000  1.0
  Ni  Ni287  1  0.83333333  0.78750000  0.33750000  1.0
  Sc  Sc288  1  0.33333333  0.32916667  0.08750000  1.0
  Sc  Sc289  1  0.33333333  0.66250000  0.08750000  1.0
  Sc  Sc290  1  0.33333333  0.99583333  0.08750000  1.0
  Sc  Sc291  1  0.66666667  0.32916667  0.08750000  1.0
  Sc  Sc292  1  0.66666667  0.66250000  0.08750000  1.0
  Sc  Sc293  1  0.66666667  0.99583333  0.08750000  1.0
  Sc  Sc294  1  1.00000000  0.32916667  0.08750000  1.0
  Sc  Sc295  1  0.00000000  0.66250000  0.08750000  1.0
  Sc  Sc296  1  1.00000000  0.99583333  0.08750000  1.0
  Sc  Sc297  1  0.16666667  0.21250000  0.03750000  1.0
  Sc  Sc298  1  0.16666667  0.54583333  0.03750000  1.0
  Sc  Sc299  1  0.16666667  0.87916667  0.03750000  1.0
  Sc  Sc300  1  0.50000000  0.21250000  0.03750000  1.0
  Sc  Sc301  1  0.50000000  0.54583333  0.03750000  1.0
  Sc  Sc302  1  0.50000000  0.87916667  0.03750000  1.0
  Sc  Sc303  1  0.83333333  0.21250000  0.03750000  1.0
  Sc  Sc304  1  0.83333333  0.54583333  0.03750000  1.0
  Sc  Sc305  1  0.83333333  0.87916667  0.03750000  1.0
  Sc  Sc306  1  0.33333333  0.07916667  0.08750000  1.0
  Sc  Sc307  1  0.33333333  0.41250000  0.08750000  1.0
  Sc  Sc308  1  0.33333333  0.74583333  0.08750000  1.0
  Sc  Sc309  1  0.66666667  0.07916667  0.08750000  1.0
  Sc  Sc310  1  0.66666667  0.41250000  0.08750000  1.0
  Sc  Sc311  1  0.66666667  0.74583333  0.08750000  1.0
  Sc  Sc312  1  0.00000000  0.07916667  0.08750000  1.0
  Sc  Sc313  1  0.00000000  0.41250000  0.08750000  1.0
  Sc  Sc314  1  1.00000000  0.74583333  0.08750000  1.0
  Sc  Sc315  1  0.16666667  0.29583333  0.03750000  1.0
  Sc  Sc316  1  0.16666667  0.62916667  0.03750000  1.0
  Sc  Sc317  1  0.16666667  0.96250000  0.03750000  1.0
  Sc  Sc318  1  0.50000000  0.29583333  0.03750000  1.0
  Sc  Sc319  1  0.50000000  0.62916667  0.03750000  1.0
  Sc  Sc320  1  0.50000000  0.96250000  0.03750000  1.0
  Sc  Sc321  1  0.83333333  0.29583333  0.03750000  1.0
  Sc  Sc322  1  0.83333333  0.62916667  0.03750000  1.0
  Sc  Sc323  1  0.83333333  0.96250000  0.03750000  1.0
  Sc  Sc324  1  0.33333333  0.22916667  0.18750000  1.0
  Sc  Sc325  1  0.33333333  0.56250000  0.18750000  1.0
  Sc  Sc326  1  0.33333333  0.89583333  0.18750000  1.0
  Sc  Sc327  1  0.66666667  0.22916667  0.18750000  1.0
  Sc  Sc328  1  0.66666667  0.56250000  0.18750000  1.0
  Sc  Sc329  1  0.66666667  0.89583333  0.18750000  1.0
  Sc  Sc330  1  1.00000000  0.22916667  0.18750000  1.0
  Sc  Sc331  1  1.00000000  0.56250000  0.18750000  1.0
  Sc  Sc332  1  1.00000000  0.89583333  0.18750000  1.0
  Sc  Sc333  1  0.16666667  0.11250000  0.13750000  1.0
  Sc  Sc334  1  0.16666667  0.44583333  0.13750000  1.0
  Sc  Sc335  1  0.16666667  0.77916667  0.13750000  1.0
  Sc  Sc336  1  0.50000000  0.11250000  0.13750000  1.0
  Sc  Sc337  1  0.50000000  0.44583333  0.13750000  1.0
  Sc  Sc338  1  0.50000000  0.77916667  0.13750000  1.0
  Sc  Sc339  1  0.83333333  0.11250000  0.13750000  1.0
  Sc  Sc340  1  0.83333333  0.44583333  0.13750000  1.0
  Sc  Sc341  1  0.83333333  0.77916667  0.13750000  1.0
  Sc  Sc342  1  0.33333333  0.31250000  0.18750000  1.0
  Sc  Sc343  1  0.33333333  0.64583333  0.18750000  1.0
  Sc  Sc344  1  0.33333333  0.97916667  0.18750000  1.0
  Sc  Sc345  1  0.66666667  0.31250000  0.18750000  1.0
  Sc  Sc346  1  0.66666667  0.64583333  0.18750000  1.0
  Sc  Sc347  1  0.66666667  0.97916667  0.18750000  1.0
  Sc  Sc348  1  1.00000000  0.31250000  0.18750000  1.0
  Sc  Sc349  1  0.00000000  0.64583333  0.18750000  1.0
  Sc  Sc350  1  1.00000000  0.97916667  0.18750000  1.0
  Sc  Sc351  1  0.16666667  0.19583333  0.13750000  1.0
  Sc  Sc352  1  0.16666667  0.52916667  0.13750000  1.0
  Sc  Sc353  1  0.16666667  0.86250000  0.13750000  1.0
  Sc  Sc354  1  0.50000000  0.19583333  0.13750000  1.0
  Sc  Sc355  1  0.50000000  0.52916667  0.13750000  1.0
  Sc  Sc356  1  0.50000000  0.86250000  0.13750000  1.0
  Sc  Sc357  1  0.83333333  0.19583333  0.13750000  1.0
  Sc  Sc358  1  0.83333333  0.52916667  0.13750000  1.0
  Sc  Sc359  1  0.83333333  0.86250000  0.13750000  1.0
  Sc  Sc360  1  0.33333333  0.12916667  0.28750000  1.0
  Sc  Sc361  1  0.33333333  0.46250000  0.28750000  1.0
  Sc  Sc362  1  0.33333333  0.79583333  0.28750000  1.0
  Sc  Sc363  1  0.66666667  0.12916667  0.28750000  1.0
  Sc  Sc364  1  0.66666667  0.46250000  0.28750000  1.0
  Sc  Sc365  1  0.66666667  0.79583333  0.28750000  1.0
  Sc  Sc366  1  1.00000000  0.12916667  0.28750000  1.0
  Sc  Sc367  1  1.00000000  0.46250000  0.28750000  1.0
  Sc  Sc368  1  1.00000000  0.79583333  0.28750000  1.0
  Sc  Sc369  1  0.16666667  0.01250000  0.23750000  1.0
  Sc  Sc370  1  0.16666667  0.34583333  0.23750000  1.0
  Sc  Sc371  1  0.16666667  0.67916667  0.23750000  1.0
  Sc  Sc372  1  0.50000000  0.01250000  0.23750000  1.0
  Sc  Sc373  1  0.50000000  0.34583333  0.23750000  1.0
  Sc  Sc374  1  0.50000000  0.67916667  0.23750000  1.0
  Sc  Sc375  1  0.83333333  0.01250000  0.23750000  1.0
  Sc  Sc376  1  0.83333333  0.34583333  0.23750000  1.0
  Sc  Sc377  1  0.83333333  0.67916667  0.23750000  1.0
  Sc  Sc378  1  0.33333333  0.21250000  0.28750000  1.0
  Sc  Sc379  1  0.33333333  0.54583333  0.28750000  1.0
  Sc  Sc380  1  0.33333333  0.87916667  0.28750000  1.0
  Sc  Sc381  1  0.66666667  0.21250000  0.28750000  1.0
  Sc  Sc382  1  0.66666667  0.54583333  0.28750000  1.0
  Sc  Sc383  1  0.66666667  0.87916667  0.28750000  1.0
  Sc  Sc384  1  1.00000000  0.21250000  0.28750000  1.0
  Sc  Sc385  1  1.00000000  0.54583333  0.28750000  1.0
  Sc  Sc386  1  1.00000000  0.87916667  0.28750000  1.0
  Sc  Sc387  1  0.16666667  0.09583333  0.23750000  1.0
  Sc  Sc388  1  0.16666667  0.42916667  0.23750000  1.0
  Sc  Sc389  1  0.16666667  0.76250000  0.23750000  1.0
  Sc  Sc390  1  0.50000000  0.09583333  0.23750000  1.0
  Sc  Sc391  1  0.50000000  0.42916667  0.23750000  1.0
  Sc  Sc392  1  0.50000000  0.76250000  0.23750000  1.0
  Sc  Sc393  1  0.83333333  0.09583333  0.23750000  1.0
  Sc  Sc394  1  0.83333333  0.42916667  0.23750000  1.0
  Sc  Sc395  1  0.83333333  0.76250000  0.23750000  1.0
  Sc  Sc396  1  0.33333333  0.02916667  0.38750000  1.0
  Sc  Sc397  1  0.33333333  0.36250000  0.38750000  1.0
  Sc  Sc398  1  0.33333333  0.69583333  0.38750000  1.0
  Sc  Sc399  1  0.66666667  0.02916667  0.38750000  1.0
  Sc  Sc400  1  0.66666667  0.36250000  0.38750000  1.0
  Sc  Sc401  1  0.66666667  0.69583333  0.38750000  1.0
  Sc  Sc402  1  1.00000000  0.02916667  0.38750000  1.0
  Sc  Sc403  1  1.00000000  0.36250000  0.38750000  1.0
  Sc  Sc404  1  1.00000000  0.69583333  0.38750000  1.0
  Sc  Sc405  1  0.16666667  0.24583333  0.33750000  1.0
  Sc  Sc406  1  0.16666667  0.57916667  0.33750000  1.0
  Sc  Sc407  1  0.16666667  0.91250000  0.33750000  1.0
  Sc  Sc408  1  0.50000000  0.24583333  0.33750000  1.0
  Sc  Sc409  1  0.50000000  0.57916667  0.33750000  1.0
  Sc  Sc410  1  0.50000000  0.91250000  0.33750000  1.0
  Sc  Sc411  1  0.83333333  0.24583333  0.33750000  1.0
  Sc  Sc412  1  0.83333333  0.57916667  0.33750000  1.0
  Sc  Sc413  1  0.83333333  0.91250000  0.33750000  1.0
  Sc  Sc414  1  0.33333333  0.11250000  0.38750000  1.0
  Sc  Sc415  1  0.33333333  0.44583333  0.38750000  1.0
  Sc  Sc416  1  0.33333333  0.77916667  0.38750000  1.0
  Sc  Sc417  1  0.66666667  0.11250000  0.38750000  1.0
  Sc  Sc418  1  0.66666667  0.44583333  0.38750000  1.0
  Sc  Sc419  1  0.66666667  0.77916667  0.38750000  1.0
  Sc  Sc420  1  1.00000000  0.11250000  0.38750000  1.0
  Sc  Sc421  1  1.00000000  0.44583333  0.38750000  1.0
  Sc  Sc422  1  1.00000000  0.77916667  0.38750000  1.0
  Sc  Sc423  1  0.16666667  0.32916667  0.33750000  1.0
  Sc  Sc424  1  0.16666667  0.66250000  0.33750000  1.0
  Sc  Sc425  1  0.16666667  0.99583333  0.33750000  1.0
  Sc  Sc426  1  0.50000000  0.32916667  0.33750000  1.0
  Sc  Sc427  1  0.50000000  0.66250000  0.33750000  1.0
  Sc  Sc428  1  0.50000000  0.99583333  0.33750000  1.0
  Sc  Sc429  1  0.83333333  0.32916667  0.33750000  1.0
  Sc  Sc430  1  0.83333333  0.66250000  0.33750000  1.0
  Sc  Sc431  1  0.83333333  0.99583333  0.33750000  1.0
