# generated using pymatgen
data_ScNi2
_symmetry_space_group_name_H-M   'P 1'
_cell_length_a   25.27641201
_cell_length_b   25.27641201
_cell_length_c   58.37337312
_cell_angle_alpha   30.00000000
_cell_angle_beta   90.00000000
_cell_angle_gamma   99.59406823
_symmetry_Int_Tables_number   1
_chemical_formula_structural   ScNi2
_chemical_formula_sum   'Sc180 Ni360'
_cell_volume   17580.83041459
_cell_formula_units_Z   180
loop_
 _symmetry_equiv_pos_site_id
 _symmetry_equiv_pos_as_xyz
  1  'x, y, z'
loop_
 _atom_site_type_symbol
 _atom_site_label
 _atom_site_symmetry_multiplicity
 _atom_site_fract_x
 _atom_site_fract_y
 _atom_site_fract_z
 _atom_site_occupancy
  Sc  Sc0  1  0.29166667  0.08333333  0.00781250  1.0
  Sc  Sc1  1  0.29166667  0.41666667  0.00781250  1.0
  Sc  Sc2  1  0.29166667  0.75000000  0.00781250  1.0
  Sc  Sc3  1  0.62500000  0.08333333  0.00781250  1.0
  Sc  Sc4  1  0.62500000  0.41666667  0.00781250  1.0
  Sc  Sc5  1  0.62500000  0.75000000  0.00781250  1.0
  Sc  Sc6  1  0.95833333  0.08333333  0.00781250  1.0
  Sc  Sc7  1  0.95833333  0.41666667  0.00781250  1.0
  Sc  Sc8  1  0.95833333  0.75000000  0.00781250  1.0
  Sc  Sc9  1  0.12500000  0.08333333  0.04947917  1.0
  Sc  Sc10  1  0.12500000  0.41666667  0.04947917  1.0
  Sc  Sc11  1  0.12500000  0.75000000  0.04947917  1.0
  Sc  Sc12  1  0.45833333  0.08333333  0.04947917  1.0
  Sc  Sc13  1  0.45833333  0.41666667  0.04947917  1.0
  Sc  Sc14  1  0.45833333  0.75000000  0.04947917  1.0
  Sc  Sc15  1  0.79166667  0.08333333  0.04947917  1.0
  Sc  Sc16  1  0.79166667  0.41666667  0.04947917  1.0
  Sc  Sc17  1  0.79166667  0.75000000  0.04947917  1.0
  Sc  Sc18  1  0.25000000  0.16666667  0.01822917  1.0
  Sc  Sc19  1  0.25000000  0.50000000  0.01822917  1.0
  Sc  Sc20  1  0.25000000  0.83333333  0.01822917  1.0
  Sc  Sc21  1  0.58333333  0.16666667  0.01822917  1.0
  Sc  Sc22  1  0.58333333  0.50000000  0.01822917  1.0
  Sc  Sc23  1  0.58333333  0.83333333  0.01822917  1.0
  Sc  Sc24  1  0.91666667  0.16666667  0.01822917  1.0
  Sc  Sc25  1  0.91666667  0.50000000  0.01822917  1.0
  Sc  Sc26  1  0.91666667  0.83333333  0.01822917  1.0
  Sc  Sc27  1  0.08333333  0.16666667  0.05989583  1.0
  Sc  Sc28  1  0.08333333  0.50000000  0.05989583  1.0
  Sc  Sc29  1  0.08333333  0.83333333  0.05989583  1.0
  Sc  Sc30  1  0.41666667  0.16666667  0.05989583  1.0
  Sc  Sc31  1  0.41666667  0.50000000  0.05989583  1.0
  Sc  Sc32  1  0.41666667  0.83333333  0.05989583  1.0
  Sc  Sc33  1  0.75000000  0.16666667  0.05989583  1.0
  Sc  Sc34  1  0.75000000  0.50000000  0.05989583  1.0
  Sc  Sc35  1  0.75000000  0.83333333  0.05989583  1.0
  Ni  Ni36  1  0.18750000  0.12500000  0.07552083  1.0
  Ni  Ni37  1  0.18750000  0.45833333  0.07552083  1.0
  Ni  Ni38  1  0.18750000  0.79166667  0.07552083  1.0
  Ni  Ni39  1  0.52083333  0.12500000  0.07552083  1.0
  Ni  Ni40  1  0.52083333  0.45833333  0.07552083  1.0
  Ni  Ni41  1  0.52083333  0.79166667  0.07552083  1.0
  Ni  Ni42  1  0.85416667  0.12500000  0.07552083  1.0
  Ni  Ni43  1  0.85416667  0.45833333  0.07552083  1.0
  Ni  Ni44  1  0.85416667  0.79166667  0.07552083  1.0
  Ni  Ni45  1  0.02083333  0.12500000  0.03385417  1.0
  Ni  Ni46  1  0.02083333  0.45833333  0.03385417  1.0
  Ni  Ni47  1  0.02083333  0.79166667  0.03385417  1.0
  Ni  Ni48  1  0.35416667  0.12500000  0.03385417  1.0
  Ni  Ni49  1  0.35416667  0.45833333  0.03385417  1.0
  Ni  Ni50  1  0.35416667  0.79166667  0.03385417  1.0
  Ni  Ni51  1  0.68750000  0.12500000  0.03385417  1.0
  Ni  Ni52  1  0.68750000  0.45833333  0.03385417  1.0
  Ni  Ni53  1  0.68750000  0.79166667  0.03385417  1.0
  Ni  Ni54  1  0.27083333  0.29166667  0.01302083  1.0
  Ni  Ni55  1  0.27083333  0.62500000  0.01302083  1.0
  Ni  Ni56  1  0.27083333  0.95833333  0.01302083  1.0
  Ni  Ni57  1  0.60416667  0.29166667  0.01302083  1.0
  Ni  Ni58  1  0.60416667  0.62500000  0.01302083  1.0
  Ni  Ni59  1  0.60416667  0.95833333  0.01302083  1.0
  Ni  Ni60  1  0.93750000  0.29166667  0.01302083  1.0
  Ni  Ni61  1  0.93750000  0.62500000  0.01302083  1.0
  Ni  Ni62  1  0.93750000  0.95833333  0.01302083  1.0
  Ni  Ni63  1  0.10416667  0.29166667  0.05468750  1.0
  Ni  Ni64  1  0.10416667  0.62500000  0.05468750  1.0
  Ni  Ni65  1  0.10416667  0.95833333  0.05468750  1.0
  Ni  Ni66  1  0.43750000  0.29166667  0.05468750  1.0
  Ni  Ni67  1  0.43750000  0.62500000  0.05468750  1.0
  Ni  Ni68  1  0.43750000  0.95833333  0.05468750  1.0
  Ni  Ni69  1  0.77083333  0.29166667  0.05468750  1.0
  Ni  Ni70  1  0.77083333  0.62500000  0.05468750  1.0
  Ni  Ni71  1  0.77083333  0.95833333  0.05468750  1.0
  Ni  Ni72  1  0.18750000  0.29166667  0.07552083  1.0
  Ni  Ni73  1  0.18750000  0.62500000  0.07552083  1.0
  Ni  Ni74  1  0.18750000  0.95833333  0.07552083  1.0
  Ni  Ni75  1  0.52083333  0.29166667  0.07552083  1.0
  Ni  Ni76  1  0.52083333  0.62500000  0.07552083  1.0
  Ni  Ni77  1  0.52083333  0.95833333  0.07552083  1.0
  Ni  Ni78  1  0.85416667  0.29166667  0.07552083  1.0
  Ni  Ni79  1  0.85416667  0.62500000  0.07552083  1.0
  Ni  Ni80  1  0.85416667  0.95833333  0.07552083  1.0
  Ni  Ni81  1  0.02083333  0.29166667  0.03385417  1.0
  Ni  Ni82  1  0.02083333  0.62500000  0.03385417  1.0
  Ni  Ni83  1  0.02083333  0.95833333  0.03385417  1.0
  Ni  Ni84  1  0.35416667  0.29166667  0.03385417  1.0
  Ni  Ni85  1  0.35416667  0.62500000  0.03385417  1.0
  Ni  Ni86  1  0.35416667  0.95833333  0.03385417  1.0
  Ni  Ni87  1  0.68750000  0.29166667  0.03385417  1.0
  Ni  Ni88  1  0.68750000  0.62500000  0.03385417  1.0
  Ni  Ni89  1  0.68750000  0.95833333  0.03385417  1.0
  Ni  Ni90  1  0.18750000  0.29166667  0.03385417  1.0
  Ni  Ni91  1  0.18750000  0.62500000  0.03385417  1.0
  Ni  Ni92  1  0.18750000  0.95833333  0.03385417  1.0
  Ni  Ni93  1  0.52083333  0.29166667  0.03385417  1.0
  Ni  Ni94  1  0.52083333  0.62500000  0.03385417  1.0
  Ni  Ni95  1  0.52083333  0.95833333  0.03385417  1.0
  Ni  Ni96  1  0.85416667  0.29166667  0.03385417  1.0
  Ni  Ni97  1  0.85416667  0.62500000  0.03385417  1.0
  Ni  Ni98  1  0.85416667  0.95833333  0.03385417  1.0
  Ni  Ni99  1  0.02083333  0.29166667  0.07552083  1.0
  Ni  Ni100  1  0.02083333  0.62500000  0.07552083  1.0
  Ni  Ni101  1  0.02083333  0.95833333  0.07552083  1.0
  Ni  Ni102  1  0.35416667  0.29166667  0.07552083  1.0
  Ni  Ni103  1  0.35416667  0.62500000  0.07552083  1.0
  Ni  Ni104  1  0.35416667  0.95833333  0.07552083  1.0
  Ni  Ni105  1  0.68750000  0.29166667  0.07552083  1.0
  Ni  Ni106  1  0.68750000  0.62500000  0.07552083  1.0
  Ni  Ni107  1  0.68750000  0.95833333  0.07552083  1.0
  Sc  Sc108  1  0.29166667  0.08333333  0.09114583  1.0
  Sc  Sc109  1  0.29166667  0.41666667  0.09114583  1.0
  Sc  Sc110  1  0.29166667  0.75000000  0.09114583  1.0
  Sc  Sc111  1  0.62500000  0.08333333  0.09114583  1.0
  Sc  Sc112  1  0.62500000  0.41666667  0.09114583  1.0
  Sc  Sc113  1  0.62500000  0.75000000  0.09114583  1.0
  Sc  Sc114  1  0.95833333  0.08333333  0.09114583  1.0
  Sc  Sc115  1  0.95833333  0.41666667  0.09114583  1.0
  Sc  Sc116  1  0.95833333  0.75000000  0.09114583  1.0
  Sc  Sc117  1  0.12500000  0.08333333  0.13281250  1.0
  Sc  Sc118  1  0.12500000  0.41666667  0.13281250  1.0
  Sc  Sc119  1  0.12500000  0.75000000  0.13281250  1.0
  Sc  Sc120  1  0.45833333  0.08333333  0.13281250  1.0
  Sc  Sc121  1  0.45833333  0.41666667  0.13281250  1.0
  Sc  Sc122  1  0.45833333  0.75000000  0.13281250  1.0
  Sc  Sc123  1  0.79166667  0.08333333  0.13281250  1.0
  Sc  Sc124  1  0.79166667  0.41666667  0.13281250  1.0
  Sc  Sc125  1  0.79166667  0.75000000  0.13281250  1.0
  Sc  Sc126  1  0.25000000  0.16666667  0.10156250  1.0
  Sc  Sc127  1  0.25000000  0.50000000  0.10156250  1.0
  Sc  Sc128  1  0.25000000  0.83333333  0.10156250  1.0
  Sc  Sc129  1  0.58333333  0.16666667  0.10156250  1.0
  Sc  Sc130  1  0.58333333  0.50000000  0.10156250  1.0
  Sc  Sc131  1  0.58333333  0.83333333  0.10156250  1.0
  Sc  Sc132  1  0.91666667  0.16666667  0.10156250  1.0
  Sc  Sc133  1  0.91666667  0.50000000  0.10156250  1.0
  Sc  Sc134  1  0.91666667  0.83333333  0.10156250  1.0
  Sc  Sc135  1  0.08333333  0.16666667  0.14322917  1.0
  Sc  Sc136  1  0.08333333  0.50000000  0.14322917  1.0
  Sc  Sc137  1  0.08333333  0.83333333  0.14322917  1.0
  Sc  Sc138  1  0.41666667  0.16666667  0.14322917  1.0
  Sc  Sc139  1  0.41666667  0.50000000  0.14322917  1.0
  Sc  Sc140  1  0.41666667  0.83333333  0.14322917  1.0
  Sc  Sc141  1  0.75000000  0.16666667  0.14322917  1.0
  Sc  Sc142  1  0.75000000  0.50000000  0.14322917  1.0
  Sc  Sc143  1  0.75000000  0.83333333  0.14322917  1.0
  Ni  Ni144  1  0.18750000  0.12500000  0.15885417  1.0
  Ni  Ni145  1  0.18750000  0.45833333  0.15885417  1.0
  Ni  Ni146  1  0.18750000  0.79166667  0.15885417  1.0
  Ni  Ni147  1  0.52083333  0.12500000  0.15885417  1.0
  Ni  Ni148  1  0.52083333  0.45833333  0.15885417  1.0
  Ni  Ni149  1  0.52083333  0.79166667  0.15885417  1.0
  Ni  Ni150  1  0.85416667  0.12500000  0.15885417  1.0
  Ni  Ni151  1  0.85416667  0.45833333  0.15885417  1.0
  Ni  Ni152  1  0.85416667  0.79166667  0.15885417  1.0
  Ni  Ni153  1  0.02083333  0.12500000  0.11718750  1.0
  Ni  Ni154  1  0.02083333  0.45833333  0.11718750  1.0
  Ni  Ni155  1  0.02083333  0.79166667  0.11718750  1.0
  Ni  Ni156  1  0.35416667  0.12500000  0.11718750  1.0
  Ni  Ni157  1  0.35416667  0.45833333  0.11718750  1.0
  Ni  Ni158  1  0.35416667  0.79166667  0.11718750  1.0
  Ni  Ni159  1  0.68750000  0.12500000  0.11718750  1.0
  Ni  Ni160  1  0.68750000  0.45833333  0.11718750  1.0
  Ni  Ni161  1  0.68750000  0.79166667  0.11718750  1.0
  Ni  Ni162  1  0.27083333  0.29166667  0.09635417  1.0
  Ni  Ni163  1  0.27083333  0.62500000  0.09635417  1.0
  Ni  Ni164  1  0.27083333  0.95833333  0.09635417  1.0
  Ni  Ni165  1  0.60416667  0.29166667  0.09635417  1.0
  Ni  Ni166  1  0.60416667  0.62500000  0.09635417  1.0
  Ni  Ni167  1  0.60416667  0.95833333  0.09635417  1.0
  Ni  Ni168  1  0.93750000  0.29166667  0.09635417  1.0
  Ni  Ni169  1  0.93750000  0.62500000  0.09635417  1.0
  Ni  Ni170  1  0.93750000  0.95833333  0.09635417  1.0
  Ni  Ni171  1  0.10416667  0.29166667  0.13802083  1.0
  Ni  Ni172  1  0.10416667  0.62500000  0.13802083  1.0
  Ni  Ni173  1  0.10416667  0.95833333  0.13802083  1.0
  Ni  Ni174  1  0.43750000  0.29166667  0.13802083  1.0
  Ni  Ni175  1  0.43750000  0.62500000  0.13802083  1.0
  Ni  Ni176  1  0.43750000  0.95833333  0.13802083  1.0
  Ni  Ni177  1  0.77083333  0.29166667  0.13802083  1.0
  Ni  Ni178  1  0.77083333  0.62500000  0.13802083  1.0
  Ni  Ni179  1  0.77083333  0.95833333  0.13802083  1.0
  Ni  Ni180  1  0.18750000  0.29166667  0.15885417  1.0
  Ni  Ni181  1  0.18750000  0.62500000  0.15885417  1.0
  Ni  Ni182  1  0.18750000  0.95833333  0.15885417  1.0
  Ni  Ni183  1  0.52083333  0.29166667  0.15885417  1.0
  Ni  Ni184  1  0.52083333  0.62500000  0.15885417  1.0
  Ni  Ni185  1  0.52083333  0.95833333  0.15885417  1.0
  Ni  Ni186  1  0.85416667  0.29166667  0.15885417  1.0
  Ni  Ni187  1  0.85416667  0.62500000  0.15885417  1.0
  Ni  Ni188  1  0.85416667  0.95833333  0.15885417  1.0
  Ni  Ni189  1  0.02083333  0.29166667  0.11718750  1.0
  Ni  Ni190  1  0.02083333  0.62500000  0.11718750  1.0
  Ni  Ni191  1  0.02083333  0.95833333  0.11718750  1.0
  Ni  Ni192  1  0.35416667  0.29166667  0.11718750  1.0
  Ni  Ni193  1  0.35416667  0.62500000  0.11718750  1.0
  Ni  Ni194  1  0.35416667  0.95833333  0.11718750  1.0
  Ni  Ni195  1  0.68750000  0.29166667  0.11718750  1.0
  Ni  Ni196  1  0.68750000  0.62500000  0.11718750  1.0
  Ni  Ni197  1  0.68750000  0.95833333  0.11718750  1.0
  Ni  Ni198  1  0.18750000  0.29166667  0.11718750  1.0
  Ni  Ni199  1  0.18750000  0.62500000  0.11718750  1.0
  Ni  Ni200  1  0.18750000  0.95833333  0.11718750  1.0
  Ni  Ni201  1  0.52083333  0.29166667  0.11718750  1.0
  Ni  Ni202  1  0.52083333  0.62500000  0.11718750  1.0
  Ni  Ni203  1  0.52083333  0.95833333  0.11718750  1.0
  Ni  Ni204  1  0.85416667  0.29166667  0.11718750  1.0
  Ni  Ni205  1  0.85416667  0.62500000  0.11718750  1.0
  Ni  Ni206  1  0.85416667  0.95833333  0.11718750  1.0
  Ni  Ni207  1  0.02083333  0.29166667  0.15885417  1.0
  Ni  Ni208  1  0.02083333  0.62500000  0.15885417  1.0
  Ni  Ni209  1  0.02083333  0.95833333  0.15885417  1.0
  Ni  Ni210  1  0.35416667  0.29166667  0.15885417  1.0
  Ni  Ni211  1  0.35416667  0.62500000  0.15885417  1.0
  Ni  Ni212  1  0.35416667  0.95833333  0.15885417  1.0
  Ni  Ni213  1  0.68750000  0.29166667  0.15885417  1.0
  Ni  Ni214  1  0.68750000  0.62500000  0.15885417  1.0
  Ni  Ni215  1  0.68750000  0.95833333  0.15885417  1.0
  Sc  Sc216  1  0.29166667  0.08333333  0.17447917  1.0
  Sc  Sc217  1  0.29166667  0.41666667  0.17447917  1.0
  Sc  Sc218  1  0.29166667  0.75000000  0.17447917  1.0
  Sc  Sc219  1  0.62500000  0.08333333  0.17447917  1.0
  Sc  Sc220  1  0.62500000  0.41666667  0.17447917  1.0
  Sc  Sc221  1  0.62500000  0.75000000  0.17447917  1.0
  Sc  Sc222  1  0.95833333  0.08333333  0.17447917  1.0
  Sc  Sc223  1  0.95833333  0.41666667  0.17447917  1.0
  Sc  Sc224  1  0.95833333  0.75000000  0.17447917  1.0
  Sc  Sc225  1  0.12500000  0.08333333  0.21614583  1.0
  Sc  Sc226  1  0.12500000  0.41666667  0.21614583  1.0
  Sc  Sc227  1  0.12500000  0.75000000  0.21614583  1.0
  Sc  Sc228  1  0.45833333  0.08333333  0.21614583  1.0
  Sc  Sc229  1  0.45833333  0.41666667  0.21614583  1.0
  Sc  Sc230  1  0.45833333  0.75000000  0.21614583  1.0
  Sc  Sc231  1  0.79166667  0.08333333  0.21614583  1.0
  Sc  Sc232  1  0.79166667  0.41666667  0.21614583  1.0
  Sc  Sc233  1  0.79166667  0.75000000  0.21614583  1.0
  Sc  Sc234  1  0.25000000  0.16666667  0.18489583  1.0
  Sc  Sc235  1  0.25000000  0.50000000  0.18489583  1.0
  Sc  Sc236  1  0.25000000  0.83333333  0.18489583  1.0
  Sc  Sc237  1  0.58333333  0.16666667  0.18489583  1.0
  Sc  Sc238  1  0.58333333  0.50000000  0.18489583  1.0
  Sc  Sc239  1  0.58333333  0.83333333  0.18489583  1.0
  Sc  Sc240  1  0.91666667  0.16666667  0.18489583  1.0
  Sc  Sc241  1  0.91666667  0.50000000  0.18489583  1.0
  Sc  Sc242  1  0.91666667  0.83333333  0.18489583  1.0
  Sc  Sc243  1  0.08333333  0.16666667  0.22656250  1.0
  Sc  Sc244  1  0.08333333  0.50000000  0.22656250  1.0
  Sc  Sc245  1  0.08333333  0.83333333  0.22656250  1.0
  Sc  Sc246  1  0.41666667  0.16666667  0.22656250  1.0
  Sc  Sc247  1  0.41666667  0.50000000  0.22656250  1.0
  Sc  Sc248  1  0.41666667  0.83333333  0.22656250  1.0
  Sc  Sc249  1  0.75000000  0.16666667  0.22656250  1.0
  Sc  Sc250  1  0.75000000  0.50000000  0.22656250  1.0
  Sc  Sc251  1  0.75000000  0.83333333  0.22656250  1.0
  Ni  Ni252  1  0.18750000  0.12500000  0.24218750  1.0
  Ni  Ni253  1  0.18750000  0.45833333  0.24218750  1.0
  Ni  Ni254  1  0.18750000  0.79166667  0.24218750  1.0
  Ni  Ni255  1  0.52083333  0.12500000  0.24218750  1.0
  Ni  Ni256  1  0.52083333  0.45833333  0.24218750  1.0
  Ni  Ni257  1  0.52083333  0.79166667  0.24218750  1.0
  Ni  Ni258  1  0.85416667  0.12500000  0.24218750  1.0
  Ni  Ni259  1  0.85416667  0.45833333  0.24218750  1.0
  Ni  Ni260  1  0.85416667  0.79166667  0.24218750  1.0
  Ni  Ni261  1  0.02083333  0.12500000  0.20052083  1.0
  Ni  Ni262  1  0.02083333  0.45833333  0.20052083  1.0
  Ni  Ni263  1  0.02083333  0.79166667  0.20052083  1.0
  Ni  Ni264  1  0.35416667  0.12500000  0.20052083  1.0
  Ni  Ni265  1  0.35416667  0.45833333  0.20052083  1.0
  Ni  Ni266  1  0.35416667  0.79166667  0.20052083  1.0
  Ni  Ni267  1  0.68750000  0.12500000  0.20052083  1.0
  Ni  Ni268  1  0.68750000  0.45833333  0.20052083  1.0
  Ni  Ni269  1  0.68750000  0.79166667  0.20052083  1.0
  Ni  Ni270  1  0.27083333  0.29166667  0.17968750  1.0
  Ni  Ni271  1  0.27083333  0.62500000  0.17968750  1.0
  Ni  Ni272  1  0.27083333  0.95833333  0.17968750  1.0
  Ni  Ni273  1  0.60416667  0.29166667  0.17968750  1.0
  Ni  Ni274  1  0.60416667  0.62500000  0.17968750  1.0
  Ni  Ni275  1  0.60416667  0.95833333  0.17968750  1.0
  Ni  Ni276  1  0.93750000  0.29166667  0.17968750  1.0
  Ni  Ni277  1  0.93750000  0.62500000  0.17968750  1.0
  Ni  Ni278  1  0.93750000  0.95833333  0.17968750  1.0
  Ni  Ni279  1  0.10416667  0.29166667  0.22135417  1.0
  Ni  Ni280  1  0.10416667  0.62500000  0.22135417  1.0
  Ni  Ni281  1  0.10416667  0.95833333  0.22135417  1.0
  Ni  Ni282  1  0.43750000  0.29166667  0.22135417  1.0
  Ni  Ni283  1  0.43750000  0.62500000  0.22135417  1.0
  Ni  Ni284  1  0.43750000  0.95833333  0.22135417  1.0
  Ni  Ni285  1  0.77083333  0.29166667  0.22135417  1.0
  Ni  Ni286  1  0.77083333  0.62500000  0.22135417  1.0
  Ni  Ni287  1  0.77083333  0.95833333  0.22135417  1.0
  Ni  Ni288  1  0.18750000  0.29166667  0.24218750  1.0
  Ni  Ni289  1  0.18750000  0.62500000  0.24218750  1.0
  Ni  Ni290  1  0.18750000  0.95833333  0.24218750  1.0
  Ni  Ni291  1  0.52083333  0.29166667  0.24218750  1.0
  Ni  Ni292  1  0.52083333  0.62500000  0.24218750  1.0
  Ni  Ni293  1  0.52083333  0.95833333  0.24218750  1.0
  Ni  Ni294  1  0.85416667  0.29166667  0.24218750  1.0
  Ni  Ni295  1  0.85416667  0.62500000  0.24218750  1.0
  Ni  Ni296  1  0.85416667  0.95833333  0.24218750  1.0
  Ni  Ni297  1  0.02083333  0.29166667  0.20052083  1.0
  Ni  Ni298  1  0.02083333  0.62500000  0.20052083  1.0
  Ni  Ni299  1  0.02083333  0.95833333  0.20052083  1.0
  Ni  Ni300  1  0.35416667  0.29166667  0.20052083  1.0
  Ni  Ni301  1  0.35416667  0.62500000  0.20052083  1.0
  Ni  Ni302  1  0.35416667  0.95833333  0.20052083  1.0
  Ni  Ni303  1  0.68750000  0.29166667  0.20052083  1.0
  Ni  Ni304  1  0.68750000  0.62500000  0.20052083  1.0
  Ni  Ni305  1  0.68750000  0.95833333  0.20052083  1.0
  Ni  Ni306  1  0.18750000  0.29166667  0.20052083  1.0
  Ni  Ni307  1  0.18750000  0.62500000  0.20052083  1.0
  Ni  Ni308  1  0.18750000  0.95833333  0.20052083  1.0
  Ni  Ni309  1  0.52083333  0.29166667  0.20052083  1.0
  Ni  Ni310  1  0.52083333  0.62500000  0.20052083  1.0
  Ni  Ni311  1  0.52083333  0.95833333  0.20052083  1.0
  Ni  Ni312  1  0.85416667  0.29166667  0.20052083  1.0
  Ni  Ni313  1  0.85416667  0.62500000  0.20052083  1.0
  Ni  Ni314  1  0.85416667  0.95833333  0.20052083  1.0
  Ni  Ni315  1  0.02083333  0.29166667  0.24218750  1.0
  Ni  Ni316  1  0.02083333  0.62500000  0.24218750  1.0
  Ni  Ni317  1  0.02083333  0.95833333  0.24218750  1.0
  Ni  Ni318  1  0.35416667  0.29166667  0.24218750  1.0
  Ni  Ni319  1  0.35416667  0.62500000  0.24218750  1.0
  Ni  Ni320  1  0.35416667  0.95833333  0.24218750  1.0
  Ni  Ni321  1  0.68750000  0.29166667  0.24218750  1.0
  Ni  Ni322  1  0.68750000  0.62500000  0.24218750  1.0
  Ni  Ni323  1  0.68750000  0.95833333  0.24218750  1.0
  Sc  Sc324  1  0.29166667  0.08333333  0.25781250  1.0
  Sc  Sc325  1  0.29166667  0.41666667  0.25781250  1.0
  Sc  Sc326  1  0.29166667  0.75000000  0.25781250  1.0
  Sc  Sc327  1  0.62500000  0.08333333  0.25781250  1.0
  Sc  Sc328  1  0.62500000  0.41666667  0.25781250  1.0
  Sc  Sc329  1  0.62500000  0.75000000  0.25781250  1.0
  Sc  Sc330  1  0.95833333  0.08333333  0.25781250  1.0
  Sc  Sc331  1  0.95833333  0.41666667  0.25781250  1.0
  Sc  Sc332  1  0.95833333  0.75000000  0.25781250  1.0
  Sc  Sc333  1  0.12500000  0.08333333  0.29947917  1.0
  Sc  Sc334  1  0.12500000  0.41666667  0.29947917  1.0
  Sc  Sc335  1  0.12500000  0.75000000  0.29947917  1.0
  Sc  Sc336  1  0.45833333  0.08333333  0.29947917  1.0
  Sc  Sc337  1  0.45833333  0.41666667  0.29947917  1.0
  Sc  Sc338  1  0.45833333  0.75000000  0.29947917  1.0
  Sc  Sc339  1  0.79166667  0.08333333  0.29947917  1.0
  Sc  Sc340  1  0.79166667  0.41666667  0.29947917  1.0
  Sc  Sc341  1  0.79166667  0.75000000  0.29947917  1.0
  Sc  Sc342  1  0.25000000  0.16666667  0.26822917  1.0
  Sc  Sc343  1  0.25000000  0.50000000  0.26822917  1.0
  Sc  Sc344  1  0.25000000  0.83333333  0.26822917  1.0
  Sc  Sc345  1  0.58333333  0.16666667  0.26822917  1.0
  Sc  Sc346  1  0.58333333  0.50000000  0.26822917  1.0
  Sc  Sc347  1  0.58333333  0.83333333  0.26822917  1.0
  Sc  Sc348  1  0.91666667  0.16666667  0.26822917  1.0
  Sc  Sc349  1  0.91666667  0.50000000  0.26822917  1.0
  Sc  Sc350  1  0.91666667  0.83333333  0.26822917  1.0
  Sc  Sc351  1  0.08333333  0.16666667  0.30989583  1.0
  Sc  Sc352  1  0.08333333  0.50000000  0.30989583  1.0
  Sc  Sc353  1  0.08333333  0.83333333  0.30989583  1.0
  Sc  Sc354  1  0.41666667  0.16666667  0.30989583  1.0
  Sc  Sc355  1  0.41666667  0.50000000  0.30989583  1.0
  Sc  Sc356  1  0.41666667  0.83333333  0.30989583  1.0
  Sc  Sc357  1  0.75000000  0.16666667  0.30989583  1.0
  Sc  Sc358  1  0.75000000  0.50000000  0.30989583  1.0
  Sc  Sc359  1  0.75000000  0.83333333  0.30989583  1.0
  Ni  Ni360  1  0.18750000  0.12500000  0.32552083  1.0
  Ni  Ni361  1  0.18750000  0.45833333  0.32552083  1.0
  Ni  Ni362  1  0.18750000  0.79166667  0.32552083  1.0
  Ni  Ni363  1  0.52083333  0.12500000  0.32552083  1.0
  Ni  Ni364  1  0.52083333  0.45833333  0.32552083  1.0
  Ni  Ni365  1  0.52083333  0.79166667  0.32552083  1.0
  Ni  Ni366  1  0.85416667  0.12500000  0.32552083  1.0
  Ni  Ni367  1  0.85416667  0.45833333  0.32552083  1.0
  Ni  Ni368  1  0.85416667  0.79166667  0.32552083  1.0
  Ni  Ni369  1  0.02083333  0.12500000  0.28385417  1.0
  Ni  Ni370  1  0.02083333  0.45833333  0.28385417  1.0
  Ni  Ni371  1  0.02083333  0.79166667  0.28385417  1.0
  Ni  Ni372  1  0.35416667  0.12500000  0.28385417  1.0
  Ni  Ni373  1  0.35416667  0.45833333  0.28385417  1.0
  Ni  Ni374  1  0.35416667  0.79166667  0.28385417  1.0
  Ni  Ni375  1  0.68750000  0.12500000  0.28385417  1.0
  Ni  Ni376  1  0.68750000  0.45833333  0.28385417  1.0
  Ni  Ni377  1  0.68750000  0.79166667  0.28385417  1.0
  Ni  Ni378  1  0.27083333  0.29166667  0.26302083  1.0
  Ni  Ni379  1  0.27083333  0.62500000  0.26302083  1.0
  Ni  Ni380  1  0.27083333  0.95833333  0.26302083  1.0
  Ni  Ni381  1  0.60416667  0.29166667  0.26302083  1.0
  Ni  Ni382  1  0.60416667  0.62500000  0.26302083  1.0
  Ni  Ni383  1  0.60416667  0.95833333  0.26302083  1.0
  Ni  Ni384  1  0.93750000  0.29166667  0.26302083  1.0
  Ni  Ni385  1  0.93750000  0.62500000  0.26302083  1.0
  Ni  Ni386  1  0.93750000  0.95833333  0.26302083  1.0
  Ni  Ni387  1  0.10416667  0.29166667  0.30468750  1.0
  Ni  Ni388  1  0.10416667  0.62500000  0.30468750  1.0
  Ni  Ni389  1  0.10416667  0.95833333  0.30468750  1.0
  Ni  Ni390  1  0.43750000  0.29166667  0.30468750  1.0
  Ni  Ni391  1  0.43750000  0.62500000  0.30468750  1.0
  Ni  Ni392  1  0.43750000  0.95833333  0.30468750  1.0
  Ni  Ni393  1  0.77083333  0.29166667  0.30468750  1.0
  Ni  Ni394  1  0.77083333  0.62500000  0.30468750  1.0
  Ni  Ni395  1  0.77083333  0.95833333  0.30468750  1.0
  Ni  Ni396  1  0.18750000  0.29166667  0.32552083  1.0
  Ni  Ni397  1  0.18750000  0.62500000  0.32552083  1.0
  Ni  Ni398  1  0.18750000  0.95833333  0.32552083  1.0
  Ni  Ni399  1  0.52083333  0.29166667  0.32552083  1.0
  Ni  Ni400  1  0.52083333  0.62500000  0.32552083  1.0
  Ni  Ni401  1  0.52083333  0.95833333  0.32552083  1.0
  Ni  Ni402  1  0.85416667  0.29166667  0.32552083  1.0
  Ni  Ni403  1  0.85416667  0.62500000  0.32552083  1.0
  Ni  Ni404  1  0.85416667  0.95833333  0.32552083  1.0
  Ni  Ni405  1  0.02083333  0.29166667  0.28385417  1.0
  Ni  Ni406  1  0.02083333  0.62500000  0.28385417  1.0
  Ni  Ni407  1  0.02083333  0.95833333  0.28385417  1.0
  Ni  Ni408  1  0.35416667  0.29166667  0.28385417  1.0
  Ni  Ni409  1  0.35416667  0.62500000  0.28385417  1.0
  Ni  Ni410  1  0.35416667  0.95833333  0.28385417  1.0
  Ni  Ni411  1  0.68750000  0.29166667  0.28385417  1.0
  Ni  Ni412  1  0.68750000  0.62500000  0.28385417  1.0
  Ni  Ni413  1  0.68750000  0.95833333  0.28385417  1.0
  Ni  Ni414  1  0.18750000  0.29166667  0.28385417  1.0
  Ni  Ni415  1  0.18750000  0.62500000  0.28385417  1.0
  Ni  Ni416  1  0.18750000  0.95833333  0.28385417  1.0
  Ni  Ni417  1  0.52083333  0.29166667  0.28385417  1.0
  Ni  Ni418  1  0.52083333  0.62500000  0.28385417  1.0
  Ni  Ni419  1  0.52083333  0.95833333  0.28385417  1.0
  Ni  Ni420  1  0.85416667  0.29166667  0.28385417  1.0
  Ni  Ni421  1  0.85416667  0.62500000  0.28385417  1.0
  Ni  Ni422  1  0.85416667  0.95833333  0.28385417  1.0
  Ni  Ni423  1  0.02083333  0.29166667  0.32552083  1.0
  Ni  Ni424  1  0.02083333  0.62500000  0.32552083  1.0
  Ni  Ni425  1  0.02083333  0.95833333  0.32552083  1.0
  Ni  Ni426  1  0.35416667  0.29166667  0.32552083  1.0
  Ni  Ni427  1  0.35416667  0.62500000  0.32552083  1.0
  Ni  Ni428  1  0.35416667  0.95833333  0.32552083  1.0
  Ni  Ni429  1  0.68750000  0.29166667  0.32552083  1.0
  Ni  Ni430  1  0.68750000  0.62500000  0.32552083  1.0
  Ni  Ni431  1  0.68750000  0.95833333  0.32552083  1.0
  Sc  Sc432  1  0.29166667  0.08333333  0.34114583  1.0
  Sc  Sc433  1  0.29166667  0.41666667  0.34114583  1.0
  Sc  Sc434  1  0.29166667  0.75000000  0.34114583  1.0
  Sc  Sc435  1  0.62500000  0.08333333  0.34114583  1.0
  Sc  Sc436  1  0.62500000  0.41666667  0.34114583  1.0
  Sc  Sc437  1  0.62500000  0.75000000  0.34114583  1.0
  Sc  Sc438  1  0.95833333  0.08333333  0.34114583  1.0
  Sc  Sc439  1  0.95833333  0.41666667  0.34114583  1.0
  Sc  Sc440  1  0.95833333  0.75000000  0.34114583  1.0
  Sc  Sc441  1  0.12500000  0.08333333  0.38281250  1.0
  Sc  Sc442  1  0.12500000  0.41666667  0.38281250  1.0
  Sc  Sc443  1  0.12500000  0.75000000  0.38281250  1.0
  Sc  Sc444  1  0.45833333  0.08333333  0.38281250  1.0
  Sc  Sc445  1  0.45833333  0.41666667  0.38281250  1.0
  Sc  Sc446  1  0.45833333  0.75000000  0.38281250  1.0
  Sc  Sc447  1  0.79166667  0.08333333  0.38281250  1.0
  Sc  Sc448  1  0.79166667  0.41666667  0.38281250  1.0
  Sc  Sc449  1  0.79166667  0.75000000  0.38281250  1.0
  Sc  Sc450  1  0.25000000  0.16666667  0.35156250  1.0
  Sc  Sc451  1  0.25000000  0.50000000  0.35156250  1.0
  Sc  Sc452  1  0.25000000  0.83333333  0.35156250  1.0
  Sc  Sc453  1  0.58333333  0.16666667  0.35156250  1.0
  Sc  Sc454  1  0.58333333  0.50000000  0.35156250  1.0
  Sc  Sc455  1  0.58333333  0.83333333  0.35156250  1.0
  Sc  Sc456  1  0.91666667  0.16666667  0.35156250  1.0
  Sc  Sc457  1  0.91666667  0.50000000  0.35156250  1.0
  Sc  Sc458  1  0.91666667  0.83333333  0.35156250  1.0
  Sc  Sc459  1  0.08333333  0.16666667  0.39322917  1.0
  Sc  Sc460  1  0.08333333  0.50000000  0.39322917  1.0
  Sc  Sc461  1  0.08333333  0.83333333  0.39322917  1.0
  Sc  Sc462  1  0.41666667  0.16666667  0.39322917  1.0
  Sc  Sc463  1  0.41666667  0.50000000  0.39322917  1.0
  Sc  Sc464  1  0.41666667  0.83333333  0.39322917  1.0
  Sc  Sc465  1  0.75000000  0.16666667  0.39322917  1.0
  Sc  Sc466  1  0.75000000  0.50000000  0.39322917  1.0
  Sc  Sc467  1  0.75000000  0.83333333  0.39322917  1.0
  Ni  Ni468  1  0.18750000  0.12500000  0.40885417  1.0
  Ni  Ni469  1  0.18750000  0.45833333  0.40885417  1.0
  Ni  Ni470  1  0.18750000  0.79166667  0.40885417  1.0
  Ni  Ni471  1  0.52083333  0.12500000  0.40885417  1.0
  Ni  Ni472  1  0.52083333  0.45833333  0.40885417  1.0
  Ni  Ni473  1  0.52083333  0.79166667  0.40885417  1.0
  Ni  Ni474  1  0.85416667  0.12500000  0.40885417  1.0
  Ni  Ni475  1  0.85416667  0.45833333  0.40885417  1.0
  Ni  Ni476  1  0.85416667  0.79166667  0.40885417  1.0
  Ni  Ni477  1  0.02083333  0.12500000  0.36718750  1.0
  Ni  Ni478  1  0.02083333  0.45833333  0.36718750  1.0
  Ni  Ni479  1  0.02083333  0.79166667  0.36718750  1.0
  Ni  Ni480  1  0.35416667  0.12500000  0.36718750  1.0
  Ni  Ni481  1  0.35416667  0.45833333  0.36718750  1.0
  Ni  Ni482  1  0.35416667  0.79166667  0.36718750  1.0
  Ni  Ni483  1  0.68750000  0.12500000  0.36718750  1.0
  Ni  Ni484  1  0.68750000  0.45833333  0.36718750  1.0
  Ni  Ni485  1  0.68750000  0.79166667  0.36718750  1.0
  Ni  Ni486  1  0.27083333  0.29166667  0.34635417  1.0
  Ni  Ni487  1  0.27083333  0.62500000  0.34635417  1.0
  Ni  Ni488  1  0.27083333  0.95833333  0.34635417  1.0
  Ni  Ni489  1  0.60416667  0.29166667  0.34635417  1.0
  Ni  Ni490  1  0.60416667  0.62500000  0.34635417  1.0
  Ni  Ni491  1  0.60416667  0.95833333  0.34635417  1.0
  Ni  Ni492  1  0.93750000  0.29166667  0.34635417  1.0
  Ni  Ni493  1  0.93750000  0.62500000  0.34635417  1.0
  Ni  Ni494  1  0.93750000  0.95833333  0.34635417  1.0
  Ni  Ni495  1  0.10416667  0.29166667  0.38802083  1.0
  Ni  Ni496  1  0.10416667  0.62500000  0.38802083  1.0
  Ni  Ni497  1  0.10416667  0.95833333  0.38802083  1.0
  Ni  Ni498  1  0.43750000  0.29166667  0.38802083  1.0
  Ni  Ni499  1  0.43750000  0.62500000  0.38802083  1.0
  Ni  Ni500  1  0.43750000  0.95833333  0.38802083  1.0
  Ni  Ni501  1  0.77083333  0.29166667  0.38802083  1.0
  Ni  Ni502  1  0.77083333  0.62500000  0.38802083  1.0
  Ni  Ni503  1  0.77083333  0.95833333  0.38802083  1.0
  Ni  Ni504  1  0.18750000  0.29166667  0.40885417  1.0
  Ni  Ni505  1  0.18750000  0.62500000  0.40885417  1.0
  Ni  Ni506  1  0.18750000  0.95833333  0.40885417  1.0
  Ni  Ni507  1  0.52083333  0.29166667  0.40885417  1.0
  Ni  Ni508  1  0.52083333  0.62500000  0.40885417  1.0
  Ni  Ni509  1  0.52083333  0.95833333  0.40885417  1.0
  Ni  Ni510  1  0.85416667  0.29166667  0.40885417  1.0
  Ni  Ni511  1  0.85416667  0.62500000  0.40885417  1.0
  Ni  Ni512  1  0.85416667  0.95833333  0.40885417  1.0
  Ni  Ni513  1  0.02083333  0.29166667  0.36718750  1.0
  Ni  Ni514  1  0.02083333  0.62500000  0.36718750  1.0
  Ni  Ni515  1  0.02083333  0.95833333  0.36718750  1.0
  Ni  Ni516  1  0.35416667  0.29166667  0.36718750  1.0
  Ni  Ni517  1  0.35416667  0.62500000  0.36718750  1.0
  Ni  Ni518  1  0.35416667  0.95833333  0.36718750  1.0
  Ni  Ni519  1  0.68750000  0.29166667  0.36718750  1.0
  Ni  Ni520  1  0.68750000  0.62500000  0.36718750  1.0
  Ni  Ni521  1  0.68750000  0.95833333  0.36718750  1.0
  Ni  Ni522  1  0.18750000  0.29166667  0.36718750  1.0
  Ni  Ni523  1  0.18750000  0.62500000  0.36718750  1.0
  Ni  Ni524  1  0.18750000  0.95833333  0.36718750  1.0
  Ni  Ni525  1  0.52083333  0.29166667  0.36718750  1.0
  Ni  Ni526  1  0.52083333  0.62500000  0.36718750  1.0
  Ni  Ni527  1  0.52083333  0.95833333  0.36718750  1.0
  Ni  Ni528  1  0.85416667  0.29166667  0.36718750  1.0
  Ni  Ni529  1  0.85416667  0.62500000  0.36718750  1.0
  Ni  Ni530  1  0.85416667  0.95833333  0.36718750  1.0
  Ni  Ni531  1  0.02083333  0.29166667  0.40885417  1.0
  Ni  Ni532  1  0.02083333  0.62500000  0.40885417  1.0
  Ni  Ni533  1  0.02083333  0.95833333  0.40885417  1.0
  Ni  Ni534  1  0.35416667  0.29166667  0.40885417  1.0
  Ni  Ni535  1  0.35416667  0.62500000  0.40885417  1.0
  Ni  Ni536  1  0.35416667  0.95833333  0.40885417  1.0
  Ni  Ni537  1  0.68750000  0.29166667  0.40885417  1.0
  Ni  Ni538  1  0.68750000  0.62500000  0.40885417  1.0
  Ni  Ni539  1  0.68750000  0.95833333  0.40885417  1.0
