# generated using pymatgen
data_ScNi
_symmetry_space_group_name_H-M   'P 1'
_cell_length_a   13.43522966
_cell_length_b   16.45472862
_cell_length_c   25.92067122
_cell_angle_alpha   94.04469124
_cell_angle_beta   90.00000000
_cell_angle_gamma   90.00000000
_symmetry_Int_Tables_number   1
_chemical_formula_structural   ScNi
_chemical_formula_sum   'Sc72 Ni72'
_cell_volume   5716.08964716
_cell_formula_units_Z   72
loop_
 _symmetry_equiv_pos_site_id
 _symmetry_equiv_pos_as_xyz
  1  'x, y, z'
loop_
 _atom_site_type_symbol
 _atom_site_label
 _atom_site_symmetry_multiplicity
 _atom_site_fract_x
 _atom_site_fract_y
 _atom_site_fract_z
 _atom_site_occupancy
  Ni  Ni0  1  0.00000000  0.07500000  0.92500000  1.0
  Ni  Ni1  1  0.00000000  0.40833333  0.92500000  1.0
  Ni  Ni2  1  0.00000000  0.74166667  0.92500000  1.0
  Ni  Ni3  1  0.33333333  0.07500000  0.92500000  1.0
  Ni  Ni4  1  0.33333333  0.40833333  0.92500000  1.0
  Ni  Ni5  1  0.33333333  0.74166667  0.92500000  1.0
  Ni  Ni6  1  0.66666667  0.07500000  0.92500000  1.0
  Ni  Ni7  1  0.66666667  0.40833333  0.92500000  1.0
  Ni  Ni8  1  0.66666667  0.74166667  0.92500000  1.0
  Ni  Ni9  1  0.16666667  0.19166667  0.97500000  1.0
  Ni  Ni10  1  0.16666667  0.52500000  0.97500000  1.0
  Ni  Ni11  1  0.16666667  0.85833333  0.97500000  1.0
  Ni  Ni12  1  0.50000000  0.19166667  0.97500000  1.0
  Ni  Ni13  1  0.50000000  0.52500000  0.97500000  1.0
  Ni  Ni14  1  0.50000000  0.85833333  0.97500000  1.0
  Ni  Ni15  1  0.83333333  0.19166667  0.97500000  1.0
  Ni  Ni16  1  0.83333333  0.52500000  0.97500000  1.0
  Ni  Ni17  1  0.83333333  0.85833333  0.97500000  1.0
  Ni  Ni18  1  0.33333333  0.17500000  0.82500000  1.0
  Ni  Ni19  1  0.33333333  0.50833333  0.82500000  1.0
  Ni  Ni20  1  0.33333333  0.84166667  0.82500000  1.0
  Ni  Ni21  1  0.66666667  0.17500000  0.82500000  1.0
  Ni  Ni22  1  0.66666667  0.50833333  0.82500000  1.0
  Ni  Ni23  1  0.66666667  0.84166667  0.82500000  1.0
  Ni  Ni24  1  0.00000000  0.17500000  0.82500000  1.0
  Ni  Ni25  1  1.00000000  0.50833333  0.82500000  1.0
  Ni  Ni26  1  0.00000000  0.84166667  0.82500000  1.0
  Ni  Ni27  1  0.16666667  0.29166667  0.87500000  1.0
  Ni  Ni28  1  0.16666667  0.62500000  0.87500000  1.0
  Ni  Ni29  1  0.16666667  0.95833333  0.87500000  1.0
  Ni  Ni30  1  0.50000000  0.29166667  0.87500000  1.0
  Ni  Ni31  1  0.50000000  0.62500000  0.87500000  1.0
  Ni  Ni32  1  0.50000000  0.95833333  0.87500000  1.0
  Ni  Ni33  1  0.83333333  0.29166667  0.87500000  1.0
  Ni  Ni34  1  0.83333333  0.62500000  0.87500000  1.0
  Ni  Ni35  1  0.83333333  0.95833333  0.87500000  1.0
  Ni  Ni36  1  0.00000000  0.27500000  0.72500000  1.0
  Ni  Ni37  1  0.00000000  0.60833333  0.72500000  1.0
  Ni  Ni38  1  0.00000000  0.94166667  0.72500000  1.0
  Ni  Ni39  1  0.33333333  0.27500000  0.72500000  1.0
  Ni  Ni40  1  0.33333333  0.60833333  0.72500000  1.0
  Ni  Ni41  1  0.33333333  0.94166667  0.72500000  1.0
  Ni  Ni42  1  0.66666667  0.27500000  0.72500000  1.0
  Ni  Ni43  1  0.66666667  0.60833333  0.72500000  1.0
  Ni  Ni44  1  0.66666667  0.94166667  0.72500000  1.0
  Ni  Ni45  1  0.16666667  0.05833333  0.77500000  1.0
  Ni  Ni46  1  0.16666667  0.39166667  0.77500000  1.0
  Ni  Ni47  1  0.16666667  0.72500000  0.77500000  1.0
  Ni  Ni48  1  0.50000000  0.05833333  0.77500000  1.0
  Ni  Ni49  1  0.50000000  0.39166667  0.77500000  1.0
  Ni  Ni50  1  0.50000000  0.72500000  0.77500000  1.0
  Ni  Ni51  1  0.83333333  0.05833333  0.77500000  1.0
  Ni  Ni52  1  0.83333333  0.39166667  0.77500000  1.0
  Ni  Ni53  1  0.83333333  0.72500000  0.77500000  1.0
  Ni  Ni54  1  0.33333333  0.04166667  0.62500000  1.0
  Ni  Ni55  1  0.33333333  0.37500000  0.62500000  1.0
  Ni  Ni56  1  0.33333333  0.70833333  0.62500000  1.0
  Ni  Ni57  1  0.66666667  0.04166667  0.62500000  1.0
  Ni  Ni58  1  0.66666667  0.37500000  0.62500000  1.0
  Ni  Ni59  1  0.66666667  0.70833333  0.62500000  1.0
  Ni  Ni60  1  1.00000000  0.04166667  0.62500000  1.0
  Ni  Ni61  1  1.00000000  0.37500000  0.62500000  1.0
  Ni  Ni62  1  1.00000000  0.70833333  0.62500000  1.0
  Ni  Ni63  1  0.16666667  0.15833333  0.67500000  1.0
  Ni  Ni64  1  0.16666667  0.49166667  0.67500000  1.0
  Ni  Ni65  1  0.16666667  0.82500000  0.67500000  1.0
  Ni  Ni66  1  0.50000000  0.15833333  0.67500000  1.0
  Ni  Ni67  1  0.50000000  0.49166667  0.67500000  1.0
  Ni  Ni68  1  0.50000000  0.82500000  0.67500000  1.0
  Ni  Ni69  1  0.83333333  0.15833333  0.67500000  1.0
  Ni  Ni70  1  0.83333333  0.49166667  0.67500000  1.0
  Ni  Ni71  1  0.83333333  0.82500000  0.67500000  1.0
  Sc  Sc72  1  0.33333333  0.24166667  0.92500000  1.0
  Sc  Sc73  1  0.33333333  0.57500000  0.92500000  1.0
  Sc  Sc74  1  0.33333333  0.90833333  0.92500000  1.0
  Sc  Sc75  1  0.66666667  0.24166667  0.92500000  1.0
  Sc  Sc76  1  0.66666667  0.57500000  0.92500000  1.0
  Sc  Sc77  1  0.66666667  0.90833333  0.92500000  1.0
  Sc  Sc78  1  0.00000000  0.24166667  0.92500000  1.0
  Sc  Sc79  1  1.00000000  0.57500000  0.92500000  1.0
  Sc  Sc80  1  1.00000000  0.90833333  0.92500000  1.0
  Sc  Sc81  1  0.16666667  0.02500000  0.97500000  1.0
  Sc  Sc82  1  0.16666667  0.35833333  0.97500000  1.0
  Sc  Sc83  1  0.16666667  0.69166667  0.97500000  1.0
  Sc  Sc84  1  0.50000000  0.02500000  0.97500000  1.0
  Sc  Sc85  1  0.50000000  0.35833333  0.97500000  1.0
  Sc  Sc86  1  0.50000000  0.69166667  0.97500000  1.0
  Sc  Sc87  1  0.83333333  0.02500000  0.97500000  1.0
  Sc  Sc88  1  0.83333333  0.35833333  0.97500000  1.0
  Sc  Sc89  1  0.83333333  0.69166667  0.97500000  1.0
  Sc  Sc90  1  0.33333333  0.00833333  0.82500000  1.0
  Sc  Sc91  1  0.33333333  0.34166667  0.82500000  1.0
  Sc  Sc92  1  0.33333333  0.67500000  0.82500000  1.0
  Sc  Sc93  1  0.66666667  0.00833333  0.82500000  1.0
  Sc  Sc94  1  0.66666667  0.34166667  0.82500000  1.0
  Sc  Sc95  1  0.66666667  0.67500000  0.82500000  1.0
  Sc  Sc96  1  1.00000000  0.00833333  0.82500000  1.0
  Sc  Sc97  1  1.00000000  0.34166667  0.82500000  1.0
  Sc  Sc98  1  1.00000000  0.67500000  0.82500000  1.0
  Sc  Sc99  1  0.16666667  0.12500000  0.87500000  1.0
  Sc  Sc100  1  0.16666667  0.45833333  0.87500000  1.0
  Sc  Sc101  1  0.16666667  0.79166667  0.87500000  1.0
  Sc  Sc102  1  0.50000000  0.12500000  0.87500000  1.0
  Sc  Sc103  1  0.50000000  0.45833333  0.87500000  1.0
  Sc  Sc104  1  0.50000000  0.79166667  0.87500000  1.0
  Sc  Sc105  1  0.83333333  0.12500000  0.87500000  1.0
  Sc  Sc106  1  0.83333333  0.45833333  0.87500000  1.0
  Sc  Sc107  1  0.83333333  0.79166667  0.87500000  1.0
  Sc  Sc108  1  0.33333333  0.10833333  0.72500000  1.0
  Sc  Sc109  1  0.33333333  0.44166667  0.72500000  1.0
  Sc  Sc110  1  0.33333333  0.77500000  0.72500000  1.0
  Sc  Sc111  1  0.66666667  0.10833333  0.72500000  1.0
  Sc  Sc112  1  0.66666667  0.44166667  0.72500000  1.0
  Sc  Sc113  1  0.66666667  0.77500000  0.72500000  1.0
  Sc  Sc114  1  1.00000000  0.10833333  0.72500000  1.0
  Sc  Sc115  1  1.00000000  0.44166667  0.72500000  1.0
  Sc  Sc116  1  1.00000000  0.77500000  0.72500000  1.0
  Sc  Sc117  1  0.16666667  0.22500000  0.77500000  1.0
  Sc  Sc118  1  0.16666667  0.55833333  0.77500000  1.0
  Sc  Sc119  1  0.16666667  0.89166667  0.77500000  1.0
  Sc  Sc120  1  0.50000000  0.22500000  0.77500000  1.0
  Sc  Sc121  1  0.50000000  0.55833333  0.77500000  1.0
  Sc  Sc122  1  0.50000000  0.89166667  0.77500000  1.0
  Sc  Sc123  1  0.83333333  0.22500000  0.77500000  1.0
  Sc  Sc124  1  0.83333333  0.55833333  0.77500000  1.0
  Sc  Sc125  1  0.83333333  0.89166667  0.77500000  1.0
  Sc  Sc126  1  0.33333333  0.20833333  0.62500000  1.0
  Sc  Sc127  1  0.33333333  0.54166667  0.62500000  1.0
  Sc  Sc128  1  0.33333333  0.87500000  0.62500000  1.0
  Sc  Sc129  1  0.66666667  0.20833333  0.62500000  1.0
  Sc  Sc130  1  0.66666667  0.54166667  0.62500000  1.0
  Sc  Sc131  1  0.66666667  0.87500000  0.62500000  1.0
  Sc  Sc132  1  0.00000000  0.20833333  0.62500000  1.0
  Sc  Sc133  1  1.00000000  0.54166667  0.62500000  1.0
  Sc  Sc134  1  1.00000000  0.87500000  0.62500000  1.0
  Sc  Sc135  1  0.16666667  0.32500000  0.67500000  1.0
  Sc  Sc136  1  0.16666667  0.65833333  0.67500000  1.0
  Sc  Sc137  1  0.16666667  0.99166667  0.67500000  1.0
  Sc  Sc138  1  0.50000000  0.32500000  0.67500000  1.0
  Sc  Sc139  1  0.50000000  0.65833333  0.67500000  1.0
  Sc  Sc140  1  0.50000000  0.99166667  0.67500000  1.0
  Sc  Sc141  1  0.83333333  0.32500000  0.67500000  1.0
  Sc  Sc142  1  0.83333333  0.65833333  0.67500000  1.0
  Sc  Sc143  1  0.83333333  0.99166667  0.67500000  1.0
