# generated using pymatgen
data_ScNi3
_symmetry_space_group_name_H-M   'P 1'
_cell_length_a   27.54835587
_cell_length_b   29.90943275
_cell_length_c   53.01683560
_cell_angle_alpha   74.58034282
_cell_angle_beta   30.00000000
_cell_angle_gamma   62.57871560
_symmetry_Int_Tables_number   1
_chemical_formula_structural   ScNi3
_chemical_formula_sum   'Sc144 Ni432'
_cell_volume   18497.49267083
_cell_formula_units_Z   144
loop_
 _symmetry_equiv_pos_site_id
 _symmetry_equiv_pos_as_xyz
  1  'x, y, z'
loop_
 _atom_site_type_symbol
 _atom_site_label
 _atom_site_symmetry_multiplicity
 _atom_site_fract_x
 _atom_site_fract_y
 _atom_site_fract_z
 _atom_site_occupancy
  Sc  Sc0  1  0.23611111  0.20833333  0.03750000  1.0
  Sc  Sc1  1  0.23611111  0.54166667  0.03750000  1.0
  Sc  Sc2  1  0.23611111  0.87500000  0.03750000  1.0
  Sc  Sc3  1  0.56944444  0.20833333  0.03750000  1.0
  Sc  Sc4  1  0.56944444  0.54166667  0.03750000  1.0
  Sc  Sc5  1  0.56944444  0.87500000  0.03750000  1.0
  Sc  Sc6  1  0.90277778  0.20833333  0.03750000  1.0
  Sc  Sc7  1  0.90277778  0.54166667  0.03750000  1.0
  Sc  Sc8  1  0.90277778  0.87500000  0.03750000  1.0
  Sc  Sc9  1  0.06944444  0.04166667  0.08750000  1.0
  Sc  Sc10  1  0.06944444  0.37500000  0.08750000  1.0
  Sc  Sc11  1  0.06944444  0.70833333  0.08750000  1.0
  Sc  Sc12  1  0.40277778  0.04166667  0.08750000  1.0
  Sc  Sc13  1  0.40277778  0.37500000  0.08750000  1.0
  Sc  Sc14  1  0.40277778  0.70833333  0.08750000  1.0
  Sc  Sc15  1  0.73611111  0.04166667  0.08750000  1.0
  Sc  Sc16  1  0.73611111  0.37500000  0.08750000  1.0
  Sc  Sc17  1  0.73611111  0.70833333  0.08750000  1.0
  Sc  Sc18  1  0.26388889  0.29166667  0.06250000  1.0
  Sc  Sc19  1  0.26388889  0.62500000  0.06250000  1.0
  Sc  Sc20  1  0.26388889  0.95833333  0.06250000  1.0
  Sc  Sc21  1  0.59722222  0.29166667  0.06250000  1.0
  Sc  Sc22  1  0.59722222  0.62500000  0.06250000  1.0
  Sc  Sc23  1  0.59722222  0.95833333  0.06250000  1.0
  Sc  Sc24  1  0.93055556  0.29166667  0.06250000  1.0
  Sc  Sc25  1  0.93055556  0.62500000  0.06250000  1.0
  Sc  Sc26  1  0.93055556  0.95833333  0.06250000  1.0
  Sc  Sc27  1  0.09722222  0.12500000  0.01250000  1.0
  Sc  Sc28  1  0.09722222  0.45833333  0.01250000  1.0
  Sc  Sc29  1  0.09722222  0.79166667  0.01250000  1.0
  Sc  Sc30  1  0.43055556  0.12500000  0.01250000  1.0
  Sc  Sc31  1  0.43055556  0.45833333  0.01250000  1.0
  Sc  Sc32  1  0.43055556  0.79166667  0.01250000  1.0
  Sc  Sc33  1  0.76388889  0.12500000  0.01250000  1.0
  Sc  Sc34  1  0.76388889  0.45833333  0.01250000  1.0
  Sc  Sc35  1  0.76388889  0.79166667  0.01250000  1.0
  Ni  Ni36  1  0.26990700  0.29166667  0.00979185  1.0
  Ni  Ni37  1  0.26990700  0.62500000  0.00979185  1.0
  Ni  Ni38  1  0.26990700  0.95833333  0.00979185  1.0
  Ni  Ni39  1  0.60324033  0.29166667  0.00979185  1.0
  Ni  Ni40  1  0.60324033  0.62500000  0.00979185  1.0
  Ni  Ni41  1  0.60324033  0.95833333  0.00979185  1.0
  Ni  Ni42  1  0.93657367  0.29166667  0.00979185  1.0
  Ni  Ni43  1  0.93657367  0.62500000  0.00979185  1.0
  Ni  Ni44  1  0.93657367  0.95833333  0.00979185  1.0
  Ni  Ni45  1  0.10324033  0.12500000  0.05979185  1.0
  Ni  Ni46  1  0.10324033  0.45833333  0.05979185  1.0
  Ni  Ni47  1  0.10324033  0.79166667  0.05979185  1.0
  Ni  Ni48  1  0.43657367  0.12500000  0.05979185  1.0
  Ni  Ni49  1  0.43657367  0.45833333  0.05979185  1.0
  Ni  Ni50  1  0.43657367  0.79166667  0.05979185  1.0
  Ni  Ni51  1  0.76990700  0.12500000  0.05979185  1.0
  Ni  Ni52  1  0.76990700  0.45833333  0.05979185  1.0
  Ni  Ni53  1  0.76990700  0.79166667  0.05979185  1.0
  Ni  Ni54  1  0.09421317  0.29166667  0.06250000  1.0
  Ni  Ni55  1  0.09421317  0.62500000  0.06250000  1.0
  Ni  Ni56  1  0.09421317  0.95833333  0.06250000  1.0
  Ni  Ni57  1  0.42754650  0.29166667  0.06250000  1.0
  Ni  Ni58  1  0.42754650  0.62500000  0.06250000  1.0
  Ni  Ni59  1  0.42754650  0.95833333  0.06250000  1.0
  Ni  Ni60  1  0.76087983  0.29166667  0.06250000  1.0
  Ni  Ni61  1  0.76087983  0.62500000  0.06250000  1.0
  Ni  Ni62  1  0.76087983  0.95833333  0.06250000  1.0
  Ni  Ni63  1  0.26087983  0.12500000  0.01250000  1.0
  Ni  Ni64  1  0.26087983  0.45833333  0.01250000  1.0
  Ni  Ni65  1  0.26087983  0.79166667  0.01250000  1.0
  Ni  Ni66  1  0.59421317  0.12500000  0.01250000  1.0
  Ni  Ni67  1  0.59421317  0.45833333  0.01250000  1.0
  Ni  Ni68  1  0.59421317  0.79166667  0.01250000  1.0
  Ni  Ni69  1  0.92754650  0.12500000  0.01250000  1.0
  Ni  Ni70  1  0.92754650  0.45833333  0.01250000  1.0
  Ni  Ni71  1  0.92754650  0.79166667  0.01250000  1.0
  Ni  Ni72  1  0.09421317  0.29166667  0.01520815  1.0
  Ni  Ni73  1  0.09421317  0.62500000  0.01520815  1.0
  Ni  Ni74  1  0.09421317  0.95833333  0.01520815  1.0
  Ni  Ni75  1  0.42754650  0.29166667  0.01520815  1.0
  Ni  Ni76  1  0.42754650  0.62500000  0.01520815  1.0
  Ni  Ni77  1  0.42754650  0.95833333  0.01520815  1.0
  Ni  Ni78  1  0.76087983  0.29166667  0.01520815  1.0
  Ni  Ni79  1  0.76087983  0.62500000  0.01520815  1.0
  Ni  Ni80  1  0.76087983  0.95833333  0.01520815  1.0
  Ni  Ni81  1  0.26087983  0.12500000  0.06520815  1.0
  Ni  Ni82  1  0.26087983  0.45833333  0.06520815  1.0
  Ni  Ni83  1  0.26087983  0.79166667  0.06520815  1.0
  Ni  Ni84  1  0.59421317  0.12500000  0.06520815  1.0
  Ni  Ni85  1  0.59421317  0.45833333  0.06520815  1.0
  Ni  Ni86  1  0.59421317  0.79166667  0.06520815  1.0
  Ni  Ni87  1  0.92754650  0.12500000  0.06520815  1.0
  Ni  Ni88  1  0.92754650  0.45833333  0.06520815  1.0
  Ni  Ni89  1  0.92754650  0.79166667  0.06520815  1.0
  Ni  Ni90  1  0.23009300  0.20833333  0.09020815  1.0
  Ni  Ni91  1  0.23009300  0.54166667  0.09020815  1.0
  Ni  Ni92  1  0.23009300  0.87500000  0.09020815  1.0
  Ni  Ni93  1  0.56342633  0.20833333  0.09020815  1.0
  Ni  Ni94  1  0.56342633  0.54166667  0.09020815  1.0
  Ni  Ni95  1  0.56342633  0.87500000  0.09020815  1.0
  Ni  Ni96  1  0.89675967  0.20833333  0.09020815  1.0
  Ni  Ni97  1  0.89675967  0.54166667  0.09020815  1.0
  Ni  Ni98  1  0.89675967  0.87500000  0.09020815  1.0
  Ni  Ni99  1  0.06342633  0.04166667  0.04020815  1.0
  Ni  Ni100  1  0.06342633  0.37500000  0.04020815  1.0
  Ni  Ni101  1  0.06342633  0.70833333  0.04020815  1.0
  Ni  Ni102  1  0.39675967  0.04166667  0.04020815  1.0
  Ni  Ni103  1  0.39675967  0.37500000  0.04020815  1.0
  Ni  Ni104  1  0.39675967  0.70833333  0.04020815  1.0
  Ni  Ni105  1  0.73009300  0.04166667  0.04020815  1.0
  Ni  Ni106  1  0.73009300  0.37500000  0.04020815  1.0
  Ni  Ni107  1  0.73009300  0.70833333  0.04020815  1.0
  Ni  Ni108  1  0.07245350  0.20833333  0.03750000  1.0
  Ni  Ni109  1  0.07245350  0.54166667  0.03750000  1.0
  Ni  Ni110  1  0.07245350  0.87500000  0.03750000  1.0
  Ni  Ni111  1  0.40578683  0.20833333  0.03750000  1.0
  Ni  Ni112  1  0.40578683  0.54166667  0.03750000  1.0
  Ni  Ni113  1  0.40578683  0.87500000  0.03750000  1.0
  Ni  Ni114  1  0.73912017  0.20833333  0.03750000  1.0
  Ni  Ni115  1  0.73912017  0.54166667  0.03750000  1.0
  Ni  Ni116  1  0.73912017  0.87500000  0.03750000  1.0
  Ni  Ni117  1  0.23912017  0.04166667  0.08750000  1.0
  Ni  Ni118  1  0.23912017  0.37500000  0.08750000  1.0
  Ni  Ni119  1  0.23912017  0.70833333  0.08750000  1.0
  Ni  Ni120  1  0.57245350  0.04166667  0.08750000  1.0
  Ni  Ni121  1  0.57245350  0.37500000  0.08750000  1.0
  Ni  Ni122  1  0.57245350  0.70833333  0.08750000  1.0
  Ni  Ni123  1  0.90578683  0.04166667  0.08750000  1.0
  Ni  Ni124  1  0.90578683  0.37500000  0.08750000  1.0
  Ni  Ni125  1  0.90578683  0.70833333  0.08750000  1.0
  Ni  Ni126  1  0.07245350  0.20833333  0.08479185  1.0
  Ni  Ni127  1  0.07245350  0.54166667  0.08479185  1.0
  Ni  Ni128  1  0.07245350  0.87500000  0.08479185  1.0
  Ni  Ni129  1  0.40578683  0.20833333  0.08479185  1.0
  Ni  Ni130  1  0.40578683  0.54166667  0.08479185  1.0
  Ni  Ni131  1  0.40578683  0.87500000  0.08479185  1.0
  Ni  Ni132  1  0.73912017  0.20833333  0.08479185  1.0
  Ni  Ni133  1  0.73912017  0.54166667  0.08479185  1.0
  Ni  Ni134  1  0.73912017  0.87500000  0.08479185  1.0
  Ni  Ni135  1  0.23912017  0.04166667  0.03479185  1.0
  Ni  Ni136  1  0.23912017  0.37500000  0.03479185  1.0
  Ni  Ni137  1  0.23912017  0.70833333  0.03479185  1.0
  Ni  Ni138  1  0.57245350  0.04166667  0.03479185  1.0
  Ni  Ni139  1  0.57245350  0.37500000  0.03479185  1.0
  Ni  Ni140  1  0.57245350  0.70833333  0.03479185  1.0
  Ni  Ni141  1  0.90578683  0.04166667  0.03479185  1.0
  Ni  Ni142  1  0.90578683  0.37500000  0.03479185  1.0
  Ni  Ni143  1  0.90578683  0.70833333  0.03479185  1.0
  Sc  Sc144  1  0.23611111  0.20833333  0.13750000  1.0
  Sc  Sc145  1  0.23611111  0.54166667  0.13750000  1.0
  Sc  Sc146  1  0.23611111  0.87500000  0.13750000  1.0
  Sc  Sc147  1  0.56944444  0.20833333  0.13750000  1.0
  Sc  Sc148  1  0.56944444  0.54166667  0.13750000  1.0
  Sc  Sc149  1  0.56944444  0.87500000  0.13750000  1.0
  Sc  Sc150  1  0.90277778  0.20833333  0.13750000  1.0
  Sc  Sc151  1  0.90277778  0.54166667  0.13750000  1.0
  Sc  Sc152  1  0.90277778  0.87500000  0.13750000  1.0
  Sc  Sc153  1  0.06944444  0.04166667  0.18750000  1.0
  Sc  Sc154  1  0.06944444  0.37500000  0.18750000  1.0
  Sc  Sc155  1  0.06944444  0.70833333  0.18750000  1.0
  Sc  Sc156  1  0.40277778  0.04166667  0.18750000  1.0
  Sc  Sc157  1  0.40277778  0.37500000  0.18750000  1.0
  Sc  Sc158  1  0.40277778  0.70833333  0.18750000  1.0
  Sc  Sc159  1  0.73611111  0.04166667  0.18750000  1.0
  Sc  Sc160  1  0.73611111  0.37500000  0.18750000  1.0
  Sc  Sc161  1  0.73611111  0.70833333  0.18750000  1.0
  Sc  Sc162  1  0.26388889  0.29166667  0.16250000  1.0
  Sc  Sc163  1  0.26388889  0.62500000  0.16250000  1.0
  Sc  Sc164  1  0.26388889  0.95833333  0.16250000  1.0
  Sc  Sc165  1  0.59722222  0.29166667  0.16250000  1.0
  Sc  Sc166  1  0.59722222  0.62500000  0.16250000  1.0
  Sc  Sc167  1  0.59722222  0.95833333  0.16250000  1.0
  Sc  Sc168  1  0.93055556  0.29166667  0.16250000  1.0
  Sc  Sc169  1  0.93055556  0.62500000  0.16250000  1.0
  Sc  Sc170  1  0.93055556  0.95833333  0.16250000  1.0
  Sc  Sc171  1  0.09722222  0.12500000  0.11250000  1.0
  Sc  Sc172  1  0.09722222  0.45833333  0.11250000  1.0
  Sc  Sc173  1  0.09722222  0.79166667  0.11250000  1.0
  Sc  Sc174  1  0.43055556  0.12500000  0.11250000  1.0
  Sc  Sc175  1  0.43055556  0.45833333  0.11250000  1.0
  Sc  Sc176  1  0.43055556  0.79166667  0.11250000  1.0
  Sc  Sc177  1  0.76388889  0.12500000  0.11250000  1.0
  Sc  Sc178  1  0.76388889  0.45833333  0.11250000  1.0
  Sc  Sc179  1  0.76388889  0.79166667  0.11250000  1.0
  Ni  Ni180  1  0.26990700  0.29166667  0.10979185  1.0
  Ni  Ni181  1  0.26990700  0.62500000  0.10979185  1.0
  Ni  Ni182  1  0.26990700  0.95833333  0.10979185  1.0
  Ni  Ni183  1  0.60324033  0.29166667  0.10979185  1.0
  Ni  Ni184  1  0.60324033  0.62500000  0.10979185  1.0
  Ni  Ni185  1  0.60324033  0.95833333  0.10979185  1.0
  Ni  Ni186  1  0.93657367  0.29166667  0.10979185  1.0
  Ni  Ni187  1  0.93657367  0.62500000  0.10979185  1.0
  Ni  Ni188  1  0.93657367  0.95833333  0.10979185  1.0
  Ni  Ni189  1  0.10324033  0.12500000  0.15979185  1.0
  Ni  Ni190  1  0.10324033  0.45833333  0.15979185  1.0
  Ni  Ni191  1  0.10324033  0.79166667  0.15979185  1.0
  Ni  Ni192  1  0.43657367  0.12500000  0.15979185  1.0
  Ni  Ni193  1  0.43657367  0.45833333  0.15979185  1.0
  Ni  Ni194  1  0.43657367  0.79166667  0.15979185  1.0
  Ni  Ni195  1  0.76990700  0.12500000  0.15979185  1.0
  Ni  Ni196  1  0.76990700  0.45833333  0.15979185  1.0
  Ni  Ni197  1  0.76990700  0.79166667  0.15979185  1.0
  Ni  Ni198  1  0.09421317  0.29166667  0.16250000  1.0
  Ni  Ni199  1  0.09421317  0.62500000  0.16250000  1.0
  Ni  Ni200  1  0.09421317  0.95833333  0.16250000  1.0
  Ni  Ni201  1  0.42754650  0.29166667  0.16250000  1.0
  Ni  Ni202  1  0.42754650  0.62500000  0.16250000  1.0
  Ni  Ni203  1  0.42754650  0.95833333  0.16250000  1.0
  Ni  Ni204  1  0.76087983  0.29166667  0.16250000  1.0
  Ni  Ni205  1  0.76087983  0.62500000  0.16250000  1.0
  Ni  Ni206  1  0.76087983  0.95833333  0.16250000  1.0
  Ni  Ni207  1  0.26087983  0.12500000  0.11250000  1.0
  Ni  Ni208  1  0.26087983  0.45833333  0.11250000  1.0
  Ni  Ni209  1  0.26087983  0.79166667  0.11250000  1.0
  Ni  Ni210  1  0.59421317  0.12500000  0.11250000  1.0
  Ni  Ni211  1  0.59421317  0.45833333  0.11250000  1.0
  Ni  Ni212  1  0.59421317  0.79166667  0.11250000  1.0
  Ni  Ni213  1  0.92754650  0.12500000  0.11250000  1.0
  Ni  Ni214  1  0.92754650  0.45833333  0.11250000  1.0
  Ni  Ni215  1  0.92754650  0.79166667  0.11250000  1.0
  Ni  Ni216  1  0.09421317  0.29166667  0.11520815  1.0
  Ni  Ni217  1  0.09421317  0.62500000  0.11520815  1.0
  Ni  Ni218  1  0.09421317  0.95833333  0.11520815  1.0
  Ni  Ni219  1  0.42754650  0.29166667  0.11520815  1.0
  Ni  Ni220  1  0.42754650  0.62500000  0.11520815  1.0
  Ni  Ni221  1  0.42754650  0.95833333  0.11520815  1.0
  Ni  Ni222  1  0.76087983  0.29166667  0.11520815  1.0
  Ni  Ni223  1  0.76087983  0.62500000  0.11520815  1.0
  Ni  Ni224  1  0.76087983  0.95833333  0.11520815  1.0
  Ni  Ni225  1  0.26087983  0.12500000  0.16520815  1.0
  Ni  Ni226  1  0.26087983  0.45833333  0.16520815  1.0
  Ni  Ni227  1  0.26087983  0.79166667  0.16520815  1.0
  Ni  Ni228  1  0.59421317  0.12500000  0.16520815  1.0
  Ni  Ni229  1  0.59421317  0.45833333  0.16520815  1.0
  Ni  Ni230  1  0.59421317  0.79166667  0.16520815  1.0
  Ni  Ni231  1  0.92754650  0.12500000  0.16520815  1.0
  Ni  Ni232  1  0.92754650  0.45833333  0.16520815  1.0
  Ni  Ni233  1  0.92754650  0.79166667  0.16520815  1.0
  Ni  Ni234  1  0.23009300  0.20833333  0.19020815  1.0
  Ni  Ni235  1  0.23009300  0.54166667  0.19020815  1.0
  Ni  Ni236  1  0.23009300  0.87500000  0.19020815  1.0
  Ni  Ni237  1  0.56342633  0.20833333  0.19020815  1.0
  Ni  Ni238  1  0.56342633  0.54166667  0.19020815  1.0
  Ni  Ni239  1  0.56342633  0.87500000  0.19020815  1.0
  Ni  Ni240  1  0.89675967  0.20833333  0.19020815  1.0
  Ni  Ni241  1  0.89675967  0.54166667  0.19020815  1.0
  Ni  Ni242  1  0.89675967  0.87500000  0.19020815  1.0
  Ni  Ni243  1  0.06342633  0.04166667  0.14020815  1.0
  Ni  Ni244  1  0.06342633  0.37500000  0.14020815  1.0
  Ni  Ni245  1  0.06342633  0.70833333  0.14020815  1.0
  Ni  Ni246  1  0.39675967  0.04166667  0.14020815  1.0
  Ni  Ni247  1  0.39675967  0.37500000  0.14020815  1.0
  Ni  Ni248  1  0.39675967  0.70833333  0.14020815  1.0
  Ni  Ni249  1  0.73009300  0.04166667  0.14020815  1.0
  Ni  Ni250  1  0.73009300  0.37500000  0.14020815  1.0
  Ni  Ni251  1  0.73009300  0.70833333  0.14020815  1.0
  Ni  Ni252  1  0.07245350  0.20833333  0.13750000  1.0
  Ni  Ni253  1  0.07245350  0.54166667  0.13750000  1.0
  Ni  Ni254  1  0.07245350  0.87500000  0.13750000  1.0
  Ni  Ni255  1  0.40578683  0.20833333  0.13750000  1.0
  Ni  Ni256  1  0.40578683  0.54166667  0.13750000  1.0
  Ni  Ni257  1  0.40578683  0.87500000  0.13750000  1.0
  Ni  Ni258  1  0.73912017  0.20833333  0.13750000  1.0
  Ni  Ni259  1  0.73912017  0.54166667  0.13750000  1.0
  Ni  Ni260  1  0.73912017  0.87500000  0.13750000  1.0
  Ni  Ni261  1  0.23912017  0.04166667  0.18750000  1.0
  Ni  Ni262  1  0.23912017  0.37500000  0.18750000  1.0
  Ni  Ni263  1  0.23912017  0.70833333  0.18750000  1.0
  Ni  Ni264  1  0.57245350  0.04166667  0.18750000  1.0
  Ni  Ni265  1  0.57245350  0.37500000  0.18750000  1.0
  Ni  Ni266  1  0.57245350  0.70833333  0.18750000  1.0
  Ni  Ni267  1  0.90578683  0.04166667  0.18750000  1.0
  Ni  Ni268  1  0.90578683  0.37500000  0.18750000  1.0
  Ni  Ni269  1  0.90578683  0.70833333  0.18750000  1.0
  Ni  Ni270  1  0.07245350  0.20833333  0.18479185  1.0
  Ni  Ni271  1  0.07245350  0.54166667  0.18479185  1.0
  Ni  Ni272  1  0.07245350  0.87500000  0.18479185  1.0
  Ni  Ni273  1  0.40578683  0.20833333  0.18479185  1.0
  Ni  Ni274  1  0.40578683  0.54166667  0.18479185  1.0
  Ni  Ni275  1  0.40578683  0.87500000  0.18479185  1.0
  Ni  Ni276  1  0.73912017  0.20833333  0.18479185  1.0
  Ni  Ni277  1  0.73912017  0.54166667  0.18479185  1.0
  Ni  Ni278  1  0.73912017  0.87500000  0.18479185  1.0
  Ni  Ni279  1  0.23912017  0.04166667  0.13479185  1.0
  Ni  Ni280  1  0.23912017  0.37500000  0.13479185  1.0
  Ni  Ni281  1  0.23912017  0.70833333  0.13479185  1.0
  Ni  Ni282  1  0.57245350  0.04166667  0.13479185  1.0
  Ni  Ni283  1  0.57245350  0.37500000  0.13479185  1.0
  Ni  Ni284  1  0.57245350  0.70833333  0.13479185  1.0
  Ni  Ni285  1  0.90578683  0.04166667  0.13479185  1.0
  Ni  Ni286  1  0.90578683  0.37500000  0.13479185  1.0
  Ni  Ni287  1  0.90578683  0.70833333  0.13479185  1.0
  Sc  Sc288  1  0.23611111  0.20833333  0.23750000  1.0
  Sc  Sc289  1  0.23611111  0.54166667  0.23750000  1.0
  Sc  Sc290  1  0.23611111  0.87500000  0.23750000  1.0
  Sc  Sc291  1  0.56944444  0.20833333  0.23750000  1.0
  Sc  Sc292  1  0.56944444  0.54166667  0.23750000  1.0
  Sc  Sc293  1  0.56944444  0.87500000  0.23750000  1.0
  Sc  Sc294  1  0.90277778  0.20833333  0.23750000  1.0
  Sc  Sc295  1  0.90277778  0.54166667  0.23750000  1.0
  Sc  Sc296  1  0.90277778  0.87500000  0.23750000  1.0
  Sc  Sc297  1  0.06944444  0.04166667  0.28750000  1.0
  Sc  Sc298  1  0.06944444  0.37500000  0.28750000  1.0
  Sc  Sc299  1  0.06944444  0.70833333  0.28750000  1.0
  Sc  Sc300  1  0.40277778  0.04166667  0.28750000  1.0
  Sc  Sc301  1  0.40277778  0.37500000  0.28750000  1.0
  Sc  Sc302  1  0.40277778  0.70833333  0.28750000  1.0
  Sc  Sc303  1  0.73611111  0.04166667  0.28750000  1.0
  Sc  Sc304  1  0.73611111  0.37500000  0.28750000  1.0
  Sc  Sc305  1  0.73611111  0.70833333  0.28750000  1.0
  Sc  Sc306  1  0.26388889  0.29166667  0.26250000  1.0
  Sc  Sc307  1  0.26388889  0.62500000  0.26250000  1.0
  Sc  Sc308  1  0.26388889  0.95833333  0.26250000  1.0
  Sc  Sc309  1  0.59722222  0.29166667  0.26250000  1.0
  Sc  Sc310  1  0.59722222  0.62500000  0.26250000  1.0
  Sc  Sc311  1  0.59722222  0.95833333  0.26250000  1.0
  Sc  Sc312  1  0.93055556  0.29166667  0.26250000  1.0
  Sc  Sc313  1  0.93055556  0.62500000  0.26250000  1.0
  Sc  Sc314  1  0.93055556  0.95833333  0.26250000  1.0
  Sc  Sc315  1  0.09722222  0.12500000  0.21250000  1.0
  Sc  Sc316  1  0.09722222  0.45833333  0.21250000  1.0
  Sc  Sc317  1  0.09722222  0.79166667  0.21250000  1.0
  Sc  Sc318  1  0.43055556  0.12500000  0.21250000  1.0
  Sc  Sc319  1  0.43055556  0.45833333  0.21250000  1.0
  Sc  Sc320  1  0.43055556  0.79166667  0.21250000  1.0
  Sc  Sc321  1  0.76388889  0.12500000  0.21250000  1.0
  Sc  Sc322  1  0.76388889  0.45833333  0.21250000  1.0
  Sc  Sc323  1  0.76388889  0.79166667  0.21250000  1.0
  Ni  Ni324  1  0.26990700  0.29166667  0.20979185  1.0
  Ni  Ni325  1  0.26990700  0.62500000  0.20979185  1.0
  Ni  Ni326  1  0.26990700  0.95833333  0.20979185  1.0
  Ni  Ni327  1  0.60324033  0.29166667  0.20979185  1.0
  Ni  Ni328  1  0.60324033  0.62500000  0.20979185  1.0
  Ni  Ni329  1  0.60324033  0.95833333  0.20979185  1.0
  Ni  Ni330  1  0.93657367  0.29166667  0.20979185  1.0
  Ni  Ni331  1  0.93657367  0.62500000  0.20979185  1.0
  Ni  Ni332  1  0.93657367  0.95833333  0.20979185  1.0
  Ni  Ni333  1  0.10324033  0.12500000  0.25979185  1.0
  Ni  Ni334  1  0.10324033  0.45833333  0.25979185  1.0
  Ni  Ni335  1  0.10324033  0.79166667  0.25979185  1.0
  Ni  Ni336  1  0.43657367  0.12500000  0.25979185  1.0
  Ni  Ni337  1  0.43657367  0.45833333  0.25979185  1.0
  Ni  Ni338  1  0.43657367  0.79166667  0.25979185  1.0
  Ni  Ni339  1  0.76990700  0.12500000  0.25979185  1.0
  Ni  Ni340  1  0.76990700  0.45833333  0.25979185  1.0
  Ni  Ni341  1  0.76990700  0.79166667  0.25979185  1.0
  Ni  Ni342  1  0.09421317  0.29166667  0.26250000  1.0
  Ni  Ni343  1  0.09421317  0.62500000  0.26250000  1.0
  Ni  Ni344  1  0.09421317  0.95833333  0.26250000  1.0
  Ni  Ni345  1  0.42754650  0.29166667  0.26250000  1.0
  Ni  Ni346  1  0.42754650  0.62500000  0.26250000  1.0
  Ni  Ni347  1  0.42754650  0.95833333  0.26250000  1.0
  Ni  Ni348  1  0.76087983  0.29166667  0.26250000  1.0
  Ni  Ni349  1  0.76087983  0.62500000  0.26250000  1.0
  Ni  Ni350  1  0.76087983  0.95833333  0.26250000  1.0
  Ni  Ni351  1  0.26087983  0.12500000  0.21250000  1.0
  Ni  Ni352  1  0.26087983  0.45833333  0.21250000  1.0
  Ni  Ni353  1  0.26087983  0.79166667  0.21250000  1.0
  Ni  Ni354  1  0.59421317  0.12500000  0.21250000  1.0
  Ni  Ni355  1  0.59421317  0.45833333  0.21250000  1.0
  Ni  Ni356  1  0.59421317  0.79166667  0.21250000  1.0
  Ni  Ni357  1  0.92754650  0.12500000  0.21250000  1.0
  Ni  Ni358  1  0.92754650  0.45833333  0.21250000  1.0
  Ni  Ni359  1  0.92754650  0.79166667  0.21250000  1.0
  Ni  Ni360  1  0.09421317  0.29166667  0.21520815  1.0
  Ni  Ni361  1  0.09421317  0.62500000  0.21520815  1.0
  Ni  Ni362  1  0.09421317  0.95833333  0.21520815  1.0
  Ni  Ni363  1  0.42754650  0.29166667  0.21520815  1.0
  Ni  Ni364  1  0.42754650  0.62500000  0.21520815  1.0
  Ni  Ni365  1  0.42754650  0.95833333  0.21520815  1.0
  Ni  Ni366  1  0.76087983  0.29166667  0.21520815  1.0
  Ni  Ni367  1  0.76087983  0.62500000  0.21520815  1.0
  Ni  Ni368  1  0.76087983  0.95833333  0.21520815  1.0
  Ni  Ni369  1  0.26087983  0.12500000  0.26520815  1.0
  Ni  Ni370  1  0.26087983  0.45833333  0.26520815  1.0
  Ni  Ni371  1  0.26087983  0.79166667  0.26520815  1.0
  Ni  Ni372  1  0.59421317  0.12500000  0.26520815  1.0
  Ni  Ni373  1  0.59421317  0.45833333  0.26520815  1.0
  Ni  Ni374  1  0.59421317  0.79166667  0.26520815  1.0
  Ni  Ni375  1  0.92754650  0.12500000  0.26520815  1.0
  Ni  Ni376  1  0.92754650  0.45833333  0.26520815  1.0
  Ni  Ni377  1  0.92754650  0.79166667  0.26520815  1.0
  Ni  Ni378  1  0.23009300  0.20833333  0.29020815  1.0
  Ni  Ni379  1  0.23009300  0.54166667  0.29020815  1.0
  Ni  Ni380  1  0.23009300  0.87500000  0.29020815  1.0
  Ni  Ni381  1  0.56342633  0.20833333  0.29020815  1.0
  Ni  Ni382  1  0.56342633  0.54166667  0.29020815  1.0
  Ni  Ni383  1  0.56342633  0.87500000  0.29020815  1.0
  Ni  Ni384  1  0.89675967  0.20833333  0.29020815  1.0
  Ni  Ni385  1  0.89675967  0.54166667  0.29020815  1.0
  Ni  Ni386  1  0.89675967  0.87500000  0.29020815  1.0
  Ni  Ni387  1  0.06342633  0.04166667  0.24020815  1.0
  Ni  Ni388  1  0.06342633  0.37500000  0.24020815  1.0
  Ni  Ni389  1  0.06342633  0.70833333  0.24020815  1.0
  Ni  Ni390  1  0.39675967  0.04166667  0.24020815  1.0
  Ni  Ni391  1  0.39675967  0.37500000  0.24020815  1.0
  Ni  Ni392  1  0.39675967  0.70833333  0.24020815  1.0
  Ni  Ni393  1  0.73009300  0.04166667  0.24020815  1.0
  Ni  Ni394  1  0.73009300  0.37500000  0.24020815  1.0
  Ni  Ni395  1  0.73009300  0.70833333  0.24020815  1.0
  Ni  Ni396  1  0.07245350  0.20833333  0.23750000  1.0
  Ni  Ni397  1  0.07245350  0.54166667  0.23750000  1.0
  Ni  Ni398  1  0.07245350  0.87500000  0.23750000  1.0
  Ni  Ni399  1  0.40578683  0.20833333  0.23750000  1.0
  Ni  Ni400  1  0.40578683  0.54166667  0.23750000  1.0
  Ni  Ni401  1  0.40578683  0.87500000  0.23750000  1.0
  Ni  Ni402  1  0.73912017  0.20833333  0.23750000  1.0
  Ni  Ni403  1  0.73912017  0.54166667  0.23750000  1.0
  Ni  Ni404  1  0.73912017  0.87500000  0.23750000  1.0
  Ni  Ni405  1  0.23912017  0.04166667  0.28750000  1.0
  Ni  Ni406  1  0.23912017  0.37500000  0.28750000  1.0
  Ni  Ni407  1  0.23912017  0.70833333  0.28750000  1.0
  Ni  Ni408  1  0.57245350  0.04166667  0.28750000  1.0
  Ni  Ni409  1  0.57245350  0.37500000  0.28750000  1.0
  Ni  Ni410  1  0.57245350  0.70833333  0.28750000  1.0
  Ni  Ni411  1  0.90578683  0.04166667  0.28750000  1.0
  Ni  Ni412  1  0.90578683  0.37500000  0.28750000  1.0
  Ni  Ni413  1  0.90578683  0.70833333  0.28750000  1.0
  Ni  Ni414  1  0.07245350  0.20833333  0.28479185  1.0
  Ni  Ni415  1  0.07245350  0.54166667  0.28479185  1.0
  Ni  Ni416  1  0.07245350  0.87500000  0.28479185  1.0
  Ni  Ni417  1  0.40578683  0.20833333  0.28479185  1.0
  Ni  Ni418  1  0.40578683  0.54166667  0.28479185  1.0
  Ni  Ni419  1  0.40578683  0.87500000  0.28479185  1.0
  Ni  Ni420  1  0.73912017  0.20833333  0.28479185  1.0
  Ni  Ni421  1  0.73912017  0.54166667  0.28479185  1.0
  Ni  Ni422  1  0.73912017  0.87500000  0.28479185  1.0
  Ni  Ni423  1  0.23912017  0.04166667  0.23479185  1.0
  Ni  Ni424  1  0.23912017  0.37500000  0.23479185  1.0
  Ni  Ni425  1  0.23912017  0.70833333  0.23479185  1.0
  Ni  Ni426  1  0.57245350  0.04166667  0.23479185  1.0
  Ni  Ni427  1  0.57245350  0.37500000  0.23479185  1.0
  Ni  Ni428  1  0.57245350  0.70833333  0.23479185  1.0
  Ni  Ni429  1  0.90578683  0.04166667  0.23479185  1.0
  Ni  Ni430  1  0.90578683  0.37500000  0.23479185  1.0
  Ni  Ni431  1  0.90578683  0.70833333  0.23479185  1.0
  Sc  Sc432  1  0.23611111  0.20833333  0.33750000  1.0
  Sc  Sc433  1  0.23611111  0.54166667  0.33750000  1.0
  Sc  Sc434  1  0.23611111  0.87500000  0.33750000  1.0
  Sc  Sc435  1  0.56944444  0.20833333  0.33750000  1.0
  Sc  Sc436  1  0.56944444  0.54166667  0.33750000  1.0
  Sc  Sc437  1  0.56944444  0.87500000  0.33750000  1.0
  Sc  Sc438  1  0.90277778  0.20833333  0.33750000  1.0
  Sc  Sc439  1  0.90277778  0.54166667  0.33750000  1.0
  Sc  Sc440  1  0.90277778  0.87500000  0.33750000  1.0
  Sc  Sc441  1  0.06944444  0.04166667  0.38750000  1.0
  Sc  Sc442  1  0.06944444  0.37500000  0.38750000  1.0
  Sc  Sc443  1  0.06944444  0.70833333  0.38750000  1.0
  Sc  Sc444  1  0.40277778  0.04166667  0.38750000  1.0
  Sc  Sc445  1  0.40277778  0.37500000  0.38750000  1.0
  Sc  Sc446  1  0.40277778  0.70833333  0.38750000  1.0
  Sc  Sc447  1  0.73611111  0.04166667  0.38750000  1.0
  Sc  Sc448  1  0.73611111  0.37500000  0.38750000  1.0
  Sc  Sc449  1  0.73611111  0.70833333  0.38750000  1.0
  Sc  Sc450  1  0.26388889  0.29166667  0.36250000  1.0
  Sc  Sc451  1  0.26388889  0.62500000  0.36250000  1.0
  Sc  Sc452  1  0.26388889  0.95833333  0.36250000  1.0
  Sc  Sc453  1  0.59722222  0.29166667  0.36250000  1.0
  Sc  Sc454  1  0.59722222  0.62500000  0.36250000  1.0
  Sc  Sc455  1  0.59722222  0.95833333  0.36250000  1.0
  Sc  Sc456  1  0.93055556  0.29166667  0.36250000  1.0
  Sc  Sc457  1  0.93055556  0.62500000  0.36250000  1.0
  Sc  Sc458  1  0.93055556  0.95833333  0.36250000  1.0
  Sc  Sc459  1  0.09722222  0.12500000  0.31250000  1.0
  Sc  Sc460  1  0.09722222  0.45833333  0.31250000  1.0
  Sc  Sc461  1  0.09722222  0.79166667  0.31250000  1.0
  Sc  Sc462  1  0.43055556  0.12500000  0.31250000  1.0
  Sc  Sc463  1  0.43055556  0.45833333  0.31250000  1.0
  Sc  Sc464  1  0.43055556  0.79166667  0.31250000  1.0
  Sc  Sc465  1  0.76388889  0.12500000  0.31250000  1.0
  Sc  Sc466  1  0.76388889  0.45833333  0.31250000  1.0
  Sc  Sc467  1  0.76388889  0.79166667  0.31250000  1.0
  Ni  Ni468  1  0.26990700  0.29166667  0.30979185  1.0
  Ni  Ni469  1  0.26990700  0.62500000  0.30979185  1.0
  Ni  Ni470  1  0.26990700  0.95833333  0.30979185  1.0
  Ni  Ni471  1  0.60324033  0.29166667  0.30979185  1.0
  Ni  Ni472  1  0.60324033  0.62500000  0.30979185  1.0
  Ni  Ni473  1  0.60324033  0.95833333  0.30979185  1.0
  Ni  Ni474  1  0.93657367  0.29166667  0.30979185  1.0
  Ni  Ni475  1  0.93657367  0.62500000  0.30979185  1.0
  Ni  Ni476  1  0.93657367  0.95833333  0.30979185  1.0
  Ni  Ni477  1  0.10324033  0.12500000  0.35979185  1.0
  Ni  Ni478  1  0.10324033  0.45833333  0.35979185  1.0
  Ni  Ni479  1  0.10324033  0.79166667  0.35979185  1.0
  Ni  Ni480  1  0.43657367  0.12500000  0.35979185  1.0
  Ni  Ni481  1  0.43657367  0.45833333  0.35979185  1.0
  Ni  Ni482  1  0.43657367  0.79166667  0.35979185  1.0
  Ni  Ni483  1  0.76990700  0.12500000  0.35979185  1.0
  Ni  Ni484  1  0.76990700  0.45833333  0.35979185  1.0
  Ni  Ni485  1  0.76990700  0.79166667  0.35979185  1.0
  Ni  Ni486  1  0.09421317  0.29166667  0.36250000  1.0
  Ni  Ni487  1  0.09421317  0.62500000  0.36250000  1.0
  Ni  Ni488  1  0.09421317  0.95833333  0.36250000  1.0
  Ni  Ni489  1  0.42754650  0.29166667  0.36250000  1.0
  Ni  Ni490  1  0.42754650  0.62500000  0.36250000  1.0
  Ni  Ni491  1  0.42754650  0.95833333  0.36250000  1.0
  Ni  Ni492  1  0.76087983  0.29166667  0.36250000  1.0
  Ni  Ni493  1  0.76087983  0.62500000  0.36250000  1.0
  Ni  Ni494  1  0.76087983  0.95833333  0.36250000  1.0
  Ni  Ni495  1  0.26087983  0.12500000  0.31250000  1.0
  Ni  Ni496  1  0.26087983  0.45833333  0.31250000  1.0
  Ni  Ni497  1  0.26087983  0.79166667  0.31250000  1.0
  Ni  Ni498  1  0.59421317  0.12500000  0.31250000  1.0
  Ni  Ni499  1  0.59421317  0.45833333  0.31250000  1.0
  Ni  Ni500  1  0.59421317  0.79166667  0.31250000  1.0
  Ni  Ni501  1  0.92754650  0.12500000  0.31250000  1.0
  Ni  Ni502  1  0.92754650  0.45833333  0.31250000  1.0
  Ni  Ni503  1  0.92754650  0.79166667  0.31250000  1.0
  Ni  Ni504  1  0.09421317  0.29166667  0.31520815  1.0
  Ni  Ni505  1  0.09421317  0.62500000  0.31520815  1.0
  Ni  Ni506  1  0.09421317  0.95833333  0.31520815  1.0
  Ni  Ni507  1  0.42754650  0.29166667  0.31520815  1.0
  Ni  Ni508  1  0.42754650  0.62500000  0.31520815  1.0
  Ni  Ni509  1  0.42754650  0.95833333  0.31520815  1.0
  Ni  Ni510  1  0.76087983  0.29166667  0.31520815  1.0
  Ni  Ni511  1  0.76087983  0.62500000  0.31520815  1.0
  Ni  Ni512  1  0.76087983  0.95833333  0.31520815  1.0
  Ni  Ni513  1  0.26087983  0.12500000  0.36520815  1.0
  Ni  Ni514  1  0.26087983  0.45833333  0.36520815  1.0
  Ni  Ni515  1  0.26087983  0.79166667  0.36520815  1.0
  Ni  Ni516  1  0.59421317  0.12500000  0.36520815  1.0
  Ni  Ni517  1  0.59421317  0.45833333  0.36520815  1.0
  Ni  Ni518  1  0.59421317  0.79166667  0.36520815  1.0
  Ni  Ni519  1  0.92754650  0.12500000  0.36520815  1.0
  Ni  Ni520  1  0.92754650  0.45833333  0.36520815  1.0
  Ni  Ni521  1  0.92754650  0.79166667  0.36520815  1.0
  Ni  Ni522  1  0.23009300  0.20833333  0.39020815  1.0
  Ni  Ni523  1  0.23009300  0.54166667  0.39020815  1.0
  Ni  Ni524  1  0.23009300  0.87500000  0.39020815  1.0
  Ni  Ni525  1  0.56342633  0.20833333  0.39020815  1.0
  Ni  Ni526  1  0.56342633  0.54166667  0.39020815  1.0
  Ni  Ni527  1  0.56342633  0.87500000  0.39020815  1.0
  Ni  Ni528  1  0.89675967  0.20833333  0.39020815  1.0
  Ni  Ni529  1  0.89675967  0.54166667  0.39020815  1.0
  Ni  Ni530  1  0.89675967  0.87500000  0.39020815  1.0
  Ni  Ni531  1  0.06342633  0.04166667  0.34020815  1.0
  Ni  Ni532  1  0.06342633  0.37500000  0.34020815  1.0
  Ni  Ni533  1  0.06342633  0.70833333  0.34020815  1.0
  Ni  Ni534  1  0.39675967  0.04166667  0.34020815  1.0
  Ni  Ni535  1  0.39675967  0.37500000  0.34020815  1.0
  Ni  Ni536  1  0.39675967  0.70833333  0.34020815  1.0
  Ni  Ni537  1  0.73009300  0.04166667  0.34020815  1.0
  Ni  Ni538  1  0.73009300  0.37500000  0.34020815  1.0
  Ni  Ni539  1  0.73009300  0.70833333  0.34020815  1.0
  Ni  Ni540  1  0.07245350  0.20833333  0.33750000  1.0
  Ni  Ni541  1  0.07245350  0.54166667  0.33750000  1.0
  Ni  Ni542  1  0.07245350  0.87500000  0.33750000  1.0
  Ni  Ni543  1  0.40578683  0.20833333  0.33750000  1.0
  Ni  Ni544  1  0.40578683  0.54166667  0.33750000  1.0
  Ni  Ni545  1  0.40578683  0.87500000  0.33750000  1.0
  Ni  Ni546  1  0.73912017  0.20833333  0.33750000  1.0
  Ni  Ni547  1  0.73912017  0.54166667  0.33750000  1.0
  Ni  Ni548  1  0.73912017  0.87500000  0.33750000  1.0
  Ni  Ni549  1  0.23912017  0.04166667  0.38750000  1.0
  Ni  Ni550  1  0.23912017  0.37500000  0.38750000  1.0
  Ni  Ni551  1  0.23912017  0.70833333  0.38750000  1.0
  Ni  Ni552  1  0.57245350  0.04166667  0.38750000  1.0
  Ni  Ni553  1  0.57245350  0.37500000  0.38750000  1.0
  Ni  Ni554  1  0.57245350  0.70833333  0.38750000  1.0
  Ni  Ni555  1  0.90578683  0.04166667  0.38750000  1.0
  Ni  Ni556  1  0.90578683  0.37500000  0.38750000  1.0
  Ni  Ni557  1  0.90578683  0.70833333  0.38750000  1.0
  Ni  Ni558  1  0.07245350  0.20833333  0.38479185  1.0
  Ni  Ni559  1  0.07245350  0.54166667  0.38479185  1.0
  Ni  Ni560  1  0.07245350  0.87500000  0.38479185  1.0
  Ni  Ni561  1  0.40578683  0.20833333  0.38479185  1.0
  Ni  Ni562  1  0.40578683  0.54166667  0.38479185  1.0
  Ni  Ni563  1  0.40578683  0.87500000  0.38479185  1.0
  Ni  Ni564  1  0.73912017  0.20833333  0.38479185  1.0
  Ni  Ni565  1  0.73912017  0.54166667  0.38479185  1.0
  Ni  Ni566  1  0.73912017  0.87500000  0.38479185  1.0
  Ni  Ni567  1  0.23912017  0.04166667  0.33479185  1.0
  Ni  Ni568  1  0.23912017  0.37500000  0.33479185  1.0
  Ni  Ni569  1  0.23912017  0.70833333  0.33479185  1.0
  Ni  Ni570  1  0.57245350  0.04166667  0.33479185  1.0
  Ni  Ni571  1  0.57245350  0.37500000  0.33479185  1.0
  Ni  Ni572  1  0.57245350  0.70833333  0.33479185  1.0
  Ni  Ni573  1  0.90578683  0.04166667  0.33479185  1.0
  Ni  Ni574  1  0.90578683  0.37500000  0.33479185  1.0
  Ni  Ni575  1  0.90578683  0.70833333  0.33479185  1.0
