# generated using pymatgen
data_Sr3Ni
_symmetry_space_group_name_H-M   'P 1'
_cell_length_a   22.26569228
_cell_length_b   22.26569228
_cell_length_c   47.23266600
_cell_angle_alpha   135.00000000
_cell_angle_beta   135.00000000
_cell_angle_gamma   60.00000000
_symmetry_Int_Tables_number   1
_chemical_formula_structural   Sr3Ni
_chemical_formula_sum   'Sr108 Ni36'
_cell_volume   11708.05811066
_cell_formula_units_Z   36
loop_
 _symmetry_equiv_pos_site_id
 _symmetry_equiv_pos_as_xyz
  1  'x, y, z'
loop_
 _atom_site_type_symbol
 _atom_site_label
 _atom_site_symmetry_multiplicity
 _atom_site_fract_x
 _atom_site_fract_y
 _atom_site_fract_z
 _atom_site_occupancy
  Sr  Sr0  1  0.16666667  0.16666667  0.05555556  1.0
  Sr  Sr1  1  0.16666667  0.50000000  0.05555556  1.0
  Sr  Sr2  1  0.16666667  0.83333333  0.05555556  1.0
  Sr  Sr3  1  0.50000000  0.16666667  0.05555556  1.0
  Sr  Sr4  1  0.50000000  0.50000000  0.05555556  1.0
  Sr  Sr5  1  0.50000000  0.83333333  0.05555556  1.0
  Sr  Sr6  1  0.83333333  0.16666667  0.05555556  1.0
  Sr  Sr7  1  0.83333333  0.50000000  0.05555556  1.0
  Sr  Sr8  1  0.83333333  0.83333333  0.05555556  1.0
  Sr  Sr9  1  0.00000000  0.16666667  0.05555556  1.0
  Sr  Sr10  1  0.00000000  0.50000000  0.05555556  1.0
  Sr  Sr11  1  0.00000000  0.83333333  0.05555556  1.0
  Sr  Sr12  1  0.33333333  0.16666667  0.05555556  1.0
  Sr  Sr13  1  0.33333333  0.50000000  0.05555556  1.0
  Sr  Sr14  1  0.33333333  0.83333333  0.05555556  1.0
  Sr  Sr15  1  0.66666667  0.16666667  0.05555556  1.0
  Sr  Sr16  1  0.66666667  0.50000000  0.05555556  1.0
  Sr  Sr17  1  0.66666667  0.83333333  0.05555556  1.0
  Sr  Sr18  1  0.16666667  0.00000000  0.05555556  1.0
  Sr  Sr19  1  0.16666667  0.33333333  0.05555556  1.0
  Sr  Sr20  1  0.16666667  0.66666667  0.05555556  1.0
  Sr  Sr21  1  0.50000000  0.00000000  0.05555556  1.0
  Sr  Sr22  1  0.50000000  0.33333333  0.05555556  1.0
  Sr  Sr23  1  0.50000000  0.66666667  0.05555556  1.0
  Sr  Sr24  1  0.83333333  0.00000000  0.05555556  1.0
  Sr  Sr25  1  0.83333333  0.33333333  0.05555556  1.0
  Sr  Sr26  1  0.83333333  0.66666667  0.05555556  1.0
  Ni  Ni27  1  0.00000000  0.00000000  0.05555556  1.0
  Ni  Ni28  1  0.00000000  0.33333333  0.05555556  1.0
  Ni  Ni29  1  0.00000000  0.66666667  0.05555556  1.0
  Ni  Ni30  1  0.33333333  0.00000000  0.05555556  1.0
  Ni  Ni31  1  0.33333333  0.33333333  0.05555556  1.0
  Ni  Ni32  1  0.33333333  0.66666667  0.05555556  1.0
  Ni  Ni33  1  0.66666667  0.00000000  0.05555556  1.0
  Ni  Ni34  1  0.66666667  0.33333333  0.05555556  1.0
  Ni  Ni35  1  0.66666667  0.66666667  0.05555556  1.0
  Sr  Sr36  1  0.16666667  0.16666667  0.16666667  1.0
  Sr  Sr37  1  0.16666667  0.50000000  0.16666667  1.0
  Sr  Sr38  1  0.16666667  0.83333333  0.16666667  1.0
  Sr  Sr39  1  0.50000000  0.16666667  0.16666667  1.0
  Sr  Sr40  1  0.50000000  0.50000000  0.16666667  1.0
  Sr  Sr41  1  0.50000000  0.83333333  0.16666667  1.0
  Sr  Sr42  1  0.83333333  0.16666667  0.16666667  1.0
  Sr  Sr43  1  0.83333333  0.50000000  0.16666667  1.0
  Sr  Sr44  1  0.83333333  0.83333333  0.16666667  1.0
  Sr  Sr45  1  0.00000000  0.16666667  0.16666667  1.0
  Sr  Sr46  1  0.00000000  0.50000000  0.16666667  1.0
  Sr  Sr47  1  0.00000000  0.83333333  0.16666667  1.0
  Sr  Sr48  1  0.33333333  0.16666667  0.16666667  1.0
  Sr  Sr49  1  0.33333333  0.50000000  0.16666667  1.0
  Sr  Sr50  1  0.33333333  0.83333333  0.16666667  1.0
  Sr  Sr51  1  0.66666667  0.16666667  0.16666667  1.0
  Sr  Sr52  1  0.66666667  0.50000000  0.16666667  1.0
  Sr  Sr53  1  0.66666667  0.83333333  0.16666667  1.0
  Sr  Sr54  1  0.16666667  0.00000000  0.16666667  1.0
  Sr  Sr55  1  0.16666667  0.33333333  0.16666667  1.0
  Sr  Sr56  1  0.16666667  0.66666667  0.16666667  1.0
  Sr  Sr57  1  0.50000000  0.00000000  0.16666667  1.0
  Sr  Sr58  1  0.50000000  0.33333333  0.16666667  1.0
  Sr  Sr59  1  0.50000000  0.66666667  0.16666667  1.0
  Sr  Sr60  1  0.83333333  0.00000000  0.16666667  1.0
  Sr  Sr61  1  0.83333333  0.33333333  0.16666667  1.0
  Sr  Sr62  1  0.83333333  0.66666667  0.16666667  1.0
  Ni  Ni63  1  0.00000000  0.00000000  0.16666667  1.0
  Ni  Ni64  1  0.00000000  0.33333333  0.16666667  1.0
  Ni  Ni65  1  0.00000000  0.66666667  0.16666667  1.0
  Ni  Ni66  1  0.33333333  0.00000000  0.16666667  1.0
  Ni  Ni67  1  0.33333333  0.33333333  0.16666667  1.0
  Ni  Ni68  1  0.33333333  0.66666667  0.16666667  1.0
  Ni  Ni69  1  0.66666667  0.00000000  0.16666667  1.0
  Ni  Ni70  1  0.66666667  0.33333333  0.16666667  1.0
  Ni  Ni71  1  0.66666667  0.66666667  0.16666667  1.0
  Sr  Sr72  1  0.16666667  0.16666667  0.27777778  1.0
  Sr  Sr73  1  0.16666667  0.50000000  0.27777778  1.0
  Sr  Sr74  1  0.16666667  0.83333333  0.27777778  1.0
  Sr  Sr75  1  0.50000000  0.16666667  0.27777778  1.0
  Sr  Sr76  1  0.50000000  0.50000000  0.27777778  1.0
  Sr  Sr77  1  0.50000000  0.83333333  0.27777778  1.0
  Sr  Sr78  1  0.83333333  0.16666667  0.27777778  1.0
  Sr  Sr79  1  0.83333333  0.50000000  0.27777778  1.0
  Sr  Sr80  1  0.83333333  0.83333333  0.27777778  1.0
  Sr  Sr81  1  0.00000000  0.16666667  0.27777778  1.0
  Sr  Sr82  1  0.00000000  0.50000000  0.27777778  1.0
  Sr  Sr83  1  0.00000000  0.83333333  0.27777778  1.0
  Sr  Sr84  1  0.33333333  0.16666667  0.27777778  1.0
  Sr  Sr85  1  0.33333333  0.50000000  0.27777778  1.0
  Sr  Sr86  1  0.33333333  0.83333333  0.27777778  1.0
  Sr  Sr87  1  0.66666667  0.16666667  0.27777778  1.0
  Sr  Sr88  1  0.66666667  0.50000000  0.27777778  1.0
  Sr  Sr89  1  0.66666667  0.83333333  0.27777778  1.0
  Sr  Sr90  1  0.16666667  0.00000000  0.27777778  1.0
  Sr  Sr91  1  0.16666667  0.33333333  0.27777778  1.0
  Sr  Sr92  1  0.16666667  0.66666667  0.27777778  1.0
  Sr  Sr93  1  0.50000000  0.00000000  0.27777778  1.0
  Sr  Sr94  1  0.50000000  0.33333333  0.27777778  1.0
  Sr  Sr95  1  0.50000000  0.66666667  0.27777778  1.0
  Sr  Sr96  1  0.83333333  0.00000000  0.27777778  1.0
  Sr  Sr97  1  0.83333333  0.33333333  0.27777778  1.0
  Sr  Sr98  1  0.83333333  0.66666667  0.27777778  1.0
  Ni  Ni99  1  0.00000000  0.00000000  0.27777778  1.0
  Ni  Ni100  1  0.00000000  0.33333333  0.27777778  1.0
  Ni  Ni101  1  0.00000000  0.66666667  0.27777778  1.0
  Ni  Ni102  1  0.33333333  0.00000000  0.27777778  1.0
  Ni  Ni103  1  0.33333333  0.33333333  0.27777778  1.0
  Ni  Ni104  1  0.33333333  0.66666667  0.27777778  1.0
  Ni  Ni105  1  0.66666667  0.00000000  0.27777778  1.0
  Ni  Ni106  1  0.66666667  0.33333333  0.27777778  1.0
  Ni  Ni107  1  0.66666667  0.66666667  0.27777778  1.0
  Sr  Sr108  1  0.16666667  0.16666667  0.38888889  1.0
  Sr  Sr109  1  0.16666667  0.50000000  0.38888889  1.0
  Sr  Sr110  1  0.16666667  0.83333333  0.38888889  1.0
  Sr  Sr111  1  0.50000000  0.16666667  0.38888889  1.0
  Sr  Sr112  1  0.50000000  0.50000000  0.38888889  1.0
  Sr  Sr113  1  0.50000000  0.83333333  0.38888889  1.0
  Sr  Sr114  1  0.83333333  0.16666667  0.38888889  1.0
  Sr  Sr115  1  0.83333333  0.50000000  0.38888889  1.0
  Sr  Sr116  1  0.83333333  0.83333333  0.38888889  1.0
  Sr  Sr117  1  0.00000000  0.16666667  0.38888889  1.0
  Sr  Sr118  1  0.00000000  0.50000000  0.38888889  1.0
  Sr  Sr119  1  0.00000000  0.83333333  0.38888889  1.0
  Sr  Sr120  1  0.33333333  0.16666667  0.38888889  1.0
  Sr  Sr121  1  0.33333333  0.50000000  0.38888889  1.0
  Sr  Sr122  1  0.33333333  0.83333333  0.38888889  1.0
  Sr  Sr123  1  0.66666667  0.16666667  0.38888889  1.0
  Sr  Sr124  1  0.66666667  0.50000000  0.38888889  1.0
  Sr  Sr125  1  0.66666667  0.83333333  0.38888889  1.0
  Sr  Sr126  1  0.16666667  0.00000000  0.38888889  1.0
  Sr  Sr127  1  0.16666667  0.33333333  0.38888889  1.0
  Sr  Sr128  1  0.16666667  0.66666667  0.38888889  1.0
  Sr  Sr129  1  0.50000000  0.00000000  0.38888889  1.0
  Sr  Sr130  1  0.50000000  0.33333333  0.38888889  1.0
  Sr  Sr131  1  0.50000000  0.66666667  0.38888889  1.0
  Sr  Sr132  1  0.83333333  0.00000000  0.38888889  1.0
  Sr  Sr133  1  0.83333333  0.33333333  0.38888889  1.0
  Sr  Sr134  1  0.83333333  0.66666667  0.38888889  1.0
  Ni  Ni135  1  0.00000000  0.00000000  0.38888889  1.0
  Ni  Ni136  1  0.00000000  0.33333333  0.38888889  1.0
  Ni  Ni137  1  0.00000000  0.66666667  0.38888889  1.0
  Ni  Ni138  1  0.33333333  0.00000000  0.38888889  1.0
  Ni  Ni139  1  0.33333333  0.33333333  0.38888889  1.0
  Ni  Ni140  1  0.33333333  0.66666667  0.38888889  1.0
  Ni  Ni141  1  0.66666667  0.00000000  0.38888889  1.0
  Ni  Ni142  1  0.66666667  0.33333333  0.38888889  1.0
  Ni  Ni143  1  0.66666667  0.66666667  0.38888889  1.0
