# generated using pymatgen
data_Sr3Ni
_symmetry_space_group_name_H-M   'P 1'
_cell_length_a   22.26569228
_cell_length_b   27.26979243
_cell_length_c   30.14788987
_cell_angle_alpha   95.76818119
_cell_angle_beta   90.00000000
_cell_angle_gamma   90.00000000
_symmetry_Int_Tables_number   1
_chemical_formula_structural   Sr3Ni
_chemical_formula_sum   'Sr162 Ni54'
_cell_volume   18212.53483880
_cell_formula_units_Z   54
loop_
 _symmetry_equiv_pos_site_id
 _symmetry_equiv_pos_as_xyz
  1  'x, y, z'
loop_
 _atom_site_type_symbol
 _atom_site_label
 _atom_site_symmetry_multiplicity
 _atom_site_fract_x
 _atom_site_fract_y
 _atom_site_fract_z
 _atom_site_occupancy
  Ni  Ni0  1  0.00000000  0.08333333  0.87500000  1.0
  Ni  Ni1  1  0.00000000  0.41666667  0.87500000  1.0
  Ni  Ni2  1  0.00000000  0.75000000  0.87500000  1.0
  Ni  Ni3  1  0.33333333  0.08333333  0.87500000  1.0
  Ni  Ni4  1  0.33333333  0.41666667  0.87500000  1.0
  Ni  Ni5  1  0.33333333  0.75000000  0.87500000  1.0
  Ni  Ni6  1  0.66666667  0.08333333  0.87500000  1.0
  Ni  Ni7  1  0.66666667  0.41666667  0.87500000  1.0
  Ni  Ni8  1  0.66666667  0.75000000  0.87500000  1.0
  Ni  Ni9  1  0.16666667  0.20238095  0.94642857  1.0
  Ni  Ni10  1  0.16666667  0.53571429  0.94642857  1.0
  Ni  Ni11  1  0.16666667  0.86904762  0.94642857  1.0
  Ni  Ni12  1  0.50000000  0.20238095  0.94642857  1.0
  Ni  Ni13  1  0.50000000  0.53571429  0.94642857  1.0
  Ni  Ni14  1  0.50000000  0.86904762  0.94642857  1.0
  Ni  Ni15  1  0.83333333  0.20238095  0.94642857  1.0
  Ni  Ni16  1  0.83333333  0.53571429  0.94642857  1.0
  Ni  Ni17  1  0.83333333  0.86904762  0.94642857  1.0
  Ni  Ni18  1  0.00000000  0.17857143  0.73214286  1.0
  Ni  Ni19  1  0.00000000  0.51190476  0.73214286  1.0
  Ni  Ni20  1  0.00000000  0.84523810  0.73214286  1.0
  Ni  Ni21  1  0.33333333  0.17857143  0.73214286  1.0
  Ni  Ni22  1  0.33333333  0.51190476  0.73214286  1.0
  Ni  Ni23  1  0.33333333  0.84523810  0.73214286  1.0
  Ni  Ni24  1  0.66666667  0.17857143  0.73214286  1.0
  Ni  Ni25  1  0.66666667  0.51190476  0.73214286  1.0
  Ni  Ni26  1  0.66666667  0.84523810  0.73214286  1.0
  Ni  Ni27  1  0.16666667  0.29761905  0.80357143  1.0
  Ni  Ni28  1  0.16666667  0.63095238  0.80357143  1.0
  Ni  Ni29  1  0.16666667  0.96428571  0.80357143  1.0
  Ni  Ni30  1  0.50000000  0.29761905  0.80357143  1.0
  Ni  Ni31  1  0.50000000  0.63095238  0.80357143  1.0
  Ni  Ni32  1  0.50000000  0.96428571  0.80357143  1.0
  Ni  Ni33  1  0.83333333  0.29761905  0.80357143  1.0
  Ni  Ni34  1  0.83333333  0.63095238  0.80357143  1.0
  Ni  Ni35  1  0.83333333  0.96428571  0.80357143  1.0
  Ni  Ni36  1  0.00000000  0.27380952  0.58928571  1.0
  Ni  Ni37  1  0.00000000  0.60714286  0.58928571  1.0
  Ni  Ni38  1  0.00000000  0.94047619  0.58928571  1.0
  Ni  Ni39  1  0.33333333  0.27380952  0.58928571  1.0
  Ni  Ni40  1  0.33333333  0.60714286  0.58928571  1.0
  Ni  Ni41  1  0.33333333  0.94047619  0.58928571  1.0
  Ni  Ni42  1  0.66666667  0.27380952  0.58928571  1.0
  Ni  Ni43  1  0.66666667  0.60714286  0.58928571  1.0
  Ni  Ni44  1  0.66666667  0.94047619  0.58928571  1.0
  Ni  Ni45  1  0.16666667  0.05952381  0.66071429  1.0
  Ni  Ni46  1  0.16666667  0.39285714  0.66071429  1.0
  Ni  Ni47  1  0.16666667  0.72619048  0.66071429  1.0
  Ni  Ni48  1  0.50000000  0.05952381  0.66071429  1.0
  Ni  Ni49  1  0.50000000  0.39285714  0.66071429  1.0
  Ni  Ni50  1  0.50000000  0.72619048  0.66071429  1.0
  Ni  Ni51  1  0.83333333  0.05952381  0.66071429  1.0
  Ni  Ni52  1  0.83333333  0.39285714  0.66071429  1.0
  Ni  Ni53  1  0.83333333  0.72619048  0.66071429  1.0
  Sr  Sr54  1  0.00000000  0.20238095  0.94642857  1.0
  Sr  Sr55  1  0.00000000  0.53571429  0.94642857  1.0
  Sr  Sr56  1  0.00000000  0.86904762  0.94642857  1.0
  Sr  Sr57  1  0.33333333  0.20238095  0.94642857  1.0
  Sr  Sr58  1  0.33333333  0.53571429  0.94642857  1.0
  Sr  Sr59  1  0.33333333  0.86904762  0.94642857  1.0
  Sr  Sr60  1  0.66666667  0.20238095  0.94642857  1.0
  Sr  Sr61  1  0.66666667  0.53571429  0.94642857  1.0
  Sr  Sr62  1  0.66666667  0.86904762  0.94642857  1.0
  Sr  Sr63  1  0.16666667  0.08333333  0.87500000  1.0
  Sr  Sr64  1  0.16666667  0.41666667  0.87500000  1.0
  Sr  Sr65  1  0.16666667  0.75000000  0.87500000  1.0
  Sr  Sr66  1  0.50000000  0.08333333  0.87500000  1.0
  Sr  Sr67  1  0.50000000  0.41666667  0.87500000  1.0
  Sr  Sr68  1  0.50000000  0.75000000  0.87500000  1.0
  Sr  Sr69  1  0.83333333  0.08333333  0.87500000  1.0
  Sr  Sr70  1  0.83333333  0.41666667  0.87500000  1.0
  Sr  Sr71  1  0.83333333  0.75000000  0.87500000  1.0
  Sr  Sr72  1  0.25000000  0.30952381  0.91071429  1.0
  Sr  Sr73  1  0.25000000  0.64285714  0.91071429  1.0
  Sr  Sr74  1  0.25000000  0.97619048  0.91071429  1.0
  Sr  Sr75  1  0.58333333  0.30952381  0.91071429  1.0
  Sr  Sr76  1  0.58333333  0.64285714  0.91071429  1.0
  Sr  Sr77  1  0.58333333  0.97619048  0.91071429  1.0
  Sr  Sr78  1  0.91666667  0.30952381  0.91071429  1.0
  Sr  Sr79  1  0.91666667  0.64285714  0.91071429  1.0
  Sr  Sr80  1  0.91666667  0.97619048  0.91071429  1.0
  Sr  Sr81  1  0.08333333  0.09523810  0.98214286  1.0
  Sr  Sr82  1  0.08333333  0.42857143  0.98214286  1.0
  Sr  Sr83  1  0.08333333  0.76190476  0.98214286  1.0
  Sr  Sr84  1  0.41666667  0.09523810  0.98214286  1.0
  Sr  Sr85  1  0.41666667  0.42857143  0.98214286  1.0
  Sr  Sr86  1  0.41666667  0.76190476  0.98214286  1.0
  Sr  Sr87  1  0.75000000  0.09523810  0.98214286  1.0
  Sr  Sr88  1  0.75000000  0.42857143  0.98214286  1.0
  Sr  Sr89  1  0.75000000  0.76190476  0.98214286  1.0
  Sr  Sr90  1  0.08333333  0.30952381  0.91071429  1.0
  Sr  Sr91  1  0.08333333  0.64285714  0.91071429  1.0
  Sr  Sr92  1  0.08333333  0.97619048  0.91071429  1.0
  Sr  Sr93  1  0.41666667  0.30952381  0.91071429  1.0
  Sr  Sr94  1  0.41666667  0.64285714  0.91071429  1.0
  Sr  Sr95  1  0.41666667  0.97619048  0.91071429  1.0
  Sr  Sr96  1  0.75000000  0.30952381  0.91071429  1.0
  Sr  Sr97  1  0.75000000  0.64285714  0.91071429  1.0
  Sr  Sr98  1  0.75000000  0.97619048  0.91071429  1.0
  Sr  Sr99  1  0.25000000  0.09523810  0.98214286  1.0
  Sr  Sr100  1  0.25000000  0.42857143  0.98214286  1.0
  Sr  Sr101  1  0.25000000  0.76190476  0.98214286  1.0
  Sr  Sr102  1  0.58333333  0.09523810  0.98214286  1.0
  Sr  Sr103  1  0.58333333  0.42857143  0.98214286  1.0
  Sr  Sr104  1  0.58333333  0.76190476  0.98214286  1.0
  Sr  Sr105  1  0.91666667  0.09523810  0.98214286  1.0
  Sr  Sr106  1  0.91666667  0.42857143  0.98214286  1.0
  Sr  Sr107  1  0.91666667  0.76190476  0.98214286  1.0
  Sr  Sr108  1  0.00000000  0.29761905  0.80357143  1.0
  Sr  Sr109  1  0.00000000  0.63095238  0.80357143  1.0
  Sr  Sr110  1  0.00000000  0.96428571  0.80357143  1.0
  Sr  Sr111  1  0.33333333  0.29761905  0.80357143  1.0
  Sr  Sr112  1  0.33333333  0.63095238  0.80357143  1.0
  Sr  Sr113  1  0.33333333  0.96428571  0.80357143  1.0
  Sr  Sr114  1  0.66666667  0.29761905  0.80357143  1.0
  Sr  Sr115  1  0.66666667  0.63095238  0.80357143  1.0
  Sr  Sr116  1  0.66666667  0.96428571  0.80357143  1.0
  Sr  Sr117  1  0.16666667  0.17857143  0.73214286  1.0
  Sr  Sr118  1  0.16666667  0.51190476  0.73214286  1.0
  Sr  Sr119  1  0.16666667  0.84523810  0.73214286  1.0
  Sr  Sr120  1  0.50000000  0.17857143  0.73214286  1.0
  Sr  Sr121  1  0.50000000  0.51190476  0.73214286  1.0
  Sr  Sr122  1  0.50000000  0.84523810  0.73214286  1.0
  Sr  Sr123  1  0.83333333  0.17857143  0.73214286  1.0
  Sr  Sr124  1  0.83333333  0.51190476  0.73214286  1.0
  Sr  Sr125  1  0.83333333  0.84523810  0.73214286  1.0
  Sr  Sr126  1  0.25000000  0.07142857  0.76785714  1.0
  Sr  Sr127  1  0.25000000  0.40476190  0.76785714  1.0
  Sr  Sr128  1  0.25000000  0.73809524  0.76785714  1.0
  Sr  Sr129  1  0.58333333  0.07142857  0.76785714  1.0
  Sr  Sr130  1  0.58333333  0.40476190  0.76785714  1.0
  Sr  Sr131  1  0.58333333  0.73809524  0.76785714  1.0
  Sr  Sr132  1  0.91666667  0.07142857  0.76785714  1.0
  Sr  Sr133  1  0.91666667  0.40476190  0.76785714  1.0
  Sr  Sr134  1  0.91666667  0.73809524  0.76785714  1.0
  Sr  Sr135  1  0.08333333  0.19047619  0.83928571  1.0
  Sr  Sr136  1  0.08333333  0.52380952  0.83928571  1.0
  Sr  Sr137  1  0.08333333  0.85714286  0.83928571  1.0
  Sr  Sr138  1  0.41666667  0.19047619  0.83928571  1.0
  Sr  Sr139  1  0.41666667  0.52380952  0.83928571  1.0
  Sr  Sr140  1  0.41666667  0.85714286  0.83928571  1.0
  Sr  Sr141  1  0.75000000  0.19047619  0.83928571  1.0
  Sr  Sr142  1  0.75000000  0.52380952  0.83928571  1.0
  Sr  Sr143  1  0.75000000  0.85714286  0.83928571  1.0
  Sr  Sr144  1  0.08333333  0.07142857  0.76785714  1.0
  Sr  Sr145  1  0.08333333  0.40476190  0.76785714  1.0
  Sr  Sr146  1  0.08333333  0.73809524  0.76785714  1.0
  Sr  Sr147  1  0.41666667  0.07142857  0.76785714  1.0
  Sr  Sr148  1  0.41666667  0.40476190  0.76785714  1.0
  Sr  Sr149  1  0.41666667  0.73809524  0.76785714  1.0
  Sr  Sr150  1  0.75000000  0.07142857  0.76785714  1.0
  Sr  Sr151  1  0.75000000  0.40476190  0.76785714  1.0
  Sr  Sr152  1  0.75000000  0.73809524  0.76785714  1.0
  Sr  Sr153  1  0.25000000  0.19047619  0.83928571  1.0
  Sr  Sr154  1  0.25000000  0.52380952  0.83928571  1.0
  Sr  Sr155  1  0.25000000  0.85714286  0.83928571  1.0
  Sr  Sr156  1  0.58333333  0.19047619  0.83928571  1.0
  Sr  Sr157  1  0.58333333  0.52380952  0.83928571  1.0
  Sr  Sr158  1  0.58333333  0.85714286  0.83928571  1.0
  Sr  Sr159  1  0.91666667  0.19047619  0.83928571  1.0
  Sr  Sr160  1  0.91666667  0.52380952  0.83928571  1.0
  Sr  Sr161  1  0.91666667  0.85714286  0.83928571  1.0
  Sr  Sr162  1  0.00000000  0.05952381  0.66071429  1.0
  Sr  Sr163  1  0.00000000  0.39285714  0.66071429  1.0
  Sr  Sr164  1  0.00000000  0.72619048  0.66071429  1.0
  Sr  Sr165  1  0.33333333  0.05952381  0.66071429  1.0
  Sr  Sr166  1  0.33333333  0.39285714  0.66071429  1.0
  Sr  Sr167  1  0.33333333  0.72619048  0.66071429  1.0
  Sr  Sr168  1  0.66666667  0.05952381  0.66071429  1.0
  Sr  Sr169  1  0.66666667  0.39285714  0.66071429  1.0
  Sr  Sr170  1  0.66666667  0.72619048  0.66071429  1.0
  Sr  Sr171  1  0.16666667  0.27380952  0.58928571  1.0
  Sr  Sr172  1  0.16666667  0.60714286  0.58928571  1.0
  Sr  Sr173  1  0.16666667  0.94047619  0.58928571  1.0
  Sr  Sr174  1  0.50000000  0.27380952  0.58928571  1.0
  Sr  Sr175  1  0.50000000  0.60714286  0.58928571  1.0
  Sr  Sr176  1  0.50000000  0.94047619  0.58928571  1.0
  Sr  Sr177  1  0.83333333  0.27380952  0.58928571  1.0
  Sr  Sr178  1  0.83333333  0.60714286  0.58928571  1.0
  Sr  Sr179  1  0.83333333  0.94047619  0.58928571  1.0
  Sr  Sr180  1  0.25000000  0.16666667  0.62500000  1.0
  Sr  Sr181  1  0.25000000  0.50000000  0.62500000  1.0
  Sr  Sr182  1  0.25000000  0.83333333  0.62500000  1.0
  Sr  Sr183  1  0.58333333  0.16666667  0.62500000  1.0
  Sr  Sr184  1  0.58333333  0.50000000  0.62500000  1.0
  Sr  Sr185  1  0.58333333  0.83333333  0.62500000  1.0
  Sr  Sr186  1  0.91666667  0.16666667  0.62500000  1.0
  Sr  Sr187  1  0.91666667  0.50000000  0.62500000  1.0
  Sr  Sr188  1  0.91666667  0.83333333  0.62500000  1.0
  Sr  Sr189  1  0.08333333  0.28571429  0.69642857  1.0
  Sr  Sr190  1  0.08333333  0.61904762  0.69642857  1.0
  Sr  Sr191  1  0.08333333  0.95238095  0.69642857  1.0
  Sr  Sr192  1  0.41666667  0.28571429  0.69642857  1.0
  Sr  Sr193  1  0.41666667  0.61904762  0.69642857  1.0
  Sr  Sr194  1  0.41666667  0.95238095  0.69642857  1.0
  Sr  Sr195  1  0.75000000  0.28571429  0.69642857  1.0
  Sr  Sr196  1  0.75000000  0.61904762  0.69642857  1.0
  Sr  Sr197  1  0.75000000  0.95238095  0.69642857  1.0
  Sr  Sr198  1  0.08333333  0.16666667  0.62500000  1.0
  Sr  Sr199  1  0.08333333  0.50000000  0.62500000  1.0
  Sr  Sr200  1  0.08333333  0.83333333  0.62500000  1.0
  Sr  Sr201  1  0.41666667  0.16666667  0.62500000  1.0
  Sr  Sr202  1  0.41666667  0.50000000  0.62500000  1.0
  Sr  Sr203  1  0.41666667  0.83333333  0.62500000  1.0
  Sr  Sr204  1  0.75000000  0.16666667  0.62500000  1.0
  Sr  Sr205  1  0.75000000  0.50000000  0.62500000  1.0
  Sr  Sr206  1  0.75000000  0.83333333  0.62500000  1.0
  Sr  Sr207  1  0.25000000  0.28571429  0.69642857  1.0
  Sr  Sr208  1  0.25000000  0.61904762  0.69642857  1.0
  Sr  Sr209  1  0.25000000  0.95238095  0.69642857  1.0
  Sr  Sr210  1  0.58333333  0.28571429  0.69642857  1.0
  Sr  Sr211  1  0.58333333  0.61904762  0.69642857  1.0
  Sr  Sr212  1  0.58333333  0.95238095  0.69642857  1.0
  Sr  Sr213  1  0.91666667  0.28571429  0.69642857  1.0
  Sr  Sr214  1  0.91666667  0.61904762  0.69642857  1.0
  Sr  Sr215  1  0.91666667  0.95238095  0.69642857  1.0
