# generated using pymatgen
data_Sr3Ni
_symmetry_space_group_name_H-M   'P 1'
_cell_length_a   15.74422200
_cell_length_b   35.20515064
_cell_length_c   36.73651800
_cell_angle_alpha   116.56505118
_cell_angle_beta   90.00000000
_cell_angle_gamma   90.00000000
_symmetry_Int_Tables_number   1
_chemical_formula_structural   Sr3Ni
_chemical_formula_sum   'Sr162 Ni54'
_cell_volume   18212.53483880
_cell_formula_units_Z   54
loop_
 _symmetry_equiv_pos_site_id
 _symmetry_equiv_pos_as_xyz
  1  'x, y, z'
loop_
 _atom_site_type_symbol
 _atom_site_label
 _atom_site_symmetry_multiplicity
 _atom_site_fract_x
 _atom_site_fract_y
 _atom_site_fract_z
 _atom_site_occupancy
  Sr  Sr0  1  0.16666667  0.08333333  0.01785714  1.0
  Sr  Sr1  1  0.16666667  0.41666667  0.01785714  1.0
  Sr  Sr2  1  0.16666667  0.75000000  0.01785714  1.0
  Sr  Sr3  1  0.50000000  0.08333333  0.01785714  1.0
  Sr  Sr4  1  0.50000000  0.41666667  0.01785714  1.0
  Sr  Sr5  1  0.50000000  0.75000000  0.01785714  1.0
  Sr  Sr6  1  0.83333333  0.08333333  0.01785714  1.0
  Sr  Sr7  1  0.83333333  0.41666667  0.01785714  1.0
  Sr  Sr8  1  0.83333333  0.75000000  0.01785714  1.0
  Sr  Sr9  1  0.16666667  0.25000000  0.08928571  1.0
  Sr  Sr10  1  0.16666667  0.58333333  0.08928571  1.0
  Sr  Sr11  1  0.16666667  0.91666667  0.08928571  1.0
  Sr  Sr12  1  0.50000000  0.25000000  0.08928571  1.0
  Sr  Sr13  1  0.50000000  0.58333333  0.08928571  1.0
  Sr  Sr14  1  0.50000000  0.91666667  0.08928571  1.0
  Sr  Sr15  1  0.83333333  0.25000000  0.08928571  1.0
  Sr  Sr16  1  0.83333333  0.58333333  0.08928571  1.0
  Sr  Sr17  1  0.83333333  0.91666667  0.08928571  1.0
  Sr  Sr18  1  0.16666667  0.16666667  0.12500000  1.0
  Sr  Sr19  1  0.16666667  0.50000000  0.12500000  1.0
  Sr  Sr20  1  0.16666667  0.83333333  0.12500000  1.0
  Sr  Sr21  1  0.50000000  0.16666667  0.12500000  1.0
  Sr  Sr22  1  0.50000000  0.50000000  0.12500000  1.0
  Sr  Sr23  1  0.50000000  0.83333333  0.12500000  1.0
  Sr  Sr24  1  0.83333333  0.16666667  0.12500000  1.0
  Sr  Sr25  1  0.83333333  0.50000000  0.12500000  1.0
  Sr  Sr26  1  0.83333333  0.83333333  0.12500000  1.0
  Sr  Sr27  1  0.16666667  0.00000000  0.05357143  1.0
  Sr  Sr28  1  0.16666667  0.33333333  0.05357143  1.0
  Sr  Sr29  1  0.16666667  0.66666667  0.05357143  1.0
  Sr  Sr30  1  0.50000000  0.00000000  0.05357143  1.0
  Sr  Sr31  1  0.50000000  0.33333333  0.05357143  1.0
  Sr  Sr32  1  0.50000000  0.66666667  0.05357143  1.0
  Sr  Sr33  1  0.83333333  0.00000000  0.05357143  1.0
  Sr  Sr34  1  0.83333333  0.33333333  0.05357143  1.0
  Sr  Sr35  1  0.83333333  0.66666667  0.05357143  1.0
  Sr  Sr36  1  0.00000000  0.08333333  0.08928571  1.0
  Sr  Sr37  1  0.00000000  0.41666667  0.08928571  1.0
  Sr  Sr38  1  0.00000000  0.75000000  0.08928571  1.0
  Sr  Sr39  1  0.33333333  0.08333333  0.08928571  1.0
  Sr  Sr40  1  0.33333333  0.41666667  0.08928571  1.0
  Sr  Sr41  1  0.33333333  0.75000000  0.08928571  1.0
  Sr  Sr42  1  0.66666667  0.08333333  0.08928571  1.0
  Sr  Sr43  1  0.66666667  0.41666667  0.08928571  1.0
  Sr  Sr44  1  0.66666667  0.75000000  0.08928571  1.0
  Sr  Sr45  1  0.00000000  0.25000000  0.01785714  1.0
  Sr  Sr46  1  0.00000000  0.58333333  0.01785714  1.0
  Sr  Sr47  1  0.00000000  0.91666667  0.01785714  1.0
  Sr  Sr48  1  0.33333333  0.25000000  0.01785714  1.0
  Sr  Sr49  1  0.33333333  0.58333333  0.01785714  1.0
  Sr  Sr50  1  0.33333333  0.91666667  0.01785714  1.0
  Sr  Sr51  1  0.66666667  0.25000000  0.01785714  1.0
  Sr  Sr52  1  0.66666667  0.58333333  0.01785714  1.0
  Sr  Sr53  1  0.66666667  0.91666667  0.01785714  1.0
  Ni  Ni54  1  0.00000000  0.16666667  0.05357143  1.0
  Ni  Ni55  1  0.00000000  0.50000000  0.05357143  1.0
  Ni  Ni56  1  0.00000000  0.83333333  0.05357143  1.0
  Ni  Ni57  1  0.33333333  0.16666667  0.05357143  1.0
  Ni  Ni58  1  0.33333333  0.50000000  0.05357143  1.0
  Ni  Ni59  1  0.33333333  0.83333333  0.05357143  1.0
  Ni  Ni60  1  0.66666667  0.16666667  0.05357143  1.0
  Ni  Ni61  1  0.66666667  0.50000000  0.05357143  1.0
  Ni  Ni62  1  0.66666667  0.83333333  0.05357143  1.0
  Ni  Ni63  1  0.00000000  0.00000000  0.12500000  1.0
  Ni  Ni64  1  0.00000000  0.33333333  0.12500000  1.0
  Ni  Ni65  1  0.00000000  0.66666667  0.12500000  1.0
  Ni  Ni66  1  0.33333333  0.00000000  0.12500000  1.0
  Ni  Ni67  1  0.33333333  0.33333333  0.12500000  1.0
  Ni  Ni68  1  0.33333333  0.66666667  0.12500000  1.0
  Ni  Ni69  1  0.66666667  0.00000000  0.12500000  1.0
  Ni  Ni70  1  0.66666667  0.33333333  0.12500000  1.0
  Ni  Ni71  1  0.66666667  0.66666667  0.12500000  1.0
  Sr  Sr72  1  0.16666667  0.08333333  0.16071429  1.0
  Sr  Sr73  1  0.16666667  0.41666667  0.16071429  1.0
  Sr  Sr74  1  0.16666667  0.75000000  0.16071429  1.0
  Sr  Sr75  1  0.50000000  0.08333333  0.16071429  1.0
  Sr  Sr76  1  0.50000000  0.41666667  0.16071429  1.0
  Sr  Sr77  1  0.50000000  0.75000000  0.16071429  1.0
  Sr  Sr78  1  0.83333333  0.08333333  0.16071429  1.0
  Sr  Sr79  1  0.83333333  0.41666667  0.16071429  1.0
  Sr  Sr80  1  0.83333333  0.75000000  0.16071429  1.0
  Sr  Sr81  1  0.16666667  0.25000000  0.23214286  1.0
  Sr  Sr82  1  0.16666667  0.58333333  0.23214286  1.0
  Sr  Sr83  1  0.16666667  0.91666667  0.23214286  1.0
  Sr  Sr84  1  0.50000000  0.25000000  0.23214286  1.0
  Sr  Sr85  1  0.50000000  0.58333333  0.23214286  1.0
  Sr  Sr86  1  0.50000000  0.91666667  0.23214286  1.0
  Sr  Sr87  1  0.83333333  0.25000000  0.23214286  1.0
  Sr  Sr88  1  0.83333333  0.58333333  0.23214286  1.0
  Sr  Sr89  1  0.83333333  0.91666667  0.23214286  1.0
  Sr  Sr90  1  0.16666667  0.16666667  0.26785714  1.0
  Sr  Sr91  1  0.16666667  0.50000000  0.26785714  1.0
  Sr  Sr92  1  0.16666667  0.83333333  0.26785714  1.0
  Sr  Sr93  1  0.50000000  0.16666667  0.26785714  1.0
  Sr  Sr94  1  0.50000000  0.50000000  0.26785714  1.0
  Sr  Sr95  1  0.50000000  0.83333333  0.26785714  1.0
  Sr  Sr96  1  0.83333333  0.16666667  0.26785714  1.0
  Sr  Sr97  1  0.83333333  0.50000000  0.26785714  1.0
  Sr  Sr98  1  0.83333333  0.83333333  0.26785714  1.0
  Sr  Sr99  1  0.16666667  0.00000000  0.19642857  1.0
  Sr  Sr100  1  0.16666667  0.33333333  0.19642857  1.0
  Sr  Sr101  1  0.16666667  0.66666667  0.19642857  1.0
  Sr  Sr102  1  0.50000000  0.00000000  0.19642857  1.0
  Sr  Sr103  1  0.50000000  0.33333333  0.19642857  1.0
  Sr  Sr104  1  0.50000000  0.66666667  0.19642857  1.0
  Sr  Sr105  1  0.83333333  0.00000000  0.19642857  1.0
  Sr  Sr106  1  0.83333333  0.33333333  0.19642857  1.0
  Sr  Sr107  1  0.83333333  0.66666667  0.19642857  1.0
  Sr  Sr108  1  0.00000000  0.08333333  0.23214286  1.0
  Sr  Sr109  1  0.00000000  0.41666667  0.23214286  1.0
  Sr  Sr110  1  0.00000000  0.75000000  0.23214286  1.0
  Sr  Sr111  1  0.33333333  0.08333333  0.23214286  1.0
  Sr  Sr112  1  0.33333333  0.41666667  0.23214286  1.0
  Sr  Sr113  1  0.33333333  0.75000000  0.23214286  1.0
  Sr  Sr114  1  0.66666667  0.08333333  0.23214286  1.0
  Sr  Sr115  1  0.66666667  0.41666667  0.23214286  1.0
  Sr  Sr116  1  0.66666667  0.75000000  0.23214286  1.0
  Sr  Sr117  1  0.00000000  0.25000000  0.16071429  1.0
  Sr  Sr118  1  0.00000000  0.58333333  0.16071429  1.0
  Sr  Sr119  1  0.00000000  0.91666667  0.16071429  1.0
  Sr  Sr120  1  0.33333333  0.25000000  0.16071429  1.0
  Sr  Sr121  1  0.33333333  0.58333333  0.16071429  1.0
  Sr  Sr122  1  0.33333333  0.91666667  0.16071429  1.0
  Sr  Sr123  1  0.66666667  0.25000000  0.16071429  1.0
  Sr  Sr124  1  0.66666667  0.58333333  0.16071429  1.0
  Sr  Sr125  1  0.66666667  0.91666667  0.16071429  1.0
  Ni  Ni126  1  0.00000000  0.16666667  0.19642857  1.0
  Ni  Ni127  1  0.00000000  0.50000000  0.19642857  1.0
  Ni  Ni128  1  0.00000000  0.83333333  0.19642857  1.0
  Ni  Ni129  1  0.33333333  0.16666667  0.19642857  1.0
  Ni  Ni130  1  0.33333333  0.50000000  0.19642857  1.0
  Ni  Ni131  1  0.33333333  0.83333333  0.19642857  1.0
  Ni  Ni132  1  0.66666667  0.16666667  0.19642857  1.0
  Ni  Ni133  1  0.66666667  0.50000000  0.19642857  1.0
  Ni  Ni134  1  0.66666667  0.83333333  0.19642857  1.0
  Ni  Ni135  1  0.00000000  0.00000000  0.26785714  1.0
  Ni  Ni136  1  0.00000000  0.33333333  0.26785714  1.0
  Ni  Ni137  1  0.00000000  0.66666667  0.26785714  1.0
  Ni  Ni138  1  0.33333333  0.00000000  0.26785714  1.0
  Ni  Ni139  1  0.33333333  0.33333333  0.26785714  1.0
  Ni  Ni140  1  0.33333333  0.66666667  0.26785714  1.0
  Ni  Ni141  1  0.66666667  0.00000000  0.26785714  1.0
  Ni  Ni142  1  0.66666667  0.33333333  0.26785714  1.0
  Ni  Ni143  1  0.66666667  0.66666667  0.26785714  1.0
  Sr  Sr144  1  0.16666667  0.08333333  0.30357143  1.0
  Sr  Sr145  1  0.16666667  0.41666667  0.30357143  1.0
  Sr  Sr146  1  0.16666667  0.75000000  0.30357143  1.0
  Sr  Sr147  1  0.50000000  0.08333333  0.30357143  1.0
  Sr  Sr148  1  0.50000000  0.41666667  0.30357143  1.0
  Sr  Sr149  1  0.50000000  0.75000000  0.30357143  1.0
  Sr  Sr150  1  0.83333333  0.08333333  0.30357143  1.0
  Sr  Sr151  1  0.83333333  0.41666667  0.30357143  1.0
  Sr  Sr152  1  0.83333333  0.75000000  0.30357143  1.0
  Sr  Sr153  1  0.16666667  0.25000000  0.37500000  1.0
  Sr  Sr154  1  0.16666667  0.58333333  0.37500000  1.0
  Sr  Sr155  1  0.16666667  0.91666667  0.37500000  1.0
  Sr  Sr156  1  0.50000000  0.25000000  0.37500000  1.0
  Sr  Sr157  1  0.50000000  0.58333333  0.37500000  1.0
  Sr  Sr158  1  0.50000000  0.91666667  0.37500000  1.0
  Sr  Sr159  1  0.83333333  0.25000000  0.37500000  1.0
  Sr  Sr160  1  0.83333333  0.58333333  0.37500000  1.0
  Sr  Sr161  1  0.83333333  0.91666667  0.37500000  1.0
  Sr  Sr162  1  0.16666667  0.16666667  0.41071429  1.0
  Sr  Sr163  1  0.16666667  0.50000000  0.41071429  1.0
  Sr  Sr164  1  0.16666667  0.83333333  0.41071429  1.0
  Sr  Sr165  1  0.50000000  0.16666667  0.41071429  1.0
  Sr  Sr166  1  0.50000000  0.50000000  0.41071429  1.0
  Sr  Sr167  1  0.50000000  0.83333333  0.41071429  1.0
  Sr  Sr168  1  0.83333333  0.16666667  0.41071429  1.0
  Sr  Sr169  1  0.83333333  0.50000000  0.41071429  1.0
  Sr  Sr170  1  0.83333333  0.83333333  0.41071429  1.0
  Sr  Sr171  1  0.16666667  0.00000000  0.33928571  1.0
  Sr  Sr172  1  0.16666667  0.33333333  0.33928571  1.0
  Sr  Sr173  1  0.16666667  0.66666667  0.33928571  1.0
  Sr  Sr174  1  0.50000000  0.00000000  0.33928571  1.0
  Sr  Sr175  1  0.50000000  0.33333333  0.33928571  1.0
  Sr  Sr176  1  0.50000000  0.66666667  0.33928571  1.0
  Sr  Sr177  1  0.83333333  0.00000000  0.33928571  1.0
  Sr  Sr178  1  0.83333333  0.33333333  0.33928571  1.0
  Sr  Sr179  1  0.83333333  0.66666667  0.33928571  1.0
  Sr  Sr180  1  0.00000000  0.08333333  0.37500000  1.0
  Sr  Sr181  1  0.00000000  0.41666667  0.37500000  1.0
  Sr  Sr182  1  0.00000000  0.75000000  0.37500000  1.0
  Sr  Sr183  1  0.33333333  0.08333333  0.37500000  1.0
  Sr  Sr184  1  0.33333333  0.41666667  0.37500000  1.0
  Sr  Sr185  1  0.33333333  0.75000000  0.37500000  1.0
  Sr  Sr186  1  0.66666667  0.08333333  0.37500000  1.0
  Sr  Sr187  1  0.66666667  0.41666667  0.37500000  1.0
  Sr  Sr188  1  0.66666667  0.75000000  0.37500000  1.0
  Sr  Sr189  1  0.00000000  0.25000000  0.30357143  1.0
  Sr  Sr190  1  0.00000000  0.58333333  0.30357143  1.0
  Sr  Sr191  1  0.00000000  0.91666667  0.30357143  1.0
  Sr  Sr192  1  0.33333333  0.25000000  0.30357143  1.0
  Sr  Sr193  1  0.33333333  0.58333333  0.30357143  1.0
  Sr  Sr194  1  0.33333333  0.91666667  0.30357143  1.0
  Sr  Sr195  1  0.66666667  0.25000000  0.30357143  1.0
  Sr  Sr196  1  0.66666667  0.58333333  0.30357143  1.0
  Sr  Sr197  1  0.66666667  0.91666667  0.30357143  1.0
  Ni  Ni198  1  0.00000000  0.16666667  0.33928571  1.0
  Ni  Ni199  1  0.00000000  0.50000000  0.33928571  1.0
  Ni  Ni200  1  0.00000000  0.83333333  0.33928571  1.0
  Ni  Ni201  1  0.33333333  0.16666667  0.33928571  1.0
  Ni  Ni202  1  0.33333333  0.50000000  0.33928571  1.0
  Ni  Ni203  1  0.33333333  0.83333333  0.33928571  1.0
  Ni  Ni204  1  0.66666667  0.16666667  0.33928571  1.0
  Ni  Ni205  1  0.66666667  0.50000000  0.33928571  1.0
  Ni  Ni206  1  0.66666667  0.83333333  0.33928571  1.0
  Ni  Ni207  1  0.00000000  0.00000000  0.41071429  1.0
  Ni  Ni208  1  0.00000000  0.33333333  0.41071429  1.0
  Ni  Ni209  1  0.00000000  0.66666667  0.41071429  1.0
  Ni  Ni210  1  0.33333333  0.00000000  0.41071429  1.0
  Ni  Ni211  1  0.33333333  0.33333333  0.41071429  1.0
  Ni  Ni212  1  0.33333333  0.66666667  0.41071429  1.0
  Ni  Ni213  1  0.66666667  0.00000000  0.41071429  1.0
  Ni  Ni214  1  0.66666667  0.33333333  0.41071429  1.0
  Ni  Ni215  1  0.66666667  0.66666667  0.41071429  1.0
