# generated using pymatgen
data_Ta2Ni
_symmetry_space_group_name_H-M   'P 1'
_cell_length_a   26.42569479
_cell_length_b   36.78538697
_cell_length_c   50.32587680
_cell_angle_alpha   52.94386231
_cell_angle_beta   90.00000000
_cell_angle_gamma   44.07953707
_symmetry_Int_Tables_number   1
_chemical_formula_structural   Ta2Ni
_chemical_formula_sum   'Ta288 Ni144'
_cell_volume   17004.04130294
_cell_formula_units_Z   144
loop_
 _symmetry_equiv_pos_site_id
 _symmetry_equiv_pos_as_xyz
  1  'x, y, z'
loop_
 _atom_site_type_symbol
 _atom_site_label
 _atom_site_symmetry_multiplicity
 _atom_site_fract_x
 _atom_site_fract_y
 _atom_site_fract_z
 _atom_site_occupancy
  Ta  Ta0  1  0.21955667  0.03044333  0.07260100  1.0
  Ta  Ta1  1  0.21955667  0.36377667  0.07260100  1.0
  Ta  Ta2  1  0.21955667  0.69711000  0.07260100  1.0
  Ta  Ta3  1  0.55289000  0.03044333  0.07260100  1.0
  Ta  Ta4  1  0.55289000  0.36377667  0.07260100  1.0
  Ta  Ta5  1  0.55289000  0.69711000  0.07260100  1.0
  Ta  Ta6  1  0.88622333  0.03044333  0.07260100  1.0
  Ta  Ta7  1  0.88622333  0.36377667  0.07260100  1.0
  Ta  Ta8  1  0.88622333  0.69711000  0.07260100  1.0
  Ta  Ta9  1  0.21955667  0.19711000  0.02260100  1.0
  Ta  Ta10  1  0.21955667  0.53044333  0.02260100  1.0
  Ta  Ta11  1  0.21955667  0.86377667  0.02260100  1.0
  Ta  Ta12  1  0.55289000  0.19711000  0.02260100  1.0
  Ta  Ta13  1  0.55289000  0.53044333  0.02260100  1.0
  Ta  Ta14  1  0.55289000  0.86377667  0.02260100  1.0
  Ta  Ta15  1  0.88622333  0.19711000  0.02260100  1.0
  Ta  Ta16  1  0.88622333  0.53044333  0.02260100  1.0
  Ta  Ta17  1  0.88622333  0.86377667  0.02260100  1.0
  Ta  Ta18  1  0.28044333  0.25000000  0.07500000  1.0
  Ta  Ta19  1  0.28044333  0.58333333  0.07500000  1.0
  Ta  Ta20  1  0.28044333  0.91666667  0.07500000  1.0
  Ta  Ta21  1  0.61377667  0.25000000  0.07500000  1.0
  Ta  Ta22  1  0.61377667  0.58333333  0.07500000  1.0
  Ta  Ta23  1  0.61377667  0.91666667  0.07500000  1.0
  Ta  Ta24  1  0.94711000  0.25000000  0.07500000  1.0
  Ta  Ta25  1  0.94711000  0.58333333  0.07500000  1.0
  Ta  Ta26  1  0.94711000  0.91666667  0.07500000  1.0
  Ta  Ta27  1  0.28044333  0.08333333  0.02500000  1.0
  Ta  Ta28  1  0.28044333  0.41666667  0.02500000  1.0
  Ta  Ta29  1  0.28044333  0.75000000  0.02500000  1.0
  Ta  Ta30  1  0.61377667  0.08333333  0.02500000  1.0
  Ta  Ta31  1  0.61377667  0.41666667  0.02500000  1.0
  Ta  Ta32  1  0.61377667  0.75000000  0.02500000  1.0
  Ta  Ta33  1  0.94711000  0.08333333  0.02500000  1.0
  Ta  Ta34  1  0.94711000  0.41666667  0.02500000  1.0
  Ta  Ta35  1  0.94711000  0.75000000  0.02500000  1.0
  Ta  Ta36  1  0.05289000  0.08333333  0.02500000  1.0
  Ta  Ta37  1  0.05289000  0.41666667  0.02500000  1.0
  Ta  Ta38  1  0.05289000  0.75000000  0.02500000  1.0
  Ta  Ta39  1  0.38622333  0.08333333  0.02500000  1.0
  Ta  Ta40  1  0.38622333  0.41666667  0.02500000  1.0
  Ta  Ta41  1  0.38622333  0.75000000  0.02500000  1.0
  Ta  Ta42  1  0.71955667  0.08333333  0.02500000  1.0
  Ta  Ta43  1  0.71955667  0.41666667  0.02500000  1.0
  Ta  Ta44  1  0.71955667  0.75000000  0.02500000  1.0
  Ta  Ta45  1  0.05289000  0.25000000  0.07500000  1.0
  Ta  Ta46  1  0.05289000  0.58333333  0.07500000  1.0
  Ta  Ta47  1  0.05289000  0.91666667  0.07500000  1.0
  Ta  Ta48  1  0.38622333  0.25000000  0.07500000  1.0
  Ta  Ta49  1  0.38622333  0.58333333  0.07500000  1.0
  Ta  Ta50  1  0.38622333  0.91666667  0.07500000  1.0
  Ta  Ta51  1  0.71955667  0.25000000  0.07500000  1.0
  Ta  Ta52  1  0.71955667  0.58333333  0.07500000  1.0
  Ta  Ta53  1  0.71955667  0.91666667  0.07500000  1.0
  Ta  Ta54  1  0.11377667  0.30289000  0.02739900  1.0
  Ta  Ta55  1  0.11377667  0.63622333  0.02739900  1.0
  Ta  Ta56  1  0.11377667  0.96955667  0.02739900  1.0
  Ta  Ta57  1  0.44711000  0.30289000  0.02739900  1.0
  Ta  Ta58  1  0.44711000  0.63622333  0.02739900  1.0
  Ta  Ta59  1  0.44711000  0.96955667  0.02739900  1.0
  Ta  Ta60  1  0.78044333  0.30289000  0.02739900  1.0
  Ta  Ta61  1  0.78044333  0.63622333  0.02739900  1.0
  Ta  Ta62  1  0.78044333  0.96955667  0.02739900  1.0
  Ta  Ta63  1  0.11377667  0.13622333  0.07739900  1.0
  Ta  Ta64  1  0.11377667  0.46955667  0.07739900  1.0
  Ta  Ta65  1  0.11377667  0.80289000  0.07739900  1.0
  Ta  Ta66  1  0.44711000  0.13622333  0.07739900  1.0
  Ta  Ta67  1  0.44711000  0.46955667  0.07739900  1.0
  Ta  Ta68  1  0.44711000  0.80289000  0.07739900  1.0
  Ta  Ta69  1  0.78044333  0.13622333  0.07739900  1.0
  Ta  Ta70  1  0.78044333  0.46955667  0.07739900  1.0
  Ta  Ta71  1  0.78044333  0.80289000  0.07739900  1.0
  Ni  Ni72  1  0.25000000  0.25000000  0.02500000  1.0
  Ni  Ni73  1  0.25000000  0.58333333  0.02500000  1.0
  Ni  Ni74  1  0.25000000  0.91666667  0.02500000  1.0
  Ni  Ni75  1  0.58333333  0.25000000  0.02500000  1.0
  Ni  Ni76  1  0.58333333  0.58333333  0.02500000  1.0
  Ni  Ni77  1  0.58333333  0.91666667  0.02500000  1.0
  Ni  Ni78  1  0.91666667  0.25000000  0.02500000  1.0
  Ni  Ni79  1  0.91666667  0.58333333  0.02500000  1.0
  Ni  Ni80  1  0.91666667  0.91666667  0.02500000  1.0
  Ni  Ni81  1  0.25000000  0.08333333  0.07500000  1.0
  Ni  Ni82  1  0.25000000  0.41666667  0.07500000  1.0
  Ni  Ni83  1  0.25000000  0.75000000  0.07500000  1.0
  Ni  Ni84  1  0.58333333  0.08333333  0.07500000  1.0
  Ni  Ni85  1  0.58333333  0.41666667  0.07500000  1.0
  Ni  Ni86  1  0.58333333  0.75000000  0.07500000  1.0
  Ni  Ni87  1  0.91666667  0.08333333  0.07500000  1.0
  Ni  Ni88  1  0.91666667  0.41666667  0.07500000  1.0
  Ni  Ni89  1  0.91666667  0.75000000  0.07500000  1.0
  Ni  Ni90  1  0.08333333  0.08333333  0.07500000  1.0
  Ni  Ni91  1  0.08333333  0.41666667  0.07500000  1.0
  Ni  Ni92  1  0.08333333  0.75000000  0.07500000  1.0
  Ni  Ni93  1  0.41666667  0.08333333  0.07500000  1.0
  Ni  Ni94  1  0.41666667  0.41666667  0.07500000  1.0
  Ni  Ni95  1  0.41666667  0.75000000  0.07500000  1.0
  Ni  Ni96  1  0.75000000  0.08333333  0.07500000  1.0
  Ni  Ni97  1  0.75000000  0.41666667  0.07500000  1.0
  Ni  Ni98  1  0.75000000  0.75000000  0.07500000  1.0
  Ni  Ni99  1  0.08333333  0.25000000  0.02500000  1.0
  Ni  Ni100  1  0.08333333  0.58333333  0.02500000  1.0
  Ni  Ni101  1  0.08333333  0.91666667  0.02500000  1.0
  Ni  Ni102  1  0.41666667  0.25000000  0.02500000  1.0
  Ni  Ni103  1  0.41666667  0.58333333  0.02500000  1.0
  Ni  Ni104  1  0.41666667  0.91666667  0.02500000  1.0
  Ni  Ni105  1  0.75000000  0.25000000  0.02500000  1.0
  Ni  Ni106  1  0.75000000  0.58333333  0.02500000  1.0
  Ni  Ni107  1  0.75000000  0.91666667  0.02500000  1.0
  Ta  Ta108  1  0.21955667  0.03044333  0.17260100  1.0
  Ta  Ta109  1  0.21955667  0.36377667  0.17260100  1.0
  Ta  Ta110  1  0.21955667  0.69711000  0.17260100  1.0
  Ta  Ta111  1  0.55289000  0.03044333  0.17260100  1.0
  Ta  Ta112  1  0.55289000  0.36377667  0.17260100  1.0
  Ta  Ta113  1  0.55289000  0.69711000  0.17260100  1.0
  Ta  Ta114  1  0.88622333  0.03044333  0.17260100  1.0
  Ta  Ta115  1  0.88622333  0.36377667  0.17260100  1.0
  Ta  Ta116  1  0.88622333  0.69711000  0.17260100  1.0
  Ta  Ta117  1  0.21955667  0.19711000  0.12260100  1.0
  Ta  Ta118  1  0.21955667  0.53044333  0.12260100  1.0
  Ta  Ta119  1  0.21955667  0.86377667  0.12260100  1.0
  Ta  Ta120  1  0.55289000  0.19711000  0.12260100  1.0
  Ta  Ta121  1  0.55289000  0.53044333  0.12260100  1.0
  Ta  Ta122  1  0.55289000  0.86377667  0.12260100  1.0
  Ta  Ta123  1  0.88622333  0.19711000  0.12260100  1.0
  Ta  Ta124  1  0.88622333  0.53044333  0.12260100  1.0
  Ta  Ta125  1  0.88622333  0.86377667  0.12260100  1.0
  Ta  Ta126  1  0.28044333  0.25000000  0.17500000  1.0
  Ta  Ta127  1  0.28044333  0.58333333  0.17500000  1.0
  Ta  Ta128  1  0.28044333  0.91666667  0.17500000  1.0
  Ta  Ta129  1  0.61377667  0.25000000  0.17500000  1.0
  Ta  Ta130  1  0.61377667  0.58333333  0.17500000  1.0
  Ta  Ta131  1  0.61377667  0.91666667  0.17500000  1.0
  Ta  Ta132  1  0.94711000  0.25000000  0.17500000  1.0
  Ta  Ta133  1  0.94711000  0.58333333  0.17500000  1.0
  Ta  Ta134  1  0.94711000  0.91666667  0.17500000  1.0
  Ta  Ta135  1  0.28044333  0.08333333  0.12500000  1.0
  Ta  Ta136  1  0.28044333  0.41666667  0.12500000  1.0
  Ta  Ta137  1  0.28044333  0.75000000  0.12500000  1.0
  Ta  Ta138  1  0.61377667  0.08333333  0.12500000  1.0
  Ta  Ta139  1  0.61377667  0.41666667  0.12500000  1.0
  Ta  Ta140  1  0.61377667  0.75000000  0.12500000  1.0
  Ta  Ta141  1  0.94711000  0.08333333  0.12500000  1.0
  Ta  Ta142  1  0.94711000  0.41666667  0.12500000  1.0
  Ta  Ta143  1  0.94711000  0.75000000  0.12500000  1.0
  Ta  Ta144  1  0.05289000  0.08333333  0.12500000  1.0
  Ta  Ta145  1  0.05289000  0.41666667  0.12500000  1.0
  Ta  Ta146  1  0.05289000  0.75000000  0.12500000  1.0
  Ta  Ta147  1  0.38622333  0.08333333  0.12500000  1.0
  Ta  Ta148  1  0.38622333  0.41666667  0.12500000  1.0
  Ta  Ta149  1  0.38622333  0.75000000  0.12500000  1.0
  Ta  Ta150  1  0.71955667  0.08333333  0.12500000  1.0
  Ta  Ta151  1  0.71955667  0.41666667  0.12500000  1.0
  Ta  Ta152  1  0.71955667  0.75000000  0.12500000  1.0
  Ta  Ta153  1  0.05289000  0.25000000  0.17500000  1.0
  Ta  Ta154  1  0.05289000  0.58333333  0.17500000  1.0
  Ta  Ta155  1  0.05289000  0.91666667  0.17500000  1.0
  Ta  Ta156  1  0.38622333  0.25000000  0.17500000  1.0
  Ta  Ta157  1  0.38622333  0.58333333  0.17500000  1.0
  Ta  Ta158  1  0.38622333  0.91666667  0.17500000  1.0
  Ta  Ta159  1  0.71955667  0.25000000  0.17500000  1.0
  Ta  Ta160  1  0.71955667  0.58333333  0.17500000  1.0
  Ta  Ta161  1  0.71955667  0.91666667  0.17500000  1.0
  Ta  Ta162  1  0.11377667  0.30289000  0.12739900  1.0
  Ta  Ta163  1  0.11377667  0.63622333  0.12739900  1.0
  Ta  Ta164  1  0.11377667  0.96955667  0.12739900  1.0
  Ta  Ta165  1  0.44711000  0.30289000  0.12739900  1.0
  Ta  Ta166  1  0.44711000  0.63622333  0.12739900  1.0
  Ta  Ta167  1  0.44711000  0.96955667  0.12739900  1.0
  Ta  Ta168  1  0.78044333  0.30289000  0.12739900  1.0
  Ta  Ta169  1  0.78044333  0.63622333  0.12739900  1.0
  Ta  Ta170  1  0.78044333  0.96955667  0.12739900  1.0
  Ta  Ta171  1  0.11377667  0.13622333  0.17739900  1.0
  Ta  Ta172  1  0.11377667  0.46955667  0.17739900  1.0
  Ta  Ta173  1  0.11377667  0.80289000  0.17739900  1.0
  Ta  Ta174  1  0.44711000  0.13622333  0.17739900  1.0
  Ta  Ta175  1  0.44711000  0.46955667  0.17739900  1.0
  Ta  Ta176  1  0.44711000  0.80289000  0.17739900  1.0
  Ta  Ta177  1  0.78044333  0.13622333  0.17739900  1.0
  Ta  Ta178  1  0.78044333  0.46955667  0.17739900  1.0
  Ta  Ta179  1  0.78044333  0.80289000  0.17739900  1.0
  Ni  Ni180  1  0.25000000  0.25000000  0.12500000  1.0
  Ni  Ni181  1  0.25000000  0.58333333  0.12500000  1.0
  Ni  Ni182  1  0.25000000  0.91666667  0.12500000  1.0
  Ni  Ni183  1  0.58333333  0.25000000  0.12500000  1.0
  Ni  Ni184  1  0.58333333  0.58333333  0.12500000  1.0
  Ni  Ni185  1  0.58333333  0.91666667  0.12500000  1.0
  Ni  Ni186  1  0.91666667  0.25000000  0.12500000  1.0
  Ni  Ni187  1  0.91666667  0.58333333  0.12500000  1.0
  Ni  Ni188  1  0.91666667  0.91666667  0.12500000  1.0
  Ni  Ni189  1  0.25000000  0.08333333  0.17500000  1.0
  Ni  Ni190  1  0.25000000  0.41666667  0.17500000  1.0
  Ni  Ni191  1  0.25000000  0.75000000  0.17500000  1.0
  Ni  Ni192  1  0.58333333  0.08333333  0.17500000  1.0
  Ni  Ni193  1  0.58333333  0.41666667  0.17500000  1.0
  Ni  Ni194  1  0.58333333  0.75000000  0.17500000  1.0
  Ni  Ni195  1  0.91666667  0.08333333  0.17500000  1.0
  Ni  Ni196  1  0.91666667  0.41666667  0.17500000  1.0
  Ni  Ni197  1  0.91666667  0.75000000  0.17500000  1.0
  Ni  Ni198  1  0.08333333  0.08333333  0.17500000  1.0
  Ni  Ni199  1  0.08333333  0.41666667  0.17500000  1.0
  Ni  Ni200  1  0.08333333  0.75000000  0.17500000  1.0
  Ni  Ni201  1  0.41666667  0.08333333  0.17500000  1.0
  Ni  Ni202  1  0.41666667  0.41666667  0.17500000  1.0
  Ni  Ni203  1  0.41666667  0.75000000  0.17500000  1.0
  Ni  Ni204  1  0.75000000  0.08333333  0.17500000  1.0
  Ni  Ni205  1  0.75000000  0.41666667  0.17500000  1.0
  Ni  Ni206  1  0.75000000  0.75000000  0.17500000  1.0
  Ni  Ni207  1  0.08333333  0.25000000  0.12500000  1.0
  Ni  Ni208  1  0.08333333  0.58333333  0.12500000  1.0
  Ni  Ni209  1  0.08333333  0.91666667  0.12500000  1.0
  Ni  Ni210  1  0.41666667  0.25000000  0.12500000  1.0
  Ni  Ni211  1  0.41666667  0.58333333  0.12500000  1.0
  Ni  Ni212  1  0.41666667  0.91666667  0.12500000  1.0
  Ni  Ni213  1  0.75000000  0.25000000  0.12500000  1.0
  Ni  Ni214  1  0.75000000  0.58333333  0.12500000  1.0
  Ni  Ni215  1  0.75000000  0.91666667  0.12500000  1.0
  Ta  Ta216  1  0.21955667  0.03044333  0.27260100  1.0
  Ta  Ta217  1  0.21955667  0.36377667  0.27260100  1.0
  Ta  Ta218  1  0.21955667  0.69711000  0.27260100  1.0
  Ta  Ta219  1  0.55289000  0.03044333  0.27260100  1.0
  Ta  Ta220  1  0.55289000  0.36377667  0.27260100  1.0
  Ta  Ta221  1  0.55289000  0.69711000  0.27260100  1.0
  Ta  Ta222  1  0.88622333  0.03044333  0.27260100  1.0
  Ta  Ta223  1  0.88622333  0.36377667  0.27260100  1.0
  Ta  Ta224  1  0.88622333  0.69711000  0.27260100  1.0
  Ta  Ta225  1  0.21955667  0.19711000  0.22260100  1.0
  Ta  Ta226  1  0.21955667  0.53044333  0.22260100  1.0
  Ta  Ta227  1  0.21955667  0.86377667  0.22260100  1.0
  Ta  Ta228  1  0.55289000  0.19711000  0.22260100  1.0
  Ta  Ta229  1  0.55289000  0.53044333  0.22260100  1.0
  Ta  Ta230  1  0.55289000  0.86377667  0.22260100  1.0
  Ta  Ta231  1  0.88622333  0.19711000  0.22260100  1.0
  Ta  Ta232  1  0.88622333  0.53044333  0.22260100  1.0
  Ta  Ta233  1  0.88622333  0.86377667  0.22260100  1.0
  Ta  Ta234  1  0.28044333  0.25000000  0.27500000  1.0
  Ta  Ta235  1  0.28044333  0.58333333  0.27500000  1.0
  Ta  Ta236  1  0.28044333  0.91666667  0.27500000  1.0
  Ta  Ta237  1  0.61377667  0.25000000  0.27500000  1.0
  Ta  Ta238  1  0.61377667  0.58333333  0.27500000  1.0
  Ta  Ta239  1  0.61377667  0.91666667  0.27500000  1.0
  Ta  Ta240  1  0.94711000  0.25000000  0.27500000  1.0
  Ta  Ta241  1  0.94711000  0.58333333  0.27500000  1.0
  Ta  Ta242  1  0.94711000  0.91666667  0.27500000  1.0
  Ta  Ta243  1  0.28044333  0.08333333  0.22500000  1.0
  Ta  Ta244  1  0.28044333  0.41666667  0.22500000  1.0
  Ta  Ta245  1  0.28044333  0.75000000  0.22500000  1.0
  Ta  Ta246  1  0.61377667  0.08333333  0.22500000  1.0
  Ta  Ta247  1  0.61377667  0.41666667  0.22500000  1.0
  Ta  Ta248  1  0.61377667  0.75000000  0.22500000  1.0
  Ta  Ta249  1  0.94711000  0.08333333  0.22500000  1.0
  Ta  Ta250  1  0.94711000  0.41666667  0.22500000  1.0
  Ta  Ta251  1  0.94711000  0.75000000  0.22500000  1.0
  Ta  Ta252  1  0.05289000  0.08333333  0.22500000  1.0
  Ta  Ta253  1  0.05289000  0.41666667  0.22500000  1.0
  Ta  Ta254  1  0.05289000  0.75000000  0.22500000  1.0
  Ta  Ta255  1  0.38622333  0.08333333  0.22500000  1.0
  Ta  Ta256  1  0.38622333  0.41666667  0.22500000  1.0
  Ta  Ta257  1  0.38622333  0.75000000  0.22500000  1.0
  Ta  Ta258  1  0.71955667  0.08333333  0.22500000  1.0
  Ta  Ta259  1  0.71955667  0.41666667  0.22500000  1.0
  Ta  Ta260  1  0.71955667  0.75000000  0.22500000  1.0
  Ta  Ta261  1  0.05289000  0.25000000  0.27500000  1.0
  Ta  Ta262  1  0.05289000  0.58333333  0.27500000  1.0
  Ta  Ta263  1  0.05289000  0.91666667  0.27500000  1.0
  Ta  Ta264  1  0.38622333  0.25000000  0.27500000  1.0
  Ta  Ta265  1  0.38622333  0.58333333  0.27500000  1.0
  Ta  Ta266  1  0.38622333  0.91666667  0.27500000  1.0
  Ta  Ta267  1  0.71955667  0.25000000  0.27500000  1.0
  Ta  Ta268  1  0.71955667  0.58333333  0.27500000  1.0
  Ta  Ta269  1  0.71955667  0.91666667  0.27500000  1.0
  Ta  Ta270  1  0.11377667  0.30289000  0.22739900  1.0
  Ta  Ta271  1  0.11377667  0.63622333  0.22739900  1.0
  Ta  Ta272  1  0.11377667  0.96955667  0.22739900  1.0
  Ta  Ta273  1  0.44711000  0.30289000  0.22739900  1.0
  Ta  Ta274  1  0.44711000  0.63622333  0.22739900  1.0
  Ta  Ta275  1  0.44711000  0.96955667  0.22739900  1.0
  Ta  Ta276  1  0.78044333  0.30289000  0.22739900  1.0
  Ta  Ta277  1  0.78044333  0.63622333  0.22739900  1.0
  Ta  Ta278  1  0.78044333  0.96955667  0.22739900  1.0
  Ta  Ta279  1  0.11377667  0.13622333  0.27739900  1.0
  Ta  Ta280  1  0.11377667  0.46955667  0.27739900  1.0
  Ta  Ta281  1  0.11377667  0.80289000  0.27739900  1.0
  Ta  Ta282  1  0.44711000  0.13622333  0.27739900  1.0
  Ta  Ta283  1  0.44711000  0.46955667  0.27739900  1.0
  Ta  Ta284  1  0.44711000  0.80289000  0.27739900  1.0
  Ta  Ta285  1  0.78044333  0.13622333  0.27739900  1.0
  Ta  Ta286  1  0.78044333  0.46955667  0.27739900  1.0
  Ta  Ta287  1  0.78044333  0.80289000  0.27739900  1.0
  Ni  Ni288  1  0.25000000  0.25000000  0.22500000  1.0
  Ni  Ni289  1  0.25000000  0.58333333  0.22500000  1.0
  Ni  Ni290  1  0.25000000  0.91666667  0.22500000  1.0
  Ni  Ni291  1  0.58333333  0.25000000  0.22500000  1.0
  Ni  Ni292  1  0.58333333  0.58333333  0.22500000  1.0
  Ni  Ni293  1  0.58333333  0.91666667  0.22500000  1.0
  Ni  Ni294  1  0.91666667  0.25000000  0.22500000  1.0
  Ni  Ni295  1  0.91666667  0.58333333  0.22500000  1.0
  Ni  Ni296  1  0.91666667  0.91666667  0.22500000  1.0
  Ni  Ni297  1  0.25000000  0.08333333  0.27500000  1.0
  Ni  Ni298  1  0.25000000  0.41666667  0.27500000  1.0
  Ni  Ni299  1  0.25000000  0.75000000  0.27500000  1.0
  Ni  Ni300  1  0.58333333  0.08333333  0.27500000  1.0
  Ni  Ni301  1  0.58333333  0.41666667  0.27500000  1.0
  Ni  Ni302  1  0.58333333  0.75000000  0.27500000  1.0
  Ni  Ni303  1  0.91666667  0.08333333  0.27500000  1.0
  Ni  Ni304  1  0.91666667  0.41666667  0.27500000  1.0
  Ni  Ni305  1  0.91666667  0.75000000  0.27500000  1.0
  Ni  Ni306  1  0.08333333  0.08333333  0.27500000  1.0
  Ni  Ni307  1  0.08333333  0.41666667  0.27500000  1.0
  Ni  Ni308  1  0.08333333  0.75000000  0.27500000  1.0
  Ni  Ni309  1  0.41666667  0.08333333  0.27500000  1.0
  Ni  Ni310  1  0.41666667  0.41666667  0.27500000  1.0
  Ni  Ni311  1  0.41666667  0.75000000  0.27500000  1.0
  Ni  Ni312  1  0.75000000  0.08333333  0.27500000  1.0
  Ni  Ni313  1  0.75000000  0.41666667  0.27500000  1.0
  Ni  Ni314  1  0.75000000  0.75000000  0.27500000  1.0
  Ni  Ni315  1  0.08333333  0.25000000  0.22500000  1.0
  Ni  Ni316  1  0.08333333  0.58333333  0.22500000  1.0
  Ni  Ni317  1  0.08333333  0.91666667  0.22500000  1.0
  Ni  Ni318  1  0.41666667  0.25000000  0.22500000  1.0
  Ni  Ni319  1  0.41666667  0.58333333  0.22500000  1.0
  Ni  Ni320  1  0.41666667  0.91666667  0.22500000  1.0
  Ni  Ni321  1  0.75000000  0.25000000  0.22500000  1.0
  Ni  Ni322  1  0.75000000  0.58333333  0.22500000  1.0
  Ni  Ni323  1  0.75000000  0.91666667  0.22500000  1.0
  Ta  Ta324  1  0.21955667  0.03044333  0.37260100  1.0
  Ta  Ta325  1  0.21955667  0.36377667  0.37260100  1.0
  Ta  Ta326  1  0.21955667  0.69711000  0.37260100  1.0
  Ta  Ta327  1  0.55289000  0.03044333  0.37260100  1.0
  Ta  Ta328  1  0.55289000  0.36377667  0.37260100  1.0
  Ta  Ta329  1  0.55289000  0.69711000  0.37260100  1.0
  Ta  Ta330  1  0.88622333  0.03044333  0.37260100  1.0
  Ta  Ta331  1  0.88622333  0.36377667  0.37260100  1.0
  Ta  Ta332  1  0.88622333  0.69711000  0.37260100  1.0
  Ta  Ta333  1  0.21955667  0.19711000  0.32260100  1.0
  Ta  Ta334  1  0.21955667  0.53044333  0.32260100  1.0
  Ta  Ta335  1  0.21955667  0.86377667  0.32260100  1.0
  Ta  Ta336  1  0.55289000  0.19711000  0.32260100  1.0
  Ta  Ta337  1  0.55289000  0.53044333  0.32260100  1.0
  Ta  Ta338  1  0.55289000  0.86377667  0.32260100  1.0
  Ta  Ta339  1  0.88622333  0.19711000  0.32260100  1.0
  Ta  Ta340  1  0.88622333  0.53044333  0.32260100  1.0
  Ta  Ta341  1  0.88622333  0.86377667  0.32260100  1.0
  Ta  Ta342  1  0.28044333  0.25000000  0.37500000  1.0
  Ta  Ta343  1  0.28044333  0.58333333  0.37500000  1.0
  Ta  Ta344  1  0.28044333  0.91666667  0.37500000  1.0
  Ta  Ta345  1  0.61377667  0.25000000  0.37500000  1.0
  Ta  Ta346  1  0.61377667  0.58333333  0.37500000  1.0
  Ta  Ta347  1  0.61377667  0.91666667  0.37500000  1.0
  Ta  Ta348  1  0.94711000  0.25000000  0.37500000  1.0
  Ta  Ta349  1  0.94711000  0.58333333  0.37500000  1.0
  Ta  Ta350  1  0.94711000  0.91666667  0.37500000  1.0
  Ta  Ta351  1  0.28044333  0.08333333  0.32500000  1.0
  Ta  Ta352  1  0.28044333  0.41666667  0.32500000  1.0
  Ta  Ta353  1  0.28044333  0.75000000  0.32500000  1.0
  Ta  Ta354  1  0.61377667  0.08333333  0.32500000  1.0
  Ta  Ta355  1  0.61377667  0.41666667  0.32500000  1.0
  Ta  Ta356  1  0.61377667  0.75000000  0.32500000  1.0
  Ta  Ta357  1  0.94711000  0.08333333  0.32500000  1.0
  Ta  Ta358  1  0.94711000  0.41666667  0.32500000  1.0
  Ta  Ta359  1  0.94711000  0.75000000  0.32500000  1.0
  Ta  Ta360  1  0.05289000  0.08333333  0.32500000  1.0
  Ta  Ta361  1  0.05289000  0.41666667  0.32500000  1.0
  Ta  Ta362  1  0.05289000  0.75000000  0.32500000  1.0
  Ta  Ta363  1  0.38622333  0.08333333  0.32500000  1.0
  Ta  Ta364  1  0.38622333  0.41666667  0.32500000  1.0
  Ta  Ta365  1  0.38622333  0.75000000  0.32500000  1.0
  Ta  Ta366  1  0.71955667  0.08333333  0.32500000  1.0
  Ta  Ta367  1  0.71955667  0.41666667  0.32500000  1.0
  Ta  Ta368  1  0.71955667  0.75000000  0.32500000  1.0
  Ta  Ta369  1  0.05289000  0.25000000  0.37500000  1.0
  Ta  Ta370  1  0.05289000  0.58333333  0.37500000  1.0
  Ta  Ta371  1  0.05289000  0.91666667  0.37500000  1.0
  Ta  Ta372  1  0.38622333  0.25000000  0.37500000  1.0
  Ta  Ta373  1  0.38622333  0.58333333  0.37500000  1.0
  Ta  Ta374  1  0.38622333  0.91666667  0.37500000  1.0
  Ta  Ta375  1  0.71955667  0.25000000  0.37500000  1.0
  Ta  Ta376  1  0.71955667  0.58333333  0.37500000  1.0
  Ta  Ta377  1  0.71955667  0.91666667  0.37500000  1.0
  Ta  Ta378  1  0.11377667  0.30289000  0.32739900  1.0
  Ta  Ta379  1  0.11377667  0.63622333  0.32739900  1.0
  Ta  Ta380  1  0.11377667  0.96955667  0.32739900  1.0
  Ta  Ta381  1  0.44711000  0.30289000  0.32739900  1.0
  Ta  Ta382  1  0.44711000  0.63622333  0.32739900  1.0
  Ta  Ta383  1  0.44711000  0.96955667  0.32739900  1.0
  Ta  Ta384  1  0.78044333  0.30289000  0.32739900  1.0
  Ta  Ta385  1  0.78044333  0.63622333  0.32739900  1.0
  Ta  Ta386  1  0.78044333  0.96955667  0.32739900  1.0
  Ta  Ta387  1  0.11377667  0.13622333  0.37739900  1.0
  Ta  Ta388  1  0.11377667  0.46955667  0.37739900  1.0
  Ta  Ta389  1  0.11377667  0.80289000  0.37739900  1.0
  Ta  Ta390  1  0.44711000  0.13622333  0.37739900  1.0
  Ta  Ta391  1  0.44711000  0.46955667  0.37739900  1.0
  Ta  Ta392  1  0.44711000  0.80289000  0.37739900  1.0
  Ta  Ta393  1  0.78044333  0.13622333  0.37739900  1.0
  Ta  Ta394  1  0.78044333  0.46955667  0.37739900  1.0
  Ta  Ta395  1  0.78044333  0.80289000  0.37739900  1.0
  Ni  Ni396  1  0.25000000  0.25000000  0.32500000  1.0
  Ni  Ni397  1  0.25000000  0.58333333  0.32500000  1.0
  Ni  Ni398  1  0.25000000  0.91666667  0.32500000  1.0
  Ni  Ni399  1  0.58333333  0.25000000  0.32500000  1.0
  Ni  Ni400  1  0.58333333  0.58333333  0.32500000  1.0
  Ni  Ni401  1  0.58333333  0.91666667  0.32500000  1.0
  Ni  Ni402  1  0.91666667  0.25000000  0.32500000  1.0
  Ni  Ni403  1  0.91666667  0.58333333  0.32500000  1.0
  Ni  Ni404  1  0.91666667  0.91666667  0.32500000  1.0
  Ni  Ni405  1  0.25000000  0.08333333  0.37500000  1.0
  Ni  Ni406  1  0.25000000  0.41666667  0.37500000  1.0
  Ni  Ni407  1  0.25000000  0.75000000  0.37500000  1.0
  Ni  Ni408  1  0.58333333  0.08333333  0.37500000  1.0
  Ni  Ni409  1  0.58333333  0.41666667  0.37500000  1.0
  Ni  Ni410  1  0.58333333  0.75000000  0.37500000  1.0
  Ni  Ni411  1  0.91666667  0.08333333  0.37500000  1.0
  Ni  Ni412  1  0.91666667  0.41666667  0.37500000  1.0
  Ni  Ni413  1  0.91666667  0.75000000  0.37500000  1.0
  Ni  Ni414  1  0.08333333  0.08333333  0.37500000  1.0
  Ni  Ni415  1  0.08333333  0.41666667  0.37500000  1.0
  Ni  Ni416  1  0.08333333  0.75000000  0.37500000  1.0
  Ni  Ni417  1  0.41666667  0.08333333  0.37500000  1.0
  Ni  Ni418  1  0.41666667  0.41666667  0.37500000  1.0
  Ni  Ni419  1  0.41666667  0.75000000  0.37500000  1.0
  Ni  Ni420  1  0.75000000  0.08333333  0.37500000  1.0
  Ni  Ni421  1  0.75000000  0.41666667  0.37500000  1.0
  Ni  Ni422  1  0.75000000  0.75000000  0.37500000  1.0
  Ni  Ni423  1  0.08333333  0.25000000  0.32500000  1.0
  Ni  Ni424  1  0.08333333  0.58333333  0.32500000  1.0
  Ni  Ni425  1  0.08333333  0.91666667  0.32500000  1.0
  Ni  Ni426  1  0.41666667  0.25000000  0.32500000  1.0
  Ni  Ni427  1  0.41666667  0.58333333  0.32500000  1.0
  Ni  Ni428  1  0.41666667  0.91666667  0.32500000  1.0
  Ni  Ni429  1  0.75000000  0.25000000  0.32500000  1.0
  Ni  Ni430  1  0.75000000  0.58333333  0.32500000  1.0
  Ni  Ni431  1  0.75000000  0.91666667  0.32500000  1.0
