# generated using pymatgen
data_Ta2Ni
_symmetry_space_group_name_H-M   'P 1'
_cell_length_a   15.09776304
_cell_length_b   23.71942501
_cell_length_c   60.39105216
_cell_angle_alpha   38.23048081
_cell_angle_beta   103.53903838
_cell_angle_gamma   79.07782491
_symmetry_Int_Tables_number   1
_chemical_formula_structural   Ta2Ni
_chemical_formula_sum   'Ta180 Ni90'
_cell_volume   10202.42478177
_cell_formula_units_Z   90
loop_
 _symmetry_equiv_pos_site_id
 _symmetry_equiv_pos_as_xyz
  1  'x, y, z'
loop_
 _atom_site_type_symbol
 _atom_site_label
 _atom_site_symmetry_multiplicity
 _atom_site_fract_x
 _atom_site_fract_y
 _atom_site_fract_z
 _atom_site_occupancy
  Ta  Ta0  1  0.21955667  0.28044333  0.07372333  1.0
  Ta  Ta1  1  0.21955667  0.61377667  0.07372333  1.0
  Ta  Ta2  1  0.21955667  0.94711000  0.07372333  1.0
  Ta  Ta3  1  0.55289000  0.28044333  0.07372333  1.0
  Ta  Ta4  1  0.55289000  0.61377667  0.07372333  1.0
  Ta  Ta5  1  0.55289000  0.94711000  0.07372333  1.0
  Ta  Ta6  1  0.88622333  0.28044333  0.07372333  1.0
  Ta  Ta7  1  0.88622333  0.61377667  0.07372333  1.0
  Ta  Ta8  1  0.88622333  0.94711000  0.07372333  1.0
  Ta  Ta9  1  0.28044333  0.11377667  0.00561167  1.0
  Ta  Ta10  1  0.28044333  0.44711000  0.00561167  1.0
  Ta  Ta11  1  0.28044333  0.78044333  0.00561167  1.0
  Ta  Ta12  1  0.61377667  0.11377667  0.00561167  1.0
  Ta  Ta13  1  0.61377667  0.44711000  0.00561167  1.0
  Ta  Ta14  1  0.61377667  0.78044333  0.00561167  1.0
  Ta  Ta15  1  0.94711000  0.11377667  0.00561167  1.0
  Ta  Ta16  1  0.94711000  0.44711000  0.00561167  1.0
  Ta  Ta17  1  0.94711000  0.78044333  0.00561167  1.0
  Ta  Ta18  1  0.05289000  0.21955667  0.06250000  1.0
  Ta  Ta19  1  0.05289000  0.55289000  0.06250000  1.0
  Ta  Ta20  1  0.05289000  0.88622333  0.06250000  1.0
  Ta  Ta21  1  0.38622333  0.21955667  0.06250000  1.0
  Ta  Ta22  1  0.38622333  0.55289000  0.06250000  1.0
  Ta  Ta23  1  0.38622333  0.88622333  0.06250000  1.0
  Ta  Ta24  1  0.71955667  0.21955667  0.06250000  1.0
  Ta  Ta25  1  0.71955667  0.55289000  0.06250000  1.0
  Ta  Ta26  1  0.71955667  0.88622333  0.06250000  1.0
  Ta  Ta27  1  0.11377667  0.05289000  0.07772167  1.0
  Ta  Ta28  1  0.11377667  0.38622333  0.07772167  1.0
  Ta  Ta29  1  0.11377667  0.71955667  0.07772167  1.0
  Ta  Ta30  1  0.44711000  0.05289000  0.07772167  1.0
  Ta  Ta31  1  0.44711000  0.38622333  0.07772167  1.0
  Ta  Ta32  1  0.44711000  0.71955667  0.07772167  1.0
  Ta  Ta33  1  0.78044333  0.05289000  0.07772167  1.0
  Ta  Ta34  1  0.78044333  0.38622333  0.07772167  1.0
  Ta  Ta35  1  0.78044333  0.71955667  0.07772167  1.0
  Ni  Ni36  1  0.25000000  0.08333333  0.05488917  1.0
  Ni  Ni37  1  0.25000000  0.41666667  0.05488917  1.0
  Ni  Ni38  1  0.25000000  0.75000000  0.05488917  1.0
  Ni  Ni39  1  0.58333333  0.08333333  0.05488917  1.0
  Ni  Ni40  1  0.58333333  0.41666667  0.05488917  1.0
  Ni  Ni41  1  0.58333333  0.75000000  0.05488917  1.0
  Ni  Ni42  1  0.91666667  0.08333333  0.05488917  1.0
  Ni  Ni43  1  0.91666667  0.41666667  0.05488917  1.0
  Ni  Ni44  1  0.91666667  0.75000000  0.05488917  1.0
  Ni  Ni45  1  0.08333333  0.25000000  0.01322250  1.0
  Ni  Ni46  1  0.08333333  0.58333333  0.01322250  1.0
  Ni  Ni47  1  0.08333333  0.91666667  0.01322250  1.0
  Ni  Ni48  1  0.41666667  0.25000000  0.01322250  1.0
  Ni  Ni49  1  0.41666667  0.58333333  0.01322250  1.0
  Ni  Ni50  1  0.41666667  0.91666667  0.01322250  1.0
  Ni  Ni51  1  0.75000000  0.25000000  0.01322250  1.0
  Ni  Ni52  1  0.75000000  0.58333333  0.01322250  1.0
  Ni  Ni53  1  0.75000000  0.91666667  0.01322250  1.0
  Ta  Ta54  1  0.21955667  0.28044333  0.15705667  1.0
  Ta  Ta55  1  0.21955667  0.61377667  0.15705667  1.0
  Ta  Ta56  1  0.21955667  0.94711000  0.15705667  1.0
  Ta  Ta57  1  0.55289000  0.28044333  0.15705667  1.0
  Ta  Ta58  1  0.55289000  0.61377667  0.15705667  1.0
  Ta  Ta59  1  0.55289000  0.94711000  0.15705667  1.0
  Ta  Ta60  1  0.88622333  0.28044333  0.15705667  1.0
  Ta  Ta61  1  0.88622333  0.61377667  0.15705667  1.0
  Ta  Ta62  1  0.88622333  0.94711000  0.15705667  1.0
  Ta  Ta63  1  0.28044333  0.11377667  0.08894500  1.0
  Ta  Ta64  1  0.28044333  0.44711000  0.08894500  1.0
  Ta  Ta65  1  0.28044333  0.78044333  0.08894500  1.0
  Ta  Ta66  1  0.61377667  0.11377667  0.08894500  1.0
  Ta  Ta67  1  0.61377667  0.44711000  0.08894500  1.0
  Ta  Ta68  1  0.61377667  0.78044333  0.08894500  1.0
  Ta  Ta69  1  0.94711000  0.11377667  0.08894500  1.0
  Ta  Ta70  1  0.94711000  0.44711000  0.08894500  1.0
  Ta  Ta71  1  0.94711000  0.78044333  0.08894500  1.0
  Ta  Ta72  1  0.05289000  0.21955667  0.14583333  1.0
  Ta  Ta73  1  0.05289000  0.55289000  0.14583333  1.0
  Ta  Ta74  1  0.05289000  0.88622333  0.14583333  1.0
  Ta  Ta75  1  0.38622333  0.21955667  0.14583333  1.0
  Ta  Ta76  1  0.38622333  0.55289000  0.14583333  1.0
  Ta  Ta77  1  0.38622333  0.88622333  0.14583333  1.0
  Ta  Ta78  1  0.71955667  0.21955667  0.14583333  1.0
  Ta  Ta79  1  0.71955667  0.55289000  0.14583333  1.0
  Ta  Ta80  1  0.71955667  0.88622333  0.14583333  1.0
  Ta  Ta81  1  0.11377667  0.05289000  0.16105500  1.0
  Ta  Ta82  1  0.11377667  0.38622333  0.16105500  1.0
  Ta  Ta83  1  0.11377667  0.71955667  0.16105500  1.0
  Ta  Ta84  1  0.44711000  0.05289000  0.16105500  1.0
  Ta  Ta85  1  0.44711000  0.38622333  0.16105500  1.0
  Ta  Ta86  1  0.44711000  0.71955667  0.16105500  1.0
  Ta  Ta87  1  0.78044333  0.05289000  0.16105500  1.0
  Ta  Ta88  1  0.78044333  0.38622333  0.16105500  1.0
  Ta  Ta89  1  0.78044333  0.71955667  0.16105500  1.0
  Ni  Ni90  1  0.25000000  0.08333333  0.13822250  1.0
  Ni  Ni91  1  0.25000000  0.41666667  0.13822250  1.0
  Ni  Ni92  1  0.25000000  0.75000000  0.13822250  1.0
  Ni  Ni93  1  0.58333333  0.08333333  0.13822250  1.0
  Ni  Ni94  1  0.58333333  0.41666667  0.13822250  1.0
  Ni  Ni95  1  0.58333333  0.75000000  0.13822250  1.0
  Ni  Ni96  1  0.91666667  0.08333333  0.13822250  1.0
  Ni  Ni97  1  0.91666667  0.41666667  0.13822250  1.0
  Ni  Ni98  1  0.91666667  0.75000000  0.13822250  1.0
  Ni  Ni99  1  0.08333333  0.25000000  0.09655583  1.0
  Ni  Ni100  1  0.08333333  0.58333333  0.09655583  1.0
  Ni  Ni101  1  0.08333333  0.91666667  0.09655583  1.0
  Ni  Ni102  1  0.41666667  0.25000000  0.09655583  1.0
  Ni  Ni103  1  0.41666667  0.58333333  0.09655583  1.0
  Ni  Ni104  1  0.41666667  0.91666667  0.09655583  1.0
  Ni  Ni105  1  0.75000000  0.25000000  0.09655583  1.0
  Ni  Ni106  1  0.75000000  0.58333333  0.09655583  1.0
  Ni  Ni107  1  0.75000000  0.91666667  0.09655583  1.0
  Ta  Ta108  1  0.21955667  0.28044333  0.24039000  1.0
  Ta  Ta109  1  0.21955667  0.61377667  0.24039000  1.0
  Ta  Ta110  1  0.21955667  0.94711000  0.24039000  1.0
  Ta  Ta111  1  0.55289000  0.28044333  0.24039000  1.0
  Ta  Ta112  1  0.55289000  0.61377667  0.24039000  1.0
  Ta  Ta113  1  0.55289000  0.94711000  0.24039000  1.0
  Ta  Ta114  1  0.88622333  0.28044333  0.24039000  1.0
  Ta  Ta115  1  0.88622333  0.61377667  0.24039000  1.0
  Ta  Ta116  1  0.88622333  0.94711000  0.24039000  1.0
  Ta  Ta117  1  0.28044333  0.11377667  0.17227833  1.0
  Ta  Ta118  1  0.28044333  0.44711000  0.17227833  1.0
  Ta  Ta119  1  0.28044333  0.78044333  0.17227833  1.0
  Ta  Ta120  1  0.61377667  0.11377667  0.17227833  1.0
  Ta  Ta121  1  0.61377667  0.44711000  0.17227833  1.0
  Ta  Ta122  1  0.61377667  0.78044333  0.17227833  1.0
  Ta  Ta123  1  0.94711000  0.11377667  0.17227833  1.0
  Ta  Ta124  1  0.94711000  0.44711000  0.17227833  1.0
  Ta  Ta125  1  0.94711000  0.78044333  0.17227833  1.0
  Ta  Ta126  1  0.05289000  0.21955667  0.22916667  1.0
  Ta  Ta127  1  0.05289000  0.55289000  0.22916667  1.0
  Ta  Ta128  1  0.05289000  0.88622333  0.22916667  1.0
  Ta  Ta129  1  0.38622333  0.21955667  0.22916667  1.0
  Ta  Ta130  1  0.38622333  0.55289000  0.22916667  1.0
  Ta  Ta131  1  0.38622333  0.88622333  0.22916667  1.0
  Ta  Ta132  1  0.71955667  0.21955667  0.22916667  1.0
  Ta  Ta133  1  0.71955667  0.55289000  0.22916667  1.0
  Ta  Ta134  1  0.71955667  0.88622333  0.22916667  1.0
  Ta  Ta135  1  0.11377667  0.05289000  0.24438833  1.0
  Ta  Ta136  1  0.11377667  0.38622333  0.24438833  1.0
  Ta  Ta137  1  0.11377667  0.71955667  0.24438833  1.0
  Ta  Ta138  1  0.44711000  0.05289000  0.24438833  1.0
  Ta  Ta139  1  0.44711000  0.38622333  0.24438833  1.0
  Ta  Ta140  1  0.44711000  0.71955667  0.24438833  1.0
  Ta  Ta141  1  0.78044333  0.05289000  0.24438833  1.0
  Ta  Ta142  1  0.78044333  0.38622333  0.24438833  1.0
  Ta  Ta143  1  0.78044333  0.71955667  0.24438833  1.0
  Ni  Ni144  1  0.25000000  0.08333333  0.22155583  1.0
  Ni  Ni145  1  0.25000000  0.41666667  0.22155583  1.0
  Ni  Ni146  1  0.25000000  0.75000000  0.22155583  1.0
  Ni  Ni147  1  0.58333333  0.08333333  0.22155583  1.0
  Ni  Ni148  1  0.58333333  0.41666667  0.22155583  1.0
  Ni  Ni149  1  0.58333333  0.75000000  0.22155583  1.0
  Ni  Ni150  1  0.91666667  0.08333333  0.22155583  1.0
  Ni  Ni151  1  0.91666667  0.41666667  0.22155583  1.0
  Ni  Ni152  1  0.91666667  0.75000000  0.22155583  1.0
  Ni  Ni153  1  0.08333333  0.25000000  0.17988917  1.0
  Ni  Ni154  1  0.08333333  0.58333333  0.17988917  1.0
  Ni  Ni155  1  0.08333333  0.91666667  0.17988917  1.0
  Ni  Ni156  1  0.41666667  0.25000000  0.17988917  1.0
  Ni  Ni157  1  0.41666667  0.58333333  0.17988917  1.0
  Ni  Ni158  1  0.41666667  0.91666667  0.17988917  1.0
  Ni  Ni159  1  0.75000000  0.25000000  0.17988917  1.0
  Ni  Ni160  1  0.75000000  0.58333333  0.17988917  1.0
  Ni  Ni161  1  0.75000000  0.91666667  0.17988917  1.0
  Ta  Ta162  1  0.21955667  0.28044333  0.32372333  1.0
  Ta  Ta163  1  0.21955667  0.61377667  0.32372333  1.0
  Ta  Ta164  1  0.21955667  0.94711000  0.32372333  1.0
  Ta  Ta165  1  0.55289000  0.28044333  0.32372333  1.0
  Ta  Ta166  1  0.55289000  0.61377667  0.32372333  1.0
  Ta  Ta167  1  0.55289000  0.94711000  0.32372333  1.0
  Ta  Ta168  1  0.88622333  0.28044333  0.32372333  1.0
  Ta  Ta169  1  0.88622333  0.61377667  0.32372333  1.0
  Ta  Ta170  1  0.88622333  0.94711000  0.32372333  1.0
  Ta  Ta171  1  0.28044333  0.11377667  0.25561167  1.0
  Ta  Ta172  1  0.28044333  0.44711000  0.25561167  1.0
  Ta  Ta173  1  0.28044333  0.78044333  0.25561167  1.0
  Ta  Ta174  1  0.61377667  0.11377667  0.25561167  1.0
  Ta  Ta175  1  0.61377667  0.44711000  0.25561167  1.0
  Ta  Ta176  1  0.61377667  0.78044333  0.25561167  1.0
  Ta  Ta177  1  0.94711000  0.11377667  0.25561167  1.0
  Ta  Ta178  1  0.94711000  0.44711000  0.25561167  1.0
  Ta  Ta179  1  0.94711000  0.78044333  0.25561167  1.0
  Ta  Ta180  1  0.05289000  0.21955667  0.31250000  1.0
  Ta  Ta181  1  0.05289000  0.55289000  0.31250000  1.0
  Ta  Ta182  1  0.05289000  0.88622333  0.31250000  1.0
  Ta  Ta183  1  0.38622333  0.21955667  0.31250000  1.0
  Ta  Ta184  1  0.38622333  0.55289000  0.31250000  1.0
  Ta  Ta185  1  0.38622333  0.88622333  0.31250000  1.0
  Ta  Ta186  1  0.71955667  0.21955667  0.31250000  1.0
  Ta  Ta187  1  0.71955667  0.55289000  0.31250000  1.0
  Ta  Ta188  1  0.71955667  0.88622333  0.31250000  1.0
  Ta  Ta189  1  0.11377667  0.05289000  0.32772167  1.0
  Ta  Ta190  1  0.11377667  0.38622333  0.32772167  1.0
  Ta  Ta191  1  0.11377667  0.71955667  0.32772167  1.0
  Ta  Ta192  1  0.44711000  0.05289000  0.32772167  1.0
  Ta  Ta193  1  0.44711000  0.38622333  0.32772167  1.0
  Ta  Ta194  1  0.44711000  0.71955667  0.32772167  1.0
  Ta  Ta195  1  0.78044333  0.05289000  0.32772167  1.0
  Ta  Ta196  1  0.78044333  0.38622333  0.32772167  1.0
  Ta  Ta197  1  0.78044333  0.71955667  0.32772167  1.0
  Ni  Ni198  1  0.25000000  0.08333333  0.30488917  1.0
  Ni  Ni199  1  0.25000000  0.41666667  0.30488917  1.0
  Ni  Ni200  1  0.25000000  0.75000000  0.30488917  1.0
  Ni  Ni201  1  0.58333333  0.08333333  0.30488917  1.0
  Ni  Ni202  1  0.58333333  0.41666667  0.30488917  1.0
  Ni  Ni203  1  0.58333333  0.75000000  0.30488917  1.0
  Ni  Ni204  1  0.91666667  0.08333333  0.30488917  1.0
  Ni  Ni205  1  0.91666667  0.41666667  0.30488917  1.0
  Ni  Ni206  1  0.91666667  0.75000000  0.30488917  1.0
  Ni  Ni207  1  0.08333333  0.25000000  0.26322250  1.0
  Ni  Ni208  1  0.08333333  0.58333333  0.26322250  1.0
  Ni  Ni209  1  0.08333333  0.91666667  0.26322250  1.0
  Ni  Ni210  1  0.41666667  0.25000000  0.26322250  1.0
  Ni  Ni211  1  0.41666667  0.58333333  0.26322250  1.0
  Ni  Ni212  1  0.41666667  0.91666667  0.26322250  1.0
  Ni  Ni213  1  0.75000000  0.25000000  0.26322250  1.0
  Ni  Ni214  1  0.75000000  0.58333333  0.26322250  1.0
  Ni  Ni215  1  0.75000000  0.91666667  0.26322250  1.0
  Ta  Ta216  1  0.21955667  0.28044333  0.40705667  1.0
  Ta  Ta217  1  0.21955667  0.61377667  0.40705667  1.0
  Ta  Ta218  1  0.21955667  0.94711000  0.40705667  1.0
  Ta  Ta219  1  0.55289000  0.28044333  0.40705667  1.0
  Ta  Ta220  1  0.55289000  0.61377667  0.40705667  1.0
  Ta  Ta221  1  0.55289000  0.94711000  0.40705667  1.0
  Ta  Ta222  1  0.88622333  0.28044333  0.40705667  1.0
  Ta  Ta223  1  0.88622333  0.61377667  0.40705667  1.0
  Ta  Ta224  1  0.88622333  0.94711000  0.40705667  1.0
  Ta  Ta225  1  0.28044333  0.11377667  0.33894500  1.0
  Ta  Ta226  1  0.28044333  0.44711000  0.33894500  1.0
  Ta  Ta227  1  0.28044333  0.78044333  0.33894500  1.0
  Ta  Ta228  1  0.61377667  0.11377667  0.33894500  1.0
  Ta  Ta229  1  0.61377667  0.44711000  0.33894500  1.0
  Ta  Ta230  1  0.61377667  0.78044333  0.33894500  1.0
  Ta  Ta231  1  0.94711000  0.11377667  0.33894500  1.0
  Ta  Ta232  1  0.94711000  0.44711000  0.33894500  1.0
  Ta  Ta233  1  0.94711000  0.78044333  0.33894500  1.0
  Ta  Ta234  1  0.05289000  0.21955667  0.39583333  1.0
  Ta  Ta235  1  0.05289000  0.55289000  0.39583333  1.0
  Ta  Ta236  1  0.05289000  0.88622333  0.39583333  1.0
  Ta  Ta237  1  0.38622333  0.21955667  0.39583333  1.0
  Ta  Ta238  1  0.38622333  0.55289000  0.39583333  1.0
  Ta  Ta239  1  0.38622333  0.88622333  0.39583333  1.0
  Ta  Ta240  1  0.71955667  0.21955667  0.39583333  1.0
  Ta  Ta241  1  0.71955667  0.55289000  0.39583333  1.0
  Ta  Ta242  1  0.71955667  0.88622333  0.39583333  1.0
  Ta  Ta243  1  0.11377667  0.05289000  0.41105500  1.0
  Ta  Ta244  1  0.11377667  0.38622333  0.41105500  1.0
  Ta  Ta245  1  0.11377667  0.71955667  0.41105500  1.0
  Ta  Ta246  1  0.44711000  0.05289000  0.41105500  1.0
  Ta  Ta247  1  0.44711000  0.38622333  0.41105500  1.0
  Ta  Ta248  1  0.44711000  0.71955667  0.41105500  1.0
  Ta  Ta249  1  0.78044333  0.05289000  0.41105500  1.0
  Ta  Ta250  1  0.78044333  0.38622333  0.41105500  1.0
  Ta  Ta251  1  0.78044333  0.71955667  0.41105500  1.0
  Ni  Ni252  1  0.25000000  0.08333333  0.38822250  1.0
  Ni  Ni253  1  0.25000000  0.41666667  0.38822250  1.0
  Ni  Ni254  1  0.25000000  0.75000000  0.38822250  1.0
  Ni  Ni255  1  0.58333333  0.08333333  0.38822250  1.0
  Ni  Ni256  1  0.58333333  0.41666667  0.38822250  1.0
  Ni  Ni257  1  0.58333333  0.75000000  0.38822250  1.0
  Ni  Ni258  1  0.91666667  0.08333333  0.38822250  1.0
  Ni  Ni259  1  0.91666667  0.41666667  0.38822250  1.0
  Ni  Ni260  1  0.91666667  0.75000000  0.38822250  1.0
  Ni  Ni261  1  0.08333333  0.25000000  0.34655583  1.0
  Ni  Ni262  1  0.08333333  0.58333333  0.34655583  1.0
  Ni  Ni263  1  0.08333333  0.91666667  0.34655583  1.0
  Ni  Ni264  1  0.41666667  0.25000000  0.34655583  1.0
  Ni  Ni265  1  0.41666667  0.58333333  0.34655583  1.0
  Ni  Ni266  1  0.41666667  0.91666667  0.34655583  1.0
  Ni  Ni267  1  0.75000000  0.25000000  0.34655583  1.0
  Ni  Ni268  1  0.75000000  0.58333333  0.34655583  1.0
  Ni  Ni269  1  0.75000000  0.91666667  0.34655583  1.0
