# generated using pymatgen
data_Ta2Ni
_symmetry_space_group_name_H-M   'P 1'
_cell_length_a   15.09776304
_cell_length_b   15.09776304
_cell_length_c   35.22811376
_cell_angle_alpha   103.53903838
_cell_angle_beta   122.12609465
_cell_angle_gamma   103.53903838
_symmetry_Int_Tables_number   1
_chemical_formula_structural   Ta2Ni
_chemical_formula_sum   'Ta108 Ni54'
_cell_volume   5951.41445603
_cell_formula_units_Z   54
loop_
 _symmetry_equiv_pos_site_id
 _symmetry_equiv_pos_as_xyz
  1  'x, y, z'
loop_
 _atom_site_type_symbol
 _atom_site_label
 _atom_site_symmetry_multiplicity
 _atom_site_fract_x
 _atom_site_fract_y
 _atom_site_fract_z
 _atom_site_occupancy
  Ta  Ta0  1  0.21955667  0.27244667  0.02266714  1.0
  Ta  Ta1  1  0.21955667  0.60578000  0.02266714  1.0
  Ta  Ta2  1  0.21955667  0.93911333  0.02266714  1.0
  Ta  Ta3  1  0.55289000  0.27244667  0.02266714  1.0
  Ta  Ta4  1  0.55289000  0.60578000  0.02266714  1.0
  Ta  Ta5  1  0.55289000  0.93911333  0.02266714  1.0
  Ta  Ta6  1  0.88622333  0.27244667  0.02266714  1.0
  Ta  Ta7  1  0.88622333  0.60578000  0.02266714  1.0
  Ta  Ta8  1  0.88622333  0.93911333  0.02266714  1.0
  Ta  Ta9  1  0.28044333  0.16666667  0.09409571  1.0
  Ta  Ta10  1  0.28044333  0.50000000  0.09409571  1.0
  Ta  Ta11  1  0.28044333  0.83333333  0.09409571  1.0
  Ta  Ta12  1  0.61377667  0.16666667  0.09409571  1.0
  Ta  Ta13  1  0.61377667  0.50000000  0.09409571  1.0
  Ta  Ta14  1  0.61377667  0.83333333  0.09409571  1.0
  Ta  Ta15  1  0.94711000  0.16666667  0.09409571  1.0
  Ta  Ta16  1  0.94711000  0.50000000  0.09409571  1.0
  Ta  Ta17  1  0.94711000  0.83333333  0.09409571  1.0
  Ta  Ta18  1  0.05289000  0.16666667  0.04876143  1.0
  Ta  Ta19  1  0.05289000  0.50000000  0.04876143  1.0
  Ta  Ta20  1  0.05289000  0.83333333  0.04876143  1.0
  Ta  Ta21  1  0.38622333  0.16666667  0.04876143  1.0
  Ta  Ta22  1  0.38622333  0.50000000  0.04876143  1.0
  Ta  Ta23  1  0.38622333  0.83333333  0.04876143  1.0
  Ta  Ta24  1  0.71955667  0.16666667  0.04876143  1.0
  Ta  Ta25  1  0.71955667  0.50000000  0.04876143  1.0
  Ta  Ta26  1  0.71955667  0.83333333  0.04876143  1.0
  Ta  Ta27  1  0.11377667  0.06088667  0.12019000  1.0
  Ta  Ta28  1  0.11377667  0.39422000  0.12019000  1.0
  Ta  Ta29  1  0.11377667  0.72755333  0.12019000  1.0
  Ta  Ta30  1  0.44711000  0.06088667  0.12019000  1.0
  Ta  Ta31  1  0.44711000  0.39422000  0.12019000  1.0
  Ta  Ta32  1  0.44711000  0.72755333  0.12019000  1.0
  Ta  Ta33  1  0.78044333  0.06088667  0.12019000  1.0
  Ta  Ta34  1  0.78044333  0.39422000  0.12019000  1.0
  Ta  Ta35  1  0.78044333  0.72755333  0.12019000  1.0
  Ni  Ni36  1  0.25000000  0.00000000  0.10714286  1.0
  Ni  Ni37  1  0.25000000  0.33333333  0.10714286  1.0
  Ni  Ni38  1  0.25000000  0.66666667  0.10714286  1.0
  Ni  Ni39  1  0.58333333  0.00000000  0.10714286  1.0
  Ni  Ni40  1  0.58333333  0.33333333  0.10714286  1.0
  Ni  Ni41  1  0.58333333  0.66666667  0.10714286  1.0
  Ni  Ni42  1  0.91666667  0.00000000  0.10714286  1.0
  Ni  Ni43  1  0.91666667  0.33333333  0.10714286  1.0
  Ni  Ni44  1  0.91666667  0.66666667  0.10714286  1.0
  Ni  Ni45  1  0.08333333  0.00000000  0.03571429  1.0
  Ni  Ni46  1  0.08333333  0.33333333  0.03571429  1.0
  Ni  Ni47  1  0.08333333  0.66666667  0.03571429  1.0
  Ni  Ni48  1  0.41666667  0.00000000  0.03571429  1.0
  Ni  Ni49  1  0.41666667  0.33333333  0.03571429  1.0
  Ni  Ni50  1  0.41666667  0.66666667  0.03571429  1.0
  Ni  Ni51  1  0.75000000  0.00000000  0.03571429  1.0
  Ni  Ni52  1  0.75000000  0.33333333  0.03571429  1.0
  Ni  Ni53  1  0.75000000  0.66666667  0.03571429  1.0
  Ta  Ta54  1  0.21955667  0.27244667  0.16552429  1.0
  Ta  Ta55  1  0.21955667  0.60578000  0.16552429  1.0
  Ta  Ta56  1  0.21955667  0.93911333  0.16552429  1.0
  Ta  Ta57  1  0.55289000  0.27244667  0.16552429  1.0
  Ta  Ta58  1  0.55289000  0.60578000  0.16552429  1.0
  Ta  Ta59  1  0.55289000  0.93911333  0.16552429  1.0
  Ta  Ta60  1  0.88622333  0.27244667  0.16552429  1.0
  Ta  Ta61  1  0.88622333  0.60578000  0.16552429  1.0
  Ta  Ta62  1  0.88622333  0.93911333  0.16552429  1.0
  Ta  Ta63  1  0.28044333  0.16666667  0.23695286  1.0
  Ta  Ta64  1  0.28044333  0.50000000  0.23695286  1.0
  Ta  Ta65  1  0.28044333  0.83333333  0.23695286  1.0
  Ta  Ta66  1  0.61377667  0.16666667  0.23695286  1.0
  Ta  Ta67  1  0.61377667  0.50000000  0.23695286  1.0
  Ta  Ta68  1  0.61377667  0.83333333  0.23695286  1.0
  Ta  Ta69  1  0.94711000  0.16666667  0.23695286  1.0
  Ta  Ta70  1  0.94711000  0.50000000  0.23695286  1.0
  Ta  Ta71  1  0.94711000  0.83333333  0.23695286  1.0
  Ta  Ta72  1  0.05289000  0.16666667  0.19161857  1.0
  Ta  Ta73  1  0.05289000  0.50000000  0.19161857  1.0
  Ta  Ta74  1  0.05289000  0.83333333  0.19161857  1.0
  Ta  Ta75  1  0.38622333  0.16666667  0.19161857  1.0
  Ta  Ta76  1  0.38622333  0.50000000  0.19161857  1.0
  Ta  Ta77  1  0.38622333  0.83333333  0.19161857  1.0
  Ta  Ta78  1  0.71955667  0.16666667  0.19161857  1.0
  Ta  Ta79  1  0.71955667  0.50000000  0.19161857  1.0
  Ta  Ta80  1  0.71955667  0.83333333  0.19161857  1.0
  Ta  Ta81  1  0.11377667  0.06088667  0.26304714  1.0
  Ta  Ta82  1  0.11377667  0.39422000  0.26304714  1.0
  Ta  Ta83  1  0.11377667  0.72755333  0.26304714  1.0
  Ta  Ta84  1  0.44711000  0.06088667  0.26304714  1.0
  Ta  Ta85  1  0.44711000  0.39422000  0.26304714  1.0
  Ta  Ta86  1  0.44711000  0.72755333  0.26304714  1.0
  Ta  Ta87  1  0.78044333  0.06088667  0.26304714  1.0
  Ta  Ta88  1  0.78044333  0.39422000  0.26304714  1.0
  Ta  Ta89  1  0.78044333  0.72755333  0.26304714  1.0
  Ni  Ni90  1  0.25000000  0.00000000  0.25000000  1.0
  Ni  Ni91  1  0.25000000  0.33333333  0.25000000  1.0
  Ni  Ni92  1  0.25000000  0.66666667  0.25000000  1.0
  Ni  Ni93  1  0.58333333  0.00000000  0.25000000  1.0
  Ni  Ni94  1  0.58333333  0.33333333  0.25000000  1.0
  Ni  Ni95  1  0.58333333  0.66666667  0.25000000  1.0
  Ni  Ni96  1  0.91666667  0.00000000  0.25000000  1.0
  Ni  Ni97  1  0.91666667  0.33333333  0.25000000  1.0
  Ni  Ni98  1  0.91666667  0.66666667  0.25000000  1.0
  Ni  Ni99  1  0.08333333  0.00000000  0.17857143  1.0
  Ni  Ni100  1  0.08333333  0.33333333  0.17857143  1.0
  Ni  Ni101  1  0.08333333  0.66666667  0.17857143  1.0
  Ni  Ni102  1  0.41666667  0.00000000  0.17857143  1.0
  Ni  Ni103  1  0.41666667  0.33333333  0.17857143  1.0
  Ni  Ni104  1  0.41666667  0.66666667  0.17857143  1.0
  Ni  Ni105  1  0.75000000  0.00000000  0.17857143  1.0
  Ni  Ni106  1  0.75000000  0.33333333  0.17857143  1.0
  Ni  Ni107  1  0.75000000  0.66666667  0.17857143  1.0
  Ta  Ta108  1  0.21955667  0.27244667  0.30838143  1.0
  Ta  Ta109  1  0.21955667  0.60578000  0.30838143  1.0
  Ta  Ta110  1  0.21955667  0.93911333  0.30838143  1.0
  Ta  Ta111  1  0.55289000  0.27244667  0.30838143  1.0
  Ta  Ta112  1  0.55289000  0.60578000  0.30838143  1.0
  Ta  Ta113  1  0.55289000  0.93911333  0.30838143  1.0
  Ta  Ta114  1  0.88622333  0.27244667  0.30838143  1.0
  Ta  Ta115  1  0.88622333  0.60578000  0.30838143  1.0
  Ta  Ta116  1  0.88622333  0.93911333  0.30838143  1.0
  Ta  Ta117  1  0.28044333  0.16666667  0.37981000  1.0
  Ta  Ta118  1  0.28044333  0.50000000  0.37981000  1.0
  Ta  Ta119  1  0.28044333  0.83333333  0.37981000  1.0
  Ta  Ta120  1  0.61377667  0.16666667  0.37981000  1.0
  Ta  Ta121  1  0.61377667  0.50000000  0.37981000  1.0
  Ta  Ta122  1  0.61377667  0.83333333  0.37981000  1.0
  Ta  Ta123  1  0.94711000  0.16666667  0.37981000  1.0
  Ta  Ta124  1  0.94711000  0.50000000  0.37981000  1.0
  Ta  Ta125  1  0.94711000  0.83333333  0.37981000  1.0
  Ta  Ta126  1  0.05289000  0.16666667  0.33447571  1.0
  Ta  Ta127  1  0.05289000  0.50000000  0.33447571  1.0
  Ta  Ta128  1  0.05289000  0.83333333  0.33447571  1.0
  Ta  Ta129  1  0.38622333  0.16666667  0.33447571  1.0
  Ta  Ta130  1  0.38622333  0.50000000  0.33447571  1.0
  Ta  Ta131  1  0.38622333  0.83333333  0.33447571  1.0
  Ta  Ta132  1  0.71955667  0.16666667  0.33447571  1.0
  Ta  Ta133  1  0.71955667  0.50000000  0.33447571  1.0
  Ta  Ta134  1  0.71955667  0.83333333  0.33447571  1.0
  Ta  Ta135  1  0.11377667  0.06088667  0.40590429  1.0
  Ta  Ta136  1  0.11377667  0.39422000  0.40590429  1.0
  Ta  Ta137  1  0.11377667  0.72755333  0.40590429  1.0
  Ta  Ta138  1  0.44711000  0.06088667  0.40590429  1.0
  Ta  Ta139  1  0.44711000  0.39422000  0.40590429  1.0
  Ta  Ta140  1  0.44711000  0.72755333  0.40590429  1.0
  Ta  Ta141  1  0.78044333  0.06088667  0.40590429  1.0
  Ta  Ta142  1  0.78044333  0.39422000  0.40590429  1.0
  Ta  Ta143  1  0.78044333  0.72755333  0.40590429  1.0
  Ni  Ni144  1  0.25000000  0.00000000  0.39285714  1.0
  Ni  Ni145  1  0.25000000  0.33333333  0.39285714  1.0
  Ni  Ni146  1  0.25000000  0.66666667  0.39285714  1.0
  Ni  Ni147  1  0.58333333  0.00000000  0.39285714  1.0
  Ni  Ni148  1  0.58333333  0.33333333  0.39285714  1.0
  Ni  Ni149  1  0.58333333  0.66666667  0.39285714  1.0
  Ni  Ni150  1  0.91666667  0.00000000  0.39285714  1.0
  Ni  Ni151  1  0.91666667  0.33333333  0.39285714  1.0
  Ni  Ni152  1  0.91666667  0.66666667  0.39285714  1.0
  Ni  Ni153  1  0.08333333  0.00000000  0.32142857  1.0
  Ni  Ni154  1  0.08333333  0.33333333  0.32142857  1.0
  Ni  Ni155  1  0.08333333  0.66666667  0.32142857  1.0
  Ni  Ni156  1  0.41666667  0.00000000  0.32142857  1.0
  Ni  Ni157  1  0.41666667  0.33333333  0.32142857  1.0
  Ni  Ni158  1  0.41666667  0.66666667  0.32142857  1.0
  Ni  Ni159  1  0.75000000  0.00000000  0.32142857  1.0
  Ni  Ni160  1  0.75000000  0.33333333  0.32142857  1.0
  Ni  Ni161  1  0.75000000  0.66666667  0.32142857  1.0
