# generated using pymatgen
data_Ta2Ni
_symmetry_space_group_name_H-M   'P 1'
_cell_length_a   23.71942501
_cell_length_b   30.43451649
_cell_length_c   28.46100809
_cell_angle_alpha   92.89202974
_cell_angle_beta   92.48017143
_cell_angle_gamma   95.39340958
_symmetry_Int_Tables_number   1
_chemical_formula_structural   Ta2Ni
_chemical_formula_sum   'Ta360 Ni180'
_cell_volume   20404.84956353
_cell_formula_units_Z   180
loop_
 _symmetry_equiv_pos_site_id
 _symmetry_equiv_pos_as_xyz
  1  'x, y, z'
loop_
 _atom_site_type_symbol
 _atom_site_label
 _atom_site_symmetry_multiplicity
 _atom_site_fract_x
 _atom_site_fract_y
 _atom_site_fract_z
 _atom_site_occupancy
  Ni  Ni0  1  0.12152778  0.22569444  0.98958333  1.0
  Ni  Ni1  1  0.12152778  0.55902778  0.98958333  1.0
  Ni  Ni2  1  0.12152778  0.89236111  0.98958333  1.0
  Ni  Ni3  1  0.45486111  0.22569444  0.98958333  1.0
  Ni  Ni4  1  0.45486111  0.55902778  0.98958333  1.0
  Ni  Ni5  1  0.45486111  0.89236111  0.98958333  1.0
  Ni  Ni6  1  0.78819444  0.22569444  0.98958333  1.0
  Ni  Ni7  1  0.78819444  0.55902778  0.98958333  1.0
  Ni  Ni8  1  0.78819444  0.89236111  0.98958333  1.0
  Ni  Ni9  1  0.27430556  0.12847222  0.94791667  1.0
  Ni  Ni10  1  0.27430556  0.46180556  0.94791667  1.0
  Ni  Ni11  1  0.27430556  0.79513889  0.94791667  1.0
  Ni  Ni12  1  0.60763889  0.12847222  0.94791667  1.0
  Ni  Ni13  1  0.60763889  0.46180556  0.94791667  1.0
  Ni  Ni14  1  0.60763889  0.79513889  0.94791667  1.0
  Ni  Ni15  1  0.94097222  0.12847222  0.94791667  1.0
  Ni  Ni16  1  0.94097222  0.46180556  0.94791667  1.0
  Ni  Ni17  1  0.94097222  0.79513889  0.94791667  1.0
  Ni  Ni18  1  0.03125000  0.01041667  0.96875000  1.0
  Ni  Ni19  1  0.03125000  0.34375000  0.96875000  1.0
  Ni  Ni20  1  0.03125000  0.67708333  0.96875000  1.0
  Ni  Ni21  1  0.36458333  0.01041667  0.96875000  1.0
  Ni  Ni22  1  0.36458333  0.34375000  0.96875000  1.0
  Ni  Ni23  1  0.36458333  0.67708333  0.96875000  1.0
  Ni  Ni24  1  0.69791667  0.01041667  0.96875000  1.0
  Ni  Ni25  1  0.69791667  0.34375000  0.96875000  1.0
  Ni  Ni26  1  0.69791667  0.67708333  0.96875000  1.0
  Ni  Ni27  1  0.18402778  0.24652778  0.92708333  1.0
  Ni  Ni28  1  0.18402778  0.57986111  0.92708333  1.0
  Ni  Ni29  1  0.18402778  0.91319444  0.92708333  1.0
  Ni  Ni30  1  0.51736111  0.24652778  0.92708333  1.0
  Ni  Ni31  1  0.51736111  0.57986111  0.92708333  1.0
  Ni  Ni32  1  0.51736111  0.91319444  0.92708333  1.0
  Ni  Ni33  1  0.85069444  0.24652778  0.92708333  1.0
  Ni  Ni34  1  0.85069444  0.57986111  0.92708333  1.0
  Ni  Ni35  1  0.85069444  0.91319444  0.92708333  1.0
  Ni  Ni36  1  0.09375000  0.03125000  0.90625000  1.0
  Ni  Ni37  1  0.09375000  0.36458333  0.90625000  1.0
  Ni  Ni38  1  0.09375000  0.69791667  0.90625000  1.0
  Ni  Ni39  1  0.42708333  0.03125000  0.90625000  1.0
  Ni  Ni40  1  0.42708333  0.36458333  0.90625000  1.0
  Ni  Ni41  1  0.42708333  0.69791667  0.90625000  1.0
  Ni  Ni42  1  0.76041667  0.03125000  0.90625000  1.0
  Ni  Ni43  1  0.76041667  0.36458333  0.90625000  1.0
  Ni  Ni44  1  0.76041667  0.69791667  0.90625000  1.0
  Ni  Ni45  1  0.24652778  0.26736111  0.86458333  1.0
  Ni  Ni46  1  0.24652778  0.60069444  0.86458333  1.0
  Ni  Ni47  1  0.24652778  0.93402778  0.86458333  1.0
  Ni  Ni48  1  0.57986111  0.26736111  0.86458333  1.0
  Ni  Ni49  1  0.57986111  0.60069444  0.86458333  1.0
  Ni  Ni50  1  0.57986111  0.93402778  0.86458333  1.0
  Ni  Ni51  1  0.91319444  0.26736111  0.86458333  1.0
  Ni  Ni52  1  0.91319444  0.60069444  0.86458333  1.0
  Ni  Ni53  1  0.91319444  0.93402778  0.86458333  1.0
  Ni  Ni54  1  0.00347222  0.14930556  0.88541667  1.0
  Ni  Ni55  1  0.00347222  0.48263889  0.88541667  1.0
  Ni  Ni56  1  0.00347222  0.81597222  0.88541667  1.0
  Ni  Ni57  1  0.33680556  0.14930556  0.88541667  1.0
  Ni  Ni58  1  0.33680556  0.48263889  0.88541667  1.0
  Ni  Ni59  1  0.33680556  0.81597222  0.88541667  1.0
  Ni  Ni60  1  0.67013889  0.14930556  0.88541667  1.0
  Ni  Ni61  1  0.67013889  0.48263889  0.88541667  1.0
  Ni  Ni62  1  0.67013889  0.81597222  0.88541667  1.0
  Ni  Ni63  1  0.15625000  0.05208333  0.84375000  1.0
  Ni  Ni64  1  0.15625000  0.38541667  0.84375000  1.0
  Ni  Ni65  1  0.15625000  0.71875000  0.84375000  1.0
  Ni  Ni66  1  0.48958333  0.05208333  0.84375000  1.0
  Ni  Ni67  1  0.48958333  0.38541667  0.84375000  1.0
  Ni  Ni68  1  0.48958333  0.71875000  0.84375000  1.0
  Ni  Ni69  1  0.82291667  0.05208333  0.84375000  1.0
  Ni  Ni70  1  0.82291667  0.38541667  0.84375000  1.0
  Ni  Ni71  1  0.82291667  0.71875000  0.84375000  1.0
  Ni  Ni72  1  0.06597222  0.17013889  0.82291667  1.0
  Ni  Ni73  1  0.06597222  0.50347222  0.82291667  1.0
  Ni  Ni74  1  0.06597222  0.83680556  0.82291667  1.0
  Ni  Ni75  1  0.39930556  0.17013889  0.82291667  1.0
  Ni  Ni76  1  0.39930556  0.50347222  0.82291667  1.0
  Ni  Ni77  1  0.39930556  0.83680556  0.82291667  1.0
  Ni  Ni78  1  0.73263889  0.17013889  0.82291667  1.0
  Ni  Ni79  1  0.73263889  0.50347222  0.82291667  1.0
  Ni  Ni80  1  0.73263889  0.83680556  0.82291667  1.0
  Ni  Ni81  1  0.21875000  0.07291667  0.78125000  1.0
  Ni  Ni82  1  0.21875000  0.40625000  0.78125000  1.0
  Ni  Ni83  1  0.21875000  0.73958333  0.78125000  1.0
  Ni  Ni84  1  0.55208333  0.07291667  0.78125000  1.0
  Ni  Ni85  1  0.55208333  0.40625000  0.78125000  1.0
  Ni  Ni86  1  0.55208333  0.73958333  0.78125000  1.0
  Ni  Ni87  1  0.88541667  0.07291667  0.78125000  1.0
  Ni  Ni88  1  0.88541667  0.40625000  0.78125000  1.0
  Ni  Ni89  1  0.88541667  0.73958333  0.78125000  1.0
  Ni  Ni90  1  0.30902778  0.28819444  0.80208333  1.0
  Ni  Ni91  1  0.30902778  0.62152778  0.80208333  1.0
  Ni  Ni92  1  0.30902778  0.95486111  0.80208333  1.0
  Ni  Ni93  1  0.64236111  0.28819444  0.80208333  1.0
  Ni  Ni94  1  0.64236111  0.62152778  0.80208333  1.0
  Ni  Ni95  1  0.64236111  0.95486111  0.80208333  1.0
  Ni  Ni96  1  0.97569444  0.28819444  0.80208333  1.0
  Ni  Ni97  1  0.97569444  0.62152778  0.80208333  1.0
  Ni  Ni98  1  0.97569444  0.95486111  0.80208333  1.0
  Ni  Ni99  1  0.12847222  0.19097222  0.76041667  1.0
  Ni  Ni100  1  0.12847222  0.52430556  0.76041667  1.0
  Ni  Ni101  1  0.12847222  0.85763889  0.76041667  1.0
  Ni  Ni102  1  0.46180556  0.19097222  0.76041667  1.0
  Ni  Ni103  1  0.46180556  0.52430556  0.76041667  1.0
  Ni  Ni104  1  0.46180556  0.85763889  0.76041667  1.0
  Ni  Ni105  1  0.79513889  0.19097222  0.76041667  1.0
  Ni  Ni106  1  0.79513889  0.52430556  0.76041667  1.0
  Ni  Ni107  1  0.79513889  0.85763889  0.76041667  1.0
  Ni  Ni108  1  0.03819444  0.30902778  0.73958333  1.0
  Ni  Ni109  1  0.03819444  0.64236111  0.73958333  1.0
  Ni  Ni110  1  0.03819444  0.97569444  0.73958333  1.0
  Ni  Ni111  1  0.37152778  0.30902778  0.73958333  1.0
  Ni  Ni112  1  0.37152778  0.64236111  0.73958333  1.0
  Ni  Ni113  1  0.37152778  0.97569444  0.73958333  1.0
  Ni  Ni114  1  0.70486111  0.30902778  0.73958333  1.0
  Ni  Ni115  1  0.70486111  0.64236111  0.73958333  1.0
  Ni  Ni116  1  0.70486111  0.97569444  0.73958333  1.0
  Ni  Ni117  1  0.19097222  0.21180556  0.69791667  1.0
  Ni  Ni118  1  0.19097222  0.54513889  0.69791667  1.0
  Ni  Ni119  1  0.19097222  0.87847222  0.69791667  1.0
  Ni  Ni120  1  0.52430556  0.21180556  0.69791667  1.0
  Ni  Ni121  1  0.52430556  0.54513889  0.69791667  1.0
  Ni  Ni122  1  0.52430556  0.87847222  0.69791667  1.0
  Ni  Ni123  1  0.85763889  0.21180556  0.69791667  1.0
  Ni  Ni124  1  0.85763889  0.54513889  0.69791667  1.0
  Ni  Ni125  1  0.85763889  0.87847222  0.69791667  1.0
  Ni  Ni126  1  0.28125000  0.09375000  0.71875000  1.0
  Ni  Ni127  1  0.28125000  0.42708333  0.71875000  1.0
  Ni  Ni128  1  0.28125000  0.76041667  0.71875000  1.0
  Ni  Ni129  1  0.61458333  0.09375000  0.71875000  1.0
  Ni  Ni130  1  0.61458333  0.42708333  0.71875000  1.0
  Ni  Ni131  1  0.61458333  0.76041667  0.71875000  1.0
  Ni  Ni132  1  0.94791667  0.09375000  0.71875000  1.0
  Ni  Ni133  1  0.94791667  0.42708333  0.71875000  1.0
  Ni  Ni134  1  0.94791667  0.76041667  0.71875000  1.0
  Ni  Ni135  1  0.10069444  0.32986111  0.67708333  1.0
  Ni  Ni136  1  0.10069444  0.66319444  0.67708333  1.0
  Ni  Ni137  1  0.10069444  0.99652778  0.67708333  1.0
  Ni  Ni138  1  0.43402778  0.32986111  0.67708333  1.0
  Ni  Ni139  1  0.43402778  0.66319444  0.67708333  1.0
  Ni  Ni140  1  0.43402778  0.99652778  0.67708333  1.0
  Ni  Ni141  1  0.76736111  0.32986111  0.67708333  1.0
  Ni  Ni142  1  0.76736111  0.66319444  0.67708333  1.0
  Ni  Ni143  1  0.76736111  0.99652778  0.67708333  1.0
  Ni  Ni144  1  0.01041667  0.11458333  0.65625000  1.0
  Ni  Ni145  1  0.01041667  0.44791667  0.65625000  1.0
  Ni  Ni146  1  0.01041667  0.78125000  0.65625000  1.0
  Ni  Ni147  1  0.34375000  0.11458333  0.65625000  1.0
  Ni  Ni148  1  0.34375000  0.44791667  0.65625000  1.0
  Ni  Ni149  1  0.34375000  0.78125000  0.65625000  1.0
  Ni  Ni150  1  0.67708333  0.11458333  0.65625000  1.0
  Ni  Ni151  1  0.67708333  0.44791667  0.65625000  1.0
  Ni  Ni152  1  0.67708333  0.78125000  0.65625000  1.0
  Ni  Ni153  1  0.16319444  0.01736111  0.61458333  1.0
  Ni  Ni154  1  0.16319444  0.35069444  0.61458333  1.0
  Ni  Ni155  1  0.16319444  0.68402778  0.61458333  1.0
  Ni  Ni156  1  0.49652778  0.01736111  0.61458333  1.0
  Ni  Ni157  1  0.49652778  0.35069444  0.61458333  1.0
  Ni  Ni158  1  0.49652778  0.68402778  0.61458333  1.0
  Ni  Ni159  1  0.82986111  0.01736111  0.61458333  1.0
  Ni  Ni160  1  0.82986111  0.35069444  0.61458333  1.0
  Ni  Ni161  1  0.82986111  0.68402778  0.61458333  1.0
  Ni  Ni162  1  0.25347222  0.23263889  0.63541667  1.0
  Ni  Ni163  1  0.25347222  0.56597222  0.63541667  1.0
  Ni  Ni164  1  0.25347222  0.89930556  0.63541667  1.0
  Ni  Ni165  1  0.58680556  0.23263889  0.63541667  1.0
  Ni  Ni166  1  0.58680556  0.56597222  0.63541667  1.0
  Ni  Ni167  1  0.58680556  0.89930556  0.63541667  1.0
  Ni  Ni168  1  0.92013889  0.23263889  0.63541667  1.0
  Ni  Ni169  1  0.92013889  0.56597222  0.63541667  1.0
  Ni  Ni170  1  0.92013889  0.89930556  0.63541667  1.0
  Ni  Ni171  1  0.07291667  0.13541667  0.59375000  1.0
  Ni  Ni172  1  0.07291667  0.46875000  0.59375000  1.0
  Ni  Ni173  1  0.07291667  0.80208333  0.59375000  1.0
  Ni  Ni174  1  0.40625000  0.13541667  0.59375000  1.0
  Ni  Ni175  1  0.40625000  0.46875000  0.59375000  1.0
  Ni  Ni176  1  0.40625000  0.80208333  0.59375000  1.0
  Ni  Ni177  1  0.73958333  0.13541667  0.59375000  1.0
  Ni  Ni178  1  0.73958333  0.46875000  0.59375000  1.0
  Ni  Ni179  1  0.73958333  0.80208333  0.59375000  1.0
  Ta  Ta180  1  0.28198069  0.21186986  0.92527708  1.0
  Ta  Ta181  1  0.28198069  0.54520319  0.92527708  1.0
  Ta  Ta182  1  0.28198069  0.87853653  0.92527708  1.0
  Ta  Ta183  1  0.61531403  0.21186986  0.92527708  1.0
  Ta  Ta184  1  0.61531403  0.54520319  0.92527708  1.0
  Ta  Ta185  1  0.61531403  0.87853653  0.92527708  1.0
  Ta  Ta186  1  0.94864736  0.21186986  0.92527708  1.0
  Ta  Ta187  1  0.94864736  0.54520319  0.92527708  1.0
  Ta  Ta188  1  0.94864736  0.87853653  0.92527708  1.0
  Ta  Ta189  1  0.12920292  0.30909208  0.96694375  1.0
  Ta  Ta190  1  0.12920292  0.64242542  0.96694375  1.0
  Ta  Ta191  1  0.12920292  0.97575875  0.96694375  1.0
  Ta  Ta192  1  0.46253625  0.30909208  0.96694375  1.0
  Ta  Ta193  1  0.46253625  0.64242542  0.96694375  1.0
  Ta  Ta194  1  0.46253625  0.97575875  0.96694375  1.0
  Ta  Ta195  1  0.79586958  0.30909208  0.96694375  1.0
  Ta  Ta196  1  0.79586958  0.64242542  0.96694375  1.0
  Ta  Ta197  1  0.79586958  0.97575875  0.96694375  1.0
  Ta  Ta198  1  0.04774014  0.15551931  0.97255542  1.0
  Ta  Ta199  1  0.04774014  0.48885264  0.97255542  1.0
  Ta  Ta200  1  0.04774014  0.82218597  0.97255542  1.0
  Ta  Ta201  1  0.38107347  0.15551931  0.97255542  1.0
  Ta  Ta202  1  0.38107347  0.48885264  0.97255542  1.0
  Ta  Ta203  1  0.38107347  0.82218597  0.97255542  1.0
  Ta  Ta204  1  0.71440681  0.15551931  0.97255542  1.0
  Ta  Ta205  1  0.71440681  0.48885264  0.97255542  1.0
  Ta  Ta206  1  0.71440681  0.82218597  0.97255542  1.0
  Ta  Ta207  1  0.20051792  0.05829708  0.93088875  1.0
  Ta  Ta208  1  0.20051792  0.39163042  0.93088875  1.0
  Ta  Ta209  1  0.20051792  0.72496375  0.93088875  1.0
  Ta  Ta210  1  0.53385125  0.05829708  0.93088875  1.0
  Ta  Ta211  1  0.53385125  0.39163042  0.93088875  1.0
  Ta  Ta212  1  0.53385125  0.72496375  0.93088875  1.0
  Ta  Ta213  1  0.86718458  0.05829708  0.93088875  1.0
  Ta  Ta214  1  0.86718458  0.39163042  0.93088875  1.0
  Ta  Ta215  1  0.86718458  0.72496375  0.93088875  1.0
  Ta  Ta216  1  0.25781542  0.31670292  0.94411125  1.0
  Ta  Ta217  1  0.25781542  0.65003625  0.94411125  1.0
  Ta  Ta218  1  0.25781542  0.98336958  0.94411125  1.0
  Ta  Ta219  1  0.59114875  0.31670292  0.94411125  1.0
  Ta  Ta220  1  0.59114875  0.65003625  0.94411125  1.0
  Ta  Ta221  1  0.59114875  0.98336958  0.94411125  1.0
  Ta  Ta222  1  0.92448208  0.31670292  0.94411125  1.0
  Ta  Ta223  1  0.92448208  0.65003625  0.94411125  1.0
  Ta  Ta224  1  0.92448208  0.98336958  0.94411125  1.0
  Ta  Ta225  1  0.10503764  0.08059181  0.98577792  1.0
  Ta  Ta226  1  0.10503764  0.41392514  0.98577792  1.0
  Ta  Ta227  1  0.10503764  0.74725847  0.98577792  1.0
  Ta  Ta228  1  0.43837097  0.08059181  0.98577792  1.0
  Ta  Ta229  1  0.43837097  0.41392514  0.98577792  1.0
  Ta  Ta230  1  0.43837097  0.74725847  0.98577792  1.0
  Ta  Ta231  1  0.77170431  0.08059181  0.98577792  1.0
  Ta  Ta232  1  0.77170431  0.41392514  0.98577792  1.0
  Ta  Ta233  1  0.77170431  0.74725847  0.98577792  1.0
  Ta  Ta234  1  0.02357486  0.26035236  0.99138958  1.0
  Ta  Ta235  1  0.02357486  0.59368569  0.99138958  1.0
  Ta  Ta236  1  0.02357486  0.92701903  0.99138958  1.0
  Ta  Ta237  1  0.35690819  0.26035236  0.99138958  1.0
  Ta  Ta238  1  0.35690819  0.59368569  0.99138958  1.0
  Ta  Ta239  1  0.35690819  0.92701903  0.99138958  1.0
  Ta  Ta240  1  0.69024153  0.26035236  0.99138958  1.0
  Ta  Ta241  1  0.69024153  0.59368569  0.99138958  1.0
  Ta  Ta242  1  0.69024153  0.92701903  0.99138958  1.0
  Ta  Ta243  1  0.17635264  0.16313014  0.94972292  1.0
  Ta  Ta244  1  0.17635264  0.49646347  0.94972292  1.0
  Ta  Ta245  1  0.17635264  0.82979681  0.94972292  1.0
  Ta  Ta246  1  0.50968597  0.16313014  0.94972292  1.0
  Ta  Ta247  1  0.50968597  0.49646347  0.94972292  1.0
  Ta  Ta248  1  0.50968597  0.82979681  0.94972292  1.0
  Ta  Ta249  1  0.84301931  0.16313014  0.94972292  1.0
  Ta  Ta250  1  0.84301931  0.49646347  0.94972292  1.0
  Ta  Ta251  1  0.84301931  0.82979681  0.94972292  1.0
  Ta  Ta252  1  0.25420292  0.01742542  0.84194375  1.0
  Ta  Ta253  1  0.25420292  0.35075875  0.84194375  1.0
  Ta  Ta254  1  0.25420292  0.68409208  0.84194375  1.0
  Ta  Ta255  1  0.58753625  0.01742542  0.84194375  1.0
  Ta  Ta256  1  0.58753625  0.35075875  0.84194375  1.0
  Ta  Ta257  1  0.58753625  0.68409208  0.84194375  1.0
  Ta  Ta258  1  0.92086958  0.01742542  0.84194375  1.0
  Ta  Ta259  1  0.92086958  0.35075875  0.84194375  1.0
  Ta  Ta260  1  0.92086958  0.68409208  0.84194375  1.0
  Ta  Ta261  1  0.10142514  0.11464764  0.88361042  1.0
  Ta  Ta262  1  0.10142514  0.44798097  0.88361042  1.0
  Ta  Ta263  1  0.10142514  0.78131431  0.88361042  1.0
  Ta  Ta264  1  0.43475847  0.11464764  0.88361042  1.0
  Ta  Ta265  1  0.43475847  0.44798097  0.88361042  1.0
  Ta  Ta266  1  0.43475847  0.78131431  0.88361042  1.0
  Ta  Ta267  1  0.76809181  0.11464764  0.88361042  1.0
  Ta  Ta268  1  0.76809181  0.44798097  0.88361042  1.0
  Ta  Ta269  1  0.76809181  0.78131431  0.88361042  1.0
  Ta  Ta270  1  0.01996236  0.29440819  0.88922208  1.0
  Ta  Ta271  1  0.01996236  0.62774153  0.88922208  1.0
  Ta  Ta272  1  0.01996236  0.96107486  0.88922208  1.0
  Ta  Ta273  1  0.35329569  0.29440819  0.88922208  1.0
  Ta  Ta274  1  0.35329569  0.62774153  0.88922208  1.0
  Ta  Ta275  1  0.35329569  0.96107486  0.88922208  1.0
  Ta  Ta276  1  0.68662903  0.29440819  0.88922208  1.0
  Ta  Ta277  1  0.68662903  0.62774153  0.88922208  1.0
  Ta  Ta278  1  0.68662903  0.96107486  0.88922208  1.0
  Ta  Ta279  1  0.17274014  0.19718597  0.84755542  1.0
  Ta  Ta280  1  0.17274014  0.53051931  0.84755542  1.0
  Ta  Ta281  1  0.17274014  0.86385264  0.84755542  1.0
  Ta  Ta282  1  0.50607347  0.19718597  0.84755542  1.0
  Ta  Ta283  1  0.50607347  0.53051931  0.84755542  1.0
  Ta  Ta284  1  0.50607347  0.86385264  0.84755542  1.0
  Ta  Ta285  1  0.83940681  0.19718597  0.84755542  1.0
  Ta  Ta286  1  0.83940681  0.53051931  0.84755542  1.0
  Ta  Ta287  1  0.83940681  0.86385264  0.84755542  1.0
  Ta  Ta288  1  0.23003764  0.12225847  0.86077792  1.0
  Ta  Ta289  1  0.23003764  0.45559181  0.86077792  1.0
  Ta  Ta290  1  0.23003764  0.78892514  0.86077792  1.0
  Ta  Ta291  1  0.56337097  0.12225847  0.86077792  1.0
  Ta  Ta292  1  0.56337097  0.45559181  0.86077792  1.0
  Ta  Ta293  1  0.56337097  0.78892514  0.86077792  1.0
  Ta  Ta294  1  0.89670431  0.12225847  0.86077792  1.0
  Ta  Ta295  1  0.89670431  0.45559181  0.86077792  1.0
  Ta  Ta296  1  0.89670431  0.78892514  0.86077792  1.0
  Ta  Ta297  1  0.07725986  0.21948069  0.90244458  1.0
  Ta  Ta298  1  0.07725986  0.55281403  0.90244458  1.0
  Ta  Ta299  1  0.07725986  0.88614736  0.90244458  1.0
  Ta  Ta300  1  0.41059319  0.21948069  0.90244458  1.0
  Ta  Ta301  1  0.41059319  0.55281403  0.90244458  1.0
  Ta  Ta302  1  0.41059319  0.88614736  0.90244458  1.0
  Ta  Ta303  1  0.74392653  0.21948069  0.90244458  1.0
  Ta  Ta304  1  0.74392653  0.55281403  0.90244458  1.0
  Ta  Ta305  1  0.74392653  0.88614736  0.90244458  1.0
  Ta  Ta306  1  0.32913042  0.06590792  0.90805625  1.0
  Ta  Ta307  1  0.32913042  0.39924125  0.90805625  1.0
  Ta  Ta308  1  0.32913042  0.73257458  0.90805625  1.0
  Ta  Ta309  1  0.66246375  0.06590792  0.90805625  1.0
  Ta  Ta310  1  0.66246375  0.39924125  0.90805625  1.0
  Ta  Ta311  1  0.66246375  0.73257458  0.90805625  1.0
  Ta  Ta312  1  0.99579708  0.06590792  0.90805625  1.0
  Ta  Ta313  1  0.99579708  0.39924125  0.90805625  1.0
  Ta  Ta314  1  0.99579708  0.73257458  0.90805625  1.0
  Ta  Ta315  1  0.14857486  0.30201903  0.86638958  1.0
  Ta  Ta316  1  0.14857486  0.63535236  0.86638958  1.0
  Ta  Ta317  1  0.14857486  0.96868569  0.86638958  1.0
  Ta  Ta318  1  0.48190819  0.30201903  0.86638958  1.0
  Ta  Ta319  1  0.48190819  0.63535236  0.86638958  1.0
  Ta  Ta320  1  0.48190819  0.96868569  0.86638958  1.0
  Ta  Ta321  1  0.81524153  0.30201903  0.86638958  1.0
  Ta  Ta322  1  0.81524153  0.63535236  0.86638958  1.0
  Ta  Ta323  1  0.81524153  0.96868569  0.86638958  1.0
  Ta  Ta324  1  0.22642514  0.15631431  0.75861042  1.0
  Ta  Ta325  1  0.22642514  0.48964764  0.75861042  1.0
  Ta  Ta326  1  0.22642514  0.82298097  0.75861042  1.0
  Ta  Ta327  1  0.55975847  0.15631431  0.75861042  1.0
  Ta  Ta328  1  0.55975847  0.48964764  0.75861042  1.0
  Ta  Ta329  1  0.55975847  0.82298097  0.75861042  1.0
  Ta  Ta330  1  0.89309181  0.15631431  0.75861042  1.0
  Ta  Ta331  1  0.89309181  0.48964764  0.75861042  1.0
  Ta  Ta332  1  0.89309181  0.82298097  0.75861042  1.0
  Ta  Ta333  1  0.07364736  0.25353653  0.80027708  1.0
  Ta  Ta334  1  0.07364736  0.58686986  0.80027708  1.0
  Ta  Ta335  1  0.07364736  0.92020319  0.80027708  1.0
  Ta  Ta336  1  0.40698069  0.25353653  0.80027708  1.0
  Ta  Ta337  1  0.40698069  0.58686986  0.80027708  1.0
  Ta  Ta338  1  0.40698069  0.92020319  0.80027708  1.0
  Ta  Ta339  1  0.74031403  0.25353653  0.80027708  1.0
  Ta  Ta340  1  0.74031403  0.58686986  0.80027708  1.0
  Ta  Ta341  1  0.74031403  0.92020319  0.80027708  1.0
  Ta  Ta342  1  0.32551792  0.09996375  0.80588875  1.0
  Ta  Ta343  1  0.32551792  0.43329708  0.80588875  1.0
  Ta  Ta344  1  0.32551792  0.76663042  0.80588875  1.0
  Ta  Ta345  1  0.65885125  0.09996375  0.80588875  1.0
  Ta  Ta346  1  0.65885125  0.43329708  0.80588875  1.0
  Ta  Ta347  1  0.65885125  0.76663042  0.80588875  1.0
  Ta  Ta348  1  0.99218458  0.09996375  0.80588875  1.0
  Ta  Ta349  1  0.99218458  0.43329708  0.80588875  1.0
  Ta  Ta350  1  0.99218458  0.76663042  0.80588875  1.0
  Ta  Ta351  1  0.14496236  0.00274153  0.76422208  1.0
  Ta  Ta352  1  0.14496236  0.33607486  0.76422208  1.0
  Ta  Ta353  1  0.14496236  0.66940819  0.76422208  1.0
  Ta  Ta354  1  0.47829569  0.00274153  0.76422208  1.0
  Ta  Ta355  1  0.47829569  0.33607486  0.76422208  1.0
  Ta  Ta356  1  0.47829569  0.66940819  0.76422208  1.0
  Ta  Ta357  1  0.81162903  0.00274153  0.76422208  1.0
  Ta  Ta358  1  0.81162903  0.33607486  0.76422208  1.0
  Ta  Ta359  1  0.81162903  0.66940819  0.76422208  1.0
  Ta  Ta360  1  0.20225986  0.26114736  0.77744458  1.0
  Ta  Ta361  1  0.20225986  0.59448069  0.77744458  1.0
  Ta  Ta362  1  0.20225986  0.92781403  0.77744458  1.0
  Ta  Ta363  1  0.53559319  0.26114736  0.77744458  1.0
  Ta  Ta364  1  0.53559319  0.59448069  0.77744458  1.0
  Ta  Ta365  1  0.53559319  0.92781403  0.77744458  1.0
  Ta  Ta366  1  0.86892653  0.26114736  0.77744458  1.0
  Ta  Ta367  1  0.86892653  0.59448069  0.77744458  1.0
  Ta  Ta368  1  0.86892653  0.92781403  0.77744458  1.0
  Ta  Ta369  1  0.04948208  0.02503625  0.81911125  1.0
  Ta  Ta370  1  0.04948208  0.35836958  0.81911125  1.0
  Ta  Ta371  1  0.04948208  0.69170292  0.81911125  1.0
  Ta  Ta372  1  0.38281542  0.02503625  0.81911125  1.0
  Ta  Ta373  1  0.38281542  0.35836958  0.81911125  1.0
  Ta  Ta374  1  0.38281542  0.69170292  0.81911125  1.0
  Ta  Ta375  1  0.71614875  0.02503625  0.81911125  1.0
  Ta  Ta376  1  0.71614875  0.35836958  0.81911125  1.0
  Ta  Ta377  1  0.71614875  0.69170292  0.81911125  1.0
  Ta  Ta378  1  0.30135264  0.20479681  0.82472292  1.0
  Ta  Ta379  1  0.30135264  0.53813014  0.82472292  1.0
  Ta  Ta380  1  0.30135264  0.87146347  0.82472292  1.0
  Ta  Ta381  1  0.63468597  0.20479681  0.82472292  1.0
  Ta  Ta382  1  0.63468597  0.53813014  0.82472292  1.0
  Ta  Ta383  1  0.63468597  0.87146347  0.82472292  1.0
  Ta  Ta384  1  0.96801931  0.20479681  0.82472292  1.0
  Ta  Ta385  1  0.96801931  0.53813014  0.82472292  1.0
  Ta  Ta386  1  0.96801931  0.87146347  0.82472292  1.0
  Ta  Ta387  1  0.12079708  0.10757458  0.78305625  1.0
  Ta  Ta388  1  0.12079708  0.44090792  0.78305625  1.0
  Ta  Ta389  1  0.12079708  0.77424125  0.78305625  1.0
  Ta  Ta390  1  0.45413042  0.10757458  0.78305625  1.0
  Ta  Ta391  1  0.45413042  0.44090792  0.78305625  1.0
  Ta  Ta392  1  0.45413042  0.77424125  0.78305625  1.0
  Ta  Ta393  1  0.78746375  0.10757458  0.78305625  1.0
  Ta  Ta394  1  0.78746375  0.44090792  0.78305625  1.0
  Ta  Ta395  1  0.78746375  0.77424125  0.78305625  1.0
  Ta  Ta396  1  0.19864736  0.29520319  0.67527708  1.0
  Ta  Ta397  1  0.19864736  0.62853653  0.67527708  1.0
  Ta  Ta398  1  0.19864736  0.96186986  0.67527708  1.0
  Ta  Ta399  1  0.53198069  0.29520319  0.67527708  1.0
  Ta  Ta400  1  0.53198069  0.62853653  0.67527708  1.0
  Ta  Ta401  1  0.53198069  0.96186986  0.67527708  1.0
  Ta  Ta402  1  0.86531403  0.29520319  0.67527708  1.0
  Ta  Ta403  1  0.86531403  0.62853653  0.67527708  1.0
  Ta  Ta404  1  0.86531403  0.96186986  0.67527708  1.0
  Ta  Ta405  1  0.04586958  0.05909208  0.71694375  1.0
  Ta  Ta406  1  0.04586958  0.39242542  0.71694375  1.0
  Ta  Ta407  1  0.04586958  0.72575875  0.71694375  1.0
  Ta  Ta408  1  0.37920292  0.05909208  0.71694375  1.0
  Ta  Ta409  1  0.37920292  0.39242542  0.71694375  1.0
  Ta  Ta410  1  0.37920292  0.72575875  0.71694375  1.0
  Ta  Ta411  1  0.71253625  0.05909208  0.71694375  1.0
  Ta  Ta412  1  0.71253625  0.39242542  0.71694375  1.0
  Ta  Ta413  1  0.71253625  0.72575875  0.71694375  1.0
  Ta  Ta414  1  0.29774014  0.23885264  0.72255542  1.0
  Ta  Ta415  1  0.29774014  0.57218597  0.72255542  1.0
  Ta  Ta416  1  0.29774014  0.90551931  0.72255542  1.0
  Ta  Ta417  1  0.63107347  0.23885264  0.72255542  1.0
  Ta  Ta418  1  0.63107347  0.57218597  0.72255542  1.0
  Ta  Ta419  1  0.63107347  0.90551931  0.72255542  1.0
  Ta  Ta420  1  0.96440681  0.23885264  0.72255542  1.0
  Ta  Ta421  1  0.96440681  0.57218597  0.72255542  1.0
  Ta  Ta422  1  0.96440681  0.90551931  0.72255542  1.0
  Ta  Ta423  1  0.11718458  0.14163042  0.68088875  1.0
  Ta  Ta424  1  0.11718458  0.47496375  0.68088875  1.0
  Ta  Ta425  1  0.11718458  0.80829708  0.68088875  1.0
  Ta  Ta426  1  0.45051792  0.14163042  0.68088875  1.0
  Ta  Ta427  1  0.45051792  0.47496375  0.68088875  1.0
  Ta  Ta428  1  0.45051792  0.80829708  0.68088875  1.0
  Ta  Ta429  1  0.78385125  0.14163042  0.68088875  1.0
  Ta  Ta430  1  0.78385125  0.47496375  0.68088875  1.0
  Ta  Ta431  1  0.78385125  0.80829708  0.68088875  1.0
  Ta  Ta432  1  0.17448208  0.06670292  0.69411125  1.0
  Ta  Ta433  1  0.17448208  0.40003625  0.69411125  1.0
  Ta  Ta434  1  0.17448208  0.73336958  0.69411125  1.0
  Ta  Ta435  1  0.50781542  0.06670292  0.69411125  1.0
  Ta  Ta436  1  0.50781542  0.40003625  0.69411125  1.0
  Ta  Ta437  1  0.50781542  0.73336958  0.69411125  1.0
  Ta  Ta438  1  0.84114875  0.06670292  0.69411125  1.0
  Ta  Ta439  1  0.84114875  0.40003625  0.69411125  1.0
  Ta  Ta440  1  0.84114875  0.73336958  0.69411125  1.0
  Ta  Ta441  1  0.02170431  0.16392514  0.73577792  1.0
  Ta  Ta442  1  0.02170431  0.49725847  0.73577792  1.0
  Ta  Ta443  1  0.02170431  0.83059181  0.73577792  1.0
  Ta  Ta444  1  0.35503764  0.16392514  0.73577792  1.0
  Ta  Ta445  1  0.35503764  0.49725847  0.73577792  1.0
  Ta  Ta446  1  0.35503764  0.83059181  0.73577792  1.0
  Ta  Ta447  1  0.68837097  0.16392514  0.73577792  1.0
  Ta  Ta448  1  0.68837097  0.49725847  0.73577792  1.0
  Ta  Ta449  1  0.68837097  0.83059181  0.73577792  1.0
  Ta  Ta450  1  0.27357486  0.01035236  0.74138958  1.0
  Ta  Ta451  1  0.27357486  0.34368569  0.74138958  1.0
  Ta  Ta452  1  0.27357486  0.67701903  0.74138958  1.0
  Ta  Ta453  1  0.60690819  0.01035236  0.74138958  1.0
  Ta  Ta454  1  0.60690819  0.34368569  0.74138958  1.0
  Ta  Ta455  1  0.60690819  0.67701903  0.74138958  1.0
  Ta  Ta456  1  0.94024153  0.01035236  0.74138958  1.0
  Ta  Ta457  1  0.94024153  0.34368569  0.74138958  1.0
  Ta  Ta458  1  0.94024153  0.67701903  0.74138958  1.0
  Ta  Ta459  1  0.09301931  0.24646347  0.69972292  1.0
  Ta  Ta460  1  0.09301931  0.57979681  0.69972292  1.0
  Ta  Ta461  1  0.09301931  0.91313014  0.69972292  1.0
  Ta  Ta462  1  0.42635264  0.24646347  0.69972292  1.0
  Ta  Ta463  1  0.42635264  0.57979681  0.69972292  1.0
  Ta  Ta464  1  0.42635264  0.91313014  0.69972292  1.0
  Ta  Ta465  1  0.75968597  0.24646347  0.69972292  1.0
  Ta  Ta466  1  0.75968597  0.57979681  0.69972292  1.0
  Ta  Ta467  1  0.75968597  0.91313014  0.69972292  1.0
  Ta  Ta468  1  0.17086958  0.10075875  0.59194375  1.0
  Ta  Ta469  1  0.17086958  0.43409208  0.59194375  1.0
  Ta  Ta470  1  0.17086958  0.76742542  0.59194375  1.0
  Ta  Ta471  1  0.50420292  0.10075875  0.59194375  1.0
  Ta  Ta472  1  0.50420292  0.43409208  0.59194375  1.0
  Ta  Ta473  1  0.50420292  0.76742542  0.59194375  1.0
  Ta  Ta474  1  0.83753625  0.10075875  0.59194375  1.0
  Ta  Ta475  1  0.83753625  0.43409208  0.59194375  1.0
  Ta  Ta476  1  0.83753625  0.76742542  0.59194375  1.0
  Ta  Ta477  1  0.01809181  0.19798097  0.63361042  1.0
  Ta  Ta478  1  0.01809181  0.53131431  0.63361042  1.0
  Ta  Ta479  1  0.01809181  0.86464764  0.63361042  1.0
  Ta  Ta480  1  0.35142514  0.19798097  0.63361042  1.0
  Ta  Ta481  1  0.35142514  0.53131431  0.63361042  1.0
  Ta  Ta482  1  0.35142514  0.86464764  0.63361042  1.0
  Ta  Ta483  1  0.68475847  0.19798097  0.63361042  1.0
  Ta  Ta484  1  0.68475847  0.53131431  0.63361042  1.0
  Ta  Ta485  1  0.68475847  0.86464764  0.63361042  1.0
  Ta  Ta486  1  0.26996236  0.04440819  0.63922208  1.0
  Ta  Ta487  1  0.26996236  0.37774153  0.63922208  1.0
  Ta  Ta488  1  0.26996236  0.71107486  0.63922208  1.0
  Ta  Ta489  1  0.60329569  0.04440819  0.63922208  1.0
  Ta  Ta490  1  0.60329569  0.37774153  0.63922208  1.0
  Ta  Ta491  1  0.60329569  0.71107486  0.63922208  1.0
  Ta  Ta492  1  0.93662903  0.04440819  0.63922208  1.0
  Ta  Ta493  1  0.93662903  0.37774153  0.63922208  1.0
  Ta  Ta494  1  0.93662903  0.71107486  0.63922208  1.0
  Ta  Ta495  1  0.08940681  0.28051931  0.59755542  1.0
  Ta  Ta496  1  0.08940681  0.61385264  0.59755542  1.0
  Ta  Ta497  1  0.08940681  0.94718597  0.59755542  1.0
  Ta  Ta498  1  0.42274014  0.28051931  0.59755542  1.0
  Ta  Ta499  1  0.42274014  0.61385264  0.59755542  1.0
  Ta  Ta500  1  0.42274014  0.94718597  0.59755542  1.0
  Ta  Ta501  1  0.75607347  0.28051931  0.59755542  1.0
  Ta  Ta502  1  0.75607347  0.61385264  0.59755542  1.0
  Ta  Ta503  1  0.75607347  0.94718597  0.59755542  1.0
  Ta  Ta504  1  0.14670431  0.20559181  0.61077792  1.0
  Ta  Ta505  1  0.14670431  0.53892514  0.61077792  1.0
  Ta  Ta506  1  0.14670431  0.87225847  0.61077792  1.0
  Ta  Ta507  1  0.48003764  0.20559181  0.61077792  1.0
  Ta  Ta508  1  0.48003764  0.53892514  0.61077792  1.0
  Ta  Ta509  1  0.48003764  0.87225847  0.61077792  1.0
  Ta  Ta510  1  0.81337097  0.20559181  0.61077792  1.0
  Ta  Ta511  1  0.81337097  0.53892514  0.61077792  1.0
  Ta  Ta512  1  0.81337097  0.87225847  0.61077792  1.0
  Ta  Ta513  1  0.32725986  0.30281403  0.65244458  1.0
  Ta  Ta514  1  0.32725986  0.63614736  0.65244458  1.0
  Ta  Ta515  1  0.32725986  0.96948069  0.65244458  1.0
  Ta  Ta516  1  0.66059319  0.30281403  0.65244458  1.0
  Ta  Ta517  1  0.66059319  0.63614736  0.65244458  1.0
  Ta  Ta518  1  0.66059319  0.96948069  0.65244458  1.0
  Ta  Ta519  1  0.99392653  0.30281403  0.65244458  1.0
  Ta  Ta520  1  0.99392653  0.63614736  0.65244458  1.0
  Ta  Ta521  1  0.99392653  0.96948069  0.65244458  1.0
  Ta  Ta522  1  0.24579708  0.14924125  0.65805625  1.0
  Ta  Ta523  1  0.24579708  0.48257458  0.65805625  1.0
  Ta  Ta524  1  0.24579708  0.81590792  0.65805625  1.0
  Ta  Ta525  1  0.57913042  0.14924125  0.65805625  1.0
  Ta  Ta526  1  0.57913042  0.48257458  0.65805625  1.0
  Ta  Ta527  1  0.57913042  0.81590792  0.65805625  1.0
  Ta  Ta528  1  0.91246375  0.14924125  0.65805625  1.0
  Ta  Ta529  1  0.91246375  0.48257458  0.65805625  1.0
  Ta  Ta530  1  0.91246375  0.81590792  0.65805625  1.0
  Ta  Ta531  1  0.06524153  0.05201903  0.61638958  1.0
  Ta  Ta532  1  0.06524153  0.38535236  0.61638958  1.0
  Ta  Ta533  1  0.06524153  0.71868569  0.61638958  1.0
  Ta  Ta534  1  0.39857486  0.05201903  0.61638958  1.0
  Ta  Ta535  1  0.39857486  0.38535236  0.61638958  1.0
  Ta  Ta536  1  0.39857486  0.71868569  0.61638958  1.0
  Ta  Ta537  1  0.73190819  0.05201903  0.61638958  1.0
  Ta  Ta538  1  0.73190819  0.38535236  0.61638958  1.0
  Ta  Ta539  1  0.73190819  0.71868569  0.61638958  1.0
