# generated using pymatgen
data_Ta2Ni
_symmetry_space_group_name_H-M   'P 1'
_cell_length_a   40.30604345
_cell_length_b   23.71942501
_cell_length_c   70.45622752
_cell_angle_alpha   38.23048081
_cell_angle_beta   95.03082484
_cell_angle_gamma   64.13906930
_symmetry_Int_Tables_number   1
_chemical_formula_structural   Ta2Ni
_chemical_formula_sum   'Ta432 Ni216'
_cell_volume   23805.65782412
_cell_formula_units_Z   216
loop_
 _symmetry_equiv_pos_site_id
 _symmetry_equiv_pos_as_xyz
  1  'x, y, z'
loop_
 _atom_site_type_symbol
 _atom_site_label
 _atom_site_symmetry_multiplicity
 _atom_site_fract_x
 _atom_site_fract_y
 _atom_site_fract_z
 _atom_site_occupancy
  Ta  Ta0  1  0.27644500  0.00399833  0.04610839  1.0
  Ta  Ta1  1  0.27644500  0.33733167  0.04610839  1.0
  Ta  Ta2  1  0.27644500  0.67066500  0.04610839  1.0
  Ta  Ta3  1  0.60977833  0.00399833  0.04610839  1.0
  Ta  Ta4  1  0.60977833  0.33733167  0.04610839  1.0
  Ta  Ta5  1  0.60977833  0.67066500  0.04610839  1.0
  Ta  Ta6  1  0.94311167  0.00399833  0.04610839  1.0
  Ta  Ta7  1  0.94311167  0.33733167  0.04610839  1.0
  Ta  Ta8  1  0.94311167  0.67066500  0.04610839  1.0
  Ta  Ta9  1  0.10977833  0.17066500  0.01039411  1.0
  Ta  Ta10  1  0.10977833  0.50399833  0.01039411  1.0
  Ta  Ta11  1  0.10977833  0.83733167  0.01039411  1.0
  Ta  Ta12  1  0.44311167  0.17066500  0.01039411  1.0
  Ta  Ta13  1  0.44311167  0.50399833  0.01039411  1.0
  Ta  Ta14  1  0.44311167  0.83733167  0.01039411  1.0
  Ta  Ta15  1  0.77644500  0.17066500  0.01039411  1.0
  Ta  Ta16  1  0.77644500  0.50399833  0.01039411  1.0
  Ta  Ta17  1  0.77644500  0.83733167  0.01039411  1.0
  Ta  Ta18  1  0.30688833  0.14022167  0.06567911  1.0
  Ta  Ta19  1  0.30688833  0.47355500  0.06567911  1.0
  Ta  Ta20  1  0.30688833  0.80688833  0.06567911  1.0
  Ta  Ta21  1  0.64022167  0.14022167  0.06567911  1.0
  Ta  Ta22  1  0.64022167  0.47355500  0.06567911  1.0
  Ta  Ta23  1  0.64022167  0.80688833  0.06567911  1.0
  Ta  Ta24  1  0.97355500  0.14022167  0.06567911  1.0
  Ta  Ta25  1  0.97355500  0.47355500  0.06567911  1.0
  Ta  Ta26  1  0.97355500  0.80688833  0.06567911  1.0
  Ta  Ta27  1  0.14022167  0.30688833  0.02996482  1.0
  Ta  Ta28  1  0.14022167  0.64022167  0.02996482  1.0
  Ta  Ta29  1  0.14022167  0.97355500  0.02996482  1.0
  Ta  Ta30  1  0.47355500  0.30688833  0.02996482  1.0
  Ta  Ta31  1  0.47355500  0.64022167  0.02996482  1.0
  Ta  Ta32  1  0.47355500  0.97355500  0.02996482  1.0
  Ta  Ta33  1  0.80688833  0.30688833  0.02996482  1.0
  Ta  Ta34  1  0.80688833  0.64022167  0.02996482  1.0
  Ta  Ta35  1  0.80688833  0.97355500  0.02996482  1.0
  Ta  Ta36  1  0.19311167  0.02644500  0.01863125  1.0
  Ta  Ta37  1  0.19311167  0.35977833  0.01863125  1.0
  Ta  Ta38  1  0.19311167  0.69311167  0.01863125  1.0
  Ta  Ta39  1  0.52644500  0.02644500  0.01863125  1.0
  Ta  Ta40  1  0.52644500  0.35977833  0.01863125  1.0
  Ta  Ta41  1  0.52644500  0.69311167  0.01863125  1.0
  Ta  Ta42  1  0.85977833  0.02644500  0.01863125  1.0
  Ta  Ta43  1  0.85977833  0.35977833  0.01863125  1.0
  Ta  Ta44  1  0.85977833  0.69311167  0.01863125  1.0
  Ta  Ta45  1  0.02644500  0.19311167  0.05434554  1.0
  Ta  Ta46  1  0.02644500  0.52644500  0.05434554  1.0
  Ta  Ta47  1  0.02644500  0.85977833  0.05434554  1.0
  Ta  Ta48  1  0.35977833  0.19311167  0.05434554  1.0
  Ta  Ta49  1  0.35977833  0.52644500  0.05434554  1.0
  Ta  Ta50  1  0.35977833  0.85977833  0.05434554  1.0
  Ta  Ta51  1  0.69311167  0.19311167  0.05434554  1.0
  Ta  Ta52  1  0.69311167  0.52644500  0.05434554  1.0
  Ta  Ta53  1  0.69311167  0.85977833  0.05434554  1.0
  Ta  Ta54  1  0.22355500  0.16266833  0.03820196  1.0
  Ta  Ta55  1  0.22355500  0.49600167  0.03820196  1.0
  Ta  Ta56  1  0.22355500  0.82933500  0.03820196  1.0
  Ta  Ta57  1  0.55688833  0.16266833  0.03820196  1.0
  Ta  Ta58  1  0.55688833  0.49600167  0.03820196  1.0
  Ta  Ta59  1  0.55688833  0.82933500  0.03820196  1.0
  Ta  Ta60  1  0.89022167  0.16266833  0.03820196  1.0
  Ta  Ta61  1  0.89022167  0.49600167  0.03820196  1.0
  Ta  Ta62  1  0.89022167  0.82933500  0.03820196  1.0
  Ta  Ta63  1  0.05688833  0.32933500  0.00248768  1.0
  Ta  Ta64  1  0.05688833  0.66266833  0.00248768  1.0
  Ta  Ta65  1  0.05688833  0.99600167  0.00248768  1.0
  Ta  Ta66  1  0.39022167  0.32933500  0.00248768  1.0
  Ta  Ta67  1  0.39022167  0.66266833  0.00248768  1.0
  Ta  Ta68  1  0.39022167  0.99600167  0.00248768  1.0
  Ta  Ta69  1  0.72355500  0.32933500  0.00248768  1.0
  Ta  Ta70  1  0.72355500  0.66266833  0.00248768  1.0
  Ta  Ta71  1  0.72355500  0.99600167  0.00248768  1.0
  Ni  Ni72  1  0.29166667  0.12500000  0.03322661  1.0
  Ni  Ni73  1  0.29166667  0.45833333  0.03322661  1.0
  Ni  Ni74  1  0.29166667  0.79166667  0.03322661  1.0
  Ni  Ni75  1  0.62500000  0.12500000  0.03322661  1.0
  Ni  Ni76  1  0.62500000  0.45833333  0.03322661  1.0
  Ni  Ni77  1  0.62500000  0.79166667  0.03322661  1.0
  Ni  Ni78  1  0.95833333  0.12500000  0.03322661  1.0
  Ni  Ni79  1  0.95833333  0.45833333  0.03322661  1.0
  Ni  Ni80  1  0.95833333  0.79166667  0.03322661  1.0
  Ni  Ni81  1  0.12500000  0.29166667  0.06894089  1.0
  Ni  Ni82  1  0.12500000  0.62500000  0.06894089  1.0
  Ni  Ni83  1  0.12500000  0.95833333  0.06894089  1.0
  Ni  Ni84  1  0.45833333  0.29166667  0.06894089  1.0
  Ni  Ni85  1  0.45833333  0.62500000  0.06894089  1.0
  Ni  Ni86  1  0.45833333  0.95833333  0.06894089  1.0
  Ni  Ni87  1  0.79166667  0.29166667  0.06894089  1.0
  Ni  Ni88  1  0.79166667  0.62500000  0.06894089  1.0
  Ni  Ni89  1  0.79166667  0.95833333  0.06894089  1.0
  Ni  Ni90  1  0.20833333  0.04166667  0.05108375  1.0
  Ni  Ni91  1  0.20833333  0.37500000  0.05108375  1.0
  Ni  Ni92  1  0.20833333  0.70833333  0.05108375  1.0
  Ni  Ni93  1  0.54166667  0.04166667  0.05108375  1.0
  Ni  Ni94  1  0.54166667  0.37500000  0.05108375  1.0
  Ni  Ni95  1  0.54166667  0.70833333  0.05108375  1.0
  Ni  Ni96  1  0.87500000  0.04166667  0.05108375  1.0
  Ni  Ni97  1  0.87500000  0.37500000  0.05108375  1.0
  Ni  Ni98  1  0.87500000  0.70833333  0.05108375  1.0
  Ni  Ni99  1  0.04166667  0.20833333  0.01536946  1.0
  Ni  Ni100  1  0.04166667  0.54166667  0.01536946  1.0
  Ni  Ni101  1  0.04166667  0.87500000  0.01536946  1.0
  Ni  Ni102  1  0.37500000  0.20833333  0.01536946  1.0
  Ni  Ni103  1  0.37500000  0.54166667  0.01536946  1.0
  Ni  Ni104  1  0.37500000  0.87500000  0.01536946  1.0
  Ni  Ni105  1  0.70833333  0.20833333  0.01536946  1.0
  Ni  Ni106  1  0.70833333  0.54166667  0.01536946  1.0
  Ni  Ni107  1  0.70833333  0.87500000  0.01536946  1.0
  Ta  Ta108  1  0.27644500  0.00399833  0.11753696  1.0
  Ta  Ta109  1  0.27644500  0.33733167  0.11753696  1.0
  Ta  Ta110  1  0.27644500  0.67066500  0.11753696  1.0
  Ta  Ta111  1  0.60977833  0.00399833  0.11753696  1.0
  Ta  Ta112  1  0.60977833  0.33733167  0.11753696  1.0
  Ta  Ta113  1  0.60977833  0.67066500  0.11753696  1.0
  Ta  Ta114  1  0.94311167  0.00399833  0.11753696  1.0
  Ta  Ta115  1  0.94311167  0.33733167  0.11753696  1.0
  Ta  Ta116  1  0.94311167  0.67066500  0.11753696  1.0
  Ta  Ta117  1  0.10977833  0.17066500  0.08182268  1.0
  Ta  Ta118  1  0.10977833  0.50399833  0.08182268  1.0
  Ta  Ta119  1  0.10977833  0.83733167  0.08182268  1.0
  Ta  Ta120  1  0.44311167  0.17066500  0.08182268  1.0
  Ta  Ta121  1  0.44311167  0.50399833  0.08182268  1.0
  Ta  Ta122  1  0.44311167  0.83733167  0.08182268  1.0
  Ta  Ta123  1  0.77644500  0.17066500  0.08182268  1.0
  Ta  Ta124  1  0.77644500  0.50399833  0.08182268  1.0
  Ta  Ta125  1  0.77644500  0.83733167  0.08182268  1.0
  Ta  Ta126  1  0.30688833  0.14022167  0.13710768  1.0
  Ta  Ta127  1  0.30688833  0.47355500  0.13710768  1.0
  Ta  Ta128  1  0.30688833  0.80688833  0.13710768  1.0
  Ta  Ta129  1  0.64022167  0.14022167  0.13710768  1.0
  Ta  Ta130  1  0.64022167  0.47355500  0.13710768  1.0
  Ta  Ta131  1  0.64022167  0.80688833  0.13710768  1.0
  Ta  Ta132  1  0.97355500  0.14022167  0.13710768  1.0
  Ta  Ta133  1  0.97355500  0.47355500  0.13710768  1.0
  Ta  Ta134  1  0.97355500  0.80688833  0.13710768  1.0
  Ta  Ta135  1  0.14022167  0.30688833  0.10139339  1.0
  Ta  Ta136  1  0.14022167  0.64022167  0.10139339  1.0
  Ta  Ta137  1  0.14022167  0.97355500  0.10139339  1.0
  Ta  Ta138  1  0.47355500  0.30688833  0.10139339  1.0
  Ta  Ta139  1  0.47355500  0.64022167  0.10139339  1.0
  Ta  Ta140  1  0.47355500  0.97355500  0.10139339  1.0
  Ta  Ta141  1  0.80688833  0.30688833  0.10139339  1.0
  Ta  Ta142  1  0.80688833  0.64022167  0.10139339  1.0
  Ta  Ta143  1  0.80688833  0.97355500  0.10139339  1.0
  Ta  Ta144  1  0.19311167  0.02644500  0.09005982  1.0
  Ta  Ta145  1  0.19311167  0.35977833  0.09005982  1.0
  Ta  Ta146  1  0.19311167  0.69311167  0.09005982  1.0
  Ta  Ta147  1  0.52644500  0.02644500  0.09005982  1.0
  Ta  Ta148  1  0.52644500  0.35977833  0.09005982  1.0
  Ta  Ta149  1  0.52644500  0.69311167  0.09005982  1.0
  Ta  Ta150  1  0.85977833  0.02644500  0.09005982  1.0
  Ta  Ta151  1  0.85977833  0.35977833  0.09005982  1.0
  Ta  Ta152  1  0.85977833  0.69311167  0.09005982  1.0
  Ta  Ta153  1  0.02644500  0.19311167  0.12577411  1.0
  Ta  Ta154  1  0.02644500  0.52644500  0.12577411  1.0
  Ta  Ta155  1  0.02644500  0.85977833  0.12577411  1.0
  Ta  Ta156  1  0.35977833  0.19311167  0.12577411  1.0
  Ta  Ta157  1  0.35977833  0.52644500  0.12577411  1.0
  Ta  Ta158  1  0.35977833  0.85977833  0.12577411  1.0
  Ta  Ta159  1  0.69311167  0.19311167  0.12577411  1.0
  Ta  Ta160  1  0.69311167  0.52644500  0.12577411  1.0
  Ta  Ta161  1  0.69311167  0.85977833  0.12577411  1.0
  Ta  Ta162  1  0.22355500  0.16266833  0.10963054  1.0
  Ta  Ta163  1  0.22355500  0.49600167  0.10963054  1.0
  Ta  Ta164  1  0.22355500  0.82933500  0.10963054  1.0
  Ta  Ta165  1  0.55688833  0.16266833  0.10963054  1.0
  Ta  Ta166  1  0.55688833  0.49600167  0.10963054  1.0
  Ta  Ta167  1  0.55688833  0.82933500  0.10963054  1.0
  Ta  Ta168  1  0.89022167  0.16266833  0.10963054  1.0
  Ta  Ta169  1  0.89022167  0.49600167  0.10963054  1.0
  Ta  Ta170  1  0.89022167  0.82933500  0.10963054  1.0
  Ta  Ta171  1  0.05688833  0.32933500  0.07391625  1.0
  Ta  Ta172  1  0.05688833  0.66266833  0.07391625  1.0
  Ta  Ta173  1  0.05688833  0.99600167  0.07391625  1.0
  Ta  Ta174  1  0.39022167  0.32933500  0.07391625  1.0
  Ta  Ta175  1  0.39022167  0.66266833  0.07391625  1.0
  Ta  Ta176  1  0.39022167  0.99600167  0.07391625  1.0
  Ta  Ta177  1  0.72355500  0.32933500  0.07391625  1.0
  Ta  Ta178  1  0.72355500  0.66266833  0.07391625  1.0
  Ta  Ta179  1  0.72355500  0.99600167  0.07391625  1.0
  Ni  Ni180  1  0.29166667  0.12500000  0.10465518  1.0
  Ni  Ni181  1  0.29166667  0.45833333  0.10465518  1.0
  Ni  Ni182  1  0.29166667  0.79166667  0.10465518  1.0
  Ni  Ni183  1  0.62500000  0.12500000  0.10465518  1.0
  Ni  Ni184  1  0.62500000  0.45833333  0.10465518  1.0
  Ni  Ni185  1  0.62500000  0.79166667  0.10465518  1.0
  Ni  Ni186  1  0.95833333  0.12500000  0.10465518  1.0
  Ni  Ni187  1  0.95833333  0.45833333  0.10465518  1.0
  Ni  Ni188  1  0.95833333  0.79166667  0.10465518  1.0
  Ni  Ni189  1  0.12500000  0.29166667  0.14036946  1.0
  Ni  Ni190  1  0.12500000  0.62500000  0.14036946  1.0
  Ni  Ni191  1  0.12500000  0.95833333  0.14036946  1.0
  Ni  Ni192  1  0.45833333  0.29166667  0.14036946  1.0
  Ni  Ni193  1  0.45833333  0.62500000  0.14036946  1.0
  Ni  Ni194  1  0.45833333  0.95833333  0.14036946  1.0
  Ni  Ni195  1  0.79166667  0.29166667  0.14036946  1.0
  Ni  Ni196  1  0.79166667  0.62500000  0.14036946  1.0
  Ni  Ni197  1  0.79166667  0.95833333  0.14036946  1.0
  Ni  Ni198  1  0.20833333  0.04166667  0.12251232  1.0
  Ni  Ni199  1  0.20833333  0.37500000  0.12251232  1.0
  Ni  Ni200  1  0.20833333  0.70833333  0.12251232  1.0
  Ni  Ni201  1  0.54166667  0.04166667  0.12251232  1.0
  Ni  Ni202  1  0.54166667  0.37500000  0.12251232  1.0
  Ni  Ni203  1  0.54166667  0.70833333  0.12251232  1.0
  Ni  Ni204  1  0.87500000  0.04166667  0.12251232  1.0
  Ni  Ni205  1  0.87500000  0.37500000  0.12251232  1.0
  Ni  Ni206  1  0.87500000  0.70833333  0.12251232  1.0
  Ni  Ni207  1  0.04166667  0.20833333  0.08679804  1.0
  Ni  Ni208  1  0.04166667  0.54166667  0.08679804  1.0
  Ni  Ni209  1  0.04166667  0.87500000  0.08679804  1.0
  Ni  Ni210  1  0.37500000  0.20833333  0.08679804  1.0
  Ni  Ni211  1  0.37500000  0.54166667  0.08679804  1.0
  Ni  Ni212  1  0.37500000  0.87500000  0.08679804  1.0
  Ni  Ni213  1  0.70833333  0.20833333  0.08679804  1.0
  Ni  Ni214  1  0.70833333  0.54166667  0.08679804  1.0
  Ni  Ni215  1  0.70833333  0.87500000  0.08679804  1.0
  Ta  Ta216  1  0.27644500  0.00399833  0.18896554  1.0
  Ta  Ta217  1  0.27644500  0.33733167  0.18896554  1.0
  Ta  Ta218  1  0.27644500  0.67066500  0.18896554  1.0
  Ta  Ta219  1  0.60977833  0.00399833  0.18896554  1.0
  Ta  Ta220  1  0.60977833  0.33733167  0.18896554  1.0
  Ta  Ta221  1  0.60977833  0.67066500  0.18896554  1.0
  Ta  Ta222  1  0.94311167  0.00399833  0.18896554  1.0
  Ta  Ta223  1  0.94311167  0.33733167  0.18896554  1.0
  Ta  Ta224  1  0.94311167  0.67066500  0.18896554  1.0
  Ta  Ta225  1  0.10977833  0.17066500  0.15325125  1.0
  Ta  Ta226  1  0.10977833  0.50399833  0.15325125  1.0
  Ta  Ta227  1  0.10977833  0.83733167  0.15325125  1.0
  Ta  Ta228  1  0.44311167  0.17066500  0.15325125  1.0
  Ta  Ta229  1  0.44311167  0.50399833  0.15325125  1.0
  Ta  Ta230  1  0.44311167  0.83733167  0.15325125  1.0
  Ta  Ta231  1  0.77644500  0.17066500  0.15325125  1.0
  Ta  Ta232  1  0.77644500  0.50399833  0.15325125  1.0
  Ta  Ta233  1  0.77644500  0.83733167  0.15325125  1.0
  Ta  Ta234  1  0.30688833  0.14022167  0.20853625  1.0
  Ta  Ta235  1  0.30688833  0.47355500  0.20853625  1.0
  Ta  Ta236  1  0.30688833  0.80688833  0.20853625  1.0
  Ta  Ta237  1  0.64022167  0.14022167  0.20853625  1.0
  Ta  Ta238  1  0.64022167  0.47355500  0.20853625  1.0
  Ta  Ta239  1  0.64022167  0.80688833  0.20853625  1.0
  Ta  Ta240  1  0.97355500  0.14022167  0.20853625  1.0
  Ta  Ta241  1  0.97355500  0.47355500  0.20853625  1.0
  Ta  Ta242  1  0.97355500  0.80688833  0.20853625  1.0
  Ta  Ta243  1  0.14022167  0.30688833  0.17282196  1.0
  Ta  Ta244  1  0.14022167  0.64022167  0.17282196  1.0
  Ta  Ta245  1  0.14022167  0.97355500  0.17282196  1.0
  Ta  Ta246  1  0.47355500  0.30688833  0.17282196  1.0
  Ta  Ta247  1  0.47355500  0.64022167  0.17282196  1.0
  Ta  Ta248  1  0.47355500  0.97355500  0.17282196  1.0
  Ta  Ta249  1  0.80688833  0.30688833  0.17282196  1.0
  Ta  Ta250  1  0.80688833  0.64022167  0.17282196  1.0
  Ta  Ta251  1  0.80688833  0.97355500  0.17282196  1.0
  Ta  Ta252  1  0.19311167  0.02644500  0.16148839  1.0
  Ta  Ta253  1  0.19311167  0.35977833  0.16148839  1.0
  Ta  Ta254  1  0.19311167  0.69311167  0.16148839  1.0
  Ta  Ta255  1  0.52644500  0.02644500  0.16148839  1.0
  Ta  Ta256  1  0.52644500  0.35977833  0.16148839  1.0
  Ta  Ta257  1  0.52644500  0.69311167  0.16148839  1.0
  Ta  Ta258  1  0.85977833  0.02644500  0.16148839  1.0
  Ta  Ta259  1  0.85977833  0.35977833  0.16148839  1.0
  Ta  Ta260  1  0.85977833  0.69311167  0.16148839  1.0
  Ta  Ta261  1  0.02644500  0.19311167  0.19720268  1.0
  Ta  Ta262  1  0.02644500  0.52644500  0.19720268  1.0
  Ta  Ta263  1  0.02644500  0.85977833  0.19720268  1.0
  Ta  Ta264  1  0.35977833  0.19311167  0.19720268  1.0
  Ta  Ta265  1  0.35977833  0.52644500  0.19720268  1.0
  Ta  Ta266  1  0.35977833  0.85977833  0.19720268  1.0
  Ta  Ta267  1  0.69311167  0.19311167  0.19720268  1.0
  Ta  Ta268  1  0.69311167  0.52644500  0.19720268  1.0
  Ta  Ta269  1  0.69311167  0.85977833  0.19720268  1.0
  Ta  Ta270  1  0.22355500  0.16266833  0.18105911  1.0
  Ta  Ta271  1  0.22355500  0.49600167  0.18105911  1.0
  Ta  Ta272  1  0.22355500  0.82933500  0.18105911  1.0
  Ta  Ta273  1  0.55688833  0.16266833  0.18105911  1.0
  Ta  Ta274  1  0.55688833  0.49600167  0.18105911  1.0
  Ta  Ta275  1  0.55688833  0.82933500  0.18105911  1.0
  Ta  Ta276  1  0.89022167  0.16266833  0.18105911  1.0
  Ta  Ta277  1  0.89022167  0.49600167  0.18105911  1.0
  Ta  Ta278  1  0.89022167  0.82933500  0.18105911  1.0
  Ta  Ta279  1  0.05688833  0.32933500  0.14534482  1.0
  Ta  Ta280  1  0.05688833  0.66266833  0.14534482  1.0
  Ta  Ta281  1  0.05688833  0.99600167  0.14534482  1.0
  Ta  Ta282  1  0.39022167  0.32933500  0.14534482  1.0
  Ta  Ta283  1  0.39022167  0.66266833  0.14534482  1.0
  Ta  Ta284  1  0.39022167  0.99600167  0.14534482  1.0
  Ta  Ta285  1  0.72355500  0.32933500  0.14534482  1.0
  Ta  Ta286  1  0.72355500  0.66266833  0.14534482  1.0
  Ta  Ta287  1  0.72355500  0.99600167  0.14534482  1.0
  Ni  Ni288  1  0.29166667  0.12500000  0.17608375  1.0
  Ni  Ni289  1  0.29166667  0.45833333  0.17608375  1.0
  Ni  Ni290  1  0.29166667  0.79166667  0.17608375  1.0
  Ni  Ni291  1  0.62500000  0.12500000  0.17608375  1.0
  Ni  Ni292  1  0.62500000  0.45833333  0.17608375  1.0
  Ni  Ni293  1  0.62500000  0.79166667  0.17608375  1.0
  Ni  Ni294  1  0.95833333  0.12500000  0.17608375  1.0
  Ni  Ni295  1  0.95833333  0.45833333  0.17608375  1.0
  Ni  Ni296  1  0.95833333  0.79166667  0.17608375  1.0
  Ni  Ni297  1  0.12500000  0.29166667  0.21179804  1.0
  Ni  Ni298  1  0.12500000  0.62500000  0.21179804  1.0
  Ni  Ni299  1  0.12500000  0.95833333  0.21179804  1.0
  Ni  Ni300  1  0.45833333  0.29166667  0.21179804  1.0
  Ni  Ni301  1  0.45833333  0.62500000  0.21179804  1.0
  Ni  Ni302  1  0.45833333  0.95833333  0.21179804  1.0
  Ni  Ni303  1  0.79166667  0.29166667  0.21179804  1.0
  Ni  Ni304  1  0.79166667  0.62500000  0.21179804  1.0
  Ni  Ni305  1  0.79166667  0.95833333  0.21179804  1.0
  Ni  Ni306  1  0.20833333  0.04166667  0.19394089  1.0
  Ni  Ni307  1  0.20833333  0.37500000  0.19394089  1.0
  Ni  Ni308  1  0.20833333  0.70833333  0.19394089  1.0
  Ni  Ni309  1  0.54166667  0.04166667  0.19394089  1.0
  Ni  Ni310  1  0.54166667  0.37500000  0.19394089  1.0
  Ni  Ni311  1  0.54166667  0.70833333  0.19394089  1.0
  Ni  Ni312  1  0.87500000  0.04166667  0.19394089  1.0
  Ni  Ni313  1  0.87500000  0.37500000  0.19394089  1.0
  Ni  Ni314  1  0.87500000  0.70833333  0.19394089  1.0
  Ni  Ni315  1  0.04166667  0.20833333  0.15822661  1.0
  Ni  Ni316  1  0.04166667  0.54166667  0.15822661  1.0
  Ni  Ni317  1  0.04166667  0.87500000  0.15822661  1.0
  Ni  Ni318  1  0.37500000  0.20833333  0.15822661  1.0
  Ni  Ni319  1  0.37500000  0.54166667  0.15822661  1.0
  Ni  Ni320  1  0.37500000  0.87500000  0.15822661  1.0
  Ni  Ni321  1  0.70833333  0.20833333  0.15822661  1.0
  Ni  Ni322  1  0.70833333  0.54166667  0.15822661  1.0
  Ni  Ni323  1  0.70833333  0.87500000  0.15822661  1.0
  Ta  Ta324  1  0.27644500  0.00399833  0.26039411  1.0
  Ta  Ta325  1  0.27644500  0.33733167  0.26039411  1.0
  Ta  Ta326  1  0.27644500  0.67066500  0.26039411  1.0
  Ta  Ta327  1  0.60977833  0.00399833  0.26039411  1.0
  Ta  Ta328  1  0.60977833  0.33733167  0.26039411  1.0
  Ta  Ta329  1  0.60977833  0.67066500  0.26039411  1.0
  Ta  Ta330  1  0.94311167  0.00399833  0.26039411  1.0
  Ta  Ta331  1  0.94311167  0.33733167  0.26039411  1.0
  Ta  Ta332  1  0.94311167  0.67066500  0.26039411  1.0
  Ta  Ta333  1  0.10977833  0.17066500  0.22467982  1.0
  Ta  Ta334  1  0.10977833  0.50399833  0.22467982  1.0
  Ta  Ta335  1  0.10977833  0.83733167  0.22467982  1.0
  Ta  Ta336  1  0.44311167  0.17066500  0.22467982  1.0
  Ta  Ta337  1  0.44311167  0.50399833  0.22467982  1.0
  Ta  Ta338  1  0.44311167  0.83733167  0.22467982  1.0
  Ta  Ta339  1  0.77644500  0.17066500  0.22467982  1.0
  Ta  Ta340  1  0.77644500  0.50399833  0.22467982  1.0
  Ta  Ta341  1  0.77644500  0.83733167  0.22467982  1.0
  Ta  Ta342  1  0.30688833  0.14022167  0.27996482  1.0
  Ta  Ta343  1  0.30688833  0.47355500  0.27996482  1.0
  Ta  Ta344  1  0.30688833  0.80688833  0.27996482  1.0
  Ta  Ta345  1  0.64022167  0.14022167  0.27996482  1.0
  Ta  Ta346  1  0.64022167  0.47355500  0.27996482  1.0
  Ta  Ta347  1  0.64022167  0.80688833  0.27996482  1.0
  Ta  Ta348  1  0.97355500  0.14022167  0.27996482  1.0
  Ta  Ta349  1  0.97355500  0.47355500  0.27996482  1.0
  Ta  Ta350  1  0.97355500  0.80688833  0.27996482  1.0
  Ta  Ta351  1  0.14022167  0.30688833  0.24425054  1.0
  Ta  Ta352  1  0.14022167  0.64022167  0.24425054  1.0
  Ta  Ta353  1  0.14022167  0.97355500  0.24425054  1.0
  Ta  Ta354  1  0.47355500  0.30688833  0.24425054  1.0
  Ta  Ta355  1  0.47355500  0.64022167  0.24425054  1.0
  Ta  Ta356  1  0.47355500  0.97355500  0.24425054  1.0
  Ta  Ta357  1  0.80688833  0.30688833  0.24425054  1.0
  Ta  Ta358  1  0.80688833  0.64022167  0.24425054  1.0
  Ta  Ta359  1  0.80688833  0.97355500  0.24425054  1.0
  Ta  Ta360  1  0.19311167  0.02644500  0.23291696  1.0
  Ta  Ta361  1  0.19311167  0.35977833  0.23291696  1.0
  Ta  Ta362  1  0.19311167  0.69311167  0.23291696  1.0
  Ta  Ta363  1  0.52644500  0.02644500  0.23291696  1.0
  Ta  Ta364  1  0.52644500  0.35977833  0.23291696  1.0
  Ta  Ta365  1  0.52644500  0.69311167  0.23291696  1.0
  Ta  Ta366  1  0.85977833  0.02644500  0.23291696  1.0
  Ta  Ta367  1  0.85977833  0.35977833  0.23291696  1.0
  Ta  Ta368  1  0.85977833  0.69311167  0.23291696  1.0
  Ta  Ta369  1  0.02644500  0.19311167  0.26863125  1.0
  Ta  Ta370  1  0.02644500  0.52644500  0.26863125  1.0
  Ta  Ta371  1  0.02644500  0.85977833  0.26863125  1.0
  Ta  Ta372  1  0.35977833  0.19311167  0.26863125  1.0
  Ta  Ta373  1  0.35977833  0.52644500  0.26863125  1.0
  Ta  Ta374  1  0.35977833  0.85977833  0.26863125  1.0
  Ta  Ta375  1  0.69311167  0.19311167  0.26863125  1.0
  Ta  Ta376  1  0.69311167  0.52644500  0.26863125  1.0
  Ta  Ta377  1  0.69311167  0.85977833  0.26863125  1.0
  Ta  Ta378  1  0.22355500  0.16266833  0.25248768  1.0
  Ta  Ta379  1  0.22355500  0.49600167  0.25248768  1.0
  Ta  Ta380  1  0.22355500  0.82933500  0.25248768  1.0
  Ta  Ta381  1  0.55688833  0.16266833  0.25248768  1.0
  Ta  Ta382  1  0.55688833  0.49600167  0.25248768  1.0
  Ta  Ta383  1  0.55688833  0.82933500  0.25248768  1.0
  Ta  Ta384  1  0.89022167  0.16266833  0.25248768  1.0
  Ta  Ta385  1  0.89022167  0.49600167  0.25248768  1.0
  Ta  Ta386  1  0.89022167  0.82933500  0.25248768  1.0
  Ta  Ta387  1  0.05688833  0.32933500  0.21677339  1.0
  Ta  Ta388  1  0.05688833  0.66266833  0.21677339  1.0
  Ta  Ta389  1  0.05688833  0.99600167  0.21677339  1.0
  Ta  Ta390  1  0.39022167  0.32933500  0.21677339  1.0
  Ta  Ta391  1  0.39022167  0.66266833  0.21677339  1.0
  Ta  Ta392  1  0.39022167  0.99600167  0.21677339  1.0
  Ta  Ta393  1  0.72355500  0.32933500  0.21677339  1.0
  Ta  Ta394  1  0.72355500  0.66266833  0.21677339  1.0
  Ta  Ta395  1  0.72355500  0.99600167  0.21677339  1.0
  Ni  Ni396  1  0.29166667  0.12500000  0.24751232  1.0
  Ni  Ni397  1  0.29166667  0.45833333  0.24751232  1.0
  Ni  Ni398  1  0.29166667  0.79166667  0.24751232  1.0
  Ni  Ni399  1  0.62500000  0.12500000  0.24751232  1.0
  Ni  Ni400  1  0.62500000  0.45833333  0.24751232  1.0
  Ni  Ni401  1  0.62500000  0.79166667  0.24751232  1.0
  Ni  Ni402  1  0.95833333  0.12500000  0.24751232  1.0
  Ni  Ni403  1  0.95833333  0.45833333  0.24751232  1.0
  Ni  Ni404  1  0.95833333  0.79166667  0.24751232  1.0
  Ni  Ni405  1  0.12500000  0.29166667  0.28322661  1.0
  Ni  Ni406  1  0.12500000  0.62500000  0.28322661  1.0
  Ni  Ni407  1  0.12500000  0.95833333  0.28322661  1.0
  Ni  Ni408  1  0.45833333  0.29166667  0.28322661  1.0
  Ni  Ni409  1  0.45833333  0.62500000  0.28322661  1.0
  Ni  Ni410  1  0.45833333  0.95833333  0.28322661  1.0
  Ni  Ni411  1  0.79166667  0.29166667  0.28322661  1.0
  Ni  Ni412  1  0.79166667  0.62500000  0.28322661  1.0
  Ni  Ni413  1  0.79166667  0.95833333  0.28322661  1.0
  Ni  Ni414  1  0.20833333  0.04166667  0.26536946  1.0
  Ni  Ni415  1  0.20833333  0.37500000  0.26536946  1.0
  Ni  Ni416  1  0.20833333  0.70833333  0.26536946  1.0
  Ni  Ni417  1  0.54166667  0.04166667  0.26536946  1.0
  Ni  Ni418  1  0.54166667  0.37500000  0.26536946  1.0
  Ni  Ni419  1  0.54166667  0.70833333  0.26536946  1.0
  Ni  Ni420  1  0.87500000  0.04166667  0.26536946  1.0
  Ni  Ni421  1  0.87500000  0.37500000  0.26536946  1.0
  Ni  Ni422  1  0.87500000  0.70833333  0.26536946  1.0
  Ni  Ni423  1  0.04166667  0.20833333  0.22965518  1.0
  Ni  Ni424  1  0.04166667  0.54166667  0.22965518  1.0
  Ni  Ni425  1  0.04166667  0.87500000  0.22965518  1.0
  Ni  Ni426  1  0.37500000  0.20833333  0.22965518  1.0
  Ni  Ni427  1  0.37500000  0.54166667  0.22965518  1.0
  Ni  Ni428  1  0.37500000  0.87500000  0.22965518  1.0
  Ni  Ni429  1  0.70833333  0.20833333  0.22965518  1.0
  Ni  Ni430  1  0.70833333  0.54166667  0.22965518  1.0
  Ni  Ni431  1  0.70833333  0.87500000  0.22965518  1.0
  Ta  Ta432  1  0.27644500  0.00399833  0.33182268  1.0
  Ta  Ta433  1  0.27644500  0.33733167  0.33182268  1.0
  Ta  Ta434  1  0.27644500  0.67066500  0.33182268  1.0
  Ta  Ta435  1  0.60977833  0.00399833  0.33182268  1.0
  Ta  Ta436  1  0.60977833  0.33733167  0.33182268  1.0
  Ta  Ta437  1  0.60977833  0.67066500  0.33182268  1.0
  Ta  Ta438  1  0.94311167  0.00399833  0.33182268  1.0
  Ta  Ta439  1  0.94311167  0.33733167  0.33182268  1.0
  Ta  Ta440  1  0.94311167  0.67066500  0.33182268  1.0
  Ta  Ta441  1  0.10977833  0.17066500  0.29610839  1.0
  Ta  Ta442  1  0.10977833  0.50399833  0.29610839  1.0
  Ta  Ta443  1  0.10977833  0.83733167  0.29610839  1.0
  Ta  Ta444  1  0.44311167  0.17066500  0.29610839  1.0
  Ta  Ta445  1  0.44311167  0.50399833  0.29610839  1.0
  Ta  Ta446  1  0.44311167  0.83733167  0.29610839  1.0
  Ta  Ta447  1  0.77644500  0.17066500  0.29610839  1.0
  Ta  Ta448  1  0.77644500  0.50399833  0.29610839  1.0
  Ta  Ta449  1  0.77644500  0.83733167  0.29610839  1.0
  Ta  Ta450  1  0.30688833  0.14022167  0.35139339  1.0
  Ta  Ta451  1  0.30688833  0.47355500  0.35139339  1.0
  Ta  Ta452  1  0.30688833  0.80688833  0.35139339  1.0
  Ta  Ta453  1  0.64022167  0.14022167  0.35139339  1.0
  Ta  Ta454  1  0.64022167  0.47355500  0.35139339  1.0
  Ta  Ta455  1  0.64022167  0.80688833  0.35139339  1.0
  Ta  Ta456  1  0.97355500  0.14022167  0.35139339  1.0
  Ta  Ta457  1  0.97355500  0.47355500  0.35139339  1.0
  Ta  Ta458  1  0.97355500  0.80688833  0.35139339  1.0
  Ta  Ta459  1  0.14022167  0.30688833  0.31567911  1.0
  Ta  Ta460  1  0.14022167  0.64022167  0.31567911  1.0
  Ta  Ta461  1  0.14022167  0.97355500  0.31567911  1.0
  Ta  Ta462  1  0.47355500  0.30688833  0.31567911  1.0
  Ta  Ta463  1  0.47355500  0.64022167  0.31567911  1.0
  Ta  Ta464  1  0.47355500  0.97355500  0.31567911  1.0
  Ta  Ta465  1  0.80688833  0.30688833  0.31567911  1.0
  Ta  Ta466  1  0.80688833  0.64022167  0.31567911  1.0
  Ta  Ta467  1  0.80688833  0.97355500  0.31567911  1.0
  Ta  Ta468  1  0.19311167  0.02644500  0.30434554  1.0
  Ta  Ta469  1  0.19311167  0.35977833  0.30434554  1.0
  Ta  Ta470  1  0.19311167  0.69311167  0.30434554  1.0
  Ta  Ta471  1  0.52644500  0.02644500  0.30434554  1.0
  Ta  Ta472  1  0.52644500  0.35977833  0.30434554  1.0
  Ta  Ta473  1  0.52644500  0.69311167  0.30434554  1.0
  Ta  Ta474  1  0.85977833  0.02644500  0.30434554  1.0
  Ta  Ta475  1  0.85977833  0.35977833  0.30434554  1.0
  Ta  Ta476  1  0.85977833  0.69311167  0.30434554  1.0
  Ta  Ta477  1  0.02644500  0.19311167  0.34005982  1.0
  Ta  Ta478  1  0.02644500  0.52644500  0.34005982  1.0
  Ta  Ta479  1  0.02644500  0.85977833  0.34005982  1.0
  Ta  Ta480  1  0.35977833  0.19311167  0.34005982  1.0
  Ta  Ta481  1  0.35977833  0.52644500  0.34005982  1.0
  Ta  Ta482  1  0.35977833  0.85977833  0.34005982  1.0
  Ta  Ta483  1  0.69311167  0.19311167  0.34005982  1.0
  Ta  Ta484  1  0.69311167  0.52644500  0.34005982  1.0
  Ta  Ta485  1  0.69311167  0.85977833  0.34005982  1.0
  Ta  Ta486  1  0.22355500  0.16266833  0.32391625  1.0
  Ta  Ta487  1  0.22355500  0.49600167  0.32391625  1.0
  Ta  Ta488  1  0.22355500  0.82933500  0.32391625  1.0
  Ta  Ta489  1  0.55688833  0.16266833  0.32391625  1.0
  Ta  Ta490  1  0.55688833  0.49600167  0.32391625  1.0
  Ta  Ta491  1  0.55688833  0.82933500  0.32391625  1.0
  Ta  Ta492  1  0.89022167  0.16266833  0.32391625  1.0
  Ta  Ta493  1  0.89022167  0.49600167  0.32391625  1.0
  Ta  Ta494  1  0.89022167  0.82933500  0.32391625  1.0
  Ta  Ta495  1  0.05688833  0.32933500  0.28820196  1.0
  Ta  Ta496  1  0.05688833  0.66266833  0.28820196  1.0
  Ta  Ta497  1  0.05688833  0.99600167  0.28820196  1.0
  Ta  Ta498  1  0.39022167  0.32933500  0.28820196  1.0
  Ta  Ta499  1  0.39022167  0.66266833  0.28820196  1.0
  Ta  Ta500  1  0.39022167  0.99600167  0.28820196  1.0
  Ta  Ta501  1  0.72355500  0.32933500  0.28820196  1.0
  Ta  Ta502  1  0.72355500  0.66266833  0.28820196  1.0
  Ta  Ta503  1  0.72355500  0.99600167  0.28820196  1.0
  Ni  Ni504  1  0.29166667  0.12500000  0.31894089  1.0
  Ni  Ni505  1  0.29166667  0.45833333  0.31894089  1.0
  Ni  Ni506  1  0.29166667  0.79166667  0.31894089  1.0
  Ni  Ni507  1  0.62500000  0.12500000  0.31894089  1.0
  Ni  Ni508  1  0.62500000  0.45833333  0.31894089  1.0
  Ni  Ni509  1  0.62500000  0.79166667  0.31894089  1.0
  Ni  Ni510  1  0.95833333  0.12500000  0.31894089  1.0
  Ni  Ni511  1  0.95833333  0.45833333  0.31894089  1.0
  Ni  Ni512  1  0.95833333  0.79166667  0.31894089  1.0
  Ni  Ni513  1  0.12500000  0.29166667  0.35465518  1.0
  Ni  Ni514  1  0.12500000  0.62500000  0.35465518  1.0
  Ni  Ni515  1  0.12500000  0.95833333  0.35465518  1.0
  Ni  Ni516  1  0.45833333  0.29166667  0.35465518  1.0
  Ni  Ni517  1  0.45833333  0.62500000  0.35465518  1.0
  Ni  Ni518  1  0.45833333  0.95833333  0.35465518  1.0
  Ni  Ni519  1  0.79166667  0.29166667  0.35465518  1.0
  Ni  Ni520  1  0.79166667  0.62500000  0.35465518  1.0
  Ni  Ni521  1  0.79166667  0.95833333  0.35465518  1.0
  Ni  Ni522  1  0.20833333  0.04166667  0.33679804  1.0
  Ni  Ni523  1  0.20833333  0.37500000  0.33679804  1.0
  Ni  Ni524  1  0.20833333  0.70833333  0.33679804  1.0
  Ni  Ni525  1  0.54166667  0.04166667  0.33679804  1.0
  Ni  Ni526  1  0.54166667  0.37500000  0.33679804  1.0
  Ni  Ni527  1  0.54166667  0.70833333  0.33679804  1.0
  Ni  Ni528  1  0.87500000  0.04166667  0.33679804  1.0
  Ni  Ni529  1  0.87500000  0.37500000  0.33679804  1.0
  Ni  Ni530  1  0.87500000  0.70833333  0.33679804  1.0
  Ni  Ni531  1  0.04166667  0.20833333  0.30108375  1.0
  Ni  Ni532  1  0.04166667  0.54166667  0.30108375  1.0
  Ni  Ni533  1  0.04166667  0.87500000  0.30108375  1.0
  Ni  Ni534  1  0.37500000  0.20833333  0.30108375  1.0
  Ni  Ni535  1  0.37500000  0.54166667  0.30108375  1.0
  Ni  Ni536  1  0.37500000  0.87500000  0.30108375  1.0
  Ni  Ni537  1  0.70833333  0.20833333  0.30108375  1.0
  Ni  Ni538  1  0.70833333  0.54166667  0.30108375  1.0
  Ni  Ni539  1  0.70833333  0.87500000  0.30108375  1.0
  Ta  Ta540  1  0.27644500  0.00399833  0.40325125  1.0
  Ta  Ta541  1  0.27644500  0.33733167  0.40325125  1.0
  Ta  Ta542  1  0.27644500  0.67066500  0.40325125  1.0
  Ta  Ta543  1  0.60977833  0.00399833  0.40325125  1.0
  Ta  Ta544  1  0.60977833  0.33733167  0.40325125  1.0
  Ta  Ta545  1  0.60977833  0.67066500  0.40325125  1.0
  Ta  Ta546  1  0.94311167  0.00399833  0.40325125  1.0
  Ta  Ta547  1  0.94311167  0.33733167  0.40325125  1.0
  Ta  Ta548  1  0.94311167  0.67066500  0.40325125  1.0
  Ta  Ta549  1  0.10977833  0.17066500  0.36753696  1.0
  Ta  Ta550  1  0.10977833  0.50399833  0.36753696  1.0
  Ta  Ta551  1  0.10977833  0.83733167  0.36753696  1.0
  Ta  Ta552  1  0.44311167  0.17066500  0.36753696  1.0
  Ta  Ta553  1  0.44311167  0.50399833  0.36753696  1.0
  Ta  Ta554  1  0.44311167  0.83733167  0.36753696  1.0
  Ta  Ta555  1  0.77644500  0.17066500  0.36753696  1.0
  Ta  Ta556  1  0.77644500  0.50399833  0.36753696  1.0
  Ta  Ta557  1  0.77644500  0.83733167  0.36753696  1.0
  Ta  Ta558  1  0.30688833  0.14022167  0.42282196  1.0
  Ta  Ta559  1  0.30688833  0.47355500  0.42282196  1.0
  Ta  Ta560  1  0.30688833  0.80688833  0.42282196  1.0
  Ta  Ta561  1  0.64022167  0.14022167  0.42282196  1.0
  Ta  Ta562  1  0.64022167  0.47355500  0.42282196  1.0
  Ta  Ta563  1  0.64022167  0.80688833  0.42282196  1.0
  Ta  Ta564  1  0.97355500  0.14022167  0.42282196  1.0
  Ta  Ta565  1  0.97355500  0.47355500  0.42282196  1.0
  Ta  Ta566  1  0.97355500  0.80688833  0.42282196  1.0
  Ta  Ta567  1  0.14022167  0.30688833  0.38710768  1.0
  Ta  Ta568  1  0.14022167  0.64022167  0.38710768  1.0
  Ta  Ta569  1  0.14022167  0.97355500  0.38710768  1.0
  Ta  Ta570  1  0.47355500  0.30688833  0.38710768  1.0
  Ta  Ta571  1  0.47355500  0.64022167  0.38710768  1.0
  Ta  Ta572  1  0.47355500  0.97355500  0.38710768  1.0
  Ta  Ta573  1  0.80688833  0.30688833  0.38710768  1.0
  Ta  Ta574  1  0.80688833  0.64022167  0.38710768  1.0
  Ta  Ta575  1  0.80688833  0.97355500  0.38710768  1.0
  Ta  Ta576  1  0.19311167  0.02644500  0.37577411  1.0
  Ta  Ta577  1  0.19311167  0.35977833  0.37577411  1.0
  Ta  Ta578  1  0.19311167  0.69311167  0.37577411  1.0
  Ta  Ta579  1  0.52644500  0.02644500  0.37577411  1.0
  Ta  Ta580  1  0.52644500  0.35977833  0.37577411  1.0
  Ta  Ta581  1  0.52644500  0.69311167  0.37577411  1.0
  Ta  Ta582  1  0.85977833  0.02644500  0.37577411  1.0
  Ta  Ta583  1  0.85977833  0.35977833  0.37577411  1.0
  Ta  Ta584  1  0.85977833  0.69311167  0.37577411  1.0
  Ta  Ta585  1  0.02644500  0.19311167  0.41148839  1.0
  Ta  Ta586  1  0.02644500  0.52644500  0.41148839  1.0
  Ta  Ta587  1  0.02644500  0.85977833  0.41148839  1.0
  Ta  Ta588  1  0.35977833  0.19311167  0.41148839  1.0
  Ta  Ta589  1  0.35977833  0.52644500  0.41148839  1.0
  Ta  Ta590  1  0.35977833  0.85977833  0.41148839  1.0
  Ta  Ta591  1  0.69311167  0.19311167  0.41148839  1.0
  Ta  Ta592  1  0.69311167  0.52644500  0.41148839  1.0
  Ta  Ta593  1  0.69311167  0.85977833  0.41148839  1.0
  Ta  Ta594  1  0.22355500  0.16266833  0.39534482  1.0
  Ta  Ta595  1  0.22355500  0.49600167  0.39534482  1.0
  Ta  Ta596  1  0.22355500  0.82933500  0.39534482  1.0
  Ta  Ta597  1  0.55688833  0.16266833  0.39534482  1.0
  Ta  Ta598  1  0.55688833  0.49600167  0.39534482  1.0
  Ta  Ta599  1  0.55688833  0.82933500  0.39534482  1.0
  Ta  Ta600  1  0.89022167  0.16266833  0.39534482  1.0
  Ta  Ta601  1  0.89022167  0.49600167  0.39534482  1.0
  Ta  Ta602  1  0.89022167  0.82933500  0.39534482  1.0
  Ta  Ta603  1  0.05688833  0.32933500  0.35963054  1.0
  Ta  Ta604  1  0.05688833  0.66266833  0.35963054  1.0
  Ta  Ta605  1  0.05688833  0.99600167  0.35963054  1.0
  Ta  Ta606  1  0.39022167  0.32933500  0.35963054  1.0
  Ta  Ta607  1  0.39022167  0.66266833  0.35963054  1.0
  Ta  Ta608  1  0.39022167  0.99600167  0.35963054  1.0
  Ta  Ta609  1  0.72355500  0.32933500  0.35963054  1.0
  Ta  Ta610  1  0.72355500  0.66266833  0.35963054  1.0
  Ta  Ta611  1  0.72355500  0.99600167  0.35963054  1.0
  Ni  Ni612  1  0.29166667  0.12500000  0.39036946  1.0
  Ni  Ni613  1  0.29166667  0.45833333  0.39036946  1.0
  Ni  Ni614  1  0.29166667  0.79166667  0.39036946  1.0
  Ni  Ni615  1  0.62500000  0.12500000  0.39036946  1.0
  Ni  Ni616  1  0.62500000  0.45833333  0.39036946  1.0
  Ni  Ni617  1  0.62500000  0.79166667  0.39036946  1.0
  Ni  Ni618  1  0.95833333  0.12500000  0.39036946  1.0
  Ni  Ni619  1  0.95833333  0.45833333  0.39036946  1.0
  Ni  Ni620  1  0.95833333  0.79166667  0.39036946  1.0
  Ni  Ni621  1  0.12500000  0.29166667  0.42608375  1.0
  Ni  Ni622  1  0.12500000  0.62500000  0.42608375  1.0
  Ni  Ni623  1  0.12500000  0.95833333  0.42608375  1.0
  Ni  Ni624  1  0.45833333  0.29166667  0.42608375  1.0
  Ni  Ni625  1  0.45833333  0.62500000  0.42608375  1.0
  Ni  Ni626  1  0.45833333  0.95833333  0.42608375  1.0
  Ni  Ni627  1  0.79166667  0.29166667  0.42608375  1.0
  Ni  Ni628  1  0.79166667  0.62500000  0.42608375  1.0
  Ni  Ni629  1  0.79166667  0.95833333  0.42608375  1.0
  Ni  Ni630  1  0.20833333  0.04166667  0.40822661  1.0
  Ni  Ni631  1  0.20833333  0.37500000  0.40822661  1.0
  Ni  Ni632  1  0.20833333  0.70833333  0.40822661  1.0
  Ni  Ni633  1  0.54166667  0.04166667  0.40822661  1.0
  Ni  Ni634  1  0.54166667  0.37500000  0.40822661  1.0
  Ni  Ni635  1  0.54166667  0.70833333  0.40822661  1.0
  Ni  Ni636  1  0.87500000  0.04166667  0.40822661  1.0
  Ni  Ni637  1  0.87500000  0.37500000  0.40822661  1.0
  Ni  Ni638  1  0.87500000  0.70833333  0.40822661  1.0
  Ni  Ni639  1  0.04166667  0.20833333  0.37251232  1.0
  Ni  Ni640  1  0.04166667  0.54166667  0.37251232  1.0
  Ni  Ni641  1  0.04166667  0.87500000  0.37251232  1.0
  Ni  Ni642  1  0.37500000  0.20833333  0.37251232  1.0
  Ni  Ni643  1  0.37500000  0.54166667  0.37251232  1.0
  Ni  Ni644  1  0.37500000  0.87500000  0.37251232  1.0
  Ni  Ni645  1  0.70833333  0.20833333  0.37251232  1.0
  Ni  Ni646  1  0.70833333  0.54166667  0.37251232  1.0
  Ni  Ni647  1  0.70833333  0.87500000  0.37251232  1.0
