# generated using pymatgen
data_Ta2Ni
_symmetry_space_group_name_H-M   'P 1'
_cell_length_a   18.68578798
_cell_length_b   25.58998533
_cell_length_c   26.75059410
_cell_angle_alpha   91.61727515
_cell_angle_beta   90.00000001
_cell_angle_gamma   111.41371379
_symmetry_Int_Tables_number   1
_chemical_formula_structural   Ta2Ni
_chemical_formula_sum   'Ta216 Ni108'
_cell_volume   11902.82891206
_cell_formula_units_Z   108
loop_
 _symmetry_equiv_pos_site_id
 _symmetry_equiv_pos_as_xyz
  1  'x, y, z'
loop_
 _atom_site_type_symbol
 _atom_site_label
 _atom_site_symmetry_multiplicity
 _atom_site_fract_x
 _atom_site_fract_y
 _atom_site_fract_z
 _atom_site_occupancy
  Ni  Ni0  1  0.32028619  0.28840488  0.99021464  1.0
  Ni  Ni1  1  0.32028619  0.62173821  0.99021464  1.0
  Ni  Ni2  1  0.32028619  0.95507155  0.99021464  1.0
  Ni  Ni3  1  0.65361952  0.28840488  0.99021464  1.0
  Ni  Ni4  1  0.65361952  0.62173821  0.99021464  1.0
  Ni  Ni5  1  0.65361952  0.95507155  0.99021464  1.0
  Ni  Ni6  1  0.98695286  0.28840488  0.99021464  1.0
  Ni  Ni7  1  0.98695286  0.62173821  0.99021464  1.0
  Ni  Ni8  1  0.98695286  0.95507155  0.99021464  1.0
  Ni  Ni9  1  0.22504810  0.09792869  0.91878607  1.0
  Ni  Ni10  1  0.22504810  0.43126202  0.91878607  1.0
  Ni  Ni11  1  0.22504810  0.76459536  0.91878607  1.0
  Ni  Ni12  1  0.55838143  0.09792869  0.91878607  1.0
  Ni  Ni13  1  0.55838143  0.43126202  0.91878607  1.0
  Ni  Ni14  1  0.55838143  0.76459536  0.91878607  1.0
  Ni  Ni15  1  0.89171476  0.09792869  0.91878607  1.0
  Ni  Ni16  1  0.89171476  0.43126202  0.91878607  1.0
  Ni  Ni17  1  0.89171476  0.76459536  0.91878607  1.0
  Ni  Ni18  1  0.27266714  0.19316679  0.95450036  1.0
  Ni  Ni19  1  0.27266714  0.52650012  0.95450036  1.0
  Ni  Ni20  1  0.27266714  0.85983345  0.95450036  1.0
  Ni  Ni21  1  0.60600048  0.19316679  0.95450036  1.0
  Ni  Ni22  1  0.60600048  0.52650012  0.95450036  1.0
  Ni  Ni23  1  0.60600048  0.85983345  0.95450036  1.0
  Ni  Ni24  1  0.93933381  0.19316679  0.95450036  1.0
  Ni  Ni25  1  0.93933381  0.52650012  0.95450036  1.0
  Ni  Ni26  1  0.93933381  0.85983345  0.95450036  1.0
  Ni  Ni27  1  0.17742905  0.00269060  0.88307179  1.0
  Ni  Ni28  1  0.17742905  0.33602393  0.88307179  1.0
  Ni  Ni29  1  0.17742905  0.66935726  0.88307179  1.0
  Ni  Ni30  1  0.51076238  0.00269060  0.88307179  1.0
  Ni  Ni31  1  0.51076238  0.33602393  0.88307179  1.0
  Ni  Ni32  1  0.51076238  0.66935726  0.88307179  1.0
  Ni  Ni33  1  0.84409571  0.00269060  0.88307179  1.0
  Ni  Ni34  1  0.84409571  0.33602393  0.88307179  1.0
  Ni  Ni35  1  0.84409571  0.66935726  0.88307179  1.0
  Ni  Ni36  1  0.12981000  0.24078583  0.84735750  1.0
  Ni  Ni37  1  0.12981000  0.57411917  0.84735750  1.0
  Ni  Ni38  1  0.12981000  0.90745250  0.84735750  1.0
  Ni  Ni39  1  0.46314333  0.24078583  0.84735750  1.0
  Ni  Ni40  1  0.46314333  0.57411917  0.84735750  1.0
  Ni  Ni41  1  0.46314333  0.90745250  0.84735750  1.0
  Ni  Ni42  1  0.79647667  0.24078583  0.84735750  1.0
  Ni  Ni43  1  0.79647667  0.57411917  0.84735750  1.0
  Ni  Ni44  1  0.79647667  0.90745250  0.84735750  1.0
  Ni  Ni45  1  0.03457190  0.05030964  0.77592893  1.0
  Ni  Ni46  1  0.03457190  0.38364298  0.77592893  1.0
  Ni  Ni47  1  0.03457190  0.71697631  0.77592893  1.0
  Ni  Ni48  1  0.36790524  0.05030964  0.77592893  1.0
  Ni  Ni49  1  0.36790524  0.38364298  0.77592893  1.0
  Ni  Ni50  1  0.36790524  0.71697631  0.77592893  1.0
  Ni  Ni51  1  0.70123857  0.05030964  0.77592893  1.0
  Ni  Ni52  1  0.70123857  0.38364298  0.77592893  1.0
  Ni  Ni53  1  0.70123857  0.71697631  0.77592893  1.0
  Ni  Ni54  1  0.08219095  0.14554774  0.81164321  1.0
  Ni  Ni55  1  0.08219095  0.47888107  0.81164321  1.0
  Ni  Ni56  1  0.08219095  0.81221440  0.81164321  1.0
  Ni  Ni57  1  0.41552429  0.14554774  0.81164321  1.0
  Ni  Ni58  1  0.41552429  0.47888107  0.81164321  1.0
  Ni  Ni59  1  0.41552429  0.81221440  0.81164321  1.0
  Ni  Ni60  1  0.74885762  0.14554774  0.81164321  1.0
  Ni  Ni61  1  0.74885762  0.47888107  0.81164321  1.0
  Ni  Ni62  1  0.74885762  0.81221440  0.81164321  1.0
  Ni  Ni63  1  0.32028619  0.28840488  0.74021464  1.0
  Ni  Ni64  1  0.32028619  0.62173821  0.74021464  1.0
  Ni  Ni65  1  0.32028619  0.95507155  0.74021464  1.0
  Ni  Ni66  1  0.65361952  0.28840488  0.74021464  1.0
  Ni  Ni67  1  0.65361952  0.62173821  0.74021464  1.0
  Ni  Ni68  1  0.65361952  0.95507155  0.74021464  1.0
  Ni  Ni69  1  0.98695286  0.28840488  0.74021464  1.0
  Ni  Ni70  1  0.98695286  0.62173821  0.74021464  1.0
  Ni  Ni71  1  0.98695286  0.95507155  0.74021464  1.0
  Ni  Ni72  1  0.27266714  0.19316679  0.70450036  1.0
  Ni  Ni73  1  0.27266714  0.52650012  0.70450036  1.0
  Ni  Ni74  1  0.27266714  0.85983345  0.70450036  1.0
  Ni  Ni75  1  0.60600048  0.19316679  0.70450036  1.0
  Ni  Ni76  1  0.60600048  0.52650012  0.70450036  1.0
  Ni  Ni77  1  0.60600048  0.85983345  0.70450036  1.0
  Ni  Ni78  1  0.93933381  0.19316679  0.70450036  1.0
  Ni  Ni79  1  0.93933381  0.52650012  0.70450036  1.0
  Ni  Ni80  1  0.93933381  0.85983345  0.70450036  1.0
  Ni  Ni81  1  0.17742905  0.00269060  0.63307179  1.0
  Ni  Ni82  1  0.17742905  0.33602393  0.63307179  1.0
  Ni  Ni83  1  0.17742905  0.66935726  0.63307179  1.0
  Ni  Ni84  1  0.51076238  0.00269060  0.63307179  1.0
  Ni  Ni85  1  0.51076238  0.33602393  0.63307179  1.0
  Ni  Ni86  1  0.51076238  0.66935726  0.63307179  1.0
  Ni  Ni87  1  0.84409571  0.00269060  0.63307179  1.0
  Ni  Ni88  1  0.84409571  0.33602393  0.63307179  1.0
  Ni  Ni89  1  0.84409571  0.66935726  0.63307179  1.0
  Ni  Ni90  1  0.22504810  0.09792869  0.66878607  1.0
  Ni  Ni91  1  0.22504810  0.43126202  0.66878607  1.0
  Ni  Ni92  1  0.22504810  0.76459536  0.66878607  1.0
  Ni  Ni93  1  0.55838143  0.09792869  0.66878607  1.0
  Ni  Ni94  1  0.55838143  0.43126202  0.66878607  1.0
  Ni  Ni95  1  0.55838143  0.76459536  0.66878607  1.0
  Ni  Ni96  1  0.89171476  0.09792869  0.66878607  1.0
  Ni  Ni97  1  0.89171476  0.43126202  0.66878607  1.0
  Ni  Ni98  1  0.89171476  0.76459536  0.66878607  1.0
  Ni  Ni99  1  0.12981000  0.24078583  0.59735750  1.0
  Ni  Ni100  1  0.12981000  0.57411917  0.59735750  1.0
  Ni  Ni101  1  0.12981000  0.90745250  0.59735750  1.0
  Ni  Ni102  1  0.46314333  0.24078583  0.59735750  1.0
  Ni  Ni103  1  0.46314333  0.57411917  0.59735750  1.0
  Ni  Ni104  1  0.46314333  0.90745250  0.59735750  1.0
  Ni  Ni105  1  0.79647667  0.24078583  0.59735750  1.0
  Ni  Ni106  1  0.79647667  0.57411917  0.59735750  1.0
  Ni  Ni107  1  0.79647667  0.90745250  0.59735750  1.0
  Ta  Ta108  1  0.02174524  0.13043631  0.97064393  1.0
  Ta  Ta109  1  0.02174524  0.46376964  0.97064393  1.0
  Ta  Ta110  1  0.02174524  0.79710298  0.97064393  1.0
  Ta  Ta111  1  0.35507857  0.13043631  0.97064393  1.0
  Ta  Ta112  1  0.35507857  0.46376964  0.97064393  1.0
  Ta  Ta113  1  0.35507857  0.79710298  0.97064393  1.0
  Ta  Ta114  1  0.68841190  0.13043631  0.97064393  1.0
  Ta  Ta115  1  0.68841190  0.46376964  0.97064393  1.0
  Ta  Ta116  1  0.68841190  0.79710298  0.97064393  1.0
  Ta  Ta117  1  0.25984048  0.27329345  0.89921536  1.0
  Ta  Ta118  1  0.25984048  0.60662679  0.89921536  1.0
  Ta  Ta119  1  0.25984048  0.93996012  0.89921536  1.0
  Ta  Ta120  1  0.59317381  0.27329345  0.89921536  1.0
  Ta  Ta121  1  0.59317381  0.60662679  0.89921536  1.0
  Ta  Ta122  1  0.59317381  0.93996012  0.89921536  1.0
  Ta  Ta123  1  0.92650714  0.27329345  0.89921536  1.0
  Ta  Ta124  1  0.92650714  0.60662679  0.89921536  1.0
  Ta  Ta125  1  0.92650714  0.93996012  0.89921536  1.0
  Ta  Ta126  1  0.31800143  0.17805536  0.86350107  1.0
  Ta  Ta127  1  0.31800143  0.51138869  0.86350107  1.0
  Ta  Ta128  1  0.31800143  0.84472202  0.86350107  1.0
  Ta  Ta129  1  0.65133476  0.17805536  0.86350107  1.0
  Ta  Ta130  1  0.65133476  0.51138869  0.86350107  1.0
  Ta  Ta131  1  0.65133476  0.84472202  0.86350107  1.0
  Ta  Ta132  1  0.98466810  0.17805536  0.86350107  1.0
  Ta  Ta133  1  0.98466810  0.51138869  0.86350107  1.0
  Ta  Ta134  1  0.98466810  0.84472202  0.86350107  1.0
  Ta  Ta135  1  0.07990619  0.03519821  0.93492964  1.0
  Ta  Ta136  1  0.07990619  0.36853155  0.93492964  1.0
  Ta  Ta137  1  0.07990619  0.70186488  0.93492964  1.0
  Ta  Ta138  1  0.41323952  0.03519821  0.93492964  1.0
  Ta  Ta139  1  0.41323952  0.36853155  0.93492964  1.0
  Ta  Ta140  1  0.41323952  0.70186488  0.93492964  1.0
  Ta  Ta141  1  0.74657286  0.03519821  0.93492964  1.0
  Ta  Ta142  1  0.74657286  0.36853155  0.93492964  1.0
  Ta  Ta143  1  0.74657286  0.70186488  0.93492964  1.0
  Ta  Ta144  1  0.32257095  0.06542107  0.86692821  1.0
  Ta  Ta145  1  0.32257095  0.39875440  0.86692821  1.0
  Ta  Ta146  1  0.32257095  0.73208774  0.86692821  1.0
  Ta  Ta147  1  0.65590429  0.06542107  0.86692821  1.0
  Ta  Ta148  1  0.65590429  0.39875440  0.86692821  1.0
  Ta  Ta149  1  0.65590429  0.73208774  0.86692821  1.0
  Ta  Ta150  1  0.98923762  0.06542107  0.86692821  1.0
  Ta  Ta151  1  0.98923762  0.39875440  0.86692821  1.0
  Ta  Ta152  1  0.98923762  0.73208774  0.86692821  1.0
  Ta  Ta153  1  0.08447571  0.25589726  0.93835679  1.0
  Ta  Ta154  1  0.08447571  0.58923060  0.93835679  1.0
  Ta  Ta155  1  0.08447571  0.92256393  0.93835679  1.0
  Ta  Ta156  1  0.41780905  0.25589726  0.93835679  1.0
  Ta  Ta157  1  0.41780905  0.58923060  0.93835679  1.0
  Ta  Ta158  1  0.41780905  0.92256393  0.93835679  1.0
  Ta  Ta159  1  0.75114238  0.25589726  0.93835679  1.0
  Ta  Ta160  1  0.75114238  0.58923060  0.93835679  1.0
  Ta  Ta161  1  0.75114238  0.92256393  0.93835679  1.0
  Ta  Ta162  1  0.14263667  0.16065917  0.90264250  1.0
  Ta  Ta163  1  0.14263667  0.49399250  0.90264250  1.0
  Ta  Ta164  1  0.14263667  0.82732583  0.90264250  1.0
  Ta  Ta165  1  0.47597000  0.16065917  0.90264250  1.0
  Ta  Ta166  1  0.47597000  0.49399250  0.90264250  1.0
  Ta  Ta167  1  0.47597000  0.82732583  0.90264250  1.0
  Ta  Ta168  1  0.80930333  0.16065917  0.90264250  1.0
  Ta  Ta169  1  0.80930333  0.49399250  0.90264250  1.0
  Ta  Ta170  1  0.80930333  0.82732583  0.90264250  1.0
  Ta  Ta171  1  0.23787476  0.01780202  0.97407107  1.0
  Ta  Ta172  1  0.23787476  0.35113536  0.97407107  1.0
  Ta  Ta173  1  0.23787476  0.68446869  0.97407107  1.0
  Ta  Ta174  1  0.57120810  0.01780202  0.97407107  1.0
  Ta  Ta175  1  0.57120810  0.35113536  0.97407107  1.0
  Ta  Ta176  1  0.57120810  0.68446869  0.97407107  1.0
  Ta  Ta177  1  0.90454143  0.01780202  0.97407107  1.0
  Ta  Ta178  1  0.90454143  0.35113536  0.97407107  1.0
  Ta  Ta179  1  0.90454143  0.68446869  0.97407107  1.0
  Ta  Ta180  1  0.16460238  0.08281726  0.82778679  1.0
  Ta  Ta181  1  0.16460238  0.41615060  0.82778679  1.0
  Ta  Ta182  1  0.16460238  0.74948393  0.82778679  1.0
  Ta  Ta183  1  0.49793571  0.08281726  0.82778679  1.0
  Ta  Ta184  1  0.49793571  0.41615060  0.82778679  1.0
  Ta  Ta185  1  0.49793571  0.74948393  0.82778679  1.0
  Ta  Ta186  1  0.83126905  0.08281726  0.82778679  1.0
  Ta  Ta187  1  0.83126905  0.41615060  0.82778679  1.0
  Ta  Ta188  1  0.83126905  0.74948393  0.82778679  1.0
  Ta  Ta189  1  0.06936429  0.22567440  0.75635821  1.0
  Ta  Ta190  1  0.06936429  0.55900774  0.75635821  1.0
  Ta  Ta191  1  0.06936429  0.89234107  0.75635821  1.0
  Ta  Ta192  1  0.40269762  0.22567440  0.75635821  1.0
  Ta  Ta193  1  0.40269762  0.55900774  0.75635821  1.0
  Ta  Ta194  1  0.40269762  0.89234107  0.75635821  1.0
  Ta  Ta195  1  0.73603095  0.22567440  0.75635821  1.0
  Ta  Ta196  1  0.73603095  0.55900774  0.75635821  1.0
  Ta  Ta197  1  0.73603095  0.89234107  0.75635821  1.0
  Ta  Ta198  1  0.12752524  0.13043631  0.72064393  1.0
  Ta  Ta199  1  0.12752524  0.46376964  0.72064393  1.0
  Ta  Ta200  1  0.12752524  0.79710298  0.72064393  1.0
  Ta  Ta201  1  0.46085857  0.13043631  0.72064393  1.0
  Ta  Ta202  1  0.46085857  0.46376964  0.72064393  1.0
  Ta  Ta203  1  0.46085857  0.79710298  0.72064393  1.0
  Ta  Ta204  1  0.79419190  0.13043631  0.72064393  1.0
  Ta  Ta205  1  0.79419190  0.46376964  0.72064393  1.0
  Ta  Ta206  1  0.79419190  0.79710298  0.72064393  1.0
  Ta  Ta207  1  0.22276333  0.32091250  0.79207250  1.0
  Ta  Ta208  1  0.22276333  0.65424583  0.79207250  1.0
  Ta  Ta209  1  0.22276333  0.98757917  0.79207250  1.0
  Ta  Ta210  1  0.55609667  0.32091250  0.79207250  1.0
  Ta  Ta211  1  0.55609667  0.65424583  0.79207250  1.0
  Ta  Ta212  1  0.55609667  0.98757917  0.79207250  1.0
  Ta  Ta213  1  0.88943000  0.32091250  0.79207250  1.0
  Ta  Ta214  1  0.88943000  0.65424583  0.79207250  1.0
  Ta  Ta215  1  0.88943000  0.98757917  0.79207250  1.0
  Ta  Ta216  1  0.13209476  0.01780202  0.72407107  1.0
  Ta  Ta217  1  0.13209476  0.35113536  0.72407107  1.0
  Ta  Ta218  1  0.13209476  0.68446869  0.72407107  1.0
  Ta  Ta219  1  0.46542810  0.01780202  0.72407107  1.0
  Ta  Ta220  1  0.46542810  0.35113536  0.72407107  1.0
  Ta  Ta221  1  0.46542810  0.68446869  0.72407107  1.0
  Ta  Ta222  1  0.79876143  0.01780202  0.72407107  1.0
  Ta  Ta223  1  0.79876143  0.35113536  0.72407107  1.0
  Ta  Ta224  1  0.79876143  0.68446869  0.72407107  1.0
  Ta  Ta225  1  0.22733286  0.20827821  0.79549964  1.0
  Ta  Ta226  1  0.22733286  0.54161155  0.79549964  1.0
  Ta  Ta227  1  0.22733286  0.87494488  0.79549964  1.0
  Ta  Ta228  1  0.56066619  0.20827821  0.79549964  1.0
  Ta  Ta229  1  0.56066619  0.54161155  0.79549964  1.0
  Ta  Ta230  1  0.56066619  0.87494488  0.79549964  1.0
  Ta  Ta231  1  0.89399952  0.20827821  0.79549964  1.0
  Ta  Ta232  1  0.89399952  0.54161155  0.79549964  1.0
  Ta  Ta233  1  0.89399952  0.87494488  0.79549964  1.0
  Ta  Ta234  1  0.28549381  0.11304012  0.75978536  1.0
  Ta  Ta235  1  0.28549381  0.44637345  0.75978536  1.0
  Ta  Ta236  1  0.28549381  0.77970679  0.75978536  1.0
  Ta  Ta237  1  0.61882714  0.11304012  0.75978536  1.0
  Ta  Ta238  1  0.61882714  0.44637345  0.75978536  1.0
  Ta  Ta239  1  0.61882714  0.77970679  0.75978536  1.0
  Ta  Ta240  1  0.95216048  0.11304012  0.75978536  1.0
  Ta  Ta241  1  0.95216048  0.44637345  0.75978536  1.0
  Ta  Ta242  1  0.95216048  0.77970679  0.75978536  1.0
  Ta  Ta243  1  0.04739857  0.30351631  0.83121393  1.0
  Ta  Ta244  1  0.04739857  0.63684964  0.83121393  1.0
  Ta  Ta245  1  0.04739857  0.97018298  0.83121393  1.0
  Ta  Ta246  1  0.38073190  0.30351631  0.83121393  1.0
  Ta  Ta247  1  0.38073190  0.63684964  0.83121393  1.0
  Ta  Ta248  1  0.38073190  0.97018298  0.83121393  1.0
  Ta  Ta249  1  0.71406524  0.30351631  0.83121393  1.0
  Ta  Ta250  1  0.71406524  0.63684964  0.83121393  1.0
  Ta  Ta251  1  0.71406524  0.97018298  0.83121393  1.0
  Ta  Ta252  1  0.30745952  0.03519821  0.68492964  1.0
  Ta  Ta253  1  0.30745952  0.36853155  0.68492964  1.0
  Ta  Ta254  1  0.30745952  0.70186488  0.68492964  1.0
  Ta  Ta255  1  0.64079286  0.03519821  0.68492964  1.0
  Ta  Ta256  1  0.64079286  0.36853155  0.68492964  1.0
  Ta  Ta257  1  0.64079286  0.70186488  0.68492964  1.0
  Ta  Ta258  1  0.97412619  0.03519821  0.68492964  1.0
  Ta  Ta259  1  0.97412619  0.36853155  0.68492964  1.0
  Ta  Ta260  1  0.97412619  0.70186488  0.68492964  1.0
  Ta  Ta261  1  0.21222143  0.17805536  0.61350107  1.0
  Ta  Ta262  1  0.21222143  0.51138869  0.61350107  1.0
  Ta  Ta263  1  0.21222143  0.84472202  0.61350107  1.0
  Ta  Ta264  1  0.54555476  0.17805536  0.61350107  1.0
  Ta  Ta265  1  0.54555476  0.51138869  0.61350107  1.0
  Ta  Ta266  1  0.54555476  0.84472202  0.61350107  1.0
  Ta  Ta267  1  0.87888810  0.17805536  0.61350107  1.0
  Ta  Ta268  1  0.87888810  0.51138869  0.61350107  1.0
  Ta  Ta269  1  0.87888810  0.84472202  0.61350107  1.0
  Ta  Ta270  1  0.27038238  0.08281726  0.57778679  1.0
  Ta  Ta271  1  0.27038238  0.41615060  0.57778679  1.0
  Ta  Ta272  1  0.27038238  0.74948393  0.57778679  1.0
  Ta  Ta273  1  0.60371571  0.08281726  0.57778679  1.0
  Ta  Ta274  1  0.60371571  0.41615060  0.57778679  1.0
  Ta  Ta275  1  0.60371571  0.74948393  0.57778679  1.0
  Ta  Ta276  1  0.93704905  0.08281726  0.57778679  1.0
  Ta  Ta277  1  0.93704905  0.41615060  0.57778679  1.0
  Ta  Ta278  1  0.93704905  0.74948393  0.57778679  1.0
  Ta  Ta279  1  0.03228714  0.27329345  0.64921536  1.0
  Ta  Ta280  1  0.03228714  0.60662679  0.64921536  1.0
  Ta  Ta281  1  0.03228714  0.93996012  0.64921536  1.0
  Ta  Ta282  1  0.36562048  0.27329345  0.64921536  1.0
  Ta  Ta283  1  0.36562048  0.60662679  0.64921536  1.0
  Ta  Ta284  1  0.36562048  0.93996012  0.64921536  1.0
  Ta  Ta285  1  0.69895381  0.27329345  0.64921536  1.0
  Ta  Ta286  1  0.69895381  0.60662679  0.64921536  1.0
  Ta  Ta287  1  0.69895381  0.93996012  0.64921536  1.0
  Ta  Ta288  1  0.27495190  0.30351631  0.58121393  1.0
  Ta  Ta289  1  0.27495190  0.63684964  0.58121393  1.0
  Ta  Ta290  1  0.27495190  0.97018298  0.58121393  1.0
  Ta  Ta291  1  0.60828524  0.30351631  0.58121393  1.0
  Ta  Ta292  1  0.60828524  0.63684964  0.58121393  1.0
  Ta  Ta293  1  0.60828524  0.97018298  0.58121393  1.0
  Ta  Ta294  1  0.94161857  0.30351631  0.58121393  1.0
  Ta  Ta295  1  0.94161857  0.63684964  0.58121393  1.0
  Ta  Ta296  1  0.94161857  0.97018298  0.58121393  1.0
  Ta  Ta297  1  0.03685667  0.16065917  0.65264250  1.0
  Ta  Ta298  1  0.03685667  0.49399250  0.65264250  1.0
  Ta  Ta299  1  0.03685667  0.82732583  0.65264250  1.0
  Ta  Ta300  1  0.37019000  0.16065917  0.65264250  1.0
  Ta  Ta301  1  0.37019000  0.49399250  0.65264250  1.0
  Ta  Ta302  1  0.37019000  0.82732583  0.65264250  1.0
  Ta  Ta303  1  0.70352333  0.16065917  0.65264250  1.0
  Ta  Ta304  1  0.70352333  0.49399250  0.65264250  1.0
  Ta  Ta305  1  0.70352333  0.82732583  0.65264250  1.0
  Ta  Ta306  1  0.09501762  0.06542107  0.61692821  1.0
  Ta  Ta307  1  0.09501762  0.39875440  0.61692821  1.0
  Ta  Ta308  1  0.09501762  0.73208774  0.61692821  1.0
  Ta  Ta309  1  0.42835095  0.06542107  0.61692821  1.0
  Ta  Ta310  1  0.42835095  0.39875440  0.61692821  1.0
  Ta  Ta311  1  0.42835095  0.73208774  0.61692821  1.0
  Ta  Ta312  1  0.76168429  0.06542107  0.61692821  1.0
  Ta  Ta313  1  0.76168429  0.39875440  0.61692821  1.0
  Ta  Ta314  1  0.76168429  0.73208774  0.61692821  1.0
  Ta  Ta315  1  0.19025571  0.25589726  0.68835679  1.0
  Ta  Ta316  1  0.19025571  0.58923060  0.68835679  1.0
  Ta  Ta317  1  0.19025571  0.92256393  0.68835679  1.0
  Ta  Ta318  1  0.52358905  0.25589726  0.68835679  1.0
  Ta  Ta319  1  0.52358905  0.58923060  0.68835679  1.0
  Ta  Ta320  1  0.52358905  0.92256393  0.68835679  1.0
  Ta  Ta321  1  0.85692238  0.25589726  0.68835679  1.0
  Ta  Ta322  1  0.85692238  0.58923060  0.68835679  1.0
  Ta  Ta323  1  0.85692238  0.92256393  0.68835679  1.0
