# generated using pymatgen
data_Ta2Ni
_symmetry_space_group_name_H-M   'P 1'
_cell_length_a   14.68757982
_cell_length_b   40.70547783
_cell_length_c   46.96440500
_cell_angle_alpha   46.19098090
_cell_angle_beta   90.00000000
_cell_angle_gamma   68.84909035
_symmetry_Int_Tables_number   1
_chemical_formula_structural   Ta2Ni
_chemical_formula_sum   'Ta288 Ni144'
_cell_volume   17548.09316768
_cell_formula_units_Z   144
loop_
 _symmetry_equiv_pos_site_id
 _symmetry_equiv_pos_as_xyz
  1  'x, y, z'
loop_
 _atom_site_type_symbol
 _atom_site_label
 _atom_site_symmetry_multiplicity
 _atom_site_fract_x
 _atom_site_fract_y
 _atom_site_fract_z
 _atom_site_occupancy
  Ta  Ta0  1  0.00000000  0.16666667  0.09222190  1.0
  Ta  Ta1  1  0.00000000  0.50000000  0.09222190  1.0
  Ta  Ta2  1  1.00000000  0.83333333  0.09222190  1.0
  Ta  Ta3  1  0.33333333  0.16666667  0.09222190  1.0
  Ta  Ta4  1  0.33333333  0.50000000  0.09222190  1.0
  Ta  Ta5  1  0.33333333  0.83333333  0.09222190  1.0
  Ta  Ta6  1  0.66666667  0.16666667  0.09222190  1.0
  Ta  Ta7  1  0.66666667  0.50000000  0.09222190  1.0
  Ta  Ta8  1  0.66666667  0.83333333  0.09222190  1.0
  Ta  Ta9  1  0.00000000  0.00000000  0.19222190  1.0
  Ta  Ta10  1  0.00000000  0.33333333  0.19222190  1.0
  Ta  Ta11  1  0.00000000  0.66666667  0.19222190  1.0
  Ta  Ta12  1  0.33333333  0.00000000  0.19222190  1.0
  Ta  Ta13  1  0.33333333  0.33333333  0.19222190  1.0
  Ta  Ta14  1  0.33333333  0.66666667  0.19222190  1.0
  Ta  Ta15  1  0.66666667  0.00000000  0.19222190  1.0
  Ta  Ta16  1  0.66666667  0.33333333  0.19222190  1.0
  Ta  Ta17  1  0.66666667  0.66666667  0.19222190  1.0
  Ta  Ta18  1  0.00000000  0.16666667  0.19222190  1.0
  Ta  Ta19  1  0.00000000  0.50000000  0.19222190  1.0
  Ta  Ta20  1  1.00000000  0.83333333  0.19222190  1.0
  Ta  Ta21  1  0.33333333  0.16666667  0.19222190  1.0
  Ta  Ta22  1  0.33333333  0.50000000  0.19222190  1.0
  Ta  Ta23  1  0.33333333  0.83333333  0.19222190  1.0
  Ta  Ta24  1  0.66666667  0.16666667  0.19222190  1.0
  Ta  Ta25  1  0.66666667  0.50000000  0.19222190  1.0
  Ta  Ta26  1  0.66666667  0.83333333  0.19222190  1.0
  Ta  Ta27  1  0.00000000  0.00000000  0.09222190  1.0
  Ta  Ta28  1  0.00000000  0.33333333  0.09222190  1.0
  Ta  Ta29  1  0.00000000  0.66666667  0.09222190  1.0
  Ta  Ta30  1  0.33333333  0.00000000  0.09222190  1.0
  Ta  Ta31  1  0.33333333  0.33333333  0.09222190  1.0
  Ta  Ta32  1  0.33333333  0.66666667  0.09222190  1.0
  Ta  Ta33  1  0.66666667  0.00000000  0.09222190  1.0
  Ta  Ta34  1  0.66666667  0.33333333  0.09222190  1.0
  Ta  Ta35  1  0.66666667  0.66666667  0.09222190  1.0
  Ta  Ta36  1  0.00000000  0.05740633  0.00777810  1.0
  Ta  Ta37  1  0.00000000  0.39073967  0.00777810  1.0
  Ta  Ta38  1  0.00000000  0.72407300  0.00777810  1.0
  Ta  Ta39  1  0.33333333  0.05740633  0.00777810  1.0
  Ta  Ta40  1  0.33333333  0.39073967  0.00777810  1.0
  Ta  Ta41  1  0.33333333  0.72407300  0.00777810  1.0
  Ta  Ta42  1  0.66666667  0.05740633  0.00777810  1.0
  Ta  Ta43  1  0.66666667  0.39073967  0.00777810  1.0
  Ta  Ta44  1  0.66666667  0.72407300  0.00777810  1.0
  Ta  Ta45  1  0.00000000  0.22407300  0.10777810  1.0
  Ta  Ta46  1  1.00000000  0.55740633  0.10777810  1.0
  Ta  Ta47  1  1.00000000  0.89073967  0.10777810  1.0
  Ta  Ta48  1  0.33333333  0.22407300  0.10777810  1.0
  Ta  Ta49  1  0.33333333  0.55740633  0.10777810  1.0
  Ta  Ta50  1  0.33333333  0.89073967  0.10777810  1.0
  Ta  Ta51  1  0.66666667  0.22407300  0.10777810  1.0
  Ta  Ta52  1  0.66666667  0.55740633  0.10777810  1.0
  Ta  Ta53  1  0.66666667  0.89073967  0.10777810  1.0
  Ta  Ta54  1  0.21852067  0.16666667  0.14222190  1.0
  Ta  Ta55  1  0.21852067  0.50000000  0.14222190  1.0
  Ta  Ta56  1  0.21852067  0.83333333  0.14222190  1.0
  Ta  Ta57  1  0.55185400  0.16666667  0.14222190  1.0
  Ta  Ta58  1  0.55185400  0.50000000  0.14222190  1.0
  Ta  Ta59  1  0.55185400  0.83333333  0.14222190  1.0
  Ta  Ta60  1  0.88518733  0.16666667  0.14222190  1.0
  Ta  Ta61  1  0.88518733  0.50000000  0.14222190  1.0
  Ta  Ta62  1  0.88518733  0.83333333  0.14222190  1.0
  Ta  Ta63  1  0.21852067  0.00000000  0.04222190  1.0
  Ta  Ta64  1  0.21852067  0.33333333  0.04222190  1.0
  Ta  Ta65  1  0.21852067  0.66666667  0.04222190  1.0
  Ta  Ta66  1  0.55185400  0.00000000  0.04222190  1.0
  Ta  Ta67  1  0.55185400  0.33333333  0.04222190  1.0
  Ta  Ta68  1  0.55185400  0.66666667  0.04222190  1.0
  Ta  Ta69  1  0.88518733  0.00000000  0.04222190  1.0
  Ta  Ta70  1  0.88518733  0.33333333  0.04222190  1.0
  Ta  Ta71  1  0.88518733  0.66666667  0.04222190  1.0
  Ta  Ta72  1  0.11481267  0.10926033  0.17666570  1.0
  Ta  Ta73  1  0.11481267  0.44259367  0.17666570  1.0
  Ta  Ta74  1  0.11481267  0.77592700  0.17666570  1.0
  Ta  Ta75  1  0.44814600  0.10926033  0.17666570  1.0
  Ta  Ta76  1  0.44814600  0.44259367  0.17666570  1.0
  Ta  Ta77  1  0.44814600  0.77592700  0.17666570  1.0
  Ta  Ta78  1  0.78147933  0.10926033  0.17666570  1.0
  Ta  Ta79  1  0.78147933  0.44259367  0.17666570  1.0
  Ta  Ta80  1  0.78147933  0.77592700  0.17666570  1.0
  Ta  Ta81  1  0.11481267  0.27592700  0.07666570  1.0
  Ta  Ta82  1  0.11481267  0.60926033  0.07666570  1.0
  Ta  Ta83  1  0.11481267  0.94259367  0.07666570  1.0
  Ta  Ta84  1  0.44814600  0.27592700  0.07666570  1.0
  Ta  Ta85  1  0.44814600  0.60926033  0.07666570  1.0
  Ta  Ta86  1  0.44814600  0.94259367  0.07666570  1.0
  Ta  Ta87  1  0.78147933  0.27592700  0.07666570  1.0
  Ta  Ta88  1  0.78147933  0.60926033  0.07666570  1.0
  Ta  Ta89  1  0.78147933  0.94259367  0.07666570  1.0
  Ta  Ta90  1  0.00000000  0.10926033  0.07666570  1.0
  Ta  Ta91  1  0.00000000  0.44259367  0.07666570  1.0
  Ta  Ta92  1  0.00000000  0.77592700  0.07666570  1.0
  Ta  Ta93  1  0.33333333  0.10926033  0.07666570  1.0
  Ta  Ta94  1  0.33333333  0.44259367  0.07666570  1.0
  Ta  Ta95  1  0.33333333  0.77592700  0.07666570  1.0
  Ta  Ta96  1  0.66666667  0.10926033  0.07666570  1.0
  Ta  Ta97  1  0.66666667  0.44259367  0.07666570  1.0
  Ta  Ta98  1  0.66666667  0.77592700  0.07666570  1.0
  Ta  Ta99  1  1.00000000  0.27592700  0.17666570  1.0
  Ta  Ta100  1  0.00000000  0.60926033  0.17666570  1.0
  Ta  Ta101  1  0.00000000  0.94259367  0.17666570  1.0
  Ta  Ta102  1  0.33333333  0.27592700  0.17666570  1.0
  Ta  Ta103  1  0.33333333  0.60926033  0.17666570  1.0
  Ta  Ta104  1  0.33333333  0.94259367  0.17666570  1.0
  Ta  Ta105  1  0.66666667  0.27592700  0.17666570  1.0
  Ta  Ta106  1  0.66666667  0.60926033  0.17666570  1.0
  Ta  Ta107  1  0.66666667  0.94259367  0.17666570  1.0
  Ta  Ta108  1  0.11481267  0.16666667  0.04222190  1.0
  Ta  Ta109  1  0.11481267  0.50000000  0.04222190  1.0
  Ta  Ta110  1  0.11481267  0.83333333  0.04222190  1.0
  Ta  Ta111  1  0.44814600  0.16666667  0.04222190  1.0
  Ta  Ta112  1  0.44814600  0.50000000  0.04222190  1.0
  Ta  Ta113  1  0.44814600  0.83333333  0.04222190  1.0
  Ta  Ta114  1  0.78147933  0.16666667  0.04222190  1.0
  Ta  Ta115  1  0.78147933  0.50000000  0.04222190  1.0
  Ta  Ta116  1  0.78147933  0.83333333  0.04222190  1.0
  Ta  Ta117  1  0.11481267  0.00000000  0.14222190  1.0
  Ta  Ta118  1  0.11481267  0.33333333  0.14222190  1.0
  Ta  Ta119  1  0.11481267  0.66666667  0.14222190  1.0
  Ta  Ta120  1  0.44814600  0.00000000  0.14222190  1.0
  Ta  Ta121  1  0.44814600  0.33333333  0.14222190  1.0
  Ta  Ta122  1  0.44814600  0.66666667  0.14222190  1.0
  Ta  Ta123  1  0.78147933  0.00000000  0.14222190  1.0
  Ta  Ta124  1  0.78147933  0.33333333  0.14222190  1.0
  Ta  Ta125  1  0.78147933  0.66666667  0.14222190  1.0
  Ta  Ta126  1  0.21852067  0.05740633  0.10777810  1.0
  Ta  Ta127  1  0.21852067  0.39073967  0.10777810  1.0
  Ta  Ta128  1  0.21852067  0.72407300  0.10777810  1.0
  Ta  Ta129  1  0.55185400  0.05740633  0.10777810  1.0
  Ta  Ta130  1  0.55185400  0.39073967  0.10777810  1.0
  Ta  Ta131  1  0.55185400  0.72407300  0.10777810  1.0
  Ta  Ta132  1  0.88518733  0.05740633  0.10777810  1.0
  Ta  Ta133  1  0.88518733  0.39073967  0.10777810  1.0
  Ta  Ta134  1  0.88518733  0.72407300  0.10777810  1.0
  Ta  Ta135  1  0.21852067  0.22407300  0.00777810  1.0
  Ta  Ta136  1  0.21852067  0.55740633  0.00777810  1.0
  Ta  Ta137  1  0.21852067  0.89073967  0.00777810  1.0
  Ta  Ta138  1  0.55185400  0.22407300  0.00777810  1.0
  Ta  Ta139  1  0.55185400  0.55740633  0.00777810  1.0
  Ta  Ta140  1  0.55185400  0.89073967  0.00777810  1.0
  Ta  Ta141  1  0.88518733  0.22407300  0.00777810  1.0
  Ta  Ta142  1  0.88518733  0.55740633  0.00777810  1.0
  Ta  Ta143  1  0.88518733  0.89073967  0.00777810  1.0
  Ni  Ni144  1  0.22222222  0.11111111  0.12555523  1.0
  Ni  Ni145  1  0.22222222  0.44444444  0.12555523  1.0
  Ni  Ni146  1  0.22222222  0.77777778  0.12555523  1.0
  Ni  Ni147  1  0.55555556  0.11111111  0.12555523  1.0
  Ni  Ni148  1  0.55555556  0.44444444  0.12555523  1.0
  Ni  Ni149  1  0.55555556  0.77777778  0.12555523  1.0
  Ni  Ni150  1  0.88888889  0.11111111  0.12555523  1.0
  Ni  Ni151  1  0.88888889  0.44444444  0.12555523  1.0
  Ni  Ni152  1  0.88888889  0.77777778  0.12555523  1.0
  Ni  Ni153  1  0.22222222  0.27777778  0.02555523  1.0
  Ni  Ni154  1  0.22222222  0.61111111  0.02555523  1.0
  Ni  Ni155  1  0.22222222  0.94444444  0.02555523  1.0
  Ni  Ni156  1  0.55555556  0.27777778  0.02555523  1.0
  Ni  Ni157  1  0.55555556  0.61111111  0.02555523  1.0
  Ni  Ni158  1  0.55555556  0.94444444  0.02555523  1.0
  Ni  Ni159  1  0.88888889  0.27777778  0.02555523  1.0
  Ni  Ni160  1  0.88888889  0.61111111  0.02555523  1.0
  Ni  Ni161  1  0.88888889  0.94444444  0.02555523  1.0
  Ni  Ni162  1  0.22222222  0.11111111  0.02555523  1.0
  Ni  Ni163  1  0.22222222  0.44444444  0.02555523  1.0
  Ni  Ni164  1  0.22222222  0.77777778  0.02555523  1.0
  Ni  Ni165  1  0.55555556  0.11111111  0.02555523  1.0
  Ni  Ni166  1  0.55555556  0.44444444  0.02555523  1.0
  Ni  Ni167  1  0.55555556  0.77777778  0.02555523  1.0
  Ni  Ni168  1  0.88888889  0.11111111  0.02555523  1.0
  Ni  Ni169  1  0.88888889  0.44444444  0.02555523  1.0
  Ni  Ni170  1  0.88888889  0.77777778  0.02555523  1.0
  Ni  Ni171  1  0.22222222  0.27777778  0.12555523  1.0
  Ni  Ni172  1  0.22222222  0.61111111  0.12555523  1.0
  Ni  Ni173  1  0.22222222  0.94444444  0.12555523  1.0
  Ni  Ni174  1  0.55555556  0.27777778  0.12555523  1.0
  Ni  Ni175  1  0.55555556  0.61111111  0.12555523  1.0
  Ni  Ni176  1  0.55555556  0.94444444  0.12555523  1.0
  Ni  Ni177  1  0.88888889  0.27777778  0.12555523  1.0
  Ni  Ni178  1  0.88888889  0.61111111  0.12555523  1.0
  Ni  Ni179  1  0.88888889  0.94444444  0.12555523  1.0
  Ni  Ni180  1  0.11111111  0.05555556  0.15888857  1.0
  Ni  Ni181  1  0.11111111  0.38888889  0.15888857  1.0
  Ni  Ni182  1  0.11111111  0.72222222  0.15888857  1.0
  Ni  Ni183  1  0.44444444  0.05555556  0.15888857  1.0
  Ni  Ni184  1  0.44444444  0.38888889  0.15888857  1.0
  Ni  Ni185  1  0.44444444  0.72222222  0.15888857  1.0
  Ni  Ni186  1  0.77777778  0.05555556  0.15888857  1.0
  Ni  Ni187  1  0.77777778  0.38888889  0.15888857  1.0
  Ni  Ni188  1  0.77777778  0.72222222  0.15888857  1.0
  Ni  Ni189  1  0.11111111  0.22222222  0.05888857  1.0
  Ni  Ni190  1  0.11111111  0.55555556  0.05888857  1.0
  Ni  Ni191  1  0.11111111  0.88888889  0.05888857  1.0
  Ni  Ni192  1  0.44444444  0.22222222  0.05888857  1.0
  Ni  Ni193  1  0.44444444  0.55555556  0.05888857  1.0
  Ni  Ni194  1  0.44444444  0.88888889  0.05888857  1.0
  Ni  Ni195  1  0.77777778  0.22222222  0.05888857  1.0
  Ni  Ni196  1  0.77777778  0.55555556  0.05888857  1.0
  Ni  Ni197  1  0.77777778  0.88888889  0.05888857  1.0
  Ni  Ni198  1  0.11111111  0.05555556  0.05888857  1.0
  Ni  Ni199  1  0.11111111  0.38888889  0.05888857  1.0
  Ni  Ni200  1  0.11111111  0.72222222  0.05888857  1.0
  Ni  Ni201  1  0.44444444  0.05555556  0.05888857  1.0
  Ni  Ni202  1  0.44444444  0.38888889  0.05888857  1.0
  Ni  Ni203  1  0.44444444  0.72222222  0.05888857  1.0
  Ni  Ni204  1  0.77777778  0.05555556  0.05888857  1.0
  Ni  Ni205  1  0.77777778  0.38888889  0.05888857  1.0
  Ni  Ni206  1  0.77777778  0.72222222  0.05888857  1.0
  Ni  Ni207  1  0.11111111  0.22222222  0.15888857  1.0
  Ni  Ni208  1  0.11111111  0.55555556  0.15888857  1.0
  Ni  Ni209  1  0.11111111  0.88888889  0.15888857  1.0
  Ni  Ni210  1  0.44444444  0.22222222  0.15888857  1.0
  Ni  Ni211  1  0.44444444  0.55555556  0.15888857  1.0
  Ni  Ni212  1  0.44444444  0.88888889  0.15888857  1.0
  Ni  Ni213  1  0.77777778  0.22222222  0.15888857  1.0
  Ni  Ni214  1  0.77777778  0.55555556  0.15888857  1.0
  Ni  Ni215  1  0.77777778  0.88888889  0.15888857  1.0
  Ta  Ta216  1  0.00000000  0.16666667  0.29222190  1.0
  Ta  Ta217  1  0.00000000  0.50000000  0.29222190  1.0
  Ta  Ta218  1  1.00000000  0.83333333  0.29222190  1.0
  Ta  Ta219  1  0.33333333  0.16666667  0.29222190  1.0
  Ta  Ta220  1  0.33333333  0.50000000  0.29222190  1.0
  Ta  Ta221  1  0.33333333  0.83333333  0.29222190  1.0
  Ta  Ta222  1  0.66666667  0.16666667  0.29222190  1.0
  Ta  Ta223  1  0.66666667  0.50000000  0.29222190  1.0
  Ta  Ta224  1  0.66666667  0.83333333  0.29222190  1.0
  Ta  Ta225  1  0.00000000  0.00000000  0.39222190  1.0
  Ta  Ta226  1  0.00000000  0.33333333  0.39222190  1.0
  Ta  Ta227  1  0.00000000  0.66666667  0.39222190  1.0
  Ta  Ta228  1  0.33333333  0.00000000  0.39222190  1.0
  Ta  Ta229  1  0.33333333  0.33333333  0.39222190  1.0
  Ta  Ta230  1  0.33333333  0.66666667  0.39222190  1.0
  Ta  Ta231  1  0.66666667  0.00000000  0.39222190  1.0
  Ta  Ta232  1  0.66666667  0.33333333  0.39222190  1.0
  Ta  Ta233  1  0.66666667  0.66666667  0.39222190  1.0
  Ta  Ta234  1  0.00000000  0.16666667  0.39222190  1.0
  Ta  Ta235  1  0.00000000  0.50000000  0.39222190  1.0
  Ta  Ta236  1  1.00000000  0.83333333  0.39222190  1.0
  Ta  Ta237  1  0.33333333  0.16666667  0.39222190  1.0
  Ta  Ta238  1  0.33333333  0.50000000  0.39222190  1.0
  Ta  Ta239  1  0.33333333  0.83333333  0.39222190  1.0
  Ta  Ta240  1  0.66666667  0.16666667  0.39222190  1.0
  Ta  Ta241  1  0.66666667  0.50000000  0.39222190  1.0
  Ta  Ta242  1  0.66666667  0.83333333  0.39222190  1.0
  Ta  Ta243  1  0.00000000  0.00000000  0.29222190  1.0
  Ta  Ta244  1  0.00000000  0.33333333  0.29222190  1.0
  Ta  Ta245  1  0.00000000  0.66666667  0.29222190  1.0
  Ta  Ta246  1  0.33333333  0.00000000  0.29222190  1.0
  Ta  Ta247  1  0.33333333  0.33333333  0.29222190  1.0
  Ta  Ta248  1  0.33333333  0.66666667  0.29222190  1.0
  Ta  Ta249  1  0.66666667  0.00000000  0.29222190  1.0
  Ta  Ta250  1  0.66666667  0.33333333  0.29222190  1.0
  Ta  Ta251  1  0.66666667  0.66666667  0.29222190  1.0
  Ta  Ta252  1  0.00000000  0.05740633  0.20777810  1.0
  Ta  Ta253  1  0.00000000  0.39073967  0.20777810  1.0
  Ta  Ta254  1  0.00000000  0.72407300  0.20777810  1.0
  Ta  Ta255  1  0.33333333  0.05740633  0.20777810  1.0
  Ta  Ta256  1  0.33333333  0.39073967  0.20777810  1.0
  Ta  Ta257  1  0.33333333  0.72407300  0.20777810  1.0
  Ta  Ta258  1  0.66666667  0.05740633  0.20777810  1.0
  Ta  Ta259  1  0.66666667  0.39073967  0.20777810  1.0
  Ta  Ta260  1  0.66666667  0.72407300  0.20777810  1.0
  Ta  Ta261  1  0.00000000  0.22407300  0.30777810  1.0
  Ta  Ta262  1  1.00000000  0.55740633  0.30777810  1.0
  Ta  Ta263  1  1.00000000  0.89073967  0.30777810  1.0
  Ta  Ta264  1  0.33333333  0.22407300  0.30777810  1.0
  Ta  Ta265  1  0.33333333  0.55740633  0.30777810  1.0
  Ta  Ta266  1  0.33333333  0.89073967  0.30777810  1.0
  Ta  Ta267  1  0.66666667  0.22407300  0.30777810  1.0
  Ta  Ta268  1  0.66666667  0.55740633  0.30777810  1.0
  Ta  Ta269  1  0.66666667  0.89073967  0.30777810  1.0
  Ta  Ta270  1  0.21852067  0.16666667  0.34222190  1.0
  Ta  Ta271  1  0.21852067  0.50000000  0.34222190  1.0
  Ta  Ta272  1  0.21852067  0.83333333  0.34222190  1.0
  Ta  Ta273  1  0.55185400  0.16666667  0.34222190  1.0
  Ta  Ta274  1  0.55185400  0.50000000  0.34222190  1.0
  Ta  Ta275  1  0.55185400  0.83333333  0.34222190  1.0
  Ta  Ta276  1  0.88518733  0.16666667  0.34222190  1.0
  Ta  Ta277  1  0.88518733  0.50000000  0.34222190  1.0
  Ta  Ta278  1  0.88518733  0.83333333  0.34222190  1.0
  Ta  Ta279  1  0.21852067  0.00000000  0.24222190  1.0
  Ta  Ta280  1  0.21852067  0.33333333  0.24222190  1.0
  Ta  Ta281  1  0.21852067  0.66666667  0.24222190  1.0
  Ta  Ta282  1  0.55185400  0.00000000  0.24222190  1.0
  Ta  Ta283  1  0.55185400  0.33333333  0.24222190  1.0
  Ta  Ta284  1  0.55185400  0.66666667  0.24222190  1.0
  Ta  Ta285  1  0.88518733  0.00000000  0.24222190  1.0
  Ta  Ta286  1  0.88518733  0.33333333  0.24222190  1.0
  Ta  Ta287  1  0.88518733  0.66666667  0.24222190  1.0
  Ta  Ta288  1  0.11481267  0.10926033  0.37666570  1.0
  Ta  Ta289  1  0.11481267  0.44259367  0.37666570  1.0
  Ta  Ta290  1  0.11481267  0.77592700  0.37666570  1.0
  Ta  Ta291  1  0.44814600  0.10926033  0.37666570  1.0
  Ta  Ta292  1  0.44814600  0.44259367  0.37666570  1.0
  Ta  Ta293  1  0.44814600  0.77592700  0.37666570  1.0
  Ta  Ta294  1  0.78147933  0.10926033  0.37666570  1.0
  Ta  Ta295  1  0.78147933  0.44259367  0.37666570  1.0
  Ta  Ta296  1  0.78147933  0.77592700  0.37666570  1.0
  Ta  Ta297  1  0.11481267  0.27592700  0.27666570  1.0
  Ta  Ta298  1  0.11481267  0.60926033  0.27666570  1.0
  Ta  Ta299  1  0.11481267  0.94259367  0.27666570  1.0
  Ta  Ta300  1  0.44814600  0.27592700  0.27666570  1.0
  Ta  Ta301  1  0.44814600  0.60926033  0.27666570  1.0
  Ta  Ta302  1  0.44814600  0.94259367  0.27666570  1.0
  Ta  Ta303  1  0.78147933  0.27592700  0.27666570  1.0
  Ta  Ta304  1  0.78147933  0.60926033  0.27666570  1.0
  Ta  Ta305  1  0.78147933  0.94259367  0.27666570  1.0
  Ta  Ta306  1  0.00000000  0.10926033  0.27666570  1.0
  Ta  Ta307  1  0.00000000  0.44259367  0.27666570  1.0
  Ta  Ta308  1  0.00000000  0.77592700  0.27666570  1.0
  Ta  Ta309  1  0.33333333  0.10926033  0.27666570  1.0
  Ta  Ta310  1  0.33333333  0.44259367  0.27666570  1.0
  Ta  Ta311  1  0.33333333  0.77592700  0.27666570  1.0
  Ta  Ta312  1  0.66666667  0.10926033  0.27666570  1.0
  Ta  Ta313  1  0.66666667  0.44259367  0.27666570  1.0
  Ta  Ta314  1  0.66666667  0.77592700  0.27666570  1.0
  Ta  Ta315  1  1.00000000  0.27592700  0.37666570  1.0
  Ta  Ta316  1  0.00000000  0.60926033  0.37666570  1.0
  Ta  Ta317  1  0.00000000  0.94259367  0.37666570  1.0
  Ta  Ta318  1  0.33333333  0.27592700  0.37666570  1.0
  Ta  Ta319  1  0.33333333  0.60926033  0.37666570  1.0
  Ta  Ta320  1  0.33333333  0.94259367  0.37666570  1.0
  Ta  Ta321  1  0.66666667  0.27592700  0.37666570  1.0
  Ta  Ta322  1  0.66666667  0.60926033  0.37666570  1.0
  Ta  Ta323  1  0.66666667  0.94259367  0.37666570  1.0
  Ta  Ta324  1  0.11481267  0.16666667  0.24222190  1.0
  Ta  Ta325  1  0.11481267  0.50000000  0.24222190  1.0
  Ta  Ta326  1  0.11481267  0.83333333  0.24222190  1.0
  Ta  Ta327  1  0.44814600  0.16666667  0.24222190  1.0
  Ta  Ta328  1  0.44814600  0.50000000  0.24222190  1.0
  Ta  Ta329  1  0.44814600  0.83333333  0.24222190  1.0
  Ta  Ta330  1  0.78147933  0.16666667  0.24222190  1.0
  Ta  Ta331  1  0.78147933  0.50000000  0.24222190  1.0
  Ta  Ta332  1  0.78147933  0.83333333  0.24222190  1.0
  Ta  Ta333  1  0.11481267  0.00000000  0.34222190  1.0
  Ta  Ta334  1  0.11481267  0.33333333  0.34222190  1.0
  Ta  Ta335  1  0.11481267  0.66666667  0.34222190  1.0
  Ta  Ta336  1  0.44814600  0.00000000  0.34222190  1.0
  Ta  Ta337  1  0.44814600  0.33333333  0.34222190  1.0
  Ta  Ta338  1  0.44814600  0.66666667  0.34222190  1.0
  Ta  Ta339  1  0.78147933  0.00000000  0.34222190  1.0
  Ta  Ta340  1  0.78147933  0.33333333  0.34222190  1.0
  Ta  Ta341  1  0.78147933  0.66666667  0.34222190  1.0
  Ta  Ta342  1  0.21852067  0.05740633  0.30777810  1.0
  Ta  Ta343  1  0.21852067  0.39073967  0.30777810  1.0
  Ta  Ta344  1  0.21852067  0.72407300  0.30777810  1.0
  Ta  Ta345  1  0.55185400  0.05740633  0.30777810  1.0
  Ta  Ta346  1  0.55185400  0.39073967  0.30777810  1.0
  Ta  Ta347  1  0.55185400  0.72407300  0.30777810  1.0
  Ta  Ta348  1  0.88518733  0.05740633  0.30777810  1.0
  Ta  Ta349  1  0.88518733  0.39073967  0.30777810  1.0
  Ta  Ta350  1  0.88518733  0.72407300  0.30777810  1.0
  Ta  Ta351  1  0.21852067  0.22407300  0.20777810  1.0
  Ta  Ta352  1  0.21852067  0.55740633  0.20777810  1.0
  Ta  Ta353  1  0.21852067  0.89073967  0.20777810  1.0
  Ta  Ta354  1  0.55185400  0.22407300  0.20777810  1.0
  Ta  Ta355  1  0.55185400  0.55740633  0.20777810  1.0
  Ta  Ta356  1  0.55185400  0.89073967  0.20777810  1.0
  Ta  Ta357  1  0.88518733  0.22407300  0.20777810  1.0
  Ta  Ta358  1  0.88518733  0.55740633  0.20777810  1.0
  Ta  Ta359  1  0.88518733  0.89073967  0.20777810  1.0
  Ni  Ni360  1  0.22222222  0.11111111  0.32555523  1.0
  Ni  Ni361  1  0.22222222  0.44444444  0.32555523  1.0
  Ni  Ni362  1  0.22222222  0.77777778  0.32555523  1.0
  Ni  Ni363  1  0.55555556  0.11111111  0.32555523  1.0
  Ni  Ni364  1  0.55555556  0.44444444  0.32555523  1.0
  Ni  Ni365  1  0.55555556  0.77777778  0.32555523  1.0
  Ni  Ni366  1  0.88888889  0.11111111  0.32555523  1.0
  Ni  Ni367  1  0.88888889  0.44444444  0.32555523  1.0
  Ni  Ni368  1  0.88888889  0.77777778  0.32555523  1.0
  Ni  Ni369  1  0.22222222  0.27777778  0.22555523  1.0
  Ni  Ni370  1  0.22222222  0.61111111  0.22555523  1.0
  Ni  Ni371  1  0.22222222  0.94444444  0.22555523  1.0
  Ni  Ni372  1  0.55555556  0.27777778  0.22555523  1.0
  Ni  Ni373  1  0.55555556  0.61111111  0.22555523  1.0
  Ni  Ni374  1  0.55555556  0.94444444  0.22555523  1.0
  Ni  Ni375  1  0.88888889  0.27777778  0.22555523  1.0
  Ni  Ni376  1  0.88888889  0.61111111  0.22555523  1.0
  Ni  Ni377  1  0.88888889  0.94444444  0.22555523  1.0
  Ni  Ni378  1  0.22222222  0.11111111  0.22555523  1.0
  Ni  Ni379  1  0.22222222  0.44444444  0.22555523  1.0
  Ni  Ni380  1  0.22222222  0.77777778  0.22555523  1.0
  Ni  Ni381  1  0.55555556  0.11111111  0.22555523  1.0
  Ni  Ni382  1  0.55555556  0.44444444  0.22555523  1.0
  Ni  Ni383  1  0.55555556  0.77777778  0.22555523  1.0
  Ni  Ni384  1  0.88888889  0.11111111  0.22555523  1.0
  Ni  Ni385  1  0.88888889  0.44444444  0.22555523  1.0
  Ni  Ni386  1  0.88888889  0.77777778  0.22555523  1.0
  Ni  Ni387  1  0.22222222  0.27777778  0.32555523  1.0
  Ni  Ni388  1  0.22222222  0.61111111  0.32555523  1.0
  Ni  Ni389  1  0.22222222  0.94444444  0.32555523  1.0
  Ni  Ni390  1  0.55555556  0.27777778  0.32555523  1.0
  Ni  Ni391  1  0.55555556  0.61111111  0.32555523  1.0
  Ni  Ni392  1  0.55555556  0.94444444  0.32555523  1.0
  Ni  Ni393  1  0.88888889  0.27777778  0.32555523  1.0
  Ni  Ni394  1  0.88888889  0.61111111  0.32555523  1.0
  Ni  Ni395  1  0.88888889  0.94444444  0.32555523  1.0
  Ni  Ni396  1  0.11111111  0.05555556  0.35888857  1.0
  Ni  Ni397  1  0.11111111  0.38888889  0.35888857  1.0
  Ni  Ni398  1  0.11111111  0.72222222  0.35888857  1.0
  Ni  Ni399  1  0.44444444  0.05555556  0.35888857  1.0
  Ni  Ni400  1  0.44444444  0.38888889  0.35888857  1.0
  Ni  Ni401  1  0.44444444  0.72222222  0.35888857  1.0
  Ni  Ni402  1  0.77777778  0.05555556  0.35888857  1.0
  Ni  Ni403  1  0.77777778  0.38888889  0.35888857  1.0
  Ni  Ni404  1  0.77777778  0.72222222  0.35888857  1.0
  Ni  Ni405  1  0.11111111  0.22222222  0.25888857  1.0
  Ni  Ni406  1  0.11111111  0.55555556  0.25888857  1.0
  Ni  Ni407  1  0.11111111  0.88888889  0.25888857  1.0
  Ni  Ni408  1  0.44444444  0.22222222  0.25888857  1.0
  Ni  Ni409  1  0.44444444  0.55555556  0.25888857  1.0
  Ni  Ni410  1  0.44444444  0.88888889  0.25888857  1.0
  Ni  Ni411  1  0.77777778  0.22222222  0.25888857  1.0
  Ni  Ni412  1  0.77777778  0.55555556  0.25888857  1.0
  Ni  Ni413  1  0.77777778  0.88888889  0.25888857  1.0
  Ni  Ni414  1  0.11111111  0.05555556  0.25888857  1.0
  Ni  Ni415  1  0.11111111  0.38888889  0.25888857  1.0
  Ni  Ni416  1  0.11111111  0.72222222  0.25888857  1.0
  Ni  Ni417  1  0.44444444  0.05555556  0.25888857  1.0
  Ni  Ni418  1  0.44444444  0.38888889  0.25888857  1.0
  Ni  Ni419  1  0.44444444  0.72222222  0.25888857  1.0
  Ni  Ni420  1  0.77777778  0.05555556  0.25888857  1.0
  Ni  Ni421  1  0.77777778  0.38888889  0.25888857  1.0
  Ni  Ni422  1  0.77777778  0.72222222  0.25888857  1.0
  Ni  Ni423  1  0.11111111  0.22222222  0.35888857  1.0
  Ni  Ni424  1  0.11111111  0.55555556  0.35888857  1.0
  Ni  Ni425  1  0.11111111  0.88888889  0.35888857  1.0
  Ni  Ni426  1  0.44444444  0.22222222  0.35888857  1.0
  Ni  Ni427  1  0.44444444  0.55555556  0.35888857  1.0
  Ni  Ni428  1  0.44444444  0.88888889  0.35888857  1.0
  Ni  Ni429  1  0.77777778  0.22222222  0.35888857  1.0
  Ni  Ni430  1  0.77777778  0.55555556  0.35888857  1.0
  Ni  Ni431  1  0.77777778  0.88888889  0.35888857  1.0
