# generated using pymatgen
data_Ta2Ni
_symmetry_space_group_name_H-M   'P 1'
_cell_length_a   18.68578798
_cell_length_b   30.43451649
_cell_length_c   28.53814855
_cell_angle_alpha   83.70055389
_cell_angle_beta   83.73497538
_cell_angle_gamma   72.12246491
_symmetry_Int_Tables_number   1
_chemical_formula_structural   Ta2Ni
_chemical_formula_sum   'Ta288 Ni144'
_cell_volume   15303.63717265
_cell_formula_units_Z   144
loop_
 _symmetry_equiv_pos_site_id
 _symmetry_equiv_pos_as_xyz
  1  'x, y, z'
loop_
 _atom_site_type_symbol
 _atom_site_label
 _atom_site_symmetry_multiplicity
 _atom_site_fract_x
 _atom_site_fract_y
 _atom_site_fract_z
 _atom_site_occupancy
  Ni  Ni0  1  0.32198139  0.31187648  0.03031472  1.0
  Ni  Ni1  1  0.32198139  0.64520981  0.03031472  1.0
  Ni  Ni2  1  0.32198139  0.97854315  0.03031472  1.0
  Ni  Ni3  1  0.65531472  0.31187648  0.03031472  1.0
  Ni  Ni4  1  0.65531472  0.64520981  0.03031472  1.0
  Ni  Ni5  1  0.65531472  0.97854315  0.03031472  1.0
  Ni  Ni6  1  0.98864806  0.31187648  0.03031472  1.0
  Ni  Ni7  1  0.98864806  0.64520981  0.03031472  1.0
  Ni  Ni8  1  0.98864806  0.97854315  0.03031472  1.0
  Ni  Ni9  1  0.21087028  0.18224685  0.08587028  1.0
  Ni  Ni10  1  0.21087028  0.51558019  0.08587028  1.0
  Ni  Ni11  1  0.21087028  0.84891352  0.08587028  1.0
  Ni  Ni12  1  0.54420361  0.18224685  0.08587028  1.0
  Ni  Ni13  1  0.54420361  0.51558019  0.08587028  1.0
  Ni  Ni14  1  0.54420361  0.84891352  0.08587028  1.0
  Ni  Ni15  1  0.87753694  0.18224685  0.08587028  1.0
  Ni  Ni16  1  0.87753694  0.51558019  0.08587028  1.0
  Ni  Ni17  1  0.87753694  0.84891352  0.08587028  1.0
  Ni  Ni18  1  0.21087028  0.21002463  0.00253694  1.0
  Ni  Ni19  1  0.21087028  0.54335796  0.00253694  1.0
  Ni  Ni20  1  0.21087028  0.87669130  0.00253694  1.0
  Ni  Ni21  1  0.54420361  0.21002463  0.00253694  1.0
  Ni  Ni22  1  0.54420361  0.54335796  0.00253694  1.0
  Ni  Ni23  1  0.54420361  0.87669130  0.00253694  1.0
  Ni  Ni24  1  0.87753694  0.21002463  0.00253694  1.0
  Ni  Ni25  1  0.87753694  0.54335796  0.00253694  1.0
  Ni  Ni26  1  0.87753694  0.87669130  0.00253694  1.0
  Ni  Ni27  1  0.09975917  0.08039500  0.05809250  1.0
  Ni  Ni28  1  0.09975917  0.41372833  0.05809250  1.0
  Ni  Ni29  1  0.09975917  0.74706167  0.05809250  1.0
  Ni  Ni30  1  0.43309250  0.08039500  0.05809250  1.0
  Ni  Ni31  1  0.43309250  0.41372833  0.05809250  1.0
  Ni  Ni32  1  0.43309250  0.74706167  0.05809250  1.0
  Ni  Ni33  1  0.76642583  0.08039500  0.05809250  1.0
  Ni  Ni34  1  0.76642583  0.41372833  0.05809250  1.0
  Ni  Ni35  1  0.76642583  0.74706167  0.05809250  1.0
  Ni  Ni36  1  0.09975917  0.05261722  0.14142583  1.0
  Ni  Ni37  1  0.09975917  0.38595056  0.14142583  1.0
  Ni  Ni38  1  0.09975917  0.71928389  0.14142583  1.0
  Ni  Ni39  1  0.43309250  0.05261722  0.14142583  1.0
  Ni  Ni40  1  0.43309250  0.38595056  0.14142583  1.0
  Ni  Ni41  1  0.43309250  0.71928389  0.14142583  1.0
  Ni  Ni42  1  0.76642583  0.05261722  0.14142583  1.0
  Ni  Ni43  1  0.76642583  0.38595056  0.14142583  1.0
  Ni  Ni44  1  0.76642583  0.71928389  0.14142583  1.0
  Ni  Ni45  1  0.32198139  0.25632093  0.19698139  1.0
  Ni  Ni46  1  0.32198139  0.58965426  0.19698139  1.0
  Ni  Ni47  1  0.32198139  0.92298759  0.19698139  1.0
  Ni  Ni48  1  0.65531472  0.25632093  0.19698139  1.0
  Ni  Ni49  1  0.65531472  0.58965426  0.19698139  1.0
  Ni  Ni50  1  0.65531472  0.92298759  0.19698139  1.0
  Ni  Ni51  1  0.98864806  0.25632093  0.19698139  1.0
  Ni  Ni52  1  0.98864806  0.58965426  0.19698139  1.0
  Ni  Ni53  1  0.98864806  0.92298759  0.19698139  1.0
  Ni  Ni54  1  0.32198139  0.28409870  0.11364806  1.0
  Ni  Ni55  1  0.32198139  0.61743204  0.11364806  1.0
  Ni  Ni56  1  0.32198139  0.95076537  0.11364806  1.0
  Ni  Ni57  1  0.65531472  0.28409870  0.11364806  1.0
  Ni  Ni58  1  0.65531472  0.61743204  0.11364806  1.0
  Ni  Ni59  1  0.65531472  0.95076537  0.11364806  1.0
  Ni  Ni60  1  0.98864806  0.28409870  0.11364806  1.0
  Ni  Ni61  1  0.98864806  0.61743204  0.11364806  1.0
  Ni  Ni62  1  0.98864806  0.95076537  0.11364806  1.0
  Ni  Ni63  1  0.21087028  0.15446907  0.16920361  1.0
  Ni  Ni64  1  0.21087028  0.48780241  0.16920361  1.0
  Ni  Ni65  1  0.21087028  0.82113574  0.16920361  1.0
  Ni  Ni66  1  0.54420361  0.15446907  0.16920361  1.0
  Ni  Ni67  1  0.54420361  0.48780241  0.16920361  1.0
  Ni  Ni68  1  0.54420361  0.82113574  0.16920361  1.0
  Ni  Ni69  1  0.87753694  0.15446907  0.16920361  1.0
  Ni  Ni70  1  0.87753694  0.48780241  0.16920361  1.0
  Ni  Ni71  1  0.87753694  0.82113574  0.16920361  1.0
  Ni  Ni72  1  0.21087028  0.12669130  0.25253694  1.0
  Ni  Ni73  1  0.21087028  0.46002463  0.25253694  1.0
  Ni  Ni74  1  0.21087028  0.79335796  0.25253694  1.0
  Ni  Ni75  1  0.54420361  0.12669130  0.25253694  1.0
  Ni  Ni76  1  0.54420361  0.46002463  0.25253694  1.0
  Ni  Ni77  1  0.54420361  0.79335796  0.25253694  1.0
  Ni  Ni78  1  0.87753694  0.12669130  0.25253694  1.0
  Ni  Ni79  1  0.87753694  0.46002463  0.25253694  1.0
  Ni  Ni80  1  0.87753694  0.79335796  0.25253694  1.0
  Ni  Ni81  1  0.09975917  0.33039500  0.30809250  1.0
  Ni  Ni82  1  0.09975917  0.66372833  0.30809250  1.0
  Ni  Ni83  1  0.09975917  0.99706167  0.30809250  1.0
  Ni  Ni84  1  0.43309250  0.33039500  0.30809250  1.0
  Ni  Ni85  1  0.43309250  0.66372833  0.30809250  1.0
  Ni  Ni86  1  0.43309250  0.99706167  0.30809250  1.0
  Ni  Ni87  1  0.76642583  0.33039500  0.30809250  1.0
  Ni  Ni88  1  0.76642583  0.66372833  0.30809250  1.0
  Ni  Ni89  1  0.76642583  0.99706167  0.30809250  1.0
  Ni  Ni90  1  0.09975917  0.02483944  0.22475917  1.0
  Ni  Ni91  1  0.09975917  0.35817278  0.22475917  1.0
  Ni  Ni92  1  0.09975917  0.69150611  0.22475917  1.0
  Ni  Ni93  1  0.43309250  0.02483944  0.22475917  1.0
  Ni  Ni94  1  0.43309250  0.35817278  0.22475917  1.0
  Ni  Ni95  1  0.43309250  0.69150611  0.22475917  1.0
  Ni  Ni96  1  0.76642583  0.02483944  0.22475917  1.0
  Ni  Ni97  1  0.76642583  0.35817278  0.22475917  1.0
  Ni  Ni98  1  0.76642583  0.69150611  0.22475917  1.0
  Ni  Ni99  1  0.32198139  0.22854315  0.28031472  1.0
  Ni  Ni100  1  0.32198139  0.56187648  0.28031472  1.0
  Ni  Ni101  1  0.32198139  0.89520981  0.28031472  1.0
  Ni  Ni102  1  0.65531472  0.22854315  0.28031472  1.0
  Ni  Ni103  1  0.65531472  0.56187648  0.28031472  1.0
  Ni  Ni104  1  0.65531472  0.89520981  0.28031472  1.0
  Ni  Ni105  1  0.98864806  0.22854315  0.28031472  1.0
  Ni  Ni106  1  0.98864806  0.56187648  0.28031472  1.0
  Ni  Ni107  1  0.98864806  0.89520981  0.28031472  1.0
  Ni  Ni108  1  0.32198139  0.20076537  0.36364806  1.0
  Ni  Ni109  1  0.32198139  0.53409870  0.36364806  1.0
  Ni  Ni110  1  0.32198139  0.86743204  0.36364806  1.0
  Ni  Ni111  1  0.65531472  0.20076537  0.36364806  1.0
  Ni  Ni112  1  0.65531472  0.53409870  0.36364806  1.0
  Ni  Ni113  1  0.65531472  0.86743204  0.36364806  1.0
  Ni  Ni114  1  0.98864806  0.20076537  0.36364806  1.0
  Ni  Ni115  1  0.98864806  0.53409870  0.36364806  1.0
  Ni  Ni116  1  0.98864806  0.86743204  0.36364806  1.0
  Ni  Ni117  1  0.21087028  0.07113574  0.41920361  1.0
  Ni  Ni118  1  0.21087028  0.40446907  0.41920361  1.0
  Ni  Ni119  1  0.21087028  0.73780241  0.41920361  1.0
  Ni  Ni120  1  0.54420361  0.07113574  0.41920361  1.0
  Ni  Ni121  1  0.54420361  0.40446907  0.41920361  1.0
  Ni  Ni122  1  0.54420361  0.73780241  0.41920361  1.0
  Ni  Ni123  1  0.87753694  0.07113574  0.41920361  1.0
  Ni  Ni124  1  0.87753694  0.40446907  0.41920361  1.0
  Ni  Ni125  1  0.87753694  0.73780241  0.41920361  1.0
  Ni  Ni126  1  0.21087028  0.09891352  0.33587028  1.0
  Ni  Ni127  1  0.21087028  0.43224685  0.33587028  1.0
  Ni  Ni128  1  0.21087028  0.76558019  0.33587028  1.0
  Ni  Ni129  1  0.54420361  0.09891352  0.33587028  1.0
  Ni  Ni130  1  0.54420361  0.43224685  0.33587028  1.0
  Ni  Ni131  1  0.54420361  0.76558019  0.33587028  1.0
  Ni  Ni132  1  0.87753694  0.09891352  0.33587028  1.0
  Ni  Ni133  1  0.87753694  0.43224685  0.33587028  1.0
  Ni  Ni134  1  0.87753694  0.76558019  0.33587028  1.0
  Ni  Ni135  1  0.09975917  0.30261722  0.39142583  1.0
  Ni  Ni136  1  0.09975917  0.63595056  0.39142583  1.0
  Ni  Ni137  1  0.09975917  0.96928389  0.39142583  1.0
  Ni  Ni138  1  0.43309250  0.30261722  0.39142583  1.0
  Ni  Ni139  1  0.43309250  0.63595056  0.39142583  1.0
  Ni  Ni140  1  0.43309250  0.96928389  0.39142583  1.0
  Ni  Ni141  1  0.76642583  0.30261722  0.39142583  1.0
  Ni  Ni142  1  0.76642583  0.63595056  0.39142583  1.0
  Ni  Ni143  1  0.76642583  0.96928389  0.39142583  1.0
  Ta  Ta144  1  0.11472361  0.16381407  0.03538861  1.0
  Ta  Ta145  1  0.11472361  0.49714741  0.03538861  1.0
  Ta  Ta146  1  0.11472361  0.83048074  0.03538861  1.0
  Ta  Ta147  1  0.44805694  0.16381407  0.03538861  1.0
  Ta  Ta148  1  0.44805694  0.49714741  0.03538861  1.0
  Ta  Ta149  1  0.44805694  0.83048074  0.03538861  1.0
  Ta  Ta150  1  0.78139028  0.16381407  0.03538861  1.0
  Ta  Ta151  1  0.78139028  0.49714741  0.03538861  1.0
  Ta  Ta152  1  0.78139028  0.83048074  0.03538861  1.0
  Ta  Ta153  1  0.00361250  0.03418444  0.09094417  1.0
  Ta  Ta154  1  0.00361250  0.36751778  0.09094417  1.0
  Ta  Ta155  1  0.00361250  0.70085111  0.09094417  1.0
  Ta  Ta156  1  0.33694583  0.03418444  0.09094417  1.0
  Ta  Ta157  1  0.33694583  0.36751778  0.09094417  1.0
  Ta  Ta158  1  0.33694583  0.70085111  0.09094417  1.0
  Ta  Ta159  1  0.67027917  0.03418444  0.09094417  1.0
  Ta  Ta160  1  0.67027917  0.36751778  0.09094417  1.0
  Ta  Ta161  1  0.67027917  0.70085111  0.09094417  1.0
  Ta  Ta162  1  0.12005472  0.26566593  0.06316639  1.0
  Ta  Ta163  1  0.12005472  0.59899926  0.06316639  1.0
  Ta  Ta164  1  0.12005472  0.93233259  0.06316639  1.0
  Ta  Ta165  1  0.45338806  0.26566593  0.06316639  1.0
  Ta  Ta166  1  0.45338806  0.59899926  0.06316639  1.0
  Ta  Ta167  1  0.45338806  0.93233259  0.06316639  1.0
  Ta  Ta168  1  0.78672139  0.26566593  0.06316639  1.0
  Ta  Ta169  1  0.78672139  0.59899926  0.06316639  1.0
  Ta  Ta170  1  0.78672139  0.93233259  0.06316639  1.0
  Ta  Ta171  1  0.23116583  0.06196222  0.00761083  1.0
  Ta  Ta172  1  0.23116583  0.39529556  0.00761083  1.0
  Ta  Ta173  1  0.23116583  0.72862889  0.00761083  1.0
  Ta  Ta174  1  0.56449917  0.06196222  0.00761083  1.0
  Ta  Ta175  1  0.56449917  0.39529556  0.00761083  1.0
  Ta  Ta176  1  0.56449917  0.72862889  0.00761083  1.0
  Ta  Ta177  1  0.89783250  0.06196222  0.00761083  1.0
  Ta  Ta178  1  0.89783250  0.39529556  0.00761083  1.0
  Ta  Ta179  1  0.89783250  0.72862889  0.00761083  1.0
  Ta  Ta180  1  0.30168583  0.12660556  0.02524083  1.0
  Ta  Ta181  1  0.30168583  0.45993889  0.02524083  1.0
  Ta  Ta182  1  0.30168583  0.79327222  0.02524083  1.0
  Ta  Ta183  1  0.63501917  0.12660556  0.02524083  1.0
  Ta  Ta184  1  0.63501917  0.45993889  0.02524083  1.0
  Ta  Ta185  1  0.63501917  0.79327222  0.02524083  1.0
  Ta  Ta186  1  0.96835250  0.12660556  0.02524083  1.0
  Ta  Ta187  1  0.96835250  0.45993889  0.02524083  1.0
  Ta  Ta188  1  0.96835250  0.79327222  0.02524083  1.0
  Ta  Ta189  1  0.19057472  0.33030926  0.08079639  1.0
  Ta  Ta190  1  0.19057472  0.66364259  0.08079639  1.0
  Ta  Ta191  1  0.19057472  0.99697593  0.08079639  1.0
  Ta  Ta192  1  0.52390806  0.33030926  0.08079639  1.0
  Ta  Ta193  1  0.52390806  0.66364259  0.08079639  1.0
  Ta  Ta194  1  0.52390806  0.99697593  0.08079639  1.0
  Ta  Ta195  1  0.85724139  0.33030926  0.08079639  1.0
  Ta  Ta196  1  0.85724139  0.66364259  0.08079639  1.0
  Ta  Ta197  1  0.85724139  0.99697593  0.08079639  1.0
  Ta  Ta198  1  0.30701694  0.22845741  0.05301861  1.0
  Ta  Ta199  1  0.30701694  0.56179074  0.05301861  1.0
  Ta  Ta200  1  0.30701694  0.89512407  0.05301861  1.0
  Ta  Ta201  1  0.64035028  0.22845741  0.05301861  1.0
  Ta  Ta202  1  0.64035028  0.56179074  0.05301861  1.0
  Ta  Ta203  1  0.64035028  0.89512407  0.05301861  1.0
  Ta  Ta204  1  0.97368361  0.22845741  0.05301861  1.0
  Ta  Ta205  1  0.97368361  0.56179074  0.05301861  1.0
  Ta  Ta206  1  0.97368361  0.89512407  0.05301861  1.0
  Ta  Ta207  1  0.19590583  0.09882778  0.10857417  1.0
  Ta  Ta208  1  0.19590583  0.43216111  0.10857417  1.0
  Ta  Ta209  1  0.19590583  0.76549444  0.10857417  1.0
  Ta  Ta210  1  0.52923917  0.09882778  0.10857417  1.0
  Ta  Ta211  1  0.52923917  0.43216111  0.10857417  1.0
  Ta  Ta212  1  0.52923917  0.76549444  0.10857417  1.0
  Ta  Ta213  1  0.86257250  0.09882778  0.10857417  1.0
  Ta  Ta214  1  0.86257250  0.43216111  0.10857417  1.0
  Ta  Ta215  1  0.86257250  0.76549444  0.10857417  1.0
  Ta  Ta216  1  0.22583472  0.23788815  0.14649972  1.0
  Ta  Ta217  1  0.22583472  0.57122148  0.14649972  1.0
  Ta  Ta218  1  0.22583472  0.90455481  0.14649972  1.0
  Ta  Ta219  1  0.55916806  0.23788815  0.14649972  1.0
  Ta  Ta220  1  0.55916806  0.57122148  0.14649972  1.0
  Ta  Ta221  1  0.55916806  0.90455481  0.14649972  1.0
  Ta  Ta222  1  0.89250139  0.23788815  0.14649972  1.0
  Ta  Ta223  1  0.89250139  0.57122148  0.14649972  1.0
  Ta  Ta224  1  0.89250139  0.90455481  0.14649972  1.0
  Ta  Ta225  1  0.11472361  0.10825852  0.20205528  1.0
  Ta  Ta226  1  0.11472361  0.44159185  0.20205528  1.0
  Ta  Ta227  1  0.11472361  0.77492519  0.20205528  1.0
  Ta  Ta228  1  0.44805694  0.10825852  0.20205528  1.0
  Ta  Ta229  1  0.44805694  0.44159185  0.20205528  1.0
  Ta  Ta230  1  0.44805694  0.77492519  0.20205528  1.0
  Ta  Ta231  1  0.78139028  0.10825852  0.20205528  1.0
  Ta  Ta232  1  0.78139028  0.44159185  0.20205528  1.0
  Ta  Ta233  1  0.78139028  0.77492519  0.20205528  1.0
  Ta  Ta234  1  0.23116583  0.00640667  0.17427750  1.0
  Ta  Ta235  1  0.23116583  0.33974000  0.17427750  1.0
  Ta  Ta236  1  0.23116583  0.67307333  0.17427750  1.0
  Ta  Ta237  1  0.56449917  0.00640667  0.17427750  1.0
  Ta  Ta238  1  0.56449917  0.33974000  0.17427750  1.0
  Ta  Ta239  1  0.56449917  0.67307333  0.17427750  1.0
  Ta  Ta240  1  0.89783250  0.00640667  0.17427750  1.0
  Ta  Ta241  1  0.89783250  0.33974000  0.17427750  1.0
  Ta  Ta242  1  0.89783250  0.67307333  0.17427750  1.0
  Ta  Ta243  1  0.00894361  0.13603630  0.11872194  1.0
  Ta  Ta244  1  0.00894361  0.46936963  0.11872194  1.0
  Ta  Ta245  1  0.00894361  0.80270296  0.11872194  1.0
  Ta  Ta246  1  0.34227694  0.13603630  0.11872194  1.0
  Ta  Ta247  1  0.34227694  0.46936963  0.11872194  1.0
  Ta  Ta248  1  0.34227694  0.80270296  0.11872194  1.0
  Ta  Ta249  1  0.67561028  0.13603630  0.11872194  1.0
  Ta  Ta250  1  0.67561028  0.46936963  0.11872194  1.0
  Ta  Ta251  1  0.67561028  0.80270296  0.11872194  1.0
  Ta  Ta252  1  0.07946361  0.20067963  0.13635194  1.0
  Ta  Ta253  1  0.07946361  0.53401296  0.13635194  1.0
  Ta  Ta254  1  0.07946361  0.86734630  0.13635194  1.0
  Ta  Ta255  1  0.41279694  0.20067963  0.13635194  1.0
  Ta  Ta256  1  0.41279694  0.53401296  0.13635194  1.0
  Ta  Ta257  1  0.41279694  0.86734630  0.13635194  1.0
  Ta  Ta258  1  0.74613028  0.20067963  0.13635194  1.0
  Ta  Ta259  1  0.74613028  0.53401296  0.13635194  1.0
  Ta  Ta260  1  0.74613028  0.86734630  0.13635194  1.0
  Ta  Ta261  1  0.30168583  0.07105000  0.19190750  1.0
  Ta  Ta262  1  0.30168583  0.40438333  0.19190750  1.0
  Ta  Ta263  1  0.30168583  0.73771667  0.19190750  1.0
  Ta  Ta264  1  0.63501917  0.07105000  0.19190750  1.0
  Ta  Ta265  1  0.63501917  0.40438333  0.19190750  1.0
  Ta  Ta266  1  0.63501917  0.73771667  0.19190750  1.0
  Ta  Ta267  1  0.96835250  0.07105000  0.19190750  1.0
  Ta  Ta268  1  0.96835250  0.40438333  0.19190750  1.0
  Ta  Ta269  1  0.96835250  0.73771667  0.19190750  1.0
  Ta  Ta270  1  0.08479472  0.30253148  0.16412972  1.0
  Ta  Ta271  1  0.08479472  0.63586481  0.16412972  1.0
  Ta  Ta272  1  0.08479472  0.96919815  0.16412972  1.0
  Ta  Ta273  1  0.41812806  0.30253148  0.16412972  1.0
  Ta  Ta274  1  0.41812806  0.63586481  0.16412972  1.0
  Ta  Ta275  1  0.41812806  0.96919815  0.16412972  1.0
  Ta  Ta276  1  0.75146139  0.30253148  0.16412972  1.0
  Ta  Ta277  1  0.75146139  0.63586481  0.16412972  1.0
  Ta  Ta278  1  0.75146139  0.96919815  0.16412972  1.0
  Ta  Ta279  1  0.30701694  0.17290185  0.21968528  1.0
  Ta  Ta280  1  0.30701694  0.50623519  0.21968528  1.0
  Ta  Ta281  1  0.30701694  0.83956852  0.21968528  1.0
  Ta  Ta282  1  0.64035028  0.17290185  0.21968528  1.0
  Ta  Ta283  1  0.64035028  0.50623519  0.21968528  1.0
  Ta  Ta284  1  0.64035028  0.83956852  0.21968528  1.0
  Ta  Ta285  1  0.97368361  0.17290185  0.21968528  1.0
  Ta  Ta286  1  0.97368361  0.50623519  0.21968528  1.0
  Ta  Ta287  1  0.97368361  0.83956852  0.21968528  1.0
  Ta  Ta288  1  0.00361250  0.31196222  0.25761083  1.0
  Ta  Ta289  1  0.00361250  0.64529556  0.25761083  1.0
  Ta  Ta290  1  0.00361250  0.97862889  0.25761083  1.0
  Ta  Ta291  1  0.33694583  0.31196222  0.25761083  1.0
  Ta  Ta292  1  0.33694583  0.64529556  0.25761083  1.0
  Ta  Ta293  1  0.33694583  0.97862889  0.25761083  1.0
  Ta  Ta294  1  0.67027917  0.31196222  0.25761083  1.0
  Ta  Ta295  1  0.67027917  0.64529556  0.25761083  1.0
  Ta  Ta296  1  0.67027917  0.97862889  0.25761083  1.0
  Ta  Ta297  1  0.22583472  0.18233259  0.31316639  1.0
  Ta  Ta298  1  0.22583472  0.51566593  0.31316639  1.0
  Ta  Ta299  1  0.22583472  0.84899926  0.31316639  1.0
  Ta  Ta300  1  0.55916806  0.18233259  0.31316639  1.0
  Ta  Ta301  1  0.55916806  0.51566593  0.31316639  1.0
  Ta  Ta302  1  0.55916806  0.84899926  0.31316639  1.0
  Ta  Ta303  1  0.89250139  0.18233259  0.31316639  1.0
  Ta  Ta304  1  0.89250139  0.51566593  0.31316639  1.0
  Ta  Ta305  1  0.89250139  0.84899926  0.31316639  1.0
  Ta  Ta306  1  0.00894361  0.08048074  0.28538861  1.0
  Ta  Ta307  1  0.00894361  0.41381407  0.28538861  1.0
  Ta  Ta308  1  0.00894361  0.74714741  0.28538861  1.0
  Ta  Ta309  1  0.34227694  0.08048074  0.28538861  1.0
  Ta  Ta310  1  0.34227694  0.41381407  0.28538861  1.0
  Ta  Ta311  1  0.34227694  0.74714741  0.28538861  1.0
  Ta  Ta312  1  0.67561028  0.08048074  0.28538861  1.0
  Ta  Ta313  1  0.67561028  0.41381407  0.28538861  1.0
  Ta  Ta314  1  0.67561028  0.74714741  0.28538861  1.0
  Ta  Ta315  1  0.12005472  0.21011037  0.22983306  1.0
  Ta  Ta316  1  0.12005472  0.54344370  0.22983306  1.0
  Ta  Ta317  1  0.12005472  0.87677704  0.22983306  1.0
  Ta  Ta318  1  0.45338806  0.21011037  0.22983306  1.0
  Ta  Ta319  1  0.45338806  0.54344370  0.22983306  1.0
  Ta  Ta320  1  0.45338806  0.87677704  0.22983306  1.0
  Ta  Ta321  1  0.78672139  0.21011037  0.22983306  1.0
  Ta  Ta322  1  0.78672139  0.54344370  0.22983306  1.0
  Ta  Ta323  1  0.78672139  0.87677704  0.22983306  1.0
  Ta  Ta324  1  0.19057472  0.27475370  0.24746306  1.0
  Ta  Ta325  1  0.19057472  0.60808704  0.24746306  1.0
  Ta  Ta326  1  0.19057472  0.94142037  0.24746306  1.0
  Ta  Ta327  1  0.52390806  0.27475370  0.24746306  1.0
  Ta  Ta328  1  0.52390806  0.60808704  0.24746306  1.0
  Ta  Ta329  1  0.52390806  0.94142037  0.24746306  1.0
  Ta  Ta330  1  0.85724139  0.27475370  0.24746306  1.0
  Ta  Ta331  1  0.85724139  0.60808704  0.24746306  1.0
  Ta  Ta332  1  0.85724139  0.94142037  0.24746306  1.0
  Ta  Ta333  1  0.07946361  0.14512407  0.30301861  1.0
  Ta  Ta334  1  0.07946361  0.47845741  0.30301861  1.0
  Ta  Ta335  1  0.07946361  0.81179074  0.30301861  1.0
  Ta  Ta336  1  0.41279694  0.14512407  0.30301861  1.0
  Ta  Ta337  1  0.41279694  0.47845741  0.30301861  1.0
  Ta  Ta338  1  0.41279694  0.81179074  0.30301861  1.0
  Ta  Ta339  1  0.74613028  0.14512407  0.30301861  1.0
  Ta  Ta340  1  0.74613028  0.47845741  0.30301861  1.0
  Ta  Ta341  1  0.74613028  0.81179074  0.30301861  1.0
  Ta  Ta342  1  0.19590583  0.04327222  0.27524083  1.0
  Ta  Ta343  1  0.19590583  0.37660556  0.27524083  1.0
  Ta  Ta344  1  0.19590583  0.70993889  0.27524083  1.0
  Ta  Ta345  1  0.52923917  0.04327222  0.27524083  1.0
  Ta  Ta346  1  0.52923917  0.37660556  0.27524083  1.0
  Ta  Ta347  1  0.52923917  0.70993889  0.27524083  1.0
  Ta  Ta348  1  0.86257250  0.04327222  0.27524083  1.0
  Ta  Ta349  1  0.86257250  0.37660556  0.27524083  1.0
  Ta  Ta350  1  0.86257250  0.70993889  0.27524083  1.0
  Ta  Ta351  1  0.08479472  0.24697593  0.33079639  1.0
  Ta  Ta352  1  0.08479472  0.58030926  0.33079639  1.0
  Ta  Ta353  1  0.08479472  0.91364259  0.33079639  1.0
  Ta  Ta354  1  0.41812806  0.24697593  0.33079639  1.0
  Ta  Ta355  1  0.41812806  0.58030926  0.33079639  1.0
  Ta  Ta356  1  0.41812806  0.91364259  0.33079639  1.0
  Ta  Ta357  1  0.75146139  0.24697593  0.33079639  1.0
  Ta  Ta358  1  0.75146139  0.58030926  0.33079639  1.0
  Ta  Ta359  1  0.75146139  0.91364259  0.33079639  1.0
  Ta  Ta360  1  0.11472361  0.05270296  0.36872194  1.0
  Ta  Ta361  1  0.11472361  0.38603630  0.36872194  1.0
  Ta  Ta362  1  0.11472361  0.71936963  0.36872194  1.0
  Ta  Ta363  1  0.44805694  0.05270296  0.36872194  1.0
  Ta  Ta364  1  0.44805694  0.38603630  0.36872194  1.0
  Ta  Ta365  1  0.44805694  0.71936963  0.36872194  1.0
  Ta  Ta366  1  0.78139028  0.05270296  0.36872194  1.0
  Ta  Ta367  1  0.78139028  0.38603630  0.36872194  1.0
  Ta  Ta368  1  0.78139028  0.71936963  0.36872194  1.0
  Ta  Ta369  1  0.00361250  0.25640667  0.42427750  1.0
  Ta  Ta370  1  0.00361250  0.58974000  0.42427750  1.0
  Ta  Ta371  1  0.00361250  0.92307333  0.42427750  1.0
  Ta  Ta372  1  0.33694583  0.25640667  0.42427750  1.0
  Ta  Ta373  1  0.33694583  0.58974000  0.42427750  1.0
  Ta  Ta374  1  0.33694583  0.92307333  0.42427750  1.0
  Ta  Ta375  1  0.67027917  0.25640667  0.42427750  1.0
  Ta  Ta376  1  0.67027917  0.58974000  0.42427750  1.0
  Ta  Ta377  1  0.67027917  0.92307333  0.42427750  1.0
  Ta  Ta378  1  0.12005472  0.15455481  0.39649972  1.0
  Ta  Ta379  1  0.12005472  0.48788815  0.39649972  1.0
  Ta  Ta380  1  0.12005472  0.82122148  0.39649972  1.0
  Ta  Ta381  1  0.45338806  0.15455481  0.39649972  1.0
  Ta  Ta382  1  0.45338806  0.48788815  0.39649972  1.0
  Ta  Ta383  1  0.45338806  0.82122148  0.39649972  1.0
  Ta  Ta384  1  0.78672139  0.15455481  0.39649972  1.0
  Ta  Ta385  1  0.78672139  0.48788815  0.39649972  1.0
  Ta  Ta386  1  0.78672139  0.82122148  0.39649972  1.0
  Ta  Ta387  1  0.23116583  0.28418444  0.34094417  1.0
  Ta  Ta388  1  0.23116583  0.61751778  0.34094417  1.0
  Ta  Ta389  1  0.23116583  0.95085111  0.34094417  1.0
  Ta  Ta390  1  0.56449917  0.28418444  0.34094417  1.0
  Ta  Ta391  1  0.56449917  0.61751778  0.34094417  1.0
  Ta  Ta392  1  0.56449917  0.95085111  0.34094417  1.0
  Ta  Ta393  1  0.89783250  0.28418444  0.34094417  1.0
  Ta  Ta394  1  0.89783250  0.61751778  0.34094417  1.0
  Ta  Ta395  1  0.89783250  0.95085111  0.34094417  1.0
  Ta  Ta396  1  0.30168583  0.01549444  0.35857417  1.0
  Ta  Ta397  1  0.30168583  0.34882778  0.35857417  1.0
  Ta  Ta398  1  0.30168583  0.68216111  0.35857417  1.0
  Ta  Ta399  1  0.63501917  0.01549444  0.35857417  1.0
  Ta  Ta400  1  0.63501917  0.34882778  0.35857417  1.0
  Ta  Ta401  1  0.63501917  0.68216111  0.35857417  1.0
  Ta  Ta402  1  0.96835250  0.01549444  0.35857417  1.0
  Ta  Ta403  1  0.96835250  0.34882778  0.35857417  1.0
  Ta  Ta404  1  0.96835250  0.68216111  0.35857417  1.0
  Ta  Ta405  1  0.19057472  0.21919815  0.41412972  1.0
  Ta  Ta406  1  0.19057472  0.55253148  0.41412972  1.0
  Ta  Ta407  1  0.19057472  0.88586481  0.41412972  1.0
  Ta  Ta408  1  0.52390806  0.21919815  0.41412972  1.0
  Ta  Ta409  1  0.52390806  0.55253148  0.41412972  1.0
  Ta  Ta410  1  0.52390806  0.88586481  0.41412972  1.0
  Ta  Ta411  1  0.85724139  0.21919815  0.41412972  1.0
  Ta  Ta412  1  0.85724139  0.55253148  0.41412972  1.0
  Ta  Ta413  1  0.85724139  0.88586481  0.41412972  1.0
  Ta  Ta414  1  0.30701694  0.11734630  0.38635194  1.0
  Ta  Ta415  1  0.30701694  0.45067963  0.38635194  1.0
  Ta  Ta416  1  0.30701694  0.78401296  0.38635194  1.0
  Ta  Ta417  1  0.64035028  0.11734630  0.38635194  1.0
  Ta  Ta418  1  0.64035028  0.45067963  0.38635194  1.0
  Ta  Ta419  1  0.64035028  0.78401296  0.38635194  1.0
  Ta  Ta420  1  0.97368361  0.11734630  0.38635194  1.0
  Ta  Ta421  1  0.97368361  0.45067963  0.38635194  1.0
  Ta  Ta422  1  0.97368361  0.78401296  0.38635194  1.0
  Ta  Ta423  1  0.19590583  0.32105000  0.44190750  1.0
  Ta  Ta424  1  0.19590583  0.65438333  0.44190750  1.0
  Ta  Ta425  1  0.19590583  0.98771667  0.44190750  1.0
  Ta  Ta426  1  0.52923917  0.32105000  0.44190750  1.0
  Ta  Ta427  1  0.52923917  0.65438333  0.44190750  1.0
  Ta  Ta428  1  0.52923917  0.98771667  0.44190750  1.0
  Ta  Ta429  1  0.86257250  0.32105000  0.44190750  1.0
  Ta  Ta430  1  0.86257250  0.65438333  0.44190750  1.0
  Ta  Ta431  1  0.86257250  0.98771667  0.44190750  1.0
