# generated using pymatgen
data_Ta5Ni
_symmetry_space_group_name_H-M   'P 1'
_cell_length_a   25.22430624
_cell_length_b   25.22430624
_cell_length_c   42.04051040
_cell_angle_alpha   120.00000000
_cell_angle_beta   60.00000000
_cell_angle_gamma   90.00000000
_symmetry_Int_Tables_number   1
_chemical_formula_structural   Ta5Ni
_chemical_formula_sum   'Ta360 Ni72'
_cell_volume   18914.35095012
_cell_formula_units_Z   72
loop_
 _symmetry_equiv_pos_site_id
 _symmetry_equiv_pos_as_xyz
  1  'x, y, z'
loop_
 _atom_site_type_symbol
 _atom_site_label
 _atom_site_symmetry_multiplicity
 _atom_site_fract_x
 _atom_site_fract_y
 _atom_site_fract_z
 _atom_site_occupancy
  Ta  Ta0  1  0.02876144  0.02876144  0.15284307  1.0
  Ta  Ta1  1  0.02876144  0.36209478  0.15284307  1.0
  Ta  Ta2  1  0.02876144  0.69542811  0.15284307  1.0
  Ta  Ta3  1  0.36209478  0.02876144  0.15284307  1.0
  Ta  Ta4  1  0.36209478  0.36209478  0.15284307  1.0
  Ta  Ta5  1  0.36209478  0.69542811  0.15284307  1.0
  Ta  Ta6  1  0.69542811  0.02876144  0.15284307  1.0
  Ta  Ta7  1  0.69542811  0.36209478  0.15284307  1.0
  Ta  Ta8  1  0.69542811  0.69542811  0.15284307  1.0
  Ta  Ta9  1  0.02876144  0.24704900  0.15284307  1.0
  Ta  Ta10  1  0.02876144  0.58038233  0.15284307  1.0
  Ta  Ta11  1  0.02876144  0.91371567  0.15284307  1.0
  Ta  Ta12  1  0.36209478  0.24704900  0.15284307  1.0
  Ta  Ta13  1  0.36209478  0.58038233  0.15284307  1.0
  Ta  Ta14  1  0.36209478  0.91371567  0.15284307  1.0
  Ta  Ta15  1  0.69542811  0.24704900  0.15284307  1.0
  Ta  Ta16  1  0.69542811  0.58038233  0.15284307  1.0
  Ta  Ta17  1  0.69542811  0.91371567  0.15284307  1.0
  Ta  Ta18  1  0.24704900  0.02876144  0.02187053  1.0
  Ta  Ta19  1  0.24704900  0.36209478  0.02187053  1.0
  Ta  Ta20  1  0.24704900  0.69542811  0.02187053  1.0
  Ta  Ta21  1  0.58038233  0.02876144  0.02187053  1.0
  Ta  Ta22  1  0.58038233  0.36209478  0.02187053  1.0
  Ta  Ta23  1  0.58038233  0.69542811  0.02187053  1.0
  Ta  Ta24  1  0.91371567  0.02876144  0.02187053  1.0
  Ta  Ta25  1  0.91371567  0.36209478  0.02187053  1.0
  Ta  Ta26  1  0.91371567  0.69542811  0.02187053  1.0
  Ta  Ta27  1  0.02876144  0.02876144  0.02187053  1.0
  Ta  Ta28  1  0.02876144  0.36209478  0.02187053  1.0
  Ta  Ta29  1  0.02876144  0.69542811  0.02187053  1.0
  Ta  Ta30  1  0.36209478  0.02876144  0.02187053  1.0
  Ta  Ta31  1  0.36209478  0.36209478  0.02187053  1.0
  Ta  Ta32  1  0.36209478  0.69542811  0.02187053  1.0
  Ta  Ta33  1  0.69542811  0.02876144  0.02187053  1.0
  Ta  Ta34  1  0.69542811  0.36209478  0.02187053  1.0
  Ta  Ta35  1  0.69542811  0.69542811  0.02187053  1.0
  Ta  Ta36  1  0.22123856  0.22123856  0.12187053  1.0
  Ta  Ta37  1  0.22123856  0.55457189  0.12187053  1.0
  Ta  Ta38  1  0.22123856  0.88790522  0.12187053  1.0
  Ta  Ta39  1  0.55457189  0.22123856  0.12187053  1.0
  Ta  Ta40  1  0.55457189  0.55457189  0.12187053  1.0
  Ta  Ta41  1  0.55457189  0.88790522  0.12187053  1.0
  Ta  Ta42  1  0.88790522  0.22123856  0.12187053  1.0
  Ta  Ta43  1  0.88790522  0.55457189  0.12187053  1.0
  Ta  Ta44  1  0.88790522  0.88790522  0.12187053  1.0
  Ta  Ta45  1  0.22123856  0.00295100  0.12187053  1.0
  Ta  Ta46  1  0.22123856  0.33628433  0.12187053  1.0
  Ta  Ta47  1  0.22123856  0.66961767  0.12187053  1.0
  Ta  Ta48  1  0.55457189  0.00295100  0.12187053  1.0
  Ta  Ta49  1  0.55457189  0.33628433  0.12187053  1.0
  Ta  Ta50  1  0.55457189  0.66961767  0.12187053  1.0
  Ta  Ta51  1  0.88790522  0.00295100  0.12187053  1.0
  Ta  Ta52  1  0.88790522  0.33628433  0.12187053  1.0
  Ta  Ta53  1  0.88790522  0.66961767  0.12187053  1.0
  Ta  Ta54  1  0.00295100  0.22123856  0.05284307  1.0
  Ta  Ta55  1  0.00295100  0.55457189  0.05284307  1.0
  Ta  Ta56  1  0.00295100  0.88790522  0.05284307  1.0
  Ta  Ta57  1  0.33628433  0.22123856  0.05284307  1.0
  Ta  Ta58  1  0.33628433  0.55457189  0.05284307  1.0
  Ta  Ta59  1  0.33628433  0.88790522  0.05284307  1.0
  Ta  Ta60  1  0.66961767  0.22123856  0.05284307  1.0
  Ta  Ta61  1  0.66961767  0.55457189  0.05284307  1.0
  Ta  Ta62  1  0.66961767  0.88790522  0.05284307  1.0
  Ta  Ta63  1  0.22123856  0.22123856  0.05284307  1.0
  Ta  Ta64  1  0.22123856  0.55457189  0.05284307  1.0
  Ta  Ta65  1  0.22123856  0.88790522  0.05284307  1.0
  Ta  Ta66  1  0.55457189  0.22123856  0.05284307  1.0
  Ta  Ta67  1  0.55457189  0.55457189  0.05284307  1.0
  Ta  Ta68  1  0.55457189  0.88790522  0.05284307  1.0
  Ta  Ta69  1  0.88790522  0.22123856  0.05284307  1.0
  Ta  Ta70  1  0.88790522  0.55457189  0.05284307  1.0
  Ta  Ta71  1  0.88790522  0.88790522  0.05284307  1.0
  Ta  Ta72  1  0.10440533  0.22892800  0.06207040  1.0
  Ta  Ta73  1  0.10440533  0.56226133  0.06207040  1.0
  Ta  Ta74  1  0.10440533  0.89559467  0.06207040  1.0
  Ta  Ta75  1  0.43773867  0.22892800  0.06207040  1.0
  Ta  Ta76  1  0.43773867  0.56226133  0.06207040  1.0
  Ta  Ta77  1  0.43773867  0.89559467  0.06207040  1.0
  Ta  Ta78  1  0.77107200  0.22892800  0.06207040  1.0
  Ta  Ta79  1  0.77107200  0.56226133  0.06207040  1.0
  Ta  Ta80  1  0.77107200  0.89559467  0.06207040  1.0
  Ta  Ta81  1  0.22892800  0.10440533  0.11264320  1.0
  Ta  Ta82  1  0.22892800  0.43773867  0.11264320  1.0
  Ta  Ta83  1  0.22892800  0.77107200  0.11264320  1.0
  Ta  Ta84  1  0.56226133  0.10440533  0.11264320  1.0
  Ta  Ta85  1  0.56226133  0.43773867  0.11264320  1.0
  Ta  Ta86  1  0.56226133  0.77107200  0.11264320  1.0
  Ta  Ta87  1  0.89559467  0.10440533  0.11264320  1.0
  Ta  Ta88  1  0.89559467  0.43773867  0.11264320  1.0
  Ta  Ta89  1  0.89559467  0.77107200  0.11264320  1.0
  Ta  Ta90  1  0.22892800  0.10440533  0.18735680  1.0
  Ta  Ta91  1  0.22892800  0.43773867  0.18735680  1.0
  Ta  Ta92  1  0.22892800  0.77107200  0.18735680  1.0
  Ta  Ta93  1  0.56226133  0.10440533  0.18735680  1.0
  Ta  Ta94  1  0.56226133  0.43773867  0.18735680  1.0
  Ta  Ta95  1  0.56226133  0.77107200  0.18735680  1.0
  Ta  Ta96  1  0.89559467  0.10440533  0.18735680  1.0
  Ta  Ta97  1  0.89559467  0.43773867  0.18735680  1.0
  Ta  Ta98  1  0.89559467  0.77107200  0.18735680  1.0
  Ta  Ta99  1  0.10440533  0.22892800  0.18735680  1.0
  Ta  Ta100  1  0.10440533  0.56226133  0.18735680  1.0
  Ta  Ta101  1  0.10440533  0.89559467  0.18735680  1.0
  Ta  Ta102  1  0.43773867  0.22892800  0.18735680  1.0
  Ta  Ta103  1  0.43773867  0.56226133  0.18735680  1.0
  Ta  Ta104  1  0.43773867  0.89559467  0.18735680  1.0
  Ta  Ta105  1  0.77107200  0.22892800  0.18735680  1.0
  Ta  Ta106  1  0.77107200  0.56226133  0.18735680  1.0
  Ta  Ta107  1  0.77107200  0.89559467  0.18735680  1.0
  Ta  Ta108  1  0.22892800  0.22892800  0.18735680  1.0
  Ta  Ta109  1  0.22892800  0.56226133  0.18735680  1.0
  Ta  Ta110  1  0.22892800  0.89559467  0.18735680  1.0
  Ta  Ta111  1  0.56226133  0.22892800  0.18735680  1.0
  Ta  Ta112  1  0.56226133  0.56226133  0.18735680  1.0
  Ta  Ta113  1  0.56226133  0.89559467  0.18735680  1.0
  Ta  Ta114  1  0.89559467  0.22892800  0.18735680  1.0
  Ta  Ta115  1  0.89559467  0.56226133  0.18735680  1.0
  Ta  Ta116  1  0.89559467  0.89559467  0.18735680  1.0
  Ta  Ta117  1  0.10440533  0.10440533  0.18735680  1.0
  Ta  Ta118  1  0.10440533  0.43773867  0.18735680  1.0
  Ta  Ta119  1  0.10440533  0.77107200  0.18735680  1.0
  Ta  Ta120  1  0.43773867  0.10440533  0.18735680  1.0
  Ta  Ta121  1  0.43773867  0.43773867  0.18735680  1.0
  Ta  Ta122  1  0.43773867  0.77107200  0.18735680  1.0
  Ta  Ta123  1  0.77107200  0.10440533  0.18735680  1.0
  Ta  Ta124  1  0.77107200  0.43773867  0.18735680  1.0
  Ta  Ta125  1  0.77107200  0.77107200  0.18735680  1.0
  Ta  Ta126  1  0.14559467  0.02107200  0.01264320  1.0
  Ta  Ta127  1  0.14559467  0.35440533  0.01264320  1.0
  Ta  Ta128  1  0.14559467  0.68773867  0.01264320  1.0
  Ta  Ta129  1  0.47892800  0.02107200  0.01264320  1.0
  Ta  Ta130  1  0.47892800  0.35440533  0.01264320  1.0
  Ta  Ta131  1  0.47892800  0.68773867  0.01264320  1.0
  Ta  Ta132  1  0.81226133  0.02107200  0.01264320  1.0
  Ta  Ta133  1  0.81226133  0.35440533  0.01264320  1.0
  Ta  Ta134  1  0.81226133  0.68773867  0.01264320  1.0
  Ta  Ta135  1  0.02107200  0.14559467  0.16207040  1.0
  Ta  Ta136  1  0.02107200  0.47892800  0.16207040  1.0
  Ta  Ta137  1  0.02107200  0.81226133  0.16207040  1.0
  Ta  Ta138  1  0.35440533  0.14559467  0.16207040  1.0
  Ta  Ta139  1  0.35440533  0.47892800  0.16207040  1.0
  Ta  Ta140  1  0.35440533  0.81226133  0.16207040  1.0
  Ta  Ta141  1  0.68773867  0.14559467  0.16207040  1.0
  Ta  Ta142  1  0.68773867  0.47892800  0.16207040  1.0
  Ta  Ta143  1  0.68773867  0.81226133  0.16207040  1.0
  Ta  Ta144  1  0.02107200  0.14559467  0.08735680  1.0
  Ta  Ta145  1  0.02107200  0.47892800  0.08735680  1.0
  Ta  Ta146  1  0.02107200  0.81226133  0.08735680  1.0
  Ta  Ta147  1  0.35440533  0.14559467  0.08735680  1.0
  Ta  Ta148  1  0.35440533  0.47892800  0.08735680  1.0
  Ta  Ta149  1  0.35440533  0.81226133  0.08735680  1.0
  Ta  Ta150  1  0.68773867  0.14559467  0.08735680  1.0
  Ta  Ta151  1  0.68773867  0.47892800  0.08735680  1.0
  Ta  Ta152  1  0.68773867  0.81226133  0.08735680  1.0
  Ta  Ta153  1  0.14559467  0.02107200  0.08735680  1.0
  Ta  Ta154  1  0.14559467  0.35440533  0.08735680  1.0
  Ta  Ta155  1  0.14559467  0.68773867  0.08735680  1.0
  Ta  Ta156  1  0.47892800  0.02107200  0.08735680  1.0
  Ta  Ta157  1  0.47892800  0.35440533  0.08735680  1.0
  Ta  Ta158  1  0.47892800  0.68773867  0.08735680  1.0
  Ta  Ta159  1  0.81226133  0.02107200  0.08735680  1.0
  Ta  Ta160  1  0.81226133  0.35440533  0.08735680  1.0
  Ta  Ta161  1  0.81226133  0.68773867  0.08735680  1.0
  Ta  Ta162  1  0.02107200  0.02107200  0.08735680  1.0
  Ta  Ta163  1  0.02107200  0.35440533  0.08735680  1.0
  Ta  Ta164  1  0.02107200  0.68773867  0.08735680  1.0
  Ta  Ta165  1  0.35440533  0.02107200  0.08735680  1.0
  Ta  Ta166  1  0.35440533  0.35440533  0.08735680  1.0
  Ta  Ta167  1  0.35440533  0.68773867  0.08735680  1.0
  Ta  Ta168  1  0.68773867  0.02107200  0.08735680  1.0
  Ta  Ta169  1  0.68773867  0.35440533  0.08735680  1.0
  Ta  Ta170  1  0.68773867  0.68773867  0.08735680  1.0
  Ta  Ta171  1  0.14559467  0.14559467  0.08735680  1.0
  Ta  Ta172  1  0.14559467  0.47892800  0.08735680  1.0
  Ta  Ta173  1  0.14559467  0.81226133  0.08735680  1.0
  Ta  Ta174  1  0.47892800  0.14559467  0.08735680  1.0
  Ta  Ta175  1  0.47892800  0.47892800  0.08735680  1.0
  Ta  Ta176  1  0.47892800  0.81226133  0.08735680  1.0
  Ta  Ta177  1  0.81226133  0.14559467  0.08735680  1.0
  Ta  Ta178  1  0.81226133  0.47892800  0.08735680  1.0
  Ta  Ta179  1  0.81226133  0.81226133  0.08735680  1.0
  Ni  Ni180  1  0.29166667  0.29166667  0.03735680  1.0
  Ni  Ni181  1  0.29166667  0.62500000  0.03735680  1.0
  Ni  Ni182  1  0.29166667  0.95833333  0.03735680  1.0
  Ni  Ni183  1  0.62500000  0.29166667  0.03735680  1.0
  Ni  Ni184  1  0.62500000  0.62500000  0.03735680  1.0
  Ni  Ni185  1  0.62500000  0.95833333  0.03735680  1.0
  Ni  Ni186  1  0.95833333  0.29166667  0.03735680  1.0
  Ni  Ni187  1  0.95833333  0.62500000  0.03735680  1.0
  Ni  Ni188  1  0.95833333  0.95833333  0.03735680  1.0
  Ni  Ni189  1  0.29166667  0.12500000  0.03735680  1.0
  Ni  Ni190  1  0.29166667  0.45833333  0.03735680  1.0
  Ni  Ni191  1  0.29166667  0.79166667  0.03735680  1.0
  Ni  Ni192  1  0.62500000  0.12500000  0.03735680  1.0
  Ni  Ni193  1  0.62500000  0.45833333  0.03735680  1.0
  Ni  Ni194  1  0.62500000  0.79166667  0.03735680  1.0
  Ni  Ni195  1  0.95833333  0.12500000  0.03735680  1.0
  Ni  Ni196  1  0.95833333  0.45833333  0.03735680  1.0
  Ni  Ni197  1  0.95833333  0.79166667  0.03735680  1.0
  Ni  Ni198  1  0.12500000  0.29166667  0.13735680  1.0
  Ni  Ni199  1  0.12500000  0.62500000  0.13735680  1.0
  Ni  Ni200  1  0.12500000  0.95833333  0.13735680  1.0
  Ni  Ni201  1  0.45833333  0.29166667  0.13735680  1.0
  Ni  Ni202  1  0.45833333  0.62500000  0.13735680  1.0
  Ni  Ni203  1  0.45833333  0.95833333  0.13735680  1.0
  Ni  Ni204  1  0.79166667  0.29166667  0.13735680  1.0
  Ni  Ni205  1  0.79166667  0.62500000  0.13735680  1.0
  Ni  Ni206  1  0.79166667  0.95833333  0.13735680  1.0
  Ni  Ni207  1  0.29166667  0.29166667  0.13735680  1.0
  Ni  Ni208  1  0.29166667  0.62500000  0.13735680  1.0
  Ni  Ni209  1  0.29166667  0.95833333  0.13735680  1.0
  Ni  Ni210  1  0.62500000  0.29166667  0.13735680  1.0
  Ni  Ni211  1  0.62500000  0.62500000  0.13735680  1.0
  Ni  Ni212  1  0.62500000  0.95833333  0.13735680  1.0
  Ni  Ni213  1  0.95833333  0.29166667  0.13735680  1.0
  Ni  Ni214  1  0.95833333  0.62500000  0.13735680  1.0
  Ni  Ni215  1  0.95833333  0.95833333  0.13735680  1.0
  Ta  Ta216  1  0.02876144  0.02876144  0.35284307  1.0
  Ta  Ta217  1  0.02876144  0.36209478  0.35284307  1.0
  Ta  Ta218  1  0.02876144  0.69542811  0.35284307  1.0
  Ta  Ta219  1  0.36209478  0.02876144  0.35284307  1.0
  Ta  Ta220  1  0.36209478  0.36209478  0.35284307  1.0
  Ta  Ta221  1  0.36209478  0.69542811  0.35284307  1.0
  Ta  Ta222  1  0.69542811  0.02876144  0.35284307  1.0
  Ta  Ta223  1  0.69542811  0.36209478  0.35284307  1.0
  Ta  Ta224  1  0.69542811  0.69542811  0.35284307  1.0
  Ta  Ta225  1  0.02876144  0.24704900  0.35284307  1.0
  Ta  Ta226  1  0.02876144  0.58038233  0.35284307  1.0
  Ta  Ta227  1  0.02876144  0.91371567  0.35284307  1.0
  Ta  Ta228  1  0.36209478  0.24704900  0.35284307  1.0
  Ta  Ta229  1  0.36209478  0.58038233  0.35284307  1.0
  Ta  Ta230  1  0.36209478  0.91371567  0.35284307  1.0
  Ta  Ta231  1  0.69542811  0.24704900  0.35284307  1.0
  Ta  Ta232  1  0.69542811  0.58038233  0.35284307  1.0
  Ta  Ta233  1  0.69542811  0.91371567  0.35284307  1.0
  Ta  Ta234  1  0.24704900  0.02876144  0.22187053  1.0
  Ta  Ta235  1  0.24704900  0.36209478  0.22187053  1.0
  Ta  Ta236  1  0.24704900  0.69542811  0.22187053  1.0
  Ta  Ta237  1  0.58038233  0.02876144  0.22187053  1.0
  Ta  Ta238  1  0.58038233  0.36209478  0.22187053  1.0
  Ta  Ta239  1  0.58038233  0.69542811  0.22187053  1.0
  Ta  Ta240  1  0.91371567  0.02876144  0.22187053  1.0
  Ta  Ta241  1  0.91371567  0.36209478  0.22187053  1.0
  Ta  Ta242  1  0.91371567  0.69542811  0.22187053  1.0
  Ta  Ta243  1  0.02876144  0.02876144  0.22187053  1.0
  Ta  Ta244  1  0.02876144  0.36209478  0.22187053  1.0
  Ta  Ta245  1  0.02876144  0.69542811  0.22187053  1.0
  Ta  Ta246  1  0.36209478  0.02876144  0.22187053  1.0
  Ta  Ta247  1  0.36209478  0.36209478  0.22187053  1.0
  Ta  Ta248  1  0.36209478  0.69542811  0.22187053  1.0
  Ta  Ta249  1  0.69542811  0.02876144  0.22187053  1.0
  Ta  Ta250  1  0.69542811  0.36209478  0.22187053  1.0
  Ta  Ta251  1  0.69542811  0.69542811  0.22187053  1.0
  Ta  Ta252  1  0.22123856  0.22123856  0.32187053  1.0
  Ta  Ta253  1  0.22123856  0.55457189  0.32187053  1.0
  Ta  Ta254  1  0.22123856  0.88790522  0.32187053  1.0
  Ta  Ta255  1  0.55457189  0.22123856  0.32187053  1.0
  Ta  Ta256  1  0.55457189  0.55457189  0.32187053  1.0
  Ta  Ta257  1  0.55457189  0.88790522  0.32187053  1.0
  Ta  Ta258  1  0.88790522  0.22123856  0.32187053  1.0
  Ta  Ta259  1  0.88790522  0.55457189  0.32187053  1.0
  Ta  Ta260  1  0.88790522  0.88790522  0.32187053  1.0
  Ta  Ta261  1  0.22123856  0.00295100  0.32187053  1.0
  Ta  Ta262  1  0.22123856  0.33628433  0.32187053  1.0
  Ta  Ta263  1  0.22123856  0.66961767  0.32187053  1.0
  Ta  Ta264  1  0.55457189  0.00295100  0.32187053  1.0
  Ta  Ta265  1  0.55457189  0.33628433  0.32187053  1.0
  Ta  Ta266  1  0.55457189  0.66961767  0.32187053  1.0
  Ta  Ta267  1  0.88790522  0.00295100  0.32187053  1.0
  Ta  Ta268  1  0.88790522  0.33628433  0.32187053  1.0
  Ta  Ta269  1  0.88790522  0.66961767  0.32187053  1.0
  Ta  Ta270  1  0.00295100  0.22123856  0.25284307  1.0
  Ta  Ta271  1  0.00295100  0.55457189  0.25284307  1.0
  Ta  Ta272  1  0.00295100  0.88790522  0.25284307  1.0
  Ta  Ta273  1  0.33628433  0.22123856  0.25284307  1.0
  Ta  Ta274  1  0.33628433  0.55457189  0.25284307  1.0
  Ta  Ta275  1  0.33628433  0.88790522  0.25284307  1.0
  Ta  Ta276  1  0.66961767  0.22123856  0.25284307  1.0
  Ta  Ta277  1  0.66961767  0.55457189  0.25284307  1.0
  Ta  Ta278  1  0.66961767  0.88790522  0.25284307  1.0
  Ta  Ta279  1  0.22123856  0.22123856  0.25284307  1.0
  Ta  Ta280  1  0.22123856  0.55457189  0.25284307  1.0
  Ta  Ta281  1  0.22123856  0.88790522  0.25284307  1.0
  Ta  Ta282  1  0.55457189  0.22123856  0.25284307  1.0
  Ta  Ta283  1  0.55457189  0.55457189  0.25284307  1.0
  Ta  Ta284  1  0.55457189  0.88790522  0.25284307  1.0
  Ta  Ta285  1  0.88790522  0.22123856  0.25284307  1.0
  Ta  Ta286  1  0.88790522  0.55457189  0.25284307  1.0
  Ta  Ta287  1  0.88790522  0.88790522  0.25284307  1.0
  Ta  Ta288  1  0.10440533  0.22892800  0.26207040  1.0
  Ta  Ta289  1  0.10440533  0.56226133  0.26207040  1.0
  Ta  Ta290  1  0.10440533  0.89559467  0.26207040  1.0
  Ta  Ta291  1  0.43773867  0.22892800  0.26207040  1.0
  Ta  Ta292  1  0.43773867  0.56226133  0.26207040  1.0
  Ta  Ta293  1  0.43773867  0.89559467  0.26207040  1.0
  Ta  Ta294  1  0.77107200  0.22892800  0.26207040  1.0
  Ta  Ta295  1  0.77107200  0.56226133  0.26207040  1.0
  Ta  Ta296  1  0.77107200  0.89559467  0.26207040  1.0
  Ta  Ta297  1  0.22892800  0.10440533  0.31264320  1.0
  Ta  Ta298  1  0.22892800  0.43773867  0.31264320  1.0
  Ta  Ta299  1  0.22892800  0.77107200  0.31264320  1.0
  Ta  Ta300  1  0.56226133  0.10440533  0.31264320  1.0
  Ta  Ta301  1  0.56226133  0.43773867  0.31264320  1.0
  Ta  Ta302  1  0.56226133  0.77107200  0.31264320  1.0
  Ta  Ta303  1  0.89559467  0.10440533  0.31264320  1.0
  Ta  Ta304  1  0.89559467  0.43773867  0.31264320  1.0
  Ta  Ta305  1  0.89559467  0.77107200  0.31264320  1.0
  Ta  Ta306  1  0.22892800  0.10440533  0.38735680  1.0
  Ta  Ta307  1  0.22892800  0.43773867  0.38735680  1.0
  Ta  Ta308  1  0.22892800  0.77107200  0.38735680  1.0
  Ta  Ta309  1  0.56226133  0.10440533  0.38735680  1.0
  Ta  Ta310  1  0.56226133  0.43773867  0.38735680  1.0
  Ta  Ta311  1  0.56226133  0.77107200  0.38735680  1.0
  Ta  Ta312  1  0.89559467  0.10440533  0.38735680  1.0
  Ta  Ta313  1  0.89559467  0.43773867  0.38735680  1.0
  Ta  Ta314  1  0.89559467  0.77107200  0.38735680  1.0
  Ta  Ta315  1  0.10440533  0.22892800  0.38735680  1.0
  Ta  Ta316  1  0.10440533  0.56226133  0.38735680  1.0
  Ta  Ta317  1  0.10440533  0.89559467  0.38735680  1.0
  Ta  Ta318  1  0.43773867  0.22892800  0.38735680  1.0
  Ta  Ta319  1  0.43773867  0.56226133  0.38735680  1.0
  Ta  Ta320  1  0.43773867  0.89559467  0.38735680  1.0
  Ta  Ta321  1  0.77107200  0.22892800  0.38735680  1.0
  Ta  Ta322  1  0.77107200  0.56226133  0.38735680  1.0
  Ta  Ta323  1  0.77107200  0.89559467  0.38735680  1.0
  Ta  Ta324  1  0.22892800  0.22892800  0.38735680  1.0
  Ta  Ta325  1  0.22892800  0.56226133  0.38735680  1.0
  Ta  Ta326  1  0.22892800  0.89559467  0.38735680  1.0
  Ta  Ta327  1  0.56226133  0.22892800  0.38735680  1.0
  Ta  Ta328  1  0.56226133  0.56226133  0.38735680  1.0
  Ta  Ta329  1  0.56226133  0.89559467  0.38735680  1.0
  Ta  Ta330  1  0.89559467  0.22892800  0.38735680  1.0
  Ta  Ta331  1  0.89559467  0.56226133  0.38735680  1.0
  Ta  Ta332  1  0.89559467  0.89559467  0.38735680  1.0
  Ta  Ta333  1  0.10440533  0.10440533  0.38735680  1.0
  Ta  Ta334  1  0.10440533  0.43773867  0.38735680  1.0
  Ta  Ta335  1  0.10440533  0.77107200  0.38735680  1.0
  Ta  Ta336  1  0.43773867  0.10440533  0.38735680  1.0
  Ta  Ta337  1  0.43773867  0.43773867  0.38735680  1.0
  Ta  Ta338  1  0.43773867  0.77107200  0.38735680  1.0
  Ta  Ta339  1  0.77107200  0.10440533  0.38735680  1.0
  Ta  Ta340  1  0.77107200  0.43773867  0.38735680  1.0
  Ta  Ta341  1  0.77107200  0.77107200  0.38735680  1.0
  Ta  Ta342  1  0.14559467  0.02107200  0.21264320  1.0
  Ta  Ta343  1  0.14559467  0.35440533  0.21264320  1.0
  Ta  Ta344  1  0.14559467  0.68773867  0.21264320  1.0
  Ta  Ta345  1  0.47892800  0.02107200  0.21264320  1.0
  Ta  Ta346  1  0.47892800  0.35440533  0.21264320  1.0
  Ta  Ta347  1  0.47892800  0.68773867  0.21264320  1.0
  Ta  Ta348  1  0.81226133  0.02107200  0.21264320  1.0
  Ta  Ta349  1  0.81226133  0.35440533  0.21264320  1.0
  Ta  Ta350  1  0.81226133  0.68773867  0.21264320  1.0
  Ta  Ta351  1  0.02107200  0.14559467  0.36207040  1.0
  Ta  Ta352  1  0.02107200  0.47892800  0.36207040  1.0
  Ta  Ta353  1  0.02107200  0.81226133  0.36207040  1.0
  Ta  Ta354  1  0.35440533  0.14559467  0.36207040  1.0
  Ta  Ta355  1  0.35440533  0.47892800  0.36207040  1.0
  Ta  Ta356  1  0.35440533  0.81226133  0.36207040  1.0
  Ta  Ta357  1  0.68773867  0.14559467  0.36207040  1.0
  Ta  Ta358  1  0.68773867  0.47892800  0.36207040  1.0
  Ta  Ta359  1  0.68773867  0.81226133  0.36207040  1.0
  Ta  Ta360  1  0.02107200  0.14559467  0.28735680  1.0
  Ta  Ta361  1  0.02107200  0.47892800  0.28735680  1.0
  Ta  Ta362  1  0.02107200  0.81226133  0.28735680  1.0
  Ta  Ta363  1  0.35440533  0.14559467  0.28735680  1.0
  Ta  Ta364  1  0.35440533  0.47892800  0.28735680  1.0
  Ta  Ta365  1  0.35440533  0.81226133  0.28735680  1.0
  Ta  Ta366  1  0.68773867  0.14559467  0.28735680  1.0
  Ta  Ta367  1  0.68773867  0.47892800  0.28735680  1.0
  Ta  Ta368  1  0.68773867  0.81226133  0.28735680  1.0
  Ta  Ta369  1  0.14559467  0.02107200  0.28735680  1.0
  Ta  Ta370  1  0.14559467  0.35440533  0.28735680  1.0
  Ta  Ta371  1  0.14559467  0.68773867  0.28735680  1.0
  Ta  Ta372  1  0.47892800  0.02107200  0.28735680  1.0
  Ta  Ta373  1  0.47892800  0.35440533  0.28735680  1.0
  Ta  Ta374  1  0.47892800  0.68773867  0.28735680  1.0
  Ta  Ta375  1  0.81226133  0.02107200  0.28735680  1.0
  Ta  Ta376  1  0.81226133  0.35440533  0.28735680  1.0
  Ta  Ta377  1  0.81226133  0.68773867  0.28735680  1.0
  Ta  Ta378  1  0.02107200  0.02107200  0.28735680  1.0
  Ta  Ta379  1  0.02107200  0.35440533  0.28735680  1.0
  Ta  Ta380  1  0.02107200  0.68773867  0.28735680  1.0
  Ta  Ta381  1  0.35440533  0.02107200  0.28735680  1.0
  Ta  Ta382  1  0.35440533  0.35440533  0.28735680  1.0
  Ta  Ta383  1  0.35440533  0.68773867  0.28735680  1.0
  Ta  Ta384  1  0.68773867  0.02107200  0.28735680  1.0
  Ta  Ta385  1  0.68773867  0.35440533  0.28735680  1.0
  Ta  Ta386  1  0.68773867  0.68773867  0.28735680  1.0
  Ta  Ta387  1  0.14559467  0.14559467  0.28735680  1.0
  Ta  Ta388  1  0.14559467  0.47892800  0.28735680  1.0
  Ta  Ta389  1  0.14559467  0.81226133  0.28735680  1.0
  Ta  Ta390  1  0.47892800  0.14559467  0.28735680  1.0
  Ta  Ta391  1  0.47892800  0.47892800  0.28735680  1.0
  Ta  Ta392  1  0.47892800  0.81226133  0.28735680  1.0
  Ta  Ta393  1  0.81226133  0.14559467  0.28735680  1.0
  Ta  Ta394  1  0.81226133  0.47892800  0.28735680  1.0
  Ta  Ta395  1  0.81226133  0.81226133  0.28735680  1.0
  Ni  Ni396  1  0.29166667  0.29166667  0.23735680  1.0
  Ni  Ni397  1  0.29166667  0.62500000  0.23735680  1.0
  Ni  Ni398  1  0.29166667  0.95833333  0.23735680  1.0
  Ni  Ni399  1  0.62500000  0.29166667  0.23735680  1.0
  Ni  Ni400  1  0.62500000  0.62500000  0.23735680  1.0
  Ni  Ni401  1  0.62500000  0.95833333  0.23735680  1.0
  Ni  Ni402  1  0.95833333  0.29166667  0.23735680  1.0
  Ni  Ni403  1  0.95833333  0.62500000  0.23735680  1.0
  Ni  Ni404  1  0.95833333  0.95833333  0.23735680  1.0
  Ni  Ni405  1  0.29166667  0.12500000  0.23735680  1.0
  Ni  Ni406  1  0.29166667  0.45833333  0.23735680  1.0
  Ni  Ni407  1  0.29166667  0.79166667  0.23735680  1.0
  Ni  Ni408  1  0.62500000  0.12500000  0.23735680  1.0
  Ni  Ni409  1  0.62500000  0.45833333  0.23735680  1.0
  Ni  Ni410  1  0.62500000  0.79166667  0.23735680  1.0
  Ni  Ni411  1  0.95833333  0.12500000  0.23735680  1.0
  Ni  Ni412  1  0.95833333  0.45833333  0.23735680  1.0
  Ni  Ni413  1  0.95833333  0.79166667  0.23735680  1.0
  Ni  Ni414  1  0.12500000  0.29166667  0.33735680  1.0
  Ni  Ni415  1  0.12500000  0.62500000  0.33735680  1.0
  Ni  Ni416  1  0.12500000  0.95833333  0.33735680  1.0
  Ni  Ni417  1  0.45833333  0.29166667  0.33735680  1.0
  Ni  Ni418  1  0.45833333  0.62500000  0.33735680  1.0
  Ni  Ni419  1  0.45833333  0.95833333  0.33735680  1.0
  Ni  Ni420  1  0.79166667  0.29166667  0.33735680  1.0
  Ni  Ni421  1  0.79166667  0.62500000  0.33735680  1.0
  Ni  Ni422  1  0.79166667  0.95833333  0.33735680  1.0
  Ni  Ni423  1  0.29166667  0.29166667  0.33735680  1.0
  Ni  Ni424  1  0.29166667  0.62500000  0.33735680  1.0
  Ni  Ni425  1  0.29166667  0.95833333  0.33735680  1.0
  Ni  Ni426  1  0.62500000  0.29166667  0.33735680  1.0
  Ni  Ni427  1  0.62500000  0.62500000  0.33735680  1.0
  Ni  Ni428  1  0.62500000  0.95833333  0.33735680  1.0
  Ni  Ni429  1  0.95833333  0.29166667  0.33735680  1.0
  Ni  Ni430  1  0.95833333  0.62500000  0.33735680  1.0
  Ni  Ni431  1  0.95833333  0.95833333  0.33735680  1.0
