# generated using pymatgen
data_TaNi3
_symmetry_space_group_name_H-M   'P 1'
_cell_length_a   20.50780641
_cell_length_b   24.14228186
_cell_length_c   28.91433301
_cell_angle_alpha   93.62860338
_cell_angle_beta   93.16756056
_cell_angle_gamma   95.69699253
_symmetry_Int_Tables_number   1
_chemical_formula_structural   TaNi3
_chemical_formula_sum   'Ta108 Ni324'
_cell_volume   14189.05010779
_cell_formula_units_Z   108
loop_
 _symmetry_equiv_pos_site_id
 _symmetry_equiv_pos_as_xyz
  1  'x, y, z'
loop_
 _atom_site_type_symbol
 _atom_site_label
 _atom_site_symmetry_multiplicity
 _atom_site_fract_x
 _atom_site_fract_y
 _atom_site_fract_z
 _atom_site_occupancy
  Ni  Ni0  1  0.05324350  0.33161142  0.08244813  1.0
  Ni  Ni1  1  0.05324350  0.66494475  0.08244813  1.0
  Ni  Ni2  1  0.05324350  0.99827808  0.08244813  1.0
  Ni  Ni3  1  0.38657683  0.33161142  0.08244813  1.0
  Ni  Ni4  1  0.38657683  0.66494475  0.08244813  1.0
  Ni  Ni5  1  0.38657683  0.99827808  0.08244813  1.0
  Ni  Ni6  1  0.71991017  0.33161142  0.08244813  1.0
  Ni  Ni7  1  0.71991017  0.66494475  0.08244813  1.0
  Ni  Ni8  1  0.71991017  0.99827808  0.08244813  1.0
  Ni  Ni9  1  0.21991017  0.20661142  0.01994813  1.0
  Ni  Ni10  1  0.21991017  0.53994475  0.01994813  1.0
  Ni  Ni11  1  0.21991017  0.87327808  0.01994812  1.0
  Ni  Ni12  1  0.55324350  0.20661142  0.01994813  1.0
  Ni  Ni13  1  0.55324350  0.53994475  0.01994813  1.0
  Ni  Ni14  1  0.55324350  0.87327808  0.01994813  1.0
  Ni  Ni15  1  0.88657683  0.20661142  0.01994813  1.0
  Ni  Ni16  1  0.88657683  0.53994475  0.01994812  1.0
  Ni  Ni17  1  0.88657683  0.87327808  0.01994813  1.0
  Ni  Ni18  1  0.03008983  0.14757950  0.07376550  1.0
  Ni  Ni19  1  0.03008983  0.48091283  0.07376550  1.0
  Ni  Ni20  1  0.03008983  0.81424617  0.07376550  1.0
  Ni  Ni21  1  0.36342317  0.14757950  0.07376550  1.0
  Ni  Ni22  1  0.36342317  0.48091283  0.07376550  1.0
  Ni  Ni23  1  0.36342317  0.81424617  0.07376550  1.0
  Ni  Ni24  1  0.69675650  0.14757950  0.07376550  1.0
  Ni  Ni25  1  0.69675650  0.48091283  0.07376550  1.0
  Ni  Ni26  1  0.69675650  0.81424617  0.07376550  1.0
  Ni  Ni27  1  0.19675650  0.02257950  0.01126550  1.0
  Ni  Ni28  1  0.19675650  0.35591283  0.01126550  1.0
  Ni  Ni29  1  0.19675650  0.68924617  0.01126550  1.0
  Ni  Ni30  1  0.53008983  0.02257950  0.01126550  1.0
  Ni  Ni31  1  0.53008983  0.35591283  0.01126550  1.0
  Ni  Ni32  1  0.53008983  0.68924617  0.01126550  1.0
  Ni  Ni33  1  0.86342317  0.02257950  0.01126550  1.0
  Ni  Ni34  1  0.86342317  0.35591283  0.01126550  1.0
  Ni  Ni35  1  0.86342317  0.68924617  0.01126550  1.0
  Ni  Ni36  1  0.31818667  0.05107938  0.02551544  1.0
  Ni  Ni37  1  0.31818667  0.38441271  0.02551544  1.0
  Ni  Ni38  1  0.31818667  0.71774604  0.02551544  1.0
  Ni  Ni39  1  0.65152000  0.05107938  0.02551544  1.0
  Ni  Ni40  1  0.65152000  0.38441271  0.02551544  1.0
  Ni  Ni41  1  0.65152000  0.71774604  0.02551544  1.0
  Ni  Ni42  1  0.98485333  0.05107938  0.02551544  1.0
  Ni  Ni43  1  0.98485333  0.38441271  0.02551544  1.0
  Ni  Ni44  1  0.98485333  0.71774604  0.02551544  1.0
  Ni  Ni45  1  0.15152000  0.17607938  0.08801544  1.0
  Ni  Ni46  1  0.15152000  0.50941271  0.08801544  1.0
  Ni  Ni47  1  0.15152000  0.84274604  0.08801544  1.0
  Ni  Ni48  1  0.48485333  0.17607938  0.08801544  1.0
  Ni  Ni49  1  0.48485333  0.50941271  0.08801544  1.0
  Ni  Ni50  1  0.48485333  0.84274604  0.08801544  1.0
  Ni  Ni51  1  0.81818667  0.17607938  0.08801544  1.0
  Ni  Ni52  1  0.81818667  0.50941271  0.08801544  1.0
  Ni  Ni53  1  0.81818667  0.84274604  0.08801544  1.0
  Ni  Ni54  1  0.09848000  0.17811154  0.00569819  1.0
  Ni  Ni55  1  0.09848000  0.51144488  0.00569819  1.0
  Ni  Ni56  1  0.09848000  0.84477821  0.00569819  1.0
  Ni  Ni57  1  0.43181333  0.17811154  0.00569819  1.0
  Ni  Ni58  1  0.43181333  0.51144488  0.00569819  1.0
  Ni  Ni59  1  0.43181333  0.84477821  0.00569819  1.0
  Ni  Ni60  1  0.76514667  0.17811154  0.00569819  1.0
  Ni  Ni61  1  0.76514667  0.51144488  0.00569819  1.0
  Ni  Ni62  1  0.76514667  0.84477821  0.00569819  1.0
  Ni  Ni63  1  0.26514667  0.30311154  0.06819819  1.0
  Ni  Ni64  1  0.26514667  0.63644487  0.06819819  1.0
  Ni  Ni65  1  0.26514667  0.96977821  0.06819819  1.0
  Ni  Ni66  1  0.59848000  0.30311154  0.06819819  1.0
  Ni  Ni67  1  0.59848000  0.63644487  0.06819819  1.0
  Ni  Ni68  1  0.59848000  0.96977821  0.06819819  1.0
  Ni  Ni69  1  0.93181333  0.30311154  0.06819819  1.0
  Ni  Ni70  1  0.93181333  0.63644487  0.06819819  1.0
  Ni  Ni71  1  0.93181333  0.96977821  0.06819819  1.0
  Ni  Ni72  1  0.23475633  0.11365212  0.05680181  1.0
  Ni  Ni73  1  0.23475633  0.44698546  0.05680181  1.0
  Ni  Ni74  1  0.23475633  0.78031879  0.05680181  1.0
  Ni  Ni75  1  0.56808967  0.11365212  0.05680181  1.0
  Ni  Ni76  1  0.56808967  0.44698546  0.05680181  1.0
  Ni  Ni77  1  0.56808967  0.78031879  0.05680181  1.0
  Ni  Ni78  1  0.90142300  0.11365212  0.05680181  1.0
  Ni  Ni79  1  0.90142300  0.44698546  0.05680181  1.0
  Ni  Ni80  1  0.90142300  0.78031879  0.05680181  1.0
  Ni  Ni81  1  0.06808967  0.23865213  0.11930181  1.0
  Ni  Ni82  1  0.06808967  0.57198546  0.11930181  1.0
  Ni  Ni83  1  0.06808967  0.90531879  0.11930181  1.0
  Ni  Ni84  1  0.40142300  0.23865213  0.11930181  1.0
  Ni  Ni85  1  0.40142300  0.57198546  0.11930181  1.0
  Ni  Ni86  1  0.40142300  0.90531879  0.11930181  1.0
  Ni  Ni87  1  0.73475633  0.23865213  0.11930181  1.0
  Ni  Ni88  1  0.73475633  0.57198546  0.11930181  1.0
  Ni  Ni89  1  0.73475633  0.90531879  0.11930181  1.0
  Ni  Ni90  1  0.01524367  0.24053879  0.03691181  1.0
  Ni  Ni91  1  0.01524367  0.57387212  0.03691181  1.0
  Ni  Ni92  1  0.01524367  0.90720546  0.03691181  1.0
  Ni  Ni93  1  0.34857700  0.24053879  0.03691181  1.0
  Ni  Ni94  1  0.34857700  0.57387212  0.03691181  1.0
  Ni  Ni95  1  0.34857700  0.90720546  0.03691181  1.0
  Ni  Ni96  1  0.68191033  0.24053879  0.03691181  1.0
  Ni  Ni97  1  0.68191033  0.57387212  0.03691181  1.0
  Ni  Ni98  1  0.68191033  0.90720546  0.03691181  1.0
  Ni  Ni99  1  0.18191033  0.03220546  0.09941181  1.0
  Ni  Ni100  1  0.18191033  0.36553879  0.09941181  1.0
  Ni  Ni101  1  0.18191033  0.69887212  0.09941181  1.0
  Ni  Ni102  1  0.51524367  0.03220546  0.09941181  1.0
  Ni  Ni103  1  0.51524367  0.36553879  0.09941181  1.0
  Ni  Ni104  1  0.51524367  0.69887212  0.09941181  1.0
  Ni  Ni105  1  0.84857700  0.03220546  0.09941181  1.0
  Ni  Ni106  1  0.84857700  0.36553879  0.09941181  1.0
  Ni  Ni107  1  0.84857700  0.69887212  0.09941181  1.0
  Ni  Ni108  1  0.05324350  0.24827808  0.20744813  1.0
  Ni  Ni109  1  0.05324350  0.58161142  0.20744813  1.0
  Ni  Ni110  1  0.05324350  0.91494475  0.20744813  1.0
  Ni  Ni111  1  0.38657683  0.24827808  0.20744813  1.0
  Ni  Ni112  1  0.38657683  0.58161142  0.20744813  1.0
  Ni  Ni113  1  0.38657683  0.91494475  0.20744813  1.0
  Ni  Ni114  1  0.71991017  0.24827808  0.20744813  1.0
  Ni  Ni115  1  0.71991017  0.58161142  0.20744813  1.0
  Ni  Ni116  1  0.71991017  0.91494475  0.20744813  1.0
  Ni  Ni117  1  0.21991017  0.12327808  0.14494812  1.0
  Ni  Ni118  1  0.21991017  0.45661142  0.14494812  1.0
  Ni  Ni119  1  0.21991017  0.78994475  0.14494812  1.0
  Ni  Ni120  1  0.55324350  0.12327808  0.14494812  1.0
  Ni  Ni121  1  0.55324350  0.45661142  0.14494812  1.0
  Ni  Ni122  1  0.55324350  0.78994475  0.14494812  1.0
  Ni  Ni123  1  0.88657683  0.12327808  0.14494812  1.0
  Ni  Ni124  1  0.88657683  0.45661142  0.14494812  1.0
  Ni  Ni125  1  0.88657683  0.78994475  0.14494812  1.0
  Ni  Ni126  1  0.03008983  0.06424617  0.19876550  1.0
  Ni  Ni127  1  0.03008983  0.39757950  0.19876550  1.0
  Ni  Ni128  1  0.03008983  0.73091283  0.19876550  1.0
  Ni  Ni129  1  0.36342317  0.06424617  0.19876550  1.0
  Ni  Ni130  1  0.36342317  0.39757950  0.19876550  1.0
  Ni  Ni131  1  0.36342317  0.73091283  0.19876550  1.0
  Ni  Ni132  1  0.69675650  0.06424617  0.19876550  1.0
  Ni  Ni133  1  0.69675650  0.39757950  0.19876550  1.0
  Ni  Ni134  1  0.69675650  0.73091283  0.19876550  1.0
  Ni  Ni135  1  0.19675650  0.27257950  0.13626550  1.0
  Ni  Ni136  1  0.19675650  0.60591283  0.13626550  1.0
  Ni  Ni137  1  0.19675650  0.93924617  0.13626550  1.0
  Ni  Ni138  1  0.53008983  0.27257950  0.13626550  1.0
  Ni  Ni139  1  0.53008983  0.60591283  0.13626550  1.0
  Ni  Ni140  1  0.53008983  0.93924617  0.13626550  1.0
  Ni  Ni141  1  0.86342317  0.27257950  0.13626550  1.0
  Ni  Ni142  1  0.86342317  0.60591283  0.13626550  1.0
  Ni  Ni143  1  0.86342317  0.93924617  0.13626550  1.0
  Ni  Ni144  1  0.31818667  0.30107937  0.15051544  1.0
  Ni  Ni145  1  0.31818667  0.63441271  0.15051544  1.0
  Ni  Ni146  1  0.31818667  0.96774604  0.15051544  1.0
  Ni  Ni147  1  0.65152000  0.30107937  0.15051544  1.0
  Ni  Ni148  1  0.65152000  0.63441271  0.15051544  1.0
  Ni  Ni149  1  0.65152000  0.96774604  0.15051544  1.0
  Ni  Ni150  1  0.98485333  0.30107937  0.15051544  1.0
  Ni  Ni151  1  0.98485333  0.63441271  0.15051544  1.0
  Ni  Ni152  1  0.98485333  0.96774604  0.15051544  1.0
  Ni  Ni153  1  0.15152000  0.09274604  0.21301544  1.0
  Ni  Ni154  1  0.15152000  0.42607937  0.21301544  1.0
  Ni  Ni155  1  0.15152000  0.75941271  0.21301544  1.0
  Ni  Ni156  1  0.48485333  0.09274604  0.21301544  1.0
  Ni  Ni157  1  0.48485333  0.42607937  0.21301544  1.0
  Ni  Ni158  1  0.48485333  0.75941271  0.21301544  1.0
  Ni  Ni159  1  0.81818667  0.09274604  0.21301544  1.0
  Ni  Ni160  1  0.81818667  0.42607937  0.21301544  1.0
  Ni  Ni161  1  0.81818667  0.75941271  0.21301544  1.0
  Ni  Ni162  1  0.09848000  0.09477821  0.13069819  1.0
  Ni  Ni163  1  0.09848000  0.42811154  0.13069819  1.0
  Ni  Ni164  1  0.09848000  0.76144488  0.13069819  1.0
  Ni  Ni165  1  0.43181333  0.09477821  0.13069819  1.0
  Ni  Ni166  1  0.43181333  0.42811154  0.13069819  1.0
  Ni  Ni167  1  0.43181333  0.76144488  0.13069819  1.0
  Ni  Ni168  1  0.76514667  0.09477821  0.13069819  1.0
  Ni  Ni169  1  0.76514667  0.42811154  0.13069819  1.0
  Ni  Ni170  1  0.76514667  0.76144488  0.13069819  1.0
  Ni  Ni171  1  0.26514667  0.21977821  0.19319819  1.0
  Ni  Ni172  1  0.26514667  0.55311154  0.19319819  1.0
  Ni  Ni173  1  0.26514667  0.88644487  0.19319819  1.0
  Ni  Ni174  1  0.59848000  0.21977821  0.19319819  1.0
  Ni  Ni175  1  0.59848000  0.55311154  0.19319819  1.0
  Ni  Ni176  1  0.59848000  0.88644487  0.19319819  1.0
  Ni  Ni177  1  0.93181333  0.21977821  0.19319819  1.0
  Ni  Ni178  1  0.93181333  0.55311154  0.19319819  1.0
  Ni  Ni179  1  0.93181333  0.88644487  0.19319819  1.0
  Ni  Ni180  1  0.23475633  0.03031879  0.18180181  1.0
  Ni  Ni181  1  0.23475633  0.36365212  0.18180181  1.0
  Ni  Ni182  1  0.23475633  0.69698546  0.18180181  1.0
  Ni  Ni183  1  0.56808967  0.03031879  0.18180181  1.0
  Ni  Ni184  1  0.56808967  0.36365212  0.18180181  1.0
  Ni  Ni185  1  0.56808967  0.69698546  0.18180181  1.0
  Ni  Ni186  1  0.90142300  0.03031879  0.18180181  1.0
  Ni  Ni187  1  0.90142300  0.36365212  0.18180181  1.0
  Ni  Ni188  1  0.90142300  0.69698546  0.18180181  1.0
  Ni  Ni189  1  0.06808967  0.15531879  0.24430181  1.0
  Ni  Ni190  1  0.06808967  0.48865212  0.24430181  1.0
  Ni  Ni191  1  0.06808967  0.82198546  0.24430181  1.0
  Ni  Ni192  1  0.40142300  0.15531879  0.24430181  1.0
  Ni  Ni193  1  0.40142300  0.48865212  0.24430181  1.0
  Ni  Ni194  1  0.40142300  0.82198546  0.24430181  1.0
  Ni  Ni195  1  0.73475633  0.15531879  0.24430181  1.0
  Ni  Ni196  1  0.73475633  0.48865212  0.24430181  1.0
  Ni  Ni197  1  0.73475633  0.82198546  0.24430181  1.0
  Ni  Ni198  1  0.01524367  0.15720546  0.16191181  1.0
  Ni  Ni199  1  0.01524367  0.49053879  0.16191181  1.0
  Ni  Ni200  1  0.01524367  0.82387212  0.16191181  1.0
  Ni  Ni201  1  0.34857700  0.15720546  0.16191181  1.0
  Ni  Ni202  1  0.34857700  0.49053879  0.16191181  1.0
  Ni  Ni203  1  0.34857700  0.82387212  0.16191181  1.0
  Ni  Ni204  1  0.68191033  0.15720546  0.16191181  1.0
  Ni  Ni205  1  0.68191033  0.49053879  0.16191181  1.0
  Ni  Ni206  1  0.68191033  0.82387212  0.16191181  1.0
  Ni  Ni207  1  0.18191033  0.28220546  0.22441181  1.0
  Ni  Ni208  1  0.18191033  0.61553879  0.22441181  1.0
  Ni  Ni209  1  0.18191033  0.94887212  0.22441181  1.0
  Ni  Ni210  1  0.51524367  0.28220546  0.22441181  1.0
  Ni  Ni211  1  0.51524367  0.61553879  0.22441181  1.0
  Ni  Ni212  1  0.51524367  0.94887212  0.22441181  1.0
  Ni  Ni213  1  0.84857700  0.28220546  0.22441181  1.0
  Ni  Ni214  1  0.84857700  0.61553879  0.22441181  1.0
  Ni  Ni215  1  0.84857700  0.94887212  0.22441181  1.0
  Ni  Ni216  1  0.05324350  0.16494475  0.33244813  1.0
  Ni  Ni217  1  0.05324350  0.49827808  0.33244813  1.0
  Ni  Ni218  1  0.05324350  0.83161142  0.33244813  1.0
  Ni  Ni219  1  0.38657683  0.16494475  0.33244813  1.0
  Ni  Ni220  1  0.38657683  0.49827808  0.33244813  1.0
  Ni  Ni221  1  0.38657683  0.83161142  0.33244813  1.0
  Ni  Ni222  1  0.71991017  0.16494475  0.33244812  1.0
  Ni  Ni223  1  0.71991017  0.49827808  0.33244812  1.0
  Ni  Ni224  1  0.71991017  0.83161142  0.33244812  1.0
  Ni  Ni225  1  0.21991017  0.03994475  0.26994812  1.0
  Ni  Ni226  1  0.21991017  0.37327808  0.26994812  1.0
  Ni  Ni227  1  0.21991017  0.70661142  0.26994812  1.0
  Ni  Ni228  1  0.55324350  0.03994475  0.26994812  1.0
  Ni  Ni229  1  0.55324350  0.37327808  0.26994812  1.0
  Ni  Ni230  1  0.55324350  0.70661142  0.26994812  1.0
  Ni  Ni231  1  0.88657683  0.03994475  0.26994812  1.0
  Ni  Ni232  1  0.88657683  0.37327808  0.26994813  1.0
  Ni  Ni233  1  0.88657683  0.70661142  0.26994812  1.0
  Ni  Ni234  1  0.03008983  0.31424617  0.32376550  1.0
  Ni  Ni235  1  0.03008983  0.64757950  0.32376550  1.0
  Ni  Ni236  1  0.03008983  0.98091283  0.32376550  1.0
  Ni  Ni237  1  0.36342317  0.31424617  0.32376550  1.0
  Ni  Ni238  1  0.36342317  0.64757950  0.32376550  1.0
  Ni  Ni239  1  0.36342317  0.98091283  0.32376550  1.0
  Ni  Ni240  1  0.69675650  0.31424617  0.32376550  1.0
  Ni  Ni241  1  0.69675650  0.64757950  0.32376550  1.0
  Ni  Ni242  1  0.69675650  0.98091283  0.32376550  1.0
  Ni  Ni243  1  0.19675650  0.18924617  0.26126550  1.0
  Ni  Ni244  1  0.19675650  0.52257950  0.26126550  1.0
  Ni  Ni245  1  0.19675650  0.85591283  0.26126550  1.0
  Ni  Ni246  1  0.53008983  0.18924617  0.26126550  1.0
  Ni  Ni247  1  0.53008983  0.52257950  0.26126550  1.0
  Ni  Ni248  1  0.53008983  0.85591283  0.26126550  1.0
  Ni  Ni249  1  0.86342317  0.18924617  0.26126550  1.0
  Ni  Ni250  1  0.86342317  0.52257950  0.26126550  1.0
  Ni  Ni251  1  0.86342317  0.85591283  0.26126550  1.0
  Ni  Ni252  1  0.31818667  0.21774604  0.27551544  1.0
  Ni  Ni253  1  0.31818667  0.55107937  0.27551544  1.0
  Ni  Ni254  1  0.31818667  0.88441271  0.27551544  1.0
  Ni  Ni255  1  0.65152000  0.21774604  0.27551544  1.0
  Ni  Ni256  1  0.65152000  0.55107937  0.27551544  1.0
  Ni  Ni257  1  0.65152000  0.88441271  0.27551544  1.0
  Ni  Ni258  1  0.98485333  0.21774604  0.27551544  1.0
  Ni  Ni259  1  0.98485333  0.55107937  0.27551544  1.0
  Ni  Ni260  1  0.98485333  0.88441271  0.27551544  1.0
  Ni  Ni261  1  0.15152000  0.00941271  0.33801544  1.0
  Ni  Ni262  1  0.15152000  0.34274604  0.33801544  1.0
  Ni  Ni263  1  0.15152000  0.67607938  0.33801544  1.0
  Ni  Ni264  1  0.48485333  0.00941271  0.33801544  1.0
  Ni  Ni265  1  0.48485333  0.34274604  0.33801544  1.0
  Ni  Ni266  1  0.48485333  0.67607938  0.33801544  1.0
  Ni  Ni267  1  0.81818667  0.00941271  0.33801544  1.0
  Ni  Ni268  1  0.81818667  0.34274604  0.33801544  1.0
  Ni  Ni269  1  0.81818667  0.67607938  0.33801544  1.0
  Ni  Ni270  1  0.09848000  0.01144488  0.25569819  1.0
  Ni  Ni271  1  0.09848000  0.34477821  0.25569819  1.0
  Ni  Ni272  1  0.09848000  0.67811154  0.25569819  1.0
  Ni  Ni273  1  0.43181333  0.01144488  0.25569819  1.0
  Ni  Ni274  1  0.43181333  0.34477821  0.25569819  1.0
  Ni  Ni275  1  0.43181333  0.67811154  0.25569819  1.0
  Ni  Ni276  1  0.76514667  0.01144488  0.25569819  1.0
  Ni  Ni277  1  0.76514667  0.34477821  0.25569819  1.0
  Ni  Ni278  1  0.76514667  0.67811154  0.25569819  1.0
  Ni  Ni279  1  0.26514667  0.13644488  0.31819819  1.0
  Ni  Ni280  1  0.26514667  0.46977821  0.31819819  1.0
  Ni  Ni281  1  0.26514667  0.80311154  0.31819819  1.0
  Ni  Ni282  1  0.59848000  0.13644488  0.31819819  1.0
  Ni  Ni283  1  0.59848000  0.46977821  0.31819819  1.0
  Ni  Ni284  1  0.59848000  0.80311154  0.31819819  1.0
  Ni  Ni285  1  0.93181333  0.13644488  0.31819819  1.0
  Ni  Ni286  1  0.93181333  0.46977821  0.31819819  1.0
  Ni  Ni287  1  0.93181333  0.80311154  0.31819819  1.0
  Ni  Ni288  1  0.23475633  0.28031879  0.30680181  1.0
  Ni  Ni289  1  0.23475633  0.61365212  0.30680181  1.0
  Ni  Ni290  1  0.23475633  0.94698546  0.30680181  1.0
  Ni  Ni291  1  0.56808967  0.28031879  0.30680181  1.0
  Ni  Ni292  1  0.56808967  0.61365212  0.30680181  1.0
  Ni  Ni293  1  0.56808967  0.94698546  0.30680181  1.0
  Ni  Ni294  1  0.90142300  0.28031879  0.30680181  1.0
  Ni  Ni295  1  0.90142300  0.61365212  0.30680181  1.0
  Ni  Ni296  1  0.90142300  0.94698546  0.30680181  1.0
  Ni  Ni297  1  0.06808967  0.07198546  0.36930181  1.0
  Ni  Ni298  1  0.06808967  0.40531879  0.36930181  1.0
  Ni  Ni299  1  0.06808967  0.73865212  0.36930181  1.0
  Ni  Ni300  1  0.40142300  0.07198546  0.36930181  1.0
  Ni  Ni301  1  0.40142300  0.40531879  0.36930181  1.0
  Ni  Ni302  1  0.40142300  0.73865212  0.36930181  1.0
  Ni  Ni303  1  0.73475633  0.07198546  0.36930181  1.0
  Ni  Ni304  1  0.73475633  0.40531879  0.36930181  1.0
  Ni  Ni305  1  0.73475633  0.73865212  0.36930181  1.0
  Ni  Ni306  1  0.01524367  0.07387213  0.28691181  1.0
  Ni  Ni307  1  0.01524367  0.40720546  0.28691181  1.0
  Ni  Ni308  1  0.01524367  0.74053879  0.28691181  1.0
  Ni  Ni309  1  0.34857700  0.07387213  0.28691181  1.0
  Ni  Ni310  1  0.34857700  0.40720546  0.28691181  1.0
  Ni  Ni311  1  0.34857700  0.74053879  0.28691181  1.0
  Ni  Ni312  1  0.68191033  0.07387213  0.28691181  1.0
  Ni  Ni313  1  0.68191033  0.40720546  0.28691181  1.0
  Ni  Ni314  1  0.68191033  0.74053879  0.28691181  1.0
  Ni  Ni315  1  0.18191033  0.19887213  0.34941181  1.0
  Ni  Ni316  1  0.18191033  0.53220546  0.34941181  1.0
  Ni  Ni317  1  0.18191033  0.86553879  0.34941181  1.0
  Ni  Ni318  1  0.51524367  0.19887213  0.34941181  1.0
  Ni  Ni319  1  0.51524367  0.53220546  0.34941181  1.0
  Ni  Ni320  1  0.51524367  0.86553879  0.34941181  1.0
  Ni  Ni321  1  0.84857700  0.19887213  0.34941181  1.0
  Ni  Ni322  1  0.84857700  0.53220546  0.34941181  1.0
  Ni  Ni323  1  0.84857700  0.86553879  0.34941181  1.0
  Ta  Ta324  1  0.10850283  0.08138925  0.04067038  1.0
  Ta  Ta325  1  0.10850283  0.41472258  0.04067038  1.0
  Ta  Ta326  1  0.10850283  0.74805592  0.04067038  1.0
  Ta  Ta327  1  0.44183617  0.08138925  0.04067038  1.0
  Ta  Ta328  1  0.44183617  0.41472258  0.04067038  1.0
  Ta  Ta329  1  0.44183617  0.74805592  0.04067038  1.0
  Ta  Ta330  1  0.77516950  0.08138925  0.04067038  1.0
  Ta  Ta331  1  0.77516950  0.41472258  0.04067037  1.0
  Ta  Ta332  1  0.77516950  0.74805592  0.04067038  1.0
  Ta  Ta333  1  0.27516950  0.20638925  0.10317037  1.0
  Ta  Ta334  1  0.27516950  0.53972258  0.10317037  1.0
  Ta  Ta335  1  0.27516950  0.87305592  0.10317037  1.0
  Ta  Ta336  1  0.60850283  0.20638925  0.10317037  1.0
  Ta  Ta337  1  0.60850283  0.53972258  0.10317037  1.0
  Ta  Ta338  1  0.60850283  0.87305592  0.10317037  1.0
  Ta  Ta339  1  0.94183617  0.20638925  0.10317037  1.0
  Ta  Ta340  1  0.94183617  0.53972258  0.10317037  1.0
  Ta  Ta341  1  0.94183617  0.87305592  0.10317037  1.0
  Ta  Ta342  1  0.30816383  0.06446833  0.11554325  1.0
  Ta  Ta343  1  0.30816383  0.39780167  0.11554325  1.0
  Ta  Ta344  1  0.30816383  0.73113500  0.11554325  1.0
  Ta  Ta345  1  0.64149717  0.06446833  0.11554325  1.0
  Ta  Ta346  1  0.64149717  0.39780167  0.11554325  1.0
  Ta  Ta347  1  0.64149717  0.73113500  0.11554325  1.0
  Ta  Ta348  1  0.97483050  0.06446833  0.11554325  1.0
  Ta  Ta349  1  0.97483050  0.39780167  0.11554325  1.0
  Ta  Ta350  1  0.97483050  0.73113500  0.11554325  1.0
  Ta  Ta351  1  0.14149717  0.27280167  0.05304325  1.0
  Ta  Ta352  1  0.14149717  0.60613500  0.05304325  1.0
  Ta  Ta353  1  0.14149717  0.93946833  0.05304325  1.0
  Ta  Ta354  1  0.47483050  0.27280167  0.05304325  1.0
  Ta  Ta355  1  0.47483050  0.60613500  0.05304325  1.0
  Ta  Ta356  1  0.47483050  0.93946833  0.05304325  1.0
  Ta  Ta357  1  0.80816383  0.27280167  0.05304325  1.0
  Ta  Ta358  1  0.80816383  0.60613500  0.05304325  1.0
  Ta  Ta359  1  0.80816383  0.93946833  0.05304325  1.0
  Ta  Ta360  1  0.10850283  0.33138925  0.16567037  1.0
  Ta  Ta361  1  0.10850283  0.66472258  0.16567037  1.0
  Ta  Ta362  1  0.10850283  0.99805592  0.16567038  1.0
  Ta  Ta363  1  0.44183617  0.33138925  0.16567037  1.0
  Ta  Ta364  1  0.44183617  0.66472258  0.16567037  1.0
  Ta  Ta365  1  0.44183617  0.99805592  0.16567037  1.0
  Ta  Ta366  1  0.77516950  0.33138925  0.16567038  1.0
  Ta  Ta367  1  0.77516950  0.66472258  0.16567037  1.0
  Ta  Ta368  1  0.77516950  0.99805592  0.16567037  1.0
  Ta  Ta369  1  0.27516950  0.12305592  0.22817038  1.0
  Ta  Ta370  1  0.27516950  0.45638925  0.22817038  1.0
  Ta  Ta371  1  0.27516950  0.78972258  0.22817038  1.0
  Ta  Ta372  1  0.60850283  0.12305592  0.22817037  1.0
  Ta  Ta373  1  0.60850283  0.45638925  0.22817037  1.0
  Ta  Ta374  1  0.60850283  0.78972258  0.22817037  1.0
  Ta  Ta375  1  0.94183617  0.12305592  0.22817038  1.0
  Ta  Ta376  1  0.94183617  0.45638925  0.22817038  1.0
  Ta  Ta377  1  0.94183617  0.78972258  0.22817038  1.0
  Ta  Ta378  1  0.30816383  0.31446833  0.24054325  1.0
  Ta  Ta379  1  0.30816383  0.64780167  0.24054325  1.0
  Ta  Ta380  1  0.30816383  0.98113500  0.24054325  1.0
  Ta  Ta381  1  0.64149717  0.31446833  0.24054325  1.0
  Ta  Ta382  1  0.64149717  0.64780167  0.24054325  1.0
  Ta  Ta383  1  0.64149717  0.98113500  0.24054325  1.0
  Ta  Ta384  1  0.97483050  0.31446833  0.24054325  1.0
  Ta  Ta385  1  0.97483050  0.64780167  0.24054325  1.0
  Ta  Ta386  1  0.97483050  0.98113500  0.24054325  1.0
  Ta  Ta387  1  0.14149717  0.18946833  0.17804325  1.0
  Ta  Ta388  1  0.14149717  0.52280167  0.17804325  1.0
  Ta  Ta389  1  0.14149717  0.85613500  0.17804325  1.0
  Ta  Ta390  1  0.47483050  0.18946833  0.17804325  1.0
  Ta  Ta391  1  0.47483050  0.52280167  0.17804325  1.0
  Ta  Ta392  1  0.47483050  0.85613500  0.17804325  1.0
  Ta  Ta393  1  0.80816383  0.18946833  0.17804325  1.0
  Ta  Ta394  1  0.80816383  0.52280167  0.17804325  1.0
  Ta  Ta395  1  0.80816383  0.85613500  0.17804325  1.0
  Ta  Ta396  1  0.10850283  0.24805592  0.29067038  1.0
  Ta  Ta397  1  0.10850283  0.58138925  0.29067038  1.0
  Ta  Ta398  1  0.10850283  0.91472258  0.29067038  1.0
  Ta  Ta399  1  0.44183617  0.24805592  0.29067038  1.0
  Ta  Ta400  1  0.44183617  0.58138925  0.29067038  1.0
  Ta  Ta401  1  0.44183617  0.91472258  0.29067038  1.0
  Ta  Ta402  1  0.77516950  0.24805592  0.29067038  1.0
  Ta  Ta403  1  0.77516950  0.58138925  0.29067038  1.0
  Ta  Ta404  1  0.77516950  0.91472258  0.29067038  1.0
  Ta  Ta405  1  0.27516950  0.03972258  0.35317037  1.0
  Ta  Ta406  1  0.27516950  0.37305592  0.35317037  1.0
  Ta  Ta407  1  0.27516950  0.70638925  0.35317037  1.0
  Ta  Ta408  1  0.60850283  0.03972258  0.35317037  1.0
  Ta  Ta409  1  0.60850283  0.37305592  0.35317037  1.0
  Ta  Ta410  1  0.60850283  0.70638925  0.35317037  1.0
  Ta  Ta411  1  0.94183617  0.03972258  0.35317037  1.0
  Ta  Ta412  1  0.94183617  0.37305592  0.35317037  1.0
  Ta  Ta413  1  0.94183617  0.70638925  0.35317037  1.0
  Ta  Ta414  1  0.30816383  0.23113500  0.36554325  1.0
  Ta  Ta415  1  0.30816383  0.56446833  0.36554325  1.0
  Ta  Ta416  1  0.30816383  0.89780167  0.36554325  1.0
  Ta  Ta417  1  0.64149717  0.23113500  0.36554325  1.0
  Ta  Ta418  1  0.64149717  0.56446833  0.36554325  1.0
  Ta  Ta419  1  0.64149717  0.89780167  0.36554325  1.0
  Ta  Ta420  1  0.97483050  0.23113500  0.36554325  1.0
  Ta  Ta421  1  0.97483050  0.56446833  0.36554325  1.0
  Ta  Ta422  1  0.97483050  0.89780167  0.36554325  1.0
  Ta  Ta423  1  0.14149717  0.10613500  0.30304325  1.0
  Ta  Ta424  1  0.14149717  0.43946833  0.30304325  1.0
  Ta  Ta425  1  0.14149717  0.77280167  0.30304325  1.0
  Ta  Ta426  1  0.47483050  0.10613500  0.30304325  1.0
  Ta  Ta427  1  0.47483050  0.43946833  0.30304325  1.0
  Ta  Ta428  1  0.47483050  0.77280167  0.30304325  1.0
  Ta  Ta429  1  0.80816383  0.10613500  0.30304325  1.0
  Ta  Ta430  1  0.80816383  0.43946833  0.30304325  1.0
  Ta  Ta431  1  0.80816383  0.77280167  0.30304325  1.0
