# generated using pymatgen
data_TaNi3
_symmetry_space_group_name_H-M   'P 1'
_cell_length_a   18.65451090
_cell_length_b   33.19210201
_cell_length_c   42.46301000
_cell_angle_alpha   112.56884097
_cell_angle_beta   133.06957338
_cell_angle_gamma   74.80606804
_symmetry_Int_Tables_number   1
_chemical_formula_structural   TaNi3
_chemical_formula_sum   'Ta144 Ni432'
_cell_volume   17736.31263473
_cell_formula_units_Z   144
loop_
 _symmetry_equiv_pos_site_id
 _symmetry_equiv_pos_as_xyz
  1  'x, y, z'
loop_
 _atom_site_type_symbol
 _atom_site_label
 _atom_site_symmetry_multiplicity
 _atom_site_fract_x
 _atom_site_fract_y
 _atom_site_fract_z
 _atom_site_occupancy
  Ta  Ta0  1  0.21700567  0.00000000  0.06508715  1.0
  Ta  Ta1  1  0.21700567  0.33333333  0.06508715  1.0
  Ta  Ta2  1  0.21700567  0.66666667  0.06508715  1.0
  Ta  Ta3  1  0.55033900  0.00000000  0.06508715  1.0
  Ta  Ta4  1  0.55033900  0.33333333  0.06508715  1.0
  Ta  Ta5  1  0.55033900  0.66666667  0.06508715  1.0
  Ta  Ta6  1  0.88367233  0.00000000  0.06508715  1.0
  Ta  Ta7  1  0.88367233  0.33333333  0.06508715  1.0
  Ta  Ta8  1  0.88367233  0.66666667  0.06508715  1.0
  Ta  Ta9  1  0.21700567  0.16666667  0.01508715  1.0
  Ta  Ta10  1  0.21700567  0.50000000  0.01508715  1.0
  Ta  Ta11  1  0.21700567  0.83333333  0.01508715  1.0
  Ta  Ta12  1  0.55033900  0.16666667  0.01508715  1.0
  Ta  Ta13  1  0.55033900  0.50000000  0.01508715  1.0
  Ta  Ta14  1  0.55033900  0.83333333  0.01508715  1.0
  Ta  Ta15  1  0.88367233  0.16666667  0.01508715  1.0
  Ta  Ta16  1  0.88367233  0.50000000  0.01508715  1.0
  Ta  Ta17  1  0.88367233  0.83333333  0.01508715  1.0
  Ta  Ta18  1  0.11632767  0.08333333  0.00988375  1.0
  Ta  Ta19  1  0.11632767  0.41666667  0.00988375  1.0
  Ta  Ta20  1  0.11632767  0.75000000  0.00988375  1.0
  Ta  Ta21  1  0.44966100  0.08333333  0.00988375  1.0
  Ta  Ta22  1  0.44966100  0.41666667  0.00988375  1.0
  Ta  Ta23  1  0.44966100  0.75000000  0.00988375  1.0
  Ta  Ta24  1  0.78299433  0.08333333  0.00988375  1.0
  Ta  Ta25  1  0.78299433  0.41666667  0.00988375  1.0
  Ta  Ta26  1  0.78299433  0.75000000  0.00988375  1.0
  Ta  Ta27  1  0.11632767  0.25000000  0.05988375  1.0
  Ta  Ta28  1  0.11632767  0.58333333  0.05988375  1.0
  Ta  Ta29  1  0.11632767  0.91666667  0.05988375  1.0
  Ta  Ta30  1  0.44966100  0.25000000  0.05988375  1.0
  Ta  Ta31  1  0.44966100  0.58333333  0.05988375  1.0
  Ta  Ta32  1  0.44966100  0.91666667  0.05988375  1.0
  Ta  Ta33  1  0.78299433  0.25000000  0.05988375  1.0
  Ta  Ta34  1  0.78299433  0.58333333  0.05988375  1.0
  Ta  Ta35  1  0.78299433  0.91666667  0.05988375  1.0
  Ni  Ni36  1  0.10648700  0.00000000  0.08193155  1.0
  Ni  Ni37  1  0.10648700  0.33333333  0.08193155  1.0
  Ni  Ni38  1  0.10648700  0.66666667  0.08193155  1.0
  Ni  Ni39  1  0.43982033  0.00000000  0.08193155  1.0
  Ni  Ni40  1  0.43982033  0.33333333  0.08193155  1.0
  Ni  Ni41  1  0.43982033  0.66666667  0.08193155  1.0
  Ni  Ni42  1  0.77315367  0.00000000  0.08193155  1.0
  Ni  Ni43  1  0.77315367  0.33333333  0.08193155  1.0
  Ni  Ni44  1  0.77315367  0.66666667  0.08193155  1.0
  Ni  Ni45  1  0.10648700  0.16666667  0.03193155  1.0
  Ni  Ni46  1  0.10648700  0.50000000  0.03193155  1.0
  Ni  Ni47  1  0.10648700  0.83333333  0.03193155  1.0
  Ni  Ni48  1  0.43982033  0.16666667  0.03193155  1.0
  Ni  Ni49  1  0.43982033  0.50000000  0.03193155  1.0
  Ni  Ni50  1  0.43982033  0.83333333  0.03193155  1.0
  Ni  Ni51  1  0.77315367  0.16666667  0.03193155  1.0
  Ni  Ni52  1  0.77315367  0.50000000  0.03193155  1.0
  Ni  Ni53  1  0.77315367  0.83333333  0.03193155  1.0
  Ni  Ni54  1  0.22684633  0.08333333  0.09303935  1.0
  Ni  Ni55  1  0.22684633  0.41666667  0.09303935  1.0
  Ni  Ni56  1  0.22684633  0.75000000  0.09303935  1.0
  Ni  Ni57  1  0.56017967  0.08333333  0.09303935  1.0
  Ni  Ni58  1  0.56017967  0.41666667  0.09303935  1.0
  Ni  Ni59  1  0.56017967  0.75000000  0.09303935  1.0
  Ni  Ni60  1  0.89351300  0.08333333  0.09303935  1.0
  Ni  Ni61  1  0.89351300  0.41666667  0.09303935  1.0
  Ni  Ni62  1  0.89351300  0.75000000  0.09303935  1.0
  Ni  Ni63  1  0.22684633  0.25000000  0.04303935  1.0
  Ni  Ni64  1  0.22684633  0.58333333  0.04303935  1.0
  Ni  Ni65  1  0.22684633  0.91666667  0.04303935  1.0
  Ni  Ni66  1  0.56017967  0.25000000  0.04303935  1.0
  Ni  Ni67  1  0.56017967  0.58333333  0.04303935  1.0
  Ni  Ni68  1  0.56017967  0.91666667  0.04303935  1.0
  Ni  Ni69  1  0.89351300  0.25000000  0.04303935  1.0
  Ni  Ni70  1  0.89351300  0.58333333  0.04303935  1.0
  Ni  Ni71  1  0.89351300  0.91666667  0.04303935  1.0
  Ni  Ni72  1  0.05294300  0.04161817  0.02835380  1.0
  Ni  Ni73  1  0.05294300  0.37495150  0.02835380  1.0
  Ni  Ni74  1  0.05294300  0.70828483  0.02835380  1.0
  Ni  Ni75  1  0.38627633  0.04161817  0.02835380  1.0
  Ni  Ni76  1  0.38627633  0.37495150  0.02835380  1.0
  Ni  Ni77  1  0.38627633  0.70828483  0.02835380  1.0
  Ni  Ni78  1  0.71960967  0.04161817  0.02835380  1.0
  Ni  Ni79  1  0.71960967  0.37495150  0.02835380  1.0
  Ni  Ni80  1  0.71960967  0.70828483  0.02835380  1.0
  Ni  Ni81  1  0.05294300  0.20828483  0.07835380  1.0
  Ni  Ni82  1  0.05294300  0.54161817  0.07835380  1.0
  Ni  Ni83  1  0.05294300  0.87495150  0.07835380  1.0
  Ni  Ni84  1  0.38627633  0.20828483  0.07835380  1.0
  Ni  Ni85  1  0.38627633  0.54161817  0.07835380  1.0
  Ni  Ni86  1  0.38627633  0.87495150  0.07835380  1.0
  Ni  Ni87  1  0.71960967  0.20828483  0.07835380  1.0
  Ni  Ni88  1  0.71960967  0.54161817  0.07835380  1.0
  Ni  Ni89  1  0.71960967  0.87495150  0.07835380  1.0
  Ni  Ni90  1  0.28039033  0.04171517  0.04661710  1.0
  Ni  Ni91  1  0.28039033  0.37504850  0.04661710  1.0
  Ni  Ni92  1  0.28039033  0.70838183  0.04661710  1.0
  Ni  Ni93  1  0.61372367  0.04171517  0.04661710  1.0
  Ni  Ni94  1  0.61372367  0.37504850  0.04661710  1.0
  Ni  Ni95  1  0.61372367  0.70838183  0.04661710  1.0
  Ni  Ni96  1  0.94705700  0.04171517  0.04661710  1.0
  Ni  Ni97  1  0.94705700  0.37504850  0.04661710  1.0
  Ni  Ni98  1  0.94705700  0.70838183  0.04661710  1.0
  Ni  Ni99  1  0.28039033  0.20838183  0.09661710  1.0
  Ni  Ni100  1  0.28039033  0.54171517  0.09661710  1.0
  Ni  Ni101  1  0.28039033  0.87504850  0.09661710  1.0
  Ni  Ni102  1  0.61372367  0.20838183  0.09661710  1.0
  Ni  Ni103  1  0.61372367  0.54171517  0.09661710  1.0
  Ni  Ni104  1  0.61372367  0.87504850  0.09661710  1.0
  Ni  Ni105  1  0.94705700  0.20838183  0.09661710  1.0
  Ni  Ni106  1  0.94705700  0.54171517  0.09661710  1.0
  Ni  Ni107  1  0.94705700  0.87504850  0.09661710  1.0
  Ni  Ni108  1  0.05294300  0.12504850  0.05338290  1.0
  Ni  Ni109  1  0.05294300  0.45838183  0.05338290  1.0
  Ni  Ni110  1  0.05294300  0.79171517  0.05338290  1.0
  Ni  Ni111  1  0.38627633  0.12504850  0.05338290  1.0
  Ni  Ni112  1  0.38627633  0.45838183  0.05338290  1.0
  Ni  Ni113  1  0.38627633  0.79171517  0.05338290  1.0
  Ni  Ni114  1  0.71960967  0.12504850  0.05338290  1.0
  Ni  Ni115  1  0.71960967  0.45838183  0.05338290  1.0
  Ni  Ni116  1  0.71960967  0.79171517  0.05338290  1.0
  Ni  Ni117  1  0.05294300  0.29171517  0.00338290  1.0
  Ni  Ni118  1  0.05294300  0.62504850  0.00338290  1.0
  Ni  Ni119  1  0.05294300  0.95838183  0.00338290  1.0
  Ni  Ni120  1  0.38627633  0.29171517  0.00338290  1.0
  Ni  Ni121  1  0.38627633  0.62504850  0.00338290  1.0
  Ni  Ni122  1  0.38627633  0.95838183  0.00338290  1.0
  Ni  Ni123  1  0.71960967  0.29171517  0.00338290  1.0
  Ni  Ni124  1  0.71960967  0.62504850  0.00338290  1.0
  Ni  Ni125  1  0.71960967  0.95838183  0.00338290  1.0
  Ni  Ni126  1  0.28039033  0.12495150  0.07158800  1.0
  Ni  Ni127  1  0.28039033  0.45828483  0.07158800  1.0
  Ni  Ni128  1  0.28039033  0.79161817  0.07158800  1.0
  Ni  Ni129  1  0.61372367  0.12495150  0.07158800  1.0
  Ni  Ni130  1  0.61372367  0.45828483  0.07158800  1.0
  Ni  Ni131  1  0.61372367  0.79161817  0.07158800  1.0
  Ni  Ni132  1  0.94705700  0.12495150  0.07158800  1.0
  Ni  Ni133  1  0.94705700  0.45828483  0.07158800  1.0
  Ni  Ni134  1  0.94705700  0.79161817  0.07158800  1.0
  Ni  Ni135  1  0.28039033  0.29161817  0.02158800  1.0
  Ni  Ni136  1  0.28039033  0.62495150  0.02158800  1.0
  Ni  Ni137  1  0.28039033  0.95828483  0.02158800  1.0
  Ni  Ni138  1  0.61372367  0.29161817  0.02158800  1.0
  Ni  Ni139  1  0.61372367  0.62495150  0.02158800  1.0
  Ni  Ni140  1  0.61372367  0.95828483  0.02158800  1.0
  Ni  Ni141  1  0.94705700  0.29161817  0.02158800  1.0
  Ni  Ni142  1  0.94705700  0.62495150  0.02158800  1.0
  Ni  Ni143  1  0.94705700  0.95828483  0.02158800  1.0
  Ta  Ta144  1  0.21700567  0.00000000  0.16508715  1.0
  Ta  Ta145  1  0.21700567  0.33333333  0.16508715  1.0
  Ta  Ta146  1  0.21700567  0.66666667  0.16508715  1.0
  Ta  Ta147  1  0.55033900  0.00000000  0.16508715  1.0
  Ta  Ta148  1  0.55033900  0.33333333  0.16508715  1.0
  Ta  Ta149  1  0.55033900  0.66666667  0.16508715  1.0
  Ta  Ta150  1  0.88367233  0.00000000  0.16508715  1.0
  Ta  Ta151  1  0.88367233  0.33333333  0.16508715  1.0
  Ta  Ta152  1  0.88367233  0.66666667  0.16508715  1.0
  Ta  Ta153  1  0.21700567  0.16666667  0.11508715  1.0
  Ta  Ta154  1  0.21700567  0.50000000  0.11508715  1.0
  Ta  Ta155  1  0.21700567  0.83333333  0.11508715  1.0
  Ta  Ta156  1  0.55033900  0.16666667  0.11508715  1.0
  Ta  Ta157  1  0.55033900  0.50000000  0.11508715  1.0
  Ta  Ta158  1  0.55033900  0.83333333  0.11508715  1.0
  Ta  Ta159  1  0.88367233  0.16666667  0.11508715  1.0
  Ta  Ta160  1  0.88367233  0.50000000  0.11508715  1.0
  Ta  Ta161  1  0.88367233  0.83333333  0.11508715  1.0
  Ta  Ta162  1  0.11632767  0.08333333  0.10988375  1.0
  Ta  Ta163  1  0.11632767  0.41666667  0.10988375  1.0
  Ta  Ta164  1  0.11632767  0.75000000  0.10988375  1.0
  Ta  Ta165  1  0.44966100  0.08333333  0.10988375  1.0
  Ta  Ta166  1  0.44966100  0.41666667  0.10988375  1.0
  Ta  Ta167  1  0.44966100  0.75000000  0.10988375  1.0
  Ta  Ta168  1  0.78299433  0.08333333  0.10988375  1.0
  Ta  Ta169  1  0.78299433  0.41666667  0.10988375  1.0
  Ta  Ta170  1  0.78299433  0.75000000  0.10988375  1.0
  Ta  Ta171  1  0.11632767  0.25000000  0.15988375  1.0
  Ta  Ta172  1  0.11632767  0.58333333  0.15988375  1.0
  Ta  Ta173  1  0.11632767  0.91666667  0.15988375  1.0
  Ta  Ta174  1  0.44966100  0.25000000  0.15988375  1.0
  Ta  Ta175  1  0.44966100  0.58333333  0.15988375  1.0
  Ta  Ta176  1  0.44966100  0.91666667  0.15988375  1.0
  Ta  Ta177  1  0.78299433  0.25000000  0.15988375  1.0
  Ta  Ta178  1  0.78299433  0.58333333  0.15988375  1.0
  Ta  Ta179  1  0.78299433  0.91666667  0.15988375  1.0
  Ni  Ni180  1  0.10648700  0.00000000  0.18193155  1.0
  Ni  Ni181  1  0.10648700  0.33333333  0.18193155  1.0
  Ni  Ni182  1  0.10648700  0.66666667  0.18193155  1.0
  Ni  Ni183  1  0.43982033  0.00000000  0.18193155  1.0
  Ni  Ni184  1  0.43982033  0.33333333  0.18193155  1.0
  Ni  Ni185  1  0.43982033  0.66666667  0.18193155  1.0
  Ni  Ni186  1  0.77315367  0.00000000  0.18193155  1.0
  Ni  Ni187  1  0.77315367  0.33333333  0.18193155  1.0
  Ni  Ni188  1  0.77315367  0.66666667  0.18193155  1.0
  Ni  Ni189  1  0.10648700  0.16666667  0.13193155  1.0
  Ni  Ni190  1  0.10648700  0.50000000  0.13193155  1.0
  Ni  Ni191  1  0.10648700  0.83333333  0.13193155  1.0
  Ni  Ni192  1  0.43982033  0.16666667  0.13193155  1.0
  Ni  Ni193  1  0.43982033  0.50000000  0.13193155  1.0
  Ni  Ni194  1  0.43982033  0.83333333  0.13193155  1.0
  Ni  Ni195  1  0.77315367  0.16666667  0.13193155  1.0
  Ni  Ni196  1  0.77315367  0.50000000  0.13193155  1.0
  Ni  Ni197  1  0.77315367  0.83333333  0.13193155  1.0
  Ni  Ni198  1  0.22684633  0.08333333  0.19303935  1.0
  Ni  Ni199  1  0.22684633  0.41666667  0.19303935  1.0
  Ni  Ni200  1  0.22684633  0.75000000  0.19303935  1.0
  Ni  Ni201  1  0.56017967  0.08333333  0.19303935  1.0
  Ni  Ni202  1  0.56017967  0.41666667  0.19303935  1.0
  Ni  Ni203  1  0.56017967  0.75000000  0.19303935  1.0
  Ni  Ni204  1  0.89351300  0.08333333  0.19303935  1.0
  Ni  Ni205  1  0.89351300  0.41666667  0.19303935  1.0
  Ni  Ni206  1  0.89351300  0.75000000  0.19303935  1.0
  Ni  Ni207  1  0.22684633  0.25000000  0.14303935  1.0
  Ni  Ni208  1  0.22684633  0.58333333  0.14303935  1.0
  Ni  Ni209  1  0.22684633  0.91666667  0.14303935  1.0
  Ni  Ni210  1  0.56017967  0.25000000  0.14303935  1.0
  Ni  Ni211  1  0.56017967  0.58333333  0.14303935  1.0
  Ni  Ni212  1  0.56017967  0.91666667  0.14303935  1.0
  Ni  Ni213  1  0.89351300  0.25000000  0.14303935  1.0
  Ni  Ni214  1  0.89351300  0.58333333  0.14303935  1.0
  Ni  Ni215  1  0.89351300  0.91666667  0.14303935  1.0
  Ni  Ni216  1  0.05294300  0.04161817  0.12835380  1.0
  Ni  Ni217  1  0.05294300  0.37495150  0.12835380  1.0
  Ni  Ni218  1  0.05294300  0.70828483  0.12835380  1.0
  Ni  Ni219  1  0.38627633  0.04161817  0.12835380  1.0
  Ni  Ni220  1  0.38627633  0.37495150  0.12835380  1.0
  Ni  Ni221  1  0.38627633  0.70828483  0.12835380  1.0
  Ni  Ni222  1  0.71960967  0.04161817  0.12835380  1.0
  Ni  Ni223  1  0.71960967  0.37495150  0.12835380  1.0
  Ni  Ni224  1  0.71960967  0.70828483  0.12835380  1.0
  Ni  Ni225  1  0.05294300  0.20828483  0.17835380  1.0
  Ni  Ni226  1  0.05294300  0.54161817  0.17835380  1.0
  Ni  Ni227  1  0.05294300  0.87495150  0.17835380  1.0
  Ni  Ni228  1  0.38627633  0.20828483  0.17835380  1.0
  Ni  Ni229  1  0.38627633  0.54161817  0.17835380  1.0
  Ni  Ni230  1  0.38627633  0.87495150  0.17835380  1.0
  Ni  Ni231  1  0.71960967  0.20828483  0.17835380  1.0
  Ni  Ni232  1  0.71960967  0.54161817  0.17835380  1.0
  Ni  Ni233  1  0.71960967  0.87495150  0.17835380  1.0
  Ni  Ni234  1  0.28039033  0.04171517  0.14661710  1.0
  Ni  Ni235  1  0.28039033  0.37504850  0.14661710  1.0
  Ni  Ni236  1  0.28039033  0.70838183  0.14661710  1.0
  Ni  Ni237  1  0.61372367  0.04171517  0.14661710  1.0
  Ni  Ni238  1  0.61372367  0.37504850  0.14661710  1.0
  Ni  Ni239  1  0.61372367  0.70838183  0.14661710  1.0
  Ni  Ni240  1  0.94705700  0.04171517  0.14661710  1.0
  Ni  Ni241  1  0.94705700  0.37504850  0.14661710  1.0
  Ni  Ni242  1  0.94705700  0.70838183  0.14661710  1.0
  Ni  Ni243  1  0.28039033  0.20838183  0.19661710  1.0
  Ni  Ni244  1  0.28039033  0.54171517  0.19661710  1.0
  Ni  Ni245  1  0.28039033  0.87504850  0.19661710  1.0
  Ni  Ni246  1  0.61372367  0.20838183  0.19661710  1.0
  Ni  Ni247  1  0.61372367  0.54171517  0.19661710  1.0
  Ni  Ni248  1  0.61372367  0.87504850  0.19661710  1.0
  Ni  Ni249  1  0.94705700  0.20838183  0.19661710  1.0
  Ni  Ni250  1  0.94705700  0.54171517  0.19661710  1.0
  Ni  Ni251  1  0.94705700  0.87504850  0.19661710  1.0
  Ni  Ni252  1  0.05294300  0.12504850  0.15338290  1.0
  Ni  Ni253  1  0.05294300  0.45838183  0.15338290  1.0
  Ni  Ni254  1  0.05294300  0.79171517  0.15338290  1.0
  Ni  Ni255  1  0.38627633  0.12504850  0.15338290  1.0
  Ni  Ni256  1  0.38627633  0.45838183  0.15338290  1.0
  Ni  Ni257  1  0.38627633  0.79171517  0.15338290  1.0
  Ni  Ni258  1  0.71960967  0.12504850  0.15338290  1.0
  Ni  Ni259  1  0.71960967  0.45838183  0.15338290  1.0
  Ni  Ni260  1  0.71960967  0.79171517  0.15338290  1.0
  Ni  Ni261  1  0.05294300  0.29171517  0.10338290  1.0
  Ni  Ni262  1  0.05294300  0.62504850  0.10338290  1.0
  Ni  Ni263  1  0.05294300  0.95838183  0.10338290  1.0
  Ni  Ni264  1  0.38627633  0.29171517  0.10338290  1.0
  Ni  Ni265  1  0.38627633  0.62504850  0.10338290  1.0
  Ni  Ni266  1  0.38627633  0.95838183  0.10338290  1.0
  Ni  Ni267  1  0.71960967  0.29171517  0.10338290  1.0
  Ni  Ni268  1  0.71960967  0.62504850  0.10338290  1.0
  Ni  Ni269  1  0.71960967  0.95838183  0.10338290  1.0
  Ni  Ni270  1  0.28039033  0.12495150  0.17158800  1.0
  Ni  Ni271  1  0.28039033  0.45828483  0.17158800  1.0
  Ni  Ni272  1  0.28039033  0.79161817  0.17158800  1.0
  Ni  Ni273  1  0.61372367  0.12495150  0.17158800  1.0
  Ni  Ni274  1  0.61372367  0.45828483  0.17158800  1.0
  Ni  Ni275  1  0.61372367  0.79161817  0.17158800  1.0
  Ni  Ni276  1  0.94705700  0.12495150  0.17158800  1.0
  Ni  Ni277  1  0.94705700  0.45828483  0.17158800  1.0
  Ni  Ni278  1  0.94705700  0.79161817  0.17158800  1.0
  Ni  Ni279  1  0.28039033  0.29161817  0.12158800  1.0
  Ni  Ni280  1  0.28039033  0.62495150  0.12158800  1.0
  Ni  Ni281  1  0.28039033  0.95828483  0.12158800  1.0
  Ni  Ni282  1  0.61372367  0.29161817  0.12158800  1.0
  Ni  Ni283  1  0.61372367  0.62495150  0.12158800  1.0
  Ni  Ni284  1  0.61372367  0.95828483  0.12158800  1.0
  Ni  Ni285  1  0.94705700  0.29161817  0.12158800  1.0
  Ni  Ni286  1  0.94705700  0.62495150  0.12158800  1.0
  Ni  Ni287  1  0.94705700  0.95828483  0.12158800  1.0
  Ta  Ta288  1  0.21700567  0.00000000  0.26508715  1.0
  Ta  Ta289  1  0.21700567  0.33333333  0.26508715  1.0
  Ta  Ta290  1  0.21700567  0.66666667  0.26508715  1.0
  Ta  Ta291  1  0.55033900  0.00000000  0.26508715  1.0
  Ta  Ta292  1  0.55033900  0.33333333  0.26508715  1.0
  Ta  Ta293  1  0.55033900  0.66666667  0.26508715  1.0
  Ta  Ta294  1  0.88367233  0.00000000  0.26508715  1.0
  Ta  Ta295  1  0.88367233  0.33333333  0.26508715  1.0
  Ta  Ta296  1  0.88367233  0.66666667  0.26508715  1.0
  Ta  Ta297  1  0.21700567  0.16666667  0.21508715  1.0
  Ta  Ta298  1  0.21700567  0.50000000  0.21508715  1.0
  Ta  Ta299  1  0.21700567  0.83333333  0.21508715  1.0
  Ta  Ta300  1  0.55033900  0.16666667  0.21508715  1.0
  Ta  Ta301  1  0.55033900  0.50000000  0.21508715  1.0
  Ta  Ta302  1  0.55033900  0.83333333  0.21508715  1.0
  Ta  Ta303  1  0.88367233  0.16666667  0.21508715  1.0
  Ta  Ta304  1  0.88367233  0.50000000  0.21508715  1.0
  Ta  Ta305  1  0.88367233  0.83333333  0.21508715  1.0
  Ta  Ta306  1  0.11632767  0.08333333  0.20988375  1.0
  Ta  Ta307  1  0.11632767  0.41666667  0.20988375  1.0
  Ta  Ta308  1  0.11632767  0.75000000  0.20988375  1.0
  Ta  Ta309  1  0.44966100  0.08333333  0.20988375  1.0
  Ta  Ta310  1  0.44966100  0.41666667  0.20988375  1.0
  Ta  Ta311  1  0.44966100  0.75000000  0.20988375  1.0
  Ta  Ta312  1  0.78299433  0.08333333  0.20988375  1.0
  Ta  Ta313  1  0.78299433  0.41666667  0.20988375  1.0
  Ta  Ta314  1  0.78299433  0.75000000  0.20988375  1.0
  Ta  Ta315  1  0.11632767  0.25000000  0.25988375  1.0
  Ta  Ta316  1  0.11632767  0.58333333  0.25988375  1.0
  Ta  Ta317  1  0.11632767  0.91666667  0.25988375  1.0
  Ta  Ta318  1  0.44966100  0.25000000  0.25988375  1.0
  Ta  Ta319  1  0.44966100  0.58333333  0.25988375  1.0
  Ta  Ta320  1  0.44966100  0.91666667  0.25988375  1.0
  Ta  Ta321  1  0.78299433  0.25000000  0.25988375  1.0
  Ta  Ta322  1  0.78299433  0.58333333  0.25988375  1.0
  Ta  Ta323  1  0.78299433  0.91666667  0.25988375  1.0
  Ni  Ni324  1  0.10648700  0.00000000  0.28193155  1.0
  Ni  Ni325  1  0.10648700  0.33333333  0.28193155  1.0
  Ni  Ni326  1  0.10648700  0.66666667  0.28193155  1.0
  Ni  Ni327  1  0.43982033  0.00000000  0.28193155  1.0
  Ni  Ni328  1  0.43982033  0.33333333  0.28193155  1.0
  Ni  Ni329  1  0.43982033  0.66666667  0.28193155  1.0
  Ni  Ni330  1  0.77315367  0.00000000  0.28193155  1.0
  Ni  Ni331  1  0.77315367  0.33333333  0.28193155  1.0
  Ni  Ni332  1  0.77315367  0.66666667  0.28193155  1.0
  Ni  Ni333  1  0.10648700  0.16666667  0.23193155  1.0
  Ni  Ni334  1  0.10648700  0.50000000  0.23193155  1.0
  Ni  Ni335  1  0.10648700  0.83333333  0.23193155  1.0
  Ni  Ni336  1  0.43982033  0.16666667  0.23193155  1.0
  Ni  Ni337  1  0.43982033  0.50000000  0.23193155  1.0
  Ni  Ni338  1  0.43982033  0.83333333  0.23193155  1.0
  Ni  Ni339  1  0.77315367  0.16666667  0.23193155  1.0
  Ni  Ni340  1  0.77315367  0.50000000  0.23193155  1.0
  Ni  Ni341  1  0.77315367  0.83333333  0.23193155  1.0
  Ni  Ni342  1  0.22684633  0.08333333  0.29303935  1.0
  Ni  Ni343  1  0.22684633  0.41666667  0.29303935  1.0
  Ni  Ni344  1  0.22684633  0.75000000  0.29303935  1.0
  Ni  Ni345  1  0.56017967  0.08333333  0.29303935  1.0
  Ni  Ni346  1  0.56017967  0.41666667  0.29303935  1.0
  Ni  Ni347  1  0.56017967  0.75000000  0.29303935  1.0
  Ni  Ni348  1  0.89351300  0.08333333  0.29303935  1.0
  Ni  Ni349  1  0.89351300  0.41666667  0.29303935  1.0
  Ni  Ni350  1  0.89351300  0.75000000  0.29303935  1.0
  Ni  Ni351  1  0.22684633  0.25000000  0.24303935  1.0
  Ni  Ni352  1  0.22684633  0.58333333  0.24303935  1.0
  Ni  Ni353  1  0.22684633  0.91666667  0.24303935  1.0
  Ni  Ni354  1  0.56017967  0.25000000  0.24303935  1.0
  Ni  Ni355  1  0.56017967  0.58333333  0.24303935  1.0
  Ni  Ni356  1  0.56017967  0.91666667  0.24303935  1.0
  Ni  Ni357  1  0.89351300  0.25000000  0.24303935  1.0
  Ni  Ni358  1  0.89351300  0.58333333  0.24303935  1.0
  Ni  Ni359  1  0.89351300  0.91666667  0.24303935  1.0
  Ni  Ni360  1  0.05294300  0.04161817  0.22835380  1.0
  Ni  Ni361  1  0.05294300  0.37495150  0.22835380  1.0
  Ni  Ni362  1  0.05294300  0.70828483  0.22835380  1.0
  Ni  Ni363  1  0.38627633  0.04161817  0.22835380  1.0
  Ni  Ni364  1  0.38627633  0.37495150  0.22835380  1.0
  Ni  Ni365  1  0.38627633  0.70828483  0.22835380  1.0
  Ni  Ni366  1  0.71960967  0.04161817  0.22835380  1.0
  Ni  Ni367  1  0.71960967  0.37495150  0.22835380  1.0
  Ni  Ni368  1  0.71960967  0.70828483  0.22835380  1.0
  Ni  Ni369  1  0.05294300  0.20828483  0.27835380  1.0
  Ni  Ni370  1  0.05294300  0.54161817  0.27835380  1.0
  Ni  Ni371  1  0.05294300  0.87495150  0.27835380  1.0
  Ni  Ni372  1  0.38627633  0.20828483  0.27835380  1.0
  Ni  Ni373  1  0.38627633  0.54161817  0.27835380  1.0
  Ni  Ni374  1  0.38627633  0.87495150  0.27835380  1.0
  Ni  Ni375  1  0.71960967  0.20828483  0.27835380  1.0
  Ni  Ni376  1  0.71960967  0.54161817  0.27835380  1.0
  Ni  Ni377  1  0.71960967  0.87495150  0.27835380  1.0
  Ni  Ni378  1  0.28039033  0.04171517  0.24661710  1.0
  Ni  Ni379  1  0.28039033  0.37504850  0.24661710  1.0
  Ni  Ni380  1  0.28039033  0.70838183  0.24661710  1.0
  Ni  Ni381  1  0.61372367  0.04171517  0.24661710  1.0
  Ni  Ni382  1  0.61372367  0.37504850  0.24661710  1.0
  Ni  Ni383  1  0.61372367  0.70838183  0.24661710  1.0
  Ni  Ni384  1  0.94705700  0.04171517  0.24661710  1.0
  Ni  Ni385  1  0.94705700  0.37504850  0.24661710  1.0
  Ni  Ni386  1  0.94705700  0.70838183  0.24661710  1.0
  Ni  Ni387  1  0.28039033  0.20838183  0.29661710  1.0
  Ni  Ni388  1  0.28039033  0.54171517  0.29661710  1.0
  Ni  Ni389  1  0.28039033  0.87504850  0.29661710  1.0
  Ni  Ni390  1  0.61372367  0.20838183  0.29661710  1.0
  Ni  Ni391  1  0.61372367  0.54171517  0.29661710  1.0
  Ni  Ni392  1  0.61372367  0.87504850  0.29661710  1.0
  Ni  Ni393  1  0.94705700  0.20838183  0.29661710  1.0
  Ni  Ni394  1  0.94705700  0.54171517  0.29661710  1.0
  Ni  Ni395  1  0.94705700  0.87504850  0.29661710  1.0
  Ni  Ni396  1  0.05294300  0.12504850  0.25338290  1.0
  Ni  Ni397  1  0.05294300  0.45838183  0.25338290  1.0
  Ni  Ni398  1  0.05294300  0.79171517  0.25338290  1.0
  Ni  Ni399  1  0.38627633  0.12504850  0.25338290  1.0
  Ni  Ni400  1  0.38627633  0.45838183  0.25338290  1.0
  Ni  Ni401  1  0.38627633  0.79171517  0.25338290  1.0
  Ni  Ni402  1  0.71960967  0.12504850  0.25338290  1.0
  Ni  Ni403  1  0.71960967  0.45838183  0.25338290  1.0
  Ni  Ni404  1  0.71960967  0.79171517  0.25338290  1.0
  Ni  Ni405  1  0.05294300  0.29171517  0.20338290  1.0
  Ni  Ni406  1  0.05294300  0.62504850  0.20338290  1.0
  Ni  Ni407  1  0.05294300  0.95838183  0.20338290  1.0
  Ni  Ni408  1  0.38627633  0.29171517  0.20338290  1.0
  Ni  Ni409  1  0.38627633  0.62504850  0.20338290  1.0
  Ni  Ni410  1  0.38627633  0.95838183  0.20338290  1.0
  Ni  Ni411  1  0.71960967  0.29171517  0.20338290  1.0
  Ni  Ni412  1  0.71960967  0.62504850  0.20338290  1.0
  Ni  Ni413  1  0.71960967  0.95838183  0.20338290  1.0
  Ni  Ni414  1  0.28039033  0.12495150  0.27158800  1.0
  Ni  Ni415  1  0.28039033  0.45828483  0.27158800  1.0
  Ni  Ni416  1  0.28039033  0.79161817  0.27158800  1.0
  Ni  Ni417  1  0.61372367  0.12495150  0.27158800  1.0
  Ni  Ni418  1  0.61372367  0.45828483  0.27158800  1.0
  Ni  Ni419  1  0.61372367  0.79161817  0.27158800  1.0
  Ni  Ni420  1  0.94705700  0.12495150  0.27158800  1.0
  Ni  Ni421  1  0.94705700  0.45828483  0.27158800  1.0
  Ni  Ni422  1  0.94705700  0.79161817  0.27158800  1.0
  Ni  Ni423  1  0.28039033  0.29161817  0.22158800  1.0
  Ni  Ni424  1  0.28039033  0.62495150  0.22158800  1.0
  Ni  Ni425  1  0.28039033  0.95828483  0.22158800  1.0
  Ni  Ni426  1  0.61372367  0.29161817  0.22158800  1.0
  Ni  Ni427  1  0.61372367  0.62495150  0.22158800  1.0
  Ni  Ni428  1  0.61372367  0.95828483  0.22158800  1.0
  Ni  Ni429  1  0.94705700  0.29161817  0.22158800  1.0
  Ni  Ni430  1  0.94705700  0.62495150  0.22158800  1.0
  Ni  Ni431  1  0.94705700  0.95828483  0.22158800  1.0
  Ta  Ta432  1  0.21700567  0.00000000  0.36508715  1.0
  Ta  Ta433  1  0.21700567  0.33333333  0.36508715  1.0
  Ta  Ta434  1  0.21700567  0.66666667  0.36508715  1.0
  Ta  Ta435  1  0.55033900  0.00000000  0.36508715  1.0
  Ta  Ta436  1  0.55033900  0.33333333  0.36508715  1.0
  Ta  Ta437  1  0.55033900  0.66666667  0.36508715  1.0
  Ta  Ta438  1  0.88367233  0.00000000  0.36508715  1.0
  Ta  Ta439  1  0.88367233  0.33333333  0.36508715  1.0
  Ta  Ta440  1  0.88367233  0.66666667  0.36508715  1.0
  Ta  Ta441  1  0.21700567  0.16666667  0.31508715  1.0
  Ta  Ta442  1  0.21700567  0.50000000  0.31508715  1.0
  Ta  Ta443  1  0.21700567  0.83333333  0.31508715  1.0
  Ta  Ta444  1  0.55033900  0.16666667  0.31508715  1.0
  Ta  Ta445  1  0.55033900  0.50000000  0.31508715  1.0
  Ta  Ta446  1  0.55033900  0.83333333  0.31508715  1.0
  Ta  Ta447  1  0.88367233  0.16666667  0.31508715  1.0
  Ta  Ta448  1  0.88367233  0.50000000  0.31508715  1.0
  Ta  Ta449  1  0.88367233  0.83333333  0.31508715  1.0
  Ta  Ta450  1  0.11632767  0.08333333  0.30988375  1.0
  Ta  Ta451  1  0.11632767  0.41666667  0.30988375  1.0
  Ta  Ta452  1  0.11632767  0.75000000  0.30988375  1.0
  Ta  Ta453  1  0.44966100  0.08333333  0.30988375  1.0
  Ta  Ta454  1  0.44966100  0.41666667  0.30988375  1.0
  Ta  Ta455  1  0.44966100  0.75000000  0.30988375  1.0
  Ta  Ta456  1  0.78299433  0.08333333  0.30988375  1.0
  Ta  Ta457  1  0.78299433  0.41666667  0.30988375  1.0
  Ta  Ta458  1  0.78299433  0.75000000  0.30988375  1.0
  Ta  Ta459  1  0.11632767  0.25000000  0.35988375  1.0
  Ta  Ta460  1  0.11632767  0.58333333  0.35988375  1.0
  Ta  Ta461  1  0.11632767  0.91666667  0.35988375  1.0
  Ta  Ta462  1  0.44966100  0.25000000  0.35988375  1.0
  Ta  Ta463  1  0.44966100  0.58333333  0.35988375  1.0
  Ta  Ta464  1  0.44966100  0.91666667  0.35988375  1.0
  Ta  Ta465  1  0.78299433  0.25000000  0.35988375  1.0
  Ta  Ta466  1  0.78299433  0.58333333  0.35988375  1.0
  Ta  Ta467  1  0.78299433  0.91666667  0.35988375  1.0
  Ni  Ni468  1  0.10648700  0.00000000  0.38193155  1.0
  Ni  Ni469  1  0.10648700  0.33333333  0.38193155  1.0
  Ni  Ni470  1  0.10648700  0.66666667  0.38193155  1.0
  Ni  Ni471  1  0.43982033  0.00000000  0.38193155  1.0
  Ni  Ni472  1  0.43982033  0.33333333  0.38193155  1.0
  Ni  Ni473  1  0.43982033  0.66666667  0.38193155  1.0
  Ni  Ni474  1  0.77315367  0.00000000  0.38193155  1.0
  Ni  Ni475  1  0.77315367  0.33333333  0.38193155  1.0
  Ni  Ni476  1  0.77315367  0.66666667  0.38193155  1.0
  Ni  Ni477  1  0.10648700  0.16666667  0.33193155  1.0
  Ni  Ni478  1  0.10648700  0.50000000  0.33193155  1.0
  Ni  Ni479  1  0.10648700  0.83333333  0.33193155  1.0
  Ni  Ni480  1  0.43982033  0.16666667  0.33193155  1.0
  Ni  Ni481  1  0.43982033  0.50000000  0.33193155  1.0
  Ni  Ni482  1  0.43982033  0.83333333  0.33193155  1.0
  Ni  Ni483  1  0.77315367  0.16666667  0.33193155  1.0
  Ni  Ni484  1  0.77315367  0.50000000  0.33193155  1.0
  Ni  Ni485  1  0.77315367  0.83333333  0.33193155  1.0
  Ni  Ni486  1  0.22684633  0.08333333  0.39303935  1.0
  Ni  Ni487  1  0.22684633  0.41666667  0.39303935  1.0
  Ni  Ni488  1  0.22684633  0.75000000  0.39303935  1.0
  Ni  Ni489  1  0.56017967  0.08333333  0.39303935  1.0
  Ni  Ni490  1  0.56017967  0.41666667  0.39303935  1.0
  Ni  Ni491  1  0.56017967  0.75000000  0.39303935  1.0
  Ni  Ni492  1  0.89351300  0.08333333  0.39303935  1.0
  Ni  Ni493  1  0.89351300  0.41666667  0.39303935  1.0
  Ni  Ni494  1  0.89351300  0.75000000  0.39303935  1.0
  Ni  Ni495  1  0.22684633  0.25000000  0.34303935  1.0
  Ni  Ni496  1  0.22684633  0.58333333  0.34303935  1.0
  Ni  Ni497  1  0.22684633  0.91666667  0.34303935  1.0
  Ni  Ni498  1  0.56017967  0.25000000  0.34303935  1.0
  Ni  Ni499  1  0.56017967  0.58333333  0.34303935  1.0
  Ni  Ni500  1  0.56017967  0.91666667  0.34303935  1.0
  Ni  Ni501  1  0.89351300  0.25000000  0.34303935  1.0
  Ni  Ni502  1  0.89351300  0.58333333  0.34303935  1.0
  Ni  Ni503  1  0.89351300  0.91666667  0.34303935  1.0
  Ni  Ni504  1  0.05294300  0.04161817  0.32835380  1.0
  Ni  Ni505  1  0.05294300  0.37495150  0.32835380  1.0
  Ni  Ni506  1  0.05294300  0.70828483  0.32835380  1.0
  Ni  Ni507  1  0.38627633  0.04161817  0.32835380  1.0
  Ni  Ni508  1  0.38627633  0.37495150  0.32835380  1.0
  Ni  Ni509  1  0.38627633  0.70828483  0.32835380  1.0
  Ni  Ni510  1  0.71960967  0.04161817  0.32835380  1.0
  Ni  Ni511  1  0.71960967  0.37495150  0.32835380  1.0
  Ni  Ni512  1  0.71960967  0.70828483  0.32835380  1.0
  Ni  Ni513  1  0.05294300  0.20828483  0.37835380  1.0
  Ni  Ni514  1  0.05294300  0.54161817  0.37835380  1.0
  Ni  Ni515  1  0.05294300  0.87495150  0.37835380  1.0
  Ni  Ni516  1  0.38627633  0.20828483  0.37835380  1.0
  Ni  Ni517  1  0.38627633  0.54161817  0.37835380  1.0
  Ni  Ni518  1  0.38627633  0.87495150  0.37835380  1.0
  Ni  Ni519  1  0.71960967  0.20828483  0.37835380  1.0
  Ni  Ni520  1  0.71960967  0.54161817  0.37835380  1.0
  Ni  Ni521  1  0.71960967  0.87495150  0.37835380  1.0
  Ni  Ni522  1  0.28039033  0.04171517  0.34661710  1.0
  Ni  Ni523  1  0.28039033  0.37504850  0.34661710  1.0
  Ni  Ni524  1  0.28039033  0.70838183  0.34661710  1.0
  Ni  Ni525  1  0.61372367  0.04171517  0.34661710  1.0
  Ni  Ni526  1  0.61372367  0.37504850  0.34661710  1.0
  Ni  Ni527  1  0.61372367  0.70838183  0.34661710  1.0
  Ni  Ni528  1  0.94705700  0.04171517  0.34661710  1.0
  Ni  Ni529  1  0.94705700  0.37504850  0.34661710  1.0
  Ni  Ni530  1  0.94705700  0.70838183  0.34661710  1.0
  Ni  Ni531  1  0.28039033  0.20838183  0.39661710  1.0
  Ni  Ni532  1  0.28039033  0.54171517  0.39661710  1.0
  Ni  Ni533  1  0.28039033  0.87504850  0.39661710  1.0
  Ni  Ni534  1  0.61372367  0.20838183  0.39661710  1.0
  Ni  Ni535  1  0.61372367  0.54171517  0.39661710  1.0
  Ni  Ni536  1  0.61372367  0.87504850  0.39661710  1.0
  Ni  Ni537  1  0.94705700  0.20838183  0.39661710  1.0
  Ni  Ni538  1  0.94705700  0.54171517  0.39661710  1.0
  Ni  Ni539  1  0.94705700  0.87504850  0.39661710  1.0
  Ni  Ni540  1  0.05294300  0.12504850  0.35338290  1.0
  Ni  Ni541  1  0.05294300  0.45838183  0.35338290  1.0
  Ni  Ni542  1  0.05294300  0.79171517  0.35338290  1.0
  Ni  Ni543  1  0.38627633  0.12504850  0.35338290  1.0
  Ni  Ni544  1  0.38627633  0.45838183  0.35338290  1.0
  Ni  Ni545  1  0.38627633  0.79171517  0.35338290  1.0
  Ni  Ni546  1  0.71960967  0.12504850  0.35338290  1.0
  Ni  Ni547  1  0.71960967  0.45838183  0.35338290  1.0
  Ni  Ni548  1  0.71960967  0.79171517  0.35338290  1.0
  Ni  Ni549  1  0.05294300  0.29171517  0.30338290  1.0
  Ni  Ni550  1  0.05294300  0.62504850  0.30338290  1.0
  Ni  Ni551  1  0.05294300  0.95838183  0.30338290  1.0
  Ni  Ni552  1  0.38627633  0.29171517  0.30338290  1.0
  Ni  Ni553  1  0.38627633  0.62504850  0.30338290  1.0
  Ni  Ni554  1  0.38627633  0.95838183  0.30338290  1.0
  Ni  Ni555  1  0.71960967  0.29171517  0.30338290  1.0
  Ni  Ni556  1  0.71960967  0.62504850  0.30338290  1.0
  Ni  Ni557  1  0.71960967  0.95838183  0.30338290  1.0
  Ni  Ni558  1  0.28039033  0.12495150  0.37158800  1.0
  Ni  Ni559  1  0.28039033  0.45828483  0.37158800  1.0
  Ni  Ni560  1  0.28039033  0.79161817  0.37158800  1.0
  Ni  Ni561  1  0.61372367  0.12495150  0.37158800  1.0
  Ni  Ni562  1  0.61372367  0.45828483  0.37158800  1.0
  Ni  Ni563  1  0.61372367  0.79161817  0.37158800  1.0
  Ni  Ni564  1  0.94705700  0.12495150  0.37158800  1.0
  Ni  Ni565  1  0.94705700  0.45828483  0.37158800  1.0
  Ni  Ni566  1  0.94705700  0.79161817  0.37158800  1.0
  Ni  Ni567  1  0.28039033  0.29161817  0.32158800  1.0
  Ni  Ni568  1  0.28039033  0.62495150  0.32158800  1.0
  Ni  Ni569  1  0.28039033  0.95828483  0.32158800  1.0
  Ni  Ni570  1  0.61372367  0.29161817  0.32158800  1.0
  Ni  Ni571  1  0.61372367  0.62495150  0.32158800  1.0
  Ni  Ni572  1  0.61372367  0.95828483  0.32158800  1.0
  Ni  Ni573  1  0.94705700  0.29161817  0.32158800  1.0
  Ni  Ni574  1  0.94705700  0.62495150  0.32158800  1.0
  Ni  Ni575  1  0.94705700  0.95828483  0.32158800  1.0
