# generated using pymatgen
data_TaNi3
_symmetry_space_group_name_H-M   'P 1'
_cell_length_a   15.39572846
_cell_length_b   24.94685336
_cell_length_c   99.80204080
_cell_angle_alpha   124.57321975
_cell_angle_beta   55.55396562
_cell_angle_gamma   72.02689378
_symmetry_Int_Tables_number   1
_chemical_formula_structural   TaNi3
_chemical_formula_sum   'Ta81 Ni243'
_cell_volume   9754.03876301
_cell_formula_units_Z   81
loop_
 _symmetry_equiv_pos_site_id
 _symmetry_equiv_pos_as_xyz
  1  'x, y, z'
loop_
 _atom_site_type_symbol
 _atom_site_label
 _atom_site_symmetry_multiplicity
 _atom_site_fract_x
 _atom_site_fract_y
 _atom_site_fract_z
 _atom_site_occupancy
  Ta  Ta0  1  0.00000000  0.00000000  0.03409091  1.0
  Ta  Ta1  1  0.00000000  0.33333333  0.03409091  1.0
  Ta  Ta2  1  1.00000000  0.66666667  0.03409091  1.0
  Ta  Ta3  1  0.33333333  0.00000000  0.03409091  1.0
  Ta  Ta4  1  0.33333333  0.33333333  0.03409091  1.0
  Ta  Ta5  1  0.33333333  0.66666667  0.03409091  1.0
  Ta  Ta6  1  0.66666667  0.00000000  0.03409091  1.0
  Ta  Ta7  1  0.66666667  0.33333333  0.03409091  1.0
  Ta  Ta8  1  0.66666667  0.66666667  0.03409091  1.0
  Ni  Ni9  1  0.16666667  0.33333333  0.03409091  1.0
  Ni  Ni10  1  0.16666667  0.66666667  0.03409091  1.0
  Ni  Ni11  1  0.16666667  0.00000000  0.03409091  1.0
  Ni  Ni12  1  0.50000000  0.33333333  0.03409091  1.0
  Ni  Ni13  1  0.50000000  0.66666667  0.03409091  1.0
  Ni  Ni14  1  0.50000000  0.00000000  0.03409091  1.0
  Ni  Ni15  1  0.83333333  0.33333333  0.03409091  1.0
  Ni  Ni16  1  0.83333333  0.66666667  0.03409091  1.0
  Ni  Ni17  1  0.83333333  0.00000000  0.03409091  1.0
  Ni  Ni18  1  0.08333333  0.16666667  0.01136364  1.0
  Ni  Ni19  1  0.08333333  0.50000000  0.01136364  1.0
  Ni  Ni20  1  0.08333333  0.83333333  0.01136364  1.0
  Ni  Ni21  1  0.41666667  0.16666667  0.01136364  1.0
  Ni  Ni22  1  0.41666667  0.50000000  0.01136364  1.0
  Ni  Ni23  1  0.41666667  0.83333333  0.01136364  1.0
  Ni  Ni24  1  0.75000000  0.16666667  0.01136364  1.0
  Ni  Ni25  1  0.75000000  0.50000000  0.01136364  1.0
  Ni  Ni26  1  0.75000000  0.83333333  0.01136364  1.0
  Ni  Ni27  1  0.25000000  0.16666667  0.01136364  1.0
  Ni  Ni28  1  0.25000000  0.50000000  0.01136364  1.0
  Ni  Ni29  1  0.25000000  0.83333333  0.01136364  1.0
  Ni  Ni30  1  0.58333333  0.16666667  0.01136364  1.0
  Ni  Ni31  1  0.58333333  0.50000000  0.01136364  1.0
  Ni  Ni32  1  0.58333333  0.83333333  0.01136364  1.0
  Ni  Ni33  1  0.91666667  0.16666667  0.01136364  1.0
  Ni  Ni34  1  0.91666667  0.50000000  0.01136364  1.0
  Ni  Ni35  1  0.91666667  0.83333333  0.01136364  1.0
  Ta  Ta36  1  0.00000000  0.00000000  0.07954545  1.0
  Ta  Ta37  1  0.00000000  0.33333333  0.07954545  1.0
  Ta  Ta38  1  1.00000000  0.66666667  0.07954545  1.0
  Ta  Ta39  1  0.33333333  0.00000000  0.07954545  1.0
  Ta  Ta40  1  0.33333333  0.33333333  0.07954545  1.0
  Ta  Ta41  1  0.33333333  0.66666667  0.07954545  1.0
  Ta  Ta42  1  0.66666667  0.00000000  0.07954545  1.0
  Ta  Ta43  1  0.66666667  0.33333333  0.07954545  1.0
  Ta  Ta44  1  0.66666667  0.66666667  0.07954545  1.0
  Ni  Ni45  1  0.16666667  0.33333333  0.07954545  1.0
  Ni  Ni46  1  0.16666667  0.66666667  0.07954545  1.0
  Ni  Ni47  1  0.16666667  0.00000000  0.07954545  1.0
  Ni  Ni48  1  0.50000000  0.33333333  0.07954545  1.0
  Ni  Ni49  1  0.50000000  0.66666667  0.07954545  1.0
  Ni  Ni50  1  0.50000000  0.00000000  0.07954545  1.0
  Ni  Ni51  1  0.83333333  0.33333333  0.07954545  1.0
  Ni  Ni52  1  0.83333333  0.66666667  0.07954545  1.0
  Ni  Ni53  1  0.83333333  0.00000000  0.07954545  1.0
  Ni  Ni54  1  0.08333333  0.16666667  0.05681818  1.0
  Ni  Ni55  1  0.08333333  0.50000000  0.05681818  1.0
  Ni  Ni56  1  0.08333333  0.83333333  0.05681818  1.0
  Ni  Ni57  1  0.41666667  0.16666667  0.05681818  1.0
  Ni  Ni58  1  0.41666667  0.50000000  0.05681818  1.0
  Ni  Ni59  1  0.41666667  0.83333333  0.05681818  1.0
  Ni  Ni60  1  0.75000000  0.16666667  0.05681818  1.0
  Ni  Ni61  1  0.75000000  0.50000000  0.05681818  1.0
  Ni  Ni62  1  0.75000000  0.83333333  0.05681818  1.0
  Ni  Ni63  1  0.25000000  0.16666667  0.05681818  1.0
  Ni  Ni64  1  0.25000000  0.50000000  0.05681818  1.0
  Ni  Ni65  1  0.25000000  0.83333333  0.05681818  1.0
  Ni  Ni66  1  0.58333333  0.16666667  0.05681818  1.0
  Ni  Ni67  1  0.58333333  0.50000000  0.05681818  1.0
  Ni  Ni68  1  0.58333333  0.83333333  0.05681818  1.0
  Ni  Ni69  1  0.91666667  0.16666667  0.05681818  1.0
  Ni  Ni70  1  0.91666667  0.50000000  0.05681818  1.0
  Ni  Ni71  1  0.91666667  0.83333333  0.05681818  1.0
  Ta  Ta72  1  0.00000000  0.00000000  0.12500000  1.0
  Ta  Ta73  1  0.00000000  0.33333333  0.12500000  1.0
  Ta  Ta74  1  1.00000000  0.66666667  0.12500000  1.0
  Ta  Ta75  1  0.33333333  0.00000000  0.12500000  1.0
  Ta  Ta76  1  0.33333333  0.33333333  0.12500000  1.0
  Ta  Ta77  1  0.33333333  0.66666667  0.12500000  1.0
  Ta  Ta78  1  0.66666667  0.00000000  0.12500000  1.0
  Ta  Ta79  1  0.66666667  0.33333333  0.12500000  1.0
  Ta  Ta80  1  0.66666667  0.66666667  0.12500000  1.0
  Ni  Ni81  1  0.16666667  0.33333333  0.12500000  1.0
  Ni  Ni82  1  0.16666667  0.66666667  0.12500000  1.0
  Ni  Ni83  1  0.16666667  0.00000000  0.12500000  1.0
  Ni  Ni84  1  0.50000000  0.33333333  0.12500000  1.0
  Ni  Ni85  1  0.50000000  0.66666667  0.12500000  1.0
  Ni  Ni86  1  0.50000000  0.00000000  0.12500000  1.0
  Ni  Ni87  1  0.83333333  0.33333333  0.12500000  1.0
  Ni  Ni88  1  0.83333333  0.66666667  0.12500000  1.0
  Ni  Ni89  1  0.83333333  0.00000000  0.12500000  1.0
  Ni  Ni90  1  0.08333333  0.16666667  0.10227273  1.0
  Ni  Ni91  1  0.08333333  0.50000000  0.10227273  1.0
  Ni  Ni92  1  0.08333333  0.83333333  0.10227273  1.0
  Ni  Ni93  1  0.41666667  0.16666667  0.10227273  1.0
  Ni  Ni94  1  0.41666667  0.50000000  0.10227273  1.0
  Ni  Ni95  1  0.41666667  0.83333333  0.10227273  1.0
  Ni  Ni96  1  0.75000000  0.16666667  0.10227273  1.0
  Ni  Ni97  1  0.75000000  0.50000000  0.10227273  1.0
  Ni  Ni98  1  0.75000000  0.83333333  0.10227273  1.0
  Ni  Ni99  1  0.25000000  0.16666667  0.10227273  1.0
  Ni  Ni100  1  0.25000000  0.50000000  0.10227273  1.0
  Ni  Ni101  1  0.25000000  0.83333333  0.10227273  1.0
  Ni  Ni102  1  0.58333333  0.16666667  0.10227273  1.0
  Ni  Ni103  1  0.58333333  0.50000000  0.10227273  1.0
  Ni  Ni104  1  0.58333333  0.83333333  0.10227273  1.0
  Ni  Ni105  1  0.91666667  0.16666667  0.10227273  1.0
  Ni  Ni106  1  0.91666667  0.50000000  0.10227273  1.0
  Ni  Ni107  1  0.91666667  0.83333333  0.10227273  1.0
  Ta  Ta108  1  0.00000000  0.00000000  0.17045455  1.0
  Ta  Ta109  1  0.00000000  0.33333333  0.17045455  1.0
  Ta  Ta110  1  1.00000000  0.66666667  0.17045455  1.0
  Ta  Ta111  1  0.33333333  0.00000000  0.17045455  1.0
  Ta  Ta112  1  0.33333333  0.33333333  0.17045455  1.0
  Ta  Ta113  1  0.33333333  0.66666667  0.17045455  1.0
  Ta  Ta114  1  0.66666667  0.00000000  0.17045455  1.0
  Ta  Ta115  1  0.66666667  0.33333333  0.17045455  1.0
  Ta  Ta116  1  0.66666667  0.66666667  0.17045455  1.0
  Ni  Ni117  1  0.16666667  0.33333333  0.17045455  1.0
  Ni  Ni118  1  0.16666667  0.66666667  0.17045455  1.0
  Ni  Ni119  1  0.16666667  0.00000000  0.17045455  1.0
  Ni  Ni120  1  0.50000000  0.33333333  0.17045455  1.0
  Ni  Ni121  1  0.50000000  0.66666667  0.17045455  1.0
  Ni  Ni122  1  0.50000000  0.00000000  0.17045455  1.0
  Ni  Ni123  1  0.83333333  0.33333333  0.17045455  1.0
  Ni  Ni124  1  0.83333333  0.66666667  0.17045455  1.0
  Ni  Ni125  1  0.83333333  0.00000000  0.17045455  1.0
  Ni  Ni126  1  0.08333333  0.16666667  0.14772727  1.0
  Ni  Ni127  1  0.08333333  0.50000000  0.14772727  1.0
  Ni  Ni128  1  0.08333333  0.83333333  0.14772727  1.0
  Ni  Ni129  1  0.41666667  0.16666667  0.14772727  1.0
  Ni  Ni130  1  0.41666667  0.50000000  0.14772727  1.0
  Ni  Ni131  1  0.41666667  0.83333333  0.14772727  1.0
  Ni  Ni132  1  0.75000000  0.16666667  0.14772727  1.0
  Ni  Ni133  1  0.75000000  0.50000000  0.14772727  1.0
  Ni  Ni134  1  0.75000000  0.83333333  0.14772727  1.0
  Ni  Ni135  1  0.25000000  0.16666667  0.14772727  1.0
  Ni  Ni136  1  0.25000000  0.50000000  0.14772727  1.0
  Ni  Ni137  1  0.25000000  0.83333333  0.14772727  1.0
  Ni  Ni138  1  0.58333333  0.16666667  0.14772727  1.0
  Ni  Ni139  1  0.58333333  0.50000000  0.14772727  1.0
  Ni  Ni140  1  0.58333333  0.83333333  0.14772727  1.0
  Ni  Ni141  1  0.91666667  0.16666667  0.14772727  1.0
  Ni  Ni142  1  0.91666667  0.50000000  0.14772727  1.0
  Ni  Ni143  1  0.91666667  0.83333333  0.14772727  1.0
  Ta  Ta144  1  0.00000000  0.00000000  0.21590909  1.0
  Ta  Ta145  1  0.00000000  0.33333333  0.21590909  1.0
  Ta  Ta146  1  1.00000000  0.66666667  0.21590909  1.0
  Ta  Ta147  1  0.33333333  0.00000000  0.21590909  1.0
  Ta  Ta148  1  0.33333333  0.33333333  0.21590909  1.0
  Ta  Ta149  1  0.33333333  0.66666667  0.21590909  1.0
  Ta  Ta150  1  0.66666667  0.00000000  0.21590909  1.0
  Ta  Ta151  1  0.66666667  0.33333333  0.21590909  1.0
  Ta  Ta152  1  0.66666667  0.66666667  0.21590909  1.0
  Ni  Ni153  1  0.16666667  0.33333333  0.21590909  1.0
  Ni  Ni154  1  0.16666667  0.66666667  0.21590909  1.0
  Ni  Ni155  1  0.16666667  0.00000000  0.21590909  1.0
  Ni  Ni156  1  0.50000000  0.33333333  0.21590909  1.0
  Ni  Ni157  1  0.50000000  0.66666667  0.21590909  1.0
  Ni  Ni158  1  0.50000000  0.00000000  0.21590909  1.0
  Ni  Ni159  1  0.83333333  0.33333333  0.21590909  1.0
  Ni  Ni160  1  0.83333333  0.66666667  0.21590909  1.0
  Ni  Ni161  1  0.83333333  0.00000000  0.21590909  1.0
  Ni  Ni162  1  0.08333333  0.16666667  0.19318182  1.0
  Ni  Ni163  1  0.08333333  0.50000000  0.19318182  1.0
  Ni  Ni164  1  0.08333333  0.83333333  0.19318182  1.0
  Ni  Ni165  1  0.41666667  0.16666667  0.19318182  1.0
  Ni  Ni166  1  0.41666667  0.50000000  0.19318182  1.0
  Ni  Ni167  1  0.41666667  0.83333333  0.19318182  1.0
  Ni  Ni168  1  0.75000000  0.16666667  0.19318182  1.0
  Ni  Ni169  1  0.75000000  0.50000000  0.19318182  1.0
  Ni  Ni170  1  0.75000000  0.83333333  0.19318182  1.0
  Ni  Ni171  1  0.25000000  0.16666667  0.19318182  1.0
  Ni  Ni172  1  0.25000000  0.50000000  0.19318182  1.0
  Ni  Ni173  1  0.25000000  0.83333333  0.19318182  1.0
  Ni  Ni174  1  0.58333333  0.16666667  0.19318182  1.0
  Ni  Ni175  1  0.58333333  0.50000000  0.19318182  1.0
  Ni  Ni176  1  0.58333333  0.83333333  0.19318182  1.0
  Ni  Ni177  1  0.91666667  0.16666667  0.19318182  1.0
  Ni  Ni178  1  0.91666667  0.50000000  0.19318182  1.0
  Ni  Ni179  1  0.91666667  0.83333333  0.19318182  1.0
  Ta  Ta180  1  0.00000000  0.00000000  0.26136364  1.0
  Ta  Ta181  1  0.00000000  0.33333333  0.26136364  1.0
  Ta  Ta182  1  1.00000000  0.66666667  0.26136364  1.0
  Ta  Ta183  1  0.33333333  0.00000000  0.26136364  1.0
  Ta  Ta184  1  0.33333333  0.33333333  0.26136364  1.0
  Ta  Ta185  1  0.33333333  0.66666667  0.26136364  1.0
  Ta  Ta186  1  0.66666667  0.00000000  0.26136364  1.0
  Ta  Ta187  1  0.66666667  0.33333333  0.26136364  1.0
  Ta  Ta188  1  0.66666667  0.66666667  0.26136364  1.0
  Ni  Ni189  1  0.16666667  0.33333333  0.26136364  1.0
  Ni  Ni190  1  0.16666667  0.66666667  0.26136364  1.0
  Ni  Ni191  1  0.16666667  0.00000000  0.26136364  1.0
  Ni  Ni192  1  0.50000000  0.33333333  0.26136364  1.0
  Ni  Ni193  1  0.50000000  0.66666667  0.26136364  1.0
  Ni  Ni194  1  0.50000000  0.00000000  0.26136364  1.0
  Ni  Ni195  1  0.83333333  0.33333333  0.26136364  1.0
  Ni  Ni196  1  0.83333333  0.66666667  0.26136364  1.0
  Ni  Ni197  1  0.83333333  0.00000000  0.26136364  1.0
  Ni  Ni198  1  0.08333333  0.16666667  0.23863636  1.0
  Ni  Ni199  1  0.08333333  0.50000000  0.23863636  1.0
  Ni  Ni200  1  0.08333333  0.83333333  0.23863636  1.0
  Ni  Ni201  1  0.41666667  0.16666667  0.23863636  1.0
  Ni  Ni202  1  0.41666667  0.50000000  0.23863636  1.0
  Ni  Ni203  1  0.41666667  0.83333333  0.23863636  1.0
  Ni  Ni204  1  0.75000000  0.16666667  0.23863636  1.0
  Ni  Ni205  1  0.75000000  0.50000000  0.23863636  1.0
  Ni  Ni206  1  0.75000000  0.83333333  0.23863636  1.0
  Ni  Ni207  1  0.25000000  0.16666667  0.23863636  1.0
  Ni  Ni208  1  0.25000000  0.50000000  0.23863636  1.0
  Ni  Ni209  1  0.25000000  0.83333333  0.23863636  1.0
  Ni  Ni210  1  0.58333333  0.16666667  0.23863636  1.0
  Ni  Ni211  1  0.58333333  0.50000000  0.23863636  1.0
  Ni  Ni212  1  0.58333333  0.83333333  0.23863636  1.0
  Ni  Ni213  1  0.91666667  0.16666667  0.23863636  1.0
  Ni  Ni214  1  0.91666667  0.50000000  0.23863636  1.0
  Ni  Ni215  1  0.91666667  0.83333333  0.23863636  1.0
  Ta  Ta216  1  0.00000000  0.00000000  0.30681818  1.0
  Ta  Ta217  1  0.00000000  0.33333333  0.30681818  1.0
  Ta  Ta218  1  1.00000000  0.66666667  0.30681818  1.0
  Ta  Ta219  1  0.33333333  0.00000000  0.30681818  1.0
  Ta  Ta220  1  0.33333333  0.33333333  0.30681818  1.0
  Ta  Ta221  1  0.33333333  0.66666667  0.30681818  1.0
  Ta  Ta222  1  0.66666667  0.00000000  0.30681818  1.0
  Ta  Ta223  1  0.66666667  0.33333333  0.30681818  1.0
  Ta  Ta224  1  0.66666667  0.66666667  0.30681818  1.0
  Ni  Ni225  1  0.16666667  0.33333333  0.30681818  1.0
  Ni  Ni226  1  0.16666667  0.66666667  0.30681818  1.0
  Ni  Ni227  1  0.16666667  0.00000000  0.30681818  1.0
  Ni  Ni228  1  0.50000000  0.33333333  0.30681818  1.0
  Ni  Ni229  1  0.50000000  0.66666667  0.30681818  1.0
  Ni  Ni230  1  0.50000000  0.00000000  0.30681818  1.0
  Ni  Ni231  1  0.83333333  0.33333333  0.30681818  1.0
  Ni  Ni232  1  0.83333333  0.66666667  0.30681818  1.0
  Ni  Ni233  1  0.83333333  0.00000000  0.30681818  1.0
  Ni  Ni234  1  0.08333333  0.16666667  0.28409091  1.0
  Ni  Ni235  1  0.08333333  0.50000000  0.28409091  1.0
  Ni  Ni236  1  0.08333333  0.83333333  0.28409091  1.0
  Ni  Ni237  1  0.41666667  0.16666667  0.28409091  1.0
  Ni  Ni238  1  0.41666667  0.50000000  0.28409091  1.0
  Ni  Ni239  1  0.41666667  0.83333333  0.28409091  1.0
  Ni  Ni240  1  0.75000000  0.16666667  0.28409091  1.0
  Ni  Ni241  1  0.75000000  0.50000000  0.28409091  1.0
  Ni  Ni242  1  0.75000000  0.83333333  0.28409091  1.0
  Ni  Ni243  1  0.25000000  0.16666667  0.28409091  1.0
  Ni  Ni244  1  0.25000000  0.50000000  0.28409091  1.0
  Ni  Ni245  1  0.25000000  0.83333333  0.28409091  1.0
  Ni  Ni246  1  0.58333333  0.16666667  0.28409091  1.0
  Ni  Ni247  1  0.58333333  0.50000000  0.28409091  1.0
  Ni  Ni248  1  0.58333333  0.83333333  0.28409091  1.0
  Ni  Ni249  1  0.91666667  0.16666667  0.28409091  1.0
  Ni  Ni250  1  0.91666667  0.50000000  0.28409091  1.0
  Ni  Ni251  1  0.91666667  0.83333333  0.28409091  1.0
  Ta  Ta252  1  0.00000000  0.00000000  0.35227273  1.0
  Ta  Ta253  1  0.00000000  0.33333333  0.35227273  1.0
  Ta  Ta254  1  1.00000000  0.66666667  0.35227273  1.0
  Ta  Ta255  1  0.33333333  0.00000000  0.35227273  1.0
  Ta  Ta256  1  0.33333333  0.33333333  0.35227273  1.0
  Ta  Ta257  1  0.33333333  0.66666667  0.35227273  1.0
  Ta  Ta258  1  0.66666667  0.00000000  0.35227273  1.0
  Ta  Ta259  1  0.66666667  0.33333333  0.35227273  1.0
  Ta  Ta260  1  0.66666667  0.66666667  0.35227273  1.0
  Ni  Ni261  1  0.16666667  0.33333333  0.35227273  1.0
  Ni  Ni262  1  0.16666667  0.66666667  0.35227273  1.0
  Ni  Ni263  1  0.16666667  0.00000000  0.35227273  1.0
  Ni  Ni264  1  0.50000000  0.33333333  0.35227273  1.0
  Ni  Ni265  1  0.50000000  0.66666667  0.35227273  1.0
  Ni  Ni266  1  0.50000000  0.00000000  0.35227273  1.0
  Ni  Ni267  1  0.83333333  0.33333333  0.35227273  1.0
  Ni  Ni268  1  0.83333333  0.66666667  0.35227273  1.0
  Ni  Ni269  1  0.83333333  0.00000000  0.35227273  1.0
  Ni  Ni270  1  0.08333333  0.16666667  0.32954545  1.0
  Ni  Ni271  1  0.08333333  0.50000000  0.32954545  1.0
  Ni  Ni272  1  0.08333333  0.83333333  0.32954545  1.0
  Ni  Ni273  1  0.41666667  0.16666667  0.32954545  1.0
  Ni  Ni274  1  0.41666667  0.50000000  0.32954545  1.0
  Ni  Ni275  1  0.41666667  0.83333333  0.32954545  1.0
  Ni  Ni276  1  0.75000000  0.16666667  0.32954545  1.0
  Ni  Ni277  1  0.75000000  0.50000000  0.32954545  1.0
  Ni  Ni278  1  0.75000000  0.83333333  0.32954545  1.0
  Ni  Ni279  1  0.25000000  0.16666667  0.32954545  1.0
  Ni  Ni280  1  0.25000000  0.50000000  0.32954545  1.0
  Ni  Ni281  1  0.25000000  0.83333333  0.32954545  1.0
  Ni  Ni282  1  0.58333333  0.16666667  0.32954545  1.0
  Ni  Ni283  1  0.58333333  0.50000000  0.32954545  1.0
  Ni  Ni284  1  0.58333333  0.83333333  0.32954545  1.0
  Ni  Ni285  1  0.91666667  0.16666667  0.32954545  1.0
  Ni  Ni286  1  0.91666667  0.50000000  0.32954545  1.0
  Ni  Ni287  1  0.91666667  0.83333333  0.32954545  1.0
  Ta  Ta288  1  0.00000000  0.00000000  0.39772727  1.0
  Ta  Ta289  1  0.00000000  0.33333333  0.39772727  1.0
  Ta  Ta290  1  1.00000000  0.66666667  0.39772727  1.0
  Ta  Ta291  1  0.33333333  0.00000000  0.39772727  1.0
  Ta  Ta292  1  0.33333333  0.33333333  0.39772727  1.0
  Ta  Ta293  1  0.33333333  0.66666667  0.39772727  1.0
  Ta  Ta294  1  0.66666667  0.00000000  0.39772727  1.0
  Ta  Ta295  1  0.66666667  0.33333333  0.39772727  1.0
  Ta  Ta296  1  0.66666667  0.66666667  0.39772727  1.0
  Ni  Ni297  1  0.16666667  0.33333333  0.39772727  1.0
  Ni  Ni298  1  0.16666667  0.66666667  0.39772727  1.0
  Ni  Ni299  1  0.16666667  0.00000000  0.39772727  1.0
  Ni  Ni300  1  0.50000000  0.33333333  0.39772727  1.0
  Ni  Ni301  1  0.50000000  0.66666667  0.39772727  1.0
  Ni  Ni302  1  0.50000000  0.00000000  0.39772727  1.0
  Ni  Ni303  1  0.83333333  0.33333333  0.39772727  1.0
  Ni  Ni304  1  0.83333333  0.66666667  0.39772727  1.0
  Ni  Ni305  1  0.83333333  0.00000000  0.39772727  1.0
  Ni  Ni306  1  0.08333333  0.16666667  0.37500000  1.0
  Ni  Ni307  1  0.08333333  0.50000000  0.37500000  1.0
  Ni  Ni308  1  0.08333333  0.83333333  0.37500000  1.0
  Ni  Ni309  1  0.41666667  0.16666667  0.37500000  1.0
  Ni  Ni310  1  0.41666667  0.50000000  0.37500000  1.0
  Ni  Ni311  1  0.41666667  0.83333333  0.37500000  1.0
  Ni  Ni312  1  0.75000000  0.16666667  0.37500000  1.0
  Ni  Ni313  1  0.75000000  0.50000000  0.37500000  1.0
  Ni  Ni314  1  0.75000000  0.83333333  0.37500000  1.0
  Ni  Ni315  1  0.25000000  0.16666667  0.37500000  1.0
  Ni  Ni316  1  0.25000000  0.50000000  0.37500000  1.0
  Ni  Ni317  1  0.25000000  0.83333333  0.37500000  1.0
  Ni  Ni318  1  0.58333333  0.16666667  0.37500000  1.0
  Ni  Ni319  1  0.58333333  0.50000000  0.37500000  1.0
  Ni  Ni320  1  0.58333333  0.83333333  0.37500000  1.0
  Ni  Ni321  1  0.91666667  0.16666667  0.37500000  1.0
  Ni  Ni322  1  0.91666667  0.50000000  0.37500000  1.0
  Ni  Ni323  1  0.91666667  0.83333333  0.37500000  1.0
