# generated using pymatgen
data_TaNi
_symmetry_space_group_name_H-M   'P 1'
_cell_length_a   14.66784704
_cell_length_b   14.66784704
_cell_length_c   35.93136372
_cell_angle_alpha   97.82066101
_cell_angle_beta   97.82066101
_cell_angle_gamma   60.00000000
_symmetry_Int_Tables_number   1
_chemical_formula_structural   TaNi
_chemical_formula_sum   'Ta117 Ni117'
_cell_volume   6611.63569549
_cell_formula_units_Z   117
loop_
 _symmetry_equiv_pos_site_id
 _symmetry_equiv_pos_as_xyz
  1  'x, y, z'
loop_
 _atom_site_type_symbol
 _atom_site_label
 _atom_site_symmetry_multiplicity
 _atom_site_fract_x
 _atom_site_fract_y
 _atom_site_fract_z
 _atom_site_occupancy
  Ta  Ta0  1  0.05755867  0.05755867  0.25463000  1.0
  Ta  Ta1  1  0.05755867  0.39089200  0.25463000  1.0
  Ta  Ta2  1  0.05755867  0.72422533  0.25463000  1.0
  Ta  Ta3  1  0.39089200  0.05755867  0.25463000  1.0
  Ta  Ta4  1  0.39089200  0.39089200  0.25463000  1.0
  Ta  Ta5  1  0.39089200  0.72422533  0.25463000  1.0
  Ta  Ta6  1  0.72422533  0.05755867  0.25463000  1.0
  Ta  Ta7  1  0.72422533  0.39089200  0.25463000  1.0
  Ta  Ta8  1  0.72422533  0.72422533  0.25463000  1.0
  Ta  Ta9  1  0.22417067  0.22417067  0.00438400  1.0
  Ta  Ta10  1  0.22417067  0.55750400  0.00438400  1.0
  Ta  Ta11  1  0.22417067  0.89083733  0.00438400  1.0
  Ta  Ta12  1  0.55750400  0.22417067  0.00438400  1.0
  Ta  Ta13  1  0.55750400  0.55750400  0.00438400  1.0
  Ta  Ta14  1  0.55750400  0.89083733  0.00438400  1.0
  Ta  Ta15  1  0.89083733  0.22417067  0.00438400  1.0
  Ta  Ta16  1  0.89083733  0.55750400  0.00438400  1.0
  Ta  Ta17  1  0.89083733  0.89083733  0.00438400  1.0
  Ta  Ta18  1  0.10916267  0.10916267  0.48684800  1.0
  Ta  Ta19  1  0.10916267  0.44249600  0.48684800  1.0
  Ta  Ta20  1  0.10916267  0.77582933  0.48684800  1.0
  Ta  Ta21  1  0.44249600  0.10916267  0.48684800  1.0
  Ta  Ta22  1  0.44249600  0.44249600  0.48684800  1.0
  Ta  Ta23  1  0.44249600  0.77582933  0.48684800  1.0
  Ta  Ta24  1  0.77582933  0.10916267  0.48684800  1.0
  Ta  Ta25  1  0.77582933  0.44249600  0.48684800  1.0
  Ta  Ta26  1  0.77582933  0.77582933  0.48684800  1.0
  Ta  Ta27  1  0.27577467  0.27577467  0.23660200  1.0
  Ta  Ta28  1  0.27577467  0.60910800  0.23660200  1.0
  Ta  Ta29  1  0.27577467  0.94244133  0.23660200  1.0
  Ta  Ta30  1  0.60910800  0.27577467  0.23660200  1.0
  Ta  Ta31  1  0.60910800  0.60910800  0.23660200  1.0
  Ta  Ta32  1  0.60910800  0.94244133  0.23660200  1.0
  Ta  Ta33  1  0.94244133  0.27577467  0.23660200  1.0
  Ta  Ta34  1  0.94244133  0.60910800  0.23660200  1.0
  Ta  Ta35  1  0.94244133  0.94244133  0.23660200  1.0
  Ta  Ta36  1  0.07523967  0.07523967  0.33419450  1.0
  Ta  Ta37  1  0.07523967  0.40857300  0.33419450  1.0
  Ta  Ta38  1  0.07523967  0.74190633  0.33419450  1.0
  Ta  Ta39  1  0.40857300  0.07523967  0.33419450  1.0
  Ta  Ta40  1  0.40857300  0.40857300  0.33419450  1.0
  Ta  Ta41  1  0.40857300  0.74190633  0.33419450  1.0
  Ta  Ta42  1  0.74190633  0.07523967  0.33419450  1.0
  Ta  Ta43  1  0.74190633  0.40857300  0.33419450  1.0
  Ta  Ta44  1  0.74190633  0.74190633  0.33419450  1.0
  Ta  Ta45  1  0.24173900  0.24173900  0.08344150  1.0
  Ta  Ta46  1  0.24173900  0.57507233  0.08344150  1.0
  Ta  Ta47  1  0.24173900  0.90840567  0.08344150  1.0
  Ta  Ta48  1  0.57507233  0.24173900  0.08344150  1.0
  Ta  Ta49  1  0.57507233  0.57507233  0.08344150  1.0
  Ta  Ta50  1  0.57507233  0.90840567  0.08344150  1.0
  Ta  Ta51  1  0.90840567  0.24173900  0.08344150  1.0
  Ta  Ta52  1  0.90840567  0.57507233  0.08344150  1.0
  Ta  Ta53  1  0.90840567  0.90840567  0.08344150  1.0
  Ta  Ta54  1  0.09159433  0.09159433  0.40779050  1.0
  Ta  Ta55  1  0.09159433  0.42492767  0.40779050  1.0
  Ta  Ta56  1  0.09159433  0.75826100  0.40779050  1.0
  Ta  Ta57  1  0.42492767  0.09159433  0.40779050  1.0
  Ta  Ta58  1  0.42492767  0.42492767  0.40779050  1.0
  Ta  Ta59  1  0.42492767  0.75826100  0.40779050  1.0
  Ta  Ta60  1  0.75826100  0.09159433  0.40779050  1.0
  Ta  Ta61  1  0.75826100  0.42492767  0.40779050  1.0
  Ta  Ta62  1  0.75826100  0.75826100  0.40779050  1.0
  Ta  Ta63  1  0.25809367  0.25809367  0.15703750  1.0
  Ta  Ta64  1  0.25809367  0.59142700  0.15703750  1.0
  Ta  Ta65  1  0.25809367  0.92476033  0.15703750  1.0
  Ta  Ta66  1  0.59142700  0.25809367  0.15703750  1.0
  Ta  Ta67  1  0.59142700  0.59142700  0.15703750  1.0
  Ta  Ta68  1  0.59142700  0.92476033  0.15703750  1.0
  Ta  Ta69  1  0.92476033  0.25809367  0.15703750  1.0
  Ta  Ta70  1  0.92476033  0.59142700  0.15703750  1.0
  Ta  Ta71  1  0.92476033  0.92476033  0.15703750  1.0
  Ta  Ta72  1  0.19461533  0.19461533  0.37138500  1.0
  Ta  Ta73  1  0.19461533  0.52794867  0.37138500  1.0
  Ta  Ta74  1  0.19461533  0.86128200  0.37138500  1.0
  Ta  Ta75  1  0.52794867  0.19461533  0.37138500  1.0
  Ta  Ta76  1  0.52794867  0.52794867  0.37138500  1.0
  Ta  Ta77  1  0.52794867  0.86128200  0.37138500  1.0
  Ta  Ta78  1  0.86128200  0.19461533  0.37138500  1.0
  Ta  Ta79  1  0.86128200  0.52794867  0.37138500  1.0
  Ta  Ta80  1  0.86128200  0.86128200  0.37138500  1.0
  Ta  Ta81  1  0.02760467  0.02760467  0.11983700  1.0
  Ta  Ta82  1  0.02760467  0.36093800  0.11983700  1.0
  Ta  Ta83  1  0.02760467  0.69427133  0.11983700  1.0
  Ta  Ta84  1  0.36093800  0.02760467  0.11983700  1.0
  Ta  Ta85  1  0.36093800  0.36093800  0.11983700  1.0
  Ta  Ta86  1  0.36093800  0.69427133  0.11983700  1.0
  Ta  Ta87  1  0.69427133  0.02760467  0.11983700  1.0
  Ta  Ta88  1  0.69427133  0.36093800  0.11983700  1.0
  Ta  Ta89  1  0.69427133  0.69427133  0.11983700  1.0
  Ta  Ta90  1  0.30572867  0.30572867  0.37139500  1.0
  Ta  Ta91  1  0.30572867  0.63906200  0.37139500  1.0
  Ta  Ta92  1  0.30572867  0.97239533  0.37139500  1.0
  Ta  Ta93  1  0.63906200  0.30572867  0.37139500  1.0
  Ta  Ta94  1  0.63906200  0.63906200  0.37139500  1.0
  Ta  Ta95  1  0.63906200  0.97239533  0.37139500  1.0
  Ta  Ta96  1  0.97239533  0.30572867  0.37139500  1.0
  Ta  Ta97  1  0.97239533  0.63906200  0.37139500  1.0
  Ta  Ta98  1  0.97239533  0.97239533  0.37139500  1.0
  Ta  Ta99  1  0.13871800  0.13871800  0.11984700  1.0
  Ta  Ta100  1  0.13871800  0.47205133  0.11984700  1.0
  Ta  Ta101  1  0.13871800  0.80538467  0.11984700  1.0
  Ta  Ta102  1  0.47205133  0.13871800  0.11984700  1.0
  Ta  Ta103  1  0.47205133  0.47205133  0.11984700  1.0
  Ta  Ta104  1  0.47205133  0.80538467  0.11984700  1.0
  Ta  Ta105  1  0.80538467  0.13871800  0.11984700  1.0
  Ta  Ta106  1  0.80538467  0.47205133  0.11984700  1.0
  Ta  Ta107  1  0.80538467  0.80538467  0.11984700  1.0
  Ta  Ta108  1  0.16666667  0.16666667  0.24561600  1.0
  Ta  Ta109  1  0.16666667  0.50000000  0.24561600  1.0
  Ta  Ta110  1  0.16666667  0.83333333  0.24561600  1.0
  Ta  Ta111  1  0.50000000  0.16666667  0.24561600  1.0
  Ta  Ta112  1  0.50000000  0.50000000  0.24561600  1.0
  Ta  Ta113  1  0.50000000  0.83333333  0.24561600  1.0
  Ta  Ta114  1  0.83333333  0.16666667  0.24561600  1.0
  Ta  Ta115  1  0.83333333  0.50000000  0.24561600  1.0
  Ta  Ta116  1  0.83333333  0.83333333  0.24561600  1.0
  Ni  Ni117  1  0.26506267  0.09855267  0.43863300  1.0
  Ni  Ni118  1  0.26506267  0.43188600  0.43863300  1.0
  Ni  Ni119  1  0.26506267  0.76521933  0.43863300  1.0
  Ni  Ni120  1  0.59839600  0.09855267  0.43863300  1.0
  Ni  Ni121  1  0.59839600  0.43188600  0.43863300  1.0
  Ni  Ni122  1  0.59839600  0.76521933  0.43863300  1.0
  Ni  Ni123  1  0.93172933  0.09855267  0.43863300  1.0
  Ni  Ni124  1  0.93172933  0.43188600  0.43863300  1.0
  Ni  Ni125  1  0.93172933  0.76521933  0.43863300  1.0
  Ni  Ni126  1  0.09710700  0.26671067  0.18700300  1.0
  Ni  Ni127  1  0.09710700  0.60004400  0.18700300  1.0
  Ni  Ni128  1  0.09710700  0.93337733  0.18700300  1.0
  Ni  Ni129  1  0.43044033  0.26671067  0.18700300  1.0
  Ni  Ni130  1  0.43044033  0.60004400  0.18700300  1.0
  Ni  Ni131  1  0.43044033  0.93337733  0.18700300  1.0
  Ni  Ni132  1  0.76377367  0.26671067  0.18700300  1.0
  Ni  Ni133  1  0.76377367  0.60004400  0.18700300  1.0
  Ni  Ni134  1  0.76377367  0.93337733  0.18700300  1.0
  Ni  Ni135  1  0.26506267  0.26506267  0.43863300  1.0
  Ni  Ni136  1  0.26506267  0.59839600  0.43863300  1.0
  Ni  Ni137  1  0.26506267  0.93172933  0.43863300  1.0
  Ni  Ni138  1  0.59839600  0.26506267  0.43863300  1.0
  Ni  Ni139  1  0.59839600  0.59839600  0.43863300  1.0
  Ni  Ni140  1  0.59839600  0.93172933  0.43863300  1.0
  Ni  Ni141  1  0.93172933  0.26506267  0.43863300  1.0
  Ni  Ni142  1  0.93172933  0.59839600  0.43863300  1.0
  Ni  Ni143  1  0.93172933  0.93172933  0.43863300  1.0
  Ni  Ni144  1  0.09710700  0.09710700  0.18700300  1.0
  Ni  Ni145  1  0.09710700  0.43044033  0.18700300  1.0
  Ni  Ni146  1  0.09710700  0.76377367  0.18700300  1.0
  Ni  Ni147  1  0.43044033  0.09710700  0.18700300  1.0
  Ni  Ni148  1  0.43044033  0.43044033  0.18700300  1.0
  Ni  Ni149  1  0.43044033  0.76377367  0.18700300  1.0
  Ni  Ni150  1  0.76377367  0.09710700  0.18700300  1.0
  Ni  Ni151  1  0.76377367  0.43044033  0.18700300  1.0
  Ni  Ni152  1  0.76377367  0.76377367  0.18700300  1.0
  Ni  Ni153  1  0.09855267  0.26506267  0.43863300  1.0
  Ni  Ni154  1  0.09855267  0.59839600  0.43863300  1.0
  Ni  Ni155  1  0.09855267  0.93172933  0.43863300  1.0
  Ni  Ni156  1  0.43188600  0.26506267  0.43863300  1.0
  Ni  Ni157  1  0.43188600  0.59839600  0.43863300  1.0
  Ni  Ni158  1  0.43188600  0.93172933  0.43863300  1.0
  Ni  Ni159  1  0.76521933  0.26506267  0.43863300  1.0
  Ni  Ni160  1  0.76521933  0.59839600  0.43863300  1.0
  Ni  Ni161  1  0.76521933  0.93172933  0.43863300  1.0
  Ni  Ni162  1  0.26671067  0.09710700  0.18700300  1.0
  Ni  Ni163  1  0.26671067  0.43044033  0.18700300  1.0
  Ni  Ni164  1  0.26671067  0.76377367  0.18700300  1.0
  Ni  Ni165  1  0.60004400  0.09710700  0.18700300  1.0
  Ni  Ni166  1  0.60004400  0.43044033  0.18700300  1.0
  Ni  Ni167  1  0.60004400  0.76377367  0.18700300  1.0
  Ni  Ni168  1  0.93337733  0.09710700  0.18700300  1.0
  Ni  Ni169  1  0.93337733  0.43044033  0.18700300  1.0
  Ni  Ni170  1  0.93337733  0.76377367  0.18700300  1.0
  Ni  Ni171  1  0.23622633  0.06662267  0.30422900  1.0
  Ni  Ni172  1  0.23622633  0.39995600  0.30422900  1.0
  Ni  Ni173  1  0.23622633  0.73328933  0.30422900  1.0
  Ni  Ni174  1  0.56955967  0.06662267  0.30422900  1.0
  Ni  Ni175  1  0.56955967  0.39995600  0.30422900  1.0
  Ni  Ni176  1  0.56955967  0.73328933  0.30422900  1.0
  Ni  Ni177  1  0.90289300  0.06662267  0.30422900  1.0
  Ni  Ni178  1  0.90289300  0.39995600  0.30422900  1.0
  Ni  Ni179  1  0.90289300  0.73328933  0.30422900  1.0
  Ni  Ni180  1  0.06827067  0.23478067  0.05259900  1.0
  Ni  Ni181  1  0.06827067  0.56811400  0.05259900  1.0
  Ni  Ni182  1  0.06827067  0.90144733  0.05259900  1.0
  Ni  Ni183  1  0.40160400  0.23478067  0.05259900  1.0
  Ni  Ni184  1  0.40160400  0.56811400  0.05259900  1.0
  Ni  Ni185  1  0.40160400  0.90144733  0.05259900  1.0
  Ni  Ni186  1  0.73493733  0.23478067  0.05259900  1.0
  Ni  Ni187  1  0.73493733  0.56811400  0.05259900  1.0
  Ni  Ni188  1  0.73493733  0.90144733  0.05259900  1.0
  Ni  Ni189  1  0.23622633  0.23622633  0.30422900  1.0
  Ni  Ni190  1  0.23622633  0.56955967  0.30422900  1.0
  Ni  Ni191  1  0.23622633  0.90289300  0.30422900  1.0
  Ni  Ni192  1  0.56955967  0.23622633  0.30422900  1.0
  Ni  Ni193  1  0.56955967  0.56955967  0.30422900  1.0
  Ni  Ni194  1  0.56955967  0.90289300  0.30422900  1.0
  Ni  Ni195  1  0.90289300  0.23622633  0.30422900  1.0
  Ni  Ni196  1  0.90289300  0.56955967  0.30422900  1.0
  Ni  Ni197  1  0.90289300  0.90289300  0.30422900  1.0
  Ni  Ni198  1  0.06827067  0.06827067  0.05259900  1.0
  Ni  Ni199  1  0.06827067  0.40160400  0.05259900  1.0
  Ni  Ni200  1  0.06827067  0.73493733  0.05259900  1.0
  Ni  Ni201  1  0.40160400  0.06827067  0.05259900  1.0
  Ni  Ni202  1  0.40160400  0.40160400  0.05259900  1.0
  Ni  Ni203  1  0.40160400  0.73493733  0.05259900  1.0
  Ni  Ni204  1  0.73493733  0.06827067  0.05259900  1.0
  Ni  Ni205  1  0.73493733  0.40160400  0.05259900  1.0
  Ni  Ni206  1  0.73493733  0.73493733  0.05259900  1.0
  Ni  Ni207  1  0.06662267  0.23622633  0.30422900  1.0
  Ni  Ni208  1  0.06662267  0.56955967  0.30422900  1.0
  Ni  Ni209  1  0.06662267  0.90289300  0.30422900  1.0
  Ni  Ni210  1  0.39995600  0.23622633  0.30422900  1.0
  Ni  Ni211  1  0.39995600  0.56955967  0.30422900  1.0
  Ni  Ni212  1  0.39995600  0.90289300  0.30422900  1.0
  Ni  Ni213  1  0.73328933  0.23622633  0.30422900  1.0
  Ni  Ni214  1  0.73328933  0.56955967  0.30422900  1.0
  Ni  Ni215  1  0.73328933  0.90289300  0.30422900  1.0
  Ni  Ni216  1  0.23478067  0.06827067  0.05259900  1.0
  Ni  Ni217  1  0.23478067  0.40160400  0.05259900  1.0
  Ni  Ni218  1  0.23478067  0.73493733  0.05259900  1.0
  Ni  Ni219  1  0.56811400  0.06827067  0.05259900  1.0
  Ni  Ni220  1  0.56811400  0.40160400  0.05259900  1.0
  Ni  Ni221  1  0.56811400  0.73493733  0.05259900  1.0
  Ni  Ni222  1  0.90144733  0.06827067  0.05259900  1.0
  Ni  Ni223  1  0.90144733  0.40160400  0.05259900  1.0
  Ni  Ni224  1  0.90144733  0.73493733  0.05259900  1.0
  Ni  Ni225  1  0.00000000  0.00000000  0.49561600  1.0
  Ni  Ni226  1  0.00000000  0.33333333  0.49561600  1.0
  Ni  Ni227  1  0.00000000  0.66666667  0.49561600  1.0
  Ni  Ni228  1  0.33333333  0.00000000  0.49561600  1.0
  Ni  Ni229  1  0.33333333  0.33333333  0.49561600  1.0
  Ni  Ni230  1  0.33333333  0.66666667  0.49561600  1.0
  Ni  Ni231  1  0.66666667  0.00000000  0.49561600  1.0
  Ni  Ni232  1  0.66666667  0.33333333  0.49561600  1.0
  Ni  Ni233  1  0.66666667  0.66666667  0.49561600  1.0
