# generated using pymatgen
data_TaNi2
_symmetry_space_group_name_H-M   'P 1'
_cell_length_a   19.13694578
_cell_length_b   23.38980627
_cell_length_c   25.36846905
_cell_angle_alpha   94.22493552
_cell_angle_beta   96.95500689
_cell_angle_gamma   107.03680124
_symmetry_Int_Tables_number   1
_chemical_formula_structural   TaNi2
_chemical_formula_sum   'Ta108 Ni216'
_cell_volume   10705.46826410
_cell_formula_units_Z   108
loop_
 _symmetry_equiv_pos_site_id
 _symmetry_equiv_pos_as_xyz
  1  'x, y, z'
loop_
 _atom_site_type_symbol
 _atom_site_label
 _atom_site_symmetry_multiplicity
 _atom_site_fract_x
 _atom_site_fract_y
 _atom_site_fract_z
 _atom_site_occupancy
  Ni  Ni0  1  0.06138513  0.07235923  0.01674140  1.0
  Ni  Ni1  1  0.06138513  0.40569257  0.01674140  1.0
  Ni  Ni2  1  0.06138513  0.73902590  0.01674140  1.0
  Ni  Ni3  1  0.39471847  0.07235923  0.01674140  1.0
  Ni  Ni4  1  0.39471847  0.40569257  0.01674140  1.0
  Ni  Ni5  1  0.39471847  0.73902590  0.01674140  1.0
  Ni  Ni6  1  0.72805180  0.07235923  0.01674140  1.0
  Ni  Ni7  1  0.72805180  0.40569257  0.01674140  1.0
  Ni  Ni8  1  0.72805180  0.73902590  0.01674140  1.0
  Ni  Ni9  1  0.18360736  0.27235923  0.05007473  1.0
  Ni  Ni10  1  0.18360736  0.60569257  0.05007473  1.0
  Ni  Ni11  1  0.18360736  0.93902590  0.05007473  1.0
  Ni  Ni12  1  0.51694069  0.27235923  0.05007473  1.0
  Ni  Ni13  1  0.51694069  0.60569257  0.05007473  1.0
  Ni  Ni14  1  0.51694069  0.93902590  0.05007473  1.0
  Ni  Ni15  1  0.85027402  0.27235923  0.05007473  1.0
  Ni  Ni16  1  0.85027402  0.60569257  0.05007473  1.0
  Ni  Ni17  1  0.85027402  0.93902590  0.05007473  1.0
  Ni  Ni18  1  0.18333333  0.16104883  0.05000000  1.0
  Ni  Ni19  1  0.18333333  0.49438217  0.05000000  1.0
  Ni  Ni20  1  0.18333333  0.82771550  0.05000000  1.0
  Ni  Ni21  1  0.51666667  0.16104883  0.05000000  1.0
  Ni  Ni22  1  0.51666667  0.49438217  0.05000000  1.0
  Ni  Ni23  1  0.51666667  0.82771550  0.05000000  1.0
  Ni  Ni24  1  0.85000000  0.16104883  0.05000000  1.0
  Ni  Ni25  1  0.85000000  0.49438217  0.05000000  1.0
  Ni  Ni26  1  0.85000000  0.82771550  0.05000000  1.0
  Ni  Ni27  1  0.06111111  0.29438217  0.01666667  1.0
  Ni  Ni28  1  0.06111111  0.62771550  0.01666667  1.0
  Ni  Ni29  1  0.06111111  0.96104883  0.01666667  1.0
  Ni  Ni30  1  0.39444444  0.29438217  0.01666667  1.0
  Ni  Ni31  1  0.39444444  0.62771550  0.01666667  1.0
  Ni  Ni32  1  0.39444444  0.96104883  0.01666667  1.0
  Ni  Ni33  1  0.72777778  0.29438217  0.01666667  1.0
  Ni  Ni34  1  0.72777778  0.62771550  0.01666667  1.0
  Ni  Ni35  1  0.72777778  0.96104883  0.01666667  1.0
  Ni  Ni36  1  0.30582958  0.13902590  0.08340807  1.0
  Ni  Ni37  1  0.30582958  0.47235923  0.08340807  1.0
  Ni  Ni38  1  0.30582958  0.80569257  0.08340807  1.0
  Ni  Ni39  1  0.63916291  0.13902590  0.08340807  1.0
  Ni  Ni40  1  0.63916291  0.47235923  0.08340807  1.0
  Ni  Ni41  1  0.63916291  0.80569257  0.08340807  1.0
  Ni  Ni42  1  0.97249624  0.13902590  0.08340807  1.0
  Ni  Ni43  1  0.97249624  0.47235923  0.08340807  1.0
  Ni  Ni44  1  0.97249624  0.80569257  0.08340807  1.0
  Ni  Ni45  1  0.09471847  0.00569257  0.11674140  1.0
  Ni  Ni46  1  0.09471847  0.33902590  0.11674140  1.0
  Ni  Ni47  1  0.09471847  0.67235923  0.11674140  1.0
  Ni  Ni48  1  0.42805180  0.00569257  0.11674140  1.0
  Ni  Ni49  1  0.42805180  0.33902590  0.11674140  1.0
  Ni  Ni50  1  0.42805180  0.67235923  0.11674140  1.0
  Ni  Ni51  1  0.76138513  0.00569257  0.11674140  1.0
  Ni  Ni52  1  0.76138513  0.33902590  0.11674140  1.0
  Ni  Ni53  1  0.76138513  0.67235923  0.11674140  1.0
  Ni  Ni54  1  0.09444444  0.22771550  0.11666667  1.0
  Ni  Ni55  1  0.09444444  0.56104883  0.11666667  1.0
  Ni  Ni56  1  0.09444444  0.89438217  0.11666667  1.0
  Ni  Ni57  1  0.42777778  0.22771550  0.11666667  1.0
  Ni  Ni58  1  0.42777778  0.56104883  0.11666667  1.0
  Ni  Ni59  1  0.42777778  0.89438217  0.11666667  1.0
  Ni  Ni60  1  0.76111111  0.22771550  0.11666667  1.0
  Ni  Ni61  1  0.76111111  0.56104883  0.11666667  1.0
  Ni  Ni62  1  0.76111111  0.89438217  0.11666667  1.0
  Ni  Ni63  1  0.30555556  0.02771550  0.08333333  1.0
  Ni  Ni64  1  0.30555556  0.36104883  0.08333333  1.0
  Ni  Ni65  1  0.30555556  0.69438217  0.08333333  1.0
  Ni  Ni66  1  0.63888889  0.02771550  0.08333333  1.0
  Ni  Ni67  1  0.63888889  0.36104883  0.08333333  1.0
  Ni  Ni68  1  0.63888889  0.69438217  0.08333333  1.0
  Ni  Ni69  1  0.97222222  0.02771550  0.08333333  1.0
  Ni  Ni70  1  0.97222222  0.36104883  0.08333333  1.0
  Ni  Ni71  1  0.97222222  0.69438217  0.08333333  1.0
  Ni  Ni72  1  0.21694069  0.20569257  0.15007473  1.0
  Ni  Ni73  1  0.21694069  0.53902590  0.15007473  1.0
  Ni  Ni74  1  0.21694069  0.87235923  0.15007473  1.0
  Ni  Ni75  1  0.55027402  0.20569257  0.15007473  1.0
  Ni  Ni76  1  0.55027402  0.53902590  0.15007473  1.0
  Ni  Ni77  1  0.55027402  0.87235923  0.15007473  1.0
  Ni  Ni78  1  0.88360736  0.20569257  0.15007473  1.0
  Ni  Ni79  1  0.88360736  0.53902590  0.15007473  1.0
  Ni  Ni80  1  0.88360736  0.87235923  0.15007473  1.0
  Ni  Ni81  1  0.00582958  0.07235923  0.18340807  1.0
  Ni  Ni82  1  0.00582958  0.40569257  0.18340807  1.0
  Ni  Ni83  1  0.00582958  0.73902590  0.18340807  1.0
  Ni  Ni84  1  0.33916291  0.07235923  0.18340807  1.0
  Ni  Ni85  1  0.33916291  0.40569257  0.18340807  1.0
  Ni  Ni86  1  0.33916291  0.73902590  0.18340807  1.0
  Ni  Ni87  1  0.67249624  0.07235923  0.18340807  1.0
  Ni  Ni88  1  0.67249624  0.40569257  0.18340807  1.0
  Ni  Ni89  1  0.67249624  0.73902590  0.18340807  1.0
  Ni  Ni90  1  0.00555556  0.29438217  0.18333333  1.0
  Ni  Ni91  1  0.00555556  0.62771550  0.18333333  1.0
  Ni  Ni92  1  0.00555556  0.96104883  0.18333333  1.0
  Ni  Ni93  1  0.33888889  0.29438217  0.18333333  1.0
  Ni  Ni94  1  0.33888889  0.62771550  0.18333333  1.0
  Ni  Ni95  1  0.33888889  0.96104883  0.18333333  1.0
  Ni  Ni96  1  0.67222222  0.29438217  0.18333333  1.0
  Ni  Ni97  1  0.67222222  0.62771550  0.18333333  1.0
  Ni  Ni98  1  0.67222222  0.96104883  0.18333333  1.0
  Ni  Ni99  1  0.21666667  0.09438217  0.15000000  1.0
  Ni  Ni100  1  0.21666667  0.42771550  0.15000000  1.0
  Ni  Ni101  1  0.21666667  0.76104883  0.15000000  1.0
  Ni  Ni102  1  0.55000000  0.09438217  0.15000000  1.0
  Ni  Ni103  1  0.55000000  0.42771550  0.15000000  1.0
  Ni  Ni104  1  0.55000000  0.76104883  0.15000000  1.0
  Ni  Ni105  1  0.88333333  0.09438217  0.15000000  1.0
  Ni  Ni106  1  0.88333333  0.42771550  0.15000000  1.0
  Ni  Ni107  1  0.88333333  0.76104883  0.15000000  1.0
  Ni  Ni108  1  0.12805180  0.27235923  0.21674140  1.0
  Ni  Ni109  1  0.12805180  0.60569257  0.21674140  1.0
  Ni  Ni110  1  0.12805180  0.93902590  0.21674140  1.0
  Ni  Ni111  1  0.46138513  0.27235923  0.21674140  1.0
  Ni  Ni112  1  0.46138513  0.60569257  0.21674140  1.0
  Ni  Ni113  1  0.46138513  0.93902590  0.21674140  1.0
  Ni  Ni114  1  0.79471847  0.27235923  0.21674140  1.0
  Ni  Ni115  1  0.79471847  0.60569257  0.21674140  1.0
  Ni  Ni116  1  0.79471847  0.93902590  0.21674140  1.0
  Ni  Ni117  1  0.25027402  0.13902590  0.25007473  1.0
  Ni  Ni118  1  0.25027402  0.47235923  0.25007473  1.0
  Ni  Ni119  1  0.25027402  0.80569257  0.25007473  1.0
  Ni  Ni120  1  0.58360736  0.13902590  0.25007473  1.0
  Ni  Ni121  1  0.58360736  0.47235923  0.25007473  1.0
  Ni  Ni122  1  0.58360736  0.80569257  0.25007473  1.0
  Ni  Ni123  1  0.91694069  0.13902590  0.25007473  1.0
  Ni  Ni124  1  0.91694069  0.47235923  0.25007473  1.0
  Ni  Ni125  1  0.91694069  0.80569257  0.25007473  1.0
  Ni  Ni126  1  0.25000000  0.02771550  0.25000000  1.0
  Ni  Ni127  1  0.25000000  0.36104883  0.25000000  1.0
  Ni  Ni128  1  0.25000000  0.69438217  0.25000000  1.0
  Ni  Ni129  1  0.58333333  0.02771550  0.25000000  1.0
  Ni  Ni130  1  0.58333333  0.36104883  0.25000000  1.0
  Ni  Ni131  1  0.58333333  0.69438217  0.25000000  1.0
  Ni  Ni132  1  0.91666667  0.02771550  0.25000000  1.0
  Ni  Ni133  1  0.91666667  0.36104883  0.25000000  1.0
  Ni  Ni134  1  0.91666667  0.69438217  0.25000000  1.0
  Ni  Ni135  1  0.12777778  0.16104883  0.21666667  1.0
  Ni  Ni136  1  0.12777778  0.49438217  0.21666667  1.0
  Ni  Ni137  1  0.12777778  0.82771550  0.21666667  1.0
  Ni  Ni138  1  0.46111111  0.16104883  0.21666667  1.0
  Ni  Ni139  1  0.46111111  0.49438217  0.21666667  1.0
  Ni  Ni140  1  0.46111111  0.82771550  0.21666667  1.0
  Ni  Ni141  1  0.79444444  0.16104883  0.21666667  1.0
  Ni  Ni142  1  0.79444444  0.49438217  0.21666667  1.0
  Ni  Ni143  1  0.79444444  0.82771550  0.21666667  1.0
  Ni  Ni144  1  0.03916291  0.00569257  0.28340807  1.0
  Ni  Ni145  1  0.03916291  0.33902590  0.28340807  1.0
  Ni  Ni146  1  0.03916291  0.67235923  0.28340807  1.0
  Ni  Ni147  1  0.37249624  0.00569257  0.28340807  1.0
  Ni  Ni148  1  0.37249624  0.33902590  0.28340807  1.0
  Ni  Ni149  1  0.37249624  0.67235923  0.28340807  1.0
  Ni  Ni150  1  0.70582958  0.00569257  0.28340807  1.0
  Ni  Ni151  1  0.70582958  0.33902590  0.28340807  1.0
  Ni  Ni152  1  0.70582958  0.67235923  0.28340807  1.0
  Ni  Ni153  1  0.16138513  0.20569257  0.31674140  1.0
  Ni  Ni154  1  0.16138513  0.53902590  0.31674140  1.0
  Ni  Ni155  1  0.16138513  0.87235923  0.31674140  1.0
  Ni  Ni156  1  0.49471847  0.20569257  0.31674140  1.0
  Ni  Ni157  1  0.49471847  0.53902590  0.31674140  1.0
  Ni  Ni158  1  0.49471847  0.87235923  0.31674140  1.0
  Ni  Ni159  1  0.82805180  0.20569257  0.31674140  1.0
  Ni  Ni160  1  0.82805180  0.53902590  0.31674140  1.0
  Ni  Ni161  1  0.82805180  0.87235923  0.31674140  1.0
  Ni  Ni162  1  0.16111111  0.09438217  0.31666667  1.0
  Ni  Ni163  1  0.16111111  0.42771550  0.31666667  1.0
  Ni  Ni164  1  0.16111111  0.76104883  0.31666667  1.0
  Ni  Ni165  1  0.49444444  0.09438217  0.31666667  1.0
  Ni  Ni166  1  0.49444444  0.42771550  0.31666667  1.0
  Ni  Ni167  1  0.49444444  0.76104883  0.31666667  1.0
  Ni  Ni168  1  0.82777778  0.09438217  0.31666667  1.0
  Ni  Ni169  1  0.82777778  0.42771550  0.31666667  1.0
  Ni  Ni170  1  0.82777778  0.76104883  0.31666667  1.0
  Ni  Ni171  1  0.03888889  0.22771550  0.28333333  1.0
  Ni  Ni172  1  0.03888889  0.56104883  0.28333333  1.0
  Ni  Ni173  1  0.03888889  0.89438217  0.28333333  1.0
  Ni  Ni174  1  0.37222222  0.22771550  0.28333333  1.0
  Ni  Ni175  1  0.37222222  0.56104883  0.28333333  1.0
  Ni  Ni176  1  0.37222222  0.89438217  0.28333333  1.0
  Ni  Ni177  1  0.70555556  0.22771550  0.28333333  1.0
  Ni  Ni178  1  0.70555556  0.56104883  0.28333333  1.0
  Ni  Ni179  1  0.70555556  0.89438217  0.28333333  1.0
  Ni  Ni180  1  0.28360736  0.07235923  0.35007473  1.0
  Ni  Ni181  1  0.28360736  0.40569257  0.35007473  1.0
  Ni  Ni182  1  0.28360736  0.73902590  0.35007473  1.0
  Ni  Ni183  1  0.61694069  0.07235923  0.35007473  1.0
  Ni  Ni184  1  0.61694069  0.40569257  0.35007473  1.0
  Ni  Ni185  1  0.61694069  0.73902590  0.35007473  1.0
  Ni  Ni186  1  0.95027402  0.07235923  0.35007473  1.0
  Ni  Ni187  1  0.95027402  0.40569257  0.35007473  1.0
  Ni  Ni188  1  0.95027402  0.73902590  0.35007473  1.0
  Ni  Ni189  1  0.07249624  0.27235923  0.38340807  1.0
  Ni  Ni190  1  0.07249624  0.60569257  0.38340807  1.0
  Ni  Ni191  1  0.07249624  0.93902590  0.38340807  1.0
  Ni  Ni192  1  0.40582958  0.27235923  0.38340807  1.0
  Ni  Ni193  1  0.40582958  0.60569257  0.38340807  1.0
  Ni  Ni194  1  0.40582958  0.93902590  0.38340807  1.0
  Ni  Ni195  1  0.73916291  0.27235923  0.38340807  1.0
  Ni  Ni196  1  0.73916291  0.60569257  0.38340807  1.0
  Ni  Ni197  1  0.73916291  0.93902590  0.38340807  1.0
  Ni  Ni198  1  0.07222222  0.16104883  0.38333333  1.0
  Ni  Ni199  1  0.07222222  0.49438217  0.38333333  1.0
  Ni  Ni200  1  0.07222222  0.82771550  0.38333333  1.0
  Ni  Ni201  1  0.40555556  0.16104883  0.38333333  1.0
  Ni  Ni202  1  0.40555556  0.49438217  0.38333333  1.0
  Ni  Ni203  1  0.40555556  0.82771550  0.38333333  1.0
  Ni  Ni204  1  0.73888889  0.16104883  0.38333333  1.0
  Ni  Ni205  1  0.73888889  0.49438217  0.38333333  1.0
  Ni  Ni206  1  0.73888889  0.82771550  0.38333333  1.0
  Ni  Ni207  1  0.28333333  0.29438217  0.35000000  1.0
  Ni  Ni208  1  0.28333333  0.62771550  0.35000000  1.0
  Ni  Ni209  1  0.28333333  0.96104883  0.35000000  1.0
  Ni  Ni210  1  0.61666667  0.29438217  0.35000000  1.0
  Ni  Ni211  1  0.61666667  0.62771550  0.35000000  1.0
  Ni  Ni212  1  0.61666667  0.96104883  0.35000000  1.0
  Ni  Ni213  1  0.95000000  0.29438217  0.35000000  1.0
  Ni  Ni214  1  0.95000000  0.62771550  0.35000000  1.0
  Ni  Ni215  1  0.95000000  0.96104883  0.35000000  1.0
  Ta  Ta216  1  0.18347034  0.05003737  0.05003737  1.0
  Ta  Ta217  1  0.18347034  0.38337070  0.05003737  1.0
  Ta  Ta218  1  0.18347034  0.71670403  0.05003737  1.0
  Ta  Ta219  1  0.51680368  0.05003737  0.05003737  1.0
  Ta  Ta220  1  0.51680368  0.38337070  0.05003737  1.0
  Ta  Ta221  1  0.51680368  0.71670403  0.05003737  1.0
  Ta  Ta222  1  0.85013701  0.05003737  0.05003737  1.0
  Ta  Ta223  1  0.85013701  0.38337070  0.05003737  1.0
  Ta  Ta224  1  0.85013701  0.71670403  0.05003737  1.0
  Ta  Ta225  1  0.06124812  0.18337070  0.01670403  1.0
  Ta  Ta226  1  0.06124812  0.51670403  0.01670403  1.0
  Ta  Ta227  1  0.06124812  0.85003737  0.01670403  1.0
  Ta  Ta228  1  0.39458146  0.18337070  0.01670403  1.0
  Ta  Ta229  1  0.39458146  0.51670403  0.01670403  1.0
  Ta  Ta230  1  0.39458146  0.85003737  0.01670403  1.0
  Ta  Ta231  1  0.72791479  0.18337070  0.01670403  1.0
  Ta  Ta232  1  0.72791479  0.51670403  0.01670403  1.0
  Ta  Ta233  1  0.72791479  0.85003737  0.01670403  1.0
  Ta  Ta234  1  0.09458146  0.11670403  0.11670403  1.0
  Ta  Ta235  1  0.09458146  0.45003737  0.11670403  1.0
  Ta  Ta236  1  0.09458146  0.78337070  0.11670403  1.0
  Ta  Ta237  1  0.42791479  0.11670403  0.11670403  1.0
  Ta  Ta238  1  0.42791479  0.45003737  0.11670403  1.0
  Ta  Ta239  1  0.42791479  0.78337070  0.11670403  1.0
  Ta  Ta240  1  0.76124812  0.11670403  0.11670403  1.0
  Ta  Ta241  1  0.76124812  0.45003737  0.11670403  1.0
  Ta  Ta242  1  0.76124812  0.78337070  0.11670403  1.0
  Ta  Ta243  1  0.30569257  0.25003737  0.08337070  1.0
  Ta  Ta244  1  0.30569257  0.58337070  0.08337070  1.0
  Ta  Ta245  1  0.30569257  0.91670403  0.08337070  1.0
  Ta  Ta246  1  0.63902590  0.25003737  0.08337070  1.0
  Ta  Ta247  1  0.63902590  0.58337070  0.08337070  1.0
  Ta  Ta248  1  0.63902590  0.91670403  0.08337070  1.0
  Ta  Ta249  1  0.97235923  0.25003737  0.08337070  1.0
  Ta  Ta250  1  0.97235923  0.58337070  0.08337070  1.0
  Ta  Ta251  1  0.97235923  0.91670403  0.08337070  1.0
  Ta  Ta252  1  0.00569257  0.18337070  0.18337070  1.0
  Ta  Ta253  1  0.00569257  0.51670403  0.18337070  1.0
  Ta  Ta254  1  0.00569257  0.85003737  0.18337070  1.0
  Ta  Ta255  1  0.33902590  0.18337070  0.18337070  1.0
  Ta  Ta256  1  0.33902590  0.51670403  0.18337070  1.0
  Ta  Ta257  1  0.33902590  0.85003737  0.18337070  1.0
  Ta  Ta258  1  0.67235923  0.18337070  0.18337070  1.0
  Ta  Ta259  1  0.67235923  0.51670403  0.18337070  1.0
  Ta  Ta260  1  0.67235923  0.85003737  0.18337070  1.0
  Ta  Ta261  1  0.21680368  0.31670403  0.15003737  1.0
  Ta  Ta262  1  0.21680368  0.65003737  0.15003737  1.0
  Ta  Ta263  1  0.21680368  0.98337070  0.15003737  1.0
  Ta  Ta264  1  0.55013701  0.31670403  0.15003737  1.0
  Ta  Ta265  1  0.55013701  0.65003737  0.15003737  1.0
  Ta  Ta266  1  0.55013701  0.98337070  0.15003737  1.0
  Ta  Ta267  1  0.88347034  0.31670403  0.15003737  1.0
  Ta  Ta268  1  0.88347034  0.65003737  0.15003737  1.0
  Ta  Ta269  1  0.88347034  0.98337070  0.15003737  1.0
  Ta  Ta270  1  0.25013701  0.25003737  0.25003737  1.0
  Ta  Ta271  1  0.25013701  0.58337070  0.25003737  1.0
  Ta  Ta272  1  0.25013701  0.91670403  0.25003737  1.0
  Ta  Ta273  1  0.58347034  0.25003737  0.25003737  1.0
  Ta  Ta274  1  0.58347034  0.58337070  0.25003737  1.0
  Ta  Ta275  1  0.58347034  0.91670403  0.25003737  1.0
  Ta  Ta276  1  0.91680368  0.25003737  0.25003737  1.0
  Ta  Ta277  1  0.91680368  0.58337070  0.25003737  1.0
  Ta  Ta278  1  0.91680368  0.91670403  0.25003737  1.0
  Ta  Ta279  1  0.12791479  0.05003737  0.21670403  1.0
  Ta  Ta280  1  0.12791479  0.38337070  0.21670403  1.0
  Ta  Ta281  1  0.12791479  0.71670403  0.21670403  1.0
  Ta  Ta282  1  0.46124812  0.05003737  0.21670403  1.0
  Ta  Ta283  1  0.46124812  0.38337070  0.21670403  1.0
  Ta  Ta284  1  0.46124812  0.71670403  0.21670403  1.0
  Ta  Ta285  1  0.79458146  0.05003737  0.21670403  1.0
  Ta  Ta286  1  0.79458146  0.38337070  0.21670403  1.0
  Ta  Ta287  1  0.79458146  0.71670403  0.21670403  1.0
  Ta  Ta288  1  0.16124812  0.31670403  0.31670403  1.0
  Ta  Ta289  1  0.16124812  0.65003737  0.31670403  1.0
  Ta  Ta290  1  0.16124812  0.98337070  0.31670403  1.0
  Ta  Ta291  1  0.49458146  0.31670403  0.31670403  1.0
  Ta  Ta292  1  0.49458146  0.65003737  0.31670403  1.0
  Ta  Ta293  1  0.49458146  0.98337070  0.31670403  1.0
  Ta  Ta294  1  0.82791479  0.31670403  0.31670403  1.0
  Ta  Ta295  1  0.82791479  0.65003737  0.31670403  1.0
  Ta  Ta296  1  0.82791479  0.98337070  0.31670403  1.0
  Ta  Ta297  1  0.03902590  0.11670403  0.28337070  1.0
  Ta  Ta298  1  0.03902590  0.45003737  0.28337070  1.0
  Ta  Ta299  1  0.03902590  0.78337070  0.28337070  1.0
  Ta  Ta300  1  0.37235923  0.11670403  0.28337070  1.0
  Ta  Ta301  1  0.37235923  0.45003737  0.28337070  1.0
  Ta  Ta302  1  0.37235923  0.78337070  0.28337070  1.0
  Ta  Ta303  1  0.70569257  0.11670403  0.28337070  1.0
  Ta  Ta304  1  0.70569257  0.45003737  0.28337070  1.0
  Ta  Ta305  1  0.70569257  0.78337070  0.28337070  1.0
  Ta  Ta306  1  0.07235923  0.05003737  0.38337070  1.0
  Ta  Ta307  1  0.07235923  0.38337070  0.38337070  1.0
  Ta  Ta308  1  0.07235923  0.71670403  0.38337070  1.0
  Ta  Ta309  1  0.40569257  0.05003737  0.38337070  1.0
  Ta  Ta310  1  0.40569257  0.38337070  0.38337070  1.0
  Ta  Ta311  1  0.40569257  0.71670403  0.38337070  1.0
  Ta  Ta312  1  0.73902590  0.05003737  0.38337070  1.0
  Ta  Ta313  1  0.73902590  0.38337070  0.38337070  1.0
  Ta  Ta314  1  0.73902590  0.71670403  0.38337070  1.0
  Ta  Ta315  1  0.28347034  0.18337070  0.35003737  1.0
  Ta  Ta316  1  0.28347034  0.51670403  0.35003737  1.0
  Ta  Ta317  1  0.28347034  0.85003737  0.35003737  1.0
  Ta  Ta318  1  0.61680368  0.18337070  0.35003737  1.0
  Ta  Ta319  1  0.61680368  0.51670403  0.35003737  1.0
  Ta  Ta320  1  0.61680368  0.85003737  0.35003737  1.0
  Ta  Ta321  1  0.95013701  0.18337070  0.35003737  1.0
  Ta  Ta322  1  0.95013701  0.51670403  0.35003737  1.0
  Ta  Ta323  1  0.95013701  0.85003737  0.35003737  1.0
