# generated using pymatgen
data_TaNi2
_symmetry_space_group_name_H-M   'P 1'
_cell_length_a   9.50947799
_cell_length_b   36.14609892
_cell_length_c   27.27704512
_cell_angle_alpha   88.86246338
_cell_angle_beta   86.66899402
_cell_angle_gamma   82.44127815
_symmetry_Int_Tables_number   1
_chemical_formula_structural   TaNi2
_chemical_formula_sum   'Ta90 Ni180'
_cell_volume   9278.07249555
_cell_formula_units_Z   90
loop_
 _symmetry_equiv_pos_site_id
 _symmetry_equiv_pos_as_xyz
  1  'x, y, z'
loop_
 _atom_site_type_symbol
 _atom_site_label
 _atom_site_symmetry_multiplicity
 _atom_site_fract_x
 _atom_site_fract_y
 _atom_site_fract_z
 _atom_site_occupancy
  Ni  Ni0  1  0.08543655  0.19667222  0.98079079  1.0
  Ni  Ni1  1  0.08543655  0.53000555  0.98079079  1.0
  Ni  Ni2  1  0.08543655  0.86333888  0.98079079  1.0
  Ni  Ni3  1  0.41876988  0.19667222  0.98079079  1.0
  Ni  Ni4  1  0.41876988  0.53000555  0.98079079  1.0
  Ni  Ni5  1  0.41876988  0.86333888  0.98079079  1.0
  Ni  Ni6  1  0.75210322  0.19667222  0.98079079  1.0
  Ni  Ni7  1  0.75210322  0.53000555  0.98079079  1.0
  Ni  Ni8  1  0.75210322  0.86333888  0.98079079  1.0
  Ni  Ni9  1  0.20082117  0.31205683  0.94232925  1.0
  Ni  Ni10  1  0.20082117  0.64539017  0.94232925  1.0
  Ni  Ni11  1  0.20082117  0.97872350  0.94232925  1.0
  Ni  Ni12  1  0.53415450  0.31205683  0.94232925  1.0
  Ni  Ni13  1  0.53415450  0.64539017  0.94232925  1.0
  Ni  Ni14  1  0.53415450  0.97872350  0.94232925  1.0
  Ni  Ni15  1  0.86748783  0.31205683  0.94232925  1.0
  Ni  Ni16  1  0.86748783  0.64539017  0.94232925  1.0
  Ni  Ni17  1  0.86748783  0.97872350  0.94232925  1.0
  Ni  Ni18  1  0.04706124  0.26915891  0.99358256  1.0
  Ni  Ni19  1  0.04706124  0.60249224  0.99358256  1.0
  Ni  Ni20  1  0.04706124  0.93582558  0.99358256  1.0
  Ni  Ni21  1  0.38039458  0.26915891  0.99358256  1.0
  Ni  Ni22  1  0.38039458  0.60249224  0.99358256  1.0
  Ni  Ni23  1  0.38039458  0.93582558  0.99358256  1.0
  Ni  Ni24  1  0.71372791  0.26915891  0.99358256  1.0
  Ni  Ni25  1  0.71372791  0.60249224  0.99358256  1.0
  Ni  Ni26  1  0.71372791  0.93582558  0.99358256  1.0
  Ni  Ni27  1  0.16244586  0.05121019  0.95512102  1.0
  Ni  Ni28  1  0.16244586  0.38454353  0.95512102  1.0
  Ni  Ni29  1  0.16244586  0.71787686  0.95512102  1.0
  Ni  Ni30  1  0.49577919  0.05121019  0.95512102  1.0
  Ni  Ni31  1  0.49577919  0.38454353  0.95512102  1.0
  Ni  Ni32  1  0.49577919  0.71787686  0.95512102  1.0
  Ni  Ni33  1  0.82911253  0.05121019  0.95512102  1.0
  Ni  Ni34  1  0.82911253  0.38454353  0.95512102  1.0
  Ni  Ni35  1  0.82911253  0.71787686  0.95512102  1.0
  Ni  Ni36  1  0.31620578  0.09410812  0.90386771  1.0
  Ni  Ni37  1  0.31620578  0.42744145  0.90386771  1.0
  Ni  Ni38  1  0.31620578  0.76077478  0.90386771  1.0
  Ni  Ni39  1  0.64953912  0.09410812  0.90386771  1.0
  Ni  Ni40  1  0.64953912  0.42744145  0.90386771  1.0
  Ni  Ni41  1  0.64953912  0.76077478  0.90386771  1.0
  Ni  Ni42  1  0.98287245  0.09410812  0.90386771  1.0
  Ni  Ni43  1  0.98287245  0.42744145  0.90386771  1.0
  Ni  Ni44  1  0.98287245  0.76077478  0.90386771  1.0
  Ni  Ni45  1  0.09825706  0.20949273  0.86540617  1.0
  Ni  Ni46  1  0.09825706  0.54282606  0.86540617  1.0
  Ni  Ni47  1  0.09825706  0.87615940  0.86540617  1.0
  Ni  Ni48  1  0.43159040  0.20949273  0.86540617  1.0
  Ni  Ni49  1  0.43159040  0.54282606  0.86540617  1.0
  Ni  Ni50  1  0.43159040  0.87615940  0.86540617  1.0
  Ni  Ni51  1  0.76492373  0.20949273  0.86540617  1.0
  Ni  Ni52  1  0.76492373  0.54282606  0.86540617  1.0
  Ni  Ni53  1  0.76492373  0.87615940  0.86540617  1.0
  Ni  Ni54  1  0.27783047  0.16659481  0.91665948  1.0
  Ni  Ni55  1  0.27783047  0.49992814  0.91665948  1.0
  Ni  Ni56  1  0.27783047  0.83326147  0.91665948  1.0
  Ni  Ni57  1  0.61116381  0.16659481  0.91665948  1.0
  Ni  Ni58  1  0.61116381  0.49992814  0.91665948  1.0
  Ni  Ni59  1  0.61116381  0.83326147  0.91665948  1.0
  Ni  Ni60  1  0.94449714  0.16659481  0.91665948  1.0
  Ni  Ni61  1  0.94449714  0.49992814  0.91665948  1.0
  Ni  Ni62  1  0.94449714  0.83326147  0.91665948  1.0
  Ni  Ni63  1  0.05988176  0.28197942  0.87819794  1.0
  Ni  Ni64  1  0.05988176  0.61531276  0.87819794  1.0
  Ni  Ni65  1  0.05988176  0.94864609  0.87819794  1.0
  Ni  Ni66  1  0.39321509  0.28197942  0.87819794  1.0
  Ni  Ni67  1  0.39321509  0.61531276  0.87819794  1.0
  Ni  Ni68  1  0.39321509  0.94864609  0.87819794  1.0
  Ni  Ni69  1  0.72654842  0.28197942  0.87819794  1.0
  Ni  Ni70  1  0.72654842  0.61531276  0.87819794  1.0
  Ni  Ni71  1  0.72654842  0.94864609  0.87819794  1.0
  Ni  Ni72  1  0.21364168  0.32487735  0.82694463  1.0
  Ni  Ni73  1  0.21364168  0.65821068  0.82694463  1.0
  Ni  Ni74  1  0.21364168  0.99154401  0.82694463  1.0
  Ni  Ni75  1  0.54697501  0.32487735  0.82694463  1.0
  Ni  Ni76  1  0.54697501  0.65821068  0.82694463  1.0
  Ni  Ni77  1  0.54697501  0.99154401  0.82694463  1.0
  Ni  Ni78  1  0.88030835  0.32487735  0.82694463  1.0
  Ni  Ni79  1  0.88030835  0.65821068  0.82694463  1.0
  Ni  Ni80  1  0.88030835  0.99154401  0.82694463  1.0
  Ni  Ni81  1  0.32902629  0.10692863  0.78848310  1.0
  Ni  Ni82  1  0.32902629  0.44026196  0.78848310  1.0
  Ni  Ni83  1  0.32902629  0.77359529  0.78848310  1.0
  Ni  Ni84  1  0.66235963  0.10692863  0.78848310  1.0
  Ni  Ni85  1  0.66235963  0.44026196  0.78848310  1.0
  Ni  Ni86  1  0.66235963  0.77359529  0.78848310  1.0
  Ni  Ni87  1  0.99569296  0.10692863  0.78848310  1.0
  Ni  Ni88  1  0.99569296  0.44026196  0.78848310  1.0
  Ni  Ni89  1  0.99569296  0.77359529  0.78848310  1.0
  Ni  Ni90  1  0.17526637  0.06403071  0.83973640  1.0
  Ni  Ni91  1  0.17526637  0.39736404  0.83973640  1.0
  Ni  Ni92  1  0.17526637  0.73069737  0.83973640  1.0
  Ni  Ni93  1  0.50859971  0.06403071  0.83973640  1.0
  Ni  Ni94  1  0.50859971  0.39736404  0.83973640  1.0
  Ni  Ni95  1  0.50859971  0.73069737  0.83973640  1.0
  Ni  Ni96  1  0.84193304  0.06403071  0.83973640  1.0
  Ni  Ni97  1  0.84193304  0.39736404  0.83973640  1.0
  Ni  Ni98  1  0.84193304  0.73069737  0.83973640  1.0
  Ni  Ni99  1  0.29065099  0.17941532  0.80127487  1.0
  Ni  Ni100  1  0.29065099  0.51274865  0.80127487  1.0
  Ni  Ni101  1  0.29065099  0.84608199  0.80127487  1.0
  Ni  Ni102  1  0.62398432  0.17941532  0.80127487  1.0
  Ni  Ni103  1  0.62398432  0.51274865  0.80127487  1.0
  Ni  Ni104  1  0.62398432  0.84608199  0.80127487  1.0
  Ni  Ni105  1  0.95731765  0.17941532  0.80127487  1.0
  Ni  Ni106  1  0.95731765  0.51274865  0.80127487  1.0
  Ni  Ni107  1  0.95731765  0.84608199  0.80127487  1.0
  Ni  Ni108  1  0.11107758  0.22231324  0.75002156  1.0
  Ni  Ni109  1  0.11107758  0.55564658  0.75002156  1.0
  Ni  Ni110  1  0.11107758  0.88897991  0.75002156  1.0
  Ni  Ni111  1  0.44441091  0.22231324  0.75002156  1.0
  Ni  Ni112  1  0.44441091  0.55564658  0.75002156  1.0
  Ni  Ni113  1  0.44441091  0.88897991  0.75002156  1.0
  Ni  Ni114  1  0.77774424  0.22231324  0.75002156  1.0
  Ni  Ni115  1  0.77774424  0.55564658  0.75002156  1.0
  Ni  Ni116  1  0.77774424  0.88897991  0.75002156  1.0
  Ni  Ni117  1  0.22646219  0.00436453  0.71156002  1.0
  Ni  Ni118  1  0.22646219  0.33769786  0.71156002  1.0
  Ni  Ni119  1  0.22646219  0.67103119  0.71156002  1.0
  Ni  Ni120  1  0.55979553  0.00436453  0.71156002  1.0
  Ni  Ni121  1  0.55979553  0.33769786  0.71156002  1.0
  Ni  Ni122  1  0.55979553  0.67103119  0.71156002  1.0
  Ni  Ni123  1  0.89312886  0.00436453  0.71156002  1.0
  Ni  Ni124  1  0.89312886  0.33769786  0.71156002  1.0
  Ni  Ni125  1  0.89312886  0.67103119  0.71156002  1.0
  Ni  Ni126  1  0.07270227  0.29479994  0.76281333  1.0
  Ni  Ni127  1  0.07270227  0.62813327  0.76281333  1.0
  Ni  Ni128  1  0.07270227  0.96146660  0.76281333  1.0
  Ni  Ni129  1  0.40603560  0.29479994  0.76281333  1.0
  Ni  Ni130  1  0.40603560  0.62813327  0.76281333  1.0
  Ni  Ni131  1  0.40603560  0.96146660  0.76281333  1.0
  Ni  Ni132  1  0.73936894  0.29479994  0.76281333  1.0
  Ni  Ni133  1  0.73936894  0.62813327  0.76281333  1.0
  Ni  Ni134  1  0.73936894  0.96146660  0.76281333  1.0
  Ni  Ni135  1  0.18808688  0.07685122  0.72435179  1.0
  Ni  Ni136  1  0.18808688  0.41018455  0.72435179  1.0
  Ni  Ni137  1  0.18808688  0.74351788  0.72435179  1.0
  Ni  Ni138  1  0.52142022  0.07685122  0.72435179  1.0
  Ni  Ni139  1  0.52142022  0.41018455  0.72435179  1.0
  Ni  Ni140  1  0.52142022  0.74351788  0.72435179  1.0
  Ni  Ni141  1  0.85475355  0.07685122  0.72435179  1.0
  Ni  Ni142  1  0.85475355  0.41018455  0.72435179  1.0
  Ni  Ni143  1  0.85475355  0.74351788  0.72435179  1.0
  Ni  Ni144  1  0.00851347  0.11974914  0.67309848  1.0
  Ni  Ni145  1  0.00851347  0.45308247  0.67309848  1.0
  Ni  Ni146  1  0.00851347  0.78641581  0.67309848  1.0
  Ni  Ni147  1  0.34184681  0.11974914  0.67309848  1.0
  Ni  Ni148  1  0.34184681  0.45308247  0.67309848  1.0
  Ni  Ni149  1  0.34184681  0.78641581  0.67309848  1.0
  Ni  Ni150  1  0.67518014  0.11974914  0.67309848  1.0
  Ni  Ni151  1  0.67518014  0.45308247  0.67309848  1.0
  Ni  Ni152  1  0.67518014  0.78641581  0.67309848  1.0
  Ni  Ni153  1  0.12389809  0.23513376  0.63463694  1.0
  Ni  Ni154  1  0.12389809  0.56846709  0.63463694  1.0
  Ni  Ni155  1  0.12389809  0.90180042  0.63463694  1.0
  Ni  Ni156  1  0.45723142  0.23513376  0.63463694  1.0
  Ni  Ni157  1  0.45723142  0.56846709  0.63463694  1.0
  Ni  Ni158  1  0.45723142  0.90180042  0.63463694  1.0
  Ni  Ni159  1  0.79056476  0.23513376  0.63463694  1.0
  Ni  Ni160  1  0.79056476  0.56846709  0.63463694  1.0
  Ni  Ni161  1  0.79056476  0.90180042  0.63463694  1.0
  Ni  Ni162  1  0.30347150  0.19223583  0.68589025  1.0
  Ni  Ni163  1  0.30347150  0.52556917  0.68589025  1.0
  Ni  Ni164  1  0.30347150  0.85890250  0.68589025  1.0
  Ni  Ni165  1  0.63680483  0.19223583  0.68589025  1.0
  Ni  Ni166  1  0.63680483  0.52556917  0.68589025  1.0
  Ni  Ni167  1  0.63680483  0.85890250  0.68589025  1.0
  Ni  Ni168  1  0.97013817  0.19223583  0.68589025  1.0
  Ni  Ni169  1  0.97013817  0.52556917  0.68589025  1.0
  Ni  Ni170  1  0.97013817  0.85890250  0.68589025  1.0
  Ni  Ni171  1  0.08552278  0.30762045  0.64742871  1.0
  Ni  Ni172  1  0.08552278  0.64095378  0.64742871  1.0
  Ni  Ni173  1  0.08552278  0.97428712  0.64742871  1.0
  Ni  Ni174  1  0.41885612  0.30762045  0.64742871  1.0
  Ni  Ni175  1  0.41885612  0.64095378  0.64742871  1.0
  Ni  Ni176  1  0.41885612  0.97428712  0.64742871  1.0
  Ni  Ni177  1  0.75218945  0.30762045  0.64742871  1.0
  Ni  Ni178  1  0.75218945  0.64095378  0.64742871  1.0
  Ni  Ni179  1  0.75218945  0.97428712  0.64742871  1.0
  Ta  Ta180  1  0.12394121  0.12394121  0.96795590  1.0
  Ta  Ta181  1  0.12394121  0.45727454  0.96795590  1.0
  Ta  Ta182  1  0.12394121  0.79060787  0.96795590  1.0
  Ta  Ta183  1  0.45727454  0.12394121  0.96795590  1.0
  Ta  Ta184  1  0.45727454  0.45727454  0.96795590  1.0
  Ta  Ta185  1  0.45727454  0.79060787  0.96795590  1.0
  Ta  Ta186  1  0.79060787  0.12394121  0.96795590  1.0
  Ta  Ta187  1  0.79060787  0.45727454  0.96795590  1.0
  Ta  Ta188  1  0.79060787  0.79060787  0.96795590  1.0
  Ta  Ta189  1  0.23932582  0.23932582  0.92949437  1.0
  Ta  Ta190  1  0.23932582  0.57265915  0.92949437  1.0
  Ta  Ta191  1  0.23932582  0.90599249  0.92949437  1.0
  Ta  Ta192  1  0.57265915  0.23932582  0.92949437  1.0
  Ta  Ta193  1  0.57265915  0.57265915  0.92949437  1.0
  Ta  Ta194  1  0.57265915  0.90599249  0.92949437  1.0
  Ta  Ta195  1  0.90599249  0.23932582  0.92949437  1.0
  Ta  Ta196  1  0.90599249  0.57265915  0.92949437  1.0
  Ta  Ta197  1  0.90599249  0.90599249  0.92949437  1.0
  Ta  Ta198  1  0.02137710  0.02137710  0.89103283  1.0
  Ta  Ta199  1  0.02137710  0.35471044  0.89103283  1.0
  Ta  Ta200  1  0.02137710  0.68804377  0.89103283  1.0
  Ta  Ta201  1  0.35471044  0.02137710  0.89103283  1.0
  Ta  Ta202  1  0.35471044  0.35471044  0.89103283  1.0
  Ta  Ta203  1  0.35471044  0.68804377  0.89103283  1.0
  Ta  Ta204  1  0.68804377  0.02137710  0.89103283  1.0
  Ta  Ta205  1  0.68804377  0.35471044  0.89103283  1.0
  Ta  Ta206  1  0.68804377  0.68804377  0.89103283  1.0
  Ta  Ta207  1  0.13676172  0.13676172  0.85257129  1.0
  Ta  Ta208  1  0.13676172  0.47009505  0.85257129  1.0
  Ta  Ta209  1  0.13676172  0.80342838  0.85257129  1.0
  Ta  Ta210  1  0.47009505  0.13676172  0.85257129  1.0
  Ta  Ta211  1  0.47009505  0.47009505  0.85257129  1.0
  Ta  Ta212  1  0.47009505  0.80342838  0.85257129  1.0
  Ta  Ta213  1  0.80342838  0.13676172  0.85257129  1.0
  Ta  Ta214  1  0.80342838  0.47009505  0.85257129  1.0
  Ta  Ta215  1  0.80342838  0.80342838  0.85257129  1.0
  Ta  Ta216  1  0.25214633  0.25214633  0.81410975  1.0
  Ta  Ta217  1  0.25214633  0.58547967  0.81410975  1.0
  Ta  Ta218  1  0.25214633  0.91881300  0.81410975  1.0
  Ta  Ta219  1  0.58547967  0.25214633  0.81410975  1.0
  Ta  Ta220  1  0.58547967  0.58547967  0.81410975  1.0
  Ta  Ta221  1  0.58547967  0.91881300  0.81410975  1.0
  Ta  Ta222  1  0.91881300  0.25214633  0.81410975  1.0
  Ta  Ta223  1  0.91881300  0.58547967  0.81410975  1.0
  Ta  Ta224  1  0.91881300  0.91881300  0.81410975  1.0
  Ta  Ta225  1  0.03419762  0.03419762  0.77564821  1.0
  Ta  Ta226  1  0.03419762  0.36753095  0.77564821  1.0
  Ta  Ta227  1  0.03419762  0.70086428  0.77564821  1.0
  Ta  Ta228  1  0.36753095  0.03419762  0.77564821  1.0
  Ta  Ta229  1  0.36753095  0.36753095  0.77564821  1.0
  Ta  Ta230  1  0.36753095  0.70086428  0.77564821  1.0
  Ta  Ta231  1  0.70086428  0.03419762  0.77564821  1.0
  Ta  Ta232  1  0.70086428  0.36753095  0.77564821  1.0
  Ta  Ta233  1  0.70086428  0.70086428  0.77564821  1.0
  Ta  Ta234  1  0.14958223  0.14958223  0.73718667  1.0
  Ta  Ta235  1  0.14958223  0.48291556  0.73718667  1.0
  Ta  Ta236  1  0.14958223  0.81624890  0.73718667  1.0
  Ta  Ta237  1  0.48291556  0.14958223  0.73718667  1.0
  Ta  Ta238  1  0.48291556  0.48291556  0.73718667  1.0
  Ta  Ta239  1  0.48291556  0.81624890  0.73718667  1.0
  Ta  Ta240  1  0.81624890  0.14958223  0.73718667  1.0
  Ta  Ta241  1  0.81624890  0.48291556  0.73718667  1.0
  Ta  Ta242  1  0.81624890  0.81624890  0.73718667  1.0
  Ta  Ta243  1  0.26496685  0.26496685  0.69872513  1.0
  Ta  Ta244  1  0.26496685  0.59830018  0.69872513  1.0
  Ta  Ta245  1  0.26496685  0.93163351  0.69872513  1.0
  Ta  Ta246  1  0.59830018  0.26496685  0.69872513  1.0
  Ta  Ta247  1  0.59830018  0.59830018  0.69872513  1.0
  Ta  Ta248  1  0.59830018  0.93163351  0.69872513  1.0
  Ta  Ta249  1  0.93163351  0.26496685  0.69872513  1.0
  Ta  Ta250  1  0.93163351  0.59830018  0.69872513  1.0
  Ta  Ta251  1  0.93163351  0.93163351  0.69872513  1.0
  Ta  Ta252  1  0.04701813  0.04701813  0.66026360  1.0
  Ta  Ta253  1  0.04701813  0.38035146  0.66026360  1.0
  Ta  Ta254  1  0.04701813  0.71368479  0.66026360  1.0
  Ta  Ta255  1  0.38035146  0.04701813  0.66026360  1.0
  Ta  Ta256  1  0.38035146  0.38035146  0.66026360  1.0
  Ta  Ta257  1  0.38035146  0.71368479  0.66026360  1.0
  Ta  Ta258  1  0.71368479  0.04701813  0.66026360  1.0
  Ta  Ta259  1  0.71368479  0.38035146  0.66026360  1.0
  Ta  Ta260  1  0.71368479  0.71368479  0.66026360  1.0
  Ta  Ta261  1  0.16240274  0.16240274  0.62180206  1.0
  Ta  Ta262  1  0.16240274  0.49573608  0.62180206  1.0
  Ta  Ta263  1  0.16240274  0.82906941  0.62180206  1.0
  Ta  Ta264  1  0.49573608  0.16240274  0.62180206  1.0
  Ta  Ta265  1  0.49573608  0.49573608  0.62180206  1.0
  Ta  Ta266  1  0.49573608  0.82906941  0.62180206  1.0
  Ta  Ta267  1  0.82906941  0.16240274  0.62180206  1.0
  Ta  Ta268  1  0.82906941  0.49573608  0.62180206  1.0
  Ta  Ta269  1  0.82906941  0.82906941  0.62180206  1.0
