# generated using pymatgen
data_TaNi
_symmetry_space_group_name_H-M   'P 1'
_cell_length_a   53.89704558
_cell_length_b   14.66784704
_cell_length_c   125.75977302
_cell_angle_alpha   97.82066101
_cell_angle_beta   15.64132203
_cell_angle_gamma   90.00000000
_symmetry_Int_Tables_number   1
_chemical_formula_structural   TaNi
_chemical_formula_sum   'Ta351 Ni351'
_cell_volume   23140.72493423
_cell_formula_units_Z   351
loop_
 _symmetry_equiv_pos_site_id
 _symmetry_equiv_pos_as_xyz
  1  'x, y, z'
loop_
 _atom_site_type_symbol
 _atom_site_label
 _atom_site_symmetry_multiplicity
 _atom_site_fract_x
 _atom_site_fract_y
 _atom_site_fract_z
 _atom_site_occupancy
  Ta  Ta0  1  0.05755867  0.05755867  0.04280364  1.0
  Ta  Ta1  1  0.05755867  0.39089200  0.04280364  1.0
  Ta  Ta2  1  0.05755867  0.72422533  0.04280364  1.0
  Ta  Ta3  1  0.39089200  0.05755867  0.04280364  1.0
  Ta  Ta4  1  0.39089200  0.39089200  0.04280364  1.0
  Ta  Ta5  1  0.39089200  0.72422533  0.04280364  1.0
  Ta  Ta6  1  0.72422533  0.05755867  0.04280364  1.0
  Ta  Ta7  1  0.72422533  0.39089200  0.04280364  1.0
  Ta  Ta8  1  0.72422533  0.72422533  0.04280364  1.0
  Ta  Ta9  1  0.22417067  0.22417067  0.04275679  1.0
  Ta  Ta10  1  0.22417067  0.55750400  0.04275679  1.0
  Ta  Ta11  1  0.22417067  0.89083733  0.04275679  1.0
  Ta  Ta12  1  0.55750400  0.22417067  0.04275679  1.0
  Ta  Ta13  1  0.55750400  0.55750400  0.04275679  1.0
  Ta  Ta14  1  0.55750400  0.89083733  0.04275679  1.0
  Ta  Ta15  1  0.89083733  0.22417067  0.04275679  1.0
  Ta  Ta16  1  0.89083733  0.55750400  0.04275679  1.0
  Ta  Ta17  1  0.89083733  0.89083733  0.04275679  1.0
  Ta  Ta18  1  0.10916267  0.10916267  0.08703564  1.0
  Ta  Ta19  1  0.10916267  0.44249600  0.08703564  1.0
  Ta  Ta20  1  0.10916267  0.77582933  0.08703564  1.0
  Ta  Ta21  1  0.44249600  0.10916267  0.08703564  1.0
  Ta  Ta22  1  0.44249600  0.44249600  0.08703564  1.0
  Ta  Ta23  1  0.44249600  0.77582933  0.08703564  1.0
  Ta  Ta24  1  0.77582933  0.10916267  0.08703564  1.0
  Ta  Ta25  1  0.77582933  0.44249600  0.08703564  1.0
  Ta  Ta26  1  0.77582933  0.77582933  0.08703564  1.0
  Ta  Ta27  1  0.27577467  0.27577467  0.08698879  1.0
  Ta  Ta28  1  0.27577467  0.60910800  0.08698879  1.0
  Ta  Ta29  1  0.27577467  0.94244133  0.08698879  1.0
  Ta  Ta30  1  0.60910800  0.27577467  0.08698879  1.0
  Ta  Ta31  1  0.60910800  0.60910800  0.08698879  1.0
  Ta  Ta32  1  0.60910800  0.94244133  0.08698879  1.0
  Ta  Ta33  1  0.94244133  0.27577467  0.08698879  1.0
  Ta  Ta34  1  0.94244133  0.60910800  0.08698879  1.0
  Ta  Ta35  1  0.94244133  0.94244133  0.08698879  1.0
  Ta  Ta36  1  0.07523967  0.07523967  0.05795879  1.0
  Ta  Ta37  1  0.07523967  0.40857300  0.05795879  1.0
  Ta  Ta38  1  0.07523967  0.74190633  0.05795879  1.0
  Ta  Ta39  1  0.40857300  0.07523967  0.05795879  1.0
  Ta  Ta40  1  0.40857300  0.40857300  0.05795879  1.0
  Ta  Ta41  1  0.40857300  0.74190633  0.05795879  1.0
  Ta  Ta42  1  0.74190633  0.07523967  0.05795879  1.0
  Ta  Ta43  1  0.74190633  0.40857300  0.05795879  1.0
  Ta  Ta44  1  0.74190633  0.74190633  0.05795879  1.0
  Ta  Ta45  1  0.24173900  0.24173900  0.05781536  1.0
  Ta  Ta46  1  0.24173900  0.57507233  0.05781536  1.0
  Ta  Ta47  1  0.24173900  0.90840567  0.05781536  1.0
  Ta  Ta48  1  0.57507233  0.24173900  0.05781536  1.0
  Ta  Ta49  1  0.57507233  0.57507233  0.05781536  1.0
  Ta  Ta50  1  0.57507233  0.90840567  0.05781536  1.0
  Ta  Ta51  1  0.90840567  0.24173900  0.05781536  1.0
  Ta  Ta52  1  0.90840567  0.57507233  0.05781536  1.0
  Ta  Ta53  1  0.90840567  0.90840567  0.05781536  1.0
  Ta  Ta54  1  0.09159433  0.09159433  0.07197707  1.0
  Ta  Ta55  1  0.09159433  0.42492767  0.07197707  1.0
  Ta  Ta56  1  0.09159433  0.75826100  0.07197707  1.0
  Ta  Ta57  1  0.42492767  0.09159433  0.07197707  1.0
  Ta  Ta58  1  0.42492767  0.42492767  0.07197707  1.0
  Ta  Ta59  1  0.42492767  0.75826100  0.07197707  1.0
  Ta  Ta60  1  0.75826100  0.09159433  0.07197707  1.0
  Ta  Ta61  1  0.75826100  0.42492767  0.07197707  1.0
  Ta  Ta62  1  0.75826100  0.75826100  0.07197707  1.0
  Ta  Ta63  1  0.25809367  0.25809367  0.07183364  1.0
  Ta  Ta64  1  0.25809367  0.59142700  0.07183364  1.0
  Ta  Ta65  1  0.25809367  0.92476033  0.07183364  1.0
  Ta  Ta66  1  0.59142700  0.25809367  0.07183364  1.0
  Ta  Ta67  1  0.59142700  0.59142700  0.07183364  1.0
  Ta  Ta68  1  0.59142700  0.92476033  0.07183364  1.0
  Ta  Ta69  1  0.92476033  0.25809367  0.07183364  1.0
  Ta  Ta70  1  0.92476033  0.59142700  0.07183364  1.0
  Ta  Ta71  1  0.92476033  0.92476033  0.07183364  1.0
  Ta  Ta72  1  0.19461533  0.19461533  0.01742364  1.0
  Ta  Ta73  1  0.19461533  0.52794867  0.01742364  1.0
  Ta  Ta74  1  0.19461533  0.86128200  0.01742364  1.0
  Ta  Ta75  1  0.52794867  0.19461533  0.01742364  1.0
  Ta  Ta76  1  0.52794867  0.52794867  0.01742364  1.0
  Ta  Ta77  1  0.52794867  0.86128200  0.01742364  1.0
  Ta  Ta78  1  0.86128200  0.19461533  0.01742364  1.0
  Ta  Ta79  1  0.86128200  0.52794867  0.01742364  1.0
  Ta  Ta80  1  0.86128200  0.86128200  0.01742364  1.0
  Ta  Ta81  1  0.02760467  0.02760467  0.01712879  1.0
  Ta  Ta82  1  0.02760467  0.36093800  0.01712879  1.0
  Ta  Ta83  1  0.02760467  0.69427133  0.01712879  1.0
  Ta  Ta84  1  0.36093800  0.02760467  0.01712879  1.0
  Ta  Ta85  1  0.36093800  0.36093800  0.01712879  1.0
  Ta  Ta86  1  0.36093800  0.69427133  0.01712879  1.0
  Ta  Ta87  1  0.69427133  0.02760467  0.01712879  1.0
  Ta  Ta88  1  0.69427133  0.36093800  0.01712879  1.0
  Ta  Ta89  1  0.69427133  0.69427133  0.01712879  1.0
  Ta  Ta90  1  0.30572867  0.30572867  0.11266364  1.0
  Ta  Ta91  1  0.30572867  0.63906200  0.11266364  1.0
  Ta  Ta92  1  0.30572867  0.97239533  0.11266364  1.0
  Ta  Ta93  1  0.63906200  0.30572867  0.11266364  1.0
  Ta  Ta94  1  0.63906200  0.63906200  0.11266364  1.0
  Ta  Ta95  1  0.63906200  0.97239533  0.11266364  1.0
  Ta  Ta96  1  0.97239533  0.30572867  0.11266364  1.0
  Ta  Ta97  1  0.97239533  0.63906200  0.11266364  1.0
  Ta  Ta98  1  0.97239533  0.97239533  0.11266364  1.0
  Ta  Ta99  1  0.13871800  0.13871800  0.11236879  1.0
  Ta  Ta100  1  0.13871800  0.47205133  0.11236879  1.0
  Ta  Ta101  1  0.13871800  0.80538467  0.11236879  1.0
  Ta  Ta102  1  0.47205133  0.13871800  0.11236879  1.0
  Ta  Ta103  1  0.47205133  0.47205133  0.11236879  1.0
  Ta  Ta104  1  0.47205133  0.80538467  0.11236879  1.0
  Ta  Ta105  1  0.80538467  0.13871800  0.11236879  1.0
  Ta  Ta106  1  0.80538467  0.47205133  0.11236879  1.0
  Ta  Ta107  1  0.80538467  0.80538467  0.11236879  1.0
  Ta  Ta108  1  0.16666667  0.16666667  0.13632479  1.0
  Ta  Ta109  1  0.16666667  0.50000000  0.13632479  1.0
  Ta  Ta110  1  0.16666667  0.83333333  0.13632479  1.0
  Ta  Ta111  1  0.50000000  0.16666667  0.13632479  1.0
  Ta  Ta112  1  0.50000000  0.50000000  0.13632479  1.0
  Ta  Ta113  1  0.50000000  0.83333333  0.13632479  1.0
  Ta  Ta114  1  0.83333333  0.16666667  0.13632479  1.0
  Ta  Ta115  1  0.83333333  0.50000000  0.13632479  1.0
  Ta  Ta116  1  0.83333333  0.83333333  0.13632479  1.0
  Ni  Ni117  1  0.26506267  0.09855267  0.00644564  1.0
  Ni  Ni118  1  0.26506267  0.43188600  0.00644564  1.0
  Ni  Ni119  1  0.26506267  0.76521933  0.00644564  1.0
  Ni  Ni120  1  0.59839600  0.09855267  0.00644564  1.0
  Ni  Ni121  1  0.59839600  0.43188600  0.00644564  1.0
  Ni  Ni122  1  0.59839600  0.76521933  0.00644564  1.0
  Ni  Ni123  1  0.93172933  0.09855267  0.00644564  1.0
  Ni  Ni124  1  0.93172933  0.43188600  0.00644564  1.0
  Ni  Ni125  1  0.93172933  0.76521933  0.00644564  1.0
  Ni  Ni126  1  0.09710700  0.26671067  0.00653236  1.0
  Ni  Ni127  1  0.09710700  0.60004400  0.00653236  1.0
  Ni  Ni128  1  0.09710700  0.93337733  0.00653236  1.0
  Ni  Ni129  1  0.43044033  0.26671067  0.00653236  1.0
  Ni  Ni130  1  0.43044033  0.60004400  0.00653236  1.0
  Ni  Ni131  1  0.43044033  0.93337733  0.00653236  1.0
  Ni  Ni132  1  0.76377367  0.26671067  0.00653236  1.0
  Ni  Ni133  1  0.76377367  0.60004400  0.00653236  1.0
  Ni  Ni134  1  0.76377367  0.93337733  0.00653236  1.0
  Ni  Ni135  1  0.26506267  0.26506267  0.00644564  1.0
  Ni  Ni136  1  0.26506267  0.59839600  0.00644564  1.0
  Ni  Ni137  1  0.26506267  0.93172933  0.00644564  1.0
  Ni  Ni138  1  0.59839600  0.26506267  0.00644564  1.0
  Ni  Ni139  1  0.59839600  0.59839600  0.00644564  1.0
  Ni  Ni140  1  0.59839600  0.93172933  0.00644564  1.0
  Ni  Ni141  1  0.93172933  0.26506267  0.00644564  1.0
  Ni  Ni142  1  0.93172933  0.59839600  0.00644564  1.0
  Ni  Ni143  1  0.93172933  0.93172933  0.00644564  1.0
  Ni  Ni144  1  0.09710700  0.09710700  0.00653236  1.0
  Ni  Ni145  1  0.09710700  0.43044033  0.00653236  1.0
  Ni  Ni146  1  0.09710700  0.76377367  0.00653236  1.0
  Ni  Ni147  1  0.43044033  0.09710700  0.00653236  1.0
  Ni  Ni148  1  0.43044033  0.43044033  0.00653236  1.0
  Ni  Ni149  1  0.43044033  0.76377367  0.00653236  1.0
  Ni  Ni150  1  0.76377367  0.09710700  0.00653236  1.0
  Ni  Ni151  1  0.76377367  0.43044033  0.00653236  1.0
  Ni  Ni152  1  0.76377367  0.76377367  0.00653236  1.0
  Ni  Ni153  1  0.09855267  0.26506267  0.07780707  1.0
  Ni  Ni154  1  0.09855267  0.59839600  0.07780707  1.0
  Ni  Ni155  1  0.09855267  0.93172933  0.07780707  1.0
  Ni  Ni156  1  0.43188600  0.26506267  0.07780707  1.0
  Ni  Ni157  1  0.43188600  0.59839600  0.07780707  1.0
  Ni  Ni158  1  0.43188600  0.93172933  0.07780707  1.0
  Ni  Ni159  1  0.76521933  0.26506267  0.07780707  1.0
  Ni  Ni160  1  0.76521933  0.59839600  0.07780707  1.0
  Ni  Ni161  1  0.76521933  0.93172933  0.07780707  1.0
  Ni  Ni162  1  0.26671067  0.09710700  0.07670221  1.0
  Ni  Ni163  1  0.26671067  0.43044033  0.07670221  1.0
  Ni  Ni164  1  0.26671067  0.76377367  0.07670221  1.0
  Ni  Ni165  1  0.60004400  0.09710700  0.07670221  1.0
  Ni  Ni166  1  0.60004400  0.43044033  0.07670221  1.0
  Ni  Ni167  1  0.60004400  0.76377367  0.07670221  1.0
  Ni  Ni168  1  0.93337733  0.09710700  0.07670221  1.0
  Ni  Ni169  1  0.93337733  0.43044033  0.07670221  1.0
  Ni  Ni170  1  0.93337733  0.76377367  0.07670221  1.0
  Ni  Ni171  1  0.23622633  0.06662267  0.12326007  1.0
  Ni  Ni172  1  0.23622633  0.39995600  0.12326007  1.0
  Ni  Ni173  1  0.23622633  0.73328933  0.12326007  1.0
  Ni  Ni174  1  0.56955967  0.06662267  0.12326007  1.0
  Ni  Ni175  1  0.56955967  0.39995600  0.12326007  1.0
  Ni  Ni176  1  0.56955967  0.73328933  0.12326007  1.0
  Ni  Ni177  1  0.90289300  0.06662267  0.12326007  1.0
  Ni  Ni178  1  0.90289300  0.39995600  0.12326007  1.0
  Ni  Ni179  1  0.90289300  0.73328933  0.12326007  1.0
  Ni  Ni180  1  0.06827067  0.23478067  0.12334679  1.0
  Ni  Ni181  1  0.06827067  0.56811400  0.12334679  1.0
  Ni  Ni182  1  0.06827067  0.90144733  0.12334679  1.0
  Ni  Ni183  1  0.40160400  0.23478067  0.12334679  1.0
  Ni  Ni184  1  0.40160400  0.56811400  0.12334679  1.0
  Ni  Ni185  1  0.40160400  0.90144733  0.12334679  1.0
  Ni  Ni186  1  0.73493733  0.23478067  0.12334679  1.0
  Ni  Ni187  1  0.73493733  0.56811400  0.12334679  1.0
  Ni  Ni188  1  0.73493733  0.90144733  0.12334679  1.0
  Ni  Ni189  1  0.23622633  0.23622633  0.12326007  1.0
  Ni  Ni190  1  0.23622633  0.56955967  0.12326007  1.0
  Ni  Ni191  1  0.23622633  0.90289300  0.12326007  1.0
  Ni  Ni192  1  0.56955967  0.23622633  0.12326007  1.0
  Ni  Ni193  1  0.56955967  0.56955967  0.12326007  1.0
  Ni  Ni194  1  0.56955967  0.90289300  0.12326007  1.0
  Ni  Ni195  1  0.90289300  0.23622633  0.12326007  1.0
  Ni  Ni196  1  0.90289300  0.56955967  0.12326007  1.0
  Ni  Ni197  1  0.90289300  0.90289300  0.12326007  1.0
  Ni  Ni198  1  0.06827067  0.06827067  0.12334679  1.0
  Ni  Ni199  1  0.06827067  0.40160400  0.12334679  1.0
  Ni  Ni200  1  0.06827067  0.73493733  0.12334679  1.0
  Ni  Ni201  1  0.40160400  0.06827067  0.12334679  1.0
  Ni  Ni202  1  0.40160400  0.40160400  0.12334679  1.0
  Ni  Ni203  1  0.40160400  0.73493733  0.12334679  1.0
  Ni  Ni204  1  0.73493733  0.06827067  0.12334679  1.0
  Ni  Ni205  1  0.73493733  0.40160400  0.12334679  1.0
  Ni  Ni206  1  0.73493733  0.73493733  0.12334679  1.0
  Ni  Ni207  1  0.06662267  0.23622633  0.05309021  1.0
  Ni  Ni208  1  0.06662267  0.56955967  0.05309021  1.0
  Ni  Ni209  1  0.06662267  0.90289300  0.05309021  1.0
  Ni  Ni210  1  0.39995600  0.23622633  0.05309021  1.0
  Ni  Ni211  1  0.39995600  0.56955967  0.05309021  1.0
  Ni  Ni212  1  0.39995600  0.90289300  0.05309021  1.0
  Ni  Ni213  1  0.73328933  0.23622633  0.05309021  1.0
  Ni  Ni214  1  0.73328933  0.56955967  0.05309021  1.0
  Ni  Ni215  1  0.73328933  0.90289300  0.05309021  1.0
  Ni  Ni216  1  0.23478067  0.06827067  0.05198536  1.0
  Ni  Ni217  1  0.23478067  0.40160400  0.05198536  1.0
  Ni  Ni218  1  0.23478067  0.73493733  0.05198536  1.0
  Ni  Ni219  1  0.56811400  0.06827067  0.05198536  1.0
  Ni  Ni220  1  0.56811400  0.40160400  0.05198536  1.0
  Ni  Ni221  1  0.56811400  0.73493733  0.05198536  1.0
  Ni  Ni222  1  0.90144733  0.06827067  0.05198536  1.0
  Ni  Ni223  1  0.90144733  0.40160400  0.05198536  1.0
  Ni  Ni224  1  0.90144733  0.73493733  0.05198536  1.0
  Ni  Ni225  1  0.00000000  0.00000000  0.13632479  1.0
  Ni  Ni226  1  0.00000000  0.33333333  0.13632479  1.0
  Ni  Ni227  1  0.00000000  0.66666667  0.13632479  1.0
  Ni  Ni228  1  0.33333333  0.00000000  0.13632479  1.0
  Ni  Ni229  1  0.33333333  0.33333333  0.13632479  1.0
  Ni  Ni230  1  0.33333333  0.66666667  0.13632479  1.0
  Ni  Ni231  1  0.66666667  0.00000000  0.13632479  1.0
  Ni  Ni232  1  0.66666667  0.33333333  0.13632479  1.0
  Ni  Ni233  1  0.66666667  0.66666667  0.13632479  1.0
  Ta  Ta234  1  0.05755867  0.05755867  0.18566079  1.0
  Ta  Ta235  1  0.05755867  0.39089200  0.18566079  1.0
  Ta  Ta236  1  0.05755867  0.72422533  0.18566079  1.0
  Ta  Ta237  1  0.39089200  0.05755867  0.18566079  1.0
  Ta  Ta238  1  0.39089200  0.39089200  0.18566079  1.0
  Ta  Ta239  1  0.39089200  0.72422533  0.18566079  1.0
  Ta  Ta240  1  0.72422533  0.05755867  0.18566079  1.0
  Ta  Ta241  1  0.72422533  0.39089200  0.18566079  1.0
  Ta  Ta242  1  0.72422533  0.72422533  0.18566079  1.0
  Ta  Ta243  1  0.22417067  0.22417067  0.18561393  1.0
  Ta  Ta244  1  0.22417067  0.55750400  0.18561393  1.0
  Ta  Ta245  1  0.22417067  0.89083733  0.18561393  1.0
  Ta  Ta246  1  0.55750400  0.22417067  0.18561393  1.0
  Ta  Ta247  1  0.55750400  0.55750400  0.18561393  1.0
  Ta  Ta248  1  0.55750400  0.89083733  0.18561393  1.0
  Ta  Ta249  1  0.89083733  0.22417067  0.18561393  1.0
  Ta  Ta250  1  0.89083733  0.55750400  0.18561393  1.0
  Ta  Ta251  1  0.89083733  0.89083733  0.18561393  1.0
  Ta  Ta252  1  0.10916267  0.10916267  0.22989279  1.0
  Ta  Ta253  1  0.10916267  0.44249600  0.22989279  1.0
  Ta  Ta254  1  0.10916267  0.77582933  0.22989279  1.0
  Ta  Ta255  1  0.44249600  0.10916267  0.22989279  1.0
  Ta  Ta256  1  0.44249600  0.44249600  0.22989279  1.0
  Ta  Ta257  1  0.44249600  0.77582933  0.22989279  1.0
  Ta  Ta258  1  0.77582933  0.10916267  0.22989279  1.0
  Ta  Ta259  1  0.77582933  0.44249600  0.22989279  1.0
  Ta  Ta260  1  0.77582933  0.77582933  0.22989279  1.0
  Ta  Ta261  1  0.27577467  0.27577467  0.22984593  1.0
  Ta  Ta262  1  0.27577467  0.60910800  0.22984593  1.0
  Ta  Ta263  1  0.27577467  0.94244133  0.22984593  1.0
  Ta  Ta264  1  0.60910800  0.27577467  0.22984593  1.0
  Ta  Ta265  1  0.60910800  0.60910800  0.22984593  1.0
  Ta  Ta266  1  0.60910800  0.94244133  0.22984593  1.0
  Ta  Ta267  1  0.94244133  0.27577467  0.22984593  1.0
  Ta  Ta268  1  0.94244133  0.60910800  0.22984593  1.0
  Ta  Ta269  1  0.94244133  0.94244133  0.22984593  1.0
  Ta  Ta270  1  0.07523967  0.07523967  0.20081593  1.0
  Ta  Ta271  1  0.07523967  0.40857300  0.20081593  1.0
  Ta  Ta272  1  0.07523967  0.74190633  0.20081593  1.0
  Ta  Ta273  1  0.40857300  0.07523967  0.20081593  1.0
  Ta  Ta274  1  0.40857300  0.40857300  0.20081593  1.0
  Ta  Ta275  1  0.40857300  0.74190633  0.20081593  1.0
  Ta  Ta276  1  0.74190633  0.07523967  0.20081593  1.0
  Ta  Ta277  1  0.74190633  0.40857300  0.20081593  1.0
  Ta  Ta278  1  0.74190633  0.74190633  0.20081593  1.0
  Ta  Ta279  1  0.24173900  0.24173900  0.20067250  1.0
  Ta  Ta280  1  0.24173900  0.57507233  0.20067250  1.0
  Ta  Ta281  1  0.24173900  0.90840567  0.20067250  1.0
  Ta  Ta282  1  0.57507233  0.24173900  0.20067250  1.0
  Ta  Ta283  1  0.57507233  0.57507233  0.20067250  1.0
  Ta  Ta284  1  0.57507233  0.90840567  0.20067250  1.0
  Ta  Ta285  1  0.90840567  0.24173900  0.20067250  1.0
  Ta  Ta286  1  0.90840567  0.57507233  0.20067250  1.0
  Ta  Ta287  1  0.90840567  0.90840567  0.20067250  1.0
  Ta  Ta288  1  0.09159433  0.09159433  0.21483421  1.0
  Ta  Ta289  1  0.09159433  0.42492767  0.21483421  1.0
  Ta  Ta290  1  0.09159433  0.75826100  0.21483421  1.0
  Ta  Ta291  1  0.42492767  0.09159433  0.21483421  1.0
  Ta  Ta292  1  0.42492767  0.42492767  0.21483421  1.0
  Ta  Ta293  1  0.42492767  0.75826100  0.21483421  1.0
  Ta  Ta294  1  0.75826100  0.09159433  0.21483421  1.0
  Ta  Ta295  1  0.75826100  0.42492767  0.21483421  1.0
  Ta  Ta296  1  0.75826100  0.75826100  0.21483421  1.0
  Ta  Ta297  1  0.25809367  0.25809367  0.21469079  1.0
  Ta  Ta298  1  0.25809367  0.59142700  0.21469079  1.0
  Ta  Ta299  1  0.25809367  0.92476033  0.21469079  1.0
  Ta  Ta300  1  0.59142700  0.25809367  0.21469079  1.0
  Ta  Ta301  1  0.59142700  0.59142700  0.21469079  1.0
  Ta  Ta302  1  0.59142700  0.92476033  0.21469079  1.0
  Ta  Ta303  1  0.92476033  0.25809367  0.21469079  1.0
  Ta  Ta304  1  0.92476033  0.59142700  0.21469079  1.0
  Ta  Ta305  1  0.92476033  0.92476033  0.21469079  1.0
  Ta  Ta306  1  0.19461533  0.19461533  0.16028079  1.0
  Ta  Ta307  1  0.19461533  0.52794867  0.16028079  1.0
  Ta  Ta308  1  0.19461533  0.86128200  0.16028079  1.0
  Ta  Ta309  1  0.52794867  0.19461533  0.16028079  1.0
  Ta  Ta310  1  0.52794867  0.52794867  0.16028079  1.0
  Ta  Ta311  1  0.52794867  0.86128200  0.16028079  1.0
  Ta  Ta312  1  0.86128200  0.19461533  0.16028079  1.0
  Ta  Ta313  1  0.86128200  0.52794867  0.16028079  1.0
  Ta  Ta314  1  0.86128200  0.86128200  0.16028079  1.0
  Ta  Ta315  1  0.02760467  0.02760467  0.15998593  1.0
  Ta  Ta316  1  0.02760467  0.36093800  0.15998593  1.0
  Ta  Ta317  1  0.02760467  0.69427133  0.15998593  1.0
  Ta  Ta318  1  0.36093800  0.02760467  0.15998593  1.0
  Ta  Ta319  1  0.36093800  0.36093800  0.15998593  1.0
  Ta  Ta320  1  0.36093800  0.69427133  0.15998593  1.0
  Ta  Ta321  1  0.69427133  0.02760467  0.15998593  1.0
  Ta  Ta322  1  0.69427133  0.36093800  0.15998593  1.0
  Ta  Ta323  1  0.69427133  0.69427133  0.15998593  1.0
  Ta  Ta324  1  0.30572867  0.30572867  0.25552079  1.0
  Ta  Ta325  1  0.30572867  0.63906200  0.25552079  1.0
  Ta  Ta326  1  0.30572867  0.97239533  0.25552079  1.0
  Ta  Ta327  1  0.63906200  0.30572867  0.25552079  1.0
  Ta  Ta328  1  0.63906200  0.63906200  0.25552079  1.0
  Ta  Ta329  1  0.63906200  0.97239533  0.25552079  1.0
  Ta  Ta330  1  0.97239533  0.30572867  0.25552079  1.0
  Ta  Ta331  1  0.97239533  0.63906200  0.25552079  1.0
  Ta  Ta332  1  0.97239533  0.97239533  0.25552079  1.0
  Ta  Ta333  1  0.13871800  0.13871800  0.25522593  1.0
  Ta  Ta334  1  0.13871800  0.47205133  0.25522593  1.0
  Ta  Ta335  1  0.13871800  0.80538467  0.25522593  1.0
  Ta  Ta336  1  0.47205133  0.13871800  0.25522593  1.0
  Ta  Ta337  1  0.47205133  0.47205133  0.25522593  1.0
  Ta  Ta338  1  0.47205133  0.80538467  0.25522593  1.0
  Ta  Ta339  1  0.80538467  0.13871800  0.25522593  1.0
  Ta  Ta340  1  0.80538467  0.47205133  0.25522593  1.0
  Ta  Ta341  1  0.80538467  0.80538467  0.25522593  1.0
  Ta  Ta342  1  0.16666667  0.16666667  0.27918193  1.0
  Ta  Ta343  1  0.16666667  0.50000000  0.27918193  1.0
  Ta  Ta344  1  0.16666667  0.83333333  0.27918193  1.0
  Ta  Ta345  1  0.50000000  0.16666667  0.27918193  1.0
  Ta  Ta346  1  0.50000000  0.50000000  0.27918193  1.0
  Ta  Ta347  1  0.50000000  0.83333333  0.27918193  1.0
  Ta  Ta348  1  0.83333333  0.16666667  0.27918193  1.0
  Ta  Ta349  1  0.83333333  0.50000000  0.27918193  1.0
  Ta  Ta350  1  0.83333333  0.83333333  0.27918193  1.0
  Ni  Ni351  1  0.26506267  0.09855267  0.14930279  1.0
  Ni  Ni352  1  0.26506267  0.43188600  0.14930279  1.0
  Ni  Ni353  1  0.26506267  0.76521933  0.14930279  1.0
  Ni  Ni354  1  0.59839600  0.09855267  0.14930279  1.0
  Ni  Ni355  1  0.59839600  0.43188600  0.14930279  1.0
  Ni  Ni356  1  0.59839600  0.76521933  0.14930279  1.0
  Ni  Ni357  1  0.93172933  0.09855267  0.14930279  1.0
  Ni  Ni358  1  0.93172933  0.43188600  0.14930279  1.0
  Ni  Ni359  1  0.93172933  0.76521933  0.14930279  1.0
  Ni  Ni360  1  0.09710700  0.26671067  0.14938950  1.0
  Ni  Ni361  1  0.09710700  0.60004400  0.14938950  1.0
  Ni  Ni362  1  0.09710700  0.93337733  0.14938950  1.0
  Ni  Ni363  1  0.43044033  0.26671067  0.14938950  1.0
  Ni  Ni364  1  0.43044033  0.60004400  0.14938950  1.0
  Ni  Ni365  1  0.43044033  0.93337733  0.14938950  1.0
  Ni  Ni366  1  0.76377367  0.26671067  0.14938950  1.0
  Ni  Ni367  1  0.76377367  0.60004400  0.14938950  1.0
  Ni  Ni368  1  0.76377367  0.93337733  0.14938950  1.0
  Ni  Ni369  1  0.26506267  0.26506267  0.14930279  1.0
  Ni  Ni370  1  0.26506267  0.59839600  0.14930279  1.0
  Ni  Ni371  1  0.26506267  0.93172933  0.14930279  1.0
  Ni  Ni372  1  0.59839600  0.26506267  0.14930279  1.0
  Ni  Ni373  1  0.59839600  0.59839600  0.14930279  1.0
  Ni  Ni374  1  0.59839600  0.93172933  0.14930279  1.0
  Ni  Ni375  1  0.93172933  0.26506267  0.14930279  1.0
  Ni  Ni376  1  0.93172933  0.59839600  0.14930279  1.0
  Ni  Ni377  1  0.93172933  0.93172933  0.14930279  1.0
  Ni  Ni378  1  0.09710700  0.09710700  0.14938950  1.0
  Ni  Ni379  1  0.09710700  0.43044033  0.14938950  1.0
  Ni  Ni380  1  0.09710700  0.76377367  0.14938950  1.0
  Ni  Ni381  1  0.43044033  0.09710700  0.14938950  1.0
  Ni  Ni382  1  0.43044033  0.43044033  0.14938950  1.0
  Ni  Ni383  1  0.43044033  0.76377367  0.14938950  1.0
  Ni  Ni384  1  0.76377367  0.09710700  0.14938950  1.0
  Ni  Ni385  1  0.76377367  0.43044033  0.14938950  1.0
  Ni  Ni386  1  0.76377367  0.76377367  0.14938950  1.0
  Ni  Ni387  1  0.09855267  0.26506267  0.22066421  1.0
  Ni  Ni388  1  0.09855267  0.59839600  0.22066421  1.0
  Ni  Ni389  1  0.09855267  0.93172933  0.22066421  1.0
  Ni  Ni390  1  0.43188600  0.26506267  0.22066421  1.0
  Ni  Ni391  1  0.43188600  0.59839600  0.22066421  1.0
  Ni  Ni392  1  0.43188600  0.93172933  0.22066421  1.0
  Ni  Ni393  1  0.76521933  0.26506267  0.22066421  1.0
  Ni  Ni394  1  0.76521933  0.59839600  0.22066421  1.0
  Ni  Ni395  1  0.76521933  0.93172933  0.22066421  1.0
  Ni  Ni396  1  0.26671067  0.09710700  0.21955936  1.0
  Ni  Ni397  1  0.26671067  0.43044033  0.21955936  1.0
  Ni  Ni398  1  0.26671067  0.76377367  0.21955936  1.0
  Ni  Ni399  1  0.60004400  0.09710700  0.21955936  1.0
  Ni  Ni400  1  0.60004400  0.43044033  0.21955936  1.0
  Ni  Ni401  1  0.60004400  0.76377367  0.21955936  1.0
  Ni  Ni402  1  0.93337733  0.09710700  0.21955936  1.0
  Ni  Ni403  1  0.93337733  0.43044033  0.21955936  1.0
  Ni  Ni404  1  0.93337733  0.76377367  0.21955936  1.0
  Ni  Ni405  1  0.23622633  0.06662267  0.26611721  1.0
  Ni  Ni406  1  0.23622633  0.39995600  0.26611721  1.0
  Ni  Ni407  1  0.23622633  0.73328933  0.26611721  1.0
  Ni  Ni408  1  0.56955967  0.06662267  0.26611721  1.0
  Ni  Ni409  1  0.56955967  0.39995600  0.26611721  1.0
  Ni  Ni410  1  0.56955967  0.73328933  0.26611721  1.0
  Ni  Ni411  1  0.90289300  0.06662267  0.26611721  1.0
  Ni  Ni412  1  0.90289300  0.39995600  0.26611721  1.0
  Ni  Ni413  1  0.90289300  0.73328933  0.26611721  1.0
  Ni  Ni414  1  0.06827067  0.23478067  0.26620393  1.0
  Ni  Ni415  1  0.06827067  0.56811400  0.26620393  1.0
  Ni  Ni416  1  0.06827067  0.90144733  0.26620393  1.0
  Ni  Ni417  1  0.40160400  0.23478067  0.26620393  1.0
  Ni  Ni418  1  0.40160400  0.56811400  0.26620393  1.0
  Ni  Ni419  1  0.40160400  0.90144733  0.26620393  1.0
  Ni  Ni420  1  0.73493733  0.23478067  0.26620393  1.0
  Ni  Ni421  1  0.73493733  0.56811400  0.26620393  1.0
  Ni  Ni422  1  0.73493733  0.90144733  0.26620393  1.0
  Ni  Ni423  1  0.23622633  0.23622633  0.26611721  1.0
  Ni  Ni424  1  0.23622633  0.56955967  0.26611721  1.0
  Ni  Ni425  1  0.23622633  0.90289300  0.26611721  1.0
  Ni  Ni426  1  0.56955967  0.23622633  0.26611721  1.0
  Ni  Ni427  1  0.56955967  0.56955967  0.26611721  1.0
  Ni  Ni428  1  0.56955967  0.90289300  0.26611721  1.0
  Ni  Ni429  1  0.90289300  0.23622633  0.26611721  1.0
  Ni  Ni430  1  0.90289300  0.56955967  0.26611721  1.0
  Ni  Ni431  1  0.90289300  0.90289300  0.26611721  1.0
  Ni  Ni432  1  0.06827067  0.06827067  0.26620393  1.0
  Ni  Ni433  1  0.06827067  0.40160400  0.26620393  1.0
  Ni  Ni434  1  0.06827067  0.73493733  0.26620393  1.0
  Ni  Ni435  1  0.40160400  0.06827067  0.26620393  1.0
  Ni  Ni436  1  0.40160400  0.40160400  0.26620393  1.0
  Ni  Ni437  1  0.40160400  0.73493733  0.26620393  1.0
  Ni  Ni438  1  0.73493733  0.06827067  0.26620393  1.0
  Ni  Ni439  1  0.73493733  0.40160400  0.26620393  1.0
  Ni  Ni440  1  0.73493733  0.73493733  0.26620393  1.0
  Ni  Ni441  1  0.06662267  0.23622633  0.19594736  1.0
  Ni  Ni442  1  0.06662267  0.56955967  0.19594736  1.0
  Ni  Ni443  1  0.06662267  0.90289300  0.19594736  1.0
  Ni  Ni444  1  0.39995600  0.23622633  0.19594736  1.0
  Ni  Ni445  1  0.39995600  0.56955967  0.19594736  1.0
  Ni  Ni446  1  0.39995600  0.90289300  0.19594736  1.0
  Ni  Ni447  1  0.73328933  0.23622633  0.19594736  1.0
  Ni  Ni448  1  0.73328933  0.56955967  0.19594736  1.0
  Ni  Ni449  1  0.73328933  0.90289300  0.19594736  1.0
  Ni  Ni450  1  0.23478067  0.06827067  0.19484250  1.0
  Ni  Ni451  1  0.23478067  0.40160400  0.19484250  1.0
  Ni  Ni452  1  0.23478067  0.73493733  0.19484250  1.0
  Ni  Ni453  1  0.56811400  0.06827067  0.19484250  1.0
  Ni  Ni454  1  0.56811400  0.40160400  0.19484250  1.0
  Ni  Ni455  1  0.56811400  0.73493733  0.19484250  1.0
  Ni  Ni456  1  0.90144733  0.06827067  0.19484250  1.0
  Ni  Ni457  1  0.90144733  0.40160400  0.19484250  1.0
  Ni  Ni458  1  0.90144733  0.73493733  0.19484250  1.0
  Ni  Ni459  1  0.00000000  0.00000000  0.27918193  1.0
  Ni  Ni460  1  0.00000000  0.33333333  0.27918193  1.0
  Ni  Ni461  1  0.00000000  0.66666667  0.27918193  1.0
  Ni  Ni462  1  0.33333333  0.00000000  0.27918193  1.0
  Ni  Ni463  1  0.33333333  0.33333333  0.27918193  1.0
  Ni  Ni464  1  0.33333333  0.66666667  0.27918193  1.0
  Ni  Ni465  1  0.66666667  0.00000000  0.27918193  1.0
  Ni  Ni466  1  0.66666667  0.33333333  0.27918193  1.0
  Ni  Ni467  1  0.66666667  0.66666667  0.27918193  1.0
  Ta  Ta468  1  0.05755867  0.05755867  0.32851793  1.0
  Ta  Ta469  1  0.05755867  0.39089200  0.32851793  1.0
  Ta  Ta470  1  0.05755867  0.72422533  0.32851793  1.0
  Ta  Ta471  1  0.39089200  0.05755867  0.32851793  1.0
  Ta  Ta472  1  0.39089200  0.39089200  0.32851793  1.0
  Ta  Ta473  1  0.39089200  0.72422533  0.32851793  1.0
  Ta  Ta474  1  0.72422533  0.05755867  0.32851793  1.0
  Ta  Ta475  1  0.72422533  0.39089200  0.32851793  1.0
  Ta  Ta476  1  0.72422533  0.72422533  0.32851793  1.0
  Ta  Ta477  1  0.22417067  0.22417067  0.32847107  1.0
  Ta  Ta478  1  0.22417067  0.55750400  0.32847107  1.0
  Ta  Ta479  1  0.22417067  0.89083733  0.32847107  1.0
  Ta  Ta480  1  0.55750400  0.22417067  0.32847107  1.0
  Ta  Ta481  1  0.55750400  0.55750400  0.32847107  1.0
  Ta  Ta482  1  0.55750400  0.89083733  0.32847107  1.0
  Ta  Ta483  1  0.89083733  0.22417067  0.32847107  1.0
  Ta  Ta484  1  0.89083733  0.55750400  0.32847107  1.0
  Ta  Ta485  1  0.89083733  0.89083733  0.32847107  1.0
  Ta  Ta486  1  0.10916267  0.10916267  0.37274993  1.0
  Ta  Ta487  1  0.10916267  0.44249600  0.37274993  1.0
  Ta  Ta488  1  0.10916267  0.77582933  0.37274993  1.0
  Ta  Ta489  1  0.44249600  0.10916267  0.37274993  1.0
  Ta  Ta490  1  0.44249600  0.44249600  0.37274993  1.0
  Ta  Ta491  1  0.44249600  0.77582933  0.37274993  1.0
  Ta  Ta492  1  0.77582933  0.10916267  0.37274993  1.0
  Ta  Ta493  1  0.77582933  0.44249600  0.37274993  1.0
  Ta  Ta494  1  0.77582933  0.77582933  0.37274993  1.0
  Ta  Ta495  1  0.27577467  0.27577467  0.37270307  1.0
  Ta  Ta496  1  0.27577467  0.60910800  0.37270307  1.0
  Ta  Ta497  1  0.27577467  0.94244133  0.37270307  1.0
  Ta  Ta498  1  0.60910800  0.27577467  0.37270307  1.0
  Ta  Ta499  1  0.60910800  0.60910800  0.37270307  1.0
  Ta  Ta500  1  0.60910800  0.94244133  0.37270307  1.0
  Ta  Ta501  1  0.94244133  0.27577467  0.37270307  1.0
  Ta  Ta502  1  0.94244133  0.60910800  0.37270307  1.0
  Ta  Ta503  1  0.94244133  0.94244133  0.37270307  1.0
  Ta  Ta504  1  0.07523967  0.07523967  0.34367307  1.0
  Ta  Ta505  1  0.07523967  0.40857300  0.34367307  1.0
  Ta  Ta506  1  0.07523967  0.74190633  0.34367307  1.0
  Ta  Ta507  1  0.40857300  0.07523967  0.34367307  1.0
  Ta  Ta508  1  0.40857300  0.40857300  0.34367307  1.0
  Ta  Ta509  1  0.40857300  0.74190633  0.34367307  1.0
  Ta  Ta510  1  0.74190633  0.07523967  0.34367307  1.0
  Ta  Ta511  1  0.74190633  0.40857300  0.34367307  1.0
  Ta  Ta512  1  0.74190633  0.74190633  0.34367307  1.0
  Ta  Ta513  1  0.24173900  0.24173900  0.34352964  1.0
  Ta  Ta514  1  0.24173900  0.57507233  0.34352964  1.0
  Ta  Ta515  1  0.24173900  0.90840567  0.34352964  1.0
  Ta  Ta516  1  0.57507233  0.24173900  0.34352964  1.0
  Ta  Ta517  1  0.57507233  0.57507233  0.34352964  1.0
  Ta  Ta518  1  0.57507233  0.90840567  0.34352964  1.0
  Ta  Ta519  1  0.90840567  0.24173900  0.34352964  1.0
  Ta  Ta520  1  0.90840567  0.57507233  0.34352964  1.0
  Ta  Ta521  1  0.90840567  0.90840567  0.34352964  1.0
  Ta  Ta522  1  0.09159433  0.09159433  0.35769136  1.0
  Ta  Ta523  1  0.09159433  0.42492767  0.35769136  1.0
  Ta  Ta524  1  0.09159433  0.75826100  0.35769136  1.0
  Ta  Ta525  1  0.42492767  0.09159433  0.35769136  1.0
  Ta  Ta526  1  0.42492767  0.42492767  0.35769136  1.0
  Ta  Ta527  1  0.42492767  0.75826100  0.35769136  1.0
  Ta  Ta528  1  0.75826100  0.09159433  0.35769136  1.0
  Ta  Ta529  1  0.75826100  0.42492767  0.35769136  1.0
  Ta  Ta530  1  0.75826100  0.75826100  0.35769136  1.0
  Ta  Ta531  1  0.25809367  0.25809367  0.35754793  1.0
  Ta  Ta532  1  0.25809367  0.59142700  0.35754793  1.0
  Ta  Ta533  1  0.25809367  0.92476033  0.35754793  1.0
  Ta  Ta534  1  0.59142700  0.25809367  0.35754793  1.0
  Ta  Ta535  1  0.59142700  0.59142700  0.35754793  1.0
  Ta  Ta536  1  0.59142700  0.92476033  0.35754793  1.0
  Ta  Ta537  1  0.92476033  0.25809367  0.35754793  1.0
  Ta  Ta538  1  0.92476033  0.59142700  0.35754793  1.0
  Ta  Ta539  1  0.92476033  0.92476033  0.35754793  1.0
  Ta  Ta540  1  0.19461533  0.19461533  0.30313793  1.0
  Ta  Ta541  1  0.19461533  0.52794867  0.30313793  1.0
  Ta  Ta542  1  0.19461533  0.86128200  0.30313793  1.0
  Ta  Ta543  1  0.52794867  0.19461533  0.30313793  1.0
  Ta  Ta544  1  0.52794867  0.52794867  0.30313793  1.0
  Ta  Ta545  1  0.52794867  0.86128200  0.30313793  1.0
  Ta  Ta546  1  0.86128200  0.19461533  0.30313793  1.0
  Ta  Ta547  1  0.86128200  0.52794867  0.30313793  1.0
  Ta  Ta548  1  0.86128200  0.86128200  0.30313793  1.0
  Ta  Ta549  1  0.02760467  0.02760467  0.30284307  1.0
  Ta  Ta550  1  0.02760467  0.36093800  0.30284307  1.0
  Ta  Ta551  1  0.02760467  0.69427133  0.30284307  1.0
  Ta  Ta552  1  0.36093800  0.02760467  0.30284307  1.0
  Ta  Ta553  1  0.36093800  0.36093800  0.30284307  1.0
  Ta  Ta554  1  0.36093800  0.69427133  0.30284307  1.0
  Ta  Ta555  1  0.69427133  0.02760467  0.30284307  1.0
  Ta  Ta556  1  0.69427133  0.36093800  0.30284307  1.0
  Ta  Ta557  1  0.69427133  0.69427133  0.30284307  1.0
  Ta  Ta558  1  0.30572867  0.30572867  0.39837793  1.0
  Ta  Ta559  1  0.30572867  0.63906200  0.39837793  1.0
  Ta  Ta560  1  0.30572867  0.97239533  0.39837793  1.0
  Ta  Ta561  1  0.63906200  0.30572867  0.39837793  1.0
  Ta  Ta562  1  0.63906200  0.63906200  0.39837793  1.0
  Ta  Ta563  1  0.63906200  0.97239533  0.39837793  1.0
  Ta  Ta564  1  0.97239533  0.30572867  0.39837793  1.0
  Ta  Ta565  1  0.97239533  0.63906200  0.39837793  1.0
  Ta  Ta566  1  0.97239533  0.97239533  0.39837793  1.0
  Ta  Ta567  1  0.13871800  0.13871800  0.39808307  1.0
  Ta  Ta568  1  0.13871800  0.47205133  0.39808307  1.0
  Ta  Ta569  1  0.13871800  0.80538467  0.39808307  1.0
  Ta  Ta570  1  0.47205133  0.13871800  0.39808307  1.0
  Ta  Ta571  1  0.47205133  0.47205133  0.39808307  1.0
  Ta  Ta572  1  0.47205133  0.80538467  0.39808307  1.0
  Ta  Ta573  1  0.80538467  0.13871800  0.39808307  1.0
  Ta  Ta574  1  0.80538467  0.47205133  0.39808307  1.0
  Ta  Ta575  1  0.80538467  0.80538467  0.39808307  1.0
  Ta  Ta576  1  0.16666667  0.16666667  0.42203907  1.0
  Ta  Ta577  1  0.16666667  0.50000000  0.42203907  1.0
  Ta  Ta578  1  0.16666667  0.83333333  0.42203907  1.0
  Ta  Ta579  1  0.50000000  0.16666667  0.42203907  1.0
  Ta  Ta580  1  0.50000000  0.50000000  0.42203907  1.0
  Ta  Ta581  1  0.50000000  0.83333333  0.42203907  1.0
  Ta  Ta582  1  0.83333333  0.16666667  0.42203907  1.0
  Ta  Ta583  1  0.83333333  0.50000000  0.42203907  1.0
  Ta  Ta584  1  0.83333333  0.83333333  0.42203907  1.0
  Ni  Ni585  1  0.26506267  0.09855267  0.29215993  1.0
  Ni  Ni586  1  0.26506267  0.43188600  0.29215993  1.0
  Ni  Ni587  1  0.26506267  0.76521933  0.29215993  1.0
  Ni  Ni588  1  0.59839600  0.09855267  0.29215993  1.0
  Ni  Ni589  1  0.59839600  0.43188600  0.29215993  1.0
  Ni  Ni590  1  0.59839600  0.76521933  0.29215993  1.0
  Ni  Ni591  1  0.93172933  0.09855267  0.29215993  1.0
  Ni  Ni592  1  0.93172933  0.43188600  0.29215993  1.0
  Ni  Ni593  1  0.93172933  0.76521933  0.29215993  1.0
  Ni  Ni594  1  0.09710700  0.26671067  0.29224664  1.0
  Ni  Ni595  1  0.09710700  0.60004400  0.29224664  1.0
  Ni  Ni596  1  0.09710700  0.93337733  0.29224664  1.0
  Ni  Ni597  1  0.43044033  0.26671067  0.29224664  1.0
  Ni  Ni598  1  0.43044033  0.60004400  0.29224664  1.0
  Ni  Ni599  1  0.43044033  0.93337733  0.29224664  1.0
  Ni  Ni600  1  0.76377367  0.26671067  0.29224664  1.0
  Ni  Ni601  1  0.76377367  0.60004400  0.29224664  1.0
  Ni  Ni602  1  0.76377367  0.93337733  0.29224664  1.0
  Ni  Ni603  1  0.26506267  0.26506267  0.29215993  1.0
  Ni  Ni604  1  0.26506267  0.59839600  0.29215993  1.0
  Ni  Ni605  1  0.26506267  0.93172933  0.29215993  1.0
  Ni  Ni606  1  0.59839600  0.26506267  0.29215993  1.0
  Ni  Ni607  1  0.59839600  0.59839600  0.29215993  1.0
  Ni  Ni608  1  0.59839600  0.93172933  0.29215993  1.0
  Ni  Ni609  1  0.93172933  0.26506267  0.29215993  1.0
  Ni  Ni610  1  0.93172933  0.59839600  0.29215993  1.0
  Ni  Ni611  1  0.93172933  0.93172933  0.29215993  1.0
  Ni  Ni612  1  0.09710700  0.09710700  0.29224664  1.0
  Ni  Ni613  1  0.09710700  0.43044033  0.29224664  1.0
  Ni  Ni614  1  0.09710700  0.76377367  0.29224664  1.0
  Ni  Ni615  1  0.43044033  0.09710700  0.29224664  1.0
  Ni  Ni616  1  0.43044033  0.43044033  0.29224664  1.0
  Ni  Ni617  1  0.43044033  0.76377367  0.29224664  1.0
  Ni  Ni618  1  0.76377367  0.09710700  0.29224664  1.0
  Ni  Ni619  1  0.76377367  0.43044033  0.29224664  1.0
  Ni  Ni620  1  0.76377367  0.76377367  0.29224664  1.0
  Ni  Ni621  1  0.09855267  0.26506267  0.36352136  1.0
  Ni  Ni622  1  0.09855267  0.59839600  0.36352136  1.0
  Ni  Ni623  1  0.09855267  0.93172933  0.36352136  1.0
  Ni  Ni624  1  0.43188600  0.26506267  0.36352136  1.0
  Ni  Ni625  1  0.43188600  0.59839600  0.36352136  1.0
  Ni  Ni626  1  0.43188600  0.93172933  0.36352136  1.0
  Ni  Ni627  1  0.76521933  0.26506267  0.36352136  1.0
  Ni  Ni628  1  0.76521933  0.59839600  0.36352136  1.0
  Ni  Ni629  1  0.76521933  0.93172933  0.36352136  1.0
  Ni  Ni630  1  0.26671067  0.09710700  0.36241650  1.0
  Ni  Ni631  1  0.26671067  0.43044033  0.36241650  1.0
  Ni  Ni632  1  0.26671067  0.76377367  0.36241650  1.0
  Ni  Ni633  1  0.60004400  0.09710700  0.36241650  1.0
  Ni  Ni634  1  0.60004400  0.43044033  0.36241650  1.0
  Ni  Ni635  1  0.60004400  0.76377367  0.36241650  1.0
  Ni  Ni636  1  0.93337733  0.09710700  0.36241650  1.0
  Ni  Ni637  1  0.93337733  0.43044033  0.36241650  1.0
  Ni  Ni638  1  0.93337733  0.76377367  0.36241650  1.0
  Ni  Ni639  1  0.23622633  0.06662267  0.40897436  1.0
  Ni  Ni640  1  0.23622633  0.39995600  0.40897436  1.0
  Ni  Ni641  1  0.23622633  0.73328933  0.40897436  1.0
  Ni  Ni642  1  0.56955967  0.06662267  0.40897436  1.0
  Ni  Ni643  1  0.56955967  0.39995600  0.40897436  1.0
  Ni  Ni644  1  0.56955967  0.73328933  0.40897436  1.0
  Ni  Ni645  1  0.90289300  0.06662267  0.40897436  1.0
  Ni  Ni646  1  0.90289300  0.39995600  0.40897436  1.0
  Ni  Ni647  1  0.90289300  0.73328933  0.40897436  1.0
  Ni  Ni648  1  0.06827067  0.23478067  0.40906107  1.0
  Ni  Ni649  1  0.06827067  0.56811400  0.40906107  1.0
  Ni  Ni650  1  0.06827067  0.90144733  0.40906107  1.0
  Ni  Ni651  1  0.40160400  0.23478067  0.40906107  1.0
  Ni  Ni652  1  0.40160400  0.56811400  0.40906107  1.0
  Ni  Ni653  1  0.40160400  0.90144733  0.40906107  1.0
  Ni  Ni654  1  0.73493733  0.23478067  0.40906107  1.0
  Ni  Ni655  1  0.73493733  0.56811400  0.40906107  1.0
  Ni  Ni656  1  0.73493733  0.90144733  0.40906107  1.0
  Ni  Ni657  1  0.23622633  0.23622633  0.40897436  1.0
  Ni  Ni658  1  0.23622633  0.56955967  0.40897436  1.0
  Ni  Ni659  1  0.23622633  0.90289300  0.40897436  1.0
  Ni  Ni660  1  0.56955967  0.23622633  0.40897436  1.0
  Ni  Ni661  1  0.56955967  0.56955967  0.40897436  1.0
  Ni  Ni662  1  0.56955967  0.90289300  0.40897436  1.0
  Ni  Ni663  1  0.90289300  0.23622633  0.40897436  1.0
  Ni  Ni664  1  0.90289300  0.56955967  0.40897436  1.0
  Ni  Ni665  1  0.90289300  0.90289300  0.40897436  1.0
  Ni  Ni666  1  0.06827067  0.06827067  0.40906107  1.0
  Ni  Ni667  1  0.06827067  0.40160400  0.40906107  1.0
  Ni  Ni668  1  0.06827067  0.73493733  0.40906107  1.0
  Ni  Ni669  1  0.40160400  0.06827067  0.40906107  1.0
  Ni  Ni670  1  0.40160400  0.40160400  0.40906107  1.0
  Ni  Ni671  1  0.40160400  0.73493733  0.40906107  1.0
  Ni  Ni672  1  0.73493733  0.06827067  0.40906107  1.0
  Ni  Ni673  1  0.73493733  0.40160400  0.40906107  1.0
  Ni  Ni674  1  0.73493733  0.73493733  0.40906107  1.0
  Ni  Ni675  1  0.06662267  0.23622633  0.33880450  1.0
  Ni  Ni676  1  0.06662267  0.56955967  0.33880450  1.0
  Ni  Ni677  1  0.06662267  0.90289300  0.33880450  1.0
  Ni  Ni678  1  0.39995600  0.23622633  0.33880450  1.0
  Ni  Ni679  1  0.39995600  0.56955967  0.33880450  1.0
  Ni  Ni680  1  0.39995600  0.90289300  0.33880450  1.0
  Ni  Ni681  1  0.73328933  0.23622633  0.33880450  1.0
  Ni  Ni682  1  0.73328933  0.56955967  0.33880450  1.0
  Ni  Ni683  1  0.73328933  0.90289300  0.33880450  1.0
  Ni  Ni684  1  0.23478067  0.06827067  0.33769964  1.0
  Ni  Ni685  1  0.23478067  0.40160400  0.33769964  1.0
  Ni  Ni686  1  0.23478067  0.73493733  0.33769964  1.0
  Ni  Ni687  1  0.56811400  0.06827067  0.33769964  1.0
  Ni  Ni688  1  0.56811400  0.40160400  0.33769964  1.0
  Ni  Ni689  1  0.56811400  0.73493733  0.33769964  1.0
  Ni  Ni690  1  0.90144733  0.06827067  0.33769964  1.0
  Ni  Ni691  1  0.90144733  0.40160400  0.33769964  1.0
  Ni  Ni692  1  0.90144733  0.73493733  0.33769964  1.0
  Ni  Ni693  1  0.00000000  0.00000000  0.42203907  1.0
  Ni  Ni694  1  0.00000000  0.33333333  0.42203907  1.0
  Ni  Ni695  1  0.00000000  0.66666667  0.42203907  1.0
  Ni  Ni696  1  0.33333333  0.00000000  0.42203907  1.0
  Ni  Ni697  1  0.33333333  0.33333333  0.42203907  1.0
  Ni  Ni698  1  0.33333333  0.66666667  0.42203907  1.0
  Ni  Ni699  1  0.66666667  0.00000000  0.42203907  1.0
  Ni  Ni700  1  0.66666667  0.33333333  0.42203907  1.0
  Ni  Ni701  1  0.66666667  0.66666667  0.42203907  1.0
