# generated using pymatgen
data_TaNi2
_symmetry_space_group_name_H-M   'P 1'
_cell_length_a   13.44843275
_cell_length_b   19.13694578
_cell_length_c   45.38261420
_cell_angle_alpha   135.35217984
_cell_angle_beta   119.59663348
_cell_angle_gamma   69.42865004
_symmetry_Int_Tables_number   1
_chemical_formula_structural   TaNi2
_chemical_formula_sum   'Ta72 Ni144'
_cell_volume   7136.97884273
_cell_formula_units_Z   72
loop_
 _symmetry_equiv_pos_site_id
 _symmetry_equiv_pos_as_xyz
  1  'x, y, z'
loop_
 _atom_site_type_symbol
 _atom_site_label
 _atom_site_symmetry_multiplicity
 _atom_site_fract_x
 _atom_site_fract_y
 _atom_site_fract_z
 _atom_site_occupancy
  Ta  Ta0  1  0.16666667  0.16666667  0.04162930  1.0
  Ta  Ta1  1  0.16666667  0.50000000  0.04162930  1.0
  Ta  Ta2  1  0.16666667  0.83333333  0.04162930  1.0
  Ta  Ta3  1  0.50000000  0.16666667  0.04162930  1.0
  Ta  Ta4  1  0.50000000  0.50000000  0.04162930  1.0
  Ta  Ta5  1  0.50000000  0.83333333  0.04162930  1.0
  Ta  Ta6  1  0.83333333  0.16666667  0.04162930  1.0
  Ta  Ta7  1  0.83333333  0.50000000  0.04162930  1.0
  Ta  Ta8  1  0.83333333  0.83333333  0.04162930  1.0
  Ta  Ta9  1  0.00000000  0.00000000  0.09162930  1.0
  Ta  Ta10  1  0.00000000  0.33333333  0.09162930  1.0
  Ta  Ta11  1  0.00000000  0.66666667  0.09162930  1.0
  Ta  Ta12  1  0.33333333  0.00000000  0.09162930  1.0
  Ta  Ta13  1  0.33333333  0.33333333  0.09162930  1.0
  Ta  Ta14  1  0.33333333  0.66666667  0.09162930  1.0
  Ta  Ta15  1  0.66666667  0.00000000  0.09162930  1.0
  Ta  Ta16  1  0.66666667  0.33333333  0.09162930  1.0
  Ta  Ta17  1  0.66666667  0.66666667  0.09162930  1.0
  Ni  Ni18  1  0.05543100  0.16666667  0.07488790  1.0
  Ni  Ni19  1  0.05543100  0.50000000  0.07488790  1.0
  Ni  Ni20  1  0.05543100  0.83333333  0.07488790  1.0
  Ni  Ni21  1  0.38876433  0.16666667  0.07488790  1.0
  Ni  Ni22  1  0.38876433  0.50000000  0.07488790  1.0
  Ni  Ni23  1  0.38876433  0.83333333  0.07488790  1.0
  Ni  Ni24  1  0.72209767  0.16666667  0.07488790  1.0
  Ni  Ni25  1  0.72209767  0.50000000  0.07488790  1.0
  Ni  Ni26  1  0.72209767  0.83333333  0.07488790  1.0
  Ni  Ni27  1  0.22209767  0.00000000  0.02488790  1.0
  Ni  Ni28  1  0.22209767  0.33333333  0.02488790  1.0
  Ni  Ni29  1  0.22209767  0.66666667  0.02488790  1.0
  Ni  Ni30  1  0.55543100  0.00000000  0.02488790  1.0
  Ni  Ni31  1  0.55543100  0.33333333  0.02488790  1.0
  Ni  Ni32  1  0.55543100  0.66666667  0.02488790  1.0
  Ni  Ni33  1  0.88876433  0.00000000  0.02488790  1.0
  Ni  Ni34  1  0.88876433  0.33333333  0.02488790  1.0
  Ni  Ni35  1  0.88876433  0.66666667  0.02488790  1.0
  Ni  Ni36  1  0.27790233  0.16666667  0.00837070  1.0
  Ni  Ni37  1  0.27790233  0.50000000  0.00837070  1.0
  Ni  Ni38  1  0.27790233  0.83333333  0.00837070  1.0
  Ni  Ni39  1  0.61123567  0.16666667  0.00837070  1.0
  Ni  Ni40  1  0.61123567  0.50000000  0.00837070  1.0
  Ni  Ni41  1  0.61123567  0.83333333  0.00837070  1.0
  Ni  Ni42  1  0.94456900  0.16666667  0.00837070  1.0
  Ni  Ni43  1  0.94456900  0.50000000  0.00837070  1.0
  Ni  Ni44  1  0.94456900  0.83333333  0.00837070  1.0
  Ni  Ni45  1  0.11123567  0.00000000  0.05837070  1.0
  Ni  Ni46  1  0.11123567  0.33333333  0.05837070  1.0
  Ni  Ni47  1  0.11123567  0.66666667  0.05837070  1.0
  Ni  Ni48  1  0.44456900  0.00000000  0.05837070  1.0
  Ni  Ni49  1  0.44456900  0.33333333  0.05837070  1.0
  Ni  Ni50  1  0.44456900  0.66666667  0.05837070  1.0
  Ni  Ni51  1  0.77790233  0.00000000  0.05837070  1.0
  Ni  Ni52  1  0.77790233  0.33333333  0.05837070  1.0
  Ni  Ni53  1  0.77790233  0.66666667  0.05837070  1.0
  Ta  Ta54  1  0.16666667  0.16666667  0.14162930  1.0
  Ta  Ta55  1  0.16666667  0.50000000  0.14162930  1.0
  Ta  Ta56  1  0.16666667  0.83333333  0.14162930  1.0
  Ta  Ta57  1  0.50000000  0.16666667  0.14162930  1.0
  Ta  Ta58  1  0.50000000  0.50000000  0.14162930  1.0
  Ta  Ta59  1  0.50000000  0.83333333  0.14162930  1.0
  Ta  Ta60  1  0.83333333  0.16666667  0.14162930  1.0
  Ta  Ta61  1  0.83333333  0.50000000  0.14162930  1.0
  Ta  Ta62  1  0.83333333  0.83333333  0.14162930  1.0
  Ta  Ta63  1  0.00000000  0.00000000  0.19162930  1.0
  Ta  Ta64  1  0.00000000  0.33333333  0.19162930  1.0
  Ta  Ta65  1  0.00000000  0.66666667  0.19162930  1.0
  Ta  Ta66  1  0.33333333  0.00000000  0.19162930  1.0
  Ta  Ta67  1  0.33333333  0.33333333  0.19162930  1.0
  Ta  Ta68  1  0.33333333  0.66666667  0.19162930  1.0
  Ta  Ta69  1  0.66666667  0.00000000  0.19162930  1.0
  Ta  Ta70  1  0.66666667  0.33333333  0.19162930  1.0
  Ta  Ta71  1  0.66666667  0.66666667  0.19162930  1.0
  Ni  Ni72  1  0.05543100  0.16666667  0.17488790  1.0
  Ni  Ni73  1  0.05543100  0.50000000  0.17488790  1.0
  Ni  Ni74  1  0.05543100  0.83333333  0.17488790  1.0
  Ni  Ni75  1  0.38876433  0.16666667  0.17488790  1.0
  Ni  Ni76  1  0.38876433  0.50000000  0.17488790  1.0
  Ni  Ni77  1  0.38876433  0.83333333  0.17488790  1.0
  Ni  Ni78  1  0.72209767  0.16666667  0.17488790  1.0
  Ni  Ni79  1  0.72209767  0.50000000  0.17488790  1.0
  Ni  Ni80  1  0.72209767  0.83333333  0.17488790  1.0
  Ni  Ni81  1  0.22209767  0.00000000  0.12488790  1.0
  Ni  Ni82  1  0.22209767  0.33333333  0.12488790  1.0
  Ni  Ni83  1  0.22209767  0.66666667  0.12488790  1.0
  Ni  Ni84  1  0.55543100  0.00000000  0.12488790  1.0
  Ni  Ni85  1  0.55543100  0.33333333  0.12488790  1.0
  Ni  Ni86  1  0.55543100  0.66666667  0.12488790  1.0
  Ni  Ni87  1  0.88876433  0.00000000  0.12488790  1.0
  Ni  Ni88  1  0.88876433  0.33333333  0.12488790  1.0
  Ni  Ni89  1  0.88876433  0.66666667  0.12488790  1.0
  Ni  Ni90  1  0.27790233  0.16666667  0.10837070  1.0
  Ni  Ni91  1  0.27790233  0.50000000  0.10837070  1.0
  Ni  Ni92  1  0.27790233  0.83333333  0.10837070  1.0
  Ni  Ni93  1  0.61123567  0.16666667  0.10837070  1.0
  Ni  Ni94  1  0.61123567  0.50000000  0.10837070  1.0
  Ni  Ni95  1  0.61123567  0.83333333  0.10837070  1.0
  Ni  Ni96  1  0.94456900  0.16666667  0.10837070  1.0
  Ni  Ni97  1  0.94456900  0.50000000  0.10837070  1.0
  Ni  Ni98  1  0.94456900  0.83333333  0.10837070  1.0
  Ni  Ni99  1  0.11123567  0.00000000  0.15837070  1.0
  Ni  Ni100  1  0.11123567  0.33333333  0.15837070  1.0
  Ni  Ni101  1  0.11123567  0.66666667  0.15837070  1.0
  Ni  Ni102  1  0.44456900  0.00000000  0.15837070  1.0
  Ni  Ni103  1  0.44456900  0.33333333  0.15837070  1.0
  Ni  Ni104  1  0.44456900  0.66666667  0.15837070  1.0
  Ni  Ni105  1  0.77790233  0.00000000  0.15837070  1.0
  Ni  Ni106  1  0.77790233  0.33333333  0.15837070  1.0
  Ni  Ni107  1  0.77790233  0.66666667  0.15837070  1.0
  Ta  Ta108  1  0.16666667  0.16666667  0.24162930  1.0
  Ta  Ta109  1  0.16666667  0.50000000  0.24162930  1.0
  Ta  Ta110  1  0.16666667  0.83333333  0.24162930  1.0
  Ta  Ta111  1  0.50000000  0.16666667  0.24162930  1.0
  Ta  Ta112  1  0.50000000  0.50000000  0.24162930  1.0
  Ta  Ta113  1  0.50000000  0.83333333  0.24162930  1.0
  Ta  Ta114  1  0.83333333  0.16666667  0.24162930  1.0
  Ta  Ta115  1  0.83333333  0.50000000  0.24162930  1.0
  Ta  Ta116  1  0.83333333  0.83333333  0.24162930  1.0
  Ta  Ta117  1  0.00000000  0.00000000  0.29162930  1.0
  Ta  Ta118  1  0.00000000  0.33333333  0.29162930  1.0
  Ta  Ta119  1  0.00000000  0.66666667  0.29162930  1.0
  Ta  Ta120  1  0.33333333  0.00000000  0.29162930  1.0
  Ta  Ta121  1  0.33333333  0.33333333  0.29162930  1.0
  Ta  Ta122  1  0.33333333  0.66666667  0.29162930  1.0
  Ta  Ta123  1  0.66666667  0.00000000  0.29162930  1.0
  Ta  Ta124  1  0.66666667  0.33333333  0.29162930  1.0
  Ta  Ta125  1  0.66666667  0.66666667  0.29162930  1.0
  Ni  Ni126  1  0.05543100  0.16666667  0.27488790  1.0
  Ni  Ni127  1  0.05543100  0.50000000  0.27488790  1.0
  Ni  Ni128  1  0.05543100  0.83333333  0.27488790  1.0
  Ni  Ni129  1  0.38876433  0.16666667  0.27488790  1.0
  Ni  Ni130  1  0.38876433  0.50000000  0.27488790  1.0
  Ni  Ni131  1  0.38876433  0.83333333  0.27488790  1.0
  Ni  Ni132  1  0.72209767  0.16666667  0.27488790  1.0
  Ni  Ni133  1  0.72209767  0.50000000  0.27488790  1.0
  Ni  Ni134  1  0.72209767  0.83333333  0.27488790  1.0
  Ni  Ni135  1  0.22209767  0.00000000  0.22488790  1.0
  Ni  Ni136  1  0.22209767  0.33333333  0.22488790  1.0
  Ni  Ni137  1  0.22209767  0.66666667  0.22488790  1.0
  Ni  Ni138  1  0.55543100  0.00000000  0.22488790  1.0
  Ni  Ni139  1  0.55543100  0.33333333  0.22488790  1.0
  Ni  Ni140  1  0.55543100  0.66666667  0.22488790  1.0
  Ni  Ni141  1  0.88876433  0.00000000  0.22488790  1.0
  Ni  Ni142  1  0.88876433  0.33333333  0.22488790  1.0
  Ni  Ni143  1  0.88876433  0.66666667  0.22488790  1.0
  Ni  Ni144  1  0.27790233  0.16666667  0.20837070  1.0
  Ni  Ni145  1  0.27790233  0.50000000  0.20837070  1.0
  Ni  Ni146  1  0.27790233  0.83333333  0.20837070  1.0
  Ni  Ni147  1  0.61123567  0.16666667  0.20837070  1.0
  Ni  Ni148  1  0.61123567  0.50000000  0.20837070  1.0
  Ni  Ni149  1  0.61123567  0.83333333  0.20837070  1.0
  Ni  Ni150  1  0.94456900  0.16666667  0.20837070  1.0
  Ni  Ni151  1  0.94456900  0.50000000  0.20837070  1.0
  Ni  Ni152  1  0.94456900  0.83333333  0.20837070  1.0
  Ni  Ni153  1  0.11123567  0.00000000  0.25837070  1.0
  Ni  Ni154  1  0.11123567  0.33333333  0.25837070  1.0
  Ni  Ni155  1  0.11123567  0.66666667  0.25837070  1.0
  Ni  Ni156  1  0.44456900  0.00000000  0.25837070  1.0
  Ni  Ni157  1  0.44456900  0.33333333  0.25837070  1.0
  Ni  Ni158  1  0.44456900  0.66666667  0.25837070  1.0
  Ni  Ni159  1  0.77790233  0.00000000  0.25837070  1.0
  Ni  Ni160  1  0.77790233  0.33333333  0.25837070  1.0
  Ni  Ni161  1  0.77790233  0.66666667  0.25837070  1.0
  Ta  Ta162  1  0.16666667  0.16666667  0.34162930  1.0
  Ta  Ta163  1  0.16666667  0.50000000  0.34162930  1.0
  Ta  Ta164  1  0.16666667  0.83333333  0.34162930  1.0
  Ta  Ta165  1  0.50000000  0.16666667  0.34162930  1.0
  Ta  Ta166  1  0.50000000  0.50000000  0.34162930  1.0
  Ta  Ta167  1  0.50000000  0.83333333  0.34162930  1.0
  Ta  Ta168  1  0.83333333  0.16666667  0.34162930  1.0
  Ta  Ta169  1  0.83333333  0.50000000  0.34162930  1.0
  Ta  Ta170  1  0.83333333  0.83333333  0.34162930  1.0
  Ta  Ta171  1  0.00000000  0.00000000  0.39162930  1.0
  Ta  Ta172  1  0.00000000  0.33333333  0.39162930  1.0
  Ta  Ta173  1  0.00000000  0.66666667  0.39162930  1.0
  Ta  Ta174  1  0.33333333  0.00000000  0.39162930  1.0
  Ta  Ta175  1  0.33333333  0.33333333  0.39162930  1.0
  Ta  Ta176  1  0.33333333  0.66666667  0.39162930  1.0
  Ta  Ta177  1  0.66666667  0.00000000  0.39162930  1.0
  Ta  Ta178  1  0.66666667  0.33333333  0.39162930  1.0
  Ta  Ta179  1  0.66666667  0.66666667  0.39162930  1.0
  Ni  Ni180  1  0.05543100  0.16666667  0.37488790  1.0
  Ni  Ni181  1  0.05543100  0.50000000  0.37488790  1.0
  Ni  Ni182  1  0.05543100  0.83333333  0.37488790  1.0
  Ni  Ni183  1  0.38876433  0.16666667  0.37488790  1.0
  Ni  Ni184  1  0.38876433  0.50000000  0.37488790  1.0
  Ni  Ni185  1  0.38876433  0.83333333  0.37488790  1.0
  Ni  Ni186  1  0.72209767  0.16666667  0.37488790  1.0
  Ni  Ni187  1  0.72209767  0.50000000  0.37488790  1.0
  Ni  Ni188  1  0.72209767  0.83333333  0.37488790  1.0
  Ni  Ni189  1  0.22209767  0.00000000  0.32488790  1.0
  Ni  Ni190  1  0.22209767  0.33333333  0.32488790  1.0
  Ni  Ni191  1  0.22209767  0.66666667  0.32488790  1.0
  Ni  Ni192  1  0.55543100  0.00000000  0.32488790  1.0
  Ni  Ni193  1  0.55543100  0.33333333  0.32488790  1.0
  Ni  Ni194  1  0.55543100  0.66666667  0.32488790  1.0
  Ni  Ni195  1  0.88876433  0.00000000  0.32488790  1.0
  Ni  Ni196  1  0.88876433  0.33333333  0.32488790  1.0
  Ni  Ni197  1  0.88876433  0.66666667  0.32488790  1.0
  Ni  Ni198  1  0.27790233  0.16666667  0.30837070  1.0
  Ni  Ni199  1  0.27790233  0.50000000  0.30837070  1.0
  Ni  Ni200  1  0.27790233  0.83333333  0.30837070  1.0
  Ni  Ni201  1  0.61123567  0.16666667  0.30837070  1.0
  Ni  Ni202  1  0.61123567  0.50000000  0.30837070  1.0
  Ni  Ni203  1  0.61123567  0.83333333  0.30837070  1.0
  Ni  Ni204  1  0.94456900  0.16666667  0.30837070  1.0
  Ni  Ni205  1  0.94456900  0.50000000  0.30837070  1.0
  Ni  Ni206  1  0.94456900  0.83333333  0.30837070  1.0
  Ni  Ni207  1  0.11123567  0.00000000  0.35837070  1.0
  Ni  Ni208  1  0.11123567  0.33333333  0.35837070  1.0
  Ni  Ni209  1  0.11123567  0.66666667  0.35837070  1.0
  Ni  Ni210  1  0.44456900  0.00000000  0.35837070  1.0
  Ni  Ni211  1  0.44456900  0.33333333  0.35837070  1.0
  Ni  Ni212  1  0.44456900  0.66666667  0.35837070  1.0
  Ni  Ni213  1  0.77790233  0.00000000  0.35837070  1.0
  Ni  Ni214  1  0.77790233  0.33333333  0.35837070  1.0
  Ni  Ni215  1  0.77790233  0.66666667  0.35837070  1.0
