# generated using pymatgen
data_TaNi3
_symmetry_space_group_name_H-M   'P 1'
_cell_length_a   12.73890300
_cell_length_b   13.62758700
_cell_length_c   25.54185000
_cell_angle_alpha   90.00000000
_cell_angle_beta   90.00000000
_cell_angle_gamma   90.00000000
_symmetry_Int_Tables_number   1
_chemical_formula_structural   TaNi3
_chemical_formula_sum   'Ta36 Ni108'
_cell_volume   4434.07815868
_cell_formula_units_Z   36
loop_
 _symmetry_equiv_pos_site_id
 _symmetry_equiv_pos_as_xyz
  1  'x, y, z'
loop_
 _atom_site_type_symbol
 _atom_site_label
 _atom_site_symmetry_multiplicity
 _atom_site_fract_x
 _atom_site_fract_y
 _atom_site_fract_z
 _atom_site_occupancy
  Ta  Ta0  1  0.00000000  0.21700567  0.17497090  1.0
  Ta  Ta1  1  0.00000000  0.55033900  0.17497090  1.0
  Ta  Ta2  1  0.00000000  0.88367233  0.17497090  1.0
  Ta  Ta3  1  0.33333333  0.21700567  0.17497090  1.0
  Ta  Ta4  1  0.33333333  0.55033900  0.17497090  1.0
  Ta  Ta5  1  0.33333333  0.88367233  0.17497090  1.0
  Ta  Ta6  1  0.66666667  0.21700567  0.17497090  1.0
  Ta  Ta7  1  0.66666667  0.55033900  0.17497090  1.0
  Ta  Ta8  1  0.66666667  0.88367233  0.17497090  1.0
  Ta  Ta9  1  0.16666667  0.11632767  0.07497090  1.0
  Ta  Ta10  1  0.16666667  0.44966100  0.07497090  1.0
  Ta  Ta11  1  0.16666667  0.78299433  0.07497090  1.0
  Ta  Ta12  1  0.50000000  0.11632767  0.07497090  1.0
  Ta  Ta13  1  0.50000000  0.44966100  0.07497090  1.0
  Ta  Ta14  1  0.50000000  0.78299433  0.07497090  1.0
  Ta  Ta15  1  0.83333333  0.11632767  0.07497090  1.0
  Ta  Ta16  1  0.83333333  0.44966100  0.07497090  1.0
  Ta  Ta17  1  0.83333333  0.78299433  0.07497090  1.0
  Ni  Ni18  1  0.16666667  0.10648700  0.17497090  1.0
  Ni  Ni19  1  0.16666667  0.43982033  0.17497090  1.0
  Ni  Ni20  1  0.16666667  0.77315367  0.17497090  1.0
  Ni  Ni21  1  0.50000000  0.10648700  0.17497090  1.0
  Ni  Ni22  1  0.50000000  0.43982033  0.17497090  1.0
  Ni  Ni23  1  0.50000000  0.77315367  0.17497090  1.0
  Ni  Ni24  1  0.83333333  0.10648700  0.17497090  1.0
  Ni  Ni25  1  0.83333333  0.43982033  0.17497090  1.0
  Ni  Ni26  1  0.83333333  0.77315367  0.17497090  1.0
  Ni  Ni27  1  0.00000000  0.22684633  0.07497090  1.0
  Ni  Ni28  1  0.00000000  0.56017967  0.07497090  1.0
  Ni  Ni29  1  0.00000000  0.89351300  0.07497090  1.0
  Ni  Ni30  1  0.33333333  0.22684633  0.07497090  1.0
  Ni  Ni31  1  0.33333333  0.56017967  0.07497090  1.0
  Ni  Ni32  1  0.33333333  0.89351300  0.07497090  1.0
  Ni  Ni33  1  0.66666667  0.22684633  0.07497090  1.0
  Ni  Ni34  1  0.66666667  0.56017967  0.07497090  1.0
  Ni  Ni35  1  0.66666667  0.89351300  0.07497090  1.0
  Ni  Ni36  1  0.00000000  0.05294300  0.02491270  1.0
  Ni  Ni37  1  0.00000000  0.38627633  0.02491270  1.0
  Ni  Ni38  1  0.00000000  0.71960967  0.02491270  1.0
  Ni  Ni39  1  0.33333333  0.05294300  0.02491270  1.0
  Ni  Ni40  1  0.33333333  0.38627633  0.02491270  1.0
  Ni  Ni41  1  0.33333333  0.71960967  0.02491270  1.0
  Ni  Ni42  1  0.66666667  0.05294300  0.02491270  1.0
  Ni  Ni43  1  0.66666667  0.38627633  0.02491270  1.0
  Ni  Ni44  1  0.66666667  0.71960967  0.02491270  1.0
  Ni  Ni45  1  0.16666667  0.28039033  0.02502910  1.0
  Ni  Ni46  1  0.16666667  0.61372367  0.02502910  1.0
  Ni  Ni47  1  0.16666667  0.94705700  0.02502910  1.0
  Ni  Ni48  1  0.50000000  0.28039033  0.02502910  1.0
  Ni  Ni49  1  0.50000000  0.61372367  0.02502910  1.0
  Ni  Ni50  1  0.50000000  0.94705700  0.02502910  1.0
  Ni  Ni51  1  0.83333333  0.28039033  0.02502910  1.0
  Ni  Ni52  1  0.83333333  0.61372367  0.02502910  1.0
  Ni  Ni53  1  0.83333333  0.94705700  0.02502910  1.0
  Ni  Ni54  1  0.00000000  0.05294300  0.12502910  1.0
  Ni  Ni55  1  0.00000000  0.38627633  0.12502910  1.0
  Ni  Ni56  1  0.00000000  0.71960967  0.12502910  1.0
  Ni  Ni57  1  0.33333333  0.05294300  0.12502910  1.0
  Ni  Ni58  1  0.33333333  0.38627633  0.12502910  1.0
  Ni  Ni59  1  0.33333333  0.71960967  0.12502910  1.0
  Ni  Ni60  1  0.66666667  0.05294300  0.12502910  1.0
  Ni  Ni61  1  0.66666667  0.38627633  0.12502910  1.0
  Ni  Ni62  1  0.66666667  0.71960967  0.12502910  1.0
  Ni  Ni63  1  0.16666667  0.28039033  0.12491270  1.0
  Ni  Ni64  1  0.16666667  0.61372367  0.12491270  1.0
  Ni  Ni65  1  0.16666667  0.94705700  0.12491270  1.0
  Ni  Ni66  1  0.50000000  0.28039033  0.12491270  1.0
  Ni  Ni67  1  0.50000000  0.61372367  0.12491270  1.0
  Ni  Ni68  1  0.50000000  0.94705700  0.12491270  1.0
  Ni  Ni69  1  0.83333333  0.28039033  0.12491270  1.0
  Ni  Ni70  1  0.83333333  0.61372367  0.12491270  1.0
  Ni  Ni71  1  0.83333333  0.94705700  0.12491270  1.0
  Ta  Ta72  1  0.00000000  0.21700567  0.37497090  1.0
  Ta  Ta73  1  0.00000000  0.55033900  0.37497090  1.0
  Ta  Ta74  1  0.00000000  0.88367233  0.37497090  1.0
  Ta  Ta75  1  0.33333333  0.21700567  0.37497090  1.0
  Ta  Ta76  1  0.33333333  0.55033900  0.37497090  1.0
  Ta  Ta77  1  0.33333333  0.88367233  0.37497090  1.0
  Ta  Ta78  1  0.66666667  0.21700567  0.37497090  1.0
  Ta  Ta79  1  0.66666667  0.55033900  0.37497090  1.0
  Ta  Ta80  1  0.66666667  0.88367233  0.37497090  1.0
  Ta  Ta81  1  0.16666667  0.11632767  0.27497090  1.0
  Ta  Ta82  1  0.16666667  0.44966100  0.27497090  1.0
  Ta  Ta83  1  0.16666667  0.78299433  0.27497090  1.0
  Ta  Ta84  1  0.50000000  0.11632767  0.27497090  1.0
  Ta  Ta85  1  0.50000000  0.44966100  0.27497090  1.0
  Ta  Ta86  1  0.50000000  0.78299433  0.27497090  1.0
  Ta  Ta87  1  0.83333333  0.11632767  0.27497090  1.0
  Ta  Ta88  1  0.83333333  0.44966100  0.27497090  1.0
  Ta  Ta89  1  0.83333333  0.78299433  0.27497090  1.0
  Ni  Ni90  1  0.16666667  0.10648700  0.37497090  1.0
  Ni  Ni91  1  0.16666667  0.43982033  0.37497090  1.0
  Ni  Ni92  1  0.16666667  0.77315367  0.37497090  1.0
  Ni  Ni93  1  0.50000000  0.10648700  0.37497090  1.0
  Ni  Ni94  1  0.50000000  0.43982033  0.37497090  1.0
  Ni  Ni95  1  0.50000000  0.77315367  0.37497090  1.0
  Ni  Ni96  1  0.83333333  0.10648700  0.37497090  1.0
  Ni  Ni97  1  0.83333333  0.43982033  0.37497090  1.0
  Ni  Ni98  1  0.83333333  0.77315367  0.37497090  1.0
  Ni  Ni99  1  0.00000000  0.22684633  0.27497090  1.0
  Ni  Ni100  1  0.00000000  0.56017967  0.27497090  1.0
  Ni  Ni101  1  0.00000000  0.89351300  0.27497090  1.0
  Ni  Ni102  1  0.33333333  0.22684633  0.27497090  1.0
  Ni  Ni103  1  0.33333333  0.56017967  0.27497090  1.0
  Ni  Ni104  1  0.33333333  0.89351300  0.27497090  1.0
  Ni  Ni105  1  0.66666667  0.22684633  0.27497090  1.0
  Ni  Ni106  1  0.66666667  0.56017967  0.27497090  1.0
  Ni  Ni107  1  0.66666667  0.89351300  0.27497090  1.0
  Ni  Ni108  1  0.00000000  0.05294300  0.22491270  1.0
  Ni  Ni109  1  0.00000000  0.38627633  0.22491270  1.0
  Ni  Ni110  1  0.00000000  0.71960967  0.22491270  1.0
  Ni  Ni111  1  0.33333333  0.05294300  0.22491270  1.0
  Ni  Ni112  1  0.33333333  0.38627633  0.22491270  1.0
  Ni  Ni113  1  0.33333333  0.71960967  0.22491270  1.0
  Ni  Ni114  1  0.66666667  0.05294300  0.22491270  1.0
  Ni  Ni115  1  0.66666667  0.38627633  0.22491270  1.0
  Ni  Ni116  1  0.66666667  0.71960967  0.22491270  1.0
  Ni  Ni117  1  0.16666667  0.28039033  0.22502910  1.0
  Ni  Ni118  1  0.16666667  0.61372367  0.22502910  1.0
  Ni  Ni119  1  0.16666667  0.94705700  0.22502910  1.0
  Ni  Ni120  1  0.50000000  0.28039033  0.22502910  1.0
  Ni  Ni121  1  0.50000000  0.61372367  0.22502910  1.0
  Ni  Ni122  1  0.50000000  0.94705700  0.22502910  1.0
  Ni  Ni123  1  0.83333333  0.28039033  0.22502910  1.0
  Ni  Ni124  1  0.83333333  0.61372367  0.22502910  1.0
  Ni  Ni125  1  0.83333333  0.94705700  0.22502910  1.0
  Ni  Ni126  1  0.00000000  0.05294300  0.32502910  1.0
  Ni  Ni127  1  0.00000000  0.38627633  0.32502910  1.0
  Ni  Ni128  1  0.00000000  0.71960967  0.32502910  1.0
  Ni  Ni129  1  0.33333333  0.05294300  0.32502910  1.0
  Ni  Ni130  1  0.33333333  0.38627633  0.32502910  1.0
  Ni  Ni131  1  0.33333333  0.71960967  0.32502910  1.0
  Ni  Ni132  1  0.66666667  0.05294300  0.32502910  1.0
  Ni  Ni133  1  0.66666667  0.38627633  0.32502910  1.0
  Ni  Ni134  1  0.66666667  0.71960967  0.32502910  1.0
  Ni  Ni135  1  0.16666667  0.28039033  0.32491270  1.0
  Ni  Ni136  1  0.16666667  0.61372367  0.32491270  1.0
  Ni  Ni137  1  0.16666667  0.94705700  0.32491270  1.0
  Ni  Ni138  1  0.50000000  0.28039033  0.32491270  1.0
  Ni  Ni139  1  0.50000000  0.61372367  0.32491270  1.0
  Ni  Ni140  1  0.50000000  0.94705700  0.32491270  1.0
  Ni  Ni141  1  0.83333333  0.28039033  0.32491270  1.0
  Ni  Ni142  1  0.83333333  0.61372367  0.32491270  1.0
  Ni  Ni143  1  0.83333333  0.94705700  0.32491270  1.0
