# generated using pymatgen
data_TaNi2
_symmetry_space_group_name_H-M   'P 1'
_cell_length_a   13.61478426
_cell_length_b   13.61478426
_cell_length_c   45.38261420
_cell_angle_alpha   139.11911841
_cell_angle_beta   59.19326696
_cell_angle_gamma   139.11911841
_symmetry_Int_Tables_number   1
_chemical_formula_structural   TaNi2
_chemical_formula_sum   'Ta36 Ni72'
_cell_volume   3568.48942137
_cell_formula_units_Z   36
loop_
 _symmetry_equiv_pos_site_id
 _symmetry_equiv_pos_as_xyz
  1  'x, y, z'
loop_
 _atom_site_type_symbol
 _atom_site_label
 _atom_site_symmetry_multiplicity
 _atom_site_fract_x
 _atom_site_fract_y
 _atom_site_fract_z
 _atom_site_occupancy
  Ta  Ta0  1  0.00000000  0.00000000  0.08331465  1.0
  Ta  Ta1  1  0.00000000  0.33333333  0.08331465  1.0
  Ta  Ta2  1  0.00000000  0.66666667  0.08331465  1.0
  Ta  Ta3  1  0.33333333  0.00000000  0.08331465  1.0
  Ta  Ta4  1  0.33333333  0.33333333  0.08331465  1.0
  Ta  Ta5  1  0.33333333  0.66666667  0.08331465  1.0
  Ta  Ta6  1  0.66666667  0.00000000  0.08331465  1.0
  Ta  Ta7  1  0.66666667  0.33333333  0.08331465  1.0
  Ta  Ta8  1  0.66666667  0.66666667  0.08331465  1.0
  Ni  Ni9  1  0.11123567  0.00000000  0.01668535  1.0
  Ni  Ni10  1  0.11123567  0.33333333  0.01668535  1.0
  Ni  Ni11  1  0.11123567  0.66666667  0.01668535  1.0
  Ni  Ni12  1  0.44456900  0.00000000  0.01668535  1.0
  Ni  Ni13  1  0.44456900  0.33333333  0.01668535  1.0
  Ni  Ni14  1  0.44456900  0.66666667  0.01668535  1.0
  Ni  Ni15  1  0.77790233  0.00000000  0.01668535  1.0
  Ni  Ni16  1  0.77790233  0.33333333  0.01668535  1.0
  Ni  Ni17  1  0.77790233  0.66666667  0.01668535  1.0
  Ni  Ni18  1  0.22209767  0.00000000  0.04994395  1.0
  Ni  Ni19  1  0.22209767  0.33333333  0.04994395  1.0
  Ni  Ni20  1  0.22209767  0.66666667  0.04994395  1.0
  Ni  Ni21  1  0.55543100  0.00000000  0.04994395  1.0
  Ni  Ni22  1  0.55543100  0.33333333  0.04994395  1.0
  Ni  Ni23  1  0.55543100  0.66666667  0.04994395  1.0
  Ni  Ni24  1  0.88876433  0.00000000  0.04994395  1.0
  Ni  Ni25  1  0.88876433  0.33333333  0.04994395  1.0
  Ni  Ni26  1  0.88876433  0.66666667  0.04994395  1.0
  Ta  Ta27  1  0.00000000  0.00000000  0.18331465  1.0
  Ta  Ta28  1  0.00000000  0.33333333  0.18331465  1.0
  Ta  Ta29  1  0.00000000  0.66666667  0.18331465  1.0
  Ta  Ta30  1  0.33333333  0.00000000  0.18331465  1.0
  Ta  Ta31  1  0.33333333  0.33333333  0.18331465  1.0
  Ta  Ta32  1  0.33333333  0.66666667  0.18331465  1.0
  Ta  Ta33  1  0.66666667  0.00000000  0.18331465  1.0
  Ta  Ta34  1  0.66666667  0.33333333  0.18331465  1.0
  Ta  Ta35  1  0.66666667  0.66666667  0.18331465  1.0
  Ni  Ni36  1  0.11123567  0.00000000  0.11668535  1.0
  Ni  Ni37  1  0.11123567  0.33333333  0.11668535  1.0
  Ni  Ni38  1  0.11123567  0.66666667  0.11668535  1.0
  Ni  Ni39  1  0.44456900  0.00000000  0.11668535  1.0
  Ni  Ni40  1  0.44456900  0.33333333  0.11668535  1.0
  Ni  Ni41  1  0.44456900  0.66666667  0.11668535  1.0
  Ni  Ni42  1  0.77790233  0.00000000  0.11668535  1.0
  Ni  Ni43  1  0.77790233  0.33333333  0.11668535  1.0
  Ni  Ni44  1  0.77790233  0.66666667  0.11668535  1.0
  Ni  Ni45  1  0.22209767  0.00000000  0.14994395  1.0
  Ni  Ni46  1  0.22209767  0.33333333  0.14994395  1.0
  Ni  Ni47  1  0.22209767  0.66666667  0.14994395  1.0
  Ni  Ni48  1  0.55543100  0.00000000  0.14994395  1.0
  Ni  Ni49  1  0.55543100  0.33333333  0.14994395  1.0
  Ni  Ni50  1  0.55543100  0.66666667  0.14994395  1.0
  Ni  Ni51  1  0.88876433  0.00000000  0.14994395  1.0
  Ni  Ni52  1  0.88876433  0.33333333  0.14994395  1.0
  Ni  Ni53  1  0.88876433  0.66666667  0.14994395  1.0
  Ta  Ta54  1  0.00000000  0.00000000  0.28331465  1.0
  Ta  Ta55  1  0.00000000  0.33333333  0.28331465  1.0
  Ta  Ta56  1  0.00000000  0.66666667  0.28331465  1.0
  Ta  Ta57  1  0.33333333  0.00000000  0.28331465  1.0
  Ta  Ta58  1  0.33333333  0.33333333  0.28331465  1.0
  Ta  Ta59  1  0.33333333  0.66666667  0.28331465  1.0
  Ta  Ta60  1  0.66666667  0.00000000  0.28331465  1.0
  Ta  Ta61  1  0.66666667  0.33333333  0.28331465  1.0
  Ta  Ta62  1  0.66666667  0.66666667  0.28331465  1.0
  Ni  Ni63  1  0.11123567  0.00000000  0.21668535  1.0
  Ni  Ni64  1  0.11123567  0.33333333  0.21668535  1.0
  Ni  Ni65  1  0.11123567  0.66666667  0.21668535  1.0
  Ni  Ni66  1  0.44456900  0.00000000  0.21668535  1.0
  Ni  Ni67  1  0.44456900  0.33333333  0.21668535  1.0
  Ni  Ni68  1  0.44456900  0.66666667  0.21668535  1.0
  Ni  Ni69  1  0.77790233  0.00000000  0.21668535  1.0
  Ni  Ni70  1  0.77790233  0.33333333  0.21668535  1.0
  Ni  Ni71  1  0.77790233  0.66666667  0.21668535  1.0
  Ni  Ni72  1  0.22209767  0.00000000  0.24994395  1.0
  Ni  Ni73  1  0.22209767  0.33333333  0.24994395  1.0
  Ni  Ni74  1  0.22209767  0.66666667  0.24994395  1.0
  Ni  Ni75  1  0.55543100  0.00000000  0.24994395  1.0
  Ni  Ni76  1  0.55543100  0.33333333  0.24994395  1.0
  Ni  Ni77  1  0.55543100  0.66666667  0.24994395  1.0
  Ni  Ni78  1  0.88876433  0.00000000  0.24994395  1.0
  Ni  Ni79  1  0.88876433  0.33333333  0.24994395  1.0
  Ni  Ni80  1  0.88876433  0.66666667  0.24994395  1.0
  Ta  Ta81  1  0.00000000  0.00000000  0.38331465  1.0
  Ta  Ta82  1  0.00000000  0.33333333  0.38331465  1.0
  Ta  Ta83  1  0.00000000  0.66666667  0.38331465  1.0
  Ta  Ta84  1  0.33333333  0.00000000  0.38331465  1.0
  Ta  Ta85  1  0.33333333  0.33333333  0.38331465  1.0
  Ta  Ta86  1  0.33333333  0.66666667  0.38331465  1.0
  Ta  Ta87  1  0.66666667  0.00000000  0.38331465  1.0
  Ta  Ta88  1  0.66666667  0.33333333  0.38331465  1.0
  Ta  Ta89  1  0.66666667  0.66666667  0.38331465  1.0
  Ni  Ni90  1  0.11123567  0.00000000  0.31668535  1.0
  Ni  Ni91  1  0.11123567  0.33333333  0.31668535  1.0
  Ni  Ni92  1  0.11123567  0.66666667  0.31668535  1.0
  Ni  Ni93  1  0.44456900  0.00000000  0.31668535  1.0
  Ni  Ni94  1  0.44456900  0.33333333  0.31668535  1.0
  Ni  Ni95  1  0.44456900  0.66666667  0.31668535  1.0
  Ni  Ni96  1  0.77790233  0.00000000  0.31668535  1.0
  Ni  Ni97  1  0.77790233  0.33333333  0.31668535  1.0
  Ni  Ni98  1  0.77790233  0.66666667  0.31668535  1.0
  Ni  Ni99  1  0.22209767  0.00000000  0.34994395  1.0
  Ni  Ni100  1  0.22209767  0.33333333  0.34994395  1.0
  Ni  Ni101  1  0.22209767  0.66666667  0.34994395  1.0
  Ni  Ni102  1  0.55543100  0.00000000  0.34994395  1.0
  Ni  Ni103  1  0.55543100  0.33333333  0.34994395  1.0
  Ni  Ni104  1  0.55543100  0.66666667  0.34994395  1.0
  Ni  Ni105  1  0.88876433  0.00000000  0.34994395  1.0
  Ni  Ni106  1  0.88876433  0.33333333  0.34994395  1.0
  Ni  Ni107  1  0.88876433  0.66666667  0.34994395  1.0
